1LBK_GSH_A_504


 27 26  0  0  0  0  0  0  0  0999 V2000
   -9.2696   36.0411    2.5229 C   0  0  0  0  0  0  0  0  0  0  0  0
   -8.1198   35.8256    2.0930 O   0  0  0  0  0  0  0  0  0  0  0  0
   -9.9514   37.1577    2.2644 N   0  0  0  0  0  0  0  0  0  0  0  0
  -10.8570   37.2490    2.6397 H   0  0  0  0  0  0  0  0  0  0  0  0
  -10.0010   35.0383    3.4061 C   0  0  0  0  0  0  0  0  0  0  0  0
   -9.0965   34.2978    4.3960 C   0  0  0  0  0  0  0  0  0  0  0  0
  -10.3468   35.6467    6.0341 N   0  0  0  0  0  0  0  0  0  0  0  0
   -9.5742   34.3927    5.8444 C   0  0  0  0  0  0  0  0  0  0  0  0
  -10.6644   35.7074    7.0015 H   0  0  0  0  0  0  0  0  0  0  0  0
  -11.1541   35.6463    5.4106 H   0  0  0  0  0  0  0  0  0  0  0  0
   -8.3788   34.3721    6.8042 C   0  0  0  0  0  0  0  0  0  0  0  0
   -7.2684   34.0104    6.3618 O   0  0  0  0  0  0  0  0  0  0  0  0
   -8.5575   34.7211    7.9890 O   0  0  0  0  0  0  0  0  0  0  0  0
   -9.4095   34.9850    8.2762 H   0  0  0  0  0  0  0  0  0  0  0  0
   -9.4239   38.2532    1.4528 C   0  0  0  0  0  0  0  0  0  0  0  0
   -8.2063   38.8567    2.1548 C   0  0  0  0  0  0  0  0  0  0  0  0
   -8.3462   39.5318    3.1845 O   0  0  0  0  0  0  0  0  0  0  0  0
   -7.0248   38.6012    1.5844 N   0  0  0  0  0  0  0  0  0  0  0  0
   -6.9953   38.0536    0.7667 H   0  0  0  0  0  0  0  0  0  0  0  0
   -5.7789   39.1125    2.1420 C   0  0  0  0  0  0  0  0  0  0  0  0
   -4.9915   40.0339    1.2432 C   0  0  0  0  0  0  0  0  0  0  0  0
   -4.3011   39.5203    0.3355 O   0  0  0  0  0  0  0  0  0  0  0  0
   -5.0646   41.2669    1.4433 O   0  0  0  0  0  0  0  0  0  0  0  0
   -5.5980   41.5979    2.1389 H   0  0  0  0  0  0  0  0  0  0  0  0
  -10.4847   39.3507    1.2559 C   0  0  0  0  0  0  0  0  0  0  0  0
  -11.1796   39.3618   -0.4397 S   0  0  0  0  0  0  0  0  0  0  0  0
  -10.1869   39.6129   -1.3348 H   0  0  0  0  0  0  0  0  0  0  0  0
  7  8  1  0  0  0
  8 11  1  0  0  0
  8  6  1  0  0  0
 11 12  2  0  0  0
 11 13  1  0  0  0
  6  5  1  0  0  0
  5  1  1  0  0  0
  1  2  2  0  0  0
  1  3  1  0  0  0
  3 15  1  0  0  0
 15 16  1  0  0  0
 15 25  1  0  0  0
 16 17  2  0  0  0
 16 18  1  0  0  0
 25 26  1  0  0  0
 18 20  1  0  0  0
 20 21  1  0  0  0
 21 22  2  0  0  0
 21 23  1  0  0  0
  7  9  1  0  0  0
  7 10  1  0  0  0
 13 14  1  0  0  0
  3  4  1  0  0  0
 26 27  1  0  0  0
 18 19  1  0  0  0
 23 24  1  0  0  0
M  END
> <minimizedAffinity>
-6.85078

$$$$
1LBK_GSH_A_504


 27 26  0  0  0  0  0  0  0  0999 V2000
   -7.6425   35.0887    2.2972 C   0  0  0  0  0  0  0  0  0  0  0  0
   -7.0369   34.4695    3.1933 O   0  0  0  0  0  0  0  0  0  0  0  0
   -7.0797   35.4401    1.1403 N   0  0  0  0  0  0  0  0  0  0  0  0
   -7.6286   35.9254    0.4827 H   0  0  0  0  0  0  0  0  0  0  0  0
   -9.0960   35.5168    2.4543 C   0  0  0  0  0  0  0  0  0  0  0  0
   -9.2879   37.0233    2.6542 C   0  0  0  0  0  0  0  0  0  0  0  0
   -8.6432   37.9314    0.4574 N   0  0  0  0  0  0  0  0  0  0  0  0
   -9.7762   37.7459    1.3994 C   0  0  0  0  0  0  0  0  0  0  0  0
   -8.9720   38.4138   -0.3790 H   0  0  0  0  0  0  0  0  0  0  0  0
   -8.2643   37.0207    0.1978 H   0  0  0  0  0  0  0  0  0  0  0  0
  -10.3723   39.1101    1.7658 C   0  0  0  0  0  0  0  0  0  0  0  0
   -9.6715   39.9066    2.4247 O   0  0  0  0  0  0  0  0  0  0  0  0
  -11.5321   39.3762    1.3892 O   0  0  0  0  0  0  0  0  0  0  0  0
  -12.0206   38.7466    0.8964 H   0  0  0  0  0  0  0  0  0  0  0  0
   -5.6901   35.1419    0.7979 C   0  0  0  0  0  0  0  0  0  0  0  0
   -4.8974   36.4485    0.7348 C   0  0  0  0  0  0  0  0  0  0  0  0
   -3.7281   36.4540    0.3245 O   0  0  0  0  0  0  0  0  0  0  0  0
   -5.5505   37.5409    1.1431 N   0  0  0  0  0  0  0  0  0  0  0  0
   -6.4807   37.4555    1.4539 H   0  0  0  0  0  0  0  0  0  0  0  0
   -4.9205   38.8554    1.1400 C   0  0  0  0  0  0  0  0  0  0  0  0
   -5.6531   39.9317    1.9026 C   0  0  0  0  0  0  0  0  0  0  0  0
   -5.0481   41.0011    2.1365 O   0  0  0  0  0  0  0  0  0  0  0  0
   -6.8298   39.7090    2.2651 O   0  0  0  0  0  0  0  0  0  0  0  0
   -7.2351   38.8887    2.0627 H   0  0  0  0  0  0  0  0  0  0  0  0
   -5.6004   34.4342   -0.5658 C   0  0  0  0  0  0  0  0  0  0  0  0
   -7.2354   34.2521   -1.3731 S   0  0  0  0  0  0  0  0  0  0  0  0
   -8.0452   33.4899   -0.5902 H   0  0  0  0  0  0  0  0  0  0  0  0
  7  8  1  0  0  0
  8 11  1  0  0  0
  8  6  1  0  0  0
 11 12  2  0  0  0
 11 13  1  0  0  0
  6  5  1  0  0  0
  5  1  1  0  0  0
  1  2  2  0  0  0
  1  3  1  0  0  0
  3 15  1  0  0  0
 15 16  1  0  0  0
 15 25  1  0  0  0
 16 17  2  0  0  0
 16 18  1  0  0  0
 25 26  1  0  0  0
 18 20  1  0  0  0
 20 21  1  0  0  0
 21 22  2  0  0  0
 21 23  1  0  0  0
  7  9  1  0  0  0
  7 10  1  0  0  0
 13 14  1  0  0  0
  3  4  1  0  0  0
 26 27  1  0  0  0
 18 19  1  0  0  0
 23 24  1  0  0  0
M  END
> <minimizedAffinity>
-6.62288

$$$$
1LBK_GSH_A_504


 27 26  0  0  0  0  0  0  0  0999 V2000
   -8.4345   32.7820    4.6643 C   0  0  0  0  0  0  0  0  0  0  0  0
   -9.0864   31.8934    4.0826 O   0  0  0  0  0  0  0  0  0  0  0  0
   -8.5861   34.0836    4.4163 N   0  0  0  0  0  0  0  0  0  0  0  0
   -8.0339   34.7226    4.9223 H   0  0  0  0  0  0  0  0  0  0  0  0
   -7.3819   32.4524    5.7150 C   0  0  0  0  0  0  0  0  0  0  0  0
   -7.9420   32.2749    7.1297 C   0  0  0  0  0  0  0  0  0  0  0  0
   -7.2038   31.9758    9.4603 N   0  0  0  0  0  0  0  0  0  0  0  0
   -6.9986   32.7725    8.2239 C   0  0  0  0  0  0  0  0  0  0  0  0
   -6.5730   32.3100   10.1888 H   0  0  0  0  0  0  0  0  0  0  0  0
   -7.0103   30.9930    9.2676 H   0  0  0  0  0  0  0  0  0  0  0  0
   -7.2541   34.2556    8.5166 C   0  0  0  0  0  0  0  0  0  0  0  0
   -6.3110   34.9446    8.9586 O   0  0  0  0  0  0  0  0  0  0  0  0
   -8.3917   34.7205    8.2987 O   0  0  0  0  0  0  0  0  0  0  0  0
   -9.0691   34.1649    7.9665 H   0  0  0  0  0  0  0  0  0  0  0  0
   -9.5297   34.6107    3.4319 C   0  0  0  0  0  0  0  0  0  0  0  0
   -8.9331   35.8616    2.7846 C   0  0  0  0  0  0  0  0  0  0  0  0
   -7.7592   35.8639    2.3879 O   0  0  0  0  0  0  0  0  0  0  0  0
   -9.7563   36.9101    2.6867 N   0  0  0  0  0  0  0  0  0  0  0  0
  -10.6778   36.8297    3.0238 H   0  0  0  0  0  0  0  0  0  0  0  0
   -9.3246   38.1697    2.0934 C   0  0  0  0  0  0  0  0  0  0  0  0
   -9.4777   38.2717    0.5958 C   0  0  0  0  0  0  0  0  0  0  0  0
  -10.3523   39.0445    0.1461 O   0  0  0  0  0  0  0  0  0  0  0  0
   -8.7249   37.5827   -0.1282 O   0  0  0  0  0  0  0  0  0  0  0  0
   -8.0860   37.0194    0.2624 H   0  0  0  0  0  0  0  0  0  0  0  0
  -10.8678   34.9794    4.0968 C   0  0  0  0  0  0  0  0  0  0  0  0
  -12.1936   33.7690    3.7288 S   0  0  0  0  0  0  0  0  0  0  0  0
  -12.4192   33.7375    2.3880 H   0  0  0  0  0  0  0  0  0  0  0  0
  7  8  1  0  0  0
  8 11  1  0  0  0
  8  6  1  0  0  0
 11 12  2  0  0  0
 11 13  1  0  0  0
  6  5  1  0  0  0
  5  1  1  0  0  0
  1  2  2  0  0  0
  1  3  1  0  0  0
  3 15  1  0  0  0
 15 16  1  0  0  0
 15 25  1  0  0  0
 16 17  2  0  0  0
 16 18  1  0  0  0
 25 26  1  0  0  0
 18 20  1  0  0  0
 20 21  1  0  0  0
 21 22  2  0  0  0
 21 23  1  0  0  0
  7  9  1  0  0  0
  7 10  1  0  0  0
 13 14  1  0  0  0
  3  4  1  0  0  0
 26 27  1  0  0  0
 18 19  1  0  0  0
 23 24  1  0  0  0
M  END
> <minimizedAffinity>
-6.59887

$$$$
1LBK_GSH_A_504


 27 26  0  0  0  0  0  0  0  0999 V2000
   -9.6256   35.6584    4.0818 C   0  0  0  0  0  0  0  0  0  0  0  0
   -9.9969   36.4977    4.9248 O   0  0  0  0  0  0  0  0  0  0  0  0
   -9.3906   34.3789    4.3756 N   0  0  0  0  0  0  0  0  0  0  0  0
   -9.1029   33.7786    3.6502 H   0  0  0  0  0  0  0  0  0  0  0  0
   -9.3908   36.0303    2.6233 C   0  0  0  0  0  0  0  0  0  0  0  0
   -9.5596   37.5226    2.3217 C   0  0  0  0  0  0  0  0  0  0  0  0
   -8.2479   36.9395    0.3202 N   0  0  0  0  0  0  0  0  0  0  0  0
   -8.5958   38.0400    1.2547 C   0  0  0  0  0  0  0  0  0  0  0  0
   -7.6047   37.2877   -0.3907 H   0  0  0  0  0  0  0  0  0  0  0  0
   -9.0961   36.5938   -0.1287 H   0  0  0  0  0  0  0  0  0  0  0  0
   -7.3204   38.5871    1.9063 C   0  0  0  0  0  0  0  0  0  0  0  0
   -6.3021   37.8642    1.9172 O   0  0  0  0  0  0  0  0  0  0  0  0
   -7.3448   39.7343    2.3972 O   0  0  0  0  0  0  0  0  0  0  0  0
   -8.1326   40.2407    2.3658 H   0  0  0  0  0  0  0  0  0  0  0  0
   -9.5381   33.8215    5.7190 C   0  0  0  0  0  0  0  0  0  0  0  0
   -8.2029   33.9312    6.4571 C   0  0  0  0  0  0  0  0  0  0  0  0
   -7.1337   33.8520    5.8356 O   0  0  0  0  0  0  0  0  0  0  0  0
   -8.2864   34.1142    7.7786 N   0  0  0  0  0  0  0  0  0  0  0  0
   -9.1745   34.1690    8.2000 H   0  0  0  0  0  0  0  0  0  0  0  0
   -7.0963   34.2348    8.6116 C   0  0  0  0  0  0  0  0  0  0  0  0
   -6.6224   32.9579    9.2609 C   0  0  0  0  0  0  0  0  0  0  0  0
   -7.4364   32.0138    9.3632 O   0  0  0  0  0  0  0  0  0  0  0  0
   -5.4399   32.8988    9.6657 O   0  0  0  0  0  0  0  0  0  0  0  0
   -4.8722   33.6372    9.5634 H   0  0  0  0  0  0  0  0  0  0  0  0
   -9.9567   32.3418    5.6565 C   0  0  0  0  0  0  0  0  0  0  0  0
  -11.7640   32.1303    5.4397 S   0  0  0  0  0  0  0  0  0  0  0  0
  -12.4149   32.6758    6.5019 H   0  0  0  0  0  0  0  0  0  0  0  0
  7  8  1  0  0  0
  8 11  1  0  0  0
  8  6  1  0  0  0
 11 12  2  0  0  0
 11 13  1  0  0  0
  6  5  1  0  0  0
  5  1  1  0  0  0
  1  2  2  0  0  0
  1  3  1  0  0  0
  3 15  1  0  0  0
 15 16  1  0  0  0
 15 25  1  0  0  0
 16 17  2  0  0  0
 16 18  1  0  0  0
 25 26  1  0  0  0
 18 20  1  0  0  0
 20 21  1  0  0  0
 21 22  2  0  0  0
 21 23  1  0  0  0
  7  9  1  0  0  0
  7 10  1  0  0  0
 13 14  1  0  0  0
  3  4  1  0  0  0
 26 27  1  0  0  0
 18 19  1  0  0  0
 23 24  1  0  0  0
M  END
> <minimizedAffinity>
-6.53278

$$$$
1LBK_GSH_A_504


 27 26  0  0  0  0  0  0  0  0999 V2000
   -9.1172   36.0194    2.4623 C   0  0  0  0  0  0  0  0  0  0  0  0
   -9.7766   35.9198    3.5152 O   0  0  0  0  0  0  0  0  0  0  0  0
   -8.4912   34.9905    1.8895 N   0  0  0  0  0  0  0  0  0  0  0  0
   -7.9936   35.1526    1.0556 H   0  0  0  0  0  0  0  0  0  0  0  0
   -8.9551   37.3482    1.7354 C   0  0  0  0  0  0  0  0  0  0  0  0
   -7.5215   37.6459    1.2852 C   0  0  0  0  0  0  0  0  0  0  0  0
   -7.5862   39.8665    2.3487 N   0  0  0  0  0  0  0  0  0  0  0  0
   -6.7870   38.6234    2.2017 C   0  0  0  0  0  0  0  0  0  0  0  0
   -7.0937   40.5170    2.9608 H   0  0  0  0  0  0  0  0  0  0  0  0
   -8.4949   39.6407    2.7533 H   0  0  0  0  0  0  0  0  0  0  0  0
   -5.4067   38.9616    1.6264 C   0  0  0  0  0  0  0  0  0  0  0  0
   -5.0484   38.3966    0.5718 O   0  0  0  0  0  0  0  0  0  0  0  0
   -4.6947   39.7906    2.2291 O   0  0  0  0  0  0  0  0  0  0  0  0
   -5.0057   40.1895    3.0179 H   0  0  0  0  0  0  0  0  0  0  0  0
   -8.5056   33.6345    2.4355 C   0  0  0  0  0  0  0  0  0  0  0  0
   -7.8573   33.6445    3.8209 C   0  0  0  0  0  0  0  0  0  0  0  0
   -6.6403   33.8436    3.9429 O   0  0  0  0  0  0  0  0  0  0  0  0
   -8.6854   33.4299    4.8480 N   0  0  0  0  0  0  0  0  0  0  0  0
   -9.6422   33.2815    4.6698 H   0  0  0  0  0  0  0  0  0  0  0  0
   -8.2080   33.4100    6.2251 C   0  0  0  0  0  0  0  0  0  0  0  0
   -8.6715   34.5539    7.0929 C   0  0  0  0  0  0  0  0  0  0  0  0
   -8.2170   34.6308    8.2556 O   0  0  0  0  0  0  0  0  0  0  0  0
   -9.4861   35.3735    6.6130 O   0  0  0  0  0  0  0  0  0  0  0  0
   -9.7945   35.2679    5.7345 H   0  0  0  0  0  0  0  0  0  0  0  0
   -7.7282   32.6676    1.5248 C   0  0  0  0  0  0  0  0  0  0  0  0
   -6.8857   33.5267    0.1427 S   0  0  0  0  0  0  0  0  0  0  0  0
   -7.8118   34.1416   -0.6407 H   0  0  0  0  0  0  0  0  0  0  0  0
  7  8  1  0  0  0
  8 11  1  0  0  0
  8  6  1  0  0  0
 11 12  2  0  0  0
 11 13  1  0  0  0
  6  5  1  0  0  0
  5  1  1  0  0  0
  1  2  2  0  0  0
  1  3  1  0  0  0
  3 15  1  0  0  0
 15 16  1  0  0  0
 15 25  1  0  0  0
 16 17  2  0  0  0
 16 18  1  0  0  0
 25 26  1  0  0  0
 18 20  1  0  0  0
 20 21  1  0  0  0
 21 22  2  0  0  0
 21 23  1  0  0  0
  7  9  1  0  0  0
  7 10  1  0  0  0
 13 14  1  0  0  0
  3  4  1  0  0  0
 26 27  1  0  0  0
 18 19  1  0  0  0
 23 24  1  0  0  0
M  END
> <minimizedAffinity>
-6.36240

$$$$
1LBK_GSH_A_504


 27 26  0  0  0  0  0  0  0  0999 V2000
  -10.6296   31.3614    6.0284 C   0  0  0  0  0  0  0  0  0  0  0  0
  -10.4361   30.3114    6.6713 O   0  0  0  0  0  0  0  0  0  0  0  0
   -9.6517   32.1995    5.6819 N   0  0  0  0  0  0  0  0  0  0  0  0
   -9.8883   33.0069    5.1707 H   0  0  0  0  0  0  0  0  0  0  0  0
  -12.0230   31.7920    5.5883 C   0  0  0  0  0  0  0  0  0  0  0  0
  -12.0336   32.7788    4.4167 C   0  0  0  0  0  0  0  0  0  0  0  0
  -12.9459   34.9839    3.8073 N   0  0  0  0  0  0  0  0  0  0  0  0
  -12.1990   34.2349    4.8497 C   0  0  0  0  0  0  0  0  0  0  0  0
  -13.0548   35.9553    4.0989 H   0  0  0  0  0  0  0  0  0  0  0  0
  -13.8658   34.5623    3.6791 H   0  0  0  0  0  0  0  0  0  0  0  0
  -10.8287   34.8857    5.0716 C   0  0  0  0  0  0  0  0  0  0  0  0
  -10.0459   34.9667    4.1019 O   0  0  0  0  0  0  0  0  0  0  0  0
  -10.5476   35.3139    6.2097 O   0  0  0  0  0  0  0  0  0  0  0  0
  -11.1673   35.2311    6.9076 H   0  0  0  0  0  0  0  0  0  0  0  0
   -8.2467   31.9814    6.0219 C   0  0  0  0  0  0  0  0  0  0  0  0
   -7.8348   32.9718    7.1124 C   0  0  0  0  0  0  0  0  0  0  0  0
   -7.8840   34.1922    6.9030 O   0  0  0  0  0  0  0  0  0  0  0  0
   -7.4343   32.4278    8.2658 N   0  0  0  0  0  0  0  0  0  0  0  0
   -7.4249   31.4475    8.3560 H   0  0  0  0  0  0  0  0  0  0  0  0
   -7.0111   33.2489    9.3934 C   0  0  0  0  0  0  0  0  0  0  0  0
   -5.5369   33.5647    9.4535 C   0  0  0  0  0  0  0  0  0  0  0  0
   -5.1657   34.7055    9.0998 O   0  0  0  0  0  0  0  0  0  0  0  0
   -4.7532   32.6755    9.8546 O   0  0  0  0  0  0  0  0  0  0  0  0
   -5.0860   31.8370   10.1076 H   0  0  0  0  0  0  0  0  0  0  0  0
   -7.3458   32.1868    4.7912 C   0  0  0  0  0  0  0  0  0  0  0  0
   -7.7734   31.0607    3.4102 S   0  0  0  0  0  0  0  0  0  0  0  0
   -7.6037   29.7711    3.8077 H   0  0  0  0  0  0  0  0  0  0  0  0
  7  8  1  0  0  0
  8 11  1  0  0  0
  8  6  1  0  0  0
 11 12  2  0  0  0
 11 13  1  0  0  0
  6  5  1  0  0  0
  5  1  1  0  0  0
  1  2  2  0  0  0
  1  3  1  0  0  0
  3 15  1  0  0  0
 15 16  1  0  0  0
 15 25  1  0  0  0
 16 17  2  0  0  0
 16 18  1  0  0  0
 25 26  1  0  0  0
 18 20  1  0  0  0
 20 21  1  0  0  0
 21 22  2  0  0  0
 21 23  1  0  0  0
  7  9  1  0  0  0
  7 10  1  0  0  0
 13 14  1  0  0  0
  3  4  1  0  0  0
 26 27  1  0  0  0
 18 19  1  0  0  0
 23 24  1  0  0  0
M  END
> <minimizedAffinity>
-6.26427

$$$$
1LBK_GSH_A_504


 27 26  0  0  0  0  0  0  0  0999 V2000
   -9.0300   34.5572    3.2729 C   0  0  0  0  0  0  0  0  0  0  0  0
  -10.1113   33.9794    3.0487 O   0  0  0  0  0  0  0  0  0  0  0  0
   -8.2842   34.3233    4.3534 N   0  0  0  0  0  0  0  0  0  0  0  0
   -7.4403   34.8201    4.4545 H   0  0  0  0  0  0  0  0  0  0  0  0
   -8.4653   35.6070    2.3244 C   0  0  0  0  0  0  0  0  0  0  0  0
   -9.2457   36.9250    2.3113 C   0  0  0  0  0  0  0  0  0  0  0  0
   -7.3659   37.4719    0.8168 N   0  0  0  0  0  0  0  0  0  0  0  0
   -8.5807   38.0171    1.4746 C   0  0  0  0  0  0  0  0  0  0  0  0
   -6.9242   38.2028    0.2591 H   0  0  0  0  0  0  0  0  0  0  0  0
   -7.6272   36.6936    0.2116 H   0  0  0  0  0  0  0  0  0  0  0  0
   -8.1983   39.2099    2.3587 C   0  0  0  0  0  0  0  0  0  0  0  0
   -9.0586   39.6715    3.1374 O   0  0  0  0  0  0  0  0  0  0  0  0
   -7.0424   39.6724    2.2713 O   0  0  0  0  0  0  0  0  0  0  0  0
   -6.4301   39.2930    1.6720 H   0  0  0  0  0  0  0  0  0  0  0  0
   -8.6548   33.3675    5.3956 C   0  0  0  0  0  0  0  0  0  0  0  0
   -8.4074   33.9990    6.7666 C   0  0  0  0  0  0  0  0  0  0  0  0
   -8.9721   35.0560    7.0819 O   0  0  0  0  0  0  0  0  0  0  0  0
   -7.5636   33.3367    7.5641 N   0  0  0  0  0  0  0  0  0  0  0  0
   -7.1556   32.5006    7.2420 H   0  0  0  0  0  0  0  0  0  0  0  0
   -7.2320   33.8207    8.8985 C   0  0  0  0  0  0  0  0  0  0  0  0
   -5.7594   33.8942    9.2185 C   0  0  0  0  0  0  0  0  0  0  0  0
   -5.1390   34.9310    8.8951 O   0  0  0  0  0  0  0  0  0  0  0  0
   -5.2252   32.9192    9.7928 O   0  0  0  0  0  0  0  0  0  0  0  0
   -5.7380   32.1664   10.0125 H   0  0  0  0  0  0  0  0  0  0  0  0
   -7.8224   32.0783    5.2795 C   0  0  0  0  0  0  0  0  0  0  0  0
   -8.8585   30.5956    4.9859 S   0  0  0  0  0  0  0  0  0  0  0  0
   -9.7061   30.4199    6.0348 H   0  0  0  0  0  0  0  0  0  0  0  0
  7  8  1  0  0  0
  8 11  1  0  0  0
  8  6  1  0  0  0
 11 12  2  0  0  0
 11 13  1  0  0  0
  6  5  1  0  0  0
  5  1  1  0  0  0
  1  2  2  0  0  0
  1  3  1  0  0  0
  3 15  1  0  0  0
 15 16  1  0  0  0
 15 25  1  0  0  0
 16 17  2  0  0  0
 16 18  1  0  0  0
 25 26  1  0  0  0
 18 20  1  0  0  0
 20 21  1  0  0  0
 21 22  2  0  0  0
 21 23  1  0  0  0
  7  9  1  0  0  0
  7 10  1  0  0  0
 13 14  1  0  0  0
  3  4  1  0  0  0
 26 27  1  0  0  0
 18 19  1  0  0  0
 23 24  1  0  0  0
M  END
> <minimizedAffinity>
-6.12314

$$$$
1LBK_GSH_A_504


 27 26  0  0  0  0  0  0  0  0999 V2000
   -7.0123   33.8948    3.2327 C   0  0  0  0  0  0  0  0  0  0  0  0
   -5.7720   33.8867    3.3545 O   0  0  0  0  0  0  0  0  0  0  0  0
   -7.6490   34.5467    2.2589 N   0  0  0  0  0  0  0  0  0  0  0  0
   -8.6320   34.5000    2.2312 H   0  0  0  0  0  0  0  0  0  0  0  0
   -7.9229   33.1611    4.2090 C   0  0  0  0  0  0  0  0  0  0  0  0
   -8.1673   33.9103    5.5225 C   0  0  0  0  0  0  0  0  0  0  0  0
   -8.5056   32.0462    7.0964 N   0  0  0  0  0  0  0  0  0  0  0  0
   -7.6162   33.1835    6.7486 C   0  0  0  0  0  0  0  0  0  0  0  0
   -8.1354   31.5631    7.9149 H   0  0  0  0  0  0  0  0  0  0  0  0
   -8.5513   31.3976    6.3105 H   0  0  0  0  0  0  0  0  0  0  0  0
   -7.5161   34.1441    7.9393 C   0  0  0  0  0  0  0  0  0  0  0  0
   -6.4292   34.2220    8.5495 O   0  0  0  0  0  0  0  0  0  0  0  0
   -8.5208   34.8150    8.2522 O   0  0  0  0  0  0  0  0  0  0  0  0
   -9.3158   34.7232    7.7649 H   0  0  0  0  0  0  0  0  0  0  0  0
   -6.9629   35.3269    1.2305 C   0  0  0  0  0  0  0  0  0  0  0  0
   -7.5123   36.7544    1.2337 C   0  0  0  0  0  0  0  0  0  0  0  0
   -6.7407   37.7239    1.2517 O   0  0  0  0  0  0  0  0  0  0  0  0
   -8.8446   36.8609    1.2145 N   0  0  0  0  0  0  0  0  0  0  0  0
   -9.3910   36.0422    1.1986 H   0  0  0  0  0  0  0  0  0  0  0  0
   -9.5090   38.1583    1.2165 C   0  0  0  0  0  0  0  0  0  0  0  0
  -10.1506   38.5647   -0.0873 C   0  0  0  0  0  0  0  0  0  0  0  0
  -11.1146   39.3604   -0.0447 O   0  0  0  0  0  0  0  0  0  0  0  0
   -9.6910   38.0910   -1.1504 O   0  0  0  0  0  0  0  0  0  0  0  0
   -8.9661   37.4979   -1.1242 H   0  0  0  0  0  0  0  0  0  0  0  0
   -7.1788   34.7094   -0.1626 C   0  0  0  0  0  0  0  0  0  0  0  0
   -5.6119   34.1661   -0.9421 S   0  0  0  0  0  0  0  0  0  0  0  0
   -4.7947   35.2396   -1.1132 H   0  0  0  0  0  0  0  0  0  0  0  0
  7  8  1  0  0  0
  8 11  1  0  0  0
  8  6  1  0  0  0
 11 12  2  0  0  0
 11 13  1  0  0  0
  6  5  1  0  0  0
  5  1  1  0  0  0
  1  2  2  0  0  0
  1  3  1  0  0  0
  3 15  1  0  0  0
 15 16  1  0  0  0
 15 25  1  0  0  0
 16 17  2  0  0  0
 16 18  1  0  0  0
 25 26  1  0  0  0
 18 20  1  0  0  0
 20 21  1  0  0  0
 21 22  2  0  0  0
 21 23  1  0  0  0
  7  9  1  0  0  0
  7 10  1  0  0  0
 13 14  1  0  0  0
  3  4  1  0  0  0
 26 27  1  0  0  0
 18 19  1  0  0  0
 23 24  1  0  0  0
M  END
> <minimizedAffinity>
-6.11382

$$$$
1LBK_GSH_A_504


 27 26  0  0  0  0  0  0  0  0999 V2000
   -7.4889   35.0976    2.0879 C   0  0  0  0  0  0  0  0  0  0  0  0
   -6.7817   34.6042    1.1881 O   0  0  0  0  0  0  0  0  0  0  0  0
   -7.8956   36.3678    2.0869 N   0  0  0  0  0  0  0  0  0  0  0  0
   -8.4556   36.6791    2.8344 H   0  0  0  0  0  0  0  0  0  0  0  0
   -7.9450   34.2839    3.2922 C   0  0  0  0  0  0  0  0  0  0  0  0
   -9.3017   33.5970    3.1074 C   0  0  0  0  0  0  0  0  0  0  0  0
  -10.8739   35.4657    2.7878 N   0  0  0  0  0  0  0  0  0  0  0  0
  -10.4664   34.3785    3.7138 C   0  0  0  0  0  0  0  0  0  0  0  0
  -11.6513   35.9856    3.1950 H   0  0  0  0  0  0  0  0  0  0  0  0
  -11.1640   35.0626    1.8969 H   0  0  0  0  0  0  0  0  0  0  0  0
  -10.0626   34.9763    5.0666 C   0  0  0  0  0  0  0  0  0  0  0  0
   -9.6611   34.2029    5.9613 O   0  0  0  0  0  0  0  0  0  0  0  0
  -10.1455   36.2117    5.2228 O   0  0  0  0  0  0  0  0  0  0  0  0
  -10.4527   36.7529    4.5224 H   0  0  0  0  0  0  0  0  0  0  0  0
   -7.5530   37.3217    1.0335 C   0  0  0  0  0  0  0  0  0  0  0  0
   -6.5142   38.3086    1.5687 C   0  0  0  0  0  0  0  0  0  0  0  0
   -6.6315   38.7886    2.7051 O   0  0  0  0  0  0  0  0  0  0  0  0
   -5.5077   38.5957    0.7373 N   0  0  0  0  0  0  0  0  0  0  0  0
   -5.4831   38.1712   -0.1507 H   0  0  0  0  0  0  0  0  0  0  0  0
   -4.4456   39.5211    1.1117 C   0  0  0  0  0  0  0  0  0  0  0  0
   -3.7135   40.1726   -0.0355 C   0  0  0  0  0  0  0  0  0  0  0  0
   -2.5711   40.6329    0.1824 O   0  0  0  0  0  0  0  0  0  0  0  0
   -4.2782   40.2224   -1.1510 O   0  0  0  0  0  0  0  0  0  0  0  0
   -5.1361   39.8613   -1.2583 H   0  0  0  0  0  0  0  0  0  0  0  0
   -8.7971   38.1027    0.5743 C   0  0  0  0  0  0  0  0  0  0  0  0
   -9.7084   38.8599    1.9723 S   0  0  0  0  0  0  0  0  0  0  0  0
  -10.1480   37.8823    2.8094 H   0  0  0  0  0  0  0  0  0  0  0  0
  7  8  1  0  0  0
  8 11  1  0  0  0
  8  6  1  0  0  0
 11 12  2  0  0  0
 11 13  1  0  0  0
  6  5  1  0  0  0
  5  1  1  0  0  0
  1  2  2  0  0  0
  1  3  1  0  0  0
  3 15  1  0  0  0
 15 16  1  0  0  0
 15 25  1  0  0  0
 16 17  2  0  0  0
 16 18  1  0  0  0
 25 26  1  0  0  0
 18 20  1  0  0  0
 20 21  1  0  0  0
 21 22  2  0  0  0
 21 23  1  0  0  0
  7  9  1  0  0  0
  7 10  1  0  0  0
 13 14  1  0  0  0
  3  4  1  0  0  0
 26 27  1  0  0  0
 18 19  1  0  0  0
 23 24  1  0  0  0
M  END
> <minimizedAffinity>
-6.07090

$$$$
1LBK_GSH_A_504


 27 26  0  0  0  0  0  0  0  0999 V2000
   -8.5663   33.6861    6.0141 C   0  0  0  0  0  0  0  0  0  0  0  0
   -8.3280   32.5433    5.5777 O   0  0  0  0  0  0  0  0  0  0  0  0
   -9.1971   34.6242    5.3064 N   0  0  0  0  0  0  0  0  0  0  0  0
   -9.3494   35.5017    5.7259 H   0  0  0  0  0  0  0  0  0  0  0  0
   -8.1384   34.1214    7.4098 C   0  0  0  0  0  0  0  0  0  0  0  0
   -6.6211   34.2033    7.6035 C   0  0  0  0  0  0  0  0  0  0  0  0
   -7.2578   33.2484    9.7828 N   0  0  0  0  0  0  0  0  0  0  0  0
   -6.1260   33.4637    8.8457 C   0  0  0  0  0  0  0  0  0  0  0  0
   -6.9245   32.7547   10.6108 H   0  0  0  0  0  0  0  0  0  0  0  0
   -7.9790   32.6928    9.3229 H   0  0  0  0  0  0  0  0  0  0  0  0
   -5.0235   34.2688    9.5435 C   0  0  0  0  0  0  0  0  0  0  0  0
   -5.1460   35.5099    9.6096 O   0  0  0  0  0  0  0  0  0  0  0  0
   -4.0479   33.6556   10.0228 O   0  0  0  0  0  0  0  0  0  0  0  0
   -3.9986   32.7228    9.9491 H   0  0  0  0  0  0  0  0  0  0  0  0
   -9.6740   34.4169    3.9402 C   0  0  0  0  0  0  0  0  0  0  0  0
   -9.0121   35.4410    3.0168 C   0  0  0  0  0  0  0  0  0  0  0  0
   -7.8178   35.3269    2.7066 O   0  0  0  0  0  0  0  0  0  0  0  0
   -9.8032   36.4300    2.5893 N   0  0  0  0  0  0  0  0  0  0  0  0
  -10.7440   36.4508    2.8787 H   0  0  0  0  0  0  0  0  0  0  0  0
   -9.3087   37.4783    1.7054 C   0  0  0  0  0  0  0  0  0  0  0  0
   -8.4303   38.5188    2.3551 C   0  0  0  0  0  0  0  0  0  0  0  0
   -8.9838   39.5101    2.8800 O   0  0  0  0  0  0  0  0  0  0  0  0
   -7.1913   38.3447    2.3421 O   0  0  0  0  0  0  0  0  0  0  0  0
   -6.8295   37.5827    1.9341 H   0  0  0  0  0  0  0  0  0  0  0  0
  -11.2019   34.5836    3.8609 C   0  0  0  0  0  0  0  0  0  0  0  0
  -12.1020   33.2446    4.7299 S   0  0  0  0  0  0  0  0  0  0  0  0
  -11.8088   32.0503    4.1493 H   0  0  0  0  0  0  0  0  0  0  0  0
  7  8  1  0  0  0
  8 11  1  0  0  0
  8  6  1  0  0  0
 11 12  2  0  0  0
 11 13  1  0  0  0
  6  5  1  0  0  0
  5  1  1  0  0  0
  1  2  2  0  0  0
  1  3  1  0  0  0
  3 15  1  0  0  0
 15 16  1  0  0  0
 15 25  1  0  0  0
 16 17  2  0  0  0
 16 18  1  0  0  0
 25 26  1  0  0  0
 18 20  1  0  0  0
 20 21  1  0  0  0
 21 22  2  0  0  0
 21 23  1  0  0  0
  7  9  1  0  0  0
  7 10  1  0  0  0
 13 14  1  0  0  0
  3  4  1  0  0  0
 26 27  1  0  0  0
 18 19  1  0  0  0
 23 24  1  0  0  0
M  END
> <minimizedAffinity>
-6.04184

$$$$
