1LBK_GSH_A_504
  RCSB PDB12061703103D
Coordinates from PDB:1LBK:A:504 Model:1 without hydrogens
 20 19  0  0  0  0            999 V2000
   -6.8490   38.2910    0.3870   N 0  0  0  0  0  0  0  0  0  0  0  0
   -8.0430   38.3050    1.2700   C 0  0  0  0  0  0  0  0  0  0  0  0
   -7.7990   39.2480    2.4540   C 0  0  0  0  0  0  0  0  0  0  0  0
   -8.7810   39.8270    2.9640   O 0  0  0  0  0  0  0  0  0  0  0  0
   -6.6310   39.3990    2.8670   O 0  0  0  0  0  0  0  0  0  0  0  0
   -8.3310   36.8890    1.7670   C 0  0  0  0  0  0  0  0  0  0  0  0
   -9.7570   36.7070    2.2960   C 0  0  0  0  0  0  0  0  0  0  0  0
  -10.0690   35.2950    2.7750   C 0  0  0  0  0  0  0  0  0  0  0  0
   -9.2230   34.3810    2.7290   O 0  0  0  0  0  0  0  0  0  0  0  0
  -11.3110   35.1220    3.2290   N 0  0  0  0  0  0  0  0  0  0  0  0
  -11.8180   33.8410    3.7180   C 0  0  0  0  0  0  0  0  0  0  0  0
  -13.2670   33.6670    3.2600   C 0  0  0  0  0  0  0  0  0  0  0  0
  -13.9830   34.6570    3.0530   O 0  0  0  0  0  0  0  0  0  0  0  0
  -11.7670   33.7810    5.2550   C 0  0  0  0  0  0  0  0  0  0  0  0
  -11.8080   32.0640    5.8940   S 0  0  0  0  0  0  0  0  0  0  0  0
  -13.6770   32.4040    3.1070   N 0  0  0  0  0  0  0  0  0  0  0  0
  -15.0330   32.0860    2.6770   C 0  0  0  0  0  0  0  0  0  0  0  0
  -15.1820   31.6890    1.2290   C 0  0  0  0  0  0  0  0  0  0  0  0
  -16.2710   31.1930    0.8650   O 0  0  0  0  0  0  0  0  0  0  0  0
  -14.2140   31.8740    0.4580   O 0  0  0  0  0  0  0  0  0  0  0  0
  1  2  1  0  0  0  0
  2  3  1  0  0  0  0
  2  6  1  0  0  0  0
  3  4  2  0  0  0  0
  3  5  1  0  0  0  0
  6  7  1  0  0  0  0
  7  8  1  0  0  0  0
  8  9  2  0  0  0  0
  8 10  1  0  0  0  0
 10 11  1  0  0  0  0
 11 12  1  0  0  0  0
 11 14  1  0  0  0  0
 12 13  2  0  0  0  0
 12 16  1  0  0  0  0
 14 15  1  0  0  0  0
 16 17  1  0  0  0  0
 17 18  1  0  0  0  0
 18 19  2  0  0  0  0
 18 20  1  0  0  0  0
A    1
N1
A    2
CA1
A    3
C1
A    4
O11
A    5
O12
A    6
CB1
A    7
CG1
A    8
CD1
A    9
OE1
A   10
N2
A   11
CA2
A   12
C2
A   13
O2
A   14
CB2
A   15
SG2
A   16
N3
A   17
CA3
A   18
C3
A   19
O31
A   20
O32
M  END
>  <InstanceId>
1LBK_GSH_A_504

>  <ChemCompId>
GSH

>  <PdbId>
1LBK

>  <ChainId>
A

>  <ResidueNumber>
504

>  <InsertionCode>


>  <Model>
1

>  <AltIds>


>  <MissingHeavyAtoms>
0

>  <ObservedFormula>
C10 N3 O6 S

>  <Name>
GLUTATHIONE

>  <SystematicName>
(2S)-2-azanyl-5-[[(2R)-1-(2-hydroxy-2-oxoethylamino)-1-oxidanylidene-3-sulfanyl-propan-2-yl]amino]-5-oxidanylidene-pentanoic acid

>  <Synonyms>


>  <Type>
NON-POLYMER

>  <Formula>
C10 H17 N3 O6 S

>  <MolecularWeight>
307.323

>  <ModifiedDate>
2014-04-22

>  <Parent>


>  <OneLetterCode>


>  <SubcomponentList>


>  <AmbiguousFlag>
N

>  <InChI>
InChI=1S/C10H17N3O6S/c11-5(10(18)19)1-2-7(14)13-6(4-20)9(17)12-3-8(15)16/h5-6,20H,1-4,11H2,(H,12,17)(H,13,14)(H,15,16)(H,18,19)/t5-,6-/m0/s1

>  <InChIKey>
RWSXRVCMGQZWBV-WDSKDSINSA-N

>  <SMILES>
C(CC(=O)N[C@@H](CS)C(=O)NCC(=O)O)[C@@H](C(=O)O)N

$$$$
