2XNB_Y8L_A_1299
  RCSB PDB12061707283D
Coordinates from PDB:2XNB:A:1299 Model:1 without hydrogens
 27 30  0  0  0  0            999 V2000
   21.0300   24.0090   29.2560   C 0  0  0  0  0  0  0  0  0  0  0  0
   20.8700   22.4770   29.2510   C 0  0  0  0  0  0  0  0  0  0  0  0
   21.7240   21.8210   28.2490   N 0  0  0  0  0  0  0  0  0  0  0  0
   21.5470   22.5040   26.9750   C 0  0  0  0  0  0  0  0  0  0  0  0
   22.3130   23.8260   27.0370   C 0  0  0  0  0  0  0  0  0  0  0  0
   21.9990   24.5490   28.2820   N 0  0  0  0  0  0  0  0  0  0  0  0
   22.4700   25.8690   28.4570   C 0  0  0  0  0  0  0  0  0  0  0  0
   23.3890   26.4280   27.5660   C 0  0  0  0  0  0  0  0  0  0  0  0
   23.8190   27.7550   27.7100   C 0  0  0  0  0  0  0  0  0  0  0  0
   22.0090   26.6430   29.5180   C 0  0  0  0  0  0  0  0  0  0  0  0
   22.4710   27.9570   29.6610   C 0  0  0  0  0  0  0  0  0  0  0  0
   23.3580   28.5430   28.7540   C 0  0  0  0  0  0  0  0  0  0  0  0
   23.7530   29.8120   28.9680   N 0  0  0  0  0  0  0  0  0  0  0  0
   24.8420   30.4290   28.4720   C 0  0  0  0  0  0  0  0  0  0  0  0
   25.7860   29.8320   27.7130   N 0  0  0  0  0  0  0  0  0  0  0  0
   24.9300   31.7550   28.6910   N 0  0  0  0  0  0  0  0  0  0  0  0
   25.9450   32.4780   28.2440   C 0  0  0  0  0  0  0  0  0  0  0  0
   26.9460   31.8720   27.5050   C 0  0  0  0  0  0  0  0  0  0  0  0
   26.8650   30.5010   27.2580   C 0  0  0  0  0  0  0  0  0  0  0  0
   27.8370   29.8970   26.4430   C 0  0  0  0  0  0  0  0  0  0  0  0
   29.2070   30.6630   25.7370   S 0  0  0  0  0  0  0  0  0  0  0  0
   29.6770   29.2860   24.8710   C 0  0  0  0  0  0  0  0  0  0  0  0
   30.6760   29.1880   24.1620   O 0  0  0  0  0  0  0  0  0  0  0  0
   28.8420   28.2790   25.1390   N 0  0  0  0  0  0  0  0  0  0  0  0
   29.0250   26.9260   24.5410   C 0  0  0  0  0  0  0  0  0  0  0  0
   27.8370   28.5720   25.9750   C 0  0  0  0  0  0  0  0  0  0  0  0
   26.8040   27.5160   26.3780   C 0  0  0  0  0  0  0  0  0  0  0  0
  1  2  1  0  0  0  0
  1  6  1  0  0  0  0
  2  3  1  0  0  0  0
  3  4  1  0  0  0  0
  4  5  1  0  0  0  0
  5  6  1  0  0  0  0
  6  7  1  0  0  0  0
  7  8  1  0  0  0  0
  7 10  2  0  0  0  0
  8  9  2  0  0  0  0
  9 12  1  0  0  0  0
 10 11  1  0  0  0  0
 11 12  1  0  0  0  0
 12 13  2  0  0  0  0
 13 14  1  0  0  0  0
 14 15  1  0  0  0  0
 14 16  2  0  0  0  0
 15 19  2  0  0  0  0
 16 17  1  0  0  0  0
 17 18  2  0  0  0  0
 18 19  1  0  0  0  0
 19 20  1  0  0  0  0
 20 21  1  0  0  0  0
 20 26  2  0  0  0  0
 21 22  1  0  0  0  0
 22 23  2  0  0  0  0
 22 24  1  0  0  0  0
 24 25  1  0  0  0  0
 24 26  1  0  0  0  0
 26 27  1  0  0  0  0
A    1
C17
A    2
C18
A    3
N19
A    4
C20
A    5
C21
A    6
N16
A    7
C12
A    8
C13
A    9
C14
A   10
C11
A   11
C10
A   12
C9
A   13
N7
A   14
C4
A   15
N5
A   16
N3
A   17
C2
A   18
C1
A   19
C6
A   20
C15
A   21
S23
A   22
C24
A   23
O28
A   24
N25
A   25
C29
A   26
C26
A   27
C27
M  END
>  <InstanceId>
2XNB_Y8L_A_1299

>  <ChemCompId>
Y8L

>  <PdbId>
2XNB

>  <ChainId>
A

>  <ResidueNumber>
1299

>  <InsertionCode>


>  <Model>
1

>  <AltIds>


>  <MissingHeavyAtoms>
0

>  <ObservedFormula>
C19 N6 O S

>  <Name>
3,4-DIMETHYL-5-(2-{[(1Z)-4-PIPERAZIN-1-YLCYCLOHEXA-2,4-DIEN-1-YLIDENE]AMINO}PYRIMIDIN-4-YL)-1,3-THIAZOL-2(3H)-ONE

>  <SystematicName>
3,4-dimethyl-5-[2-[(4-piperazin-1-yl-1-cyclohexa-2,4-dienylidene)amino]pyrimidin-4-yl]-1,3-thiazol-2-one

>  <Synonyms>


>  <Type>
non-polymer

>  <Formula>
C19 H22 N6 O S

>  <MolecularWeight>
382.483

>  <ModifiedDate>
2011-06-04

>  <Parent>


>  <OneLetterCode>


>  <SubcomponentList>


>  <AmbiguousFlag>
N

>  <InChI>
InChI=1S/C19H22N6OS/c1-13-17(27-19(26)24(13)2)16-7-8-21-18(23-16)22-14-3-5-15(6-4-14)25-11-9-20-10-12-25/h3,5-8,20H,4,9-12H2,1-2H3/b22-14+

>  <InChIKey>
SNCJEJRBHBIGKH-HYARGMPZSA-N

>  <SMILES>
CC1=C(SC(=O)N1C)c2ccnc(n2)N=C3CC=C(C=C3)N4CCNCC4

$$$$
