2XNB_Y8L_A_1299


 28 31  0  0  0  0  0  0  0  0999 V2000
   21.9758   25.8686   28.3133 C   0  0  0  0  0  0  0  0  0  0  0  0
   22.5634   26.6078   27.2842 C   0  0  0  0  0  0  0  0  0  0  0  0
   23.1392   27.8619   27.5337 C   0  0  0  0  0  0  0  0  0  0  0  0
   21.9998   26.3831   29.6064 C   0  0  0  0  0  0  0  0  0  0  0  0
   22.6037   27.6244   29.8404 C   0  0  0  0  0  0  0  0  0  0  0  0
   23.1584   28.3939   28.8143 C   0  0  0  0  0  0  0  0  0  0  0  0
   23.7212   29.5759   29.1279 N   0  0  0  0  0  0  0  0  0  0  0  0
   21.9912   23.7019   27.0980 C   0  0  0  0  0  0  0  0  0  0  0  0
   21.0860   22.5788   26.5578 C   0  0  0  0  0  0  0  0  0  0  0  0
   19.7242   22.6327   27.1111 N   0  0  0  0  0  0  0  0  0  0  0  0
   19.8200   22.7599   28.5587 C   0  0  0  0  0  0  0  0  0  0  0  0
   20.2103   24.2027   28.8816 C   0  0  0  0  0  0  0  0  0  0  0  0
   21.3515   24.6288   28.0524 N   0  0  0  0  0  0  0  0  0  0  0  0
   19.2217   21.7775   26.8730 H   0  0  0  0  0  0  0  0  0  0  0  0
   24.6136   30.2792   28.4056 C   0  0  0  0  0  0  0  0  0  0  0  0
   25.6099   29.7363   27.6733 N   0  0  0  0  0  0  0  0  0  0  0  0
   24.4268   31.6122   28.3578 N   0  0  0  0  0  0  0  0  0  0  0  0
   25.2275   32.4125   27.6715 C   0  0  0  0  0  0  0  0  0  0  0  0
   26.2827   31.8765   26.9541 C   0  0  0  0  0  0  0  0  0  0  0  0
   26.4841   30.4959   26.9823 C   0  0  0  0  0  0  0  0  0  0  0  0
   27.5053   29.9401   26.1936 C   0  0  0  0  0  0  0  0  0  0  0  0
   29.1380   30.4762   26.0985 S   0  0  0  0  0  0  0  0  0  0  0  0
   29.5499   29.3788   24.8766 C   0  0  0  0  0  0  0  0  0  0  0  0
   30.6660   29.2387   24.3815 O   0  0  0  0  0  0  0  0  0  0  0  0
   28.4942   28.6161   24.5819 N   0  0  0  0  0  0  0  0  0  0  0  0
   28.5671   27.5345   23.5590 C   0  0  0  0  0  0  0  0  0  0  0  0
   27.3757   28.8932   25.2652 C   0  0  0  0  0  0  0  0  0  0  0  0
   26.0869   28.0982   25.0376 C   0  0  0  0  0  0  0  0  0  0  0  0
  8  9  1  0  0  0
  8 13  1  0  0  0
  9 10  1  0  0  0
 10 11  1  0  0  0
 11 12  1  0  0  0
 12 13  1  0  0  0
 13  1  1  0  0  0
  1  2  1  0  0  0
  1  4  2  0  0  0
  2  3  2  0  0  0
  3  6  1  0  0  0
  4  5  1  0  0  0
  5  6  1  0  0  0
  6  7  2  0  0  0
  7 15  1  0  0  0
 15 16  1  0  0  0
 15 17  2  0  0  0
 16 20  2  0  0  0
 17 18  1  0  0  0
 18 19  2  0  0  0
 19 20  1  0  0  0
 20 21  1  0  0  0
 21 22  1  0  0  0
 21 27  2  0  0  0
 22 23  1  0  0  0
 23 24  2  0  0  0
 23 25  1  0  0  0
 25 26  1  0  0  0
 25 27  1  0  0  0
 27 28  1  0  0  0
 10 14  1  0  0  0
M  END
> <minimizedAffinity>
-10.37650

$$$$
2XNB_Y8L_A_1299


 28 31  0  0  0  0  0  0  0  0999 V2000
   26.1420   24.0550   23.5346 C   0  0  0  0  0  0  0  0  0  0  0  0
   26.4123   24.8293   24.6652 C   0  0  0  0  0  0  0  0  0  0  0  0
   27.3004   25.9128   24.6030 C   0  0  0  0  0  0  0  0  0  0  0  0
   26.7452   24.3973   22.3278 C   0  0  0  0  0  0  0  0  0  0  0  0
   27.6076   25.4993   22.2794 C   0  0  0  0  0  0  0  0  0  0  0  0
   27.9198   26.2576   23.4110 C   0  0  0  0  0  0  0  0  0  0  0  0
   28.7574   27.3026   23.2749 N   0  0  0  0  0  0  0  0  0  0  0  0
   25.6114   21.7415   22.8015 C   0  0  0  0  0  0  0  0  0  0  0  0
   24.4600   20.7358   22.6130 C   0  0  0  0  0  0  0  0  0  0  0  0
   23.2253   21.1530   23.2950 N   0  0  0  0  0  0  0  0  0  0  0  0
   23.5576   21.5219   24.6640 C   0  0  0  0  0  0  0  0  0  0  0  0
   24.2282   22.8958   24.6339 C   0  0  0  0  0  0  0  0  0  0  0  0
   25.2868   22.9335   23.6096 N   0  0  0  0  0  0  0  0  0  0  0  0
   22.5567   20.3827   23.2985 H   0  0  0  0  0  0  0  0  0  0  0  0
   28.8978   28.3568   24.1004 C   0  0  0  0  0  0  0  0  0  0  0  0
   27.8953   28.9165   24.8113 N   0  0  0  0  0  0  0  0  0  0  0  0
   30.1520   28.8144   24.2783 N   0  0  0  0  0  0  0  0  0  0  0  0
   30.4237   29.8366   25.0745 C   0  0  0  0  0  0  0  0  0  0  0  0
   29.4004   30.4525   25.7737 C   0  0  0  0  0  0  0  0  0  0  0  0
   28.0961   29.9838   25.6109 C   0  0  0  0  0  0  0  0  0  0  0  0
   27.0665   30.5547   26.3776 C   0  0  0  0  0  0  0  0  0  0  0  0
   26.7561   32.2336   26.5946 S   0  0  0  0  0  0  0  0  0  0  0  0
   25.5080   31.9781   27.7099 C   0  0  0  0  0  0  0  0  0  0  0  0
   24.8198   32.8520   28.2324 O   0  0  0  0  0  0  0  0  0  0  0  0
   25.3174   30.6674   27.8797 N   0  0  0  0  0  0  0  0  0  0  0  0
   24.2584   30.1381   28.7852 C   0  0  0  0  0  0  0  0  0  0  0  0
   26.1408   29.8715   27.1845 C   0  0  0  0  0  0  0  0  0  0  0  0
   26.0372   28.3465   27.2747 C   0  0  0  0  0  0  0  0  0  0  0  0
  8  9  1  0  0  0
  8 13  1  0  0  0
  9 10  1  0  0  0
 10 11  1  0  0  0
 11 12  1  0  0  0
 12 13  1  0  0  0
 13  1  1  0  0  0
  1  2  1  0  0  0
  1  4  2  0  0  0
  2  3  2  0  0  0
  3  6  1  0  0  0
  4  5  1  0  0  0
  5  6  1  0  0  0
  6  7  2  0  0  0
  7 15  1  0  0  0
 15 16  1  0  0  0
 15 17  2  0  0  0
 16 20  2  0  0  0
 17 18  1  0  0  0
 18 19  2  0  0  0
 19 20  1  0  0  0
 20 21  1  0  0  0
 21 22  1  0  0  0
 21 27  2  0  0  0
 22 23  1  0  0  0
 23 24  2  0  0  0
 23 25  1  0  0  0
 25 26  1  0  0  0
 25 27  1  0  0  0
 27 28  1  0  0  0
 10 14  1  0  0  0
M  END
> <minimizedAffinity>
-9.85552

$$$$
2XNB_Y8L_A_1299


 28 31  0  0  0  0  0  0  0  0999 V2000
   26.5837   30.0538   26.9470 C   0  0  0  0  0  0  0  0  0  0  0  0
   26.2729   28.6924   26.9189 C   0  0  0  0  0  0  0  0  0  0  0  0
   25.1655   28.1899   27.6172 C   0  0  0  0  0  0  0  0  0  0  0  0
   25.7528   30.9166   27.6558 C   0  0  0  0  0  0  0  0  0  0  0  0
   24.6360   30.4000   28.3240 C   0  0  0  0  0  0  0  0  0  0  0  0
   24.3362   29.0352   28.3392 C   0  0  0  0  0  0  0  0  0  0  0  0
   23.2411   28.6238   29.0053 N   0  0  0  0  0  0  0  0  0  0  0  0
   27.9195   32.0134   26.2071 C   0  0  0  0  0  0  0  0  0  0  0  0
   28.9355   32.4925   25.1531 C   0  0  0  0  0  0  0  0  0  0  0  0
   29.5472   31.3810   24.4088 N   0  0  0  0  0  0  0  0  0  0  0  0
   30.0130   30.3871   25.3659 C   0  0  0  0  0  0  0  0  0  0  0  0
   28.7949   29.6195   25.8809 C   0  0  0  0  0  0  0  0  0  0  0  0
   27.7278   30.5517   26.2852 N   0  0  0  0  0  0  0  0  0  0  0  0
   30.3346   31.7262   23.8600 H   0  0  0  0  0  0  0  0  0  0  0  0
   22.5699   27.4672   28.8492 C   0  0  0  0  0  0  0  0  0  0  0  0
   22.1050   26.7045   29.8620 N   0  0  0  0  0  0  0  0  0  0  0  0
   22.2799   27.1099   27.5834 N   0  0  0  0  0  0  0  0  0  0  0  0
   21.6132   26.0022   27.2981 C   0  0  0  0  0  0  0  0  0  0  0  0
   21.1713   25.1843   28.3233 C   0  0  0  0  0  0  0  0  0  0  0  0
   21.4522   25.5451   29.6417 C   0  0  0  0  0  0  0  0  0  0  0  0
   20.9385   24.7597   30.6872 C   0  0  0  0  0  0  0  0  0  0  0  0
   19.6491   25.1764   31.7482 S   0  0  0  0  0  0  0  0  0  0  0  0
   19.8265   23.7865   32.6987 C   0  0  0  0  0  0  0  0  0  0  0  0
   19.1196   23.4728   33.6538 O   0  0  0  0  0  0  0  0  0  0  0  0
   20.8050   23.0245   32.2037 N   0  0  0  0  0  0  0  0  0  0  0  0
   21.1695   21.7163   32.8179 C   0  0  0  0  0  0  0  0  0  0  0  0
   21.4297   23.5185   31.1264 C   0  0  0  0  0  0  0  0  0  0  0  0
   22.5687   22.7534   30.4469 C   0  0  0  0  0  0  0  0  0  0  0  0
  8  9  1  0  0  0
  8 13  1  0  0  0
  9 10  1  0  0  0
 10 11  1  0  0  0
 11 12  1  0  0  0
 12 13  1  0  0  0
 13  1  1  0  0  0
  1  2  1  0  0  0
  1  4  2  0  0  0
  2  3  2  0  0  0
  3  6  1  0  0  0
  4  5  1  0  0  0
  5  6  1  0  0  0
  6  7  2  0  0  0
  7 15  1  0  0  0
 15 16  1  0  0  0
 15 17  2  0  0  0
 16 20  2  0  0  0
 17 18  1  0  0  0
 18 19  2  0  0  0
 19 20  1  0  0  0
 20 21  1  0  0  0
 21 22  1  0  0  0
 21 27  2  0  0  0
 22 23  1  0  0  0
 23 24  2  0  0  0
 23 25  1  0  0  0
 25 26  1  0  0  0
 25 27  1  0  0  0
 27 28  1  0  0  0
 10 14  1  0  0  0
M  END
> <minimizedAffinity>
-8.98503

$$$$
2XNB_Y8L_A_1299


 28 31  0  0  0  0  0  0  0  0999 V2000
   26.6289   29.6630   26.8385 C   0  0  0  0  0  0  0  0  0  0  0  0
   26.3222   28.3008   26.8739 C   0  0  0  0  0  0  0  0  0  0  0  0
   25.2070   27.8298   27.5818 C   0  0  0  0  0  0  0  0  0  0  0  0
   25.7865   30.5570   27.4930 C   0  0  0  0  0  0  0  0  0  0  0  0
   24.6625   30.0704   28.1714 C   0  0  0  0  0  0  0  0  0  0  0  0
   24.3662   28.7070   28.2503 C   0  0  0  0  0  0  0  0  0  0  0  0
   23.2635   28.3254   28.9217 N   0  0  0  0  0  0  0  0  0  0  0  0
   28.1030   31.5701   26.2373 C   0  0  0  0  0  0  0  0  0  0  0  0
   29.1057   32.0755   25.1829 C   0  0  0  0  0  0  0  0  0  0  0  0
   29.5738   31.0066   24.2874 N   0  0  0  0  0  0  0  0  0  0  0  0
   29.9920   29.8738   25.1016 C   0  0  0  0  0  0  0  0  0  0  0  0
   28.7347   29.1616   25.6019 C   0  0  0  0  0  0  0  0  0  0  0  0
   27.7803   30.1313   26.1677 N   0  0  0  0  0  0  0  0  0  0  0  0
   30.3618   31.3419   23.7333 H   0  0  0  0  0  0  0  0  0  0  0  0
   22.5975   27.1603   28.8145 C   0  0  0  0  0  0  0  0  0  0  0  0
   22.4170   26.2813   29.8236 N   0  0  0  0  0  0  0  0  0  0  0  0
   22.0059   26.9164   27.6294 N   0  0  0  0  0  0  0  0  0  0  0  0
   21.3108   25.8128   27.4018 C   0  0  0  0  0  0  0  0  0  0  0  0
   21.1567   24.8787   28.4112 C   0  0  0  0  0  0  0  0  0  0  0  0
   21.7527   25.1206   29.6496 C   0  0  0  0  0  0  0  0  0  0  0  0
   21.5337   24.2135   30.6999 C   0  0  0  0  0  0  0  0  0  0  0  0
   22.4256   22.7769   31.0204 S   0  0  0  0  0  0  0  0  0  0  0  0
   21.4199   22.2975   32.2955 C   0  0  0  0  0  0  0  0  0  0  0  0
   21.5751   21.3020   32.9991 O   0  0  0  0  0  0  0  0  0  0  0  0
   20.4676   23.2138   32.4865 N   0  0  0  0  0  0  0  0  0  0  0  0
   19.4495   23.0757   33.5665 C   0  0  0  0  0  0  0  0  0  0  0  0
   20.4933   24.2547   31.6435 C   0  0  0  0  0  0  0  0  0  0  0  0
   19.4665   25.3861   31.7450 C   0  0  0  0  0  0  0  0  0  0  0  0
  8  9  1  0  0  0
  8 13  1  0  0  0
  9 10  1  0  0  0
 10 11  1  0  0  0
 11 12  1  0  0  0
 12 13  1  0  0  0
 13  1  1  0  0  0
  1  2  1  0  0  0
  1  4  2  0  0  0
  2  3  2  0  0  0
  3  6  1  0  0  0
  4  5  1  0  0  0
  5  6  1  0  0  0
  6  7  2  0  0  0
  7 15  1  0  0  0
 15 16  1  0  0  0
 15 17  2  0  0  0
 16 20  2  0  0  0
 17 18  1  0  0  0
 18 19  2  0  0  0
 19 20  1  0  0  0
 20 21  1  0  0  0
 21 22  1  0  0  0
 21 27  2  0  0  0
 22 23  1  0  0  0
 23 24  2  0  0  0
 23 25  1  0  0  0
 25 26  1  0  0  0
 25 27  1  0  0  0
 27 28  1  0  0  0
 10 14  1  0  0  0
M  END
> <minimizedAffinity>
-8.98133

$$$$
2XNB_Y8L_A_1299


 28 31  0  0  0  0  0  0  0  0999 V2000
   25.3947   29.1290   27.4391 C   0  0  0  0  0  0  0  0  0  0  0  0
   25.2024   27.8292   26.9654 C   0  0  0  0  0  0  0  0  0  0  0  0
   24.1451   27.0377   27.4370 C   0  0  0  0  0  0  0  0  0  0  0  0
   24.4953   29.6438   28.3683 C   0  0  0  0  0  0  0  0  0  0  0  0
   23.4300   28.8480   28.8066 C   0  0  0  0  0  0  0  0  0  0  0  0
   23.2490   27.5319   28.3731 C   0  0  0  0  0  0  0  0  0  0  0  0
   22.1961   26.8378   28.8440 N   0  0  0  0  0  0  0  0  0  0  0  0
   27.5419   29.2574   26.1962 C   0  0  0  0  0  0  0  0  0  0  0  0
   28.8714   30.0291   26.0978 C   0  0  0  0  0  0  0  0  0  0  0  0
   28.8432   31.3030   26.8327 N   0  0  0  0  0  0  0  0  0  0  0  0
   27.6355   32.0248   26.4569 C   0  0  0  0  0  0  0  0  0  0  0  0
   26.4523   31.3706   27.1712 C   0  0  0  0  0  0  0  0  0  0  0  0
   26.4890   29.9073   27.0013 N   0  0  0  0  0  0  0  0  0  0  0  0
   29.6648   31.8576   26.5920 H   0  0  0  0  0  0  0  0  0  0  0  0
   21.6264   25.7426   28.3066 C   0  0  0  0  0  0  0  0  0  0  0  0
   22.2939   24.6239   27.9508 N   0  0  0  0  0  0  0  0  0  0  0  0
   20.2835   25.7555   28.2053 N   0  0  0  0  0  0  0  0  0  0  0  0
   19.6038   24.7348   27.7065 C   0  0  0  0  0  0  0  0  0  0  0  0
   20.2774   23.5989   27.2923 C   0  0  0  0  0  0  0  0  0  0  0  0
   21.6681   23.5632   27.4012 C   0  0  0  0  0  0  0  0  0  0  0  0
   22.3485   22.3836   27.0553 C   0  0  0  0  0  0  0  0  0  0  0  0
   22.6502   21.7996   25.4647 S   0  0  0  0  0  0  0  0  0  0  0  0
   23.3448   20.3519   26.0020 C   0  0  0  0  0  0  0  0  0  0  0  0
   23.8254   19.4754   25.2871 O   0  0  0  0  0  0  0  0  0  0  0  0
   23.3741   20.3349   27.3369 N   0  0  0  0  0  0  0  0  0  0  0  0
   23.9604   19.1938   28.0957 C   0  0  0  0  0  0  0  0  0  0  0  0
   22.8415   21.4074   27.9377 C   0  0  0  0  0  0  0  0  0  0  0  0
   22.8090   21.5302   29.4636 C   0  0  0  0  0  0  0  0  0  0  0  0
  8  9  1  0  0  0
  8 13  1  0  0  0
  9 10  1  0  0  0
 10 11  1  0  0  0
 11 12  1  0  0  0
 12 13  1  0  0  0
 13  1  1  0  0  0
  1  2  1  0  0  0
  1  4  2  0  0  0
  2  3  2  0  0  0
  3  6  1  0  0  0
  4  5  1  0  0  0
  5  6  1  0  0  0
  6  7  2  0  0  0
  7 15  1  0  0  0
 15 16  1  0  0  0
 15 17  2  0  0  0
 16 20  2  0  0  0
 17 18  1  0  0  0
 18 19  2  0  0  0
 19 20  1  0  0  0
 20 21  1  0  0  0
 21 22  1  0  0  0
 21 27  2  0  0  0
 22 23  1  0  0  0
 23 24  2  0  0  0
 23 25  1  0  0  0
 25 26  1  0  0  0
 25 27  1  0  0  0
 27 28  1  0  0  0
 10 14  1  0  0  0
M  END
> <minimizedAffinity>
-8.50957

$$$$
2XNB_Y8L_A_1299


 28 31  0  0  0  0  0  0  0  0999 V2000
   26.8285   30.1350   26.7842 C   0  0  0  0  0  0  0  0  0  0  0  0
   26.4958   28.7803   26.8553 C   0  0  0  0  0  0  0  0  0  0  0  0
   25.3680   28.3502   27.5691 C   0  0  0  0  0  0  0  0  0  0  0  0
   25.9995   31.0625   27.4085 C   0  0  0  0  0  0  0  0  0  0  0  0
   24.8627   30.6161   28.0933 C   0  0  0  0  0  0  0  0  0  0  0  0
   24.5402   29.2612   28.2080 C   0  0  0  0  0  0  0  0  0  0  0  0
   23.4268   28.9192   28.8829 N   0  0  0  0  0  0  0  0  0  0  0  0
   28.2311   32.0120   25.9588 C   0  0  0  0  0  0  0  0  0  0  0  0
   29.2687   32.4056   24.8906 C   0  0  0  0  0  0  0  0  0  0  0  0
   29.8493   31.2396   24.2072 N   0  0  0  0  0  0  0  0  0  0  0  0
   30.2769   30.2803   25.2161 C   0  0  0  0  0  0  0  0  0  0  0  0
   29.0315   29.5783   25.7587 C   0  0  0  0  0  0  0  0  0  0  0  0
   27.9922   30.5628   26.1078 N   0  0  0  0  0  0  0  0  0  0  0  0
   30.6509   31.5319   23.6483 H   0  0  0  0  0  0  0  0  0  0  0  0
   22.7393   27.7643   28.8038 C   0  0  0  0  0  0  0  0  0  0  0  0
   23.0241   26.7560   27.9519 N   0  0  0  0  0  0  0  0  0  0  0  0
   21.7549   27.5911   29.7065 N   0  0  0  0  0  0  0  0  0  0  0  0
   21.0150   26.4938   29.7416 C   0  0  0  0  0  0  0  0  0  0  0  0
   21.2627   25.4704   28.8436 C   0  0  0  0  0  0  0  0  0  0  0  0
   22.2869   25.6275   27.9089 C   0  0  0  0  0  0  0  0  0  0  0  0
   22.5928   24.5606   27.0476 C   0  0  0  0  0  0  0  0  0  0  0  0
   22.0359   22.9377   27.1831 S   0  0  0  0  0  0  0  0  0  0  0  0
   22.9736   22.3841   25.8866 C   0  0  0  0  0  0  0  0  0  0  0  0
   22.9792   21.2393   25.4396 O   0  0  0  0  0  0  0  0  0  0  0  0
   23.6535   23.4032   25.3553 N   0  0  0  0  0  0  0  0  0  0  0  0
   24.5447   23.2227   24.1743 C   0  0  0  0  0  0  0  0  0  0  0  0
   23.4787   24.5873   25.9571 C   0  0  0  0  0  0  0  0  0  0  0  0
   24.1897   25.8472   25.4555 C   0  0  0  0  0  0  0  0  0  0  0  0
  8  9  1  0  0  0
  8 13  1  0  0  0
  9 10  1  0  0  0
 10 11  1  0  0  0
 11 12  1  0  0  0
 12 13  1  0  0  0
 13  1  1  0  0  0
  1  2  1  0  0  0
  1  4  2  0  0  0
  2  3  2  0  0  0
  3  6  1  0  0  0
  4  5  1  0  0  0
  5  6  1  0  0  0
  6  7  2  0  0  0
  7 15  1  0  0  0
 15 16  1  0  0  0
 15 17  2  0  0  0
 16 20  2  0  0  0
 17 18  1  0  0  0
 18 19  2  0  0  0
 19 20  1  0  0  0
 20 21  1  0  0  0
 21 22  1  0  0  0
 21 27  2  0  0  0
 22 23  1  0  0  0
 23 24  2  0  0  0
 23 25  1  0  0  0
 25 26  1  0  0  0
 25 27  1  0  0  0
 27 28  1  0  0  0
 10 14  1  0  0  0
M  END
> <minimizedAffinity>
-8.45869

$$$$
2XNB_Y8L_A_1299


 28 31  0  0  0  0  0  0  0  0999 V2000
   26.6882   28.3389   25.5583 C   0  0  0  0  0  0  0  0  0  0  0  0
   25.7004   27.4370   25.9605 C   0  0  0  0  0  0  0  0  0  0  0  0
   25.5924   26.1717   25.3657 C   0  0  0  0  0  0  0  0  0  0  0  0
   27.5922   27.9483   24.5746 C   0  0  0  0  0  0  0  0  0  0  0  0
   27.4853   26.6706   24.0121 C   0  0  0  0  0  0  0  0  0  0  0  0
   26.4771   25.7735   24.3747 C   0  0  0  0  0  0  0  0  0  0  0  0
   26.4489   24.5637   23.7850 N   0  0  0  0  0  0  0  0  0  0  0  0
   25.9192   29.9446   27.2909 C   0  0  0  0  0  0  0  0  0  0  0  0
   25.7448   31.4436   27.5997 C   0  0  0  0  0  0  0  0  0  0  0  0
   26.4760   32.3052   26.6581 N   0  0  0  0  0  0  0  0  0  0  0  0
   27.8418   31.8119   26.5479 C   0  0  0  0  0  0  0  0  0  0  0  0
   27.8218   30.5561   25.6755 C   0  0  0  0  0  0  0  0  0  0  0  0
   26.7648   29.6316   26.1221 N   0  0  0  0  0  0  0  0  0  0  0  0
   26.4834   33.2647   27.0040 H   0  0  0  0  0  0  0  0  0  0  0  0
   25.8369   23.4482   24.2253 C   0  0  0  0  0  0  0  0  0  0  0  0
   24.5439   23.3802   24.6088 N   0  0  0  0  0  0  0  0  0  0  0  0
   26.5631   22.3144   24.1915 N   0  0  0  0  0  0  0  0  0  0  0  0
   26.0715   21.1498   24.5850 C   0  0  0  0  0  0  0  0  0  0  0  0
   24.7622   21.0718   25.0265 C   0  0  0  0  0  0  0  0  0  0  0  0
   23.9912   22.2345   25.0569 C   0  0  0  0  0  0  0  0  0  0  0  0
   22.6395   22.1461   25.4298 C   0  0  0  0  0  0  0  0  0  0  0  0
   21.9662   22.5556   26.9598 S   0  0  0  0  0  0  0  0  0  0  0  0
   20.4129   22.0200   26.5507 C   0  0  0  0  0  0  0  0  0  0  0  0
   19.4158   22.0906   27.2655 O   0  0  0  0  0  0  0  0  0  0  0  0
   20.4059   21.5808   25.2896 N   0  0  0  0  0  0  0  0  0  0  0  0
   19.1633   21.0738   24.6409 C   0  0  0  0  0  0  0  0  0  0  0  0
   21.5862   21.6274   24.6576 C   0  0  0  0  0  0  0  0  0  0  0  0
   21.7302   21.1618   23.2060 C   0  0  0  0  0  0  0  0  0  0  0  0
  8  9  1  0  0  0
  8 13  1  0  0  0
  9 10  1  0  0  0
 10 11  1  0  0  0
 11 12  1  0  0  0
 12 13  1  0  0  0
 13  1  1  0  0  0
  1  2  1  0  0  0
  1  4  2  0  0  0
  2  3  2  0  0  0
  3  6  1  0  0  0
  4  5  1  0  0  0
  5  6  1  0  0  0
  6  7  2  0  0  0
  7 15  1  0  0  0
 15 16  1  0  0  0
 15 17  2  0  0  0
 16 20  2  0  0  0
 17 18  1  0  0  0
 18 19  2  0  0  0
 19 20  1  0  0  0
 20 21  1  0  0  0
 21 22  1  0  0  0
 21 27  2  0  0  0
 22 23  1  0  0  0
 23 24  2  0  0  0
 23 25  1  0  0  0
 25 26  1  0  0  0
 25 27  1  0  0  0
 27 28  1  0  0  0
 10 14  1  0  0  0
M  END
> <minimizedAffinity>
-8.42343

$$$$
2XNB_Y8L_A_1299


 28 31  0  0  0  0  0  0  0  0999 V2000
   25.5325   29.2793   27.2788 C   0  0  0  0  0  0  0  0  0  0  0  0
   25.3583   27.9152   27.0342 C   0  0  0  0  0  0  0  0  0  0  0  0
   24.3601   27.1847   27.6950 C   0  0  0  0  0  0  0  0  0  0  0  0
   24.6728   29.9158   28.1694 C   0  0  0  0  0  0  0  0  0  0  0  0
   23.6647   29.1754   28.7986 C   0  0  0  0  0  0  0  0  0  0  0  0
   23.5049   27.8020   28.5955 C   0  0  0  0  0  0  0  0  0  0  0  0
   22.5075   27.1675   29.2395 N   0  0  0  0  0  0  0  0  0  0  0  0
   27.1936   29.4378   25.4384 C   0  0  0  0  0  0  0  0  0  0  0  0
   28.5518   30.0492   25.0455 C   0  0  0  0  0  0  0  0  0  0  0  0
   28.9821   31.1129   25.9658 N   0  0  0  0  0  0  0  0  0  0  0  0
   27.8734   32.0391   26.1497 C   0  0  0  0  0  0  0  0  0  0  0  0
   26.8584   31.3815   27.0855 C   0  0  0  0  0  0  0  0  0  0  0  0
   26.5701   30.0033   26.6511 N   0  0  0  0  0  0  0  0  0  0  0  0
   29.7820   31.6074   25.5706 H   0  0  0  0  0  0  0  0  0  0  0  0
   21.9459   25.9853   28.9239 C   0  0  0  0  0  0  0  0  0  0  0  0
   22.2752   24.8024   29.4859 N   0  0  0  0  0  0  0  0  0  0  0  0
   20.9271   26.0231   28.0438 N   0  0  0  0  0  0  0  0  0  0  0  0
   20.2838   24.9308   27.6621 C   0  0  0  0  0  0  0  0  0  0  0  0
   20.6410   23.7035   28.1927 C   0  0  0  0  0  0  0  0  0  0  0  0
   21.6865   23.6471   29.1152 C   0  0  0  0  0  0  0  0  0  0  0  0
   22.0004   22.4158   29.7146 C   0  0  0  0  0  0  0  0  0  0  0  0
   23.0463   21.2028   29.0848 S   0  0  0  0  0  0  0  0  0  0  0  0
   22.7143   20.1046   30.3300 C   0  0  0  0  0  0  0  0  0  0  0  0
   23.2254   18.9954   30.4666 O   0  0  0  0  0  0  0  0  0  0  0  0
   21.8687   20.6568   31.2036 N   0  0  0  0  0  0  0  0  0  0  0  0
   21.4178   19.9330   32.4261 C   0  0  0  0  0  0  0  0  0  0  0  0
   21.4584   21.8961   30.9024 C   0  0  0  0  0  0  0  0  0  0  0  0
   20.4920   22.6576   31.8138 C   0  0  0  0  0  0  0  0  0  0  0  0
  8  9  1  0  0  0
  8 13  1  0  0  0
  9 10  1  0  0  0
 10 11  1  0  0  0
 11 12  1  0  0  0
 12 13  1  0  0  0
 13  1  1  0  0  0
  1  2  1  0  0  0
  1  4  2  0  0  0
  2  3  2  0  0  0
  3  6  1  0  0  0
  4  5  1  0  0  0
  5  6  1  0  0  0
  6  7  2  0  0  0
  7 15  1  0  0  0
 15 16  1  0  0  0
 15 17  2  0  0  0
 16 20  2  0  0  0
 17 18  1  0  0  0
 18 19  2  0  0  0
 19 20  1  0  0  0
 20 21  1  0  0  0
 21 22  1  0  0  0
 21 27  2  0  0  0
 22 23  1  0  0  0
 23 24  2  0  0  0
 23 25  1  0  0  0
 25 26  1  0  0  0
 25 27  1  0  0  0
 27 28  1  0  0  0
 10 14  1  0  0  0
M  END
> <minimizedAffinity>
-8.35137

$$$$
2XNB_Y8L_A_1299


 28 31  0  0  0  0  0  0  0  0999 V2000
   27.0267   27.6269   24.8199 C   0  0  0  0  0  0  0  0  0  0  0  0
   26.1179   26.7872   25.4680 C   0  0  0  0  0  0  0  0  0  0  0  0
   25.7933   25.5295   24.9395 C   0  0  0  0  0  0  0  0  0  0  0  0
   27.6359   27.1805   23.6508 C   0  0  0  0  0  0  0  0  0  0  0  0
   27.3195   25.9104   23.1535 C   0  0  0  0  0  0  0  0  0  0  0  0
   26.3815   25.0766   23.7681 C   0  0  0  0  0  0  0  0  0  0  0  0
   26.1386   23.8695   23.2239 N   0  0  0  0  0  0  0  0  0  0  0  0
   28.3575   29.7185   24.6588 C   0  0  0  0  0  0  0  0  0  0  0  0
   28.8999   30.9069   25.4749 C   0  0  0  0  0  0  0  0  0  0  0  0
   28.2589   31.0290   26.7932 N   0  0  0  0  0  0  0  0  0  0  0  0
   26.8156   30.9612   26.6115 C   0  0  0  0  0  0  0  0  0  0  0  0
   26.4395   29.5013   26.3551 C   0  0  0  0  0  0  0  0  0  0  0  0
   27.3150   28.9138   25.3257 N   0  0  0  0  0  0  0  0  0  0  0  0
   28.5110   31.9217   27.2174 H   0  0  0  0  0  0  0  0  0  0  0  0
   25.5904   22.7940   23.8200 C   0  0  0  0  0  0  0  0  0  0  0  0
   24.2689   22.5168   23.8427 N   0  0  0  0  0  0  0  0  0  0  0  0
   26.4485   21.9022   24.3512 N   0  0  0  0  0  0  0  0  0  0  0  0
   26.0354   20.7978   24.9531 C   0  0  0  0  0  0  0  0  0  0  0  0
   24.6811   20.5225   25.0273 C   0  0  0  0  0  0  0  0  0  0  0  0
   23.7779   21.4294   24.4715 C   0  0  0  0  0  0  0  0  0  0  0  0
   22.4084   21.1161   24.4754 C   0  0  0  0  0  0  0  0  0  0  0  0
   21.5787   20.1186   23.3447 S   0  0  0  0  0  0  0  0  0  0  0  0
   20.0548   20.4232   24.0168 C   0  0  0  0  0  0  0  0  0  0  0  0
   18.9928   19.9283   23.6459 O   0  0  0  0  0  0  0  0  0  0  0  0
   20.1826   21.2237   25.0778 N   0  0  0  0  0  0  0  0  0  0  0  0
   19.0071   21.6408   25.8938 C   0  0  0  0  0  0  0  0  0  0  0  0
   21.4324   21.6217   25.3509 C   0  0  0  0  0  0  0  0  0  0  0  0
   21.7335   22.5375   26.5405 C   0  0  0  0  0  0  0  0  0  0  0  0
  8  9  1  0  0  0
  8 13  1  0  0  0
  9 10  1  0  0  0
 10 11  1  0  0  0
 11 12  1  0  0  0
 12 13  1  0  0  0
 13  1  1  0  0  0
  1  2  1  0  0  0
  1  4  2  0  0  0
  2  3  2  0  0  0
  3  6  1  0  0  0
  4  5  1  0  0  0
  5  6  1  0  0  0
  6  7  2  0  0  0
  7 15  1  0  0  0
 15 16  1  0  0  0
 15 17  2  0  0  0
 16 20  2  0  0  0
 17 18  1  0  0  0
 18 19  2  0  0  0
 19 20  1  0  0  0
 20 21  1  0  0  0
 21 22  1  0  0  0
 21 27  2  0  0  0
 22 23  1  0  0  0
 23 24  2  0  0  0
 23 25  1  0  0  0
 25 26  1  0  0  0
 25 27  1  0  0  0
 27 28  1  0  0  0
 10 14  1  0  0  0
M  END
> <minimizedAffinity>
-8.34411

$$$$
2XNB_Y8L_A_1299


 28 31  0  0  0  0  0  0  0  0999 V2000
   26.7980   28.7102   25.9393 C   0  0  0  0  0  0  0  0  0  0  0  0
   26.1401   28.9450   27.1488 C   0  0  0  0  0  0  0  0  0  0  0  0
   24.9776   28.2376   27.4878 C   0  0  0  0  0  0  0  0  0  0  0  0
   26.2988   27.7326   25.0834 C   0  0  0  0  0  0  0  0  0  0  0  0
   25.1527   27.0176   25.4518 C   0  0  0  0  0  0  0  0  0  0  0  0
   24.4604   27.2704   26.6391 C   0  0  0  0  0  0  0  0  0  0  0  0
   23.3680   26.5343   26.9168 N   0  0  0  0  0  0  0  0  0  0  0  0
   28.1371   30.7880   26.1860 C   0  0  0  0  0  0  0  0  0  0  0  0
   29.1477   31.7023   25.4681 C   0  0  0  0  0  0  0  0  0  0  0  0
   29.7491   31.0651   24.2866 N   0  0  0  0  0  0  0  0  0  0  0  0
   30.2174   29.7395   24.6666 C   0  0  0  0  0  0  0  0  0  0  0  0
   28.9996   28.8211   24.7750 C   0  0  0  0  0  0  0  0  0  0  0  0
   27.9395   29.4583   25.5760 N   0  0  0  0  0  0  0  0  0  0  0  0
   30.5341   31.6257   23.9551 H   0  0  0  0  0  0  0  0  0  0  0  0
   22.7890   26.3425   28.1170 C   0  0  0  0  0  0  0  0  0  0  0  0
   22.4966   25.1350   28.6463 N   0  0  0  0  0  0  0  0  0  0  0  0
   22.5732   27.4449   28.8601 N   0  0  0  0  0  0  0  0  0  0  0  0
   22.0228   27.3883   30.0628 C   0  0  0  0  0  0  0  0  0  0  0  0
   21.6729   26.1618   30.6001 C   0  0  0  0  0  0  0  0  0  0  0  0
   21.9004   25.0078   29.8493 C   0  0  0  0  0  0  0  0  0  0  0  0
   21.6193   23.7560   30.4218 C   0  0  0  0  0  0  0  0  0  0  0  0
   22.3978   23.0511   31.7853 S   0  0  0  0  0  0  0  0  0  0  0  0
   21.5588   21.5862   31.6540 C   0  0  0  0  0  0  0  0  0  0  0  0
   21.6567   20.6298   32.4195 O   0  0  0  0  0  0  0  0  0  0  0  0
   20.6991   21.6498   30.6343 N   0  0  0  0  0  0  0  0  0  0  0  0
   19.7972   20.5127   30.2947 C   0  0  0  0  0  0  0  0  0  0  0  0
   20.7081   22.7985   29.9449 C   0  0  0  0  0  0  0  0  0  0  0  0
   19.7729   23.0180   28.7526 C   0  0  0  0  0  0  0  0  0  0  0  0
  8  9  1  0  0  0
  8 13  1  0  0  0
  9 10  1  0  0  0
 10 11  1  0  0  0
 11 12  1  0  0  0
 12 13  1  0  0  0
 13  1  1  0  0  0
  1  2  1  0  0  0
  1  4  2  0  0  0
  2  3  2  0  0  0
  3  6  1  0  0  0
  4  5  1  0  0  0
  5  6  1  0  0  0
  6  7  2  0  0  0
  7 15  1  0  0  0
 15 16  1  0  0  0
 15 17  2  0  0  0
 16 20  2  0  0  0
 17 18  1  0  0  0
 18 19  2  0  0  0
 19 20  1  0  0  0
 20 21  1  0  0  0
 21 22  1  0  0  0
 21 27  2  0  0  0
 22 23  1  0  0  0
 23 24  2  0  0  0
 23 25  1  0  0  0
 25 26  1  0  0  0
 25 27  1  0  0  0
 27 28  1  0  0  0
 10 14  1  0  0  0
M  END
> <minimizedAffinity>
-8.21998

$$$$
