3S77_EVI_B_1
  RCSB PDB12061710413D
Coordinates from PDB:3S77:B:1 Model:1 without hydrogens
  9  9  0  0  0  0            999 V2000
   15.1670    0.9770   16.8070   S 0  0  0  0  0  0  0  0  0  0  0  0
   13.7410    1.1890   16.7080   O 0  0  0  0  0  0  0  0  0  0  0  0
   15.1160    3.5770   15.2090   S 0  0  0  0  0  0  0  0  0  0  0  0
   15.9030    2.3060   16.0740   C 0  0  0  0  0  0  0  0  0  0  0  0
   15.5290    0.9760   18.1880   O 0  0  0  0  0  0  0  0  0  0  0  0
   17.2010    2.4600   16.1220   N 0  0  0  0  0  0  0  0  0  0  0  0
   17.6380    3.5750   15.4050   C 0  0  0  0  0  0  0  0  0  0  0  0
   16.6080    4.3490   14.8290   C 0  0  0  0  0  0  0  0  0  0  0  0
   15.8070   -0.3170   16.1930   N 0  0  0  0  0  0  0  0  0  0  0  0
  4  1  1  0  0  0  0
  5  1  2  0  0  0  0
  1  2  2  0  0  0  0
  1  9  1  0  0  0  0
  8  3  1  0  0  0  0
  4  3  1  0  0  0  0
  6  4  2  0  0  0  0
  7  6  1  0  0  0  0
  7  8  2  0  0  0  0
A    1
S
A    2
O1
A    3
S1
A    4
C2
A    5
O2
A    6
N3
A    7
C4
A    8
C5
A    9
NH
M  END
>  <InstanceId>
3S77_EVI_B_1

>  <ChemCompId>
EVI

>  <PdbId>
3S77

>  <ChainId>
B

>  <ResidueNumber>
1

>  <InsertionCode>


>  <Model>
1

>  <AltIds>


>  <MissingHeavyAtoms>
0

>  <ObservedFormula>
C3 N2 O2 S2

>  <Name>
1,3-thiazole-2-sulfonamide

>  <SystematicName>
1,3-thiazole-2-sulfonamide

>  <Synonyms>


>  <Type>
NON-POLYMER

>  <Formula>
C3 H4 N2 O2 S2

>  <MolecularWeight>
164.206

>  <ModifiedDate>
2011-10-14

>  <Parent>


>  <OneLetterCode>


>  <SubcomponentList>


>  <AmbiguousFlag>
N

>  <InChI>
InChI=1S/C3H4N2O2S2/c4-9(6,7)3-5-1-2-8-3/h1-2H,(H2,4,6,7)

>  <InChIKey>
WKXVETMYCFRGET-UHFFFAOYSA-N

>  <SMILES>
c1csc(n1)S(=O)(=O)N

$$$$
