5FSY_AR6_A_1262


 45 48  0  0  0  0  0  0  0  0999 V2000
   26.3499    6.0953   12.4838 O   0  0  0  0  0  0  0  0  0  0  0  0
   26.2954    5.9889   10.8774 P   0  0  0  0  0  0  0  0  0  0  0  0
   27.0243    4.7545   10.4439 O   0  0  0  0  0  0  0  0  0  0  0  0
   26.7713    7.2836   10.3267 O   0  0  0  0  0  0  0  0  0  0  0  0
   26.9951    4.6846    9.4768 H   0  0  0  0  0  0  0  0  0  0  0  0
   24.7644    5.6248   10.5790 O   0  0  0  0  0  0  0  0  0  0  0  0
   23.5293    6.5335   10.1656 P   0  0  0  0  0  0  0  0  0  0  0  0
   22.2590    5.7452   10.3602 O   0  0  0  0  0  0  0  0  0  0  0  0
   23.5644    7.9404   10.7515 O   0  0  0  0  0  0  0  0  0  0  0  0
   22.0938    5.6273   11.3088 H   0  0  0  0  0  0  0  0  0  0  0  0
   23.7849    6.7178    8.5886 O   0  0  0  0  0  0  0  0  0  0  0  0
   23.1199    5.8508    7.6695 C   0  0  0  0  0  0  0  0  0  0  0  0
   24.7781    5.1656    4.8232 C   0  0  0  0  0  0  0  0  0  0  0  0
   25.4466    4.0990    4.1384 O   0  0  0  0  0  0  0  0  0  0  0  0
   25.7166    5.9347    5.7216 C   0  0  0  0  0  0  0  0  0  0  0  0
   27.0871    5.9136    5.3335 O   0  0  0  0  0  0  0  0  0  0  0  0
   25.4977    5.3598    7.1079 C   0  0  0  0  0  0  0  0  0  0  0  0
   26.4434    4.3127    7.3980 O   0  0  0  0  0  0  0  0  0  0  0  0
   24.0733    4.8636    7.0386 C   0  0  0  0  0  0  0  0  0  0  0  0
   23.7057    4.6867    5.6601 O   0  0  0  0  0  0  0  0  0  0  0  0
   25.8219    3.4832    4.7872 H   0  0  0  0  0  0  0  0  0  0  0  0
   27.4123    4.9998    5.3446 H   0  0  0  0  0  0  0  0  0  0  0  0
   26.3770    3.6205    6.7217 H   0  0  0  0  0  0  0  0  0  0  0  0
   25.6354    5.1955   13.3221 C   0  0  0  0  0  0  0  0  0  0  0  0
   28.8851    4.4817   14.3637 C   0  0  0  0  0  0  0  0  0  0  0  0
   28.5440    5.8447   14.9457 C   0  0  0  0  0  0  0  0  0  0  0  0
   29.5566    6.2768   15.8625 O   0  0  0  0  0  0  0  0  0  0  0  0
   27.1556    5.5229   15.4600 C   0  0  0  0  0  0  0  0  0  0  0  0
   27.2293    4.7568   16.6776 O   0  0  0  0  0  0  0  0  0  0  0  0
   26.5753    4.6034   14.3832 C   0  0  0  0  0  0  0  0  0  0  0  0
   27.7030    4.1181   13.6806 O   0  0  0  0  0  0  0  0  0  0  0  0
   29.7018    5.5895   16.5313 H   0  0  0  0  0  0  0  0  0  0  0  0
   27.7413    3.9481   16.5203 H   0  0  0  0  0  0  0  0  0  0  0  0
   33.1702    1.9599   12.9238 N   0  0  0  0  0  0  0  0  0  0  0  0
   32.2454    1.5989   13.8438 C   0  0  0  0  0  0  0  0  0  0  0  0
   31.1821    2.3608   14.1412 N   0  0  0  0  0  0  0  0  0  0  0  0
   30.9701    3.5415   13.4572 C   0  0  0  0  0  0  0  0  0  0  0  0
   31.8948    3.9543   12.4222 C   0  0  0  0  0  0  0  0  0  0  0  0
   33.0456    3.0867   12.2131 C   0  0  0  0  0  0  0  0  0  0  0  0
   33.9397    3.3944   11.2971 N   0  0  0  0  0  0  0  0  0  0  0  0
   31.4646    5.1290   11.9178 N   0  0  0  0  0  0  0  0  0  0  0  0
   30.3414    5.4335   12.5501 C   0  0  0  0  0  0  0  0  0  0  0  0
   30.0495    4.4861   13.4673 N   0  0  0  0  0  0  0  0  0  0  0  0
   34.7187    2.8098   11.1535 H   0  0  0  0  0  0  0  0  0  0  0  0
   33.8293    4.2092   10.7555 H   0  0  0  0  0  0  0  0  0  0  0  0
 34 35  2  0  0  0
 34 39  1  0  0  0
 35 36  1  0  0  0
 36 37  2  0  0  0
 37 38  1  0  0  0
 37 43  1  0  0  0
 38 39  2  0  0  0
 38 41  1  0  0  0
 39 40  1  0  0  0
 41 42  2  0  0  0
 42 43  1  0  0  0
 43 25  1  0  0  0
  2  3  1  0  0  0
  2  4  2  0  0  0
  2  6  1  0  0  0
  2  1  1  0  0  0
  7  8  1  0  0  0
  7  9  2  0  0  0
  7  6  1  0  0  0
  7 11  1  0  0  0
 25 26  1  0  0  0
 25 31  1  0  0  0
 13 14  1  0  0  0
 13 15  1  0  0  0
 13 20  1  0  0  0
 26 27  1  0  0  0
 26 28  1  0  0  0
 15 16  1  0  0  0
 15 17  1  0  0  0
 28 29  1  0  0  0
 28 30  1  0  0  0
 17 18  1  0  0  0
 17 19  1  0  0  0
 30 31  1  0  0  0
 30 24  1  0  0  0
 19 20  1  0  0  0
 19 12  1  0  0  0
 24  1  1  0  0  0
 12 11  1  0  0  0
 40 44  1  0  0  0
 40 45  1  0  0  0
  3  5  1  0  0  0
  8 10  1  0  0  0
 14 21  1  0  0  0
 27 32  1  0  0  0
 16 22  1  0  0  0
 29 33  1  0  0  0
 18 23  1  0  0  0
M  END
> <minimizedAffinity>
-11.37221

$$$$
5FSY_AR6_A_1262


 45 48  0  0  0  0  0  0  0  0999 V2000
   27.1261    5.2006   10.8643 O   0  0  0  0  0  0  0  0  0  0  0  0
   26.5046    5.2085    9.3782 P   0  0  0  0  0  0  0  0  0  0  0  0
   26.7581    3.8799    8.7349 O   0  0  0  0  0  0  0  0  0  0  0  0
   27.0303    6.4091    8.6795 O   0  0  0  0  0  0  0  0  0  0  0  0
   26.3860    3.8782    7.8392 H   0  0  0  0  0  0  0  0  0  0  0  0
   24.9237    5.1871    9.6345 O   0  0  0  0  0  0  0  0  0  0  0  0
   23.7746    6.1929    9.1984 P   0  0  0  0  0  0  0  0  0  0  0  0
   22.4378    5.5512    9.4704 O   0  0  0  0  0  0  0  0  0  0  0  0
   23.9693    7.6196    9.6989 O   0  0  0  0  0  0  0  0  0  0  0  0
   22.2904    5.5045   10.4280 H   0  0  0  0  0  0  0  0  0  0  0  0
   23.9995    6.2607    7.6074 O   0  0  0  0  0  0  0  0  0  0  0  0
   23.2574    5.3821    6.7613 C   0  0  0  0  0  0  0  0  0  0  0  0
   24.6755    6.6256    3.9750 C   0  0  0  0  0  0  0  0  0  0  0  0
   25.1655    6.2294    2.6879 O   0  0  0  0  0  0  0  0  0  0  0  0
   25.7480    6.5486    5.0348 C   0  0  0  0  0  0  0  0  0  0  0  0
   27.0841    6.6945    4.5627 O   0  0  0  0  0  0  0  0  0  0  0  0
   25.5212    5.2208    5.7320 C   0  0  0  0  0  0  0  0  0  0  0  0
   26.3342    4.1798    5.1572 O   0  0  0  0  0  0  0  0  0  0  0  0
   24.0424    4.9908    5.5315 C   0  0  0  0  0  0  0  0  0  0  0  0
   23.5903    5.7889    4.4247 O   0  0  0  0  0  0  0  0  0  0  0  0
   25.4870    5.3153    2.7316 H   0  0  0  0  0  0  0  0  0  0  0  0
   27.2869    5.9792    3.9398 H   0  0  0  0  0  0  0  0  0  0  0  0
   26.1458    4.1093    4.2082 H   0  0  0  0  0  0  0  0  0  0  0  0
   27.1209    6.3599   11.6882 C   0  0  0  0  0  0  0  0  0  0  0  0
   28.4388    4.7264   14.4720 C   0  0  0  0  0  0  0  0  0  0  0  0
   28.9127    6.1685   14.5639 C   0  0  0  0  0  0  0  0  0  0  0  0
   29.5505    6.4176   15.8224 O   0  0  0  0  0  0  0  0  0  0  0  0
   27.5998    6.8525   14.2409 C   0  0  0  0  0  0  0  0  0  0  0  0
   26.7164    6.8202   15.3783 O   0  0  0  0  0  0  0  0  0  0  0  0
   26.9815    5.9579   13.1643 C   0  0  0  0  0  0  0  0  0  0  0  0
   27.6525    4.7199   13.2982 O   0  0  0  0  0  0  0  0  0  0  0  0
   28.9581    6.1523   16.5432 H   0  0  0  0  0  0  0  0  0  0  0  0
   26.5749    5.9003   15.6517 H   0  0  0  0  0  0  0  0  0  0  0  0
   32.8641    3.4162   12.1280 N   0  0  0  0  0  0  0  0  0  0  0  0
   32.0942    4.5116   11.9296 C   0  0  0  0  0  0  0  0  0  0  0  0
   30.9481    4.7228   12.5941 N   0  0  0  0  0  0  0  0  0  0  0  0
   30.5414    3.8280   13.5639 C   0  0  0  0  0  0  0  0  0  0  0  0
   31.3515    2.6651   13.8610 C   0  0  0  0  0  0  0  0  0  0  0  0
   32.5475    2.4971   13.0474 C   0  0  0  0  0  0  0  0  0  0  0  0
   33.3347    1.4609   13.2466 N   0  0  0  0  0  0  0  0  0  0  0  0
   30.7368    1.9618   14.8342 N   0  0  0  0  0  0  0  0  0  0  0  0
   29.6403    2.6292   15.1604 C   0  0  0  0  0  0  0  0  0  0  0  0
   29.5261    3.7405   14.4014 N   0  0  0  0  0  0  0  0  0  0  0  0
   34.1439    1.3447   12.6981 H   0  0  0  0  0  0  0  0  0  0  0  0
   33.1142    0.8021   13.9442 H   0  0  0  0  0  0  0  0  0  0  0  0
 34 35  2  0  0  0
 34 39  1  0  0  0
 35 36  1  0  0  0
 36 37  2  0  0  0
 37 38  1  0  0  0
 37 43  1  0  0  0
 38 39  2  0  0  0
 38 41  1  0  0  0
 39 40  1  0  0  0
 41 42  2  0  0  0
 42 43  1  0  0  0
 43 25  1  0  0  0
  2  3  1  0  0  0
  2  4  2  0  0  0
  2  6  1  0  0  0
  2  1  1  0  0  0
  7  8  1  0  0  0
  7  9  2  0  0  0
  7  6  1  0  0  0
  7 11  1  0  0  0
 25 26  1  0  0  0
 25 31  1  0  0  0
 13 14  1  0  0  0
 13 15  1  0  0  0
 13 20  1  0  0  0
 26 27  1  0  0  0
 26 28  1  0  0  0
 15 16  1  0  0  0
 15 17  1  0  0  0
 28 29  1  0  0  0
 28 30  1  0  0  0
 17 18  1  0  0  0
 17 19  1  0  0  0
 30 31  1  0  0  0
 30 24  1  0  0  0
 19 20  1  0  0  0
 19 12  1  0  0  0
 24  1  1  0  0  0
 12 11  1  0  0  0
 40 44  1  0  0  0
 40 45  1  0  0  0
  3  5  1  0  0  0
  8 10  1  0  0  0
 14 21  1  0  0  0
 27 32  1  0  0  0
 16 22  1  0  0  0
 29 33  1  0  0  0
 18 23  1  0  0  0
M  END
> <minimizedAffinity>
-11.21498

$$$$
5FSY_AR6_A_1262


 45 48  0  0  0  0  0  0  0  0999 V2000
   26.8008    7.2925    9.8876 O   0  0  0  0  0  0  0  0  0  0  0  0
   26.3304    6.0293    9.0056 P   0  0  0  0  0  0  0  0  0  0  0  0
   26.5905    4.7712    9.7753 O   0  0  0  0  0  0  0  0  0  0  0  0
   26.9723    6.1508    7.6717 O   0  0  0  0  0  0  0  0  0  0  0  0
   26.3091    4.0063    9.2492 H   0  0  0  0  0  0  0  0  0  0  0  0
   24.7323    6.1364    9.0227 O   0  0  0  0  0  0  0  0  0  0  0  0
   23.7112    6.4293   10.2032 P   0  0  0  0  0  0  0  0  0  0  0  0
   23.9019    7.8502   10.6696 O   0  0  0  0  0  0  0  0  0  0  0  0
   22.2816    5.9829    9.9185 O   0  0  0  0  0  0  0  0  0  0  0  0
   23.5784    8.4603    9.9884 H   0  0  0  0  0  0  0  0  0  0  0  0
   24.2529    5.4350   11.3453 O   0  0  0  0  0  0  0  0  0  0  0  0
   24.4904    5.9454   12.6574 C   0  0  0  0  0  0  0  0  0  0  0  0
   26.6506    5.8274   15.2343 C   0  0  0  0  0  0  0  0  0  0  0  0
   28.0110    6.1193   15.5774 O   0  0  0  0  0  0  0  0  0  0  0  0
   26.4905    4.4203   14.7111 C   0  0  0  0  0  0  0  0  0  0  0  0
   27.4608    3.4841   15.1710 O   0  0  0  0  0  0  0  0  0  0  0  0
   26.4874    4.5573   13.2007 C   0  0  0  0  0  0  0  0  0  0  0  0
   27.8062    4.3672   12.6530 O   0  0  0  0  0  0  0  0  0  0  0  0
   25.9621    5.9582   12.9971 C   0  0  0  0  0  0  0  0  0  0  0  0
   26.1473    6.7083   14.2093 O   0  0  0  0  0  0  0  0  0  0  0  0
   28.5711    6.0197   14.7918 H   0  0  0  0  0  0  0  0  0  0  0  0
   28.3435    3.7659   14.8839 H   0  0  0  0  0  0  0  0  0  0  0  0
   28.4186    5.0017   13.0570 H   0  0  0  0  0  0  0  0  0  0  0  0
   28.1697    7.6603   10.0048 C   0  0  0  0  0  0  0  0  0  0  0  0
   30.3880    6.6253   12.4873 C   0  0  0  0  0  0  0  0  0  0  0  0
   30.9123    7.9601   11.9811 C   0  0  0  0  0  0  0  0  0  0  0  0
   31.9890    8.4304   12.8008 O   0  0  0  0  0  0  0  0  0  0  0  0
   29.6004    8.7179   11.9601 C   0  0  0  0  0  0  0  0  0  0  0  0
   29.2152    9.1046   13.2931 O   0  0  0  0  0  0  0  0  0  0  0  0
   28.5878    7.6745   11.4829 C   0  0  0  0  0  0  0  0  0  0  0  0
   29.2149    6.4298   11.7247 O   0  0  0  0  0  0  0  0  0  0  0  0
   31.7061    8.4460   13.7285 H   0  0  0  0  0  0  0  0  0  0  0  0
   29.1556    8.3155   13.8541 H   0  0  0  0  0  0  0  0  0  0  0  0
   31.6556    1.8525   14.0391 N   0  0  0  0  0  0  0  0  0  0  0  0
   30.6065    2.6162   14.4242 C   0  0  0  0  0  0  0  0  0  0  0  0
   30.4025    3.8571   13.9572 N   0  0  0  0  0  0  0  0  0  0  0  0
   31.2529    4.3807   13.0036 C   0  0  0  0  0  0  0  0  0  0  0  0
   32.3618    3.5905   12.5107 C   0  0  0  0  0  0  0  0  0  0  0  0
   32.5296    2.2785   13.1200 C   0  0  0  0  0  0  0  0  0  0  0  0
   33.5189    1.4997   12.7354 N   0  0  0  0  0  0  0  0  0  0  0  0
   33.0295    4.3260   11.5981 N   0  0  0  0  0  0  0  0  0  0  0  0
   32.3889    5.4799   11.4873 C   0  0  0  0  0  0  0  0  0  0  0  0
   31.3311    5.5100   12.3264 N   0  0  0  0  0  0  0  0  0  0  0  0
   33.6348    0.6123   13.1456 H   0  0  0  0  0  0  0  0  0  0  0  0
   34.1428    1.8048   12.0376 H   0  0  0  0  0  0  0  0  0  0  0  0
 34 35  2  0  0  0
 34 39  1  0  0  0
 35 36  1  0  0  0
 36 37  2  0  0  0
 37 38  1  0  0  0
 37 43  1  0  0  0
 38 39  2  0  0  0
 38 41  1  0  0  0
 39 40  1  0  0  0
 41 42  2  0  0  0
 42 43  1  0  0  0
 43 25  1  0  0  0
  2  3  1  0  0  0
  2  4  2  0  0  0
  2  6  1  0  0  0
  2  1  1  0  0  0
  7  8  1  0  0  0
  7  9  2  0  0  0
  7  6  1  0  0  0
  7 11  1  0  0  0
 25 26  1  0  0  0
 25 31  1  0  0  0
 13 14  1  0  0  0
 13 15  1  0  0  0
 13 20  1  0  0  0
 26 27  1  0  0  0
 26 28  1  0  0  0
 15 16  1  0  0  0
 15 17  1  0  0  0
 28 29  1  0  0  0
 28 30  1  0  0  0
 17 18  1  0  0  0
 17 19  1  0  0  0
 30 31  1  0  0  0
 30 24  1  0  0  0
 19 20  1  0  0  0
 19 12  1  0  0  0
 24  1  1  0  0  0
 12 11  1  0  0  0
 40 44  1  0  0  0
 40 45  1  0  0  0
  3  5  1  0  0  0
  8 10  1  0  0  0
 14 21  1  0  0  0
 27 32  1  0  0  0
 16 22  1  0  0  0
 29 33  1  0  0  0
 18 23  1  0  0  0
M  END
> <minimizedAffinity>
-10.46504

$$$$
5FSY_AR6_A_1262


 45 48  0  0  0  0  0  0  0  0999 V2000
   24.4739    6.0413   12.5066 O   0  0  0  0  0  0  0  0  0  0  0  0
   24.4113    6.6509   11.0168 P   0  0  0  0  0  0  0  0  0  0  0  0
   23.5315    7.8629   11.0207 O   0  0  0  0  0  0  0  0  0  0  0  0
   24.0369    5.5466   10.0967 O   0  0  0  0  0  0  0  0  0  0  0  0
   23.4896    8.2349   10.1259 H   0  0  0  0  0  0  0  0  0  0  0  0
   25.8734    7.2697   10.8048 O   0  0  0  0  0  0  0  0  0  0  0  0
   27.2062    6.6390   10.2149 P   0  0  0  0  0  0  0  0  0  0  0  0
   28.3783    7.4771   10.6583 O   0  0  0  0  0  0  0  0  0  0  0  0
   27.3237    5.1316   10.4089 O   0  0  0  0  0  0  0  0  0  0  0  0
   28.5208    7.3560   11.6101 H   0  0  0  0  0  0  0  0  0  0  0  0
   26.9870    6.8538    8.6362 O   0  0  0  0  0  0  0  0  0  0  0  0
   26.6787    5.7261    7.8165 C   0  0  0  0  0  0  0  0  0  0  0  0
   25.7193    5.5307    4.5975 C   0  0  0  0  0  0  0  0  0  0  0  0
   24.7501    6.0492    3.6780 O   0  0  0  0  0  0  0  0  0  0  0  0
   25.2256    4.2860    5.2948 C   0  0  0  0  0  0  0  0  0  0  0  0
   24.2588    3.5262    4.5755 O   0  0  0  0  0  0  0  0  0  0  0  0
   24.7056    4.7639    6.6370 C   0  0  0  0  0  0  0  0  0  0  0  0
   23.2895    5.0237    6.5899 O   0  0  0  0  0  0  0  0  0  0  0  0
   25.5242    6.0084    6.8843 C   0  0  0  0  0  0  0  0  0  0  0  0
   26.0494    6.4798    5.6320 O   0  0  0  0  0  0  0  0  0  0  0  0
   23.9357    6.2696    4.1567 H   0  0  0  0  0  0  0  0  0  0  0  0
   23.4680    4.0676    4.4261 H   0  0  0  0  0  0  0  0  0  0  0  0
   23.1031    5.6740    5.8948 H   0  0  0  0  0  0  0  0  0  0  0  0
   25.1830    4.8440   12.8004 C   0  0  0  0  0  0  0  0  0  0  0  0
   28.3148    5.0810   14.3139 C   0  0  0  0  0  0  0  0  0  0  0  0
   27.8925    6.5056   13.9900 C   0  0  0  0  0  0  0  0  0  0  0  0
   28.7952    7.4518   14.5750 O   0  0  0  0  0  0  0  0  0  0  0  0
   26.4626    6.4291   14.4852 C   0  0  0  0  0  0  0  0  0  0  0  0
   26.4188    6.4900   15.9237 O   0  0  0  0  0  0  0  0  0  0  0  0
   26.0143    5.0232   14.0797 C   0  0  0  0  0  0  0  0  0  0  0  0
   27.2177    4.3105   13.8681 O   0  0  0  0  0  0  0  0  0  0  0  0
   28.8795    7.2737   15.5248 H   0  0  0  0  0  0  0  0  0  0  0  0
   26.9573    5.7733   16.2943 H   0  0  0  0  0  0  0  0  0  0  0  0
   32.0623    1.5129   14.1754 N   0  0  0  0  0  0  0  0  0  0  0  0
   30.9539    1.5453   14.9514 C   0  0  0  0  0  0  0  0  0  0  0  0
   30.0643    2.5484   14.9042 N   0  0  0  0  0  0  0  0  0  0  0  0
   30.2350    3.5758   13.9977 C   0  0  0  0  0  0  0  0  0  0  0  0
   31.3724    3.5687   13.1015 C   0  0  0  0  0  0  0  0  0  0  0  0
   32.3086    2.4658   13.2690 C   0  0  0  0  0  0  0  0  0  0  0  0
   33.3745    2.3893   12.5002 N   0  0  0  0  0  0  0  0  0  0  0  0
   31.3055    4.6718   12.3280 N   0  0  0  0  0  0  0  0  0  0  0  0
   30.2029    5.3197   12.6727 C   0  0  0  0  0  0  0  0  0  0  0  0
   29.5674    4.6647   13.6682 N   0  0  0  0  0  0  0  0  0  0  0  0
   34.0091    1.6449   12.6112 H   0  0  0  0  0  0  0  0  0  0  0  0
   33.5371    3.0766   11.8143 H   0  0  0  0  0  0  0  0  0  0  0  0
 34 35  2  0  0  0
 34 39  1  0  0  0
 35 36  1  0  0  0
 36 37  2  0  0  0
 37 38  1  0  0  0
 37 43  1  0  0  0
 38 39  2  0  0  0
 38 41  1  0  0  0
 39 40  1  0  0  0
 41 42  2  0  0  0
 42 43  1  0  0  0
 43 25  1  0  0  0
  2  3  1  0  0  0
  2  4  2  0  0  0
  2  6  1  0  0  0
  2  1  1  0  0  0
  7  8  1  0  0  0
  7  9  2  0  0  0
  7  6  1  0  0  0
  7 11  1  0  0  0
 25 26  1  0  0  0
 25 31  1  0  0  0
 13 14  1  0  0  0
 13 15  1  0  0  0
 13 20  1  0  0  0
 26 27  1  0  0  0
 26 28  1  0  0  0
 15 16  1  0  0  0
 15 17  1  0  0  0
 28 29  1  0  0  0
 28 30  1  0  0  0
 17 18  1  0  0  0
 17 19  1  0  0  0
 30 31  1  0  0  0
 30 24  1  0  0  0
 19 20  1  0  0  0
 19 12  1  0  0  0
 24  1  1  0  0  0
 12 11  1  0  0  0
 40 44  1  0  0  0
 40 45  1  0  0  0
  3  5  1  0  0  0
  8 10  1  0  0  0
 14 21  1  0  0  0
 27 32  1  0  0  0
 16 22  1  0  0  0
 29 33  1  0  0  0
 18 23  1  0  0  0
M  END
> <minimizedAffinity>
-10.28212

$$$$
5FSY_AR6_A_1262


 45 48  0  0  0  0  0  0  0  0999 V2000
   25.6445    5.9655   11.8956 O   0  0  0  0  0  0  0  0  0  0  0  0
   24.4162    6.2718   10.8995 P   0  0  0  0  0  0  0  0  0  0  0  0
   24.4834    7.7037   10.4656 O   0  0  0  0  0  0  0  0  0  0  0  0
   23.1703    5.8281   11.5756 O   0  0  0  0  0  0  0  0  0  0  0  0
   23.7459    7.8946    9.8652 H   0  0  0  0  0  0  0  0  0  0  0  0
   24.8083    5.4744    9.5668 O   0  0  0  0  0  0  0  0  0  0  0  0
   26.1427    5.4584    8.7058 P   0  0  0  0  0  0  0  0  0  0  0  0
   26.9933    6.6372    9.1056 O   0  0  0  0  0  0  0  0  0  0  0  0
   26.8315    4.0998    8.6454 O   0  0  0  0  0  0  0  0  0  0  0  0
   27.3460    6.4937    9.9977 H   0  0  0  0  0  0  0  0  0  0  0  0
   25.5683    5.7157    7.2259 O   0  0  0  0  0  0  0  0  0  0  0  0
   24.3614    5.0665    6.8249 C   0  0  0  0  0  0  0  0  0  0  0  0
   24.5686    6.7550    3.9220 C   0  0  0  0  0  0  0  0  0  0  0  0
   24.2224    6.6565    2.5349 O   0  0  0  0  0  0  0  0  0  0  0  0
   25.9315    6.1711    4.2060 C   0  0  0  0  0  0  0  0  0  0  0  0
   26.8412    6.1834    3.1097 O   0  0  0  0  0  0  0  0  0  0  0  0
   25.6627    4.7699    4.7204 C   0  0  0  0  0  0  0  0  0  0  0  0
   25.7200    3.7996    3.6572 O   0  0  0  0  0  0  0  0  0  0  0  0
   24.2854    4.8988    5.3257 C   0  0  0  0  0  0  0  0  0  0  0  0
   23.6345    6.0523    4.7668 O   0  0  0  0  0  0  0  0  0  0  0  0
   24.2169    5.7238    2.2685 H   0  0  0  0  0  0  0  0  0  0  0  0
   26.4799    5.6512    2.3837 H   0  0  0  0  0  0  0  0  0  0  0  0
   25.0860    4.0416    2.9641 H   0  0  0  0  0  0  0  0  0  0  0  0
   25.9092    4.6560   12.3833 C   0  0  0  0  0  0  0  0  0  0  0  0
   28.1884    4.0754   14.9568 C   0  0  0  0  0  0  0  0  0  0  0  0
   28.4019    5.5163   14.5195 C   0  0  0  0  0  0  0  0  0  0  0  0
   29.2942    6.1944   15.4121 O   0  0  0  0  0  0  0  0  0  0  0  0
   26.9494    5.9413   14.4460 C   0  0  0  0  0  0  0  0  0  0  0  0
   26.4191    6.1700   15.7656 O   0  0  0  0  0  0  0  0  0  0  0  0
   26.2400    4.7079   13.8825 C   0  0  0  0  0  0  0  0  0  0  0  0
   27.1343    3.6388   14.1237 O   0  0  0  0  0  0  0  0  0  0  0  0
   28.9714    6.1040   16.3224 H   0  0  0  0  0  0  0  0  0  0  0  0
   26.5231    5.3669   16.2995 H   0  0  0  0  0  0  0  0  0  0  0  0
   32.6156    3.3163   12.3841 N   0  0  0  0  0  0  0  0  0  0  0  0
   31.7156    4.3172   12.2415 C   0  0  0  0  0  0  0  0  0  0  0  0
   30.5867    4.3858   12.9629 N   0  0  0  0  0  0  0  0  0  0  0  0
   30.3338    3.4383   13.9350 C   0  0  0  0  0  0  0  0  0  0  0  0
   31.2863    2.3739   14.1731 C   0  0  0  0  0  0  0  0  0  0  0  0
   32.4525    2.3557   13.3012 C   0  0  0  0  0  0  0  0  0  0  0  0
   33.3628    1.4156   13.4449 N   0  0  0  0  0  0  0  0  0  0  0  0
   30.8052    1.5923   15.1617 N   0  0  0  0  0  0  0  0  0  0  0  0
   29.6562    2.1239   15.5509 C   0  0  0  0  0  0  0  0  0  0  0  0
   29.3776    3.2234   14.8178 N   0  0  0  0  0  0  0  0  0  0  0  0
   34.1523    1.4008   12.8568 H   0  0  0  0  0  0  0  0  0  0  0  0
   33.2542    0.7273   14.1404 H   0  0  0  0  0  0  0  0  0  0  0  0
 34 35  2  0  0  0
 34 39  1  0  0  0
 35 36  1  0  0  0
 36 37  2  0  0  0
 37 38  1  0  0  0
 37 43  1  0  0  0
 38 39  2  0  0  0
 38 41  1  0  0  0
 39 40  1  0  0  0
 41 42  2  0  0  0
 42 43  1  0  0  0
 43 25  1  0  0  0
  2  3  1  0  0  0
  2  4  2  0  0  0
  2  6  1  0  0  0
  2  1  1  0  0  0
  7  8  1  0  0  0
  7  9  2  0  0  0
  7  6  1  0  0  0
  7 11  1  0  0  0
 25 26  1  0  0  0
 25 31  1  0  0  0
 13 14  1  0  0  0
 13 15  1  0  0  0
 13 20  1  0  0  0
 26 27  1  0  0  0
 26 28  1  0  0  0
 15 16  1  0  0  0
 15 17  1  0  0  0
 28 29  1  0  0  0
 28 30  1  0  0  0
 17 18  1  0  0  0
 17 19  1  0  0  0
 30 31  1  0  0  0
 30 24  1  0  0  0
 19 20  1  0  0  0
 19 12  1  0  0  0
 24  1  1  0  0  0
 12 11  1  0  0  0
 40 44  1  0  0  0
 40 45  1  0  0  0
  3  5  1  0  0  0
  8 10  1  0  0  0
 14 21  1  0  0  0
 27 32  1  0  0  0
 16 22  1  0  0  0
 29 33  1  0  0  0
 18 23  1  0  0  0
M  END
> <minimizedAffinity>
-10.02384

$$$$
5FSY_AR6_A_1262


 45 48  0  0  0  0  0  0  0  0999 V2000
   26.4038    4.5151   12.4191 O   0  0  0  0  0  0  0  0  0  0  0  0
   26.1127    5.9240   11.6945 P   0  0  0  0  0  0  0  0  0  0  0  0
   26.7262    5.9076   10.3284 O   0  0  0  0  0  0  0  0  0  0  0  0
   26.5496    7.0014   12.6189 O   0  0  0  0  0  0  0  0  0  0  0  0
   26.5544    6.7538    9.8865 H   0  0  0  0  0  0  0  0  0  0  0  0
   24.5425    5.8665   11.3833 O   0  0  0  0  0  0  0  0  0  0  0  0
   23.6858    6.4623   10.1862 P   0  0  0  0  0  0  0  0  0  0  0  0
   22.2225    6.2627   10.4891 O   0  0  0  0  0  0  0  0  0  0  0  0
   24.1146    7.8568    9.7441 O   0  0  0  0  0  0  0  0  0  0  0  0
   21.9598    6.8492   11.2156 H   0  0  0  0  0  0  0  0  0  0  0  0
   24.1009    5.4823    8.9805 O   0  0  0  0  0  0  0  0  0  0  0  0
   23.3130    5.4709    7.7899 C   0  0  0  0  0  0  0  0  0  0  0  0
   26.1334    5.0800    5.9973 C   0  0  0  0  0  0  0  0  0  0  0  0
   26.9812    5.7667    5.0681 O   0  0  0  0  0  0  0  0  0  0  0  0
   25.0406    4.3073    5.2988 C   0  0  0  0  0  0  0  0  0  0  0  0
   25.3407    3.8921    3.9694 O   0  0  0  0  0  0  0  0  0  0  0  0
   23.8183    5.2028    5.3644 C   0  0  0  0  0  0  0  0  0  0  0  0
   23.6931    6.0092    4.1773 O   0  0  0  0  0  0  0  0  0  0  0  0
   24.0746    6.0211    6.6072 C   0  0  0  0  0  0  0  0  0  0  0  0
   25.4797    5.9863    6.9090 O   0  0  0  0  0  0  0  0  0  0  0  0
   26.4515    6.3899    4.5466 H   0  0  0  0  0  0  0  0  0  0  0  0
   25.4983    4.6722    3.4149 H   0  0  0  0  0  0  0  0  0  0  0  0
   24.5002    6.5333    4.0558 H   0  0  0  0  0  0  0  0  0  0  0  0
   25.8083    4.1722   13.6643 C   0  0  0  0  0  0  0  0  0  0  0  0
   29.1767    4.2605   14.5594 C   0  0  0  0  0  0  0  0  0  0  0  0
   28.5765    5.5726   15.0402 C   0  0  0  0  0  0  0  0  0  0  0  0
   29.5110    6.2954   15.8507 O   0  0  0  0  0  0  0  0  0  0  0  0
   27.3124    5.0198   15.6663 C   0  0  0  0  0  0  0  0  0  0  0  0
   27.6000    4.4100   16.9393 O   0  0  0  0  0  0  0  0  0  0  0  0
   26.8974    3.8975   14.7124 C   0  0  0  0  0  0  0  0  0  0  0  0
   28.0720    3.5921   13.9859 O   0  0  0  0  0  0  0  0  0  0  0  0
   29.8284    5.7231   16.5667 H   0  0  0  0  0  0  0  0  0  0  0  0
   28.2662    3.7149   16.8216 H   0  0  0  0  0  0  0  0  0  0  0  0
   31.5148    7.4834   11.2518 N   0  0  0  0  0  0  0  0  0  0  0  0
   30.4566    7.7233   12.0608 C   0  0  0  0  0  0  0  0  0  0  0  0
   29.9285    6.7856   12.8618 N   0  0  0  0  0  0  0  0  0  0  0  0
   30.5023    5.5311   12.9221 C   0  0  0  0  0  0  0  0  0  0  0  0
   31.6709    5.2306   12.1214 C   0  0  0  0  0  0  0  0  0  0  0  0
   32.1338    6.2972   11.2446 C   0  0  0  0  0  0  0  0  0  0  0  0
   33.1850    6.1031   10.4761 N   0  0  0  0  0  0  0  0  0  0  0  0
   32.0279    3.9521   12.3615 N   0  0  0  0  0  0  0  0  0  0  0  0
   31.1823    3.4771   13.2635 C   0  0  0  0  0  0  0  0  0  0  0  0
   30.2740    4.4200   13.5952 N   0  0  0  0  0  0  0  0  0  0  0  0
   33.5002    6.8224    9.8823 H   0  0  0  0  0  0  0  0  0  0  0  0
   33.6559    5.2388   10.4952 H   0  0  0  0  0  0  0  0  0  0  0  0
 34 35  2  0  0  0
 34 39  1  0  0  0
 35 36  1  0  0  0
 36 37  2  0  0  0
 37 38  1  0  0  0
 37 43  1  0  0  0
 38 39  2  0  0  0
 38 41  1  0  0  0
 39 40  1  0  0  0
 41 42  2  0  0  0
 42 43  1  0  0  0
 43 25  1  0  0  0
  2  3  1  0  0  0
  2  4  2  0  0  0
  2  6  1  0  0  0
  2  1  1  0  0  0
  7  8  1  0  0  0
  7  9  2  0  0  0
  7  6  1  0  0  0
  7 11  1  0  0  0
 25 26  1  0  0  0
 25 31  1  0  0  0
 13 14  1  0  0  0
 13 15  1  0  0  0
 13 20  1  0  0  0
 26 27  1  0  0  0
 26 28  1  0  0  0
 15 16  1  0  0  0
 15 17  1  0  0  0
 28 29  1  0  0  0
 28 30  1  0  0  0
 17 18  1  0  0  0
 17 19  1  0  0  0
 30 31  1  0  0  0
 30 24  1  0  0  0
 19 20  1  0  0  0
 19 12  1  0  0  0
 24  1  1  0  0  0
 12 11  1  0  0  0
 40 44  1  0  0  0
 40 45  1  0  0  0
  3  5  1  0  0  0
  8 10  1  0  0  0
 14 21  1  0  0  0
 27 32  1  0  0  0
 16 22  1  0  0  0
 29 33  1  0  0  0
 18 23  1  0  0  0
M  END
> <minimizedAffinity>
-9.85719

$$$$
5FSY_AR6_A_1262


 45 48  0  0  0  0  0  0  0  0999 V2000
   26.1468    4.5899   12.6915 O   0  0  0  0  0  0  0  0  0  0  0  0
   25.5617    6.0235   12.2472 P   0  0  0  0  0  0  0  0  0  0  0  0
   26.6070    7.0711   12.4773 O   0  0  0  0  0  0  0  0  0  0  0  0
   24.2577    6.2072   12.9342 O   0  0  0  0  0  0  0  0  0  0  0  0
   26.2606    7.9373   12.2115 H   0  0  0  0  0  0  0  0  0  0  0  0
   25.5003    5.9229   10.6498 O   0  0  0  0  0  0  0  0  0  0  0  0
   26.5908    5.4851    9.5816 P   0  0  0  0  0  0  0  0  0  0  0  0
   27.8600    6.2572    9.8381 O   0  0  0  0  0  0  0  0  0  0  0  0
   26.7246    3.9767    9.4069 O   0  0  0  0  0  0  0  0  0  0  0  0
   28.2686    5.9437   10.6601 H   0  0  0  0  0  0  0  0  0  0  0  0
   25.9298    6.0193    8.2162 O   0  0  0  0  0  0  0  0  0  0  0  0
   26.7796    6.4057    7.1359 C   0  0  0  0  0  0  0  0  0  0  0  0
   24.4332    4.5952    5.5432 C   0  0  0  0  0  0  0  0  0  0  0  0
   24.2801    3.5857    4.5376 O   0  0  0  0  0  0  0  0  0  0  0  0
   24.4111    5.9853    4.9547 C   0  0  0  0  0  0  0  0  0  0  0  0
   23.6924    6.1191    3.7320 O   0  0  0  0  0  0  0  0  0  0  0  0
   25.8690    6.3800    4.8164 C   0  0  0  0  0  0  0  0  0  0  0  0
   26.3728    6.0778    3.5011 O   0  0  0  0  0  0  0  0  0  0  0  0
   26.5351    5.5693    5.9022 C   0  0  0  0  0  0  0  0  0  0  0  0
   25.6808    4.4684    6.2553 O   0  0  0  0  0  0  0  0  0  0  0  0
   25.0032    3.6572    3.8950 H   0  0  0  0  0  0  0  0  0  0  0  0
   24.1015    5.5595    3.0536 H   0  0  0  0  0  0  0  0  0  0  0  0
   26.2508    5.1332    3.3173 H   0  0  0  0  0  0  0  0  0  0  0  0
   25.7056    3.9303   13.8718 C   0  0  0  0  0  0  0  0  0  0  0  0
   29.0978    4.3396   14.5649 C   0  0  0  0  0  0  0  0  0  0  0  0
   28.4072    5.5952   15.0744 C   0  0  0  0  0  0  0  0  0  0  0  0
   29.3163    6.4097   15.8246 O   0  0  0  0  0  0  0  0  0  0  0  0
   27.2390    4.9339   15.7770 C   0  0  0  0  0  0  0  0  0  0  0  0
   27.6564    4.3664   17.0334 O   0  0  0  0  0  0  0  0  0  0  0  0
   26.8751    3.7684   14.8546 C   0  0  0  0  0  0  0  0  0  0  0  0
   28.0284    3.5658   14.0611 O   0  0  0  0  0  0  0  0  0  0  0  0
   29.7270    5.8766   16.5232 H   0  0  0  0  0  0  0  0  0  0  0  0
   28.3764    3.7349   16.8797 H   0  0  0  0  0  0  0  0  0  0  0  0
   33.3625    2.5313   12.2547 N   0  0  0  0  0  0  0  0  0  0  0  0
   32.6177    1.9540   13.2264 C   0  0  0  0  0  0  0  0  0  0  0  0
   31.5375    2.5444   13.7597 N   0  0  0  0  0  0  0  0  0  0  0  0
   31.1153    3.7678   13.2784 C   0  0  0  0  0  0  0  0  0  0  0  0
   31.8386    4.4103   12.2009 C   0  0  0  0  0  0  0  0  0  0  0  0
   33.0279    3.7151   11.7286 C   0  0  0  0  0  0  0  0  0  0  0  0
   33.7482    4.2357   10.7573 N   0  0  0  0  0  0  0  0  0  0  0  0
   31.2275    5.5803   11.9230 N   0  0  0  0  0  0  0  0  0  0  0  0
   30.1810    5.6714   12.7296 C   0  0  0  0  0  0  0  0  0  0  0  0
   30.1170    4.5903   13.5365 N   0  0  0  0  0  0  0  0  0  0  0  0
   34.5527    3.7680   10.4360 H   0  0  0  0  0  0  0  0  0  0  0  0
   33.4823    5.0928   10.3523 H   0  0  0  0  0  0  0  0  0  0  0  0
 34 35  2  0  0  0
 34 39  1  0  0  0
 35 36  1  0  0  0
 36 37  2  0  0  0
 37 38  1  0  0  0
 37 43  1  0  0  0
 38 39  2  0  0  0
 38 41  1  0  0  0
 39 40  1  0  0  0
 41 42  2  0  0  0
 42 43  1  0  0  0
 43 25  1  0  0  0
  2  3  1  0  0  0
  2  4  2  0  0  0
  2  6  1  0  0  0
  2  1  1  0  0  0
  7  8  1  0  0  0
  7  9  2  0  0  0
  7  6  1  0  0  0
  7 11  1  0  0  0
 25 26  1  0  0  0
 25 31  1  0  0  0
 13 14  1  0  0  0
 13 15  1  0  0  0
 13 20  1  0  0  0
 26 27  1  0  0  0
 26 28  1  0  0  0
 15 16  1  0  0  0
 15 17  1  0  0  0
 28 29  1  0  0  0
 28 30  1  0  0  0
 17 18  1  0  0  0
 17 19  1  0  0  0
 30 31  1  0  0  0
 30 24  1  0  0  0
 19 20  1  0  0  0
 19 12  1  0  0  0
 24  1  1  0  0  0
 12 11  1  0  0  0
 40 44  1  0  0  0
 40 45  1  0  0  0
  3  5  1  0  0  0
  8 10  1  0  0  0
 14 21  1  0  0  0
 27 32  1  0  0  0
 16 22  1  0  0  0
 29 33  1  0  0  0
 18 23  1  0  0  0
M  END
> <minimizedAffinity>
-9.66509

$$$$
5FSY_AR6_A_1262


 45 48  0  0  0  0  0  0  0  0999 V2000
   27.0566    7.4245    9.7558 O   0  0  0  0  0  0  0  0  0  0  0  0
   26.5530    6.0388    9.1068 P   0  0  0  0  0  0  0  0  0  0  0  0
   27.1732    4.8964    9.8506 O   0  0  0  0  0  0  0  0  0  0  0  0
   26.8065    6.1110    7.6451 O   0  0  0  0  0  0  0  0  0  0  0  0
   26.8738    4.0585    9.4643 H   0  0  0  0  0  0  0  0  0  0  0  0
   25.0144    5.9588    9.5446 O   0  0  0  0  0  0  0  0  0  0  0  0
   24.2688    6.4476   10.8589 P   0  0  0  0  0  0  0  0  0  0  0  0
   23.8778    7.8934   10.6868 O   0  0  0  0  0  0  0  0  0  0  0  0
   23.1871    5.4950   11.3550 O   0  0  0  0  0  0  0  0  0  0  0  0
   23.1645    7.9598   10.0328 H   0  0  0  0  0  0  0  0  0  0  0  0
   25.4511    6.3593   11.9456 O   0  0  0  0  0  0  0  0  0  0  0  0
   25.5846    5.1768   12.7346 C   0  0  0  0  0  0  0  0  0  0  0  0
   27.4527    4.3908   15.4203 C   0  0  0  0  0  0  0  0  0  0  0  0
   27.4630    4.4821   16.8504 O   0  0  0  0  0  0  0  0  0  0  0  0
   28.0756    5.6043   14.7733 C   0  0  0  0  0  0  0  0  0  0  0  0
   29.0416    6.2898   15.5648 O   0  0  0  0  0  0  0  0  0  0  0  0
   26.9073    6.4912   14.3878 C   0  0  0  0  0  0  0  0  0  0  0  0
   26.6257    7.4644   15.4119 O   0  0  0  0  0  0  0  0  0  0  0  0
   25.7869    5.4972   14.1968 C   0  0  0  0  0  0  0  0  0  0  0  0
   26.1151    4.2826   14.8921 O   0  0  0  0  0  0  0  0  0  0  0  0
   26.9643    5.2665   17.1280 H   0  0  0  0  0  0  0  0  0  0  0  0
   28.6216    6.6180   16.3751 H   0  0  0  0  0  0  0  0  0  0  0  0
   26.4532    7.0098   16.2512 H   0  0  0  0  0  0  0  0  0  0  0  0
   28.4329    7.6824   10.0046 C   0  0  0  0  0  0  0  0  0  0  0  0
   30.4676    6.3347   12.4943 C   0  0  0  0  0  0  0  0  0  0  0  0
   31.0204    7.7207   12.2002 C   0  0  0  0  0  0  0  0  0  0  0  0
   32.0311    8.0799   13.1499 O   0  0  0  0  0  0  0  0  0  0  0  0
   29.7095    8.4801   12.1777 C   0  0  0  0  0  0  0  0  0  0  0  0
   29.2248    8.6974   13.5167 O   0  0  0  0  0  0  0  0  0  0  0  0
   28.7406    7.5089   11.4996 C   0  0  0  0  0  0  0  0  0  0  0  0
   29.3550    6.2413   11.6286 O   0  0  0  0  0  0  0  0  0  0  0  0
   31.6804    7.9797   14.0487 H   0  0  0  0  0  0  0  0  0  0  0  0
   29.1283    7.8443   13.9680 H   0  0  0  0  0  0  0  0  0  0  0  0
   34.8259    4.9237   10.0842 N   0  0  0  0  0  0  0  0  0  0  0  0
   34.2113    6.1296   10.0829 C   0  0  0  0  0  0  0  0  0  0  0  0
   33.0632    6.3594   10.7378 N   0  0  0  0  0  0  0  0  0  0  0  0
   32.4920    5.3564   11.4956 C   0  0  0  0  0  0  0  0  0  0  0  0
   33.1321    4.0604   11.5814 C   0  0  0  0  0  0  0  0  0  0  0  0
   34.3438    3.8948   10.7907 C   0  0  0  0  0  0  0  0  0  0  0  0
   34.9829    2.7439   10.8052 N   0  0  0  0  0  0  0  0  0  0  0  0
   32.3785    3.2706   12.3737 N   0  0  0  0  0  0  0  0  0  0  0  0
   31.3562    4.0027   12.7899 C   0  0  0  0  0  0  0  0  0  0  0  0
   31.4261    5.2449   12.2646 N   0  0  0  0  0  0  0  0  0  0  0  0
   35.8022    2.6290   10.2717 H   0  0  0  0  0  0  0  0  0  0  0  0
   34.6414    1.9981   11.3496 H   0  0  0  0  0  0  0  0  0  0  0  0
 34 35  2  0  0  0
 34 39  1  0  0  0
 35 36  1  0  0  0
 36 37  2  0  0  0
 37 38  1  0  0  0
 37 43  1  0  0  0
 38 39  2  0  0  0
 38 41  1  0  0  0
 39 40  1  0  0  0
 41 42  2  0  0  0
 42 43  1  0  0  0
 43 25  1  0  0  0
  2  3  1  0  0  0
  2  4  2  0  0  0
  2  6  1  0  0  0
  2  1  1  0  0  0
  7  8  1  0  0  0
  7  9  2  0  0  0
  7  6  1  0  0  0
  7 11  1  0  0  0
 25 26  1  0  0  0
 25 31  1  0  0  0
 13 14  1  0  0  0
 13 15  1  0  0  0
 13 20  1  0  0  0
 26 27  1  0  0  0
 26 28  1  0  0  0
 15 16  1  0  0  0
 15 17  1  0  0  0
 28 29  1  0  0  0
 28 30  1  0  0  0
 17 18  1  0  0  0
 17 19  1  0  0  0
 30 31  1  0  0  0
 30 24  1  0  0  0
 19 20  1  0  0  0
 19 12  1  0  0  0
 24  1  1  0  0  0
 12 11  1  0  0  0
 40 44  1  0  0  0
 40 45  1  0  0  0
  3  5  1  0  0  0
  8 10  1  0  0  0
 14 21  1  0  0  0
 27 32  1  0  0  0
 16 22  1  0  0  0
 29 33  1  0  0  0
 18 23  1  0  0  0
M  END
> <minimizedAffinity>
-9.55950

$$$$
5FSY_AR6_A_1262


 45 48  0  0  0  0  0  0  0  0999 V2000
   24.0055    6.2405    7.7149 O   0  0  0  0  0  0  0  0  0  0  0  0
   23.6959    6.2628    9.2956 P   0  0  0  0  0  0  0  0  0  0  0  0
   22.4058    5.5464    9.5515 O   0  0  0  0  0  0  0  0  0  0  0  0
   23.7871    7.6740    9.7497 O   0  0  0  0  0  0  0  0  0  0  0  0
   22.2135    5.5564   10.5022 H   0  0  0  0  0  0  0  0  0  0  0  0
   24.7886    5.2623    9.9043 O   0  0  0  0  0  0  0  0  0  0  0  0
   26.3518    5.1349    9.6544 P   0  0  0  0  0  0  0  0  0  0  0  0
   26.6200    3.8625    8.8916 O   0  0  0  0  0  0  0  0  0  0  0  0
   27.0061    6.4065    9.1264 O   0  0  0  0  0  0  0  0  0  0  0  0
   26.2934    3.9552    7.9829 H   0  0  0  0  0  0  0  0  0  0  0  0
   26.9000    4.9607   11.1562 O   0  0  0  0  0  0  0  0  0  0  0  0
   25.9857    5.0673   12.2478 C   0  0  0  0  0  0  0  0  0  0  0  0
   28.8962    5.7580   13.7881 C   0  0  0  0  0  0  0  0  0  0  0  0
   29.6555    5.4323   14.9590 O   0  0  0  0  0  0  0  0  0  0  0  0
   27.9692    6.9261   14.0240 C   0  0  0  0  0  0  0  0  0  0  0  0
   28.3812    7.8370   15.0389 O   0  0  0  0  0  0  0  0  0  0  0  0
   26.6166    6.3054   14.3164 C   0  0  0  0  0  0  0  0  0  0  0  0
   26.4065    6.1461   15.7326 O   0  0  0  0  0  0  0  0  0  0  0  0
   26.6914    4.9887   13.5810 C   0  0  0  0  0  0  0  0  0  0  0  0
   28.0715    4.6584   13.3516 O   0  0  0  0  0  0  0  0  0  0  0  0
   29.0516    5.2020   15.6823 H   0  0  0  0  0  0  0  0  0  0  0  0
   28.4309    7.3728   15.8892 H   0  0  0  0  0  0  0  0  0  0  0  0
   27.1221    5.6092   16.1073 H   0  0  0  0  0  0  0  0  0  0  0  0
   23.3196    5.3674    6.8262 C   0  0  0  0  0  0  0  0  0  0  0  0
   25.0099    6.4063    3.9593 C   0  0  0  0  0  0  0  0  0  0  0  0
   26.0061    6.5208    5.1028 C   0  0  0  0  0  0  0  0  0  0  0  0
   27.3190    6.8127    4.6094 O   0  0  0  0  0  0  0  0  0  0  0  0
   25.7343    5.1857    5.7657 C   0  0  0  0  0  0  0  0  0  0  0  0
   26.3481    4.1150    5.0228 O   0  0  0  0  0  0  0  0  0  0  0  0
   24.2193    5.0170    5.6313 C   0  0  0  0  0  0  0  0  0  0  0  0
   23.8512    5.9018    4.5909 O   0  0  0  0  0  0  0  0  0  0  0  0
   27.5654    6.1571    3.9383 H   0  0  0  0  0  0  0  0  0  0  0  0
   26.0213    4.1262    4.1096 H   0  0  0  0  0  0  0  0  0  0  0  0
   22.4641    8.6918    0.0748 N   0  0  0  0  0  0  0  0  0  0  0  0
   22.4359    7.3934    0.4561 C   0  0  0  0  0  0  0  0  0  0  0  0
   23.1674    6.9210    1.4766 N   0  0  0  0  0  0  0  0  0  0  0  0
   23.9490    7.7840    2.2189 C   0  0  0  0  0  0  0  0  0  0  0  0
   23.9777    9.1950    1.8945 C   0  0  0  0  0  0  0  0  0  0  0  0
   23.1927    9.5984    0.7362 C   0  0  0  0  0  0  0  0  0  0  0  0
   23.1715   10.8620    0.3675 N   0  0  0  0  0  0  0  0  0  0  0  0
   24.8097    9.8089    2.7607 N   0  0  0  0  0  0  0  0  0  0  0  0
   25.2556    8.8804    3.5932 C   0  0  0  0  0  0  0  0  0  0  0  0
   24.7416    7.6746    3.2676 N   0  0  0  0  0  0  0  0  0  0  0  0
   22.6417   11.1377   -0.4152 H   0  0  0  0  0  0  0  0  0  0  0  0
   23.6855   11.5314    0.8744 H   0  0  0  0  0  0  0  0  0  0  0  0
 34 35  2  0  0  0
 34 39  1  0  0  0
 35 36  1  0  0  0
 36 37  2  0  0  0
 37 38  1  0  0  0
 37 43  1  0  0  0
 38 39  2  0  0  0
 38 41  1  0  0  0
 39 40  1  0  0  0
 41 42  2  0  0  0
 42 43  1  0  0  0
 43 25  1  0  0  0
  2  3  1  0  0  0
  2  4  2  0  0  0
  2  6  1  0  0  0
  2  1  1  0  0  0
  7  8  1  0  0  0
  7  9  2  0  0  0
  7  6  1  0  0  0
  7 11  1  0  0  0
 25 26  1  0  0  0
 25 31  1  0  0  0
 13 14  1  0  0  0
 13 15  1  0  0  0
 13 20  1  0  0  0
 26 27  1  0  0  0
 26 28  1  0  0  0
 15 16  1  0  0  0
 15 17  1  0  0  0
 28 29  1  0  0  0
 28 30  1  0  0  0
 17 18  1  0  0  0
 17 19  1  0  0  0
 30 31  1  0  0  0
 30 24  1  0  0  0
 19 20  1  0  0  0
 19 12  1  0  0  0
 24  1  1  0  0  0
 12 11  1  0  0  0
 40 44  1  0  0  0
 40 45  1  0  0  0
  3  5  1  0  0  0
  8 10  1  0  0  0
 14 21  1  0  0  0
 27 32  1  0  0  0
 16 22  1  0  0  0
 29 33  1  0  0  0
 18 23  1  0  0  0
M  END
> <minimizedAffinity>
-9.51077

$$$$
5FSY_AR6_A_1262


 45 48  0  0  0  0  0  0  0  0999 V2000
   26.5724    6.2041   12.2437 O   0  0  0  0  0  0  0  0  0  0  0  0
   25.1662    5.5092   12.6106 P   0  0  0  0  0  0  0  0  0  0  0  0
   24.2491    6.5393   13.1946 O   0  0  0  0  0  0  0  0  0  0  0  0
   25.4607    4.3158   13.4444 O   0  0  0  0  0  0  0  0  0  0  0  0
   23.4000    6.1269   13.4178 H   0  0  0  0  0  0  0  0  0  0  0  0
   24.5102    5.2151   11.1792 O   0  0  0  0  0  0  0  0  0  0  0  0
   23.6317    6.1250   10.2188 P   0  0  0  0  0  0  0  0  0  0  0  0
   22.1803    5.7564   10.3935 O   0  0  0  0  0  0  0  0  0  0  0  0
   23.9779    7.6086   10.2738 O   0  0  0  0  0  0  0  0  0  0  0  0
   21.8735    6.0545   11.2640 H   0  0  0  0  0  0  0  0  0  0  0  0
   24.1204    5.6226    8.7713 O   0  0  0  0  0  0  0  0  0  0  0  0
   23.2721    5.8258    7.6409 C   0  0  0  0  0  0  0  0  0  0  0  0
   26.0941    5.1949    5.9208 C   0  0  0  0  0  0  0  0  0  0  0  0
   26.9657    5.7678    4.9381 O   0  0  0  0  0  0  0  0  0  0  0  0
   24.9870    4.3856    5.2895 C   0  0  0  0  0  0  0  0  0  0  0  0
   25.2857    3.8371    4.0091 O   0  0  0  0  0  0  0  0  0  0  0  0
   23.7874    5.3131    5.2573 C   0  0  0  0  0  0  0  0  0  0  0  0
   23.6911    6.0043    3.9971 O   0  0  0  0  0  0  0  0  0  0  0  0
   24.0558    6.2407    6.4181 C   0  0  0  0  0  0  0  0  0  0  0  0
   25.4573    6.2005    6.7351 O   0  0  0  0  0  0  0  0  0  0  0  0
   26.4557    6.3508    4.3542 H   0  0  0  0  0  0  0  0  0  0  0  0
   25.4671    4.5561    3.3837 H   0  0  0  0  0  0  0  0  0  0  0  0
   24.5121    6.4943    3.8335 H   0  0  0  0  0  0  0  0  0  0  0  0
   27.7188    5.4409   11.8888 C   0  0  0  0  0  0  0  0  0  0  0  0
   31.0391    6.3349   12.4641 C   0  0  0  0  0  0  0  0  0  0  0  0
   30.2356    7.6243   12.5334 C   0  0  0  0  0  0  0  0  0  0  0  0
   31.0491    8.7091   12.9959 O   0  0  0  0  0  0  0  0  0  0  0  0
   29.0926    7.1251   13.3936 C   0  0  0  0  0  0  0  0  0  0  0  0
   29.4996    7.0249   14.7718 O   0  0  0  0  0  0  0  0  0  0  0  0
   28.8558    5.7000   12.8888 C   0  0  0  0  0  0  0  0  0  0  0  0
   30.0528    5.3535   12.2194 O   0  0  0  0  0  0  0  0  0  0  0  0
   31.4697    8.4631   13.8346 H   0  0  0  0  0  0  0  0  0  0  0  0
   30.2708    6.4405   14.8395 H   0  0  0  0  0  0  0  0  0  0  0  0
   34.7469    3.5607   10.1510 N   0  0  0  0  0  0  0  0  0  0  0  0
   33.8992    3.1837   11.1364 C   0  0  0  0  0  0  0  0  0  0  0  0
   32.9900    4.0145   11.6685 N   0  0  0  0  0  0  0  0  0  0  0  0
   32.8567    5.2960   11.1719 C   0  0  0  0  0  0  0  0  0  0  0  0
   33.6976    5.7400   10.0798 C   0  0  0  0  0  0  0  0  0  0  0  0
   34.6893    4.7829    9.6095 C   0  0  0  0  0  0  0  0  0  0  0  0
   35.5002    5.1105    8.6255 N   0  0  0  0  0  0  0  0  0  0  0  0
   33.3703    7.0159    9.7888 N   0  0  0  0  0  0  0  0  0  0  0  0
   32.3815    7.3567   10.6014 C   0  0  0  0  0  0  0  0  0  0  0  0
   32.0780    6.3301   11.4248 N   0  0  0  0  0  0  0  0  0  0  0  0
   36.1716    4.4654    8.3055 H   0  0  0  0  0  0  0  0  0  0  0  0
   35.4352    6.0004    8.2096 H   0  0  0  0  0  0  0  0  0  0  0  0
 34 35  2  0  0  0
 34 39  1  0  0  0
 35 36  1  0  0  0
 36 37  2  0  0  0
 37 38  1  0  0  0
 37 43  1  0  0  0
 38 39  2  0  0  0
 38 41  1  0  0  0
 39 40  1  0  0  0
 41 42  2  0  0  0
 42 43  1  0  0  0
 43 25  1  0  0  0
  2  3  1  0  0  0
  2  4  2  0  0  0
  2  6  1  0  0  0
  2  1  1  0  0  0
  7  8  1  0  0  0
  7  9  2  0  0  0
  7  6  1  0  0  0
  7 11  1  0  0  0
 25 26  1  0  0  0
 25 31  1  0  0  0
 13 14  1  0  0  0
 13 15  1  0  0  0
 13 20  1  0  0  0
 26 27  1  0  0  0
 26 28  1  0  0  0
 15 16  1  0  0  0
 15 17  1  0  0  0
 28 29  1  0  0  0
 28 30  1  0  0  0
 17 18  1  0  0  0
 17 19  1  0  0  0
 30 31  1  0  0  0
 30 24  1  0  0  0
 19 20  1  0  0  0
 19 12  1  0  0  0
 24  1  1  0  0  0
 12 11  1  0  0  0
 40 44  1  0  0  0
 40 45  1  0  0  0
  3  5  1  0  0  0
  8 10  1  0  0  0
 14 21  1  0  0  0
 27 32  1  0  0  0
 16 22  1  0  0  0
 29 33  1  0  0  0
 18 23  1  0  0  0
M  END
> <minimizedAffinity>
-9.14542

$$$$
