5IA4_88Z_A_1001


 48 53  0  0  0  0  0  0  0  0999 V2000
   18.1215   -7.3310  104.0788 C   0  0  0  0  0  0  0  0  0  0  0  0
   18.5363   -6.3714  104.9844 C   0  0  0  0  0  0  0  0  0  0  0  0
   19.2044   -6.7360  106.1469 C   0  0  0  0  0  0  0  0  0  0  0  0
   19.5050   -8.0747  106.4356 C   0  0  0  0  0  0  0  0  0  0  0  0
   19.0848   -9.0497  105.5118 C   0  0  0  0  0  0  0  0  0  0  0  0
   18.4039   -8.6713  104.3388 C   0  0  0  0  0  0  0  0  0  0  0  0
   17.9788   -9.5882  103.4287 F   0  0  0  0  0  0  0  0  0  0  0  0
   20.1572   -8.2929  107.6042 N   0  0  0  0  0  0  0  0  0  0  0  0
   21.4874   -8.5463  107.6892 C   0  0  0  0  0  0  0  0  0  0  0  0
   22.2651   -8.5504  106.7393 O   0  0  0  0  0  0  0  0  0  0  0  0
   19.6357   -8.2660  108.4388 H   0  0  0  0  0  0  0  0  0  0  0  0
   22.0398   -8.7939  109.1025 C   0  0  0  0  0  0  0  0  0  0  0  0
   23.4465   -9.4361  109.1771 C   0  0  0  0  0  0  0  0  0  0  0  0
   22.2015  -10.2610  109.5327 C   0  0  0  0  0  0  0  0  0  0  0  0
   21.5985   -7.7819  110.1904 C   0  0  0  0  0  0  0  0  0  0  0  0
   22.1905   -7.9629  111.4033 N   0  0  0  0  0  0  0  0  0  0  0  0
   20.7624   -6.8930  109.9458 O   0  0  0  0  0  0  0  0  0  0  0  0
   22.8357   -8.6951  111.5332 H   0  0  0  0  0  0  0  0  0  0  0  0
   21.8910   -7.1367  112.4262 C   0  0  0  0  0  0  0  0  0  0  0  0
   20.5815   -6.9557  112.8669 C   0  0  0  0  0  0  0  0  0  0  0  0
   20.2700   -6.0970  113.9130 C   0  0  0  0  0  0  0  0  0  0  0  0
   21.2924   -5.4267  114.5502 C   0  0  0  0  0  0  0  0  0  0  0  0
   22.6102   -5.6196  114.1385 C   0  0  0  0  0  0  0  0  0  0  0  0
   22.9164   -6.4686  113.0832 C   0  0  0  0  0  0  0  0  0  0  0  0
   20.9742   -4.5618  115.6033 F   0  0  0  0  0  0  0  0  0  0  0  0
   17.4305   -7.0319  102.9146 O   0  0  0  0  0  0  0  0  0  0  0  0
   15.5879   -5.0109   99.8162 C   0  0  0  0  0  0  0  0  0  0  0  0
   14.2718   -4.5972   99.9460 C   0  0  0  0  0  0  0  0  0  0  0  0
   13.5372   -4.8460  101.0992 C   0  0  0  0  0  0  0  0  0  0  0  0
   14.1713   -5.5365  102.1334 C   0  0  0  0  0  0  0  0  0  0  0  0
   15.5070   -5.9510  102.0221 C   0  0  0  0  0  0  0  0  0  0  0  0
   16.2335   -5.6990  100.8495 C   0  0  0  0  0  0  0  0  0  0  0  0
   13.4584   -5.7778  103.2387 N   0  0  0  0  0  0  0  0  0  0  0  0
   14.0524   -6.4576  104.3115 C   0  0  0  0  0  0  0  0  0  0  0  0
   15.3814   -6.8890  104.2461 C   0  0  0  0  0  0  0  0  0  0  0  0
   16.1204   -6.6308  103.0903 C   0  0  0  0  0  0  0  0  0  0  0  0
   16.1524   -4.6930   98.6223 O   0  0  0  0  0  0  0  0  0  0  0  0
   17.4995   -5.1225   98.3927 C   0  0  0  0  0  0  0  0  0  0  0  0
   13.7754   -3.9353   98.8672 O   0  0  0  0  0  0  0  0  0  0  0  0
   12.3699   -3.6094   98.9442 C   0  0  0  0  0  0  0  0  0  0  0  0
   12.1729   -2.3763   98.0556 C   0  0  0  0  0  0  0  0  0  0  0  0
   13.4969   -2.1365   97.3137 C   0  0  0  0  0  0  0  0  0  0  0  0
   14.0158   -0.7792   97.5387 N   0  0  0  0  0  0  0  0  0  0  0  0
   15.1391   -0.7938   98.4883 C   0  0  0  0  0  0  0  0  0  0  0  0
   15.6283    0.6332   98.7431 C   0  0  0  0  0  0  0  0  0  0  0  0
   14.5464    1.4136   99.2833 O   0  0  0  0  0  0  0  0  0  0  0  0
   13.4754    1.4851   98.3283 C   0  0  0  0  0  0  0  0  0  0  0  0
   12.9435    0.0766   98.0645 C   0  0  0  0  0  0  0  0  0  0  0  0
 28 27  2  0  0  0
 27 32  1  0  0  0
 27 37  1  0  0  0
 29 28  1  0  0  0
 39 28  1  0  0  0
 29 30  2  0  0  0
 33 30  1  0  0  0
 30 31  1  0  0  0
 31 36  1  0  0  0
 31 32  2  0  0  0
 34 33  2  0  0  0
 34 35  1  0  0  0
 35 36  2  0  0  0
 36 26  1  0  0  0
 37 38  1  0  0  0
 39 40  1  0  0  0
  1 26  1  0  0  0
  2  1  2  0  0  0
  1  6  1  0  0  0
  3  2  1  0  0  0
  3  4  2  0  0  0
  8  4  1  0  0  0
  4  5  1  0  0  0
  5  6  2  0  0  0
  6  7  1  0  0  0
  8  9  1  0  0  0
 40 41  1  0  0  0
 42 41  1  0  0  0
 43 42  1  0  0  0
 44 43  1  0  0  0
 43 48  1  0  0  0
 45 44  1  0  0  0
 45 46  1  0  0  0
 46 47  1  0  0  0
 47 48  1  0  0  0
 12  9  1  0  0  0
  9 10  2  0  0  0
 15 12  1  0  0  0
 12 13  1  0  0  0
 12 14  1  0  0  0
 16 15  1  0  0  0
 17 15  2  0  0  0
 19 16  1  0  0  0
 24 19  2  0  0  0
 20 19  1  0  0  0
 21 20  2  0  0  0
 22 21  1  0  0  0
 25 22  1  0  0  0
 22 23  2  0  0  0
 23 24  1  0  0  0
 13 14  1  0  0  0
  8 11  1  0  0  0
 16 18  1  0  0  0
M  END
> <minimizedAffinity>
-12.08069

$$$$
5IA4_88Z_A_1001


 48 53  0  0  0  0  0  0  0  0999 V2000
   18.2711   -7.5348  103.9890 C   0  0  0  0  0  0  0  0  0  0  0  0
   18.6567   -6.5390  104.8681 C   0  0  0  0  0  0  0  0  0  0  0  0
   19.2827   -6.8561  106.0673 C   0  0  0  0  0  0  0  0  0  0  0  0
   19.5692   -8.1821  106.4216 C   0  0  0  0  0  0  0  0  0  0  0  0
   19.1787   -9.1940  105.5248 C   0  0  0  0  0  0  0  0  0  0  0  0
   18.5402   -8.8635  104.3140 C   0  0  0  0  0  0  0  0  0  0  0  0
   18.1446   -9.8168  103.4284 F   0  0  0  0  0  0  0  0  0  0  0  0
   20.1795   -8.3526  107.6203 N   0  0  0  0  0  0  0  0  0  0  0  0
   21.5152   -8.5407  107.7662 C   0  0  0  0  0  0  0  0  0  0  0  0
   22.3329   -8.5206  106.8507 O   0  0  0  0  0  0  0  0  0  0  0  0
   19.6214   -8.3392  108.4313 H   0  0  0  0  0  0  0  0  0  0  0  0
   22.0167   -8.7420  109.2056 C   0  0  0  0  0  0  0  0  0  0  0  0
   23.4330   -9.3500  109.3508 C   0  0  0  0  0  0  0  0  0  0  0  0
   22.1932  -10.1943  109.6779 C   0  0  0  0  0  0  0  0  0  0  0  0
   21.5109   -7.7147  110.2503 C   0  0  0  0  0  0  0  0  0  0  0  0
   22.0219   -7.8831  111.5012 N   0  0  0  0  0  0  0  0  0  0  0  0
   20.6969   -6.8253  109.9411 O   0  0  0  0  0  0  0  0  0  0  0  0
   22.6535   -8.6165  111.6816 H   0  0  0  0  0  0  0  0  0  0  0  0
   21.6608   -7.0431  112.4924 C   0  0  0  0  0  0  0  0  0  0  0  0
   22.5955   -6.2724  113.1811 C   0  0  0  0  0  0  0  0  0  0  0  0
   22.2268   -5.4150  114.2094 C   0  0  0  0  0  0  0  0  0  0  0  0
   20.8922   -5.3047  114.5371 C   0  0  0  0  0  0  0  0  0  0  0  0
   19.9429   -6.0483  113.8377 C   0  0  0  0  0  0  0  0  0  0  0  0
   20.3169   -6.9150  112.8193 C   0  0  0  0  0  0  0  0  0  0  0  0
   20.5249   -4.4401  115.5744 F   0  0  0  0  0  0  0  0  0  0  0  0
   17.6221   -7.2833  102.7899 O   0  0  0  0  0  0  0  0  0  0  0  0
   16.2374   -5.1524   99.5308 C   0  0  0  0  0  0  0  0  0  0  0  0
   15.0111   -4.5102   99.5944 C   0  0  0  0  0  0  0  0  0  0  0  0
   14.2165   -4.5622  100.7334 C   0  0  0  0  0  0  0  0  0  0  0  0
   14.6946   -5.2924  101.8227 C   0  0  0  0  0  0  0  0  0  0  0  0
   15.9396   -5.9377  101.7783 C   0  0  0  0  0  0  0  0  0  0  0  0
   16.7272   -5.8823  100.6194 C   0  0  0  0  0  0  0  0  0  0  0  0
   13.9238   -5.3435  102.9141 N   0  0  0  0  0  0  0  0  0  0  0  0
   14.3634   -6.0541  104.0401 C   0  0  0  0  0  0  0  0  0  0  0  0
   15.5978   -6.7122  104.0420 C   0  0  0  0  0  0  0  0  0  0  0  0
   16.3984   -6.6518  102.9002 C   0  0  0  0  0  0  0  0  0  0  0  0
   16.8776   -5.0053   98.3419 O   0  0  0  0  0  0  0  0  0  0  0  0
   18.3096   -5.0421   98.3532 C   0  0  0  0  0  0  0  0  0  0  0  0
   14.6646   -3.8345   98.4668 O   0  0  0  0  0  0  0  0  0  0  0  0
   14.4736   -2.4130   98.6410 C   0  0  0  0  0  0  0  0  0  0  0  0
   15.7556   -1.7484   98.1271 C   0  0  0  0  0  0  0  0  0  0  0  0
   16.3821   -0.9967   99.3116 C   0  0  0  0  0  0  0  0  0  0  0  0
   17.4708   -1.7631   99.9358 N   0  0  0  0  0  0  0  0  0  0  0  0
   17.1668   -2.0619  101.3436 C   0  0  0  0  0  0  0  0  0  0  0  0
   18.3345   -2.8157  101.9832 C   0  0  0  0  0  0  0  0  0  0  0  0
   19.5201   -2.0036  101.9046 O   0  0  0  0  0  0  0  0  0  0  0  0
   19.8567   -1.7678  100.5278 C   0  0  0  0  0  0  0  0  0  0  0  0
   18.7205   -0.9943   99.8590 C   0  0  0  0  0  0  0  0  0  0  0  0
 28 27  2  0  0  0
 27 32  1  0  0  0
 27 37  1  0  0  0
 29 28  1  0  0  0
 39 28  1  0  0  0
 29 30  2  0  0  0
 33 30  1  0  0  0
 30 31  1  0  0  0
 31 36  1  0  0  0
 31 32  2  0  0  0
 34 33  2  0  0  0
 34 35  1  0  0  0
 35 36  2  0  0  0
 36 26  1  0  0  0
 37 38  1  0  0  0
 39 40  1  0  0  0
  1 26  1  0  0  0
  2  1  2  0  0  0
  1  6  1  0  0  0
  3  2  1  0  0  0
  3  4  2  0  0  0
  8  4  1  0  0  0
  4  5  1  0  0  0
  5  6  2  0  0  0
  6  7  1  0  0  0
  8  9  1  0  0  0
 40 41  1  0  0  0
 42 41  1  0  0  0
 43 42  1  0  0  0
 44 43  1  0  0  0
 43 48  1  0  0  0
 45 44  1  0  0  0
 45 46  1  0  0  0
 46 47  1  0  0  0
 47 48  1  0  0  0
 12  9  1  0  0  0
  9 10  2  0  0  0
 15 12  1  0  0  0
 12 13  1  0  0  0
 12 14  1  0  0  0
 16 15  1  0  0  0
 17 15  2  0  0  0
 19 16  1  0  0  0
 24 19  2  0  0  0
 20 19  1  0  0  0
 21 20  2  0  0  0
 22 21  1  0  0  0
 25 22  1  0  0  0
 22 23  2  0  0  0
 23 24  1  0  0  0
 13 14  1  0  0  0
  8 11  1  0  0  0
 16 18  1  0  0  0
M  END
> <minimizedAffinity>
-11.87772

$$$$
5IA4_88Z_A_1001


 48 53  0  0  0  0  0  0  0  0999 V2000
   18.1370   -7.3110  104.0827 C   0  0  0  0  0  0  0  0  0  0  0  0
   18.5454   -6.3471  104.9866 C   0  0  0  0  0  0  0  0  0  0  0  0
   19.2026   -6.7064  106.1569 C   0  0  0  0  0  0  0  0  0  0  0  0
   19.4985   -8.0440  106.4556 C   0  0  0  0  0  0  0  0  0  0  0  0
   19.0849   -9.0234  105.5335 C   0  0  0  0  0  0  0  0  0  0  0  0
   18.4149   -8.6503  104.3525 C   0  0  0  0  0  0  0  0  0  0  0  0
   17.9964   -9.5715  103.4437 F   0  0  0  0  0  0  0  0  0  0  0  0
   20.1400   -8.2568  107.6311 N   0  0  0  0  0  0  0  0  0  0  0  0
   21.4642   -8.5361  107.7274 C   0  0  0  0  0  0  0  0  0  0  0  0
   22.2465   -8.5715  106.7820 O   0  0  0  0  0  0  0  0  0  0  0  0
   19.6148   -8.2057  108.4622 H   0  0  0  0  0  0  0  0  0  0  0  0
   22.0041   -8.7724  109.1475 C   0  0  0  0  0  0  0  0  0  0  0  0
   23.4059   -9.4229  109.2398 C   0  0  0  0  0  0  0  0  0  0  0  0
   22.1527  -10.2359  109.5943 C   0  0  0  0  0  0  0  0  0  0  0  0
   21.5610   -7.7461  110.2213 C   0  0  0  0  0  0  0  0  0  0  0  0
   22.1209   -7.9353  111.4481 N   0  0  0  0  0  0  0  0  0  0  0  0
   20.7511   -6.8396  109.9542 O   0  0  0  0  0  0  0  0  0  0  0  0
   22.7462   -8.6813  111.5954 H   0  0  0  0  0  0  0  0  0  0  0  0
   21.8169   -7.0982  112.4608 C   0  0  0  0  0  0  0  0  0  0  0  0
   20.5073   -6.9245  112.9041 C   0  0  0  0  0  0  0  0  0  0  0  0
   20.1910   -6.0547  113.9396 C   0  0  0  0  0  0  0  0  0  0  0  0
   21.2090   -5.3655  114.5636 C   0  0  0  0  0  0  0  0  0  0  0  0
   22.5271   -5.5507  114.1494 C   0  0  0  0  0  0  0  0  0  0  0  0
   22.8380   -6.4108  113.1045 C   0  0  0  0  0  0  0  0  0  0  0  0
   20.8860   -4.4895  115.6060 F   0  0  0  0  0  0  0  0  0  0  0  0
   17.4569   -7.0173  102.9108 O   0  0  0  0  0  0  0  0  0  0  0  0
   15.6673   -4.9391   99.8190 C   0  0  0  0  0  0  0  0  0  0  0  0
   14.3498   -4.5254   99.9349 C   0  0  0  0  0  0  0  0  0  0  0  0
   13.5965   -4.7931  101.0717 C   0  0  0  0  0  0  0  0  0  0  0  0
   14.2128   -5.5027  102.1037 C   0  0  0  0  0  0  0  0  0  0  0  0
   15.5496   -5.9175  102.0066 C   0  0  0  0  0  0  0  0  0  0  0  0
   16.2951   -5.6463  100.8504 C   0  0  0  0  0  0  0  0  0  0  0  0
   13.4819   -5.7621  103.1929 N   0  0  0  0  0  0  0  0  0  0  0  0
   14.0576   -6.4617  104.2630 C   0  0  0  0  0  0  0  0  0  0  0  0
   15.3869   -6.8941  104.2114 C   0  0  0  0  0  0  0  0  0  0  0  0
   16.1446   -6.6169  103.0724 C   0  0  0  0  0  0  0  0  0  0  0  0
   16.2513   -4.6013   98.6402 O   0  0  0  0  0  0  0  0  0  0  0  0
   17.4585   -5.2836   98.2811 C   0  0  0  0  0  0  0  0  0  0  0  0
   13.8719   -3.8438   98.8602 O   0  0  0  0  0  0  0  0  0  0  0  0
   12.5767   -4.2774   98.3887 C   0  0  0  0  0  0  0  0  0  0  0  0
   11.7181   -3.0116   98.2890 C   0  0  0  0  0  0  0  0  0  0  0  0
   12.6615   -1.8510   97.9374 C   0  0  0  0  0  0  0  0  0  0  0  0
   12.0166   -0.5425   98.1220 N   0  0  0  0  0  0  0  0  0  0  0  0
   10.6519   -0.5439   97.5729 C   0  0  0  0  0  0  0  0  0  0  0  0
   10.0214    0.8408   97.7328 C   0  0  0  0  0  0  0  0  0  0  0  0
   10.8248    1.8087   97.0336 O   0  0  0  0  0  0  0  0  0  0  0  0
   12.1383    1.8595   97.6136 C   0  0  0  0  0  0  0  0  0  0  0  0
   12.8108    0.4963   97.4523 C   0  0  0  0  0  0  0  0  0  0  0  0
 28 27  2  0  0  0
 27 32  1  0  0  0
 27 37  1  0  0  0
 29 28  1  0  0  0
 39 28  1  0  0  0
 29 30  2  0  0  0
 33 30  1  0  0  0
 30 31  1  0  0  0
 31 36  1  0  0  0
 31 32  2  0  0  0
 34 33  2  0  0  0
 34 35  1  0  0  0
 35 36  2  0  0  0
 36 26  1  0  0  0
 37 38  1  0  0  0
 39 40  1  0  0  0
  1 26  1  0  0  0
  2  1  2  0  0  0
  1  6  1  0  0  0
  3  2  1  0  0  0
  3  4  2  0  0  0
  8  4  1  0  0  0
  4  5  1  0  0  0
  5  6  2  0  0  0
  6  7  1  0  0  0
  8  9  1  0  0  0
 40 41  1  0  0  0
 42 41  1  0  0  0
 43 42  1  0  0  0
 44 43  1  0  0  0
 43 48  1  0  0  0
 45 44  1  0  0  0
 45 46  1  0  0  0
 46 47  1  0  0  0
 47 48  1  0  0  0
 12  9  1  0  0  0
  9 10  2  0  0  0
 15 12  1  0  0  0
 12 13  1  0  0  0
 12 14  1  0  0  0
 16 15  1  0  0  0
 17 15  2  0  0  0
 19 16  1  0  0  0
 24 19  2  0  0  0
 20 19  1  0  0  0
 21 20  2  0  0  0
 22 21  1  0  0  0
 25 22  1  0  0  0
 22 23  2  0  0  0
 23 24  1  0  0  0
 13 14  1  0  0  0
  8 11  1  0  0  0
 16 18  1  0  0  0
M  END
> <minimizedAffinity>
-11.85818

$$$$
5IA4_88Z_A_1001


 48 53  0  0  0  0  0  0  0  0999 V2000
   18.4193   -7.4477  104.3734 C   0  0  0  0  0  0  0  0  0  0  0  0
   18.6814   -8.7990  104.5083 C   0  0  0  0  0  0  0  0  0  0  0  0
   19.3602   -9.2815  105.6206 C   0  0  0  0  0  0  0  0  0  0  0  0
   19.7813   -8.4317  106.6534 C   0  0  0  0  0  0  0  0  0  0  0  0
   19.5113   -7.0573  106.5159 C   0  0  0  0  0  0  0  0  0  0  0  0
   18.8273   -6.5769  105.3828 C   0  0  0  0  0  0  0  0  0  0  0  0
   18.5559   -5.2547  105.2159 F   0  0  0  0  0  0  0  0  0  0  0  0
   20.4354   -9.0307  107.6789 N   0  0  0  0  0  0  0  0  0  0  0  0
   21.7723   -8.9248  107.8847 C   0  0  0  0  0  0  0  0  0  0  0  0
   22.5353   -8.2360  107.2136 O   0  0  0  0  0  0  0  0  0  0  0  0
   19.9102   -9.5735  108.3104 H   0  0  0  0  0  0  0  0  0  0  0  0
   22.3349   -9.6993  109.0879 C   0  0  0  0  0  0  0  0  0  0  0  0
   23.4126  -10.7627  108.7652 C   0  0  0  0  0  0  0  0  0  0  0  0
   21.9951  -11.1967  109.1644 C   0  0  0  0  0  0  0  0  0  0  0  0
   22.4013   -8.9195  110.4258 C   0  0  0  0  0  0  0  0  0  0  0  0
   21.6176   -7.8068  110.4704 N   0  0  0  0  0  0  0  0  0  0  0  0
   23.1283   -9.3009  111.3613 O   0  0  0  0  0  0  0  0  0  0  0  0
   21.0750   -7.5538  109.6888 H   0  0  0  0  0  0  0  0  0  0  0  0
   21.5867   -7.0520  111.5875 C   0  0  0  0  0  0  0  0  0  0  0  0
   20.3868   -6.6597  112.1776 C   0  0  0  0  0  0  0  0  0  0  0  0
   20.3529   -5.8733  113.3218 C   0  0  0  0  0  0  0  0  0  0  0  0
   21.5438   -5.4948  113.9042 C   0  0  0  0  0  0  0  0  0  0  0  0
   22.7517   -5.9036  113.3409 C   0  0  0  0  0  0  0  0  0  0  0  0
   22.7817   -6.6784  112.1889 C   0  0  0  0  0  0  0  0  0  0  0  0
   21.5054   -4.7018  115.0566 F   0  0  0  0  0  0  0  0  0  0  0  0
   17.7682   -6.9036  103.2768 O   0  0  0  0  0  0  0  0  0  0  0  0
   15.7092   -5.0977  100.1818 C   0  0  0  0  0  0  0  0  0  0  0  0
   14.3528   -4.8441  100.3084 C   0  0  0  0  0  0  0  0  0  0  0  0
   13.6490   -5.1852  101.4572 C   0  0  0  0  0  0  0  0  0  0  0  0
   14.3571   -5.8016  102.4903 C   0  0  0  0  0  0  0  0  0  0  0  0
   15.7330   -6.0537  102.3823 C   0  0  0  0  0  0  0  0  0  0  0  0
   16.4284   -5.7103  101.2140 C   0  0  0  0  0  0  0  0  0  0  0  0
   13.6741   -6.1323  103.5912 N   0  0  0  0  0  0  0  0  0  0  0  0
   14.3410   -6.7430  104.6628 C   0  0  0  0  0  0  0  0  0  0  0  0
   15.7121   -7.0130  104.6005 C   0  0  0  0  0  0  0  0  0  0  0  0
   16.4191   -6.6620  103.4493 C   0  0  0  0  0  0  0  0  0  0  0  0
   16.2360   -4.7080   98.9920 O   0  0  0  0  0  0  0  0  0  0  0  0
   17.3966   -5.4044   98.5231 C   0  0  0  0  0  0  0  0  0  0  0  0
   13.7850   -4.2396   99.2312 O   0  0  0  0  0  0  0  0  0  0  0  0
   12.4073   -3.8424   99.4095 C   0  0  0  0  0  0  0  0  0  0  0  0
   12.1329   -2.7782   98.3412 C   0  0  0  0  0  0  0  0  0  0  0  0
   13.4344   -2.5875   97.5471 C   0  0  0  0  0  0  0  0  0  0  0  0
   13.9225   -1.2021   97.6153 N   0  0  0  0  0  0  0  0  0  0  0  0
   15.0879   -1.0959   98.5066 C   0  0  0  0  0  0  0  0  0  0  0  0
   15.5457    0.3610   98.5991 C   0  0  0  0  0  0  0  0  0  0  0  0
   14.4669    1.1629   99.1131 O   0  0  0  0  0  0  0  0  0  0  0  0
   13.3518    1.1142   98.2084 C   0  0  0  0  0  0  0  0  0  0  0  0
   12.8505   -0.3263   98.1073 C   0  0  0  0  0  0  0  0  0  0  0  0
 28 27  2  0  0  0
 27 32  1  0  0  0
 27 37  1  0  0  0
 29 28  1  0  0  0
 39 28  1  0  0  0
 29 30  2  0  0  0
 33 30  1  0  0  0
 30 31  1  0  0  0
 31 36  1  0  0  0
 31 32  2  0  0  0
 34 33  2  0  0  0
 34 35  1  0  0  0
 35 36  2  0  0  0
 36 26  1  0  0  0
 37 38  1  0  0  0
 39 40  1  0  0  0
  1 26  1  0  0  0
  2  1  2  0  0  0
  1  6  1  0  0  0
  3  2  1  0  0  0
  3  4  2  0  0  0
  8  4  1  0  0  0
  4  5  1  0  0  0
  5  6  2  0  0  0
  6  7  1  0  0  0
  8  9  1  0  0  0
 40 41  1  0  0  0
 42 41  1  0  0  0
 43 42  1  0  0  0
 44 43  1  0  0  0
 43 48  1  0  0  0
 45 44  1  0  0  0
 45 46  1  0  0  0
 46 47  1  0  0  0
 47 48  1  0  0  0
 12  9  1  0  0  0
  9 10  2  0  0  0
 15 12  1  0  0  0
 12 13  1  0  0  0
 12 14  1  0  0  0
 16 15  1  0  0  0
 17 15  2  0  0  0
 19 16  1  0  0  0
 24 19  2  0  0  0
 20 19  1  0  0  0
 21 20  2  0  0  0
 22 21  1  0  0  0
 25 22  1  0  0  0
 22 23  2  0  0  0
 23 24  1  0  0  0
 13 14  1  0  0  0
  8 11  1  0  0  0
 16 18  1  0  0  0
M  END
> <minimizedAffinity>
-11.83349

$$$$
5IA4_88Z_A_1001


 48 53  0  0  0  0  0  0  0  0999 V2000
   18.1019   -7.4055  104.0447 C   0  0  0  0  0  0  0  0  0  0  0  0
   18.4903   -6.4368  104.9524 C   0  0  0  0  0  0  0  0  0  0  0  0
   19.1557   -6.7868  106.1209 C   0  0  0  0  0  0  0  0  0  0  0  0
   19.4799   -8.1191  106.4140 C   0  0  0  0  0  0  0  0  0  0  0  0
   19.0865   -9.1033  105.4882 C   0  0  0  0  0  0  0  0  0  0  0  0
   18.4081   -8.7397  104.3090 C   0  0  0  0  0  0  0  0  0  0  0  0
   18.0087   -9.6658  103.3967 F   0  0  0  0  0  0  0  0  0  0  0  0
   20.1264   -8.3231  107.5883 N   0  0  0  0  0  0  0  0  0  0  0  0
   21.4621   -8.5405  107.6855 C   0  0  0  0  0  0  0  0  0  0  0  0
   22.2488   -8.5207  106.7433 O   0  0  0  0  0  0  0  0  0  0  0  0
   19.5963   -8.3128  108.4178 H   0  0  0  0  0  0  0  0  0  0  0  0
   22.0074   -8.7773  109.1035 C   0  0  0  0  0  0  0  0  0  0  0  0
   23.4186   -9.4081  109.1901 C   0  0  0  0  0  0  0  0  0  0  0  0
   22.1778  -10.2411  109.5415 C   0  0  0  0  0  0  0  0  0  0  0  0
   21.5512   -7.7639  110.1839 C   0  0  0  0  0  0  0  0  0  0  0  0
   22.1283   -7.9417  111.4044 N   0  0  0  0  0  0  0  0  0  0  0  0
   20.7170   -6.8766  109.9272 O   0  0  0  0  0  0  0  0  0  0  0  0
   22.7727   -8.6728  111.5437 H   0  0  0  0  0  0  0  0  0  0  0  0
   21.8149   -7.1140  112.4219 C   0  0  0  0  0  0  0  0  0  0  0  0
   20.4958   -6.8994  112.8166 C   0  0  0  0  0  0  0  0  0  0  0  0
   20.1705   -6.0390  113.8571 C   0  0  0  0  0  0  0  0  0  0  0  0
   21.1873   -5.4015  114.5355 C   0  0  0  0  0  0  0  0  0  0  0  0
   22.5133   -5.6284  114.1700 C   0  0  0  0  0  0  0  0  0  0  0  0
   22.8340   -6.4788  113.1202 C   0  0  0  0  0  0  0  0  0  0  0  0
   20.8552   -4.5347  115.5828 F   0  0  0  0  0  0  0  0  0  0  0  0
   17.4150   -7.1215  102.8744 O   0  0  0  0  0  0  0  0  0  0  0  0
   15.8097   -4.8086   99.8488 C   0  0  0  0  0  0  0  0  0  0  0  0
   14.5262   -4.3010   99.9728 C   0  0  0  0  0  0  0  0  0  0  0  0
   13.7465   -4.5503  101.0958 C   0  0  0  0  0  0  0  0  0  0  0  0
   14.3000   -5.3397  102.1053 C   0  0  0  0  0  0  0  0  0  0  0  0
   15.6025   -5.8504  102.0001 C   0  0  0  0  0  0  0  0  0  0  0  0
   16.3749   -5.5964  100.8577 C   0  0  0  0  0  0  0  0  0  0  0  0
   13.5436   -5.5807  103.1812 N   0  0  0  0  0  0  0  0  0  0  0  0
   14.0571   -6.3583  104.2289 C   0  0  0  0  0  0  0  0  0  0  0  0
   15.3505   -6.8876  104.1686 C   0  0  0  0  0  0  0  0  0  0  0  0
   16.1354   -6.6292  103.0437 C   0  0  0  0  0  0  0  0  0  0  0  0
   16.4263   -4.4753   98.6853 O   0  0  0  0  0  0  0  0  0  0  0  0
   17.5559   -5.2608   98.2871 C   0  0  0  0  0  0  0  0  0  0  0  0
   14.1089   -3.5486   98.9203 O   0  0  0  0  0  0  0  0  0  0  0  0
   13.0165   -4.1128   98.1613 C   0  0  0  0  0  0  0  0  0  0  0  0
   11.9052   -3.0573   98.1720 C   0  0  0  0  0  0  0  0  0  0  0  0
   10.8058   -3.5475   97.2172 C   0  0  0  0  0  0  0  0  0  0  0  0
   11.3056   -3.7208   95.8453 N   0  0  0  0  0  0  0  0  0  0  0  0
   11.1100   -2.4968   95.0532 C   0  0  0  0  0  0  0  0  0  0  0  0
   11.5922   -2.7187   93.6183 C   0  0  0  0  0  0  0  0  0  0  0  0
   10.8461   -3.8006   93.0317 O   0  0  0  0  0  0  0  0  0  0  0  0
   11.0901   -5.0121   93.7646 C   0  0  0  0  0  0  0  0  0  0  0  0
   10.5992   -4.8366   95.2015 C   0  0  0  0  0  0  0  0  0  0  0  0
 28 27  2  0  0  0
 27 32  1  0  0  0
 27 37  1  0  0  0
 29 28  1  0  0  0
 39 28  1  0  0  0
 29 30  2  0  0  0
 33 30  1  0  0  0
 30 31  1  0  0  0
 31 36  1  0  0  0
 31 32  2  0  0  0
 34 33  2  0  0  0
 34 35  1  0  0  0
 35 36  2  0  0  0
 36 26  1  0  0  0
 37 38  1  0  0  0
 39 40  1  0  0  0
  1 26  1  0  0  0
  2  1  2  0  0  0
  1  6  1  0  0  0
  3  2  1  0  0  0
  3  4  2  0  0  0
  8  4  1  0  0  0
  4  5  1  0  0  0
  5  6  2  0  0  0
  6  7  1  0  0  0
  8  9  1  0  0  0
 40 41  1  0  0  0
 42 41  1  0  0  0
 43 42  1  0  0  0
 44 43  1  0  0  0
 43 48  1  0  0  0
 45 44  1  0  0  0
 45 46  1  0  0  0
 46 47  1  0  0  0
 47 48  1  0  0  0
 12  9  1  0  0  0
  9 10  2  0  0  0
 15 12  1  0  0  0
 12 13  1  0  0  0
 12 14  1  0  0  0
 16 15  1  0  0  0
 17 15  2  0  0  0
 19 16  1  0  0  0
 24 19  2  0  0  0
 20 19  1  0  0  0
 21 20  2  0  0  0
 22 21  1  0  0  0
 25 22  1  0  0  0
 22 23  2  0  0  0
 23 24  1  0  0  0
 13 14  1  0  0  0
  8 11  1  0  0  0
 16 18  1  0  0  0
M  END
> <minimizedAffinity>
-11.31854

$$$$
5IA4_88Z_A_1001


 48 53  0  0  0  0  0  0  0  0999 V2000
   17.1540   -5.8172  103.5220 C   0  0  0  0  0  0  0  0  0  0  0  0
   18.3537   -5.2176  103.1840 C   0  0  0  0  0  0  0  0  0  0  0  0
   18.4591   -4.4408  102.0369 C   0  0  0  0  0  0  0  0  0  0  0  0
   17.3599   -4.2139  101.1964 C   0  0  0  0  0  0  0  0  0  0  0  0
   16.1392   -4.8223  101.5432 C   0  0  0  0  0  0  0  0  0  0  0  0
   16.0431   -5.6121  102.7050 C   0  0  0  0  0  0  0  0  0  0  0  0
   14.8807   -6.2190  103.0656 F   0  0  0  0  0  0  0  0  0  0  0  0
   17.6000   -3.4403  100.1090 N   0  0  0  0  0  0  0  0  0  0  0  0
   17.1177   -2.1812   99.9583 C   0  0  0  0  0  0  0  0  0  0  0  0
   16.4639   -1.5725  100.8003 O   0  0  0  0  0  0  0  0  0  0  0  0
   18.1561   -3.8137   99.3875 H   0  0  0  0  0  0  0  0  0  0  0  0
   17.4771   -1.4722   98.6421 C   0  0  0  0  0  0  0  0  0  0  0  0
   16.2842   -1.0749   97.7390 C   0  0  0  0  0  0  0  0  0  0  0  0
   17.1958   -2.2450   97.3432 C   0  0  0  0  0  0  0  0  0  0  0  0
   18.7455   -0.5820   98.6754 C   0  0  0  0  0  0  0  0  0  0  0  0
   19.0898   -0.1356   99.9150 N   0  0  0  0  0  0  0  0  0  0  0  0
   19.3714   -0.3088   97.6348 O   0  0  0  0  0  0  0  0  0  0  0  0
   18.5429   -0.3791  100.6965 H   0  0  0  0  0  0  0  0  0  0  0  0
   20.1815    0.6409  100.0694 C   0  0  0  0  0  0  0  0  0  0  0  0
   21.4628    0.1002  100.1566 C   0  0  0  0  0  0  0  0  0  0  0  0
   22.5871    0.8975  100.3267 C   0  0  0  0  0  0  0  0  0  0  0  0
   22.4297    2.2660  100.3824 C   0  0  0  0  0  0  0  0  0  0  0  0
   21.1568    2.8226  100.2682 C   0  0  0  0  0  0  0  0  0  0  0  0
   20.0335    2.0213  100.1120 C   0  0  0  0  0  0  0  0  0  0  0  0
   23.5651    3.0658  100.5546 F   0  0  0  0  0  0  0  0  0  0  0  0
   16.9926   -6.6222  104.6393 O   0  0  0  0  0  0  0  0  0  0  0  0
   20.0757   -7.5088  107.2447 C   0  0  0  0  0  0  0  0  0  0  0  0
   20.6807   -8.7548  107.2022 C   0  0  0  0  0  0  0  0  0  0  0  0
   20.2771   -9.7334  106.3017 C   0  0  0  0  0  0  0  0  0  0  0  0
   19.2294   -9.4212  105.4339 C   0  0  0  0  0  0  0  0  0  0  0  0
   18.6151   -8.1600  105.4562 C   0  0  0  0  0  0  0  0  0  0  0  0
   19.0283   -7.1849  106.3753 C   0  0  0  0  0  0  0  0  0  0  0  0
   18.8417  -10.3681  104.5731 N   0  0  0  0  0  0  0  0  0  0  0  0
   17.8013  -10.1010  103.6718 C   0  0  0  0  0  0  0  0  0  0  0  0
   17.1601   -8.8579  103.6569 C   0  0  0  0  0  0  0  0  0  0  0  0
   17.5724   -7.8733  104.5563 C   0  0  0  0  0  0  0  0  0  0  0  0
   20.5875   -6.6775  108.1892 O   0  0  0  0  0  0  0  0  0  0  0  0
   20.1082   -6.8265  109.5308 C   0  0  0  0  0  0  0  0  0  0  0  0
   21.6873   -8.9284  108.0993 O   0  0  0  0  0  0  0  0  0  0  0  0
   22.0227  -10.3050  108.3820 C   0  0  0  0  0  0  0  0  0  0  0  0
   22.6281  -10.3116  109.7901 C   0  0  0  0  0  0  0  0  0  0  0  0
   23.2727   -8.9347  110.0124 C   0  0  0  0  0  0  0  0  0  0  0  0
   23.5806   -8.6937  111.4298 N   0  0  0  0  0  0  0  0  0  0  0  0
   22.5092   -7.9231  112.0796 C   0  0  0  0  0  0  0  0  0  0  0  0
   22.8757   -7.6435  113.5384 C   0  0  0  0  0  0  0  0  0  0  0  0
   24.1051   -6.8965  113.5812 O   0  0  0  0  0  0  0  0  0  0  0  0
   25.1671   -7.6761  113.0079 C   0  0  0  0  0  0  0  0  0  0  0  0
   24.8470   -7.9571  111.5399 C   0  0  0  0  0  0  0  0  0  0  0  0
 28 27  2  0  0  0
 27 32  1  0  0  0
 27 37  1  0  0  0
 29 28  1  0  0  0
 39 28  1  0  0  0
 29 30  2  0  0  0
 33 30  1  0  0  0
 30 31  1  0  0  0
 31 36  1  0  0  0
 31 32  2  0  0  0
 34 33  2  0  0  0
 34 35  1  0  0  0
 35 36  2  0  0  0
 36 26  1  0  0  0
 37 38  1  0  0  0
 39 40  1  0  0  0
  1 26  1  0  0  0
  2  1  2  0  0  0
  1  6  1  0  0  0
  3  2  1  0  0  0
  3  4  2  0  0  0
  8  4  1  0  0  0
  4  5  1  0  0  0
  5  6  2  0  0  0
  6  7  1  0  0  0
  8  9  1  0  0  0
 40 41  1  0  0  0
 42 41  1  0  0  0
 43 42  1  0  0  0
 44 43  1  0  0  0
 43 48  1  0  0  0
 45 44  1  0  0  0
 45 46  1  0  0  0
 46 47  1  0  0  0
 47 48  1  0  0  0
 12  9  1  0  0  0
  9 10  2  0  0  0
 15 12  1  0  0  0
 12 13  1  0  0  0
 12 14  1  0  0  0
 16 15  1  0  0  0
 17 15  2  0  0  0
 19 16  1  0  0  0
 24 19  2  0  0  0
 20 19  1  0  0  0
 21 20  2  0  0  0
 22 21  1  0  0  0
 25 22  1  0  0  0
 22 23  2  0  0  0
 23 24  1  0  0  0
 13 14  1  0  0  0
  8 11  1  0  0  0
 16 18  1  0  0  0
M  END
> <minimizedAffinity>
-10.01654

$$$$
5IA4_88Z_A_1001


 48 53  0  0  0  0  0  0  0  0999 V2000
   17.3214   -5.9280  101.4375 C   0  0  0  0  0  0  0  0  0  0  0  0
   17.8849   -5.5010  100.2487 C   0  0  0  0  0  0  0  0  0  0  0  0
   17.0897   -4.9849   99.2329 C   0  0  0  0  0  0  0  0  0  0  0  0
   15.7012   -4.8534   99.3779 C   0  0  0  0  0  0  0  0  0  0  0  0
   15.1298   -5.2856  100.5892 C   0  0  0  0  0  0  0  0  0  0  0  0
   15.9430   -5.8121  101.6112 C   0  0  0  0  0  0  0  0  0  0  0  0
   15.4225   -6.2443  102.7909 F   0  0  0  0  0  0  0  0  0  0  0  0
   15.0438   -4.3383   98.3098 N   0  0  0  0  0  0  0  0  0  0  0  0
   13.7829   -3.8410   98.3688 C   0  0  0  0  0  0  0  0  0  0  0  0
   13.1126   -3.7419   99.3925 O   0  0  0  0  0  0  0  0  0  0  0  0
   15.5080   -4.3245   97.4417 H   0  0  0  0  0  0  0  0  0  0  0  0
   13.1967   -3.3248   97.0443 C   0  0  0  0  0  0  0  0  0  0  0  0
   12.1600   -4.2468   96.3575 C   0  0  0  0  0  0  0  0  0  0  0  0
   13.5726   -4.1041   95.7735 C   0  0  0  0  0  0  0  0  0  0  0  0
   13.0604   -1.7862   96.9166 C   0  0  0  0  0  0  0  0  0  0  0  0
   12.4657   -1.1816   97.9820 N   0  0  0  0  0  0  0  0  0  0  0  0
   13.4640   -1.1828   95.9055 O   0  0  0  0  0  0  0  0  0  0  0  0
   12.1574   -1.7202   98.7462 H   0  0  0  0  0  0  0  0  0  0  0  0
   12.3001    0.1568   97.9879 C   0  0  0  0  0  0  0  0  0  0  0  0
   13.3171    1.0225   98.3852 C   0  0  0  0  0  0  0  0  0  0  0  0
   13.1447    2.4004   98.4023 C   0  0  0  0  0  0  0  0  0  0  0  0
   11.9395    2.9251   97.9865 C   0  0  0  0  0  0  0  0  0  0  0  0
   10.9226    2.0725   97.5596 C   0  0  0  0  0  0  0  0  0  0  0  0
   11.0940    0.6945   97.5569 C   0  0  0  0  0  0  0  0  0  0  0  0
   11.7695    4.3140   98.0060 F   0  0  0  0  0  0  0  0  0  0  0  0
   18.0585   -6.4734  102.4775 O   0  0  0  0  0  0  0  0  0  0  0  0
   19.1552   -7.9474  106.1795 C   0  0  0  0  0  0  0  0  0  0  0  0
   19.6040   -7.0813  107.1637 C   0  0  0  0  0  0  0  0  0  0  0  0
   19.7033   -5.7126  106.9437 C   0  0  0  0  0  0  0  0  0  0  0  0
   19.3366   -5.2315  105.6858 C   0  0  0  0  0  0  0  0  0  0  0  0
   18.8685   -6.0940  104.6831 C   0  0  0  0  0  0  0  0  0  0  0  0
   18.7805   -7.4737  104.9173 C   0  0  0  0  0  0  0  0  0  0  0  0
   19.4390   -3.9146  105.4778 N   0  0  0  0  0  0  0  0  0  0  0  0
   19.0721   -3.3789  104.2351 C   0  0  0  0  0  0  0  0  0  0  0  0
   18.5991   -4.2000  103.2061 C   0  0  0  0  0  0  0  0  0  0  0  0
   18.4920   -5.5733  103.4315 C   0  0  0  0  0  0  0  0  0  0  0  0
   19.1286   -9.2510  106.5602 O   0  0  0  0  0  0  0  0  0  0  0  0
   19.6324  -10.2206  105.6339 C   0  0  0  0  0  0  0  0  0  0  0  0
   19.9274   -7.6784  108.3414 O   0  0  0  0  0  0  0  0  0  0  0  0
   21.3002   -8.1164  108.4473 C   0  0  0  0  0  0  0  0  0  0  0  0
   21.5557   -8.3478  109.9408 C   0  0  0  0  0  0  0  0  0  0  0  0
   20.9161   -7.1733  110.6970 C   0  0  0  0  0  0  0  0  0  0  0  0
   21.8393   -6.5814  111.6765 N   0  0  0  0  0  0  0  0  0  0  0  0
   23.0300   -7.4259  111.8575 C   0  0  0  0  0  0  0  0  0  0  0  0
   23.9501   -6.8145  112.9160 C   0  0  0  0  0  0  0  0  0  0  0  0
   23.2345   -6.7114  114.1604 O   0  0  0  0  0  0  0  0  0  0  0  0
   22.1093   -5.8322  114.0022 C   0  0  0  0  0  0  0  0  0  0  0  0
   21.1532   -6.4226  112.9659 C   0  0  0  0  0  0  0  0  0  0  0  0
 28 27  2  0  0  0
 27 32  1  0  0  0
 27 37  1  0  0  0
 29 28  1  0  0  0
 39 28  1  0  0  0
 29 30  2  0  0  0
 33 30  1  0  0  0
 30 31  1  0  0  0
 31 36  1  0  0  0
 31 32  2  0  0  0
 34 33  2  0  0  0
 34 35  1  0  0  0
 35 36  2  0  0  0
 36 26  1  0  0  0
 37 38  1  0  0  0
 39 40  1  0  0  0
  1 26  1  0  0  0
  2  1  2  0  0  0
  1  6  1  0  0  0
  3  2  1  0  0  0
  3  4  2  0  0  0
  8  4  1  0  0  0
  4  5  1  0  0  0
  5  6  2  0  0  0
  6  7  1  0  0  0
  8  9  1  0  0  0
 40 41  1  0  0  0
 42 41  1  0  0  0
 43 42  1  0  0  0
 44 43  1  0  0  0
 43 48  1  0  0  0
 45 44  1  0  0  0
 45 46  1  0  0  0
 46 47  1  0  0  0
 47 48  1  0  0  0
 12  9  1  0  0  0
  9 10  2  0  0  0
 15 12  1  0  0  0
 12 13  1  0  0  0
 12 14  1  0  0  0
 16 15  1  0  0  0
 17 15  2  0  0  0
 19 16  1  0  0  0
 24 19  2  0  0  0
 20 19  1  0  0  0
 21 20  2  0  0  0
 22 21  1  0  0  0
 25 22  1  0  0  0
 22 23  2  0  0  0
 23 24  1  0  0  0
 13 14  1  0  0  0
  8 11  1  0  0  0
 16 18  1  0  0  0
M  END
> <minimizedAffinity>
-10.01319

$$$$
5IA4_88Z_A_1001


 48 53  0  0  0  0  0  0  0  0999 V2000
   16.5509   -5.3467  103.1874 C   0  0  0  0  0  0  0  0  0  0  0  0
   16.9974   -4.5692  102.1342 C   0  0  0  0  0  0  0  0  0  0  0  0
   16.1266   -4.1743  101.1261 C   0  0  0  0  0  0  0  0  0  0  0  0
   14.7685   -4.5222  101.1466 C   0  0  0  0  0  0  0  0  0  0  0  0
   14.3150   -5.3110  102.2204 C   0  0  0  0  0  0  0  0  0  0  0  0
   15.2060   -5.7108  103.2349 C   0  0  0  0  0  0  0  0  0  0  0  0
   14.8020   -6.4778  104.2828 F   0  0  0  0  0  0  0  0  0  0  0  0
   14.0303   -4.0753  100.1008 N   0  0  0  0  0  0  0  0  0  0  0  0
   14.4558   -4.0996   98.8127 C   0  0  0  0  0  0  0  0  0  0  0  0
   15.5211   -4.5766   98.4323 O   0  0  0  0  0  0  0  0  0  0  0  0
   13.1342   -3.7123  100.2867 H   0  0  0  0  0  0  0  0  0  0  0  0
   13.4852   -3.5232   97.7687 C   0  0  0  0  0  0  0  0  0  0  0  0
   12.6237   -4.5559   97.0019 C   0  0  0  0  0  0  0  0  0  0  0  0
   13.7864   -3.8442   96.2957 C   0  0  0  0  0  0  0  0  0  0  0  0
   12.9050   -2.1208   98.0831 C   0  0  0  0  0  0  0  0  0  0  0  0
   13.5031   -1.0986   97.4110 N   0  0  0  0  0  0  0  0  0  0  0  0
   11.9735   -1.9734   98.8954 O   0  0  0  0  0  0  0  0  0  0  0  0
   14.2450   -1.2833   96.7906 H   0  0  0  0  0  0  0  0  0  0  0  0
   13.0769    0.1672   97.5970 C   0  0  0  0  0  0  0  0  0  0  0  0
   13.6853    1.0212   98.5148 C   0  0  0  0  0  0  0  0  0  0  0  0
   13.2408    2.3216   98.7156 C   0  0  0  0  0  0  0  0  0  0  0  0
   12.1838    2.7868   97.9626 C   0  0  0  0  0  0  0  0  0  0  0  0
   11.5836    1.9528   97.0206 C   0  0  0  0  0  0  0  0  0  0  0  0
   12.0220    0.6487   96.8324 C   0  0  0  0  0  0  0  0  0  0  0  0
   11.7385    4.0975   98.1686 F   0  0  0  0  0  0  0  0  0  0  0  0
   17.3756   -5.7917  104.2092 O   0  0  0  0  0  0  0  0  0  0  0  0
   20.0331   -7.2022  107.0427 C   0  0  0  0  0  0  0  0  0  0  0  0
   20.5315   -8.4914  106.9426 C   0  0  0  0  0  0  0  0  0  0  0  0
   20.1593   -9.3411  105.9077 C   0  0  0  0  0  0  0  0  0  0  0  0
   19.2550   -8.8525  104.9632 C   0  0  0  0  0  0  0  0  0  0  0  0
   18.7511   -7.5456  105.0439 C   0  0  0  0  0  0  0  0  0  0  0  0
   19.1303   -6.7020  106.0979 C   0  0  0  0  0  0  0  0  0  0  0  0
   18.8963   -9.6759  103.9726 N   0  0  0  0  0  0  0  0  0  0  0  0
   17.9996   -9.2298  102.9914 C   0  0  0  0  0  0  0  0  0  0  0  0
   17.4721   -7.9348  103.0304 C   0  0  0  0  0  0  0  0  0  0  0  0
   17.8535   -7.0799  104.0657 C   0  0  0  0  0  0  0  0  0  0  0  0
   20.4945   -6.5129  108.1183 O   0  0  0  0  0  0  0  0  0  0  0  0
   19.7864   -6.6649  109.3542 C   0  0  0  0  0  0  0  0  0  0  0  0
   21.4032   -8.8412  107.9253 O   0  0  0  0  0  0  0  0  0  0  0  0
   21.3676  -10.2347  108.3056 C   0  0  0  0  0  0  0  0  0  0  0  0
   22.5291  -10.4349  109.2854 C   0  0  0  0  0  0  0  0  0  0  0  0
   23.0927   -9.0429  109.6101 C   0  0  0  0  0  0  0  0  0  0  0  0
   23.0568   -8.7574  111.0520 N   0  0  0  0  0  0  0  0  0  0  0  0
   22.0704   -7.7101  111.3587 C   0  0  0  0  0  0  0  0  0  0  0  0
   22.0872   -7.3968  112.8562 C   0  0  0  0  0  0  0  0  0  0  0  0
   23.4028   -6.9486  113.2297 O   0  0  0  0  0  0  0  0  0  0  0  0
   24.3577   -7.9959  112.9939 C   0  0  0  0  0  0  0  0  0  0  0  0
   24.3862   -8.3218  111.5007 C   0  0  0  0  0  0  0  0  0  0  0  0
 28 27  2  0  0  0
 27 32  1  0  0  0
 27 37  1  0  0  0
 29 28  1  0  0  0
 39 28  1  0  0  0
 29 30  2  0  0  0
 33 30  1  0  0  0
 30 31  1  0  0  0
 31 36  1  0  0  0
 31 32  2  0  0  0
 34 33  2  0  0  0
 34 35  1  0  0  0
 35 36  2  0  0  0
 36 26  1  0  0  0
 37 38  1  0  0  0
 39 40  1  0  0  0
  1 26  1  0  0  0
  2  1  2  0  0  0
  1  6  1  0  0  0
  3  2  1  0  0  0
  3  4  2  0  0  0
  8  4  1  0  0  0
  4  5  1  0  0  0
  5  6  2  0  0  0
  6  7  1  0  0  0
  8  9  1  0  0  0
 40 41  1  0  0  0
 42 41  1  0  0  0
 43 42  1  0  0  0
 44 43  1  0  0  0
 43 48  1  0  0  0
 45 44  1  0  0  0
 45 46  1  0  0  0
 46 47  1  0  0  0
 47 48  1  0  0  0
 12  9  1  0  0  0
  9 10  2  0  0  0
 15 12  1  0  0  0
 12 13  1  0  0  0
 12 14  1  0  0  0
 16 15  1  0  0  0
 17 15  2  0  0  0
 19 16  1  0  0  0
 24 19  2  0  0  0
 20 19  1  0  0  0
 21 20  2  0  0  0
 22 21  1  0  0  0
 25 22  1  0  0  0
 22 23  2  0  0  0
 23 24  1  0  0  0
 13 14  1  0  0  0
  8 11  1  0  0  0
 16 18  1  0  0  0
M  END
> <minimizedAffinity>
-9.84535

$$$$
5IA4_88Z_A_1001


 48 53  0  0  0  0  0  0  0  0999 V2000
   17.5620   -5.6529  103.7781 C   0  0  0  0  0  0  0  0  0  0  0  0
   18.8247   -5.1719  103.4827 C   0  0  0  0  0  0  0  0  0  0  0  0
   19.0337   -4.3670  102.3696 C   0  0  0  0  0  0  0  0  0  0  0  0
   17.9811   -3.9920  101.5226 C   0  0  0  0  0  0  0  0  0  0  0  0
   16.6964   -4.4799  101.8261 C   0  0  0  0  0  0  0  0  0  0  0  0
   16.4949   -5.2993  102.9535 C   0  0  0  0  0  0  0  0  0  0  0  0
   15.2681   -5.7923  103.2717 F   0  0  0  0  0  0  0  0  0  0  0  0
   18.3225   -3.2070  100.4711 N   0  0  0  0  0  0  0  0  0  0  0  0
   18.8313   -1.9557  100.5984 C   0  0  0  0  0  0  0  0  0  0  0  0
   19.0978   -1.4095  101.6650 O   0  0  0  0  0  0  0  0  0  0  0  0
   18.1938   -3.5655   99.5632 H   0  0  0  0  0  0  0  0  0  0  0  0
   19.1322   -1.2113   99.2871 C   0  0  0  0  0  0  0  0  0  0  0  0
   18.4479    0.1671   99.1183 C   0  0  0  0  0  0  0  0  0  0  0  0
   17.9608   -1.0412   98.3061 C   0  0  0  0  0  0  0  0  0  0  0  0
   20.5367   -1.4516   98.6773 C   0  0  0  0  0  0  0  0  0  0  0  0
   21.5422   -1.5371   99.5917 N   0  0  0  0  0  0  0  0  0  0  0  0
   20.7002   -1.5457   97.4470 O   0  0  0  0  0  0  0  0  0  0  0  0
   21.3457   -1.4411  100.5516 H   0  0  0  0  0  0  0  0  0  0  0  0
   22.8078   -1.7537   99.1793 C   0  0  0  0  0  0  0  0  0  0  0  0
   23.3681   -3.0295   99.1620 C   0  0  0  0  0  0  0  0  0  0  0  0
   24.6747   -3.2529   98.7480 C   0  0  0  0  0  0  0  0  0  0  0  0
   25.4276   -2.1821   98.3155 C   0  0  0  0  0  0  0  0  0  0  0  0
   24.8709   -0.9042   98.3005 C   0  0  0  0  0  0  0  0  0  0  0  0
   23.5685   -0.6826   98.7283 C   0  0  0  0  0  0  0  0  0  0  0  0
   26.7442   -2.4114   97.8998 F   0  0  0  0  0  0  0  0  0  0  0  0
   17.2948   -6.4786  104.8594 O   0  0  0  0  0  0  0  0  0  0  0  0
   20.1173   -7.6443  107.6441 C   0  0  0  0  0  0  0  0  0  0  0  0
   20.6514   -8.9221  107.5946 C   0  0  0  0  0  0  0  0  0  0  0  0
   20.2613   -9.8409  106.6276 C   0  0  0  0  0  0  0  0  0  0  0  0
   19.3015   -9.4345  105.6992 C   0  0  0  0  0  0  0  0  0  0  0  0
   18.7605   -8.1403  105.7285 C   0  0  0  0  0  0  0  0  0  0  0  0
   19.1586   -7.2263  106.7146 C   0  0  0  0  0  0  0  0  0  0  0  0
   18.9260  -10.3241  104.7742 N   0  0  0  0  0  0  0  0  0  0  0  0
   17.9734   -9.9619  103.8112 C   0  0  0  0  0  0  0  0  0  0  0  0
   17.4074   -8.6828  103.8007 C   0  0  0  0  0  0  0  0  0  0  0  0
   17.8066   -7.7585  104.7675 C   0  0  0  0  0  0  0  0  0  0  0  0
   20.6033   -6.8806  108.6568 O   0  0  0  0  0  0  0  0  0  0  0  0
   19.9105   -6.9254  109.9097 C   0  0  0  0  0  0  0  0  0  0  0  0
   21.5760   -9.1888  108.5549 O   0  0  0  0  0  0  0  0  0  0  0  0
   22.9467   -9.1954  108.0979 C   0  0  0  0  0  0  0  0  0  0  0  0
   23.8111   -9.0321  109.3530 C   0  0  0  0  0  0  0  0  0  0  0  0
   22.8674   -9.0927  110.5639 C   0  0  0  0  0  0  0  0  0  0  0  0
   23.4523   -8.4500  111.7501 N   0  0  0  0  0  0  0  0  0  0  0  0
   22.6739   -7.2669  112.1478 C   0  0  0  0  0  0  0  0  0  0  0  0
   23.3297   -6.5888  113.3523 C   0  0  0  0  0  0  0  0  0  0  0  0
   24.6680   -6.1933  113.0002 O   0  0  0  0  0  0  0  0  0  0  0  0
   25.4486   -7.3554  112.6771 C   0  0  0  0  0  0  0  0  0  0  0  0
   24.8357   -8.0490  111.4606 C   0  0  0  0  0  0  0  0  0  0  0  0
 28 27  2  0  0  0
 27 32  1  0  0  0
 27 37  1  0  0  0
 29 28  1  0  0  0
 39 28  1  0  0  0
 29 30  2  0  0  0
 33 30  1  0  0  0
 30 31  1  0  0  0
 31 36  1  0  0  0
 31 32  2  0  0  0
 34 33  2  0  0  0
 34 35  1  0  0  0
 35 36  2  0  0  0
 36 26  1  0  0  0
 37 38  1  0  0  0
 39 40  1  0  0  0
  1 26  1  0  0  0
  2  1  2  0  0  0
  1  6  1  0  0  0
  3  2  1  0  0  0
  3  4  2  0  0  0
  8  4  1  0  0  0
  4  5  1  0  0  0
  5  6  2  0  0  0
  6  7  1  0  0  0
  8  9  1  0  0  0
 40 41  1  0  0  0
 42 41  1  0  0  0
 43 42  1  0  0  0
 44 43  1  0  0  0
 43 48  1  0  0  0
 45 44  1  0  0  0
 45 46  1  0  0  0
 46 47  1  0  0  0
 47 48  1  0  0  0
 12  9  1  0  0  0
  9 10  2  0  0  0
 15 12  1  0  0  0
 12 13  1  0  0  0
 12 14  1  0  0  0
 16 15  1  0  0  0
 17 15  2  0  0  0
 19 16  1  0  0  0
 24 19  2  0  0  0
 20 19  1  0  0  0
 21 20  2  0  0  0
 22 21  1  0  0  0
 25 22  1  0  0  0
 22 23  2  0  0  0
 23 24  1  0  0  0
 13 14  1  0  0  0
  8 11  1  0  0  0
 16 18  1  0  0  0
M  END
> <minimizedAffinity>
-9.63837

$$$$
5IA4_88Z_A_1001


 48 53  0  0  0  0  0  0  0  0999 V2000
   15.8872   -5.0113   99.6091 C   0  0  0  0  0  0  0  0  0  0  0  0
   15.9132   -4.5513   98.3050 C   0  0  0  0  0  0  0  0  0  0  0  0
   14.7715   -4.0194   97.7184 C   0  0  0  0  0  0  0  0  0  0  0  0
   13.5651   -3.9047   98.4238 C   0  0  0  0  0  0  0  0  0  0  0  0
   13.5410   -4.3706   99.7516 C   0  0  0  0  0  0  0  0  0  0  0  0
   14.7016   -4.9128  100.3361 C   0  0  0  0  0  0  0  0  0  0  0  0
   14.7110   -5.3774  101.6142 F   0  0  0  0  0  0  0  0  0  0  0  0
   12.5275   -3.3713   97.7330 N   0  0  0  0  0  0  0  0  0  0  0  0
   11.6436   -4.1069   97.0129 C   0  0  0  0  0  0  0  0  0  0  0  0
   11.6375   -5.3327   96.9466 O   0  0  0  0  0  0  0  0  0  0  0  0
   12.4087   -2.3942   97.7551 H   0  0  0  0  0  0  0  0  0  0  0  0
   10.5491   -3.3178   96.2758 C   0  0  0  0  0  0  0  0  0  0  0  0
    9.1495   -3.9781   96.2342 C   0  0  0  0  0  0  0  0  0  0  0  0
   10.0183   -3.9303   94.9694 C   0  0  0  0  0  0  0  0  0  0  0  0
   10.6687   -1.7736   96.3360 C   0  0  0  0  0  0  0  0  0  0  0  0
   10.7230   -1.2601   97.5961 N   0  0  0  0  0  0  0  0  0  0  0  0
   10.7012   -1.0865   95.2987 O   0  0  0  0  0  0  0  0  0  0  0  0
   10.6797   -1.8599   98.3756 H   0  0  0  0  0  0  0  0  0  0  0  0
   10.8363    0.0719   97.7737 C   0  0  0  0  0  0  0  0  0  0  0  0
   12.0724    0.7148   97.7516 C   0  0  0  0  0  0  0  0  0  0  0  0
   12.1920    2.0848   97.9452 C   0  0  0  0  0  0  0  0  0  0  0  0
   11.0492    2.8317   98.1368 C   0  0  0  0  0  0  0  0  0  0  0  0
    9.8035    2.2060   98.1332 C   0  0  0  0  0  0  0  0  0  0  0  0
    9.6889    0.8339   97.9530 C   0  0  0  0  0  0  0  0  0  0  0  0
   11.1741    4.2118   98.3323 F   0  0  0  0  0  0  0  0  0  0  0  0
   16.9858   -5.5737  100.2408 O   0  0  0  0  0  0  0  0  0  0  0  0
   17.6465   -6.5165  104.2101 C   0  0  0  0  0  0  0  0  0  0  0  0
   18.4090   -5.6742  105.0035 C   0  0  0  0  0  0  0  0  0  0  0  0
   18.9712   -4.5067  104.5012 C   0  0  0  0  0  0  0  0  0  0  0  0
   18.7454   -4.2065  103.1569 C   0  0  0  0  0  0  0  0  0  0  0  0
   17.9655   -5.0426  102.3439 C   0  0  0  0  0  0  0  0  0  0  0  0
   17.4104   -6.2211  102.8629 C   0  0  0  0  0  0  0  0  0  0  0  0
   19.2929   -3.0847  102.6775 N   0  0  0  0  0  0  0  0  0  0  0  0
   19.0866   -2.7314  101.3364 C   0  0  0  0  0  0  0  0  0  0  0  0
   18.3156   -3.5336  100.4887 C   0  0  0  0  0  0  0  0  0  0  0  0
   17.7446   -4.7015  100.9970 C   0  0  0  0  0  0  0  0  0  0  0  0
   17.1815   -7.6159  104.8581 O   0  0  0  0  0  0  0  0  0  0  0  0
   17.6533   -8.8936  104.4146 C   0  0  0  0  0  0  0  0  0  0  0  0
   18.5505   -6.0822  106.2926 O   0  0  0  0  0  0  0  0  0  0  0  0
   19.9132   -6.3117  106.7144 C   0  0  0  0  0  0  0  0  0  0  0  0
   19.9717   -7.7713  107.1782 C   0  0  0  0  0  0  0  0  0  0  0  0
   21.3109   -8.3474  106.6932 C   0  0  0  0  0  0  0  0  0  0  0  0
   22.1294   -8.8496  107.8066 N   0  0  0  0  0  0  0  0  0  0  0  0
   22.1245  -10.3201  107.8445 C   0  0  0  0  0  0  0  0  0  0  0  0
   22.9415  -10.8162  109.0391 C   0  0  0  0  0  0  0  0  0  0  0  0
   22.3662  -10.2976  110.2522 O   0  0  0  0  0  0  0  0  0  0  0  0
   22.4325   -8.8624  110.2461 C   0  0  0  0  0  0  0  0  0  0  0  0
   21.6067   -8.3271  109.0764 C   0  0  0  0  0  0  0  0  0  0  0  0
 28 27  2  0  0  0
 27 32  1  0  0  0
 27 37  1  0  0  0
 29 28  1  0  0  0
 39 28  1  0  0  0
 29 30  2  0  0  0
 33 30  1  0  0  0
 30 31  1  0  0  0
 31 36  1  0  0  0
 31 32  2  0  0  0
 34 33  2  0  0  0
 34 35  1  0  0  0
 35 36  2  0  0  0
 36 26  1  0  0  0
 37 38  1  0  0  0
 39 40  1  0  0  0
  1 26  1  0  0  0
  2  1  2  0  0  0
  1  6  1  0  0  0
  3  2  1  0  0  0
  3  4  2  0  0  0
  8  4  1  0  0  0
  4  5  1  0  0  0
  5  6  2  0  0  0
  6  7  1  0  0  0
  8  9  1  0  0  0
 40 41  1  0  0  0
 42 41  1  0  0  0
 43 42  1  0  0  0
 44 43  1  0  0  0
 43 48  1  0  0  0
 45 44  1  0  0  0
 45 46  1  0  0  0
 46 47  1  0  0  0
 47 48  1  0  0  0
 12  9  1  0  0  0
  9 10  2  0  0  0
 15 12  1  0  0  0
 12 13  1  0  0  0
 12 14  1  0  0  0
 16 15  1  0  0  0
 17 15  2  0  0  0
 19 16  1  0  0  0
 24 19  2  0  0  0
 20 19  1  0  0  0
 21 20  2  0  0  0
 22 21  1  0  0  0
 25 22  1  0  0  0
 22 23  2  0  0  0
 23 24  1  0  0  0
 13 14  1  0  0  0
  8 11  1  0  0  0
 16 18  1  0  0  0
M  END
> <minimizedAffinity>
-9.52251

$$$$
