5IA4_88Z_A_1001
  RCSB PDB12061718083D
Coordinates from PDB:5IA4:A:1001 Model:1 without hydrogens
 46 51  0  0  0  0            999 V2000
   15.1840   -4.9890   99.9780   C 0  0  0  0  0  0  0  0  0  0  0  0
   13.8280   -4.7680  100.1590   C 0  0  0  0  0  0  0  0  0  0  0  0
   13.1680   -5.1760  101.3120   C 0  0  0  0  0  0  0  0  0  0  0  0
   13.9200   -5.8260  102.2920   C 0  0  0  0  0  0  0  0  0  0  0  0
   15.2960   -6.0460  102.1290   C 0  0  0  0  0  0  0  0  0  0  0  0
   15.9470   -5.6350  100.9570   C 0  0  0  0  0  0  0  0  0  0  0  0
   13.2790   -6.2210  103.3970   N 0  0  0  0  0  0  0  0  0  0  0  0
   13.9910   -6.8680  104.4170   C 0  0  0  0  0  0  0  0  0  0  0  0
   15.3640   -7.1080  104.2990   C 0  0  0  0  0  0  0  0  0  0  0  0
   16.0270   -6.6900  103.1440   C 0  0  0  0  0  0  0  0  0  0  0  0
   15.6650   -4.5340   98.7920   O 0  0  0  0  0  0  0  0  0  0  0  0
   17.0460   -4.7790   98.5010   C 0  0  0  0  0  0  0  0  0  0  0  0
   13.2150   -4.1250   99.1300   O 0  0  0  0  0  0  0  0  0  0  0  0
   17.3740   -6.8970  102.9180   O 0  0  0  0  0  0  0  0  0  0  0  0
   18.1430   -7.0980  104.0540   C 0  0  0  0  0  0  0  0  0  0  0  0
   18.4610   -6.0890  104.9450   C 0  0  0  0  0  0  0  0  0  0  0  0
   19.2160   -6.3580  106.0800   C 0  0  0  0  0  0  0  0  0  0  0  0
   19.7030   -7.6440  106.3540   C 0  0  0  0  0  0  0  0  0  0  0  0
   19.3810   -8.6690  105.4450   C 0  0  0  0  0  0  0  0  0  0  0  0
   18.6110   -8.3880  104.3000   C 0  0  0  0  0  0  0  0  0  0  0  0
   18.2770   -9.3560  103.4050   F 0  0  0  0  0  0  0  0  0  0  0  0
   20.4230   -7.7700  107.4960   N 0  0  0  0  0  0  0  0  0  0  0  0
   11.7850   -3.9730   99.2700   C 0  0  0  0  0  0  0  0  0  0  0  0
   11.2880   -3.4050   97.9360   C 0  0  0  0  0  0  0  0  0  0  0  0
   11.7340   -1.9360   97.8750   C 0  0  0  0  0  0  0  0  0  0  0  0
   11.2500   -1.2640   96.6600   N 0  0  0  0  0  0  0  0  0  0  0  0
   12.1370   -1.5340   95.5180   C 0  0  0  0  0  0  0  0  0  0  0  0
   11.6400   -0.7850   94.2800   C 0  0  0  0  0  0  0  0  0  0  0  0
   11.6230    0.6270   94.5580   O 0  0  0  0  0  0  0  0  0  0  0  0
   10.7050    0.9000   95.6290   C 0  0  0  0  0  0  0  0  0  0  0  0
   11.1820    0.1850   96.8930   C 0  0  0  0  0  0  0  0  0  0  0  0
   21.3530   -8.7370  107.6980   C 0  0  0  0  0  0  0  0  0  0  0  0
   22.0470   -8.7320  109.0700   C 0  0  0  0  0  0  0  0  0  0  0  0
   21.5380   -7.6760  110.0840   C 0  0  0  0  0  0  0  0  0  0  0  0
   22.0980   -7.7660  111.3220   N 0  0  0  0  0  0  0  0  0  0  0  0
   21.6960   -9.5690  106.8630   O 0  0  0  0  0  0  0  0  0  0  0  0
   20.6800   -6.8330  109.7640   O 0  0  0  0  0  0  0  0  0  0  0  0
   21.7390   -6.8940  112.2860   C 0  0  0  0  0  0  0  0  0  0  0  0
   20.4040   -6.5840  112.5380   C 0  0  0  0  0  0  0  0  0  0  0  0
   20.0330   -5.6780  113.5230   C 0  0  0  0  0  0  0  0  0  0  0  0
   21.0160   -5.0910  114.2910   C 0  0  0  0  0  0  0  0  0  0  0  0
   22.3540   -5.4130  114.0690   C 0  0  0  0  0  0  0  0  0  0  0  0
   22.7220   -6.3090  113.0740   C 0  0  0  0  0  0  0  0  0  0  0  0
   20.6380   -4.1780  115.2820   F 0  0  0  0  0  0  0  0  0  0  0  0
   23.5390   -9.1450  109.0760   C 0  0  0  0  0  0  0  0  0  0  0  0
   22.4720  -10.0980  109.6330   C 0  0  0  0  0  0  0  0  0  0  0  0
  2  1  2  0  0  0  0
  1  6  1  0  0  0  0
  1 11  1  0  0  0  0
  3  2  1  0  0  0  0
 13  2  1  0  0  0  0
  3  4  2  0  0  0  0
  7  4  1  0  0  0  0
  4  5  1  0  0  0  0
  5 10  1  0  0  0  0
  5  6  2  0  0  0  0
  8  7  2  0  0  0  0
  8  9  1  0  0  0  0
  9 10  2  0  0  0  0
 10 14  1  0  0  0  0
 11 12  1  0  0  0  0
 13 23  1  0  0  0  0
 15 14  1  0  0  0  0
 16 15  2  0  0  0  0
 15 20  1  0  0  0  0
 17 16  1  0  0  0  0
 17 18  2  0  0  0  0
 22 18  1  0  0  0  0
 18 19  1  0  0  0  0
 19 20  2  0  0  0  0
 20 21  1  0  0  0  0
 22 32  1  0  0  0  0
 23 24  1  0  0  0  0
 25 24  1  0  0  0  0
 26 25  1  0  0  0  0
 27 26  1  0  0  0  0
 26 31  1  0  0  0  0
 28 27  1  0  0  0  0
 28 29  1  0  0  0  0
 29 30  1  0  0  0  0
 30 31  1  0  0  0  0
 33 32  1  0  0  0  0
 32 36  2  0  0  0  0
 34 33  1  0  0  0  0
 33 45  1  0  0  0  0
 33 46  1  0  0  0  0
 35 34  1  0  0  0  0
 37 34  2  0  0  0  0
 38 35  1  0  0  0  0
 43 38  2  0  0  0  0
 39 38  1  0  0  0  0
 40 39  2  0  0  0  0
 41 40  1  0  0  0  0
 44 41  1  0  0  0  0
 41 42  2  0  0  0  0
 42 43  1  0  0  0  0
 45 46  1  0  0  0  0
A    1
C1
A    2
C2
A    3
C3
A    4
C4
A    5
C5
A    6
C6
A    7
N7
A    8
C8
A    9
C9
A   10
C10
A   11
O11
A   12
C12
A   13
O13
A   14
O14
A   15
C15
A   16
C16
A   17
C17
A   18
C18
A   19
C19
A   20
C20
A   21
F21
A   22
N22
A   23
C23
A   24
C24
A   25
C25
A   26
N26
A   27
C27
A   28
C28
A   29
O29
A   30
C30
A   31
C31
A   32
C32
A   33
C33
A   34
C34
A   35
N35
A   36
O36
A   37
O37
A   38
C38
A   39
C39
A   40
C40
A   41
C41
A   42
C42
A   43
C43
A   44
F44
A   45
C45
A   46
C46
M  END
>  <InstanceId>
5IA4_88Z_A_1001

>  <ChemCompId>
88Z

>  <PdbId>
5IA4

>  <ChainId>
A

>  <ResidueNumber>
1001

>  <InsertionCode>


>  <Model>
1

>  <AltIds>


>  <MissingHeavyAtoms>
0

>  <ObservedFormula>
C34 N4 O6 F2

>  <Name>
N-(3-fluoro-4-{[6-methoxy-7-(3-morpholin-4-ylpropoxy)quinolin-4-yl]oxy}phenyl)-N'-(4-fluorophenyl)cyclopropane-1,1-dicarboxamide

>  <SystematicName>
N1-[3-fluoro-4-[6-methoxy-7-(3-morpholin-4-ylpropoxy)quinolin-4-yl]oxy-phenyl]-N1'-(4-fluorophenyl)cyclopropane-1,1-dicarboxamide

>  <Synonyms>


>  <Type>
NON-POLYMER

>  <Formula>
C34 H34 F2 N4 O6

>  <MolecularWeight>
632.654

>  <ModifiedDate>
2011-06-04

>  <Parent>


>  <OneLetterCode>


>  <SubcomponentList>


>  <AmbiguousFlag>
N

>  <InChI>
InChI=1S/C34H34F2N4O6/c1-43-30-20-25-27(21-31(30)45-16-2-13-40-14-17-44-18-15-40)37-12-9-28(25)46-29-8-7-24(19-26(29)36)39-33(42)34(10-11-34)32(41)38-23-5-3-22(35)4-6-23/h3-9,12,19-21H,2,10-11,13-18H2,1H3,(H,38,41)(H,39,42)

>  <InChIKey>
CXQHYVUVSFXTMY-UHFFFAOYSA-N

>  <SMILES>
COc1cc2c(ccnc2cc1OCCCN3CCOCC3)Oc4ccc(cc4F)NC(=O)C5(CC5)C(=O)Nc6ccc(cc6)F

$$$$
