3GDT_UP6_A_301


 26 27  0  0  0  0  0  0  0  0999 V2000
   55.9468   54.3552   22.7343 C   0  0  0  0  0  0  0  0  0  0  0  0
   55.9462   55.6290   23.5774 C   0  0  0  0  0  0  0  0  0  0  0  0
   56.0920   56.6886   22.5117 C   0  0  0  0  0  0  0  0  0  0  0  0
   57.0169   56.0170   21.4922 C   0  0  0  0  0  0  0  0  0  0  0  0
   54.7157   55.7745   24.3057 O   0  0  0  0  0  0  0  0  0  0  0  0
   54.8387   56.9686   21.8922 O   0  0  0  0  0  0  0  0  0  0  0  0
   56.8107   54.6023   21.6393 O   0  0  0  0  0  0  0  0  0  0  0  0
   53.9693   55.7561   23.6864 H   0  0  0  0  0  0  0  0  0  0  0  0
   54.4696   56.1502   21.5250 H   0  0  0  0  0  0  0  0  0  0  0  0
   56.3064   53.0882   23.3374 N   0  0  0  0  0  0  0  0  0  0  0  0
   55.4092   52.4051   24.1731 C   0  0  0  0  0  0  0  0  0  0  0  0
   55.9575   51.2955   24.7912 N   0  0  0  0  0  0  0  0  0  0  0  0
   57.2154   50.7406   24.5170 C   0  0  0  0  0  0  0  0  0  0  0  0
   58.0412   51.4567   23.5827 C   0  0  0  0  0  0  0  0  0  0  0  0
   57.5884   52.5823   23.0354 N   0  0  0  0  0  0  0  0  0  0  0  0
   54.2749   52.7380   24.3346 O   0  0  0  0  0  0  0  0  0  0  0  0
   57.5177   49.7144   25.0799 O   0  0  0  0  0  0  0  0  0  0  0  0
   55.4158   50.8561   25.4859 H   0  0  0  0  0  0  0  0  0  0  0  0
   58.5035   56.2691   21.6280 C   0  0  0  0  0  0  0  0  0  0  0  0
   59.1132   55.5322   20.5758 O   0  0  0  0  0  0  0  0  0  0  0  0
   59.9611   54.1862   20.8768 P   0  0  0  0  0  0  0  0  0  0  0  0
   61.1745   54.1485   19.9867 O   0  0  0  0  0  0  0  0  0  0  0  0
   58.9655   53.0989   20.6047 O   0  0  0  0  0  0  0  0  0  0  0  0
   60.3131   54.2113   22.4334 O   0  0  0  0  0  0  0  0  0  0  0  0
   58.7526   53.0849   19.6585 H   0  0  0  0  0  0  0  0  0  0  0  0
   60.9573   54.9152   22.6079 H   0  0  0  0  0  0  0  0  0  0  0  0
 10 11  1  0  0  0
 10 15  1  0  0  0
 10  1  1  0  0  0
 11 12  1  0  0  0
 11 16  2  0  0  0
 12 13  1  0  0  0
 13 14  1  0  0  0
 13 17  2  0  0  0
 14 15  2  0  0  0
  1  2  1  0  0  0
  1  7  1  0  0  0
  2  3  1  0  0  0
  2  5  1  0  0  0
  3  4  1  0  0  0
  3  6  1  0  0  0
  4  7  1  0  0  0
  4 19  1  0  0  0
 19 20  1  0  0  0
 20 21  1  0  0  0
 21 22  2  0  0  0
 21 23  1  0  0  0
 21 24  1  0  0  0
 12 18  1  0  0  0
  5  8  1  0  0  0
  6  9  1  0  0  0
 23 25  1  0  0  0
 24 26  1  0  0  0
M  END
> <minimizedAffinity>
-7.60035

$$$$
3GDT_UP6_A_301


 26 27  0  0  0  0  0  0  0  0999 V2000
   58.4972   52.5414   23.0265 C   0  0  0  0  0  0  0  0  0  0  0  0
   59.0050   51.9027   24.3179 C   0  0  0  0  0  0  0  0  0  0  0  0
   57.9077   50.9065   24.6061 C   0  0  0  0  0  0  0  0  0  0  0  0
   56.6501   51.6445   24.1370 C   0  0  0  0  0  0  0  0  0  0  0  0
   60.2719   51.2539   24.1183 O   0  0  0  0  0  0  0  0  0  0  0  0
   58.0723   49.7230   23.8283 O   0  0  0  0  0  0  0  0  0  0  0  0
   57.0841   52.5651   23.1223 O   0  0  0  0  0  0  0  0  0  0  0  0
   60.1922   50.6015   23.4048 H   0  0  0  0  0  0  0  0  0  0  0  0
   58.0966   49.9556   22.8869 H   0  0  0  0  0  0  0  0  0  0  0  0
   58.9620   53.8574   22.6383 N   0  0  0  0  0  0  0  0  0  0  0  0
   59.3070   54.1384   21.3072 C   0  0  0  0  0  0  0  0  0  0  0  0
   59.8776   55.3862   21.1307 N   0  0  0  0  0  0  0  0  0  0  0  0
   59.9643   56.3942   22.1012 C   0  0  0  0  0  0  0  0  0  0  0  0
   59.5093   56.0525   23.4217 C   0  0  0  0  0  0  0  0  0  0  0  0
   59.0397   54.8296   23.6578 N   0  0  0  0  0  0  0  0  0  0  0  0
   59.1212   53.3811   20.4040 O   0  0  0  0  0  0  0  0  0  0  0  0
   60.4132   57.4659   21.7675 O   0  0  0  0  0  0  0  0  0  0  0  0
   60.2568   55.5841   20.2440 H   0  0  0  0  0  0  0  0  0  0  0  0
   55.8858   52.4450   25.1702 C   0  0  0  0  0  0  0  0  0  0  0  0
   54.5689   52.5792   24.6511 O   0  0  0  0  0  0  0  0  0  0  0  0
   53.4674   51.4089   24.8466 P   0  0  0  0  0  0  0  0  0  0  0  0
   52.1031   52.0255   25.0027 O   0  0  0  0  0  0  0  0  0  0  0  0
   53.9598   50.6899   26.0665 O   0  0  0  0  0  0  0  0  0  0  0  0
   53.5926   50.4520   23.5753 O   0  0  0  0  0  0  0  0  0  0  0  0
   53.8831   51.2726   26.8382 H   0  0  0  0  0  0  0  0  0  0  0  0
   53.2737   50.9184   22.7869 H   0  0  0  0  0  0  0  0  0  0  0  0
 10 11  1  0  0  0
 10 15  1  0  0  0
 10  1  1  0  0  0
 11 12  1  0  0  0
 11 16  2  0  0  0
 12 13  1  0  0  0
 13 14  1  0  0  0
 13 17  2  0  0  0
 14 15  2  0  0  0
  1  2  1  0  0  0
  1  7  1  0  0  0
  2  3  1  0  0  0
  2  5  1  0  0  0
  3  4  1  0  0  0
  3  6  1  0  0  0
  4  7  1  0  0  0
  4 19  1  0  0  0
 19 20  1  0  0  0
 20 21  1  0  0  0
 21 22  2  0  0  0
 21 23  1  0  0  0
 21 24  1  0  0  0
 12 18  1  0  0  0
  5  8  1  0  0  0
  6  9  1  0  0  0
 23 25  1  0  0  0
 24 26  1  0  0  0
M  END
> <minimizedAffinity>
-7.48503

$$$$
3GDT_UP6_A_301


 26 27  0  0  0  0  0  0  0  0999 V2000
   58.7548   52.9667   23.6768 C   0  0  0  0  0  0  0  0  0  0  0  0
   58.6393   52.9769   22.1536 C   0  0  0  0  0  0  0  0  0  0  0  0
   59.5095   54.1589   21.7993 C   0  0  0  0  0  0  0  0  0  0  0  0
   59.2437   55.1314   22.9524 C   0  0  0  0  0  0  0  0  0  0  0  0
   59.1419   51.7577   21.5820 O   0  0  0  0  0  0  0  0  0  0  0  0
   60.8890   53.7986   21.8006 O   0  0  0  0  0  0  0  0  0  0  0  0
   58.8651   54.3209   24.0773 O   0  0  0  0  0  0  0  0  0  0  0  0
   60.0579   51.6193   21.8696 H   0  0  0  0  0  0  0  0  0  0  0  0
   61.1274   53.4349   22.6676 H   0  0  0  0  0  0  0  0  0  0  0  0
   57.7316   52.3243   24.4759 N   0  0  0  0  0  0  0  0  0  0  0  0
   57.7094   50.9302   24.6367 C   0  0  0  0  0  0  0  0  0  0  0  0
   56.5858   50.4626   25.2946 N   0  0  0  0  0  0  0  0  0  0  0  0
   55.6172   51.2532   25.9288 C   0  0  0  0  0  0  0  0  0  0  0  0
   55.7603   52.6770   25.7879 C   0  0  0  0  0  0  0  0  0  0  0  0
   56.7764   53.1676   25.0819 N   0  0  0  0  0  0  0  0  0  0  0  0
   58.5784   50.2083   24.2527 O   0  0  0  0  0  0  0  0  0  0  0  0
   54.7375   50.6918   26.5390 O   0  0  0  0  0  0  0  0  0  0  0  0
   56.4547   49.4872   25.3197 H   0  0  0  0  0  0  0  0  0  0  0  0
   58.1528   56.1628   22.7566 C   0  0  0  0  0  0  0  0  0  0  0  0
   57.3849   55.7009   21.6525 O   0  0  0  0  0  0  0  0  0  0  0  0
   55.7671   55.6754   21.7088 P   0  0  0  0  0  0  0  0  0  0  0  0
   55.2457   57.0856   21.7830 O   0  0  0  0  0  0  0  0  0  0  0  0
   55.4903   54.8529   22.9312 O   0  0  0  0  0  0  0  0  0  0  0  0
   55.2812   54.8838   20.4108 O   0  0  0  0  0  0  0  0  0  0  0  0
   55.7861   55.3352   23.7192 H   0  0  0  0  0  0  0  0  0  0  0  0
   55.4609   55.4171   19.6207 H   0  0  0  0  0  0  0  0  0  0  0  0
 10 11  1  0  0  0
 10 15  1  0  0  0
 10  1  1  0  0  0
 11 12  1  0  0  0
 11 16  2  0  0  0
 12 13  1  0  0  0
 13 14  1  0  0  0
 13 17  2  0  0  0
 14 15  2  0  0  0
  1  2  1  0  0  0
  1  7  1  0  0  0
  2  3  1  0  0  0
  2  5  1  0  0  0
  3  4  1  0  0  0
  3  6  1  0  0  0
  4  7  1  0  0  0
  4 19  1  0  0  0
 19 20  1  0  0  0
 20 21  1  0  0  0
 21 22  2  0  0  0
 21 23  1  0  0  0
 21 24  1  0  0  0
 12 18  1  0  0  0
  5  8  1  0  0  0
  6  9  1  0  0  0
 23 25  1  0  0  0
 24 26  1  0  0  0
M  END
> <minimizedAffinity>
-7.28984

$$$$
3GDT_UP6_A_301


 26 27  0  0  0  0  0  0  0  0999 V2000
   57.8297   52.5055   22.8560 C   0  0  0  0  0  0  0  0  0  0  0  0
   58.9573   51.8474   23.6490 C   0  0  0  0  0  0  0  0  0  0  0  0
   58.2039   50.7761   24.4003 C   0  0  0  0  0  0  0  0  0  0  0  0
   56.8649   51.4550   24.7041 C   0  0  0  0  0  0  0  0  0  0  0  0
   59.9516   51.2846   22.7770 O   0  0  0  0  0  0  0  0  0  0  0  0
   57.9732   49.6368   23.5748 O   0  0  0  0  0  0  0  0  0  0  0  0
   56.6756   52.4401   23.6748 O   0  0  0  0  0  0  0  0  0  0  0  0
   59.5304   50.6577   22.1683 H   0  0  0  0  0  0  0  0  0  0  0  0
   57.4943   49.9079   22.7760 H   0  0  0  0  0  0  0  0  0  0  0  0
   57.9823   53.8615   22.3700 N   0  0  0  0  0  0  0  0  0  0  0  0
   58.7398   54.1364   21.2208 C   0  0  0  0  0  0  0  0  0  0  0  0
   58.9170   55.4871   20.9798 N   0  0  0  0  0  0  0  0  0  0  0  0
   58.2807   56.5334   21.6622 C   0  0  0  0  0  0  0  0  0  0  0  0
   57.4519   56.1605   22.7765 C   0  0  0  0  0  0  0  0  0  0  0  0
   57.3291   54.8756   23.1019 N   0  0  0  0  0  0  0  0  0  0  0  0
   59.1860   53.2904   20.5075 O   0  0  0  0  0  0  0  0  0  0  0  0
   58.4726   57.6625   21.2755 O   0  0  0  0  0  0  0  0  0  0  0  0
   59.5464   55.7359   20.2648 H   0  0  0  0  0  0  0  0  0  0  0  0
   56.7301   52.1660   26.0340 C   0  0  0  0  0  0  0  0  0  0  0  0
   55.6315   51.5449   26.6890 O   0  0  0  0  0  0  0  0  0  0  0  0
   54.1046   51.9313   26.3142 P   0  0  0  0  0  0  0  0  0  0  0  0
   53.3773   52.3648   27.5588 O   0  0  0  0  0  0  0  0  0  0  0  0
   53.5812   50.6647   25.7065 O   0  0  0  0  0  0  0  0  0  0  0  0
   54.1863   53.0669   25.1957 O   0  0  0  0  0  0  0  0  0  0  0  0
   53.5321   49.9756   26.3874 H   0  0  0  0  0  0  0  0  0  0  0  0
   54.5250   53.8857   25.5903 H   0  0  0  0  0  0  0  0  0  0  0  0
 10 11  1  0  0  0
 10 15  1  0  0  0
 10  1  1  0  0  0
 11 12  1  0  0  0
 11 16  2  0  0  0
 12 13  1  0  0  0
 13 14  1  0  0  0
 13 17  2  0  0  0
 14 15  2  0  0  0
  1  2  1  0  0  0
  1  7  1  0  0  0
  2  3  1  0  0  0
  2  5  1  0  0  0
  3  4  1  0  0  0
  3  6  1  0  0  0
  4  7  1  0  0  0
  4 19  1  0  0  0
 19 20  1  0  0  0
 20 21  1  0  0  0
 21 22  2  0  0  0
 21 23  1  0  0  0
 21 24  1  0  0  0
 12 18  1  0  0  0
  5  8  1  0  0  0
  6  9  1  0  0  0
 23 25  1  0  0  0
 24 26  1  0  0  0
M  END
> <minimizedAffinity>
-7.28507

$$$$
3GDT_UP6_A_301


 26 27  0  0  0  0  0  0  0  0999 V2000
   55.8458   54.3124   22.6975 C   0  0  0  0  0  0  0  0  0  0  0  0
   55.9007   55.5120   23.6418 C   0  0  0  0  0  0  0  0  0  0  0  0
   55.7928   56.6602   22.6674 C   0  0  0  0  0  0  0  0  0  0  0  0
   56.5762   56.1486   21.4547 C   0  0  0  0  0  0  0  0  0  0  0  0
   54.8033   55.4985   24.5699 O   0  0  0  0  0  0  0  0  0  0  0  0
   54.4371   56.8842   22.2870 O   0  0  0  0  0  0  0  0  0  0  0  0
   56.4943   54.7146   21.5041 O   0  0  0  0  0  0  0  0  0  0  0  0
   53.9664   55.4676   24.0805 H   0  0  0  0  0  0  0  0  0  0  0  0
   54.0678   56.0696   21.9116 H   0  0  0  0  0  0  0  0  0  0  0  0
   56.3869   53.0358   23.1167 N   0  0  0  0  0  0  0  0  0  0  0  0
   55.6216   52.1431   23.8830 C   0  0  0  0  0  0  0  0  0  0  0  0
   56.3311   51.0436   24.3318 N   0  0  0  0  0  0  0  0  0  0  0  0
   57.6331   50.6936   23.9473 C   0  0  0  0  0  0  0  0  0  0  0  0
   58.3189   51.6222   23.0900 C   0  0  0  0  0  0  0  0  0  0  0  0
   57.7054   52.7408   22.7103 N   0  0  0  0  0  0  0  0  0  0  0  0
   54.4640   52.3048   24.1227 O   0  0  0  0  0  0  0  0  0  0  0  0
   58.0859   49.6516   24.3602 O   0  0  0  0  0  0  0  0  0  0  0  0
   55.8814   50.4539   24.9794 H   0  0  0  0  0  0  0  0  0  0  0  0
   58.0440   56.5103   21.3704 C   0  0  0  0  0  0  0  0  0  0  0  0
   58.1665   57.7639   22.0302 O   0  0  0  0  0  0  0  0  0  0  0  0
   59.5158   58.6497   21.9033 P   0  0  0  0  0  0  0  0  0  0  0  0
   59.2769   60.0142   22.4925 O   0  0  0  0  0  0  0  0  0  0  0  0
   59.7719   58.6546   20.4262 O   0  0  0  0  0  0  0  0  0  0  0  0
   60.6677   57.8289   22.6428 O   0  0  0  0  0  0  0  0  0  0  0  0
   59.0712   59.1537   19.9782 H   0  0  0  0  0  0  0  0  0  0  0  0
   60.5006   57.8266   23.5983 H   0  0  0  0  0  0  0  0  0  0  0  0
 10 11  1  0  0  0
 10 15  1  0  0  0
 10  1  1  0  0  0
 11 12  1  0  0  0
 11 16  2  0  0  0
 12 13  1  0  0  0
 13 14  1  0  0  0
 13 17  2  0  0  0
 14 15  2  0  0  0
  1  2  1  0  0  0
  1  7  1  0  0  0
  2  3  1  0  0  0
  2  5  1  0  0  0
  3  4  1  0  0  0
  3  6  1  0  0  0
  4  7  1  0  0  0
  4 19  1  0  0  0
 19 20  1  0  0  0
 20 21  1  0  0  0
 21 22  2  0  0  0
 21 23  1  0  0  0
 21 24  1  0  0  0
 12 18  1  0  0  0
  5  8  1  0  0  0
  6  9  1  0  0  0
 23 25  1  0  0  0
 24 26  1  0  0  0
M  END
> <minimizedAffinity>
-7.27479

$$$$
3GDT_UP6_A_301


 26 27  0  0  0  0  0  0  0  0999 V2000
   58.4829   52.2289   23.2494 C   0  0  0  0  0  0  0  0  0  0  0  0
   58.7086   51.5772   24.6125 C   0  0  0  0  0  0  0  0  0  0  0  0
   57.5477   50.6138   24.6751 C   0  0  0  0  0  0  0  0  0  0  0  0
   56.4286   51.3876   23.9715 C   0  0  0  0  0  0  0  0  0  0  0  0
   59.9707   50.8914   24.6626 O   0  0  0  0  0  0  0  0  0  0  0  0
   57.8276   49.4251   23.9394 O   0  0  0  0  0  0  0  0  0  0  0  0
   57.0798   52.2939   23.0660 O   0  0  0  0  0  0  0  0  0  0  0  0
   60.0139   50.2408   23.9444 H   0  0  0  0  0  0  0  0  0  0  0  0
   58.0430   49.6557   23.0222 H   0  0  0  0  0  0  0  0  0  0  0  0
   59.0526   53.5302   22.9660 N   0  0  0  0  0  0  0  0  0  0  0  0
   59.3373   53.9232   21.6490 C   0  0  0  0  0  0  0  0  0  0  0  0
   60.0189   55.1238   21.5605 N   0  0  0  0  0  0  0  0  0  0  0  0
   60.2702   56.0056   22.6210 C   0  0  0  0  0  0  0  0  0  0  0  0
   59.8694   55.5640   23.9295 C   0  0  0  0  0  0  0  0  0  0  0  0
   59.2945   54.3720   24.0721 N   0  0  0  0  0  0  0  0  0  0  0  0
   59.0175   53.2914   20.6887 O   0  0  0  0  0  0  0  0  0  0  0  0
   60.8029   57.0607   22.3676 O   0  0  0  0  0  0  0  0  0  0  0  0
   60.3580   55.3822   20.6731 H   0  0  0  0  0  0  0  0  0  0  0  0
   55.4997   52.2113   24.8381 C   0  0  0  0  0  0  0  0  0  0  0  0
   55.2127   53.3822   24.0841 O   0  0  0  0  0  0  0  0  0  0  0  0
   55.6943   54.8432   24.5886 P   0  0  0  0  0  0  0  0  0  0  0  0
   54.4987   55.6344   25.0474 O   0  0  0  0  0  0  0  0  0  0  0  0
   56.3747   55.4053   23.3768 O   0  0  0  0  0  0  0  0  0  0  0  0
   56.7722   54.5926   25.7388 O   0  0  0  0  0  0  0  0  0  0  0  0
   55.7185   55.5571   22.6788 H   0  0  0  0  0  0  0  0  0  0  0  0
   56.3305   54.2290   26.5221 H   0  0  0  0  0  0  0  0  0  0  0  0
 10 11  1  0  0  0
 10 15  1  0  0  0
 10  1  1  0  0  0
 11 12  1  0  0  0
 11 16  2  0  0  0
 12 13  1  0  0  0
 13 14  1  0  0  0
 13 17  2  0  0  0
 14 15  2  0  0  0
  1  2  1  0  0  0
  1  7  1  0  0  0
  2  3  1  0  0  0
  2  5  1  0  0  0
  3  4  1  0  0  0
  3  6  1  0  0  0
  4  7  1  0  0  0
  4 19  1  0  0  0
 19 20  1  0  0  0
 20 21  1  0  0  0
 21 22  2  0  0  0
 21 23  1  0  0  0
 21 24  1  0  0  0
 12 18  1  0  0  0
  5  8  1  0  0  0
  6  9  1  0  0  0
 23 25  1  0  0  0
 24 26  1  0  0  0
M  END
> <minimizedAffinity>
-7.13388

$$$$
3GDT_UP6_A_301


 26 27  0  0  0  0  0  0  0  0999 V2000
   58.8498   52.7084   23.7791 C   0  0  0  0  0  0  0  0  0  0  0  0
   58.7956   52.5303   22.2629 C   0  0  0  0  0  0  0  0  0  0  0  0
   59.7023   53.6462   21.8019 C   0  0  0  0  0  0  0  0  0  0  0  0
   59.4097   54.7586   22.8133 C   0  0  0  0  0  0  0  0  0  0  0  0
   59.2966   51.2422   21.8686 O   0  0  0  0  0  0  0  0  0  0  0  0
   61.0733   53.2689   21.9060 O   0  0  0  0  0  0  0  0  0  0  0  0
   58.9705   54.1002   24.0130 O   0  0  0  0  0  0  0  0  0  0  0  0
   60.1975   51.1275   22.2094 H   0  0  0  0  0  0  0  0  0  0  0  0
   61.2696   53.0127   22.8207 H   0  0  0  0  0  0  0  0  0  0  0  0
   57.7830   52.1854   24.6079 N   0  0  0  0  0  0  0  0  0  0  0  0
   57.6507   50.8060   24.8303 C   0  0  0  0  0  0  0  0  0  0  0  0
   56.4971   50.4590   25.5104 N   0  0  0  0  0  0  0  0  0  0  0  0
   55.5979   51.3515   26.1108 C   0  0  0  0  0  0  0  0  0  0  0  0
   55.8532   52.7518   25.9067 C   0  0  0  0  0  0  0  0  0  0  0  0
   56.9014   53.1282   25.1777 N   0  0  0  0  0  0  0  0  0  0  0  0
   58.4574   50.0009   24.4770 O   0  0  0  0  0  0  0  0  0  0  0  0
   54.6796   50.8896   26.7469 O   0  0  0  0  0  0  0  0  0  0  0  0
   56.2888   49.4993   25.5790 H   0  0  0  0  0  0  0  0  0  0  0  0
   58.3479   55.7732   22.4453 C   0  0  0  0  0  0  0  0  0  0  0  0
   58.8998   56.5327   21.3774 O   0  0  0  0  0  0  0  0  0  0  0  0
   59.4303   58.0444   21.6105 P   0  0  0  0  0  0  0  0  0  0  0  0
   58.3097   58.8911   22.1521 O   0  0  0  0  0  0  0  0  0  0  0  0
   59.8987   58.4463   20.2443 O   0  0  0  0  0  0  0  0  0  0  0  0
   60.6821   57.9384   22.5950 O   0  0  0  0  0  0  0  0  0  0  0  0
   59.1370   58.5103   19.6471 H   0  0  0  0  0  0  0  0  0  0  0  0
   60.3775   57.6784   23.4784 H   0  0  0  0  0  0  0  0  0  0  0  0
 10 11  1  0  0  0
 10 15  1  0  0  0
 10  1  1  0  0  0
 11 12  1  0  0  0
 11 16  2  0  0  0
 12 13  1  0  0  0
 13 14  1  0  0  0
 13 17  2  0  0  0
 14 15  2  0  0  0
  1  2  1  0  0  0
  1  7  1  0  0  0
  2  3  1  0  0  0
  2  5  1  0  0  0
  3  4  1  0  0  0
  3  6  1  0  0  0
  4  7  1  0  0  0
  4 19  1  0  0  0
 19 20  1  0  0  0
 20 21  1  0  0  0
 21 22  2  0  0  0
 21 23  1  0  0  0
 21 24  1  0  0  0
 12 18  1  0  0  0
  5  8  1  0  0  0
  6  9  1  0  0  0
 23 25  1  0  0  0
 24 26  1  0  0  0
M  END
> <minimizedAffinity>
-7.11871

$$$$
3GDT_UP6_A_301


 26 27  0  0  0  0  0  0  0  0999 V2000
   59.5070   52.9185   24.0129 C   0  0  0  0  0  0  0  0  0  0  0  0
   58.7741   51.6419   23.6044 C   0  0  0  0  0  0  0  0  0  0  0  0
   57.3332   52.0744   23.7332 C   0  0  0  0  0  0  0  0  0  0  0  0
   57.3687   53.0103   24.9452 C   0  0  0  0  0  0  0  0  0  0  0  0
   59.0957   51.2620   22.2561 O   0  0  0  0  0  0  0  0  0  0  0  0
   56.9146   52.8109   22.5864 O   0  0  0  0  0  0  0  0  0  0  0  0
   58.7031   53.5416   24.9988 O   0  0  0  0  0  0  0  0  0  0  0  0
   58.8937   51.9969   21.6562 H   0  0  0  0  0  0  0  0  0  0  0  0
   57.5000   53.5740   22.4608 H   0  0  0  0  0  0  0  0  0  0  0  0
   60.8702   52.8470   24.4974 N   0  0  0  0  0  0  0  0  0  0  0  0
   61.9150   52.4323   23.6570 C   0  0  0  0  0  0  0  0  0  0  0  0
   63.1238   52.2685   24.3095 N   0  0  0  0  0  0  0  0  0  0  0  0
   63.3989   52.6381   25.6336 C   0  0  0  0  0  0  0  0  0  0  0  0
   62.2906   53.1354   26.4029 C   0  0  0  0  0  0  0  0  0  0  0  0
   61.0871   53.2203   25.8406 N   0  0  0  0  0  0  0  0  0  0  0  0
   61.7841   52.2444   22.4860 O   0  0  0  0  0  0  0  0  0  0  0  0
   64.5324   52.5114   26.0342 O   0  0  0  0  0  0  0  0  0  0  0  0
   63.8567   51.8554   23.7982 H   0  0  0  0  0  0  0  0  0  0  0  0
   57.0730   52.4055   26.3013 C   0  0  0  0  0  0  0  0  0  0  0  0
   55.7868   52.8916   26.6636 O   0  0  0  0  0  0  0  0  0  0  0  0
   54.4590   51.9904   26.4488 P   0  0  0  0  0  0  0  0  0  0  0  0
   53.4517   52.3193   27.5179 O   0  0  0  0  0  0  0  0  0  0  0  0
   54.9928   50.5912   26.5172 O   0  0  0  0  0  0  0  0  0  0  0  0
   53.9406   52.2931   24.9699 O   0  0  0  0  0  0  0  0  0  0  0  0
   55.3074   50.4088   27.4164 H   0  0  0  0  0  0  0  0  0  0  0  0
   53.5956   53.1986   24.9272 H   0  0  0  0  0  0  0  0  0  0  0  0
 10 11  1  0  0  0
 10 15  1  0  0  0
 10  1  1  0  0  0
 11 12  1  0  0  0
 11 16  2  0  0  0
 12 13  1  0  0  0
 13 14  1  0  0  0
 13 17  2  0  0  0
 14 15  2  0  0  0
  1  2  1  0  0  0
  1  7  1  0  0  0
  2  3  1  0  0  0
  2  5  1  0  0  0
  3  4  1  0  0  0
  3  6  1  0  0  0
  4  7  1  0  0  0
  4 19  1  0  0  0
 19 20  1  0  0  0
 20 21  1  0  0  0
 21 22  2  0  0  0
 21 23  1  0  0  0
 21 24  1  0  0  0
 12 18  1  0  0  0
  5  8  1  0  0  0
  6  9  1  0  0  0
 23 25  1  0  0  0
 24 26  1  0  0  0
M  END
> <minimizedAffinity>
-6.99450

$$$$
3GDT_UP6_A_301


 26 27  0  0  0  0  0  0  0  0999 V2000
   58.1818   53.7442   22.8192 C   0  0  0  0  0  0  0  0  0  0  0  0
   59.3837   53.5301   21.9009 C   0  0  0  0  0  0  0  0  0  0  0  0
   60.1047   52.4115   22.6141 C   0  0  0  0  0  0  0  0  0  0  0  0
   59.8639   52.7417   24.0902 C   0  0  0  0  0  0  0  0  0  0  0  0
   58.9711   53.1389   20.5809 O   0  0  0  0  0  0  0  0  0  0  0  0
   59.5144   51.1485   22.3156 O   0  0  0  0  0  0  0  0  0  0  0  0
   58.6354   53.4864   24.1361 O   0  0  0  0  0  0  0  0  0  0  0  0
   58.4188   52.3434   20.6372 H   0  0  0  0  0  0  0  0  0  0  0  0
   58.5740   51.1671   22.5527 H   0  0  0  0  0  0  0  0  0  0  0  0
   57.4775   55.0100   22.8063 N   0  0  0  0  0  0  0  0  0  0  0  0
   56.4639   55.2635   21.8693 C   0  0  0  0  0  0  0  0  0  0  0  0
   56.0009   56.5670   21.8877 N   0  0  0  0  0  0  0  0  0  0  0  0
   56.3297   57.5418   22.8401 C   0  0  0  0  0  0  0  0  0  0  0  0
   57.3154   57.1729   23.8197 C   0  0  0  0  0  0  0  0  0  0  0  0
   57.8570   55.9577   23.7803 N   0  0  0  0  0  0  0  0  0  0  0  0
   56.0295   54.4357   21.1277 O   0  0  0  0  0  0  0  0  0  0  0  0
   55.7729   58.6126   22.7714 O   0  0  0  0  0  0  0  0  0  0  0  0
   55.3852   56.8340   21.1673 H   0  0  0  0  0  0  0  0  0  0  0  0
   60.9151   53.5686   24.7997 C   0  0  0  0  0  0  0  0  0  0  0  0
   62.1523   52.9180   24.5390 O   0  0  0  0  0  0  0  0  0  0  0  0
   63.2998   52.8123   25.6762 P   0  0  0  0  0  0  0  0  0  0  0  0
   63.1295   51.5277   26.4423 O   0  0  0  0  0  0  0  0  0  0  0  0
   63.0731   54.0491   26.4926 O   0  0  0  0  0  0  0  0  0  0  0  0
   64.7001   52.9213   24.9182 O   0  0  0  0  0  0  0  0  0  0  0  0
   62.2219   53.9814   26.9526 H   0  0  0  0  0  0  0  0  0  0  0  0
   64.8454   52.1205   24.3905 H   0  0  0  0  0  0  0  0  0  0  0  0
 10 11  1  0  0  0
 10 15  1  0  0  0
 10  1  1  0  0  0
 11 12  1  0  0  0
 11 16  2  0  0  0
 12 13  1  0  0  0
 13 14  1  0  0  0
 13 17  2  0  0  0
 14 15  2  0  0  0
  1  2  1  0  0  0
  1  7  1  0  0  0
  2  3  1  0  0  0
  2  5  1  0  0  0
  3  4  1  0  0  0
  3  6  1  0  0  0
  4  7  1  0  0  0
  4 19  1  0  0  0
 19 20  1  0  0  0
 20 21  1  0  0  0
 21 22  2  0  0  0
 21 23  1  0  0  0
 21 24  1  0  0  0
 12 18  1  0  0  0
  5  8  1  0  0  0
  6  9  1  0  0  0
 23 25  1  0  0  0
 24 26  1  0  0  0
M  END
> <minimizedAffinity>
-6.92689

$$$$
3GDT_UP6_A_301


 26 27  0  0  0  0  0  0  0  0999 V2000
   59.1764   51.7432   24.5294 C   0  0  0  0  0  0  0  0  0  0  0  0
   58.0344   51.7915   25.5429 C   0  0  0  0  0  0  0  0  0  0  0  0
   56.8333   51.8656   24.6310 C   0  0  0  0  0  0  0  0  0  0  0  0
   57.3427   52.7264   23.4709 C   0  0  0  0  0  0  0  0  0  0  0  0
   58.0086   50.6091   26.3596 O   0  0  0  0  0  0  0  0  0  0  0  0
   56.4844   50.5746   24.1366 O   0  0  0  0  0  0  0  0  0  0  0  0
   58.7665   52.5351   23.4288 O   0  0  0  0  0  0  0  0  0  0  0  0
   57.9488   49.8251   25.7916 H   0  0  0  0  0  0  0  0  0  0  0  0
   57.2474   50.1859   23.6809 H   0  0  0  0  0  0  0  0  0  0  0  0
   60.5113   52.1449   24.9235 N   0  0  0  0  0  0  0  0  0  0  0  0
   61.3009   51.3233   25.7428 C   0  0  0  0  0  0  0  0  0  0  0  0
   62.4812   51.9159   26.1545 N   0  0  0  0  0  0  0  0  0  0  0  0
   62.9921   53.1367   25.6918 C   0  0  0  0  0  0  0  0  0  0  0  0
   62.1570   53.8783   24.7863 C   0  0  0  0  0  0  0  0  0  0  0  0
   60.9698   53.3876   24.4375 N   0  0  0  0  0  0  0  0  0  0  0  0
   60.9948   50.2127   26.0534 O   0  0  0  0  0  0  0  0  0  0  0  0
   64.0831   53.4800   26.0833 O   0  0  0  0  0  0  0  0  0  0  0  0
   63.0098   51.4374   26.8334 H   0  0  0  0  0  0  0  0  0  0  0  0
   57.0937   54.2178   23.5483 C   0  0  0  0  0  0  0  0  0  0  0  0
   55.9438   54.4547   22.7461 O   0  0  0  0  0  0  0  0  0  0  0  0
   55.9293   55.6238   21.6262 P   0  0  0  0  0  0  0  0  0  0  0  0
   55.2139   56.8310   22.1709 O   0  0  0  0  0  0  0  0  0  0  0  0
   55.2352   54.9679   20.4705 O   0  0  0  0  0  0  0  0  0  0  0  0
   57.4535   55.9046   21.2448 O   0  0  0  0  0  0  0  0  0  0  0  0
   54.3092   54.7979   20.7038 H   0  0  0  0  0  0  0  0  0  0  0  0
   57.9012   56.3289   21.9934 H   0  0  0  0  0  0  0  0  0  0  0  0
 10 11  1  0  0  0
 10 15  1  0  0  0
 10  1  1  0  0  0
 11 12  1  0  0  0
 11 16  2  0  0  0
 12 13  1  0  0  0
 13 14  1  0  0  0
 13 17  2  0  0  0
 14 15  2  0  0  0
  1  2  1  0  0  0
  1  7  1  0  0  0
  2  3  1  0  0  0
  2  5  1  0  0  0
  3  4  1  0  0  0
  3  6  1  0  0  0
  4  7  1  0  0  0
  4 19  1  0  0  0
 19 20  1  0  0  0
 20 21  1  0  0  0
 21 22  2  0  0  0
 21 23  1  0  0  0
 21 24  1  0  0  0
 12 18  1  0  0  0
  5  8  1  0  0  0
  6  9  1  0  0  0
 23 25  1  0  0  0
 24 26  1  0  0  0
M  END
> <minimizedAffinity>
-6.91191

$$$$
