5J64_6G7_A_301


 24 26  0  0  0  0  0  0  0  0999 V2000
   -1.6856    9.5994   25.8986 C   0  0  0  0  0  0  0  0  0  0  0  0
   -1.6393    7.7567   27.1636 C   0  0  0  0  0  0  0  0  0  0  0  0
   -2.4663    9.8351   26.9246 N   0  0  0  0  0  0  0  0  0  0  0  0
   -2.4057    8.6856   27.7439 N   0  0  0  0  0  0  0  0  0  0  0  0
   -1.1638    8.2926   26.0075 N   0  0  0  0  0  0  0  0  0  0  0  0
   -1.4001    6.6469   27.6117 O   0  0  0  0  0  0  0  0  0  0  0  0
   -2.8596    8.5840   28.6116 H   0  0  0  0  0  0  0  0  0  0  0  0
   -1.0119   12.0581   22.5405 C   0  0  0  0  0  0  0  0  0  0  0  0
   -2.3303   11.7113   22.8702 C   0  0  0  0  0  0  0  0  0  0  0  0
   -2.5599   10.9250   23.9776 C   0  0  0  0  0  0  0  0  0  0  0  0
   -1.4978   10.5121   24.7804 C   0  0  0  0  0  0  0  0  0  0  0  0
   -0.1831   10.8558   24.4401 C   0  0  0  0  0  0  0  0  0  0  0  0
    0.0476   11.6471   23.3318 C   0  0  0  0  0  0  0  0  0  0  0  0
   -0.7565   12.7707   21.4128 O   0  0  0  0  0  0  0  0  0  0  0  0
   -3.8381   10.5919   24.3315 O   0  0  0  0  0  0  0  0  0  0  0  0
   -1.4639   13.0552   20.8681 H   0  0  0  0  0  0  0  0  0  0  0  0
   -4.5583   10.8651   23.7979 H   0  0  0  0  0  0  0  0  0  0  0  0
   -0.3233    7.6041   25.0865 C   0  0  0  0  0  0  0  0  0  0  0  0
    1.0205    7.5546   25.3917 C   0  0  0  0  0  0  0  0  0  0  0  0
    1.9249    6.9552   24.5173 C   0  0  0  0  0  0  0  0  0  0  0  0
   -0.8028    7.0508   23.9068 C   0  0  0  0  0  0  0  0  0  0  0  0
    1.4521    6.3814   23.3317 C   0  0  0  0  0  0  0  0  0  0  0  0
    0.0951    6.4283   23.0528 C   0  0  0  0  0  0  0  0  0  0  0  0
    1.4365    8.0671   26.5663 F   0  0  0  0  0  0  0  0  0  0  0  0
 14  8  1  0  0  0
  8  9  2  0  0  0
  8 13  1  0  0  0
 23 22  2  0  0  0
 23 21  1  0  0  0
  9 10  1  0  0  0
 13 12  2  0  0  0
 22 20  1  0  0  0
 21 18  2  0  0  0
 10 15  1  0  0  0
 10 11  2  0  0  0
 12 11  1  0  0  0
 20 19  2  0  0  0
 11  1  1  0  0  0
 18 19  1  0  0  0
 18  5  1  0  0  0
 19 24  1  0  0  0
  1  5  1  0  0  0
  1  3  2  0  0  0
  5  2  1  0  0  0
  3  4  1  0  0  0
  2  6  2  0  0  0
  2  4  1  0  0  0
 14 16  1  0  0  0
 15 17  1  0  0  0
  4  7  1  0  0  0
M  END
> <minimizedAffinity>
-9.48272

$$$$
5J64_6G7_A_301


 24 26  0  0  0  0  0  0  0  0999 V2000
   -0.9792    7.8113   25.7346 C   0  0  0  0  0  0  0  0  0  0  0  0
   -2.1312    9.3139   26.9233 C   0  0  0  0  0  0  0  0  0  0  0  0
   -1.2984    7.2250   26.8624 N   0  0  0  0  0  0  0  0  0  0  0  0
   -2.0603    8.1613   27.5967 N   0  0  0  0  0  0  0  0  0  0  0  0
   -1.4711    9.1341   25.7478 N   0  0  0  0  0  0  0  0  0  0  0  0
   -2.7058   10.3241   27.2960 O   0  0  0  0  0  0  0  0  0  0  0  0
   -2.4764    7.9905   28.4724 H   0  0  0  0  0  0  0  0  0  0  0  0
    1.3506    6.2575   22.5827 C   0  0  0  0  0  0  0  0  0  0  0  0
    1.9989    6.7234   23.7359 C   0  0  0  0  0  0  0  0  0  0  0  0
    1.2435    7.2138   24.7781 C   0  0  0  0  0  0  0  0  0  0  0  0
   -0.1483    7.2110   24.7011 C   0  0  0  0  0  0  0  0  0  0  0  0
   -0.7884    6.7514   23.5429 C   0  0  0  0  0  0  0  0  0  0  0  0
   -0.0317    6.2563   22.4989 C   0  0  0  0  0  0  0  0  0  0  0  0
    2.0775    5.8379   21.5149 O   0  0  0  0  0  0  0  0  0  0  0  0
    1.8519    7.6536   25.9211 O   0  0  0  0  0  0  0  0  0  0  0  0
    3.0135    5.8335   21.5579 H   0  0  0  0  0  0  0  0  0  0  0  0
    2.7869    7.6591   25.9818 H   0  0  0  0  0  0  0  0  0  0  0  0
   -1.3017   10.1429   24.7567 C   0  0  0  0  0  0  0  0  0  0  0  0
   -2.4162   10.4781   24.0170 C   0  0  0  0  0  0  0  0  0  0  0  0
   -2.3285   11.4105   22.9852 C   0  0  0  0  0  0  0  0  0  0  0  0
   -0.0729   10.7333   24.4938 C   0  0  0  0  0  0  0  0  0  0  0  0
   -1.0986   12.0231   22.7196 C   0  0  0  0  0  0  0  0  0  0  0  0
    0.0049   11.6832   23.4863 C   0  0  0  0  0  0  0  0  0  0  0  0
   -3.5970    9.9116   24.3333 F   0  0  0  0  0  0  0  0  0  0  0  0
 14  8  1  0  0  0
  8  9  2  0  0  0
  8 13  1  0  0  0
 23 22  2  0  0  0
 23 21  1  0  0  0
  9 10  1  0  0  0
 13 12  2  0  0  0
 22 20  1  0  0  0
 21 18  2  0  0  0
 10 15  1  0  0  0
 10 11  2  0  0  0
 12 11  1  0  0  0
 20 19  2  0  0  0
 11  1  1  0  0  0
 18 19  1  0  0  0
 18  5  1  0  0  0
 19 24  1  0  0  0
  1  5  1  0  0  0
  1  3  2  0  0  0
  5  2  1  0  0  0
  3  4  1  0  0  0
  2  6  2  0  0  0
  2  4  1  0  0  0
 14 16  1  0  0  0
 15 17  1  0  0  0
  4  7  1  0  0  0
M  END
> <minimizedAffinity>
-9.05783

$$$$
5J64_6G7_A_301


 24 26  0  0  0  0  0  0  0  0999 V2000
   -0.9657    8.2367   25.4656 C   0  0  0  0  0  0  0  0  0  0  0  0
   -2.1563    9.6011   26.7767 C   0  0  0  0  0  0  0  0  0  0  0  0
   -1.1236    7.6099   26.6058 N   0  0  0  0  0  0  0  0  0  0  0  0
   -1.9097    8.4557   27.4200 N   0  0  0  0  0  0  0  0  0  0  0  0
   -1.5868    9.5015   25.5455 N   0  0  0  0  0  0  0  0  0  0  0  0
   -2.7960   10.5432   27.2160 O   0  0  0  0  0  0  0  0  0  0  0  0
   -2.2279    8.2346   28.3251 H   0  0  0  0  0  0  0  0  0  0  0  0
    1.5159    6.7210   22.4127 C   0  0  0  0  0  0  0  0  0  0  0  0
    0.2801    6.1010   22.6489 C   0  0  0  0  0  0  0  0  0  0  0  0
   -0.5451    6.6029   23.6310 C   0  0  0  0  0  0  0  0  0  0  0  0
   -0.1717    7.7350   24.3536 C   0  0  0  0  0  0  0  0  0  0  0  0
    1.0675    8.3439   24.1174 C   0  0  0  0  0  0  0  0  0  0  0  0
    1.8939    7.8433   23.1304 C   0  0  0  0  0  0  0  0  0  0  0  0
    2.3763    6.1996   21.5003 O   0  0  0  0  0  0  0  0  0  0  0  0
   -1.7639    6.0287   23.8650 O   0  0  0  0  0  0  0  0  0  0  0  0
    2.1335    5.4404   21.0076 H   0  0  0  0  0  0  0  0  0  0  0  0
   -2.0232    5.2675   23.3840 H   0  0  0  0  0  0  0  0  0  0  0  0
   -1.6084   10.5317   24.5623 C   0  0  0  0  0  0  0  0  0  0  0  0
   -2.7487   10.6303   23.7931 C   0  0  0  0  0  0  0  0  0  0  0  0
   -2.8331   11.5689   22.7667 C   0  0  0  0  0  0  0  0  0  0  0  0
   -0.5257   11.3707   24.3349 C   0  0  0  0  0  0  0  0  0  0  0  0
   -1.7539   12.4298   22.5367 C   0  0  0  0  0  0  0  0  0  0  0  0
   -0.6240   12.3240   23.3326 C   0  0  0  0  0  0  0  0  0  0  0  0
   -3.7910    9.8244   24.0752 F   0  0  0  0  0  0  0  0  0  0  0  0
 14  8  1  0  0  0
  8  9  2  0  0  0
  8 13  1  0  0  0
 23 22  2  0  0  0
 23 21  1  0  0  0
  9 10  1  0  0  0
 13 12  2  0  0  0
 22 20  1  0  0  0
 21 18  2  0  0  0
 10 15  1  0  0  0
 10 11  2  0  0  0
 12 11  1  0  0  0
 20 19  2  0  0  0
 11  1  1  0  0  0
 18 19  1  0  0  0
 18  5  1  0  0  0
 19 24  1  0  0  0
  1  5  1  0  0  0
  1  3  2  0  0  0
  5  2  1  0  0  0
  3  4  1  0  0  0
  2  6  2  0  0  0
  2  4  1  0  0  0
 14 16  1  0  0  0
 15 17  1  0  0  0
  4  7  1  0  0  0
M  END
> <minimizedAffinity>
-9.00013

$$$$
5J64_6G7_A_301


 24 26  0  0  0  0  0  0  0  0999 V2000
   -1.6407    9.4731   25.7182 C   0  0  0  0  0  0  0  0  0  0  0  0
   -1.5059    7.7120   27.0886 C   0  0  0  0  0  0  0  0  0  0  0  0
   -2.3477    9.7751   26.7796 N   0  0  0  0  0  0  0  0  0  0  0  0
   -2.2297    8.6783   27.6624 N   0  0  0  0  0  0  0  0  0  0  0  0
   -1.1126    8.1733   25.8710 N   0  0  0  0  0  0  0  0  0  0  0  0
   -1.2358    6.6310   27.5868 O   0  0  0  0  0  0  0  0  0  0  0  0
   -2.6217    8.6325   28.5643 H   0  0  0  0  0  0  0  0  0  0  0  0
   -1.4712   12.0817   22.4102 C   0  0  0  0  0  0  0  0  0  0  0  0
   -0.2830   11.7728   23.0885 C   0  0  0  0  0  0  0  0  0  0  0  0
   -0.3272   10.9055   24.1577 C   0  0  0  0  0  0  0  0  0  0  0  0
   -1.5318   10.3141   24.5351 C   0  0  0  0  0  0  0  0  0  0  0  0
   -2.7156   10.6337   23.8578 C   0  0  0  0  0  0  0  0  0  0  0  0
   -2.6714   11.5006   22.7835 C   0  0  0  0  0  0  0  0  0  0  0  0
   -1.4628   12.9900   21.4004 O   0  0  0  0  0  0  0  0  0  0  0  0
    0.8213   10.5724   24.8210 O   0  0  0  0  0  0  0  0  0  0  0  0
   -0.6578   13.3910   21.1375 H   0  0  0  0  0  0  0  0  0  0  0  0
    1.6355   10.9649   24.5741 H   0  0  0  0  0  0  0  0  0  0  0  0
   -0.3387    7.4256   24.9380 C   0  0  0  0  0  0  0  0  0  0  0  0
    1.0108    7.3157   25.1996 C   0  0  0  0  0  0  0  0  0  0  0  0
    1.8544    6.6547   24.3090 C   0  0  0  0  0  0  0  0  0  0  0  0
   -0.8846    6.8731   23.7871 C   0  0  0  0  0  0  0  0  0  0  0  0
    1.3139    6.0813   23.1524 C   0  0  0  0  0  0  0  0  0  0  0  0
   -0.0478    6.1897   22.9177 C   0  0  0  0  0  0  0  0  0  0  0  0
    1.4912    7.8305   26.3483 F   0  0  0  0  0  0  0  0  0  0  0  0
 14  8  1  0  0  0
  8  9  2  0  0  0
  8 13  1  0  0  0
 23 22  2  0  0  0
 23 21  1  0  0  0
  9 10  1  0  0  0
 13 12  2  0  0  0
 22 20  1  0  0  0
 21 18  2  0  0  0
 10 15  1  0  0  0
 10 11  2  0  0  0
 12 11  1  0  0  0
 20 19  2  0  0  0
 11  1  1  0  0  0
 18 19  1  0  0  0
 18  5  1  0  0  0
 19 24  1  0  0  0
  1  5  1  0  0  0
  1  3  2  0  0  0
  5  2  1  0  0  0
  3  4  1  0  0  0
  2  6  2  0  0  0
  2  4  1  0  0  0
 14 16  1  0  0  0
 15 17  1  0  0  0
  4  7  1  0  0  0
M  END
> <minimizedAffinity>
-8.63307

$$$$
5J64_6G7_A_301


 24 26  0  0  0  0  0  0  0  0999 V2000
    1.3585    8.0979   23.4888 C   0  0  0  0  0  0  0  0  0  0  0  0
    1.8656    6.0085   24.1018 C   0  0  0  0  0  0  0  0  0  0  0  0
    2.1610    7.6259   22.5663 N   0  0  0  0  0  0  0  0  0  0  0  0
    2.4496    6.2924   22.9333 N   0  0  0  0  0  0  0  0  0  0  0  0
    1.1670    7.1123   24.4808 N   0  0  0  0  0  0  0  0  0  0  0  0
    1.9355    4.9441   24.6947 O   0  0  0  0  0  0  0  0  0  0  0  0
    2.9981    5.6664   22.4075 H   0  0  0  0  0  0  0  0  0  0  0  0
   -0.1555   12.0179   23.8310 C   0  0  0  0  0  0  0  0  0  0  0  0
    1.2001   11.8424   23.5169 C   0  0  0  0  0  0  0  0  0  0  0  0
    1.6976   10.5648   23.3835 C   0  0  0  0  0  0  0  0  0  0  0  0
    0.8548    9.4631   23.5217 C   0  0  0  0  0  0  0  0  0  0  0  0
   -0.4962    9.6462   23.8433 C   0  0  0  0  0  0  0  0  0  0  0  0
   -0.9965   10.9270   23.9737 C   0  0  0  0  0  0  0  0  0  0  0  0
   -0.6506   13.2654   24.0392 O   0  0  0  0  0  0  0  0  0  0  0  0
    3.0109   10.3689   23.0565 O   0  0  0  0  0  0  0  0  0  0  0  0
   -0.0928   14.0125   23.9460 H   0  0  0  0  0  0  0  0  0  0  0  0
    3.5847   11.1035   22.9615 H   0  0  0  0  0  0  0  0  0  0  0  0
    0.4220    7.2181   25.6901 C   0  0  0  0  0  0  0  0  0  0  0  0
   -0.9257    6.9360   25.6142 C   0  0  0  0  0  0  0  0  0  0  0  0
   -1.7432    7.0730   26.7343 C   0  0  0  0  0  0  0  0  0  0  0  0
    0.9923    7.6358   26.8850 C   0  0  0  0  0  0  0  0  0  0  0  0
   -1.1777    7.4797   27.9481 C   0  0  0  0  0  0  0  0  0  0  0  0
    0.1821    7.7421   28.0055 C   0  0  0  0  0  0  0  0  0  0  0  0
   -1.4293    6.4938   24.4453 F   0  0  0  0  0  0  0  0  0  0  0  0
 14  8  1  0  0  0
  8  9  2  0  0  0
  8 13  1  0  0  0
 23 22  2  0  0  0
 23 21  1  0  0  0
  9 10  1  0  0  0
 13 12  2  0  0  0
 22 20  1  0  0  0
 21 18  2  0  0  0
 10 15  1  0  0  0
 10 11  2  0  0  0
 12 11  1  0  0  0
 20 19  2  0  0  0
 11  1  1  0  0  0
 18 19  1  0  0  0
 18  5  1  0  0  0
 19 24  1  0  0  0
  1  5  1  0  0  0
  1  3  2  0  0  0
  5  2  1  0  0  0
  3  4  1  0  0  0
  2  6  2  0  0  0
  2  4  1  0  0  0
 14 16  1  0  0  0
 15 17  1  0  0  0
  4  7  1  0  0  0
M  END
> <minimizedAffinity>
-7.77179

$$$$
5J64_6G7_A_301


 24 26  0  0  0  0  0  0  0  0999 V2000
   -1.0414    8.8656   24.5606 C   0  0  0  0  0  0  0  0  0  0  0  0
   -2.1245    9.9026   26.2188 C   0  0  0  0  0  0  0  0  0  0  0  0
   -1.8775    9.6995   23.9920 N   0  0  0  0  0  0  0  0  0  0  0  0
   -2.5334   10.3830   25.0403 N   0  0  0  0  0  0  0  0  0  0  0  0
   -1.1845    8.9536   25.9619 N   0  0  0  0  0  0  0  0  0  0  0  0
   -2.5136   10.2733   27.3146 O   0  0  0  0  0  0  0  0  0  0  0  0
   -3.1925   11.1045   24.9208 H   0  0  0  0  0  0  0  0  0  0  0  0
    1.5772    6.1660   22.6550 C   0  0  0  0  0  0  0  0  0  0  0  0
    0.3211    5.7054   23.0761 C   0  0  0  0  0  0  0  0  0  0  0  0
   -0.5479    6.5863   23.6813 C   0  0  0  0  0  0  0  0  0  0  0  0
   -0.1966    7.9261   23.8378 C   0  0  0  0  0  0  0  0  0  0  0  0
    1.0629    8.3769   23.4218 C   0  0  0  0  0  0  0  0  0  0  0  0
    1.9333    7.4950   22.8118 C   0  0  0  0  0  0  0  0  0  0  0  0
    2.4773    5.2993   22.1227 O   0  0  0  0  0  0  0  0  0  0  0  0
   -1.7862    6.1657   24.0808 O   0  0  0  0  0  0  0  0  0  0  0  0
    2.2497    4.3973   22.0109 H   0  0  0  0  0  0  0  0  0  0  0  0
   -2.0310    5.2669   23.9794 H   0  0  0  0  0  0  0  0  0  0  0  0
   -0.5199    8.1869   26.9614 C   0  0  0  0  0  0  0  0  0  0  0  0
   -1.3160    7.4174   27.7834 C   0  0  0  0  0  0  0  0  0  0  0  0
   -0.7570    6.6832   28.8275 C   0  0  0  0  0  0  0  0  0  0  0  0
    0.8544    8.2387   27.1523 C   0  0  0  0  0  0  0  0  0  0  0  0
    0.6286    6.7160   29.0214 C   0  0  0  0  0  0  0  0  0  0  0  0
    1.4115    7.4832   28.1731 C   0  0  0  0  0  0  0  0  0  0  0  0
   -2.6395    7.3635   27.5365 F   0  0  0  0  0  0  0  0  0  0  0  0
 14  8  1  0  0  0
  8  9  2  0  0  0
  8 13  1  0  0  0
 23 22  2  0  0  0
 23 21  1  0  0  0
  9 10  1  0  0  0
 13 12  2  0  0  0
 22 20  1  0  0  0
 21 18  2  0  0  0
 10 15  1  0  0  0
 10 11  2  0  0  0
 12 11  1  0  0  0
 20 19  2  0  0  0
 11  1  1  0  0  0
 18 19  1  0  0  0
 18  5  1  0  0  0
 19 24  1  0  0  0
  1  5  1  0  0  0
  1  3  2  0  0  0
  5  2  1  0  0  0
  3  4  1  0  0  0
  2  6  2  0  0  0
  2  4  1  0  0  0
 14 16  1  0  0  0
 15 17  1  0  0  0
  4  7  1  0  0  0
M  END
> <minimizedAffinity>
-7.18941

$$$$
5J64_6G7_A_301


 24 26  0  0  0  0  0  0  0  0999 V2000
    0.9651    8.2744   23.5194 C   0  0  0  0  0  0  0  0  0  0  0  0
    1.3812    6.1097   23.8926 C   0  0  0  0  0  0  0  0  0  0  0  0
    1.5887    7.8288   22.4564 N   0  0  0  0  0  0  0  0  0  0  0  0
    1.8163    6.4517   22.6757 N   0  0  0  0  0  0  0  0  0  0  0  0
    0.8352    7.2229   24.4518 N   0  0  0  0  0  0  0  0  0  0  0  0
    1.4466    4.9959   24.3871 O   0  0  0  0  0  0  0  0  0  0  0  0
    2.2326    5.8365   22.0296 H   0  0  0  0  0  0  0  0  0  0  0  0
   -0.0446   12.3508   23.8929 C   0  0  0  0  0  0  0  0  0  0  0  0
   -1.0734   11.3975   23.8913 C   0  0  0  0  0  0  0  0  0  0  0  0
   -0.7502   10.0623   23.7900 C   0  0  0  0  0  0  0  0  0  0  0  0
    0.5841    9.6636   23.7284 C   0  0  0  0  0  0  0  0  0  0  0  0
    1.6057   10.6221   23.7224 C   0  0  0  0  0  0  0  0  0  0  0  0
    1.2825   11.9608   23.8275 C   0  0  0  0  0  0  0  0  0  0  0  0
   -0.3434   13.6755   23.9182 O   0  0  0  0  0  0  0  0  0  0  0  0
   -1.7345    9.1132   23.8081 O   0  0  0  0  0  0  0  0  0  0  0  0
   -1.2371   13.9535   23.9623 H   0  0  0  0  0  0  0  0  0  0  0  0
   -2.6341    9.3719   23.8495 H   0  0  0  0  0  0  0  0  0  0  0  0
    0.2786    7.2759   25.7618 C   0  0  0  0  0  0  0  0  0  0  0  0
   -1.0506    6.9301   25.8847 C   0  0  0  0  0  0  0  0  0  0  0  0
   -1.6937    7.0120   27.1182 C   0  0  0  0  0  0  0  0  0  0  0  0
    1.0043    7.7042   26.8653 C   0  0  0  0  0  0  0  0  0  0  0  0
   -0.9694    7.4289   28.2408 C   0  0  0  0  0  0  0  0  0  0  0  0
    0.3699    7.7559   28.0974 C   0  0  0  0  0  0  0  0  0  0  0  0
   -1.7054    6.4802   24.7965 F   0  0  0  0  0  0  0  0  0  0  0  0
 14  8  1  0  0  0
  8  9  2  0  0  0
  8 13  1  0  0  0
 23 22  2  0  0  0
 23 21  1  0  0  0
  9 10  1  0  0  0
 13 12  2  0  0  0
 22 20  1  0  0  0
 21 18  2  0  0  0
 10 15  1  0  0  0
 10 11  2  0  0  0
 12 11  1  0  0  0
 20 19  2  0  0  0
 11  1  1  0  0  0
 18 19  1  0  0  0
 18  5  1  0  0  0
 19 24  1  0  0  0
  1  5  1  0  0  0
  1  3  2  0  0  0
  5  2  1  0  0  0
  3  4  1  0  0  0
  2  6  2  0  0  0
  2  4  1  0  0  0
 14 16  1  0  0  0
 15 17  1  0  0  0
  4  7  1  0  0  0
M  END
> <minimizedAffinity>
-7.16911

$$$$
5J64_6G7_A_301


 24 26  0  0  0  0  0  0  0  0999 V2000
   -0.8764    8.7013   24.5427 C   0  0  0  0  0  0  0  0  0  0  0  0
   -2.0275    9.7848   26.1236 C   0  0  0  0  0  0  0  0  0  0  0  0
   -1.6928    9.5126   23.9157 N   0  0  0  0  0  0  0  0  0  0  0  0
   -2.3918   10.2256   24.9153 N   0  0  0  0  0  0  0  0  0  0  0  0
   -1.0746    8.8329   25.9338 N   0  0  0  0  0  0  0  0  0  0  0  0
   -2.4605   10.1880   27.1910 O   0  0  0  0  0  0  0  0  0  0  0  0
   -3.0484   10.9397   24.7473 H   0  0  0  0  0  0  0  0  0  0  0  0
    1.4901    5.9133   22.4443 C   0  0  0  0  0  0  0  0  0  0  0  0
    1.9979    7.2026   22.6614 C   0  0  0  0  0  0  0  0  0  0  0  0
    1.2391    8.1128   23.3636 C   0  0  0  0  0  0  0  0  0  0  0  0
   -0.0004    7.7437   23.8836 C   0  0  0  0  0  0  0  0  0  0  0  0
   -0.5044    6.4567   23.6559 C   0  0  0  0  0  0  0  0  0  0  0  0
    0.2574    5.5424   22.9548 C   0  0  0  0  0  0  0  0  0  0  0  0
    2.1886    5.0235   21.6927 O   0  0  0  0  0  0  0  0  0  0  0  0
    1.7221    9.3689   23.6064 O   0  0  0  0  0  0  0  0  0  0  0  0
    3.0239    5.2612   21.3410 H   0  0  0  0  0  0  0  0  0  0  0  0
    2.5544    9.6257   23.2609 H   0  0  0  0  0  0  0  0  0  0  0  0
   -0.4467    8.1015   26.9824 C   0  0  0  0  0  0  0  0  0  0  0  0
   -1.2695    7.3409   27.7861 C   0  0  0  0  0  0  0  0  0  0  0  0
   -0.7496    6.6415   28.8734 C   0  0  0  0  0  0  0  0  0  0  0  0
    0.9163    8.1789   27.2352 C   0  0  0  0  0  0  0  0  0  0  0  0
    0.6249    6.7001   29.1304 C   0  0  0  0  0  0  0  0  0  0  0  0
    1.4357    7.4577   28.2998 C   0  0  0  0  0  0  0  0  0  0  0  0
   -2.5791    7.2608   27.4797 F   0  0  0  0  0  0  0  0  0  0  0  0
 14  8  1  0  0  0
  8  9  2  0  0  0
  8 13  1  0  0  0
 23 22  2  0  0  0
 23 21  1  0  0  0
  9 10  1  0  0  0
 13 12  2  0  0  0
 22 20  1  0  0  0
 21 18  2  0  0  0
 10 15  1  0  0  0
 10 11  2  0  0  0
 12 11  1  0  0  0
 20 19  2  0  0  0
 11  1  1  0  0  0
 18 19  1  0  0  0
 18  5  1  0  0  0
 19 24  1  0  0  0
  1  5  1  0  0  0
  1  3  2  0  0  0
  5  2  1  0  0  0
  3  4  1  0  0  0
  2  6  2  0  0  0
  2  4  1  0  0  0
 14 16  1  0  0  0
 15 17  1  0  0  0
  4  7  1  0  0  0
M  END
> <minimizedAffinity>
-6.98887

$$$$
5J64_6G7_A_301


 24 26  0  0  0  0  0  0  0  0999 V2000
    1.3369    9.1199   23.5292 C   0  0  0  0  0  0  0  0  0  0  0  0
    1.1380   11.3409   23.6897 C   0  0  0  0  0  0  0  0  0  0  0  0
    2.3702    9.6302   22.9049 N   0  0  0  0  0  0  0  0  0  0  0  0
    2.2652   11.0326   23.0407 N   0  0  0  0  0  0  0  0  0  0  0  0
    0.5302   10.1694   24.0187 N   0  0  0  0  0  0  0  0  0  0  0  0
    0.7511   12.4682   23.9525 O   0  0  0  0  0  0  0  0  0  0  0  0
    2.9232   11.6847   22.7074 H   0  0  0  0  0  0  0  0  0  0  0  0
    0.4505    4.9987   23.4518 C   0  0  0  0  0  0  0  0  0  0  0  0
    1.6710    5.4169   24.0018 C   0  0  0  0  0  0  0  0  0  0  0  0
    1.9591    6.7631   24.0491 C   0  0  0  0  0  0  0  0  0  0  0  0
    1.0323    7.6979   23.5906 C   0  0  0  0  0  0  0  0  0  0  0  0
   -0.1813    7.2721   23.0354 C   0  0  0  0  0  0  0  0  0  0  0  0
   -0.4723    5.9226   22.9909 C   0  0  0  0  0  0  0  0  0  0  0  0
    0.1771    3.6740   23.3283 O   0  0  0  0  0  0  0  0  0  0  0  0
    3.1332    7.1962   24.6003 O   0  0  0  0  0  0  0  0  0  0  0  0
    0.7925    3.0380   23.6359 H   0  0  0  0  0  0  0  0  0  0  0  0
    3.7621    6.5750   24.9111 H   0  0  0  0  0  0  0  0  0  0  0  0
   -0.7157   10.0725   24.7020 C   0  0  0  0  0  0  0  0  0  0  0  0
   -1.8122   10.6225   24.0721 C   0  0  0  0  0  0  0  0  0  0  0  0
   -3.0590   10.6279   24.6943 C   0  0  0  0  0  0  0  0  0  0  0  0
   -0.8338    9.5062   25.9641 C   0  0  0  0  0  0  0  0  0  0  0  0
   -3.1940   10.0475   25.9606 C   0  0  0  0  0  0  0  0  0  0  0  0
   -2.0820    9.4858   26.5682 C   0  0  0  0  0  0  0  0  0  0  0  0
   -1.6612   11.1240   22.8307 F   0  0  0  0  0  0  0  0  0  0  0  0
 14  8  1  0  0  0
  8  9  2  0  0  0
  8 13  1  0  0  0
 23 22  2  0  0  0
 23 21  1  0  0  0
  9 10  1  0  0  0
 13 12  2  0  0  0
 22 20  1  0  0  0
 21 18  2  0  0  0
 10 15  1  0  0  0
 10 11  2  0  0  0
 12 11  1  0  0  0
 20 19  2  0  0  0
 11  1  1  0  0  0
 18 19  1  0  0  0
 18  5  1  0  0  0
 19 24  1  0  0  0
  1  5  1  0  0  0
  1  3  2  0  0  0
  5  2  1  0  0  0
  3  4  1  0  0  0
  2  6  2  0  0  0
  2  4  1  0  0  0
 14 16  1  0  0  0
 15 17  1  0  0  0
  4  7  1  0  0  0
M  END
> <minimizedAffinity>
-6.93462

$$$$
5J64_6G7_A_301


 24 26  0  0  0  0  0  0  0  0999 V2000
   -1.3692    9.1243   26.0925 C   0  0  0  0  0  0  0  0  0  0  0  0
   -1.8798   10.2346   24.2205 C   0  0  0  0  0  0  0  0  0  0  0  0
   -2.2782   10.0086   26.4229 N   0  0  0  0  0  0  0  0  0  0  0  0
   -2.6295   10.6832   25.2322 N   0  0  0  0  0  0  0  0  0  0  0  0
   -1.0808    9.2522   24.7168 N   0  0  0  0  0  0  0  0  0  0  0  0
   -1.9310   10.6264   23.0657 O   0  0  0  0  0  0  0  0  0  0  0  0
   -3.3221   11.3789   25.1587 H   0  0  0  0  0  0  0  0  0  0  0  0
    0.7157    6.7757   28.9056 C   0  0  0  0  0  0  0  0  0  0  0  0
   -0.6721    6.9232   29.0449 C   0  0  0  0  0  0  0  0  0  0  0  0
   -1.3632    7.6723   28.1183 C   0  0  0  0  0  0  0  0  0  0  0  0
   -0.6959    8.2438   27.0361 C   0  0  0  0  0  0  0  0  0  0  0  0
    0.6915    8.0987   26.9081 C   0  0  0  0  0  0  0  0  0  0  0  0
    1.3846    7.3448   27.8349 C   0  0  0  0  0  0  0  0  0  0  0  0
    1.4272    6.1031   29.8470 O   0  0  0  0  0  0  0  0  0  0  0  0
   -2.7196    7.8126   28.2210 O   0  0  0  0  0  0  0  0  0  0  0  0
    0.9875    5.7131   30.5767 H   0  0  0  0  0  0  0  0  0  0  0  0
   -3.1765    7.4318   28.9450 H   0  0  0  0  0  0  0  0  0  0  0  0
   -0.1151    8.5364   23.9528 C   0  0  0  0  0  0  0  0  0  0  0  0
   -0.4238    7.2319   23.6297 C   0  0  0  0  0  0  0  0  0  0  0  0
    0.4882    6.4377   22.9375 C   0  0  0  0  0  0  0  0  0  0  0  0
    1.1063    9.0867   23.5879 C   0  0  0  0  0  0  0  0  0  0  0  0
    1.7171    6.9851   22.5517 C   0  0  0  0  0  0  0  0  0  0  0  0
    1.9998    8.3036   22.8726 C   0  0  0  0  0  0  0  0  0  0  0  0
   -1.6366    6.7514   23.9671 F   0  0  0  0  0  0  0  0  0  0  0  0
 14  8  1  0  0  0
  8  9  2  0  0  0
  8 13  1  0  0  0
 23 22  2  0  0  0
 23 21  1  0  0  0
  9 10  1  0  0  0
 13 12  2  0  0  0
 22 20  1  0  0  0
 21 18  2  0  0  0
 10 15  1  0  0  0
 10 11  2  0  0  0
 12 11  1  0  0  0
 20 19  2  0  0  0
 11  1  1  0  0  0
 18 19  1  0  0  0
 18  5  1  0  0  0
 19 24  1  0  0  0
  1  5  1  0  0  0
  1  3  2  0  0  0
  5  2  1  0  0  0
  3  4  1  0  0  0
  2  6  2  0  0  0
  2  4  1  0  0  0
 14 16  1  0  0  0
 15 17  1  0  0  0
  4  7  1  0  0  0
M  END
> <minimizedAffinity>
-6.78306

$$$$
