4BCS_BTN_A_1128


 19 20  0  0  0  0  0  0  0  0999 V2000
   69.4465   -3.3986   31.6864 C   0  0  0  0  0  0  0  0  0  0  0  0
   70.9231   -2.7384   32.4344 S   0  0  0  0  0  0  0  0  0  0  0  0
   71.0588   -1.5261   31.1112 C   0  0  0  0  0  0  0  0  0  0  0  0
   69.6153   -1.1509   30.7138 C   0  0  0  0  0  0  0  0  0  0  0  0
   69.2453    0.0264   31.4950 N   0  0  0  0  0  0  0  0  0  0  0  0
   68.2609   -0.2348   32.3665 C   0  0  0  0  0  0  0  0  0  0  0  0
   67.7195    0.5863   33.0869 O   0  0  0  0  0  0  0  0  0  0  0  0
   67.9217   -1.5284   32.3055 N   0  0  0  0  0  0  0  0  0  0  0  0
   68.6141   -2.2132   31.2038 C   0  0  0  0  0  0  0  0  0  0  0  0
   69.6695    0.9090   31.3934 H   0  0  0  0  0  0  0  0  0  0  0  0
   67.2891   -1.9657   32.9202 H   0  0  0  0  0  0  0  0  0  0  0  0
   68.6700   -4.3277   32.6741 C   0  0  0  0  0  0  0  0  0  0  0  0
   69.1904   -5.7625   32.5156 C   0  0  0  0  0  0  0  0  0  0  0  0
   68.7759   -6.5619   33.7569 C   0  0  0  0  0  0  0  0  0  0  0  0
   69.5033   -7.9106   33.8943 C   0  0  0  0  0  0  0  0  0  0  0  0
   69.3307   -8.8523   32.7399 C   0  0  0  0  0  0  0  0  0  0  0  0
   68.1974   -9.4615   32.7016 O   0  0  0  0  0  0  0  0  0  0  0  0
   70.2634   -9.0212   31.8956 O   0  0  0  0  0  0  0  0  0  0  0  0
   71.0656   -8.5447   31.9821 H   0  0  0  0  0  0  0  0  0  0  0  0
 16 17  2  0  0  0
 16 18  1  0  0  0
 16 15  1  0  0  0
 15 14  1  0  0  0
 14 13  1  0  0  0
 13 12  1  0  0  0
 12  1  1  0  0  0
  1  2  1  0  0  0
  1  9  1  0  0  0
  2  3  1  0  0  0
  3  4  1  0  0  0
  4  5  1  0  0  0
  4  9  1  0  0  0
  5  6  1  0  0  0
  6  7  2  0  0  0
  6  8  1  0  0  0
  8  9  1  0  0  0
 18 19  1  0  0  0
  5 10  1  0  0  0
  8 11  1  0  0  0
M  END
> <minimizedAffinity>
-8.86955

$$$$
4BCS_BTN_A_1128


 19 20  0  0  0  0  0  0  0  0999 V2000
   69.6090   -3.9298   31.8473 C   0  0  0  0  0  0  0  0  0  0  0  0
   71.1065   -2.9752   31.9953 S   0  0  0  0  0  0  0  0  0  0  0  0
   70.6275   -1.9907   30.5668 C   0  0  0  0  0  0  0  0  0  0  0  0
   69.0894   -1.8705   30.6161 C   0  0  0  0  0  0  0  0  0  0  0  0
   68.7763   -0.6362   31.3313 N   0  0  0  0  0  0  0  0  0  0  0  0
   68.1603   -0.8712   32.4984 C   0  0  0  0  0  0  0  0  0  0  0  0
   67.7289   -0.0169   33.2536 O   0  0  0  0  0  0  0  0  0  0  0  0
   68.0452   -2.1893   32.7022 N   0  0  0  0  0  0  0  0  0  0  0  0
   68.4799   -2.9544   31.5241 C   0  0  0  0  0  0  0  0  0  0  0  0
   68.9924    0.2636   30.9954 H   0  0  0  0  0  0  0  0  0  0  0  0
   67.7119   -2.5949   33.5351 H   0  0  0  0  0  0  0  0  0  0  0  0
   69.3374   -4.7729   33.1346 C   0  0  0  0  0  0  0  0  0  0  0  0
   69.9901   -6.1518   32.9692 C   0  0  0  0  0  0  0  0  0  0  0  0
   69.0993   -7.1894   33.6632 C   0  0  0  0  0  0  0  0  0  0  0  0
   69.0480   -8.5444   32.9364 C   0  0  0  0  0  0  0  0  0  0  0  0
   69.8176   -8.6115   31.6508 C   0  0  0  0  0  0  0  0  0  0  0  0
   71.0274   -9.0363   31.7644 O   0  0  0  0  0  0  0  0  0  0  0  0
   69.2851   -8.2503   30.5566 O   0  0  0  0  0  0  0  0  0  0  0  0
   68.3975   -7.9505   30.5440 H   0  0  0  0  0  0  0  0  0  0  0  0
 16 17  2  0  0  0
 16 18  1  0  0  0
 16 15  1  0  0  0
 15 14  1  0  0  0
 14 13  1  0  0  0
 13 12  1  0  0  0
 12  1  1  0  0  0
  1  2  1  0  0  0
  1  9  1  0  0  0
  2  3  1  0  0  0
  3  4  1  0  0  0
  4  5  1  0  0  0
  4  9  1  0  0  0
  5  6  1  0  0  0
  6  7  2  0  0  0
  6  8  1  0  0  0
  8  9  1  0  0  0
 18 19  1  0  0  0
  5 10  1  0  0  0
  8 11  1  0  0  0
M  END
> <minimizedAffinity>
-7.31018

$$$$
4BCS_BTN_A_1128


 19 20  0  0  0  0  0  0  0  0999 V2000
   68.5482   -3.7746   32.6713 C   0  0  0  0  0  0  0  0  0  0  0  0
   68.0005   -2.9408   31.1946 S   0  0  0  0  0  0  0  0  0  0  0  0
   68.5482   -1.3663   31.8731 C   0  0  0  0  0  0  0  0  0  0  0  0
   69.8078   -1.6678   32.7127 C   0  0  0  0  0  0  0  0  0  0  0  0
   70.9634   -1.4758   31.8404 N   0  0  0  0  0  0  0  0  0  0  0  0
   71.6180   -2.6226   31.6097 C   0  0  0  0  0  0  0  0  0  0  0  0
   72.6534   -2.7290   30.9750 O   0  0  0  0  0  0  0  0  0  0  0  0
   70.9935   -3.6402   32.2151 N   0  0  0  0  0  0  0  0  0  0  0  0
   69.8914   -3.1646   33.0644 C   0  0  0  0  0  0  0  0  0  0  0  0
   71.2304   -0.6055   31.4654 H   0  0  0  0  0  0  0  0  0  0  0  0
   71.2408   -4.5869   32.1056 H   0  0  0  0  0  0  0  0  0  0  0  0
   68.6181   -5.3217   32.4634 C   0  0  0  0  0  0  0  0  0  0  0  0
   68.4288   -6.0119   33.8207 C   0  0  0  0  0  0  0  0  0  0  0  0
   69.1708   -7.3534   33.7831 C   0  0  0  0  0  0  0  0  0  0  0  0
   69.3660   -7.9118   32.3629 C   0  0  0  0  0  0  0  0  0  0  0  0
   70.2265   -9.1365   32.2684 C   0  0  0  0  0  0  0  0  0  0  0  0
   70.0492   -9.9978   33.2085 O   0  0  0  0  0  0  0  0  0  0  0  0
   71.0671   -9.2674   31.3263 O   0  0  0  0  0  0  0  0  0  0  0  0
   71.1454   -8.6009   30.6724 H   0  0  0  0  0  0  0  0  0  0  0  0
 16 17  2  0  0  0
 16 18  1  0  0  0
 16 15  1  0  0  0
 15 14  1  0  0  0
 14 13  1  0  0  0
 13 12  1  0  0  0
 12  1  1  0  0  0
  1  2  1  0  0  0
  1  9  1  0  0  0
  2  3  1  0  0  0
  3  4  1  0  0  0
  4  5  1  0  0  0
  4  9  1  0  0  0
  5  6  1  0  0  0
  6  7  2  0  0  0
  6  8  1  0  0  0
  8  9  1  0  0  0
 18 19  1  0  0  0
  5 10  1  0  0  0
  8 11  1  0  0  0
M  END
> <minimizedAffinity>
-6.93518

$$$$
4BCS_BTN_A_1128


 19 20  0  0  0  0  0  0  0  0999 V2000
   69.6170   -7.1844   32.9247 C   0  0  0  0  0  0  0  0  0  0  0  0
   69.6299   -7.5892   31.1893 S   0  0  0  0  0  0  0  0  0  0  0  0
   70.6820   -9.0110   31.5224 C   0  0  0  0  0  0  0  0  0  0  0  0
   70.2561   -9.5545   32.9029 C   0  0  0  0  0  0  0  0  0  0  0  0
   69.2552  -10.5918   32.6676 N   0  0  0  0  0  0  0  0  0  0  0  0
   68.0491  -10.2460   33.1393 C   0  0  0  0  0  0  0  0  0  0  0  0
   67.0591  -10.9574   33.1357 O   0  0  0  0  0  0  0  0  0  0  0  0
   68.0930   -9.0130   33.6590 N   0  0  0  0  0  0  0  0  0  0  0  0
   69.4684   -8.4944   33.6945 C   0  0  0  0  0  0  0  0  0  0  0  0
   69.4443  -11.4456   32.2153 H   0  0  0  0  0  0  0  0  0  0  0  0
   67.3045   -8.5166   33.9770 H   0  0  0  0  0  0  0  0  0  0  0  0
   68.4979   -6.1476   33.2629 C   0  0  0  0  0  0  0  0  0  0  0  0
   68.4685   -5.0761   32.1649 C   0  0  0  0  0  0  0  0  0  0  0  0
   69.6357   -4.1113   32.4061 C   0  0  0  0  0  0  0  0  0  0  0  0
   69.6149   -2.8753   31.4901 C   0  0  0  0  0  0  0  0  0  0  0  0
   70.9353   -2.1867   31.3129 C   0  0  0  0  0  0  0  0  0  0  0  0
   70.8670   -0.9079   31.1823 O   0  0  0  0  0  0  0  0  0  0  0  0
   72.0153   -2.8531   31.2817 O   0  0  0  0  0  0  0  0  0  0  0  0
   71.9942   -3.7843   31.3836 H   0  0  0  0  0  0  0  0  0  0  0  0
 16 17  2  0  0  0
 16 18  1  0  0  0
 16 15  1  0  0  0
 15 14  1  0  0  0
 14 13  1  0  0  0
 13 12  1  0  0  0
 12  1  1  0  0  0
  1  2  1  0  0  0
  1  9  1  0  0  0
  2  3  1  0  0  0
  3  4  1  0  0  0
  4  5  1  0  0  0
  4  9  1  0  0  0
  5  6  1  0  0  0
  6  7  2  0  0  0
  6  8  1  0  0  0
  8  9  1  0  0  0
 18 19  1  0  0  0
  5 10  1  0  0  0
  8 11  1  0  0  0
M  END
> <minimizedAffinity>
-6.53084

$$$$
4BCS_BTN_A_1128


 19 20  0  0  0  0  0  0  0  0999 V2000
   70.3302   -3.0684   32.6581 C   0  0  0  0  0  0  0  0  0  0  0  0
   68.6328   -2.7771   33.1161 S   0  0  0  0  0  0  0  0  0  0  0  0
   69.0049   -1.0418   33.4152 C   0  0  0  0  0  0  0  0  0  0  0  0
   70.0797   -0.6420   32.3820 C   0  0  0  0  0  0  0  0  0  0  0  0
   69.3804   -0.0944   31.2225 N   0  0  0  0  0  0  0  0  0  0  0  0
   69.5288   -0.8627   30.1341 C   0  0  0  0  0  0  0  0  0  0  0  0
   69.1078   -0.5987   29.0209 O   0  0  0  0  0  0  0  0  0  0  0  0
   70.2474   -1.9520   30.4327 N   0  0  0  0  0  0  0  0  0  0  0  0
   70.7780   -1.8860   31.8025 C   0  0  0  0  0  0  0  0  0  0  0  0
   68.8607    0.7415   31.2384 H   0  0  0  0  0  0  0  0  0  0  0  0
   70.4012   -2.7020   29.8137 H   0  0  0  0  0  0  0  0  0  0  0  0
   70.5009   -4.4436   31.9359 C   0  0  0  0  0  0  0  0  0  0  0  0
   69.2351   -5.2810   32.1618 C   0  0  0  0  0  0  0  0  0  0  0  0
   69.6482   -6.6072   32.8118 C   0  0  0  0  0  0  0  0  0  0  0  0
   69.3570   -7.8400   31.9387 C   0  0  0  0  0  0  0  0  0  0  0  0
   70.2123   -9.0398   32.2185 C   0  0  0  0  0  0  0  0  0  0  0  0
   70.0039   -9.6006   33.3582 O   0  0  0  0  0  0  0  0  0  0  0  0
   71.0777   -9.4301   31.3758 O   0  0  0  0  0  0  0  0  0  0  0  0
   71.1781   -8.9754   30.5626 H   0  0  0  0  0  0  0  0  0  0  0  0
 16 17  2  0  0  0
 16 18  1  0  0  0
 16 15  1  0  0  0
 15 14  1  0  0  0
 14 13  1  0  0  0
 13 12  1  0  0  0
 12  1  1  0  0  0
  1  2  1  0  0  0
  1  9  1  0  0  0
  2  3  1  0  0  0
  3  4  1  0  0  0
  4  5  1  0  0  0
  4  9  1  0  0  0
  5  6  1  0  0  0
  6  7  2  0  0  0
  6  8  1  0  0  0
  8  9  1  0  0  0
 18 19  1  0  0  0
  5 10  1  0  0  0
  8 11  1  0  0  0
M  END
> <minimizedAffinity>
-6.49806

$$$$
4BCS_BTN_A_1128


 19 20  0  0  0  0  0  0  0  0999 V2000
   68.5505   -6.9651   32.5646 C   0  0  0  0  0  0  0  0  0  0  0  0
   69.3758   -7.2514   34.1178 S   0  0  0  0  0  0  0  0  0  0  0  0
   68.8268   -8.9654   34.1006 C   0  0  0  0  0  0  0  0  0  0  0  0
   68.8161   -9.4049   32.6210 C   0  0  0  0  0  0  0  0  0  0  0  0
   70.1126  -10.0177   32.3441 N   0  0  0  0  0  0  0  0  0  0  0  0
   70.8316   -9.3037   31.4666 C   0  0  0  0  0  0  0  0  0  0  0  0
   71.9154   -9.6280   31.0121 O   0  0  0  0  0  0  0  0  0  0  0  0
   70.1683   -8.1930   31.1221 N   0  0  0  0  0  0  0  0  0  0  0  0
   68.8090   -8.1842   31.6826 C   0  0  0  0  0  0  0  0  0  0  0  0
   70.4224  -10.8575   32.7541 H   0  0  0  0  0  0  0  0  0  0  0  0
   70.5431   -7.4734   30.5644 H   0  0  0  0  0  0  0  0  0  0  0  0
   69.0158   -5.6263   31.9067 C   0  0  0  0  0  0  0  0  0  0  0  0
   68.8261   -4.4870   32.9170 C   0  0  0  0  0  0  0  0  0  0  0  0
   68.8843   -3.1572   32.1554 C   0  0  0  0  0  0  0  0  0  0  0  0
   69.2964   -1.9614   33.0312 C   0  0  0  0  0  0  0  0  0  0  0  0
   68.7353   -0.6356   32.6107 C   0  0  0  0  0  0  0  0  0  0  0  0
   67.7035   -0.2479   33.2755 O   0  0  0  0  0  0  0  0  0  0  0  0
   69.2574    0.0156   31.6543 O   0  0  0  0  0  0  0  0  0  0  0  0
   70.0099   -0.3246   31.2115 H   0  0  0  0  0  0  0  0  0  0  0  0
 16 17  2  0  0  0
 16 18  1  0  0  0
 16 15  1  0  0  0
 15 14  1  0  0  0
 14 13  1  0  0  0
 13 12  1  0  0  0
 12  1  1  0  0  0
  1  2  1  0  0  0
  1  9  1  0  0  0
  2  3  1  0  0  0
  3  4  1  0  0  0
  4  5  1  0  0  0
  4  9  1  0  0  0
  5  6  1  0  0  0
  6  7  2  0  0  0
  6  8  1  0  0  0
  8  9  1  0  0  0
 18 19  1  0  0  0
  5 10  1  0  0  0
  8 11  1  0  0  0
M  END
> <minimizedAffinity>
-6.42154

$$$$
