5OV8_AXN_A_801
  RCSB PDB06231805403D
Coordinates from PDB:5OV8:A:801 Model:1 without hydrogens
 33 36  0  0  0  0            999 V2000
   22.0340    5.1770   16.4850   C 0  0  0  0  0  0  0  0  0  0  0  0
   23.4520    5.2320   18.5270   C 0  0  0  0  0  0  0  0  0  0  0  0
   18.9940   -2.4030   17.0140   C 0  0  0  0  0  0  0  0  0  0  0  0
   16.2530    0.6560   13.0790   C 0  0  0  0  0  0  0  0  0  0  0  0
   23.8660    2.3990   14.6780   C 0  0  0  0  0  0  0  0  0  0  0  0
   23.8080    1.5640   16.9390   C 0  0  0  0  0  0  0  0  0  0  0  0
   23.6730    1.1100   14.1940   C 0  0  0  0  0  0  0  0  0  0  0  0
   23.6130    0.2760   16.4550   C 0  0  0  0  0  0  0  0  0  0  0  0
   20.2890   -1.5670   14.6880   C 0  0  0  0  0  0  0  0  0  0  0  0
   18.9210   -0.0630   12.7540   C 0  0  0  0  0  0  0  0  0  0  0  0
   22.0230    0.2930    9.4490   C 0  0  0  0  0  0  0  0  0  0  0  0
   21.2330    1.5510    9.7570   C 0  0  0  0  0  0  0  0  0  0  0  0
   21.2250   -0.7400   10.2350   C 0  0  0  0  0  0  0  0  0  0  0  0
   21.1860    1.4440   11.2680   C 0  0  0  0  0  0  0  0  0  0  0  0
   24.1500    3.9090   16.5380   C 0  0  0  0  0  0  0  0  0  0  0  0
   23.9420    2.6240   16.0490   C 0  0  0  0  0  0  0  0  0  0  0  0
   20.9310   -1.1530   13.5300   C 0  0  0  0  0  0  0  0  0  0  0  0
   23.5450    0.0510   15.0890   C 0  0  0  0  0  0  0  0  0  0  0  0
   20.2490   -0.4110   12.5720   C 0  0  0  0  0  0  0  0  0  0  0  0
   17.0100   -1.2770   16.1610   C 0  0  0  0  0  0  0  0  0  0  0  0
   16.3370   -0.5270   15.2020   C 0  0  0  0  0  0  0  0  0  0  0  0
   18.9420   -1.2180   14.8720   C 0  0  0  0  0  0  0  0  0  0  0  0
   18.2650   -0.4680   13.9110   C 0  0  0  0  0  0  0  0  0  0  0  0
   22.9610    4.3580   17.3730   C 0  0  0  0  0  0  0  0  0  0  0  0
   22.2090   -1.4410   13.2440   N 0  0  0  0  0  0  0  0  0  0  0  0
   20.8520    0.0060   11.4650   N 0  0  0  0  0  0  0  0  0  0  0  0
   18.2980   -1.6050   15.9810   N 0  0  0  0  0  0  0  0  0  0  0  0
   16.9750   -0.1410   14.0880   N 0  0  0  0  0  0  0  0  0  0  0  0
   16.4400   -1.6450   17.1880   O 0  0  0  0  0  0  0  0  0  0  0  0
   15.1580   -0.2180   15.3570   O 0  0  0  0  0  0  0  0  0  0  0  0
   24.5850   -2.1040   13.8640   O 0  0  0  0  0  0  0  0  0  0  0  0
   22.8710   -2.5000   15.6040   O 0  0  0  0  0  0  0  0  0  0  0  0
   23.2960   -1.5660   14.4700   S 0  0  0  0  0  0  0  0  0  0  0  0
 11 12  1  0  0  0  0
 11 13  1  0  0  0  0
 12 14  1  0  0  0  0
 13 26  1  0  0  0  0
 14 26  1  0  0  0  0
 26 19  1  0  0  0  0
 19 10  2  0  0  0  0
 19 17  1  0  0  0  0
 10 23  1  0  0  0  0
  4 28  1  0  0  0  0
 25 17  1  0  0  0  0
 25 33  1  0  0  0  0
 17  9  2  0  0  0  0
 31 33  2  0  0  0  0
 23 28  1  0  0  0  0
 23 22  2  0  0  0  0
 28 21  1  0  0  0  0
  7  5  2  0  0  0  0
  7 18  1  0  0  0  0
 33 18  1  0  0  0  0
 33 32  2  0  0  0  0
  5 16  1  0  0  0  0
  9 22  1  0  0  0  0
 22 27  1  0  0  0  0
 18  8  2  0  0  0  0
 21 30  2  0  0  0  0
 21 20  1  0  0  0  0
 27 20  1  0  0  0  0
 27  3  1  0  0  0  0
 16 15  1  0  0  0  0
 16  6  2  0  0  0  0
 20 29  2  0  0  0  0
  8  6  1  0  0  0  0
  1 24  1  0  0  0  0
 15 24  1  0  0  0  0
 24  2  1  0  0  0  0
A    1
CAA
A    2
CAB
A    3
CAC
A    4
CAD
A    5
CAI
A    6
CAJ
A    7
CAK
A    8
CAL
A    9
CAM
A   10
CAN
A   11
CAO
A   12
CAP
A   13
CAQ
A   14
CAR
A   15
CAS
A   16
CAU
A   17
CAV
A   18
CAW
A   19
CAX
A   20
CAY
A   21
CAZ
A   22
CBA
A   23
CBB
A   24
CBC
A   25
NAT
A   26
NBD
A   27
NBE
A   28
NBF
A   29
OAE
A   30
OAF
A   31
OAG
A   32
OAH
A   33
SBG
M  END
>  <InstanceId>
5OV8_AXN_A_801

>  <ChemCompId>
AXN

>  <PdbId>
5OV8

>  <ChainId>
A

>  <ResidueNumber>
801

>  <InsertionCode>


>  <Model>
1

>  <AltIds>


>  <MissingHeavyAtoms>
0

>  <ObservedFormula>
C24 N4 O4 S

>  <Name>
~{N}-[1,4-dimethyl-2,3-bis(oxidanylidene)-7-pyrrolidin-1-yl-quinoxalin-6-yl]-4-(2-methylpropyl)benzenesulfonamide

>  <SystematicName>
~{N}-[1,4-dimethyl-2,3-bis(oxidanylidene)-7-pyrrolidin-1-yl-quinoxalin-6-yl]-4-(2-methylpropyl)benzenesulfonamide

>  <Synonyms>


>  <Type>
NON-POLYMER

>  <Formula>
C24 H30 N4 O4 S

>  <MolecularWeight>
470.584

>  <ModifiedDate>
2018-06-22

>  <Parent>


>  <OneLetterCode>


>  <SubcomponentList>


>  <AmbiguousFlag>
N

>  <InChI>
InChI=1S/C24H30N4O4S/c1-16(2)13-17-7-9-18(10-8-17)33(31,32)25-19-14-21-22(15-20(19)28-11-5-6-12-28)27(4)24(30)23(29)26(21)3/h7-10,14-16,25H,5-6,11-13H2,1-4H3

>  <InChIKey>
SSZHAOLXDMZGQV-UHFFFAOYSA-N

>  <SMILES>
CC(C)Cc1ccc(cc1)S(=O)(=O)Nc2cc3c(cc2N4CCCC4)N(C(=O)C(=O)N3C)C

$$$$
