1PXN_CK6_A_500


 25 27  0  0  0  0  0  0  0  0999 V2000
    0.1685    5.0557   26.6301 C   0  0  0  0  0  0  0  0  0  0  0  0
    0.0477    3.6749   26.8400 C   0  0  0  0  0  0  0  0  0  0  0  0
    1.0866    5.7938   27.2967 N   0  0  0  0  0  0  0  0  0  0  0  0
    1.9259    5.2154   28.2065 C   0  0  0  0  0  0  0  0  0  0  0  0
    1.8852    3.8715   28.4788 N   0  0  0  0  0  0  0  0  0  0  0  0
    0.9429    3.1570   27.7784 C   0  0  0  0  0  0  0  0  0  0  0  0
   -3.2310    5.4515   26.3282 C   0  0  0  0  0  0  0  0  0  0  0  0
   -2.0545    5.9529   25.5435 C   0  0  0  0  0  0  0  0  0  0  0  0
   -2.3519    6.7423   24.4892 N   0  0  0  0  0  0  0  0  0  0  0  0
   -1.3816    7.2186   23.7721 C   0  0  0  0  0  0  0  0  0  0  0  0
   -0.7071    5.7841   25.6729 C   0  0  0  0  0  0  0  0  0  0  0  0
    0.1696    6.6875   24.3863 S   0  0  0  0  0  0  0  0  0  0  0  0
   -1.6282    7.9997   22.7288 N   0  0  0  0  0  0  0  0  0  0  0  0
   -2.7576    8.9191   22.5707 C   0  0  0  0  0  0  0  0  0  0  0  0
   -0.9859    7.9573   21.9839 H   0  0  0  0  0  0  0  0  0  0  0  0
    2.8276    5.9490   28.8718 N   0  0  0  0  0  0  0  0  0  0  0  0
    2.9815    5.6746   29.8047 H   0  0  0  0  0  0  0  0  0  0  0  0
    3.5823    7.0427   28.4457 C   0  0  0  0  0  0  0  0  0  0  0  0
    3.2458    7.8000   27.3091 C   0  0  0  0  0  0  0  0  0  0  0  0
    3.9640    8.8797   26.8554 C   0  0  0  0  0  0  0  0  0  0  0  0
    4.7555    7.4657   29.1372 C   0  0  0  0  0  0  0  0  0  0  0  0
    5.5070    8.5784   28.6882 C   0  0  0  0  0  0  0  0  0  0  0  0
    5.1051    9.2881   27.5366 C   0  0  0  0  0  0  0  0  0  0  0  0
    5.7842   10.3893   27.0220 O   0  0  0  0  0  0  0  0  0  0  0  0
    5.4659   10.8183   26.2522 H   0  0  0  0  0  0  0  0  0  0  0  0
  7  8  1  0  0  0
  8  9  1  0  0  0
  8 11  2  0  0  0
  9 10  2  0  0  0
 10 13  1  0  0  0
 10 12  1  0  0  0
 13 14  1  0  0  0
 11 12  1  0  0  0
 11  1  1  0  0  0
  1  2  2  0  0  0
  1  3  1  0  0  0
  2  6  1  0  0  0
  3  4  2  0  0  0
  4  5  1  0  0  0
  4 16  1  0  0  0
  5  6  2  0  0  0
 16 18  1  0  0  0
 18 19  2  0  0  0
 18 21  1  0  0  0
 19 20  1  0  0  0
 20 23  2  0  0  0
 21 22  2  0  0  0
 22 23  1  0  0  0
 23 24  1  0  0  0
 13 15  1  0  0  0
 16 17  1  0  0  0
 24 25  1  0  0  0
M  END
> <minimizedAffinity>
-9.55491

$$$$
1PXN_CK6_A_500


 25 27  0  0  0  0  0  0  0  0999 V2000
   -0.5491    9.2339   23.9874 C   0  0  0  0  0  0  0  0  0  0  0  0
   -1.4048    9.7327   22.9954 C   0  0  0  0  0  0  0  0  0  0  0  0
   -0.8269    8.0856   24.6479 N   0  0  0  0  0  0  0  0  0  0  0  0
   -1.9607    7.3744   24.3730 C   0  0  0  0  0  0  0  0  0  0  0  0
   -2.8580    7.7806   23.4181 N   0  0  0  0  0  0  0  0  0  0  0  0
   -2.5374    8.9480   22.7674 C   0  0  0  0  0  0  0  0  0  0  0  0
    0.7659   12.3262   23.2712 C   0  0  0  0  0  0  0  0  0  0  0  0
    1.2343   11.1663   24.0997 C   0  0  0  0  0  0  0  0  0  0  0  0
    2.4190   11.3381   24.7243 N   0  0  0  0  0  0  0  0  0  0  0  0
    2.8795   10.3782   25.4653 C   0  0  0  0  0  0  0  0  0  0  0  0
    0.7024    9.9402   24.3725 C   0  0  0  0  0  0  0  0  0  0  0  0
    1.7837    9.0127   25.4729 S   0  0  0  0  0  0  0  0  0  0  0  0
    4.0382   10.5051   26.0985 N   0  0  0  0  0  0  0  0  0  0  0  0
    4.5404    9.6586   27.1835 C   0  0  0  0  0  0  0  0  0  0  0  0
    4.6206   11.2444   25.8096 H   0  0  0  0  0  0  0  0  0  0  0  0
   -2.2385    6.2432   25.0341 N   0  0  0  0  0  0  0  0  0  0  0  0
   -3.1836    5.9683   25.0107 H   0  0  0  0  0  0  0  0  0  0  0  0
   -1.3941    5.3945   25.7509 C   0  0  0  0  0  0  0  0  0  0  0  0
   -0.3012    5.8672   26.4998 C   0  0  0  0  0  0  0  0  0  0  0  0
    0.5546    5.0649   27.2150 C   0  0  0  0  0  0  0  0  0  0  0  0
   -1.5823    3.9811   25.7687 C   0  0  0  0  0  0  0  0  0  0  0  0
   -0.7139    3.1375   26.5028 C   0  0  0  0  0  0  0  0  0  0  0  0
    0.3630    3.6880   27.2300 C   0  0  0  0  0  0  0  0  0  0  0  0
    1.2670    2.9354   27.9751 O   0  0  0  0  0  0  0  0  0  0  0  0
    1.9624    3.3611   28.4369 H   0  0  0  0  0  0  0  0  0  0  0  0
  7  8  1  0  0  0
  8  9  1  0  0  0
  8 11  2  0  0  0
  9 10  2  0  0  0
 10 13  1  0  0  0
 10 12  1  0  0  0
 13 14  1  0  0  0
 11 12  1  0  0  0
 11  1  1  0  0  0
  1  2  2  0  0  0
  1  3  1  0  0  0
  2  6  1  0  0  0
  3  4  2  0  0  0
  4  5  1  0  0  0
  4 16  1  0  0  0
  5  6  2  0  0  0
 16 18  1  0  0  0
 18 19  2  0  0  0
 18 21  1  0  0  0
 19 20  1  0  0  0
 20 23  2  0  0  0
 21 22  2  0  0  0
 22 23  1  0  0  0
 23 24  1  0  0  0
 13 15  1  0  0  0
 16 17  1  0  0  0
 24 25  1  0  0  0
M  END
> <minimizedAffinity>
-8.53370

$$$$
1PXN_CK6_A_500


 25 27  0  0  0  0  0  0  0  0999 V2000
   -0.6878    9.2867   23.9050 C   0  0  0  0  0  0  0  0  0  0  0  0
   -1.6093    9.7675   22.9644 C   0  0  0  0  0  0  0  0  0  0  0  0
   -0.9061    8.1361   24.5835 N   0  0  0  0  0  0  0  0  0  0  0  0
   -2.0418    7.4048   24.3781 C   0  0  0  0  0  0  0  0  0  0  0  0
   -3.0011    7.7924   23.4772 N   0  0  0  0  0  0  0  0  0  0  0  0
   -2.7398    8.9630   22.8059 C   0  0  0  0  0  0  0  0  0  0  0  0
    2.1309    8.5243   25.7157 C   0  0  0  0  0  0  0  0  0  0  0  0
    1.6984    9.7244   24.9257 C   0  0  0  0  0  0  0  0  0  0  0  0
    2.5839   10.7429   24.8829 N   0  0  0  0  0  0  0  0  0  0  0  0
    2.2782   11.8085   24.2093 C   0  0  0  0  0  0  0  0  0  0  0  0
    0.5721   10.0155   24.2135 C   0  0  0  0  0  0  0  0  0  0  0  0
    0.6955   11.6533   23.4768 S   0  0  0  0  0  0  0  0  0  0  0  0
    3.1191   12.8320   24.1389 N   0  0  0  0  0  0  0  0  0  0  0  0
    3.6860   13.5785   25.2646 C   0  0  0  0  0  0  0  0  0  0  0  0
    3.3901   13.1196   23.2372 H   0  0  0  0  0  0  0  0  0  0  0  0
   -2.2604    6.2712   25.0572 N   0  0  0  0  0  0  0  0  0  0  0  0
   -3.1927    5.9550   25.0510 H   0  0  0  0  0  0  0  0  0  0  0  0
   -1.3696    5.4697   25.7722 C   0  0  0  0  0  0  0  0  0  0  0  0
   -1.4934    4.0700   25.8379 C   0  0  0  0  0  0  0  0  0  0  0  0
   -0.6406    3.2472   26.5331 C   0  0  0  0  0  0  0  0  0  0  0  0
   -0.2690    6.0209   26.4921 C   0  0  0  0  0  0  0  0  0  0  0  0
    0.6236    5.1897   27.2111 C   0  0  0  0  0  0  0  0  0  0  0  0
    0.4321    3.7917   27.2301 C   0  0  0  0  0  0  0  0  0  0  0  0
    1.2561    2.9004   27.9123 O   0  0  0  0  0  0  0  0  0  0  0  0
    1.0754    1.9814   27.8860 H   0  0  0  0  0  0  0  0  0  0  0  0
  7  8  1  0  0  0
  8  9  1  0  0  0
  8 11  2  0  0  0
  9 10  2  0  0  0
 10 13  1  0  0  0
 10 12  1  0  0  0
 13 14  1  0  0  0
 11 12  1  0  0  0
 11  1  1  0  0  0
  1  2  2  0  0  0
  1  3  1  0  0  0
  2  6  1  0  0  0
  3  4  2  0  0  0
  4  5  1  0  0  0
  4 16  1  0  0  0
  5  6  2  0  0  0
 16 18  1  0  0  0
 18 19  2  0  0  0
 18 21  1  0  0  0
 19 20  1  0  0  0
 20 23  2  0  0  0
 21 22  2  0  0  0
 22 23  1  0  0  0
 23 24  1  0  0  0
 13 15  1  0  0  0
 16 17  1  0  0  0
 24 25  1  0  0  0
M  END
> <minimizedAffinity>
-8.52604

$$$$
1PXN_CK6_A_500


 25 27  0  0  0  0  0  0  0  0999 V2000
   -0.8337    5.8368   26.1513 C   0  0  0  0  0  0  0  0  0  0  0  0
   -2.0608    5.2236   26.4400 C   0  0  0  0  0  0  0  0  0  0  0  0
   -0.7119    6.7345   25.1458 N   0  0  0  0  0  0  0  0  0  0  0  0
   -1.7854    7.0694   24.3699 C   0  0  0  0  0  0  0  0  0  0  0  0
   -3.0274    6.5245   24.5761 N   0  0  0  0  0  0  0  0  0  0  0  0
   -3.1102    5.6213   25.6088 C   0  0  0  0  0  0  0  0  0  0  0  0
    0.5087    2.9593   27.4639 C   0  0  0  0  0  0  0  0  0  0  0  0
    0.9451    4.3948   27.4490 C   0  0  0  0  0  0  0  0  0  0  0  0
    2.1191    4.6525   28.0642 N   0  0  0  0  0  0  0  0  0  0  0  0
    2.5612    5.8719   28.0808 C   0  0  0  0  0  0  0  0  0  0  0  0
    0.3988    5.5301   26.9263 C   0  0  0  0  0  0  0  0  0  0  0  0
    1.4583    6.9487   27.2503 S   0  0  0  0  0  0  0  0  0  0  0  0
    3.7106    6.1697   28.6722 N   0  0  0  0  0  0  0  0  0  0  0  0
    4.6716    7.1928   28.2533 C   0  0  0  0  0  0  0  0  0  0  0  0
    3.9417    5.6494   29.4754 H   0  0  0  0  0  0  0  0  0  0  0  0
   -1.6609    7.9511   23.3694 N   0  0  0  0  0  0  0  0  0  0  0  0
   -0.7355    8.2097   23.1547 H   0  0  0  0  0  0  0  0  0  0  0  0
   -2.6413    8.5595   22.5847 C   0  0  0  0  0  0  0  0  0  0  0  0
   -3.6843    9.3271   23.1340 C   0  0  0  0  0  0  0  0  0  0  0  0
   -4.6695    9.9383   22.3969 C   0  0  0  0  0  0  0  0  0  0  0  0
   -2.6532    8.4393   21.1639 C   0  0  0  0  0  0  0  0  0  0  0  0
   -3.6572    9.0649   20.3860 C   0  0  0  0  0  0  0  0  0  0  0  0
   -4.6728    9.8190   21.0117 C   0  0  0  0  0  0  0  0  0  0  0  0
   -5.6998   10.4638   20.3276 O   0  0  0  0  0  0  0  0  0  0  0  0
   -6.3454   10.9501   20.8015 H   0  0  0  0  0  0  0  0  0  0  0  0
  7  8  1  0  0  0
  8  9  1  0  0  0
  8 11  2  0  0  0
  9 10  2  0  0  0
 10 13  1  0  0  0
 10 12  1  0  0  0
 13 14  1  0  0  0
 11 12  1  0  0  0
 11  1  1  0  0  0
  1  2  2  0  0  0
  1  3  1  0  0  0
  2  6  1  0  0  0
  3  4  2  0  0  0
  4  5  1  0  0  0
  4 16  1  0  0  0
  5  6  2  0  0  0
 16 18  1  0  0  0
 18 19  2  0  0  0
 18 21  1  0  0  0
 19 20  1  0  0  0
 20 23  2  0  0  0
 21 22  2  0  0  0
 22 23  1  0  0  0
 23 24  1  0  0  0
 13 15  1  0  0  0
 16 17  1  0  0  0
 24 25  1  0  0  0
M  END
> <minimizedAffinity>
-8.46196

$$$$
1PXN_CK6_A_500


 25 27  0  0  0  0  0  0  0  0999 V2000
    1.0840    8.2042   25.4471 C   0  0  0  0  0  0  0  0  0  0  0  0
    2.3448    8.7500   25.7262 C   0  0  0  0  0  0  0  0  0  0  0  0
    0.1781    8.8687   24.6924 N   0  0  0  0  0  0  0  0  0  0  0  0
    0.4613   10.1034   24.1805 C   0  0  0  0  0  0  0  0  0  0  0  0
    1.6682   10.7188   24.3969 N   0  0  0  0  0  0  0  0  0  0  0  0
    2.5616   10.0097   25.1639 C   0  0  0  0  0  0  0  0  0  0  0  0
    2.1312    6.2338   28.0597 C   0  0  0  0  0  0  0  0  0  0  0  0
    1.0743    6.0831   27.0054 C   0  0  0  0  0  0  0  0  0  0  0  0
    0.3481    4.9465   27.0677 N   0  0  0  0  0  0  0  0  0  0  0  0
   -0.5895    4.7555   26.1919 C   0  0  0  0  0  0  0  0  0  0  0  0
    0.6713    6.8736   25.9694 C   0  0  0  0  0  0  0  0  0  0  0  0
   -0.6876    6.1015   25.0765 S   0  0  0  0  0  0  0  0  0  0  0  0
   -1.3284    3.6541   26.2172 N   0  0  0  0  0  0  0  0  0  0  0  0
   -2.1549    3.1290   25.1277 C   0  0  0  0  0  0  0  0  0  0  0  0
   -1.3206    3.1364   27.0545 H   0  0  0  0  0  0  0  0  0  0  0  0
   -0.4399   10.7633   23.4415 N   0  0  0  0  0  0  0  0  0  0  0  0
   -0.2966   11.7354   23.3796 H   0  0  0  0  0  0  0  0  0  0  0  0
   -1.5507   10.2846   22.7458 C   0  0  0  0  0  0  0  0  0  0  0  0
   -2.8687   10.4697   23.2013 C   0  0  0  0  0  0  0  0  0  0  0  0
   -3.9871   10.0112   22.5482 C   0  0  0  0  0  0  0  0  0  0  0  0
   -1.4223    9.5675   21.5200 C   0  0  0  0  0  0  0  0  0  0  0  0
   -2.5626    9.0904   20.8296 C   0  0  0  0  0  0  0  0  0  0  0  0
   -3.8541    9.3154   21.3520 C   0  0  0  0  0  0  0  0  0  0  0  0
   -5.0285    8.8800   20.7439 O   0  0  0  0  0  0  0  0  0  0  0  0
   -5.8572    9.0613   21.1418 H   0  0  0  0  0  0  0  0  0  0  0  0
  7  8  1  0  0  0
  8  9  1  0  0  0
  8 11  2  0  0  0
  9 10  2  0  0  0
 10 13  1  0  0  0
 10 12  1  0  0  0
 13 14  1  0  0  0
 11 12  1  0  0  0
 11  1  1  0  0  0
  1  2  2  0  0  0
  1  3  1  0  0  0
  2  6  1  0  0  0
  3  4  2  0  0  0
  4  5  1  0  0  0
  4 16  1  0  0  0
  5  6  2  0  0  0
 16 18  1  0  0  0
 18 19  2  0  0  0
 18 21  1  0  0  0
 19 20  1  0  0  0
 20 23  2  0  0  0
 21 22  2  0  0  0
 22 23  1  0  0  0
 23 24  1  0  0  0
 13 15  1  0  0  0
 16 17  1  0  0  0
 24 25  1  0  0  0
M  END
> <minimizedAffinity>
-8.34241

$$$$
1PXN_CK6_A_500


 25 27  0  0  0  0  0  0  0  0999 V2000
    0.4394    6.9418   25.6189 C   0  0  0  0  0  0  0  0  0  0  0  0
   -0.4306    5.9174   26.0174 C   0  0  0  0  0  0  0  0  0  0  0  0
    0.1926    7.6899   24.5182 N   0  0  0  0  0  0  0  0  0  0  0  0
   -0.9153    7.4653   23.7508 C   0  0  0  0  0  0  0  0  0  0  0  0
   -1.8260    6.4872   24.0606 N   0  0  0  0  0  0  0  0  0  0  0  0
   -1.5417    5.7534   25.1874 C   0  0  0  0  0  0  0  0  0  0  0  0
    2.0499    5.4813   28.2793 C   0  0  0  0  0  0  0  0  0  0  0  0
    2.3325    6.6850   27.4293 C   0  0  0  0  0  0  0  0  0  0  0  0
    3.4594    7.3626   27.7363 N   0  0  0  0  0  0  0  0  0  0  0  0
    3.7698    8.4088   27.0351 C   0  0  0  0  0  0  0  0  0  0  0  0
    1.6806    7.2568   26.3763 C   0  0  0  0  0  0  0  0  0  0  0  0
    2.5773    8.7021   25.7871 S   0  0  0  0  0  0  0  0  0  0  0  0
    4.8685    9.1030   27.3008 N   0  0  0  0  0  0  0  0  0  0  0  0
    5.0784   10.5337   27.0666 C   0  0  0  0  0  0  0  0  0  0  0  0
    5.6204    8.6053   27.6960 H   0  0  0  0  0  0  0  0  0  0  0  0
   -1.1530    8.2005   22.6568 N   0  0  0  0  0  0  0  0  0  0  0  0
   -0.3623    8.3889   22.1014 H   0  0  0  0  0  0  0  0  0  0  0  0
   -2.3495    8.7405   22.1835 C   0  0  0  0  0  0  0  0  0  0  0  0
   -3.1573    9.5912   22.9596 C   0  0  0  0  0  0  0  0  0  0  0  0
   -4.3423   10.1395   22.5319 C   0  0  0  0  0  0  0  0  0  0  0  0
   -2.8379    8.4606   20.8733 C   0  0  0  0  0  0  0  0  0  0  0  0
   -4.0545    9.0190   20.4123 C   0  0  0  0  0  0  0  0  0  0  0  0
   -4.8106    9.8644   21.2521 C   0  0  0  0  0  0  0  0  0  0  0  0
   -6.0175   10.4531   20.8841 O   0  0  0  0  0  0  0  0  0  0  0  0
   -6.4726   11.0059   21.4885 H   0  0  0  0  0  0  0  0  0  0  0  0
  7  8  1  0  0  0
  8  9  1  0  0  0
  8 11  2  0  0  0
  9 10  2  0  0  0
 10 13  1  0  0  0
 10 12  1  0  0  0
 13 14  1  0  0  0
 11 12  1  0  0  0
 11  1  1  0  0  0
  1  2  2  0  0  0
  1  3  1  0  0  0
  2  6  1  0  0  0
  3  4  2  0  0  0
  4  5  1  0  0  0
  4 16  1  0  0  0
  5  6  2  0  0  0
 16 18  1  0  0  0
 18 19  2  0  0  0
 18 21  1  0  0  0
 19 20  1  0  0  0
 20 23  2  0  0  0
 21 22  2  0  0  0
 22 23  1  0  0  0
 23 24  1  0  0  0
 13 15  1  0  0  0
 16 17  1  0  0  0
 24 25  1  0  0  0
M  END
> <minimizedAffinity>
-8.27984

$$$$
1PXN_CK6_A_500


 25 27  0  0  0  0  0  0  0  0999 V2000
    0.4136    6.8981   25.6221 C   0  0  0  0  0  0  0  0  0  0  0  0
   -0.4961    5.8901   25.9708 C   0  0  0  0  0  0  0  0  0  0  0  0
    0.2174    7.6819   24.5362 N   0  0  0  0  0  0  0  0  0  0  0  0
   -0.8763    7.5108   23.7354 C   0  0  0  0  0  0  0  0  0  0  0  0
   -1.8230    6.5526   23.9956 N   0  0  0  0  0  0  0  0  0  0  0  0
   -1.5896    5.7813   25.1090 C   0  0  0  0  0  0  0  0  0  0  0  0
    2.8474    9.3219   25.5419 C   0  0  0  0  0  0  0  0  0  0  0  0
    2.6142    8.1139   26.4008 C   0  0  0  0  0  0  0  0  0  0  0  0
    3.5299    7.9039   27.3706 N   0  0  0  0  0  0  0  0  0  0  0  0
    3.3845    6.8822   28.1564 C   0  0  0  0  0  0  0  0  0  0  0  0
    1.6434    7.1559   26.4187 C   0  0  0  0  0  0  0  0  0  0  0  0
    1.9482    5.9716   27.7396 S   0  0  0  0  0  0  0  0  0  0  0  0
    4.2591    6.6392   29.1236 N   0  0  0  0  0  0  0  0  0  0  0  0
    5.2208    7.5863   29.6928 C   0  0  0  0  0  0  0  0  0  0  0  0
    4.2622    5.7285   29.4975 H   0  0  0  0  0  0  0  0  0  0  0  0
   -1.0640    8.2813   22.6560 N   0  0  0  0  0  0  0  0  0  0  0  0
   -0.2495    8.4826   22.1410 H   0  0  0  0  0  0  0  0  0  0  0  0
   -2.2369    8.8424   22.1494 C   0  0  0  0  0  0  0  0  0  0  0  0
   -2.7623    8.4949   20.8916 C   0  0  0  0  0  0  0  0  0  0  0  0
   -3.9106    9.0267   20.3564 C   0  0  0  0  0  0  0  0  0  0  0  0
   -2.9839    9.8152   22.8768 C   0  0  0  0  0  0  0  0  0  0  0  0
   -4.1718   10.3720   22.3446 C   0  0  0  0  0  0  0  0  0  0  0  0
   -4.6351    9.9725   21.0729 C   0  0  0  0  0  0  0  0  0  0  0  0
   -5.7884   10.4690   20.4712 O   0  0  0  0  0  0  0  0  0  0  0  0
   -6.0433   10.1629   19.6231 H   0  0  0  0  0  0  0  0  0  0  0  0
  7  8  1  0  0  0
  8  9  1  0  0  0
  8 11  2  0  0  0
  9 10  2  0  0  0
 10 13  1  0  0  0
 10 12  1  0  0  0
 13 14  1  0  0  0
 11 12  1  0  0  0
 11  1  1  0  0  0
  1  2  2  0  0  0
  1  3  1  0  0  0
  2  6  1  0  0  0
  3  4  2  0  0  0
  4  5  1  0  0  0
  4 16  1  0  0  0
  5  6  2  0  0  0
 16 18  1  0  0  0
 18 19  2  0  0  0
 18 21  1  0  0  0
 19 20  1  0  0  0
 20 23  2  0  0  0
 21 22  2  0  0  0
 22 23  1  0  0  0
 23 24  1  0  0  0
 13 15  1  0  0  0
 16 17  1  0  0  0
 24 25  1  0  0  0
M  END
> <minimizedAffinity>
-8.22307

$$$$
1PXN_CK6_A_500


 25 27  0  0  0  0  0  0  0  0999 V2000
    0.1922    6.1866   26.2425 C   0  0  0  0  0  0  0  0  0  0  0  0
   -0.4695    5.0589   26.7481 C   0  0  0  0  0  0  0  0  0  0  0  0
   -0.3141    6.8982   25.2085 N   0  0  0  0  0  0  0  0  0  0  0  0
   -1.4900    6.5347   24.6153 C   0  0  0  0  0  0  0  0  0  0  0  0
   -2.2111    5.4478   25.0403 N   0  0  0  0  0  0  0  0  0  0  0  0
   -1.6658    4.7550   26.0947 C   0  0  0  0  0  0  0  0  0  0  0  0
    2.3111    8.7911   25.5135 C   0  0  0  0  0  0  0  0  0  0  0  0
    2.3339    7.6889   26.5314 C   0  0  0  0  0  0  0  0  0  0  0  0
    3.3937    7.6914   27.3681 N   0  0  0  0  0  0  0  0  0  0  0  0
    3.4721    6.7717   28.2794 C   0  0  0  0  0  0  0  0  0  0  0  0
    1.4858    6.6569   26.8074 C   0  0  0  0  0  0  0  0  0  0  0  0
    2.1000    5.6874   28.1941 S   0  0  0  0  0  0  0  0  0  0  0  0
    4.4948    6.7375   29.1236 N   0  0  0  0  0  0  0  0  0  0  0  0
    5.3317    7.8684   29.5315 C   0  0  0  0  0  0  0  0  0  0  0  0
    4.7138    5.8618   29.5165 H   0  0  0  0  0  0  0  0  0  0  0  0
   -1.9848    7.2347   23.5862 N   0  0  0  0  0  0  0  0  0  0  0  0
   -2.7332    6.8056   23.1119 H   0  0  0  0  0  0  0  0  0  0  0  0
   -1.6022    8.4787   23.0831 C   0  0  0  0  0  0  0  0  0  0  0  0
   -1.2442    9.5556   23.9143 C   0  0  0  0  0  0  0  0  0  0  0  0
   -0.8660   10.7954   23.4587 C   0  0  0  0  0  0  0  0  0  0  0  0
   -1.5521    8.7439   21.6829 C   0  0  0  0  0  0  0  0  0  0  0  0
   -1.1609   10.0134   21.1931 C   0  0  0  0  0  0  0  0  0  0  0  0
   -0.8167   11.0455   22.0920 C   0  0  0  0  0  0  0  0  0  0  0  0
   -0.4250   12.3229   21.7002 O   0  0  0  0  0  0  0  0  0  0  0  0
   -0.2087   12.9655   22.3469 H   0  0  0  0  0  0  0  0  0  0  0  0
  7  8  1  0  0  0
  8  9  1  0  0  0
  8 11  2  0  0  0
  9 10  2  0  0  0
 10 13  1  0  0  0
 10 12  1  0  0  0
 13 14  1  0  0  0
 11 12  1  0  0  0
 11  1  1  0  0  0
  1  2  2  0  0  0
  1  3  1  0  0  0
  2  6  1  0  0  0
  3  4  2  0  0  0
  4  5  1  0  0  0
  4 16  1  0  0  0
  5  6  2  0  0  0
 16 18  1  0  0  0
 18 19  2  0  0  0
 18 21  1  0  0  0
 19 20  1  0  0  0
 20 23  2  0  0  0
 21 22  2  0  0  0
 22 23  1  0  0  0
 23 24  1  0  0  0
 13 15  1  0  0  0
 16 17  1  0  0  0
 24 25  1  0  0  0
M  END
> <minimizedAffinity>
-8.18627

$$$$
1PXN_CK6_A_500


 25 27  0  0  0  0  0  0  0  0999 V2000
    0.3341    9.3738   24.5242 C   0  0  0  0  0  0  0  0  0  0  0  0
   -0.0457   10.4352   23.6910 C   0  0  0  0  0  0  0  0  0  0  0  0
    1.5139    9.3836   25.1873 N   0  0  0  0  0  0  0  0  0  0  0  0
    2.3819   10.4311   25.0602 C   0  0  0  0  0  0  0  0  0  0  0  0
    2.0984   11.5161   24.2699 N   0  0  0  0  0  0  0  0  0  0  0  0
    0.8896   11.4697   23.6176 C   0  0  0  0  0  0  0  0  0  0  0  0
   -2.5800    8.2743   23.0738 C   0  0  0  0  0  0  0  0  0  0  0  0
   -1.6863    7.7293   24.1488 C   0  0  0  0  0  0  0  0  0  0  0  0
   -2.0683    6.5480   24.6797 N   0  0  0  0  0  0  0  0  0  0  0  0
   -1.3360    6.0143   25.6079 C   0  0  0  0  0  0  0  0  0  0  0  0
   -0.5318    8.1796   24.7188 C   0  0  0  0  0  0  0  0  0  0  0  0
    0.0524    7.0196   25.9650 S   0  0  0  0  0  0  0  0  0  0  0  0
   -1.6727    4.8542   26.1557 N   0  0  0  0  0  0  0  0  0  0  0  0
   -0.8845    3.6195   26.1457 C   0  0  0  0  0  0  0  0  0  0  0  0
   -2.5420    4.8193   26.6165 H   0  0  0  0  0  0  0  0  0  0  0  0
    3.5531   10.4349   25.7100 N   0  0  0  0  0  0  0  0  0  0  0  0
    4.1711   11.1561   25.4508 H   0  0  0  0  0  0  0  0  0  0  0  0
    4.0318    9.5734   26.6979 C   0  0  0  0  0  0  0  0  0  0  0  0
    3.5351    8.2690   26.8726 C   0  0  0  0  0  0  0  0  0  0  0  0
    3.9766    7.3927   27.8343 C   0  0  0  0  0  0  0  0  0  0  0  0
    5.0610    9.9626   27.6049 C   0  0  0  0  0  0  0  0  0  0  0  0
    5.5327    9.0729   28.6001 C   0  0  0  0  0  0  0  0  0  0  0  0
    4.9825    7.7783   28.7131 C   0  0  0  0  0  0  0  0  0  0  0  0
    5.3817    6.8409   29.6621 O   0  0  0  0  0  0  0  0  0  0  0  0
    4.9766    5.9963   29.6856 H   0  0  0  0  0  0  0  0  0  0  0  0
  7  8  1  0  0  0
  8  9  1  0  0  0
  8 11  2  0  0  0
  9 10  2  0  0  0
 10 13  1  0  0  0
 10 12  1  0  0  0
 13 14  1  0  0  0
 11 12  1  0  0  0
 11  1  1  0  0  0
  1  2  2  0  0  0
  1  3  1  0  0  0
  2  6  1  0  0  0
  3  4  2  0  0  0
  4  5  1  0  0  0
  4 16  1  0  0  0
  5  6  2  0  0  0
 16 18  1  0  0  0
 18 19  2  0  0  0
 18 21  1  0  0  0
 19 20  1  0  0  0
 20 23  2  0  0  0
 21 22  2  0  0  0
 22 23  1  0  0  0
 23 24  1  0  0  0
 13 15  1  0  0  0
 16 17  1  0  0  0
 24 25  1  0  0  0
M  END
> <minimizedAffinity>
-8.10676

$$$$
1PXN_CK6_A_500


 25 27  0  0  0  0  0  0  0  0999 V2000
   -0.6277    5.4322   26.3459 C   0  0  0  0  0  0  0  0  0  0  0  0
   -1.6903    4.5296   26.4924 C   0  0  0  0  0  0  0  0  0  0  0  0
   -0.7053    6.4825   25.4958 N   0  0  0  0  0  0  0  0  0  0  0  0
   -1.8254    6.6950   24.7428 C   0  0  0  0  0  0  0  0  0  0  0  0
   -2.9174    5.8680   24.8180 N   0  0  0  0  0  0  0  0  0  0  0  0
   -2.8006    4.8166   25.6955 C   0  0  0  0  0  0  0  0  0  0  0  0
    1.0309    2.7546   27.7186 C   0  0  0  0  0  0  0  0  0  0  0  0
    1.3123    4.2271   27.6540 C   0  0  0  0  0  0  0  0  0  0  0  0
    2.4610    4.6262   28.2409 N   0  0  0  0  0  0  0  0  0  0  0  0
    2.7713    5.8854   28.2141 C   0  0  0  0  0  0  0  0  0  0  0  0
    0.6413    5.2816   27.1078 C   0  0  0  0  0  0  0  0  0  0  0  0
    1.5488    6.8135   27.3717 S   0  0  0  0  0  0  0  0  0  0  0  0
    3.8910    6.3211   28.7763 N   0  0  0  0  0  0  0  0  0  0  0  0
    4.7003    7.4635   28.3453 C   0  0  0  0  0  0  0  0  0  0  0  0
    4.2110    5.8256   29.5645 H   0  0  0  0  0  0  0  0  0  0  0  0
   -1.8967    7.7297   23.8953 N   0  0  0  0  0  0  0  0  0  0  0  0
   -2.6347    7.6856   23.2452 H   0  0  0  0  0  0  0  0  0  0  0  0
   -1.0857    8.8605   23.7925 C   0  0  0  0  0  0  0  0  0  0  0  0
   -1.2368    9.8117   22.7673 C   0  0  0  0  0  0  0  0  0  0  0  0
   -0.4573   10.9347   22.6294 C   0  0  0  0  0  0  0  0  0  0  0  0
   -0.0398    9.1266   24.7246 C   0  0  0  0  0  0  0  0  0  0  0  0
    0.7718   10.2803   24.6023 C   0  0  0  0  0  0  0  0  0  0  0  0
    0.5587   11.1890   23.5438 C   0  0  0  0  0  0  0  0  0  0  0  0
    1.3093   12.3445   23.3444 O   0  0  0  0  0  0  0  0  0  0  0  0
    1.1179   12.9085   22.6210 H   0  0  0  0  0  0  0  0  0  0  0  0
  7  8  1  0  0  0
  8  9  1  0  0  0
  8 11  2  0  0  0
  9 10  2  0  0  0
 10 13  1  0  0  0
 10 12  1  0  0  0
 13 14  1  0  0  0
 11 12  1  0  0  0
 11  1  1  0  0  0
  1  2  2  0  0  0
  1  3  1  0  0  0
  2  6  1  0  0  0
  3  4  2  0  0  0
  4  5  1  0  0  0
  4 16  1  0  0  0
  5  6  2  0  0  0
 16 18  1  0  0  0
 18 19  2  0  0  0
 18 21  1  0  0  0
 19 20  1  0  0  0
 20 23  2  0  0  0
 21 22  2  0  0  0
 22 23  1  0  0  0
 23 24  1  0  0  0
 13 15  1  0  0  0
 16 17  1  0  0  0
 24 25  1  0  0  0
M  END
> <minimizedAffinity>
-7.97032

$$$$
