1PXN_CK6_A_500
  RCSB PDB12061703423D
Coordinates from PDB:1PXN:A:500 Model:1 without hydrogens
 22 24  0  0  0  0            999 V2000
   -2.4600    4.7530   25.0770   C 0  0  0  0  0  0  0  0  0  0  0  0
   -1.4870    5.8930   25.1480   C 0  0  0  0  0  0  0  0  0  0  0  0
   -1.8230    6.9900   24.4360   N 0  0  0  0  0  0  0  0  0  0  0  0
   -1.0310    8.0170   24.4600   C 0  0  0  0  0  0  0  0  0  0  0  0
   -1.3230    9.1160   23.7770   N 0  0  0  0  0  0  0  0  0  0  0  0
   -0.5270   10.3440   23.7120   C 0  0  0  0  0  0  0  0  0  0  0  0
   -0.3030    6.0690   25.8020   C 0  0  0  0  0  0  0  0  0  0  0  0
    0.3640    7.7080   25.4720   S 0  0  0  0  0  0  0  0  0  0  0  0
    0.5200    5.2340   26.7180   C 0  0  0  0  0  0  0  0  0  0  0  0
    0.1510    3.9250   27.0580   C 0  0  0  0  0  0  0  0  0  0  0  0
    1.6430    5.8030   27.2150   N 0  0  0  0  0  0  0  0  0  0  0  0
    2.4550    5.1190   28.0750   C 0  0  0  0  0  0  0  0  0  0  0  0
    2.1790    3.8330   28.4650   N 0  0  0  0  0  0  0  0  0  0  0  0
    1.0330    3.2900   27.9350   C 0  0  0  0  0  0  0  0  0  0  0  0
    3.5610    5.6870   28.5730   N 0  0  0  0  0  0  0  0  0  0  0  0
    4.0940    6.9570   28.3490   C 0  0  0  0  0  0  0  0  0  0  0  0
    3.4980    7.8870   27.4780   C 0  0  0  0  0  0  0  0  0  0  0  0
    3.9930    9.1440   27.2280   C 0  0  0  0  0  0  0  0  0  0  0  0
    5.2890    7.3980   28.9900   C 0  0  0  0  0  0  0  0  0  0  0  0
    5.8130    8.6910   28.7490   C 0  0  0  0  0  0  0  0  0  0  0  0
    5.1570    9.5680   27.8590   C 0  0  0  0  0  0  0  0  0  0  0  0
    5.6020   10.8530   27.5600   O 0  0  0  0  0  0  0  0  0  0  0  0
  1  2  1  0  0  0  0
  2  3  1  0  0  0  0
  2  7  2  0  0  0  0
  3  4  2  0  0  0  0
  4  5  1  0  0  0  0
  4  8  1  0  0  0  0
  5  6  1  0  0  0  0
  7  8  1  0  0  0  0
  7  9  1  0  0  0  0
  9 10  2  0  0  0  0
  9 11  1  0  0  0  0
 10 14  1  0  0  0  0
 11 12  2  0  0  0  0
 12 13  1  0  0  0  0
 12 15  1  0  0  0  0
 13 14  2  0  0  0  0
 15 16  1  0  0  0  0
 16 17  2  0  0  0  0
 16 19  1  0  0  0  0
 17 18  1  0  0  0  0
 18 21  2  0  0  0  0
 19 20  2  0  0  0  0
 20 21  1  0  0  0  0
 21 22  1  0  0  0  0
A    1
C6A
A    2
C1A
A    3
N2A
A    4
C3A
A    5
N7A
A    6
C8A
A    7
C5A
A    8
S4A
A    9
C4
A   10
C5
A   11
N3
A   12
C2
A   13
N1
A   14
C6
A   15
N7
A   16
C1B
A   17
C2B
A   18
C3B
A   19
C6B
A   20
C5B
A   21
C4B
A   22
O7B
M  END
>  <InstanceId>
1PXN_CK6_A_500

>  <ChemCompId>
CK6

>  <PdbId>
1PXN

>  <ChainId>
A

>  <ResidueNumber>
500

>  <InsertionCode>


>  <Model>
1

>  <AltIds>


>  <MissingHeavyAtoms>
0

>  <ObservedFormula>
C15 N5 O S

>  <Name>
4-[4-(4-METHYL-2-METHYLAMINO-THIAZOL-5-YL)-PYRIMIDIN-2-YLAMINO]-PHENOL

>  <SystematicName>
4-[[4-(4-methyl-2-methylamino-1,3-thiazol-5-yl)pyrimidin-2-yl]amino]phenol

>  <Synonyms>


>  <Type>
NON-POLYMER

>  <Formula>
C15 H15 N5 O S

>  <MolecularWeight>
313.378

>  <ModifiedDate>
2011-06-04

>  <Parent>


>  <OneLetterCode>


>  <SubcomponentList>


>  <AmbiguousFlag>
N

>  <InChI>
InChI=1S/C15H15N5OS/c1-9-13(22-15(16-2)18-9)12-7-8-17-14(20-12)19-10-3-5-11(21)6-4-10/h3-8,21H,1-2H3,(H,16,18)(H,17,19,20)

>  <InChIKey>
OTMLAWRVLMYMDF-UHFFFAOYSA-N

>  <SMILES>
Cc1c(sc(n1)NC)c2ccnc(n2)Nc3ccc(cc3)O

$$$$
