4O3F_TZN_A_501
  RCSB PDB12061714003D
Coordinates from PDB:4O3F:A:501 Model:1 without hydrogens
 28 31  0  0  0  0            999 V2000
  -21.7650   -1.4380  -24.6600   C 0  0  0  0  0  0  0  0  0  0  0  0
  -22.5960   -0.6010  -25.5600   C 0  0  0  0  0  0  0  0  0  0  0  0
  -21.7630   -0.6800  -26.7710   C 0  0  0  0  0  0  0  0  0  0  0  0
  -21.6180   -2.0740  -26.8470   O 0  0  0  0  0  0  0  0  0  0  0  0
  -21.1410   -2.4090  -25.5980   C 0  0  0  0  0  0  0  0  0  0  0  0
  -19.6590   -2.4220  -25.6520   C 0  0  0  0  0  0  0  0  0  0  0  0
  -19.0320   -1.5580  -25.1140   O 0  0  0  0  0  0  0  0  0  0  0  0
  -18.9850   -3.5020  -26.3660   N 0  0  0  0  0  0  0  0  0  0  0  0
  -17.5960   -3.5710  -26.4180   C 0  0  0  0  0  0  0  0  0  0  0  0
  -17.2110   -4.9920  -26.0930   C 0  0  0  0  0  0  0  0  0  0  0  0
  -19.7200   -4.5550  -26.9790   C 0  0  0  0  0  0  0  0  0  0  0  0
  -18.8390   -5.4570  -27.8070   C 0  0  0  0  0  0  0  0  0  0  0  0
  -17.6990   -5.8650  -27.0790   N 0  0  0  0  0  0  0  0  0  0  0  0
  -17.1010   -7.1490  -27.2130   C 0  0  0  0  0  0  0  0  0  0  0  0
  -16.0960   -7.2810  -26.5060   N 0  0  0  0  0  0  0  0  0  0  0  0
  -17.5630   -8.0200  -27.9890   N 0  0  0  0  0  0  0  0  0  0  0  0
  -17.0170   -9.2190  -28.1000   C 0  0  0  0  0  0  0  0  0  0  0  0
  -17.5080  -10.1830  -28.9320   C 0  0  0  0  0  0  0  0  0  0  0  0
  -16.8520  -11.4050  -29.0070   C 0  0  0  0  0  0  0  0  0  0  0  0
  -17.2040  -12.4960  -29.7550   O 0  0  0  0  0  0  0  0  0  0  0  0
  -18.3120  -12.4230  -30.5330   C 0  0  0  0  0  0  0  0  0  0  0  0
  -15.7380  -11.6350  -28.2550   C 0  0  0  0  0  0  0  0  0  0  0  0
  -15.2410  -12.8610  -28.4340   O 0  0  0  0  0  0  0  0  0  0  0  0
  -14.0080  -13.1100  -27.9690   C 0  0  0  0  0  0  0  0  0  0  0  0
  -15.2370  -10.6930  -27.4210   C 0  0  0  0  0  0  0  0  0  0  0  0
  -15.8780   -9.4780  -27.3400   C 0  0  0  0  0  0  0  0  0  0  0  0
  -15.4460   -8.3930  -26.5170   C 0  0  0  0  0  0  0  0  0  0  0  0
  -14.3210   -8.5590  -25.7110   N 0  0  0  0  0  0  0  0  0  0  0  0
 21 20  1  0  0  0  0
 20 19  1  0  0  0  0
 19 18  2  0  0  0  0
 19 22  1  0  0  0  0
 18 17  1  0  0  0  0
 23 22  1  0  0  0  0
 23 24  1  0  0  0  0
 22 25  2  0  0  0  0
 17 16  2  0  0  0  0
 17 26  1  0  0  0  0
 16 14  1  0  0  0  0
 11 12  1  0  0  0  0
 11  8  1  0  0  0  0
 12 13  1  0  0  0  0
  4  3  1  0  0  0  0
  4  5  1  0  0  0  0
 25 26  1  0  0  0  0
 26 27  2  0  0  0  0
 14 13  1  0  0  0  0
 14 15  2  0  0  0  0
 13 10  1  0  0  0  0
  3  2  1  0  0  0  0
  5  6  1  0  0  0  0
  5  1  1  0  0  0  0
  8  6  1  0  0  0  0
  8  9  1  0  0  0  0
 27 15  1  0  0  0  0
 27 28  1  0  0  0  0
  6  7  2  0  0  0  0
  1  2  1  0  0  0  0
 10  9  1  0  0  0  0
A    1
CAO
A    2
CAQ
A    3
CAR
A    4
OAA
A    5
CAJ
A    6
CAP
A    7
OAB
A    8
NAE
A    9
CAL
A   10
CAN
A   11
CAK
A   12
CAM
A   13
NAF
A   14
C2
A   15
N3
A   16
N1
A   17
C6
A   18
CAW
A   19
CAY
A   20
OAC
A   21
CBA
A   22
CAZ
A   23
OAD
A   24
CBB
A   25
CAX
A   26
C5
A   27
C4
A   28
NAI
M  END
>  <InstanceId>
4O3F_TZN_A_501

>  <ChemCompId>
TZN

>  <PdbId>
4O3F

>  <ChainId>
A

>  <ResidueNumber>
501

>  <InsertionCode>


>  <Model>
1

>  <AltIds>


>  <MissingHeavyAtoms>
0

>  <ObservedFormula>
C19 N5 O4

>  <Name>
[4-(4-amino-6,7-dimethoxyquinazolin-2-yl)piperazin-1-yl][(2R)-tetrahydrofuran-2-yl]methanone

>  <SystematicName>
[4-(4-azanyl-6,7-dimethoxy-quinazolin-2-yl)piperazin-1-yl]-[(2R)-oxolan-2-yl]methanone

>  <Synonyms>
Terazosin

>  <Type>
NON-POLYMER

>  <Formula>
C19 H25 N5 O4

>  <MolecularWeight>
387.433

>  <ModifiedDate>
2014-10-24

>  <Parent>


>  <OneLetterCode>


>  <SubcomponentList>


>  <AmbiguousFlag>
N

>  <InChI>
InChI=1S/C19H25N5O4/c1-26-15-10-12-13(11-16(15)27-2)21-19(22-17(12)20)24-7-5-23(6-8-24)18(25)14-4-3-9-28-14/h10-11,14H,3-9H2,1-2H3,(H2,20,21,22)/t14-/m1/s1

>  <InChIKey>
VCKUSRYTPJJLNI-CQSZACIVSA-N

>  <SMILES>
COc1cc2c(cc1OC)nc(nc2N)N3CCN(CC3)C(=O)[C@H]4CCCO4

$$$$
