4O3F_TZN_A_501


 30 33  0  0  0  0  0  0  0  0999 V2000
  -17.0415   -7.0646  -27.1635 C   0  0  0  0  0  0  0  0  0  0  0  0
  -15.9414   -7.1591  -26.6083 N   0  0  0  0  0  0  0  0  0  0  0  0
  -17.5924   -7.9643  -27.8426 N   0  0  0  0  0  0  0  0  0  0  0  0
  -17.0421   -9.1556  -28.0039 C   0  0  0  0  0  0  0  0  0  0  0  0
  -17.6278  -10.1504  -28.7319 C   0  0  0  0  0  0  0  0  0  0  0  0
  -16.9629  -11.3616  -28.8731 C   0  0  0  0  0  0  0  0  0  0  0  0
  -15.7463  -11.5509  -28.2871 C   0  0  0  0  0  0  0  0  0  0  0  0
  -15.1499  -10.5779  -27.5581 C   0  0  0  0  0  0  0  0  0  0  0  0
  -15.7989   -9.3732  -27.4129 C   0  0  0  0  0  0  0  0  0  0  0  0
  -15.2755   -8.2589  -26.6880 C   0  0  0  0  0  0  0  0  0  0  0  0
  -14.0416   -8.3825  -26.0517 N   0  0  0  0  0  0  0  0  0  0  0  0
  -13.5369   -9.2254  -26.1159 H   0  0  0  0  0  0  0  0  0  0  0  0
  -13.6747   -7.6270  -25.5381 H   0  0  0  0  0  0  0  0  0  0  0  0
  -19.7267   -2.4628  -25.4495 C   0  0  0  0  0  0  0  0  0  0  0  0
  -19.1587   -1.6654  -24.7635 O   0  0  0  0  0  0  0  0  0  0  0  0
  -18.9837   -3.4817  -26.1845 N   0  0  0  0  0  0  0  0  0  0  0  0
  -17.5983   -3.5703  -26.0867 C   0  0  0  0  0  0  0  0  0  0  0  0
  -17.2626   -5.0225  -25.8596 C   0  0  0  0  0  0  0  0  0  0  0  0
  -19.6518   -4.4582  -26.9750 C   0  0  0  0  0  0  0  0  0  0  0  0
  -18.6890   -5.2928  -27.7823 C   0  0  0  0  0  0  0  0  0  0  0  0
  -17.6418   -5.7887  -26.9739 N   0  0  0  0  0  0  0  0  0  0  0  0
  -21.9289   -1.5905  -24.5681 C   0  0  0  0  0  0  0  0  0  0  0  0
  -22.6491   -0.6164  -25.4246 C   0  0  0  0  0  0  0  0  0  0  0  0
  -21.6837   -0.5366  -26.5328 C   0  0  0  0  0  0  0  0  0  0  0  0
  -21.5354   -1.9077  -26.7938 O   0  0  0  0  0  0  0  0  0  0  0  0
  -21.2051   -2.4284  -25.5611 C   0  0  0  0  0  0  0  0  0  0  0  0
  -17.3960  -12.4785  -29.5354 O   0  0  0  0  0  0  0  0  0  0  0  0
  -18.3684  -12.3456  -30.4709 C   0  0  0  0  0  0  0  0  0  0  0  0
  -15.2537  -12.7719  -28.5078 O   0  0  0  0  0  0  0  0  0  0  0  0
  -13.9850  -13.0096  -28.1441 C   0  0  0  0  0  0  0  0  0  0  0  0
 28 27  1  0  0  0
 27  6  1  0  0  0
  6  5  2  0  0  0
  6  7  1  0  0  0
  5  4  1  0  0  0
 29  7  1  0  0  0
 29 30  1  0  0  0
  7  8  2  0  0  0
  4  3  2  0  0  0
  4  9  1  0  0  0
  3  1  1  0  0  0
 19 20  1  0  0  0
 19 16  1  0  0  0
 20 21  1  0  0  0
 25 24  1  0  0  0
 25 26  1  0  0  0
  8  9  1  0  0  0
  9 10  2  0  0  0
  1 21  1  0  0  0
  1  2  2  0  0  0
 21 18  1  0  0  0
 24 23  1  0  0  0
 26 14  1  0  0  0
 26 22  1  0  0  0
 16 14  1  0  0  0
 16 17  1  0  0  0
 10  2  1  0  0  0
 10 11  1  0  0  0
 14 15  2  0  0  0
 22 23  1  0  0  0
 18 17  1  0  0  0
 11 12  1  0  0  0
 11 13  1  0  0  0
M  END
> <minimizedAffinity>
-8.16784

$$$$
4O3F_TZN_A_501


 30 33  0  0  0  0  0  0  0  0999 V2000
  -16.9446   -7.1056  -26.9027 C   0  0  0  0  0  0  0  0  0  0  0  0
  -15.8030   -7.2045  -26.4398 N   0  0  0  0  0  0  0  0  0  0  0  0
  -17.5432   -7.9938  -27.5561 N   0  0  0  0  0  0  0  0  0  0  0  0
  -17.0009   -9.1770  -27.7885 C   0  0  0  0  0  0  0  0  0  0  0  0
  -17.6376  -10.1593  -28.4901 C   0  0  0  0  0  0  0  0  0  0  0  0
  -16.9794  -11.3622  -28.7122 C   0  0  0  0  0  0  0  0  0  0  0  0
  -15.7187  -11.5556  -28.2300 C   0  0  0  0  0  0  0  0  0  0  0  0
  -15.0712  -10.5950  -27.5287 C   0  0  0  0  0  0  0  0  0  0  0  0
  -15.7132   -9.3987  -27.3042 C   0  0  0  0  0  0  0  0  0  0  0  0
  -15.1395   -8.2972  -26.5980 C   0  0  0  0  0  0  0  0  0  0  0  0
  -13.8578   -8.4261  -26.0656 N   0  0  0  0  0  0  0  0  0  0  0  0
  -13.3553   -9.2635  -26.1895 H   0  0  0  0  0  0  0  0  0  0  0  0
  -13.4551   -7.6797  -25.5656 H   0  0  0  0  0  0  0  0  0  0  0  0
  -19.4503   -2.1011  -26.9411 C   0  0  0  0  0  0  0  0  0  0  0  0
  -20.6419   -2.0338  -26.8740 O   0  0  0  0  0  0  0  0  0  0  0  0
  -18.7499   -3.3352  -26.5990 N   0  0  0  0  0  0  0  0  0  0  0  0
  -19.4497   -4.4739  -26.2113 C   0  0  0  0  0  0  0  0  0  0  0  0
  -18.8780   -5.6313  -26.9903 C   0  0  0  0  0  0  0  0  0  0  0  0
  -17.3350   -3.4377  -26.7100 C   0  0  0  0  0  0  0  0  0  0  0  0
  -16.8116   -4.7318  -26.1384 C   0  0  0  0  0  0  0  0  0  0  0  0
  -17.5348   -5.8388  -26.6361 N   0  0  0  0  0  0  0  0  0  0  0  0
  -19.3929    0.1172  -28.1509 C   0  0  0  0  0  0  0  0  0  0  0  0
  -19.2214    1.3283  -27.3113 C   0  0  0  0  0  0  0  0  0  0  0  0
  -19.1689    0.6795  -25.9911 C   0  0  0  0  0  0  0  0  0  0  0  0
  -18.1815   -0.2816  -26.2581 O   0  0  0  0  0  0  0  0  0  0  0  0
  -18.6625   -0.9234  -27.3791 C   0  0  0  0  0  0  0  0  0  0  0  0
  -17.4581  -12.4669  -29.3634 O   0  0  0  0  0  0  0  0  0  0  0  0
  -18.3285  -12.2934  -30.3883 C   0  0  0  0  0  0  0  0  0  0  0  0
  -15.2386  -12.7676  -28.5177 O   0  0  0  0  0  0  0  0  0  0  0  0
  -13.9758  -13.0414  -28.1588 C   0  0  0  0  0  0  0  0  0  0  0  0
 28 27  1  0  0  0
 27  6  1  0  0  0
  6  5  2  0  0  0
  6  7  1  0  0  0
  5  4  1  0  0  0
 29  7  1  0  0  0
 29 30  1  0  0  0
  7  8  2  0  0  0
  4  3  2  0  0  0
  4  9  1  0  0  0
  3  1  1  0  0  0
 19 20  1  0  0  0
 19 16  1  0  0  0
 20 21  1  0  0  0
 25 24  1  0  0  0
 25 26  1  0  0  0
  8  9  1  0  0  0
  9 10  2  0  0  0
  1 21  1  0  0  0
  1  2  2  0  0  0
 21 18  1  0  0  0
 24 23  1  0  0  0
 26 14  1  0  0  0
 26 22  1  0  0  0
 16 14  1  0  0  0
 16 17  1  0  0  0
 10  2  1  0  0  0
 10 11  1  0  0  0
 14 15  2  0  0  0
 22 23  1  0  0  0
 18 17  1  0  0  0
 11 12  1  0  0  0
 11 13  1  0  0  0
M  END
> <minimizedAffinity>
-7.73884

$$$$
4O3F_TZN_A_501


 30 33  0  0  0  0  0  0  0  0999 V2000
  -17.0435   -7.0618  -27.2133 C   0  0  0  0  0  0  0  0  0  0  0  0
  -17.6423   -7.7529  -28.0446 N   0  0  0  0  0  0  0  0  0  0  0  0
  -16.0268   -7.4175  -26.5698 N   0  0  0  0  0  0  0  0  0  0  0  0
  -15.4587   -8.5969  -26.7546 C   0  0  0  0  0  0  0  0  0  0  0  0
  -14.3484   -9.0002  -26.0710 C   0  0  0  0  0  0  0  0  0  0  0  0
  -13.8364  -10.2694  -26.3080 C   0  0  0  0  0  0  0  0  0  0  0  0
  -14.4342  -11.0941  -27.2147 C   0  0  0  0  0  0  0  0  0  0  0  0
  -15.5343  -10.7115  -27.9056 C   0  0  0  0  0  0  0  0  0  0  0  0
  -16.0511   -9.4568  -27.6775 C   0  0  0  0  0  0  0  0  0  0  0  0
  -17.2147   -8.9358  -28.3223 C   0  0  0  0  0  0  0  0  0  0  0  0
  -17.8722   -9.7176  -29.2706 N   0  0  0  0  0  0  0  0  0  0  0  0
  -17.5410  -10.6210  -29.4789 H   0  0  0  0  0  0  0  0  0  0  0  0
  -18.6678   -9.3664  -29.7320 H   0  0  0  0  0  0  0  0  0  0  0  0
  -19.7230   -2.4515  -25.5132 C   0  0  0  0  0  0  0  0  0  0  0  0
  -19.1510   -1.6481  -24.8376 O   0  0  0  0  0  0  0  0  0  0  0  0
  -18.9840   -3.4748  -26.2462 N   0  0  0  0  0  0  0  0  0  0  0  0
  -17.5977   -3.5605  -26.1585 C   0  0  0  0  0  0  0  0  0  0  0  0
  -17.2579   -5.0104  -25.9231 C   0  0  0  0  0  0  0  0  0  0  0  0
  -19.6566   -4.4582  -27.0243 C   0  0  0  0  0  0  0  0  0  0  0  0
  -18.6986   -5.2973  -27.8326 C   0  0  0  0  0  0  0  0  0  0  0  0
  -17.6444   -5.7855  -27.0286 N   0  0  0  0  0  0  0  0  0  0  0  0
  -21.9203   -1.5823  -24.6166 C   0  0  0  0  0  0  0  0  0  0  0  0
  -22.6489   -0.6110  -25.4691 C   0  0  0  0  0  0  0  0  0  0  0  0
  -21.6920   -0.5310  -26.5847 C   0  0  0  0  0  0  0  0  0  0  0  0
  -21.5430   -1.9023  -26.8447 O   0  0  0  0  0  0  0  0  0  0  0  0
  -21.2023   -2.4204  -25.6137 C   0  0  0  0  0  0  0  0  0  0  0  0
  -12.7252  -10.8387  -25.7468 O   0  0  0  0  0  0  0  0  0  0  0  0
  -11.7199  -10.0310  -25.3281 C   0  0  0  0  0  0  0  0  0  0  0  0
  -13.8090  -12.2677  -27.3326 O   0  0  0  0  0  0  0  0  0  0  0  0
  -14.1839  -13.0782  -28.3332 C   0  0  0  0  0  0  0  0  0  0  0  0
 28 27  1  0  0  0
 27  6  1  0  0  0
  6  5  2  0  0  0
  6  7  1  0  0  0
  5  4  1  0  0  0
 29  7  1  0  0  0
 29 30  1  0  0  0
  7  8  2  0  0  0
  4  3  2  0  0  0
  4  9  1  0  0  0
  3  1  1  0  0  0
 19 20  1  0  0  0
 19 16  1  0  0  0
 20 21  1  0  0  0
 25 24  1  0  0  0
 25 26  1  0  0  0
  8  9  1  0  0  0
  9 10  2  0  0  0
  1 21  1  0  0  0
  1  2  2  0  0  0
 21 18  1  0  0  0
 24 23  1  0  0  0
 26 14  1  0  0  0
 26 22  1  0  0  0
 16 14  1  0  0  0
 16 17  1  0  0  0
 10  2  1  0  0  0
 10 11  1  0  0  0
 14 15  2  0  0  0
 22 23  1  0  0  0
 18 17  1  0  0  0
 11 12  1  0  0  0
 11 13  1  0  0  0
M  END
> <minimizedAffinity>
-7.57604

$$$$
4O3F_TZN_A_501


 30 33  0  0  0  0  0  0  0  0999 V2000
  -18.0658   -5.8328  -27.0535 C   0  0  0  0  0  0  0  0  0  0  0  0
  -18.7380   -6.1735  -28.0329 N   0  0  0  0  0  0  0  0  0  0  0  0
  -17.1386   -6.5040  -26.5396 N   0  0  0  0  0  0  0  0  0  0  0  0
  -16.7562   -7.6668  -27.0392 C   0  0  0  0  0  0  0  0  0  0  0  0
  -15.7455   -8.4088  -26.5003 C   0  0  0  0  0  0  0  0  0  0  0  0
  -15.4308   -9.6341  -27.0738 C   0  0  0  0  0  0  0  0  0  0  0  0
  -16.1205  -10.0820  -28.1615 C   0  0  0  0  0  0  0  0  0  0  0  0
  -17.1242   -9.3594  -28.7131 C   0  0  0  0  0  0  0  0  0  0  0  0
  -17.4456   -8.1446  -28.1521 C   0  0  0  0  0  0  0  0  0  0  0  0
  -18.4919   -7.2925  -28.6215 C   0  0  0  0  0  0  0  0  0  0  0  0
  -19.2324   -7.6790  -29.7373 N   0  0  0  0  0  0  0  0  0  0  0  0
  -19.0400   -8.5354  -30.1833 H   0  0  0  0  0  0  0  0  0  0  0  0
  -19.9479   -7.0957  -30.0794 H   0  0  0  0  0  0  0  0  0  0  0  0
  -19.9293   -1.4610  -24.0972 C   0  0  0  0  0  0  0  0  0  0  0  0
  -19.1985   -0.9103  -23.3280 O   0  0  0  0  0  0  0  0  0  0  0  0
  -19.4016   -2.3656  -25.1139 N   0  0  0  0  0  0  0  0  0  0  0  0
  -18.0384   -2.6327  -25.1993 C   0  0  0  0  0  0  0  0  0  0  0  0
  -17.8875   -4.1273  -25.3276 C   0  0  0  0  0  0  0  0  0  0  0  0
  -20.2650   -3.0544  -26.0111 C   0  0  0  0  0  0  0  0  0  0  0  0
  -19.5014   -3.7896  -27.0842 C   0  0  0  0  0  0  0  0  0  0  0  0
  -18.4654   -4.5726  -26.5277 N   0  0  0  0  0  0  0  0  0  0  0  0
  -21.9755   -1.0634  -22.6680 C   0  0  0  0  0  0  0  0  0  0  0  0
  -22.5837    0.2880  -22.7386 C   0  0  0  0  0  0  0  0  0  0  0  0
  -21.6446    0.9063  -23.6885 C   0  0  0  0  0  0  0  0  0  0  0  0
  -21.6836   -0.0660  -24.7000 O   0  0  0  0  0  0  0  0  0  0  0  0
  -21.3929   -1.2326  -24.0259 C   0  0  0  0  0  0  0  0  0  0  0  0
  -14.4412  -10.5016  -26.6972 O   0  0  0  0  0  0  0  0  0  0  0  0
  -14.1938  -10.6742  -25.3753 C   0  0  0  0  0  0  0  0  0  0  0  0
  -15.6830  -11.2661  -28.5958 O   0  0  0  0  0  0  0  0  0  0  0  0
  -16.5633  -12.2764  -28.6501 C   0  0  0  0  0  0  0  0  0  0  0  0
 28 27  1  0  0  0
 27  6  1  0  0  0
  6  5  2  0  0  0
  6  7  1  0  0  0
  5  4  1  0  0  0
 29  7  1  0  0  0
 29 30  1  0  0  0
  7  8  2  0  0  0
  4  3  2  0  0  0
  4  9  1  0  0  0
  3  1  1  0  0  0
 19 20  1  0  0  0
 19 16  1  0  0  0
 20 21  1  0  0  0
 25 24  1  0  0  0
 25 26  1  0  0  0
  8  9  1  0  0  0
  9 10  2  0  0  0
  1 21  1  0  0  0
  1  2  2  0  0  0
 21 18  1  0  0  0
 24 23  1  0  0  0
 26 14  1  0  0  0
 26 22  1  0  0  0
 16 14  1  0  0  0
 16 17  1  0  0  0
 10  2  1  0  0  0
 10 11  1  0  0  0
 14 15  2  0  0  0
 22 23  1  0  0  0
 18 17  1  0  0  0
 11 12  1  0  0  0
 11 13  1  0  0  0
M  END
> <minimizedAffinity>
-7.38606

$$$$
4O3F_TZN_A_501


 30 33  0  0  0  0  0  0  0  0999 V2000
  -18.1095   -5.6908  -27.4027 C   0  0  0  0  0  0  0  0  0  0  0  0
  -18.7686   -6.0842  -28.3712 N   0  0  0  0  0  0  0  0  0  0  0  0
  -17.2228   -6.3521  -26.8103 N   0  0  0  0  0  0  0  0  0  0  0  0
  -16.8731   -7.5645  -27.2048 C   0  0  0  0  0  0  0  0  0  0  0  0
  -15.9064   -8.2975  -26.5795 C   0  0  0  0  0  0  0  0  0  0  0  0
  -15.6247   -9.5756  -27.0446 C   0  0  0  0  0  0  0  0  0  0  0  0
  -16.3027  -10.0838  -28.1130 C   0  0  0  0  0  0  0  0  0  0  0  0
  -17.2628   -9.3715  -28.7492 C   0  0  0  0  0  0  0  0  0  0  0  0
  -17.5512   -8.1046  -28.2959 C   0  0  0  0  0  0  0  0  0  0  0  0
  -18.5509   -7.2552  -28.8618 C   0  0  0  0  0  0  0  0  0  0  0  0
  -19.2765   -7.7027  -29.9645 N   0  0  0  0  0  0  0  0  0  0  0  0
  -19.1060   -8.5986  -30.3353 H   0  0  0  0  0  0  0  0  0  0  0  0
  -19.9596   -7.1229  -30.3725 H   0  0  0  0  0  0  0  0  0  0  0  0
  -20.5699   -0.8670  -25.9878 C   0  0  0  0  0  0  0  0  0  0  0  0
  -20.9860   -0.7167  -24.8772 O   0  0  0  0  0  0  0  0  0  0  0  0
  -19.6401   -1.9484  -26.2987 N   0  0  0  0  0  0  0  0  0  0  0  0
  -19.2334   -2.8493  -25.3190 C   0  0  0  0  0  0  0  0  0  0  0  0
  -19.3577   -4.2310  -25.9093 C   0  0  0  0  0  0  0  0  0  0  0  0
  -19.1668   -2.1587  -27.6240 C   0  0  0  0  0  0  0  0  0  0  0  0
  -18.0860   -3.2093  -27.6824 C   0  0  0  0  0  0  0  0  0  0  0  0
  -18.4733   -4.3786  -26.9904 N   0  0  0  0  0  0  0  0  0  0  0  0
  -22.2849    0.7669  -26.8690 C   0  0  0  0  0  0  0  0  0  0  0  0
  -21.8770    2.1922  -26.9276 C   0  0  0  0  0  0  0  0  0  0  0  0
  -20.5179    2.0584  -26.3784 C   0  0  0  0  0  0  0  0  0  0  0  0
  -20.0443    1.0334  -27.2121 O   0  0  0  0  0  0  0  0  0  0  0  0
  -20.9986    0.0487  -27.0728 C   0  0  0  0  0  0  0  0  0  0  0  0
  -14.6798  -10.4457  -26.5717 O   0  0  0  0  0  0  0  0  0  0  0  0
  -13.4759   -9.9548  -26.1871 C   0  0  0  0  0  0  0  0  0  0  0  0
  -15.9004  -11.3143  -28.4391 O   0  0  0  0  0  0  0  0  0  0  0  0
  -16.8416  -12.2195  -28.7445 C   0  0  0  0  0  0  0  0  0  0  0  0
 28 27  1  0  0  0
 27  6  1  0  0  0
  6  5  2  0  0  0
  6  7  1  0  0  0
  5  4  1  0  0  0
 29  7  1  0  0  0
 29 30  1  0  0  0
  7  8  2  0  0  0
  4  3  2  0  0  0
  4  9  1  0  0  0
  3  1  1  0  0  0
 19 20  1  0  0  0
 19 16  1  0  0  0
 20 21  1  0  0  0
 25 24  1  0  0  0
 25 26  1  0  0  0
  8  9  1  0  0  0
  9 10  2  0  0  0
  1 21  1  0  0  0
  1  2  2  0  0  0
 21 18  1  0  0  0
 24 23  1  0  0  0
 26 14  1  0  0  0
 26 22  1  0  0  0
 16 14  1  0  0  0
 16 17  1  0  0  0
 10  2  1  0  0  0
 10 11  1  0  0  0
 14 15  2  0  0  0
 22 23  1  0  0  0
 18 17  1  0  0  0
 11 12  1  0  0  0
 11 13  1  0  0  0
M  END
> <minimizedAffinity>
-7.37325

$$$$
4O3F_TZN_A_501


 30 33  0  0  0  0  0  0  0  0999 V2000
  -16.9256   -6.9418  -26.9507 C   0  0  0  0  0  0  0  0  0  0  0  0
  -17.5827   -7.6151  -27.7520 N   0  0  0  0  0  0  0  0  0  0  0  0
  -15.8492   -7.2980  -26.4134 N   0  0  0  0  0  0  0  0  0  0  0  0
  -15.2775   -8.4570  -26.6926 C   0  0  0  0  0  0  0  0  0  0  0  0
  -14.1036   -8.8603  -26.1254 C   0  0  0  0  0  0  0  0  0  0  0  0
  -13.5907  -10.1083  -26.4551 C   0  0  0  0  0  0  0  0  0  0  0  0
  -14.2510  -10.9123  -27.3365 C   0  0  0  0  0  0  0  0  0  0  0  0
  -15.4151  -10.5294  -27.9127 C   0  0  0  0  0  0  0  0  0  0  0  0
  -15.9333   -9.2955  -27.5920 C   0  0  0  0  0  0  0  0  0  0  0  0
  -17.1592   -8.7773  -28.1114 C   0  0  0  0  0  0  0  0  0  0  0  0
  -17.8835   -9.5384  -29.0274 N   0  0  0  0  0  0  0  0  0  0  0  0
  -17.5551  -10.4260  -29.2986 H   0  0  0  0  0  0  0  0  0  0  0  0
  -18.7234   -9.1883  -29.4032 H   0  0  0  0  0  0  0  0  0  0  0  0
  -19.5284   -1.9872  -26.9077 C   0  0  0  0  0  0  0  0  0  0  0  0
  -20.7184   -1.9431  -26.8028 O   0  0  0  0  0  0  0  0  0  0  0  0
  -18.7936   -3.2072  -26.5884 N   0  0  0  0  0  0  0  0  0  0  0  0
  -19.4584   -4.3594  -26.1793 C   0  0  0  0  0  0  0  0  0  0  0  0
  -18.8892   -5.5055  -26.9764 C   0  0  0  0  0  0  0  0  0  0  0  0
  -17.3812   -3.2822  -26.7442 C   0  0  0  0  0  0  0  0  0  0  0  0
  -16.8148   -4.5657  -26.1901 C   0  0  0  0  0  0  0  0  0  0  0  0
  -17.5317   -5.6867  -26.6651 N   0  0  0  0  0  0  0  0  0  0  0  0
  -19.4734    0.0970  -28.3362 C   0  0  0  0  0  0  0  0  0  0  0  0
  -19.5052    1.3956  -27.6195 C   0  0  0  0  0  0  0  0  0  0  0  0
  -19.5820    0.8877  -26.2400 C   0  0  0  0  0  0  0  0  0  0  0  0
  -18.4997   -0.0053  -26.2745 O   0  0  0  0  0  0  0  0  0  0  0  0
  -18.7780   -0.7944  -27.3699 C   0  0  0  0  0  0  0  0  0  0  0  0
  -12.4235  -10.6728  -26.0161 O   0  0  0  0  0  0  0  0  0  0  0  0
  -12.0668  -10.5069  -24.7186 C   0  0  0  0  0  0  0  0  0  0  0  0
  -13.6167  -12.0667  -27.5540 O   0  0  0  0  0  0  0  0  0  0  0  0
  -14.2412  -12.9934  -28.2955 C   0  0  0  0  0  0  0  0  0  0  0  0
 28 27  1  0  0  0
 27  6  1  0  0  0
  6  5  2  0  0  0
  6  7  1  0  0  0
  5  4  1  0  0  0
 29  7  1  0  0  0
 29 30  1  0  0  0
  7  8  2  0  0  0
  4  3  2  0  0  0
  4  9  1  0  0  0
  3  1  1  0  0  0
 19 20  1  0  0  0
 19 16  1  0  0  0
 20 21  1  0  0  0
 25 24  1  0  0  0
 25 26  1  0  0  0
  8  9  1  0  0  0
  9 10  2  0  0  0
  1 21  1  0  0  0
  1  2  2  0  0  0
 21 18  1  0  0  0
 24 23  1  0  0  0
 26 14  1  0  0  0
 26 22  1  0  0  0
 16 14  1  0  0  0
 16 17  1  0  0  0
 10  2  1  0  0  0
 10 11  1  0  0  0
 14 15  2  0  0  0
 22 23  1  0  0  0
 18 17  1  0  0  0
 11 12  1  0  0  0
 11 13  1  0  0  0
M  END
> <minimizedAffinity>
-7.01728

$$$$
4O3F_TZN_A_501


 30 33  0  0  0  0  0  0  0  0999 V2000
  -17.2570   -6.0889  -26.4591 C   0  0  0  0  0  0  0  0  0  0  0  0
  -18.0925   -6.1965  -27.3635 N   0  0  0  0  0  0  0  0  0  0  0  0
  -17.2157   -5.1618  -25.6147 N   0  0  0  0  0  0  0  0  0  0  0  0
  -18.1181   -4.1958  -25.5911 C   0  0  0  0  0  0  0  0  0  0  0  0
  -18.0958   -3.1828  -24.6768 C   0  0  0  0  0  0  0  0  0  0  0  0
  -19.0678   -2.1929  -24.7454 C   0  0  0  0  0  0  0  0  0  0  0  0
  -20.0305   -2.2399  -25.7100 C   0  0  0  0  0  0  0  0  0  0  0  0
  -20.0720   -3.2382  -26.6241 C   0  0  0  0  0  0  0  0  0  0  0  0
  -19.1129   -4.2234  -26.5665 C   0  0  0  0  0  0  0  0  0  0  0  0
  -19.0296   -5.3203  -27.4781 C   0  0  0  0  0  0  0  0  0  0  0  0
  -19.9871   -5.4408  -28.4838 N   0  0  0  0  0  0  0  0  0  0  0  0
  -20.7012   -4.7682  -28.5668 H   0  0  0  0  0  0  0  0  0  0  0  0
  -19.9494   -6.1987  -29.1111 H   0  0  0  0  0  0  0  0  0  0  0  0
  -14.3176  -10.8420  -26.1551 C   0  0  0  0  0  0  0  0  0  0  0  0
  -14.3247  -11.6038  -27.0763 O   0  0  0  0  0  0  0  0  0  0  0  0
  -14.7802   -9.4671  -26.3173 N   0  0  0  0  0  0  0  0  0  0  0  0
  -15.2665   -9.0129  -27.5396 C   0  0  0  0  0  0  0  0  0  0  0  0
  -16.5513   -8.2758  -27.2583 C   0  0  0  0  0  0  0  0  0  0  0  0
  -14.8101   -8.5624  -25.2194 C   0  0  0  0  0  0  0  0  0  0  0  0
  -15.1501   -7.1571  -25.6491 C   0  0  0  0  0  0  0  0  0  0  0  0
  -16.2973   -7.1391  -26.4736 N   0  0  0  0  0  0  0  0  0  0  0  0
  -13.6550  -12.7526  -24.6392 C   0  0  0  0  0  0  0  0  0  0  0  0
  -12.2153  -12.8625  -24.2981 C   0  0  0  0  0  0  0  0  0  0  0  0
  -11.7141  -11.7150  -25.0719 C   0  0  0  0  0  0  0  0  0  0  0  0
  -12.5970  -10.7306  -24.6013 O   0  0  0  0  0  0  0  0  0  0  0  0
  -13.8376  -11.2883  -24.8247 C   0  0  0  0  0  0  0  0  0  0  0  0
  -19.2270   -1.1210  -23.9092 O   0  0  0  0  0  0  0  0  0  0  0  0
  -18.4668   -1.0497  -22.7888 C   0  0  0  0  0  0  0  0  0  0  0  0
  -20.8928   -1.2243  -25.6256 O   0  0  0  0  0  0  0  0  0  0  0  0
  -22.1359   -1.4193  -26.0895 C   0  0  0  0  0  0  0  0  0  0  0  0
 28 27  1  0  0  0
 27  6  1  0  0  0
  6  5  2  0  0  0
  6  7  1  0  0  0
  5  4  1  0  0  0
 29  7  1  0  0  0
 29 30  1  0  0  0
  7  8  2  0  0  0
  4  3  2  0  0  0
  4  9  1  0  0  0
  3  1  1  0  0  0
 19 20  1  0  0  0
 19 16  1  0  0  0
 20 21  1  0  0  0
 25 24  1  0  0  0
 25 26  1  0  0  0
  8  9  1  0  0  0
  9 10  2  0  0  0
  1 21  1  0  0  0
  1  2  2  0  0  0
 21 18  1  0  0  0
 24 23  1  0  0  0
 26 14  1  0  0  0
 26 22  1  0  0  0
 16 14  1  0  0  0
 16 17  1  0  0  0
 10  2  1  0  0  0
 10 11  1  0  0  0
 14 15  2  0  0  0
 22 23  1  0  0  0
 18 17  1  0  0  0
 11 12  1  0  0  0
 11 13  1  0  0  0
M  END
> <minimizedAffinity>
-6.99777

$$$$
4O3F_TZN_A_501


 30 33  0  0  0  0  0  0  0  0999 V2000
  -18.0730   -5.8412  -27.0146 C   0  0  0  0  0  0  0  0  0  0  0  0
  -18.7168   -6.2228  -27.9981 N   0  0  0  0  0  0  0  0  0  0  0  0
  -17.1274   -6.4672  -26.4776 N   0  0  0  0  0  0  0  0  0  0  0  0
  -16.6919   -7.6210  -26.9541 C   0  0  0  0  0  0  0  0  0  0  0  0
  -15.6604   -8.3141  -26.3899 C   0  0  0  0  0  0  0  0  0  0  0  0
  -15.2889   -9.5341  -26.9402 C   0  0  0  0  0  0  0  0  0  0  0  0
  -15.9443  -10.0250  -28.0305 C   0  0  0  0  0  0  0  0  0  0  0  0
  -16.9678   -9.3513  -28.6070 C   0  0  0  0  0  0  0  0  0  0  0  0
  -17.3454   -8.1422  -28.0691 C   0  0  0  0  0  0  0  0  0  0  0  0
  -18.4178   -7.3396  -28.5661 C   0  0  0  0  0  0  0  0  0  0  0  0
  -19.1260   -7.7717  -29.6861 N   0  0  0  0  0  0  0  0  0  0  0  0
  -18.8932   -8.6261  -30.1162 H   0  0  0  0  0  0  0  0  0  0  0  0
  -19.8591   -7.2225  -30.0470 H   0  0  0  0  0  0  0  0  0  0  0  0
  -19.4555   -0.5169  -25.9824 C   0  0  0  0  0  0  0  0  0  0  0  0
  -20.4839   -0.0783  -26.4057 O   0  0  0  0  0  0  0  0  0  0  0  0
  -19.2186   -1.9565  -25.9359 N   0  0  0  0  0  0  0  0  0  0  0  0
  -20.1704   -2.8562  -26.4065 C   0  0  0  0  0  0  0  0  0  0  0  0
  -19.4463   -3.8504  -27.2786 C   0  0  0  0  0  0  0  0  0  0  0  0
  -17.9845   -2.4882  -25.4679 C   0  0  0  0  0  0  0  0  0  0  0  0
  -18.0246   -3.9905  -25.3386 C   0  0  0  0  0  0  0  0  0  0  0  0
  -18.5300   -4.5904  -26.5137 N   0  0  0  0  0  0  0  0  0  0  0  0
  -18.4809    1.8148  -25.9589 C   0  0  0  0  0  0  0  0  0  0  0  0
  -18.5911    2.5689  -24.6860 C   0  0  0  0  0  0  0  0  0  0  0  0
  -19.3079    1.5597  -23.8897 C   0  0  0  0  0  0  0  0  0  0  0  0
  -18.4681    0.4594  -24.1227 O   0  0  0  0  0  0  0  0  0  0  0  0
  -18.3980    0.4031  -25.4980 C   0  0  0  0  0  0  0  0  0  0  0  0
  -14.2712  -10.3557  -26.5366 O   0  0  0  0  0  0  0  0  0  0  0  0
  -14.1393  -10.6295  -25.2153 C   0  0  0  0  0  0  0  0  0  0  0  0
  -15.4539  -11.1970  -28.4406 O   0  0  0  0  0  0  0  0  0  0  0  0
  -16.3071  -12.2248  -28.5595 C   0  0  0  0  0  0  0  0  0  0  0  0
 28 27  1  0  0  0
 27  6  1  0  0  0
  6  5  2  0  0  0
  6  7  1  0  0  0
  5  4  1  0  0  0
 29  7  1  0  0  0
 29 30  1  0  0  0
  7  8  2  0  0  0
  4  3  2  0  0  0
  4  9  1  0  0  0
  3  1  1  0  0  0
 19 20  1  0  0  0
 19 16  1  0  0  0
 20 21  1  0  0  0
 25 24  1  0  0  0
 25 26  1  0  0  0
  8  9  1  0  0  0
  9 10  2  0  0  0
  1 21  1  0  0  0
  1  2  2  0  0  0
 21 18  1  0  0  0
 24 23  1  0  0  0
 26 14  1  0  0  0
 26 22  1  0  0  0
 16 14  1  0  0  0
 16 17  1  0  0  0
 10  2  1  0  0  0
 10 11  1  0  0  0
 14 15  2  0  0  0
 22 23  1  0  0  0
 18 17  1  0  0  0
 11 12  1  0  0  0
 11 13  1  0  0  0
M  END
> <minimizedAffinity>
-6.98804

$$$$
4O3F_TZN_A_501


 30 33  0  0  0  0  0  0  0  0999 V2000
  -16.3573   -7.0793  -26.5481 C   0  0  0  0  0  0  0  0  0  0  0  0
  -15.2296   -7.2958  -26.0912 N   0  0  0  0  0  0  0  0  0  0  0  0
  -17.0186   -7.8747  -27.2582 N   0  0  0  0  0  0  0  0  0  0  0  0
  -16.5678   -9.0790  -27.5657 C   0  0  0  0  0  0  0  0  0  0  0  0
  -17.2741   -9.9620  -28.3300 C   0  0  0  0  0  0  0  0  0  0  0  0
  -16.7094  -11.1954  -28.6284 C   0  0  0  0  0  0  0  0  0  0  0  0
  -15.4703  -11.5164  -28.1583 C   0  0  0  0  0  0  0  0  0  0  0  0
  -14.7549  -10.6558  -27.3958 C   0  0  0  0  0  0  0  0  0  0  0  0
  -15.3040   -9.4303  -27.0953 C   0  0  0  0  0  0  0  0  0  0  0  0
  -14.6515   -8.4241  -26.3188 C   0  0  0  0  0  0  0  0  0  0  0  0
  -13.3868   -8.6858  -25.7944 N   0  0  0  0  0  0  0  0  0  0  0  0
  -12.9496   -9.5499  -25.9715 H   0  0  0  0  0  0  0  0  0  0  0  0
  -12.9308   -8.0064  -25.2469 H   0  0  0  0  0  0  0  0  0  0  0  0
  -18.1790   -1.7952  -26.2586 C   0  0  0  0  0  0  0  0  0  0  0  0
  -19.3302   -1.5521  -26.4704 O   0  0  0  0  0  0  0  0  0  0  0  0
  -17.7391   -3.1614  -25.9932 N   0  0  0  0  0  0  0  0  0  0  0  0
  -18.6411   -4.2211  -26.0056 C   0  0  0  0  0  0  0  0  0  0  0  0
  -18.0181   -5.3230  -26.8246 C   0  0  0  0  0  0  0  0  0  0  0  0
  -16.3666   -3.4673  -25.7757 C   0  0  0  0  0  0  0  0  0  0  0  0
  -16.1638   -4.8990  -25.3459 C   0  0  0  0  0  0  0  0  0  0  0  0
  -16.8496   -5.7903  -26.2010 N   0  0  0  0  0  0  0  0  0  0  0  0
  -17.5302    0.5233  -27.0275 C   0  0  0  0  0  0  0  0  0  0  0  0
  -17.4827    1.5801  -25.9872 C   0  0  0  0  0  0  0  0  0  0  0  0
  -17.8902    0.7704  -24.8274 C   0  0  0  0  0  0  0  0  0  0  0  0
  -16.9777   -0.2870  -24.9666 O   0  0  0  0  0  0  0  0  0  0  0  0
  -17.1751   -0.7036  -26.2656 C   0  0  0  0  0  0  0  0  0  0  0  0
  -17.2679  -12.2157  -29.3500 O   0  0  0  0  0  0  0  0  0  0  0  0
  -18.2319  -11.9213  -30.2568 C   0  0  0  0  0  0  0  0  0  0  0  0
  -15.0834  -12.7409  -28.5230 O   0  0  0  0  0  0  0  0  0  0  0  0
  -13.8638  -13.1502  -28.1441 C   0  0  0  0  0  0  0  0  0  0  0  0
 28 27  1  0  0  0
 27  6  1  0  0  0
  6  5  2  0  0  0
  6  7  1  0  0  0
  5  4  1  0  0  0
 29  7  1  0  0  0
 29 30  1  0  0  0
  7  8  2  0  0  0
  4  3  2  0  0  0
  4  9  1  0  0  0
  3  1  1  0  0  0
 19 20  1  0  0  0
 19 16  1  0  0  0
 20 21  1  0  0  0
 25 24  1  0  0  0
 25 26  1  0  0  0
  8  9  1  0  0  0
  9 10  2  0  0  0
  1 21  1  0  0  0
  1  2  2  0  0  0
 21 18  1  0  0  0
 24 23  1  0  0  0
 26 14  1  0  0  0
 26 22  1  0  0  0
 16 14  1  0  0  0
 16 17  1  0  0  0
 10  2  1  0  0  0
 10 11  1  0  0  0
 14 15  2  0  0  0
 22 23  1  0  0  0
 18 17  1  0  0  0
 11 12  1  0  0  0
 11 13  1  0  0  0
M  END
> <minimizedAffinity>
-6.95533

$$$$
4O3F_TZN_A_501


 30 33  0  0  0  0  0  0  0  0999 V2000
  -16.4571   -7.0638  -26.9282 C   0  0  0  0  0  0  0  0  0  0  0  0
  -17.4940   -6.8725  -27.5727 N   0  0  0  0  0  0  0  0  0  0  0  0
  -15.8158   -8.1414  -26.8865 N   0  0  0  0  0  0  0  0  0  0  0  0
  -16.1845   -9.2027  -27.5835 C   0  0  0  0  0  0  0  0  0  0  0  0
  -15.4972  -10.3815  -27.5583 C   0  0  0  0  0  0  0  0  0  0  0  0
  -15.9746  -11.4547  -28.2997 C   0  0  0  0  0  0  0  0  0  0  0  0
  -17.1100  -11.3259  -29.0438 C   0  0  0  0  0  0  0  0  0  0  0  0
  -17.8044  -10.1640  -29.0849 C   0  0  0  0  0  0  0  0  0  0  0  0
  -17.3414   -9.0946  -28.3528 C   0  0  0  0  0  0  0  0  0  0  0  0
  -17.9859   -7.8210  -28.2922 C   0  0  0  0  0  0  0  0  0  0  0  0
  -19.1455   -7.6113  -29.0366 N   0  0  0  0  0  0  0  0  0  0  0  0
  -19.5170   -8.3398  -29.5848 H   0  0  0  0  0  0  0  0  0  0  0  0
  -19.5930   -6.7346  -29.0143 H   0  0  0  0  0  0  0  0  0  0  0  0
  -15.3389   -1.9865  -24.8555 C   0  0  0  0  0  0  0  0  0  0  0  0
  -16.1515   -1.4304  -24.1777 O   0  0  0  0  0  0  0  0  0  0  0  0
  -15.4443   -3.4165  -25.1284 N   0  0  0  0  0  0  0  0  0  0  0  0
  -16.5058   -4.1661  -24.6302 C   0  0  0  0  0  0  0  0  0  0  0  0
  -17.0302   -5.0025  -25.7698 C   0  0  0  0  0  0  0  0  0  0  0  0
  -14.5032   -4.0815  -25.9633 C   0  0  0  0  0  0  0  0  0  0  0  0
  -14.6984   -5.5772  -25.9620 C   0  0  0  0  0  0  0  0  0  0  0  0
  -16.0505   -5.9155  -26.1931 N   0  0  0  0  0  0  0  0  0  0  0  0
  -14.4035    0.2410  -25.5975 C   0  0  0  0  0  0  0  0  0  0  0  0
  -13.3114    0.8121  -24.7715 C   0  0  0  0  0  0  0  0  0  0  0  0
  -13.2264   -0.2454  -23.7512 C   0  0  0  0  0  0  0  0  0  0  0  0
  -13.1192   -1.3594  -24.5983 O   0  0  0  0  0  0  0  0  0  0  0  0
  -14.2063   -1.2242  -25.4347 C   0  0  0  0  0  0  0  0  0  0  0  0
  -15.4149  -12.6978  -28.4231 O   0  0  0  0  0  0  0  0  0  0  0  0
  -14.1154  -12.8651  -28.0746 C   0  0  0  0  0  0  0  0  0  0  0  0
  -17.4206  -12.4431  -29.7052 O   0  0  0  0  0  0  0  0  0  0  0  0
  -18.4642  -12.4020  -30.5465 C   0  0  0  0  0  0  0  0  0  0  0  0
 28 27  1  0  0  0
 27  6  1  0  0  0
  6  5  2  0  0  0
  6  7  1  0  0  0
  5  4  1  0  0  0
 29  7  1  0  0  0
 29 30  1  0  0  0
  7  8  2  0  0  0
  4  3  2  0  0  0
  4  9  1  0  0  0
  3  1  1  0  0  0
 19 20  1  0  0  0
 19 16  1  0  0  0
 20 21  1  0  0  0
 25 24  1  0  0  0
 25 26  1  0  0  0
  8  9  1  0  0  0
  9 10  2  0  0  0
  1 21  1  0  0  0
  1  2  2  0  0  0
 21 18  1  0  0  0
 24 23  1  0  0  0
 26 14  1  0  0  0
 26 22  1  0  0  0
 16 14  1  0  0  0
 16 17  1  0  0  0
 10  2  1  0  0  0
 10 11  1  0  0  0
 14 15  2  0  0  0
 22 23  1  0  0  0
 18 17  1  0  0  0
 11 12  1  0  0  0
 11 13  1  0  0  0
M  END
> <minimizedAffinity>
-6.89972

$$$$
