6G0Z_GDP_B_301


 36 38  0  0  0  0  0  0  0  0999 V2000
  -47.2413   44.8373  136.6043 C   0  0  0  0  0  0  0  0  0  0  0  0
  -47.0815   45.3494  137.9759 O   0  0  0  0  0  0  0  0  0  0  0  0
  -47.1755   46.0208  135.7179 C   0  0  0  0  0  0  0  0  0  0  0  0
  -48.5054   46.5100  135.4796 O   0  0  0  0  0  0  0  0  0  0  0  0
  -46.4392   47.0347  136.4725 C   0  0  0  0  0  0  0  0  0  0  0  0
  -46.8406   48.3353  136.0048 O   0  0  0  0  0  0  0  0  0  0  0  0
  -46.8363   46.8065  137.8808 C   0  0  0  0  0  0  0  0  0  0  0  0
  -48.9287   46.7214  136.3264 H   0  0  0  0  0  0  0  0  0  0  0  0
  -47.8025   48.4268  136.0898 H   0  0  0  0  0  0  0  0  0  0  0  0
  -45.8217   47.1520  138.7866 N   0  0  0  0  0  0  0  0  0  0  0  0
  -44.7065   47.4586  138.3784 C   0  0  0  0  0  0  0  0  0  0  0  0
  -43.9366   47.7294  139.4914 N   0  0  0  0  0  0  0  0  0  0  0  0
  -44.8445   47.5103  140.6565 C   0  0  0  0  0  0  0  0  0  0  0  0
  -44.8324   47.5680  142.0664 C   0  0  0  0  0  0  0  0  0  0  0  0
  -43.8252   47.8732  142.6828 O   0  0  0  0  0  0  0  0  0  0  0  0
  -45.9877   47.2613  142.7747 N   0  0  0  0  0  0  0  0  0  0  0  0
  -47.1359   46.9029  142.0999 C   0  0  0  0  0  0  0  0  0  0  0  0
  -48.3269   46.5693  142.8265 N   0  0  0  0  0  0  0  0  0  0  0  0
  -47.1311   46.8591  140.7610 N   0  0  0  0  0  0  0  0  0  0  0  0
  -46.0734   47.1264  140.0209 C   0  0  0  0  0  0  0  0  0  0  0  0
  -45.9866   47.2998  143.7584 H   0  0  0  0  0  0  0  0  0  0  0  0
  -48.3287   46.6021  143.8105 H   0  0  0  0  0  0  0  0  0  0  0  0
  -49.1425   46.3075  142.3413 H   0  0  0  0  0  0  0  0  0  0  0  0
  -46.1605   43.8650  136.2346 C   0  0  0  0  0  0  0  0  0  0  0  0
  -45.7133   43.1908  137.4257 O   0  0  0  0  0  0  0  0  0  0  0  0
  -44.2430   43.4723  137.9886 P   0  0  0  0  0  0  0  0  0  0  0  0
  -43.5440   44.3974  137.0543 O   0  0  0  0  0  0  0  0  0  0  0  0
  -43.4081   42.2387  138.0033 O   0  0  0  0  0  0  0  0  0  0  0  0
  -42.5268   42.4488  138.3498 H   0  0  0  0  0  0  0  0  0  0  0  0
  -44.3226   44.0760  139.4612 O   0  0  0  0  0  0  0  0  0  0  0  0
  -45.2027   43.5495  140.6765 P   0  0  0  0  0  0  0  0  0  0  0  0
  -44.8685   42.1272  140.9684 O   0  0  0  0  0  0  0  0  0  0  0  0
  -46.7354   43.7098  140.3614 O   0  0  0  0  0  0  0  0  0  0  0  0
  -44.8391   44.1842  141.9775 O   0  0  0  0  0  0  0  0  0  0  0  0
  -47.2557   43.3840  141.1124 H   0  0  0  0  0  0  0  0  0  0  0  0
  -45.4046   43.8278  142.6804 H   0  0  0  0  0  0  0  0  0  0  0  0
 31 32  2  0  0  0
 31 33  1  0  0  0
 31 34  1  0  0  0
 31 30  1  0  0  0
 30 26  1  0  0  0
 26 27  2  0  0  0
 26 28  1  0  0  0
 26 25  1  0  0  0
 25 24  1  0  0  0
 24  1  1  0  0  0
  1  2  1  0  0  0
  1  3  1  0  0  0
  2  7  1  0  0  0
  3  4  1  0  0  0
  3  5  1  0  0  0
  5  6  1  0  0  0
  5  7  1  0  0  0
  7 10  1  0  0  0
 10 11  1  0  0  0
 10 20  1  0  0  0
 11 12  2  0  0  0
 12 13  1  0  0  0
 13 14  1  0  0  0
 13 20  2  0  0  0
 14 15  2  0  0  0
 14 16  1  0  0  0
 16 17  1  0  0  0
 17 18  1  0  0  0
 17 19  2  0  0  0
 19 20  1  0  0  0
 33 35  1  0  0  0
 34 36  1  0  0  0
 28 29  1  0  0  0
  4  8  1  0  0  0
  6  9  1  0  0  0
 16 21  1  0  0  0
 18 22  1  0  0  0
 18 23  1  0  0  0
M  END
> <minimizedAffinity>
-1.75645

$$$$
6G0Z_GDP_B_301


 36 38  0  0  0  0  0  0  0  0999 V2000
  -45.3264   45.3085  137.6058 C   0  0  0  0  0  0  0  0  0  0  0  0
  -46.7526   45.1372  137.9308 O   0  0  0  0  0  0  0  0  0  0  0  0
  -45.2363   46.5558  136.8143 C   0  0  0  0  0  0  0  0  0  0  0  0
  -45.3143   46.2371  135.4154 O   0  0  0  0  0  0  0  0  0  0  0  0
  -46.4196   47.3356  137.1765 C   0  0  0  0  0  0  0  0  0  0  0  0
  -46.7465   48.2085  136.0798 O   0  0  0  0  0  0  0  0  0  0  0  0
  -47.4728   46.3208  137.4086 C   0  0  0  0  0  0  0  0  0  0  0  0
  -46.1403   45.7606  135.2379 H   0  0  0  0  0  0  0  0  0  0  0  0
  -46.8736   47.6825  135.2748 H   0  0  0  0  0  0  0  0  0  0  0  0
  -48.4133   46.7333  138.3650 N   0  0  0  0  0  0  0  0  0  0  0  0
  -48.1547   47.6584  139.1276 C   0  0  0  0  0  0  0  0  0  0  0  0
  -49.2541   47.8176  139.9464 N   0  0  0  0  0  0  0  0  0  0  0  0
  -50.2257   46.7742  139.5023 C   0  0  0  0  0  0  0  0  0  0  0  0
  -51.5163   46.2935  139.8094 C   0  0  0  0  0  0  0  0  0  0  0  0
  -52.1794   46.7796  140.7103 O   0  0  0  0  0  0  0  0  0  0  0  0
  -52.0453   45.2360  139.0799 N   0  0  0  0  0  0  0  0  0  0  0  0
  -51.3098   44.6629  138.0636 C   0  0  0  0  0  0  0  0  0  0  0  0
  -51.8442   43.5601  137.3179 N   0  0  0  0  0  0  0  0  0  0  0  0
  -50.0885   45.1358  137.7817 N   0  0  0  0  0  0  0  0  0  0  0  0
  -49.5161   46.1279  138.4344 C   0  0  0  0  0  0  0  0  0  0  0  0
  -52.9452   44.8957  139.2884 H   0  0  0  0  0  0  0  0  0  0  0  0
  -52.7419   43.2139  137.5263 H   0  0  0  0  0  0  0  0  0  0  0  0
  -51.3133   43.1496  136.5976 H   0  0  0  0  0  0  0  0  0  0  0  0
  -44.4764   45.4251  138.8363 C   0  0  0  0  0  0  0  0  0  0  0  0
  -45.3229   45.3319  139.9975 O   0  0  0  0  0  0  0  0  0  0  0  0
  -45.1724   46.4051  141.1737 P   0  0  0  0  0  0  0  0  0  0  0  0
  -44.7324   47.6998  140.5841 O   0  0  0  0  0  0  0  0  0  0  0  0
  -44.0932   46.0329  142.1308 O   0  0  0  0  0  0  0  0  0  0  0  0
  -44.0325   46.7054  142.8272 H   0  0  0  0  0  0  0  0  0  0  0  0
  -46.5495   46.5573  141.9608 O   0  0  0  0  0  0  0  0  0  0  0  0
  -46.8924   47.5908  143.1197 P   0  0  0  0  0  0  0  0  0  0  0  0
  -47.0868   46.8662  144.4069 O   0  0  0  0  0  0  0  0  0  0  0  0
  -48.1707   48.4308  142.7530 O   0  0  0  0  0  0  0  0  0  0  0  0
  -45.7401   48.4697  143.4766 O   0  0  0  0  0  0  0  0  0  0  0  0
  -48.3643   49.0547  143.4702 H   0  0  0  0  0  0  0  0  0  0  0  0
  -46.0042   49.0773  144.1852 H   0  0  0  0  0  0  0  0  0  0  0  0
 31 32  2  0  0  0
 31 33  1  0  0  0
 31 34  1  0  0  0
 31 30  1  0  0  0
 30 26  1  0  0  0
 26 27  2  0  0  0
 26 28  1  0  0  0
 26 25  1  0  0  0
 25 24  1  0  0  0
 24  1  1  0  0  0
  1  2  1  0  0  0
  1  3  1  0  0  0
  2  7  1  0  0  0
  3  4  1  0  0  0
  3  5  1  0  0  0
  5  6  1  0  0  0
  5  7  1  0  0  0
  7 10  1  0  0  0
 10 11  1  0  0  0
 10 20  1  0  0  0
 11 12  2  0  0  0
 12 13  1  0  0  0
 13 14  1  0  0  0
 13 20  2  0  0  0
 14 15  2  0  0  0
 14 16  1  0  0  0
 16 17  1  0  0  0
 17 18  1  0  0  0
 17 19  2  0  0  0
 19 20  1  0  0  0
 33 35  1  0  0  0
 34 36  1  0  0  0
 28 29  1  0  0  0
  4  8  1  0  0  0
  6  9  1  0  0  0
 16 21  1  0  0  0
 18 22  1  0  0  0
 18 23  1  0  0  0
M  END
> <minimizedAffinity>
-1.59755

$$$$
6G0Z_GDP_B_301


 36 38  0  0  0  0  0  0  0  0999 V2000
  -49.5948   43.4897  138.4441 C   0  0  0  0  0  0  0  0  0  0  0  0
  -48.4045   43.9664  137.7195 O   0  0  0  0  0  0  0  0  0  0  0  0
  -49.1146   42.4382  139.3683 C   0  0  0  0  0  0  0  0  0  0  0  0
  -49.2319   41.1560  138.7306 O   0  0  0  0  0  0  0  0  0  0  0  0
  -47.6950   42.7207  139.5789 C   0  0  0  0  0  0  0  0  0  0  0  0
  -47.0287   41.4912  139.9193 O   0  0  0  0  0  0  0  0  0  0  0  0
  -47.2301   43.2606  138.2807 C   0  0  0  0  0  0  0  0  0  0  0  0
  -48.7281   41.1598  137.9017 H   0  0  0  0  0  0  0  0  0  0  0  0
  -47.1831   40.8358  139.2210 H   0  0  0  0  0  0  0  0  0  0  0  0
  -46.1804   44.1804  138.4276 N   0  0  0  0  0  0  0  0  0  0  0  0
  -45.8111   44.5238  139.5456 C   0  0  0  0  0  0  0  0  0  0  0  0
  -44.7876   45.4317  139.3646 N   0  0  0  0  0  0  0  0  0  0  0  0
  -44.6332   45.5555  137.8845 C   0  0  0  0  0  0  0  0  0  0  0  0
  -43.8544   46.2427  136.9293 C   0  0  0  0  0  0  0  0  0  0  0  0
  -42.9889   47.0344  137.2635 O   0  0  0  0  0  0  0  0  0  0  0  0
  -44.0806   46.0250  135.5759 N   0  0  0  0  0  0  0  0  0  0  0  0
  -45.0613   45.1425  135.1735 C   0  0  0  0  0  0  0  0  0  0  0  0
  -45.3103   44.9262  133.7775 N   0  0  0  0  0  0  0  0  0  0  0  0
  -45.7872   44.4943  136.0941 N   0  0  0  0  0  0  0  0  0  0  0  0
  -45.6383   44.6550  137.3940 C   0  0  0  0  0  0  0  0  0  0  0  0
  -43.5408   46.5007  134.9039 H   0  0  0  0  0  0  0  0  0  0  0  0
  -44.7758   45.4034  133.1024 H   0  0  0  0  0  0  0  0  0  0  0  0
  -46.0157   44.3004  133.4945 H   0  0  0  0  0  0  0  0  0  0  0  0
  -50.2590   44.5862  139.2231 C   0  0  0  0  0  0  0  0  0  0  0  0
  -50.0687   45.8326  138.5276 O   0  0  0  0  0  0  0  0  0  0  0  0
  -49.1297   46.9589  139.1662 P   0  0  0  0  0  0  0  0  0  0  0  0
  -48.6688   46.4931  140.5034 O   0  0  0  0  0  0  0  0  0  0  0  0
  -49.8776   48.2188  139.4355 O   0  0  0  0  0  0  0  0  0  0  0  0
  -49.2766   48.8753  139.8211 H   0  0  0  0  0  0  0  0  0  0  0  0
  -47.9024   47.2676  138.1979 O   0  0  0  0  0  0  0  0  0  0  0  0
  -47.9510   47.5468  136.6332 P   0  0  0  0  0  0  0  0  0  0  0  0
  -48.8959   48.6618  136.3441 O   0  0  0  0  0  0  0  0  0  0  0  0
  -48.3649   46.2466  135.8507 O   0  0  0  0  0  0  0  0  0  0  0  0
  -46.6809   48.1261  136.1048 O   0  0  0  0  0  0  0  0  0  0  0  0
  -48.3892   46.4356  134.8996 H   0  0  0  0  0  0  0  0  0  0  0  0
  -46.7662   48.2754  135.1501 H   0  0  0  0  0  0  0  0  0  0  0  0
 31 32  2  0  0  0
 31 33  1  0  0  0
 31 34  1  0  0  0
 31 30  1  0  0  0
 30 26  1  0  0  0
 26 27  2  0  0  0
 26 28  1  0  0  0
 26 25  1  0  0  0
 25 24  1  0  0  0
 24  1  1  0  0  0
  1  2  1  0  0  0
  1  3  1  0  0  0
  2  7  1  0  0  0
  3  4  1  0  0  0
  3  5  1  0  0  0
  5  6  1  0  0  0
  5  7  1  0  0  0
  7 10  1  0  0  0
 10 11  1  0  0  0
 10 20  1  0  0  0
 11 12  2  0  0  0
 12 13  1  0  0  0
 13 14  1  0  0  0
 13 20  2  0  0  0
 14 15  2  0  0  0
 14 16  1  0  0  0
 16 17  1  0  0  0
 17 18  1  0  0  0
 17 19  2  0  0  0
 19 20  1  0  0  0
 33 35  1  0  0  0
 34 36  1  0  0  0
 28 29  1  0  0  0
  4  8  1  0  0  0
  6  9  1  0  0  0
 16 21  1  0  0  0
 18 22  1  0  0  0
 18 23  1  0  0  0
M  END
> <minimizedAffinity>
-1.55204

$$$$
6G0Z_GDP_B_301


 36 38  0  0  0  0  0  0  0  0999 V2000
  -49.2193   44.8627  140.2777 C   0  0  0  0  0  0  0  0  0  0  0  0
  -47.9854   44.7290  139.4848 O   0  0  0  0  0  0  0  0  0  0  0  0
  -48.7871   45.2374  141.6428 C   0  0  0  0  0  0  0  0  0  0  0  0
  -48.6396   44.0491  142.4370 O   0  0  0  0  0  0  0  0  0  0  0  0
  -47.4692   45.8511  141.4815 C   0  0  0  0  0  0  0  0  0  0  0  0
  -46.7324   45.6828  142.7064 O   0  0  0  0  0  0  0  0  0  0  0  0
  -46.8520   45.1090  140.3584 C   0  0  0  0  0  0  0  0  0  0  0  0
  -48.0031   43.4531  142.0121 H   0  0  0  0  0  0  0  0  0  0  0  0
  -46.6844   44.7396  142.9279 H   0  0  0  0  0  0  0  0  0  0  0  0
  -45.9597   45.9004  139.6189 N   0  0  0  0  0  0  0  0  0  0  0  0
  -46.0874   47.1200  139.5968 C   0  0  0  0  0  0  0  0  0  0  0  0
  -45.0831   47.6100  138.7868 N   0  0  0  0  0  0  0  0  0  0  0  0
  -44.3300   46.4053  138.3271 C   0  0  0  0  0  0  0  0  0  0  0  0
  -43.2274   46.0597  137.5172 C   0  0  0  0  0  0  0  0  0  0  0  0
  -42.5799   46.9080  136.9267 O   0  0  0  0  0  0  0  0  0  0  0  0
  -42.8723   44.7238  137.3767 N   0  0  0  0  0  0  0  0  0  0  0  0
  -43.5961   43.7456  138.0260 C   0  0  0  0  0  0  0  0  0  0  0  0
  -43.2442   42.3636  137.8715 N   0  0  0  0  0  0  0  0  0  0  0  0
  -44.6364   44.0922  138.7955 N   0  0  0  0  0  0  0  0  0  0  0  0
  -45.0395   45.3352  138.9699 C   0  0  0  0  0  0  0  0  0  0  0  0
  -42.1039   44.4754  136.8136 H   0  0  0  0  0  0  0  0  0  0  0  0
  -42.4794   42.1107  137.3055 H   0  0  0  0  0  0  0  0  0  0  0  0
  -43.7676   41.6680  138.3314 H   0  0  0  0  0  0  0  0  0  0  0  0
  -50.1334   45.9169  139.7270 C   0  0  0  0  0  0  0  0  0  0  0  0
  -49.6760   46.2902  138.4137 O   0  0  0  0  0  0  0  0  0  0  0  0
  -49.5647   47.8378  138.0257 P   0  0  0  0  0  0  0  0  0  0  0  0
  -49.4395   48.6351  139.2771 O   0  0  0  0  0  0  0  0  0  0  0  0
  -50.8077   48.3381  137.3747 O   0  0  0  0  0  0  0  0  0  0  0  0
  -50.7022   49.2770  137.1550 H   0  0  0  0  0  0  0  0  0  0  0  0
  -48.3249   48.0746  137.0531 O   0  0  0  0  0  0  0  0  0  0  0  0
  -47.6493   47.0207  136.0725 P   0  0  0  0  0  0  0  0  0  0  0  0
  -48.2971   47.0843  134.7324 O   0  0  0  0  0  0  0  0  0  0  0  0
  -47.7426   45.5686  136.6698 O   0  0  0  0  0  0  0  0  0  0  0  0
  -46.2459   47.3777  135.7105 O   0  0  0  0  0  0  0  0  0  0  0  0
  -47.3262   44.9405  136.0592 H   0  0  0  0  0  0  0  0  0  0  0  0
  -45.8846   46.7039  135.1136 H   0  0  0  0  0  0  0  0  0  0  0  0
 31 32  2  0  0  0
 31 33  1  0  0  0
 31 34  1  0  0  0
 31 30  1  0  0  0
 30 26  1  0  0  0
 26 27  2  0  0  0
 26 28  1  0  0  0
 26 25  1  0  0  0
 25 24  1  0  0  0
 24  1  1  0  0  0
  1  2  1  0  0  0
  1  3  1  0  0  0
  2  7  1  0  0  0
  3  4  1  0  0  0
  3  5  1  0  0  0
  5  6  1  0  0  0
  5  7  1  0  0  0
  7 10  1  0  0  0
 10 11  1  0  0  0
 10 20  1  0  0  0
 11 12  2  0  0  0
 12 13  1  0  0  0
 13 14  1  0  0  0
 13 20  2  0  0  0
 14 15  2  0  0  0
 14 16  1  0  0  0
 16 17  1  0  0  0
 17 18  1  0  0  0
 17 19  2  0  0  0
 19 20  1  0  0  0
 33 35  1  0  0  0
 34 36  1  0  0  0
 28 29  1  0  0  0
  4  8  1  0  0  0
  6  9  1  0  0  0
 16 21  1  0  0  0
 18 22  1  0  0  0
 18 23  1  0  0  0
M  END
> <minimizedAffinity>
-1.50089

$$$$
6G0Z_GDP_B_301


 36 38  0  0  0  0  0  0  0  0999 V2000
  -48.8525   44.1982  137.0367 C   0  0  0  0  0  0  0  0  0  0  0  0
  -48.0964   44.5429  138.2526 O   0  0  0  0  0  0  0  0  0  0  0  0
  -50.2402   43.9378  137.4806 C   0  0  0  0  0  0  0  0  0  0  0  0
  -50.3999   42.5337  137.7404 O   0  0  0  0  0  0  0  0  0  0  0  0
  -50.3894   44.6606  138.7435 C   0  0  0  0  0  0  0  0  0  0  0  0
  -51.4051   44.0085  139.5274 O   0  0  0  0  0  0  0  0  0  0  0  0
  -49.0555   44.5690  139.3803 C   0  0  0  0  0  0  0  0  0  0  0  0
  -49.7534   42.2525  138.4066 H   0  0  0  0  0  0  0  0  0  0  0  0
  -51.1684   43.0762  139.6524 H   0  0  0  0  0  0  0  0  0  0  0  0
  -48.7698   45.6803  140.1882 N   0  0  0  0  0  0  0  0  0  0  0  0
  -49.4187   46.7142  140.0696 C   0  0  0  0  0  0  0  0  0  0  0  0
  -48.9007   47.6149  140.9780 N   0  0  0  0  0  0  0  0  0  0  0  0
  -47.7923   46.8849  141.6624 C   0  0  0  0  0  0  0  0  0  0  0  0
  -46.8160   47.0859  142.6612 C   0  0  0  0  0  0  0  0  0  0  0  0
  -46.7106   48.1523  143.2436 O   0  0  0  0  0  0  0  0  0  0  0  0
  -45.9452   46.0531  142.9859 N   0  0  0  0  0  0  0  0  0  0  0  0
  -46.0380   44.8416  142.3333 C   0  0  0  0  0  0  0  0  0  0  0  0
  -45.1310   43.7772  142.6528 N   0  0  0  0  0  0  0  0  0  0  0  0
  -46.9747   44.6664  141.3918 N   0  0  0  0  0  0  0  0  0  0  0  0
  -47.8289   45.6001  141.0224 C   0  0  0  0  0  0  0  0  0  0  0  0
  -45.2618   46.1861  143.6820 H   0  0  0  0  0  0  0  0  0  0  0  0
  -44.4432   43.9077  143.3450 H   0  0  0  0  0  0  0  0  0  0  0  0
  -45.1964   42.9162  142.1799 H   0  0  0  0  0  0  0  0  0  0  0  0
  -48.8414   45.3104  136.0301 C   0  0  0  0  0  0  0  0  0  0  0  0
  -47.5820   46.0032  136.1154 O   0  0  0  0  0  0  0  0  0  0  0  0
  -47.5359   47.4901  136.7026 P   0  0  0  0  0  0  0  0  0  0  0  0
  -48.9322   47.9625  136.9139 O   0  0  0  0  0  0  0  0  0  0  0  0
  -46.9480   48.4535  135.7303 O   0  0  0  0  0  0  0  0  0  0  0  0
  -46.9371   49.3412  136.1210 H   0  0  0  0  0  0  0  0  0  0  0  0
  -46.6949   47.5229  138.0557 O   0  0  0  0  0  0  0  0  0  0  0  0
  -45.1934   47.0464  138.2733 P   0  0  0  0  0  0  0  0  0  0  0  0
  -44.4587   48.0418  139.1035 O   0  0  0  0  0  0  0  0  0  0  0  0
  -44.4739   46.8319  136.8912 O   0  0  0  0  0  0  0  0  0  0  0  0
  -45.0856   45.8382  139.1432 O   0  0  0  0  0  0  0  0  0  0  0  0
  -43.5609   46.5419  137.0435 H   0  0  0  0  0  0  0  0  0  0  0  0
  -44.1524   45.5928  139.2415 H   0  0  0  0  0  0  0  0  0  0  0  0
 31 32  2  0  0  0
 31 33  1  0  0  0
 31 34  1  0  0  0
 31 30  1  0  0  0
 30 26  1  0  0  0
 26 27  2  0  0  0
 26 28  1  0  0  0
 26 25  1  0  0  0
 25 24  1  0  0  0
 24  1  1  0  0  0
  1  2  1  0  0  0
  1  3  1  0  0  0
  2  7  1  0  0  0
  3  4  1  0  0  0
  3  5  1  0  0  0
  5  6  1  0  0  0
  5  7  1  0  0  0
  7 10  1  0  0  0
 10 11  1  0  0  0
 10 20  1  0  0  0
 11 12  2  0  0  0
 12 13  1  0  0  0
 13 14  1  0  0  0
 13 20  2  0  0  0
 14 15  2  0  0  0
 14 16  1  0  0  0
 16 17  1  0  0  0
 17 18  1  0  0  0
 17 19  2  0  0  0
 19 20  1  0  0  0
 33 35  1  0  0  0
 34 36  1  0  0  0
 28 29  1  0  0  0
  4  8  1  0  0  0
  6  9  1  0  0  0
 16 21  1  0  0  0
 18 22  1  0  0  0
 18 23  1  0  0  0
M  END
> <minimizedAffinity>
-1.48753

$$$$
6G0Z_GDP_B_301


 36 38  0  0  0  0  0  0  0  0999 V2000
  -43.6240   44.1259  138.7305 C   0  0  0  0  0  0  0  0  0  0  0  0
  -45.0577   44.4538  138.6522 O   0  0  0  0  0  0  0  0  0  0  0  0
  -43.1634   43.9782  137.3317 C   0  0  0  0  0  0  0  0  0  0  0  0
  -43.2565   42.5976  136.9445 O   0  0  0  0  0  0  0  0  0  0  0  0
  -44.1093   44.7486  136.5246 C   0  0  0  0  0  0  0  0  0  0  0  0
  -44.1359   44.1947  135.1965 O   0  0  0  0  0  0  0  0  0  0  0  0
  -45.4067   44.5827  137.2191 C   0  0  0  0  0  0  0  0  0  0  0  0
  -44.1708   42.2922  137.0533 H   0  0  0  0  0  0  0  0  0  0  0  0
  -44.3607   43.2523  135.2436 H   0  0  0  0  0  0  0  0  0  0  0  0
  -46.2466   45.6955  137.0590 N   0  0  0  0  0  0  0  0  0  0  0  0
  -45.8076   46.7386  136.5862 C   0  0  0  0  0  0  0  0  0  0  0  0
  -46.8542   47.6380  136.5678 N   0  0  0  0  0  0  0  0  0  0  0  0
  -48.0163   46.8960  137.1412 C   0  0  0  0  0  0  0  0  0  0  0  0
  -49.3787   47.0892  137.4537 C   0  0  0  0  0  0  0  0  0  0  0  0
  -49.9319   48.1583  137.2573 O   0  0  0  0  0  0  0  0  0  0  0  0
  -50.1095   46.0454  138.0077 N   0  0  0  0  0  0  0  0  0  0  0  0
  -49.5028   44.8306  138.2491 C   0  0  0  0  0  0  0  0  0  0  0  0
  -50.2480   43.7545  138.8360 N   0  0  0  0  0  0  0  0  0  0  0  0
  -48.2099   44.6629  137.9407 N   0  0  0  0  0  0  0  0  0  0  0  0
  -47.4497   45.6070  137.4226 C   0  0  0  0  0  0  0  0  0  0  0  0
  -51.0605   46.1730  138.2279 H   0  0  0  0  0  0  0  0  0  0  0  0
  -51.1980   43.8795  139.0620 H   0  0  0  0  0  0  0  0  0  0  0  0
  -49.8094   42.8910  139.0129 H   0  0  0  0  0  0  0  0  0  0  0  0
  -42.8345   45.2027  139.4142 C   0  0  0  0  0  0  0  0  0  0  0  0
  -43.6613   45.8196  140.4188 O   0  0  0  0  0  0  0  0  0  0  0  0
  -44.1255   47.3393  140.2365 P   0  0  0  0  0  0  0  0  0  0  0  0
  -43.4073   47.9202  139.0686 O   0  0  0  0  0  0  0  0  0  0  0  0
  -43.7231   48.1859  141.3943 O   0  0  0  0  0  0  0  0  0  0  0  0
  -44.0212   49.0972  141.2475 H   0  0  0  0  0  0  0  0  0  0  0  0
  -45.7062   47.4142  140.0492 O   0  0  0  0  0  0  0  0  0  0  0  0
  -46.8218   46.7490  140.9666 P   0  0  0  0  0  0  0  0  0  0  0  0
  -46.6101   47.1386  142.3889 O   0  0  0  0  0  0  0  0  0  0  0  0
  -46.8092   45.1841  140.8082 O   0  0  0  0  0  0  0  0  0  0  0  0
  -48.1829   47.3149  140.7320 O   0  0  0  0  0  0  0  0  0  0  0  0
  -47.4950   44.7963  141.3741 H   0  0  0  0  0  0  0  0  0  0  0  0
  -48.8210   46.8748  141.3153 H   0  0  0  0  0  0  0  0  0  0  0  0
 31 32  2  0  0  0
 31 33  1  0  0  0
 31 34  1  0  0  0
 31 30  1  0  0  0
 30 26  1  0  0  0
 26 27  2  0  0  0
 26 28  1  0  0  0
 26 25  1  0  0  0
 25 24  1  0  0  0
 24  1  1  0  0  0
  1  2  1  0  0  0
  1  3  1  0  0  0
  2  7  1  0  0  0
  3  4  1  0  0  0
  3  5  1  0  0  0
  5  6  1  0  0  0
  5  7  1  0  0  0
  7 10  1  0  0  0
 10 11  1  0  0  0
 10 20  1  0  0  0
 11 12  2  0  0  0
 12 13  1  0  0  0
 13 14  1  0  0  0
 13 20  2  0  0  0
 14 15  2  0  0  0
 14 16  1  0  0  0
 16 17  1  0  0  0
 17 18  1  0  0  0
 17 19  2  0  0  0
 19 20  1  0  0  0
 33 35  1  0  0  0
 34 36  1  0  0  0
 28 29  1  0  0  0
  4  8  1  0  0  0
  6  9  1  0  0  0
 16 21  1  0  0  0
 18 22  1  0  0  0
 18 23  1  0  0  0
M  END
> <minimizedAffinity>
-1.48132

$$$$
6G0Z_GDP_B_301


 36 38  0  0  0  0  0  0  0  0999 V2000
  -45.1837   47.5979  138.6791 C   0  0  0  0  0  0  0  0  0  0  0  0
  -46.3879   47.4501  139.5140 O   0  0  0  0  0  0  0  0  0  0  0  0
  -44.0579   47.0911  139.4953 C   0  0  0  0  0  0  0  0  0  0  0  0
  -43.4581   48.1850  140.2082 O   0  0  0  0  0  0  0  0  0  0  0  0
  -44.6593   46.1802  140.4690 C   0  0  0  0  0  0  0  0  0  0  0  0
  -43.8136   46.1296  141.6325 O   0  0  0  0  0  0  0  0  0  0  0  0
  -45.9787   46.7814  140.7701 C   0  0  0  0  0  0  0  0  0  0  0  0
  -44.1293   48.6200  140.7570 H   0  0  0  0  0  0  0  0  0  0  0  0
  -43.6898   47.0262  141.9814 H   0  0  0  0  0  0  0  0  0  0  0  0
  -46.9437   45.8180  141.1018 N   0  0  0  0  0  0  0  0  0  0  0  0
  -47.3366   45.0200  140.2573 C   0  0  0  0  0  0  0  0  0  0  0  0
  -48.2784   44.2211  140.8732 N   0  0  0  0  0  0  0  0  0  0  0  0
  -48.3615   44.7266  142.2759 C   0  0  0  0  0  0  0  0  0  0  0  0
  -49.0488   44.4711  143.4815 C   0  0  0  0  0  0  0  0  0  0  0  0
  -49.8845   43.5865  143.5633 O   0  0  0  0  0  0  0  0  0  0  0  0
  -48.7797   45.2479  144.6016 N   0  0  0  0  0  0  0  0  0  0  0  0
  -47.8467   46.2612  144.5304 C   0  0  0  0  0  0  0  0  0  0  0  0
  -47.5767   47.0770  145.6790 N   0  0  0  0  0  0  0  0  0  0  0  0
  -47.1994   46.4859  143.3793 N   0  0  0  0  0  0  0  0  0  0  0  0
  -47.4068   45.7990  142.2734 C   0  0  0  0  0  0  0  0  0  0  0  0
  -49.2551   45.0751  145.4462 H   0  0  0  0  0  0  0  0  0  0  0  0
  -48.0533   46.9104  146.5242 H   0  0  0  0  0  0  0  0  0  0  0  0
  -46.9148   47.8035  145.6221 H   0  0  0  0  0  0  0  0  0  0  0  0
  -45.2802   46.8136  137.4040 C   0  0  0  0  0  0  0  0  0  0  0  0
  -46.6560   46.4498  137.1842 O   0  0  0  0  0  0  0  0  0  0  0  0
  -47.4914   47.1771  136.0305 P   0  0  0  0  0  0  0  0  0  0  0  0
  -47.2775   46.4435  134.7525 O   0  0  0  0  0  0  0  0  0  0  0  0
  -46.9931   48.5565  135.7691 O   0  0  0  0  0  0  0  0  0  0  0  0
  -47.5228   48.9637  135.0658 H   0  0  0  0  0  0  0  0  0  0  0  0
  -49.0351   47.2364  136.4212 O   0  0  0  0  0  0  0  0  0  0  0  0
  -49.6789   47.8785  137.7258 P   0  0  0  0  0  0  0  0  0  0  0  0
  -50.0026   46.8100  138.7124 O   0  0  0  0  0  0  0  0  0  0  0  0
  -50.9640   48.7080  137.3590 O   0  0  0  0  0  0  0  0  0  0  0  0
  -48.7072   48.6899  138.5165 O   0  0  0  0  0  0  0  0  0  0  0  0
  -51.3424   49.0915  138.1657 H   0  0  0  0  0  0  0  0  0  0  0  0
  -49.1515   49.0559  139.2972 H   0  0  0  0  0  0  0  0  0  0  0  0
 31 32  2  0  0  0
 31 33  1  0  0  0
 31 34  1  0  0  0
 31 30  1  0  0  0
 30 26  1  0  0  0
 26 27  2  0  0  0
 26 28  1  0  0  0
 26 25  1  0  0  0
 25 24  1  0  0  0
 24  1  1  0  0  0
  1  2  1  0  0  0
  1  3  1  0  0  0
  2  7  1  0  0  0
  3  4  1  0  0  0
  3  5  1  0  0  0
  5  6  1  0  0  0
  5  7  1  0  0  0
  7 10  1  0  0  0
 10 11  1  0  0  0
 10 20  1  0  0  0
 11 12  2  0  0  0
 12 13  1  0  0  0
 13 14  1  0  0  0
 13 20  2  0  0  0
 14 15  2  0  0  0
 14 16  1  0  0  0
 16 17  1  0  0  0
 17 18  1  0  0  0
 17 19  2  0  0  0
 19 20  1  0  0  0
 33 35  1  0  0  0
 34 36  1  0  0  0
 28 29  1  0  0  0
  4  8  1  0  0  0
  6  9  1  0  0  0
 16 21  1  0  0  0
 18 22  1  0  0  0
 18 23  1  0  0  0
M  END
> <minimizedAffinity>
-1.47456

$$$$
6G0Z_GDP_B_301


 36 38  0  0  0  0  0  0  0  0999 V2000
  -48.2056   47.6847  137.5665 C   0  0  0  0  0  0  0  0  0  0  0  0
  -47.1910   47.5176  138.6209 O   0  0  0  0  0  0  0  0  0  0  0  0
  -47.5288   47.3491  136.2938 C   0  0  0  0  0  0  0  0  0  0  0  0
  -47.0034   48.5496  135.7045 O   0  0  0  0  0  0  0  0  0  0  0  0
  -46.4064   46.4867  136.6627 C   0  0  0  0  0  0  0  0  0  0  0  0
  -45.3821   46.6134  135.6596 O   0  0  0  0  0  0  0  0  0  0  0  0
  -45.9607   47.0040  137.9768 C   0  0  0  0  0  0  0  0  0  0  0  0
  -46.3971   48.9778  136.3290 H   0  0  0  0  0  0  0  0  0  0  0  0
  -45.1285   47.5456  135.5725 H   0  0  0  0  0  0  0  0  0  0  0  0
  -45.4125   46.0003  138.7901 N   0  0  0  0  0  0  0  0  0  0  0  0
  -45.8096   44.8436  138.6972 C   0  0  0  0  0  0  0  0  0  0  0  0
  -45.0996   44.1044  139.6214 N   0  0  0  0  0  0  0  0  0  0  0  0
  -44.1920   45.0836  140.2900 C   0  0  0  0  0  0  0  0  0  0  0  0
  -43.2023   45.1337  141.2945 C   0  0  0  0  0  0  0  0  0  0  0  0
  -42.8750   44.1370  141.9167 O   0  0  0  0  0  0  0  0  0  0  0  0
  -42.5903   46.3447  141.5938 N   0  0  0  0  0  0  0  0  0  0  0  0
  -42.9516   47.4875  140.9113 C   0  0  0  0  0  0  0  0  0  0  0  0
  -42.3349   48.7435  141.2274 N   0  0  0  0  0  0  0  0  0  0  0  0
  -43.8890   47.4204  139.9566 N   0  0  0  0  0  0  0  0  0  0  0  0
  -44.5203   46.3121  139.6233 C   0  0  0  0  0  0  0  0  0  0  0  0
  -41.8988   46.3870  142.2932 H   0  0  0  0  0  0  0  0  0  0  0  0
  -41.6462   48.7909  141.9293 H   0  0  0  0  0  0  0  0  0  0  0  0
  -42.6004   49.5580  140.7424 H   0  0  0  0  0  0  0  0  0  0  0  0
  -49.3850   46.7800  137.7686 C   0  0  0  0  0  0  0  0  0  0  0  0
  -49.2427   46.1047  139.0324 O   0  0  0  0  0  0  0  0  0  0  0  0
  -50.4804   46.0513  140.0439 P   0  0  0  0  0  0  0  0  0  0  0  0
  -50.8978   44.6318  140.2118 O   0  0  0  0  0  0  0  0  0  0  0  0
  -51.6796   46.7411  139.4915 O   0  0  0  0  0  0  0  0  0  0  0  0
  -52.4067   46.6877  140.1313 H   0  0  0  0  0  0  0  0  0  0  0  0
  -50.0826   46.7141  141.4374 O   0  0  0  0  0  0  0  0  0  0  0  0
  -48.6689   46.6644  142.1638 P   0  0  0  0  0  0  0  0  0  0  0  0
  -48.2654   45.2492  142.3962 O   0  0  0  0  0  0  0  0  0  0  0  0
  -48.7135   47.4623  143.5186 O   0  0  0  0  0  0  0  0  0  0  0  0
  -47.5487   47.1241  141.2911 O   0  0  0  0  0  0  0  0  0  0  0  0
  -47.8441   47.4211  143.9469 H   0  0  0  0  0  0  0  0  0  0  0  0
  -46.7140   47.0732  141.7827 H   0  0  0  0  0  0  0  0  0  0  0  0
 31 32  2  0  0  0
 31 33  1  0  0  0
 31 34  1  0  0  0
 31 30  1  0  0  0
 30 26  1  0  0  0
 26 27  2  0  0  0
 26 28  1  0  0  0
 26 25  1  0  0  0
 25 24  1  0  0  0
 24  1  1  0  0  0
  1  2  1  0  0  0
  1  3  1  0  0  0
  2  7  1  0  0  0
  3  4  1  0  0  0
  3  5  1  0  0  0
  5  6  1  0  0  0
  5  7  1  0  0  0
  7 10  1  0  0  0
 10 11  1  0  0  0
 10 20  1  0  0  0
 11 12  2  0  0  0
 12 13  1  0  0  0
 13 14  1  0  0  0
 13 20  2  0  0  0
 14 15  2  0  0  0
 14 16  1  0  0  0
 16 17  1  0  0  0
 17 18  1  0  0  0
 17 19  2  0  0  0
 19 20  1  0  0  0
 33 35  1  0  0  0
 34 36  1  0  0  0
 28 29  1  0  0  0
  4  8  1  0  0  0
  6  9  1  0  0  0
 16 21  1  0  0  0
 18 22  1  0  0  0
 18 23  1  0  0  0
M  END
> <minimizedAffinity>
-1.44425

$$$$
6G0Z_GDP_B_301


 36 38  0  0  0  0  0  0  0  0999 V2000
  -44.5123   44.3007  140.9420 C   0  0  0  0  0  0  0  0  0  0  0  0
  -45.3903   44.9639  139.9631 O   0  0  0  0  0  0  0  0  0  0  0  0
  -43.8908   45.3867  141.7325 C   0  0  0  0  0  0  0  0  0  0  0  0
  -42.6314   45.7441  141.1402 O   0  0  0  0  0  0  0  0  0  0  0  0
  -44.7980   46.5276  141.6113 C   0  0  0  0  0  0  0  0  0  0  0  0
  -44.0394   47.7374  141.7910 O   0  0  0  0  0  0  0  0  0  0  0  0
  -45.3473   46.4177  140.2405 C   0  0  0  0  0  0  0  0  0  0  0  0
  -42.7716   46.0094  140.2178 H   0  0  0  0  0  0  0  0  0  0  0  0
  -43.3139   47.7627  141.1475 H   0  0  0  0  0  0  0  0  0  0  0  0
  -46.6488   46.9332  140.1415 N   0  0  0  0  0  0  0  0  0  0  0  0
  -47.3530   47.0304  141.1410 C   0  0  0  0  0  0  0  0  0  0  0  0
  -48.5620   47.5510  140.7261 N   0  0  0  0  0  0  0  0  0  0  0  0
  -48.4206   47.7381  139.2513 C   0  0  0  0  0  0  0  0  0  0  0  0
  -49.1617   48.1936  138.1403 C   0  0  0  0  0  0  0  0  0  0  0  0
  -50.3095   48.5887  138.2588 O   0  0  0  0  0  0  0  0  0  0  0  0
  -48.5803   48.1846  136.8784 N   0  0  0  0  0  0  0  0  0  0  0  0
  -47.2873   47.7321  136.7179 C   0  0  0  0  0  0  0  0  0  0  0  0
  -46.6876   47.7052  135.4151 N   0  0  0  0  0  0  0  0  0  0  0  0
  -46.5964   47.3088  137.7847 N   0  0  0  0  0  0  0  0  0  0  0  0
  -47.0822   47.2780  139.0098 C   0  0  0  0  0  0  0  0  0  0  0  0
  -49.0912   48.5013  136.0988 H   0  0  0  0  0  0  0  0  0  0  0  0
  -47.1968   48.0167  134.6322 H   0  0  0  0  0  0  0  0  0  0  0  0
  -45.7667   47.3752  135.3038 H   0  0  0  0  0  0  0  0  0  0  0  0
  -45.2727   43.3815  141.8515 C   0  0  0  0  0  0  0  0  0  0  0  0
  -46.6458   43.3313  141.4208 O   0  0  0  0  0  0  0  0  0  0  0  0
  -47.2654   41.9464  140.9148 P   0  0  0  0  0  0  0  0  0  0  0  0
  -48.2173   41.4457  141.9446 O   0  0  0  0  0  0  0  0  0  0  0  0
  -46.2288   40.8826  140.8009 O   0  0  0  0  0  0  0  0  0  0  0  0
  -46.6415   40.0607  140.4925 H   0  0  0  0  0  0  0  0  0  0  0  0
  -47.9789   42.1443  139.5038 O   0  0  0  0  0  0  0  0  0  0  0  0
  -48.5623   43.4927  138.8953 P   0  0  0  0  0  0  0  0  0  0  0  0
  -49.8019   43.2067  138.1198 O   0  0  0  0  0  0  0  0  0  0  0  0
  -47.4891   44.2029  137.9911 O   0  0  0  0  0  0  0  0  0  0  0  0
  -49.1028   44.4159  139.9362 O   0  0  0  0  0  0  0  0  0  0  0  0
  -47.8620   45.0220  137.6293 H   0  0  0  0  0  0  0  0  0  0  0  0
  -49.4439   45.2183  139.5111 H   0  0  0  0  0  0  0  0  0  0  0  0
 31 32  2  0  0  0
 31 33  1  0  0  0
 31 34  1  0  0  0
 31 30  1  0  0  0
 30 26  1  0  0  0
 26 27  2  0  0  0
 26 28  1  0  0  0
 26 25  1  0  0  0
 25 24  1  0  0  0
 24  1  1  0  0  0
  1  2  1  0  0  0
  1  3  1  0  0  0
  2  7  1  0  0  0
  3  4  1  0  0  0
  3  5  1  0  0  0
  5  6  1  0  0  0
  5  7  1  0  0  0
  7 10  1  0  0  0
 10 11  1  0  0  0
 10 20  1  0  0  0
 11 12  2  0  0  0
 12 13  1  0  0  0
 13 14  1  0  0  0
 13 20  2  0  0  0
 14 15  2  0  0  0
 14 16  1  0  0  0
 16 17  1  0  0  0
 17 18  1  0  0  0
 17 19  2  0  0  0
 19 20  1  0  0  0
 33 35  1  0  0  0
 34 36  1  0  0  0
 28 29  1  0  0  0
  4  8  1  0  0  0
  6  9  1  0  0  0
 16 21  1  0  0  0
 18 22  1  0  0  0
 18 23  1  0  0  0
M  END
> <minimizedAffinity>
-1.42741

$$$$
6G0Z_GDP_B_301


 36 38  0  0  0  0  0  0  0  0999 V2000
  -49.2286   45.7480  138.9470 C   0  0  0  0  0  0  0  0  0  0  0  0
  -47.7676   45.5714  139.0056 O   0  0  0  0  0  0  0  0  0  0  0  0
  -49.6312   46.2523  140.2790 C   0  0  0  0  0  0  0  0  0  0  0  0
  -49.9965   45.1430  141.1161 O   0  0  0  0  0  0  0  0  0  0  0  0
  -48.4336   46.8781  140.8390 C   0  0  0  0  0  0  0  0  0  0  0  0
  -48.5234   46.8360  142.2749 O   0  0  0  0  0  0  0  0  0  0  0  0
  -47.3143   46.0527  140.3304 C   0  0  0  0  0  0  0  0  0  0  0  0
  -49.2509   44.5258  141.1786 H   0  0  0  0  0  0  0  0  0  0  0  0
  -48.6394   45.9176  142.5648 H   0  0  0  0  0  0  0  0  0  0  0  0
  -46.1353   46.7946  140.1602 N   0  0  0  0  0  0  0  0  0  0  0  0
  -45.8752   47.3017  139.0741 C   0  0  0  0  0  0  0  0  0  0  0  0
  -44.6627   47.9452  139.2163 N   0  0  0  0  0  0  0  0  0  0  0  0
  -44.2561   47.7030  140.6326 C   0  0  0  0  0  0  0  0  0  0  0  0
  -43.2042   48.0008  141.5247 C   0  0  0  0  0  0  0  0  0  0  0  0
  -42.2356   48.6532  141.1725 O   0  0  0  0  0  0  0  0  0  0  0  0
  -43.2617   47.5344  142.8322 N   0  0  0  0  0  0  0  0  0  0  0  0
  -44.3417   46.7854  143.2505 C   0  0  0  0  0  0  0  0  0  0  0  0
  -44.3987   46.2874  144.5946 N   0  0  0  0  0  0  0  0  0  0  0  0
  -45.3343   46.5173  142.3918 N   0  0  0  0  0  0  0  0  0  0  0  0
  -45.3466   46.9158  141.1352 C   0  0  0  0  0  0  0  0  0  0  0  0
  -42.5316   47.7386  143.4602 H   0  0  0  0  0  0  0  0  0  0  0  0
  -43.6683   46.4855  145.2243 H   0  0  0  0  0  0  0  0  0  0  0  0
  -45.1682   45.7476  144.8872 H   0  0  0  0  0  0  0  0  0  0  0  0
  -49.6373   46.7284  137.8878 C   0  0  0  0  0  0  0  0  0  0  0  0
  -48.4718   47.1132  137.1348 O   0  0  0  0  0  0  0  0  0  0  0  0
  -48.4328   46.8630  135.5557 P   0  0  0  0  0  0  0  0  0  0  0  0
  -49.1643   47.9698  134.8795 O   0  0  0  0  0  0  0  0  0  0  0  0
  -49.1680   45.6258  135.1708 O   0  0  0  0  0  0  0  0  0  0  0  0
  -49.1221   45.5084  134.2091 H   0  0  0  0  0  0  0  0  0  0  0  0
  -46.9249   46.7623  135.0504 O   0  0  0  0  0  0  0  0  0  0  0  0
  -45.8376   45.6767  135.4605 P   0  0  0  0  0  0  0  0  0  0  0  0
  -45.4200   44.8965  134.2618 O   0  0  0  0  0  0  0  0  0  0  0  0
  -46.3995   44.7243  136.5790 O   0  0  0  0  0  0  0  0  0  0  0  0
  -44.5316   46.2808  135.8570 O   0  0  0  0  0  0  0  0  0  0  0  0
  -45.7237   44.0700  136.8160 H   0  0  0  0  0  0  0  0  0  0  0  0
  -43.9088   45.5765  136.0960 H   0  0  0  0  0  0  0  0  0  0  0  0
 31 32  2  0  0  0
 31 33  1  0  0  0
 31 34  1  0  0  0
 31 30  1  0  0  0
 30 26  1  0  0  0
 26 27  2  0  0  0
 26 28  1  0  0  0
 26 25  1  0  0  0
 25 24  1  0  0  0
 24  1  1  0  0  0
  1  2  1  0  0  0
  1  3  1  0  0  0
  2  7  1  0  0  0
  3  4  1  0  0  0
  3  5  1  0  0  0
  5  6  1  0  0  0
  5  7  1  0  0  0
  7 10  1  0  0  0
 10 11  1  0  0  0
 10 20  1  0  0  0
 11 12  2  0  0  0
 12 13  1  0  0  0
 13 14  1  0  0  0
 13 20  2  0  0  0
 14 15  2  0  0  0
 14 16  1  0  0  0
 16 17  1  0  0  0
 17 18  1  0  0  0
 17 19  2  0  0  0
 19 20  1  0  0  0
 33 35  1  0  0  0
 34 36  1  0  0  0
 28 29  1  0  0  0
  4  8  1  0  0  0
  6  9  1  0  0  0
 16 21  1  0  0  0
 18 22  1  0  0  0
 18 23  1  0  0  0
M  END
> <minimizedAffinity>
-1.31038

$$$$
