1G45_FSB_A_555
  RCSB PDB12061702343D
Coordinates from PDB:1G45:A:555 Model:1 without hydrogens
 21 22  0  0  0  0            999 V2000
   -3.9180    3.4410   14.6860   C 0  0  0  0  0  0  0  0  0  0  0  0
   -4.3030    2.2840   15.4070   C 0  0  0  0  0  0  0  0  0  0  0  0
   -5.6360    2.2460   15.9250   C 0  0  0  0  0  0  0  0  0  0  0  0
   -6.4850    3.3490   15.6910   C 0  0  0  0  0  0  0  0  0  0  0  0
   -6.0620    4.4710   14.9700   C 0  0  0  0  0  0  0  0  0  0  0  0
   -4.7860    4.5210   14.4700   C 0  0  0  0  0  0  0  0  0  0  0  0
   -4.3100    5.7250   13.6940   C 0  0  0  0  0  0  0  0  0  0  0  0
   -5.0740    6.6390   13.5200   O 0  0  0  0  0  0  0  0  0  0  0  0
   -3.0260    5.7820   13.1970   N 0  0  0  0  0  0  0  0  0  0  0  0
   -2.4130    6.8690   12.4430   C 0  0  0  0  0  0  0  0  0  0  0  0
   -6.1150    0.7670   16.8520   S 0  0  0  0  0  0  0  0  0  0  0  0
   -5.6910   -0.5790   16.1580   N 0  0  0  0  0  0  0  0  0  0  0  0
   -7.5940    1.0570   16.9230   O 0  0  0  0  0  0  0  0  0  0  0  0
   -5.5380    1.0750   18.1620   O 0  0  0  0  0  0  0  0  0  0  0  0
   -1.6820    7.8380   13.2000   C 0  0  0  0  0  0  0  0  0  0  0  0
   -2.2640    8.3240   14.4100   C 0  0  0  0  0  0  0  0  0  0  0  0
   -1.6080    9.2860   15.2280   C 0  0  0  0  0  0  0  0  0  0  0  0
   -0.3420    9.7690   14.8230   C 0  0  0  0  0  0  0  0  0  0  0  0
    0.2850    9.3050   13.6080   C 0  0  0  0  0  0  0  0  0  0  0  0
   -0.3940    8.3210   12.7780   C 0  0  0  0  0  0  0  0  0  0  0  0
    0.1690    7.8750   11.6460   F 0  0  0  0  0  0  0  0  0  0  0  0
  1  2  2  0  0  0  0
  1  6  1  0  0  0  0
  2  3  1  0  0  0  0
  3  4  2  0  0  0  0
  3 11  1  0  0  0  0
  4  5  1  0  0  0  0
  5  6  2  0  0  0  0
  6  7  1  0  0  0  0
  7  8  2  0  0  0  0
  7  9  1  0  0  0  0
  9 10  1  0  0  0  0
 10 15  1  0  0  0  0
 11 12  1  0  0  0  0
 11 13  2  0  0  0  0
 11 14  2  0  0  0  0
 15 16  2  0  0  0  0
 15 20  1  0  0  0  0
 16 17  1  0  0  0  0
 17 18  2  0  0  0  0
 18 19  1  0  0  0  0
 19 20  2  0  0  0  0
 20 21  1  0  0  0  0
A    1
C01
A    2
C02
A    3
C03
A    4
C04
A    5
C05
A    6
C06
A    7
C07
A    8
O08
A    9
N09
A   10
C10
A   11
S11
A   12
NP2
A   13
O13
A   14
O14
A   15
C15
A   16
C16
A   17
C17
A   18
C18
A   19
C19
A   20
C20
A   21
F21
M  END
>  <InstanceId>
1G45_FSB_A_555

>  <ChemCompId>
FSB

>  <PdbId>
1G45

>  <ChainId>
A

>  <ResidueNumber>
555

>  <InsertionCode>


>  <Model>
1

>  <AltIds>


>  <MissingHeavyAtoms>
0

>  <ObservedFormula>
C14 N2 O3 S F

>  <Name>
N-(2-FLOURO-BENZYL)-4-SULFAMOYL-BENZAMIDE

>  <SystematicName>
N-[(2-fluorophenyl)methyl]-4-sulfamoyl-benzamide

>  <Synonyms>


>  <Type>
NON-POLYMER

>  <Formula>
C14 H13 F N2 O3 S

>  <MolecularWeight>
308.328

>  <ModifiedDate>
2011-06-04

>  <Parent>


>  <OneLetterCode>


>  <SubcomponentList>


>  <AmbiguousFlag>
N

>  <InChI>
InChI=1S/C14H13FN2O3S/c15-13-4-2-1-3-11(13)9-17-14(18)10-5-7-12(8-6-10)21(16,19)20/h1-8H,9H2,(H,17,18)(H2,16,19,20)

>  <InChIKey>
ULYMHSXFSKOHGH-UHFFFAOYSA-N

>  <SMILES>
c1ccc(c(c1)CNC(=O)c2ccc(cc2)S(=O)(=O)N)F

$$$$
