1G45_FSB_A_555


 24 25  0  0  0  0  0  0  0  0999 V2000
   -4.1405    5.0200   15.0323 C   0  0  0  0  0  0  0  0  0  0  0  0
   -3.8964    3.6414   15.2480 C   0  0  0  0  0  0  0  0  0  0  0  0
   -5.0151    2.8240   15.6042 C   0  0  0  0  0  0  0  0  0  0  0  0
   -6.2858    3.4278   15.7182 C   0  0  0  0  0  0  0  0  0  0  0  0
   -6.4804    4.7950   15.4929 C   0  0  0  0  0  0  0  0  0  0  0  0
   -5.4160    5.5900   15.1531 C   0  0  0  0  0  0  0  0  0  0  0  0
   -4.6909    1.0657   15.8859 S   0  0  0  0  0  0  0  0  0  0  0  0
   -5.8140    0.3405   16.7141 N   0  0  0  0  0  0  0  0  0  0  0  0
   -3.3488    1.2243   16.5569 O   0  0  0  0  0  0  0  0  0  0  0  0
   -4.4515    0.6155   14.5134 O   0  0  0  0  0  0  0  0  0  0  0  0
   -5.8705    0.7537   17.6450 H   0  0  0  0  0  0  0  0  0  0  0  0
   -5.5899   -0.6512   16.7953 H   0  0  0  0  0  0  0  0  0  0  0  0
   -5.6054    7.0678   14.9111 C   0  0  0  0  0  0  0  0  0  0  0  0
   -6.6982    7.5449   15.0774 O   0  0  0  0  0  0  0  0  0  0  0  0
   -4.5500    7.8588   14.5118 N   0  0  0  0  0  0  0  0  0  0  0  0
   -3.6861    7.4026   14.3897 H   0  0  0  0  0  0  0  0  0  0  0  0
   -4.5644    9.2929   14.2494 C   0  0  0  0  0  0  0  0  0  0  0  0
   -3.3327    9.9914   14.4526 C   0  0  0  0  0  0  0  0  0  0  0  0
   -2.2149    9.2530   14.9466 C   0  0  0  0  0  0  0  0  0  0  0  0
   -0.9505    9.8641   15.1762 C   0  0  0  0  0  0  0  0  0  0  0  0
   -0.8057   11.2442   14.9035 C   0  0  0  0  0  0  0  0  0  0  0  0
   -1.9083   12.0300   14.4019 C   0  0  0  0  0  0  0  0  0  0  0  0
   -3.1976   11.3959   14.1704 C   0  0  0  0  0  0  0  0  0  0  0  0
   -4.2354   12.1051   13.7044 F   0  0  0  0  0  0  0  0  0  0  0  0
  1  2  2  0  0  0
  1  6  1  0  0  0
  2  3  1  0  0  0
  3  4  2  0  0  0
  3  7  1  0  0  0
  4  5  1  0  0  0
  5  6  2  0  0  0
  6 13  1  0  0  0
 13 14  2  0  0  0
 13 15  1  0  0  0
 15 17  1  0  0  0
 17 18  1  0  0  0
  7  8  1  0  0  0
  7  9  2  0  0  0
  7 10  2  0  0  0
 18 19  2  0  0  0
 18 23  1  0  0  0
 19 20  1  0  0  0
 20 21  2  0  0  0
 21 22  1  0  0  0
 22 23  2  0  0  0
 23 24  1  0  0  0
 15 16  1  0  0  0
  8 11  1  0  0  0
  8 12  1  0  0  0
M  END
> <minimizedAffinity>
-7.74279

$$$$
1G45_FSB_A_555


 24 25  0  0  0  0  0  0  0  0999 V2000
   -4.2196    3.9294   15.1320 C   0  0  0  0  0  0  0  0  0  0  0  0
   -4.5118    2.7360   15.8371 C   0  0  0  0  0  0  0  0  0  0  0  0
   -5.8019    2.6322   16.4466 C   0  0  0  0  0  0  0  0  0  0  0  0
   -6.7028    3.7105   16.3126 C   0  0  0  0  0  0  0  0  0  0  0  0
   -6.3715    4.8703   15.6035 C   0  0  0  0  0  0  0  0  0  0  0  0
   -5.1373    4.9834   15.0164 C   0  0  0  0  0  0  0  0  0  0  0  0
   -6.1620    1.1071   17.3524 S   0  0  0  0  0  0  0  0  0  0  0  0
   -5.4207   -0.1571   16.7817 N   0  0  0  0  0  0  0  0  0  0  0  0
   -7.6623    1.1418   17.1958 O   0  0  0  0  0  0  0  0  0  0  0  0
   -5.8475    1.5281   18.7190 O   0  0  0  0  0  0  0  0  0  0  0  0
   -5.7347   -0.3333   15.8274 H   0  0  0  0  0  0  0  0  0  0  0  0
   -5.6323   -0.9671   17.3644 H   0  0  0  0  0  0  0  0  0  0  0  0
   -4.7600    6.2289   14.2517 C   0  0  0  0  0  0  0  0  0  0  0  0
   -4.4195    6.1198   13.1021 O   0  0  0  0  0  0  0  0  0  0  0  0
   -4.8072    7.4679   14.8530 N   0  0  0  0  0  0  0  0  0  0  0  0
   -5.0889    7.4835   15.7962 H   0  0  0  0  0  0  0  0  0  0  0  0
   -4.4883    8.7584   14.2541 C   0  0  0  0  0  0  0  0  0  0  0  0
   -3.2331    9.3391   14.6198 C   0  0  0  0  0  0  0  0  0  0  0  0
   -2.3232    8.5468   15.3836 C   0  0  0  0  0  0  0  0  0  0  0  0
   -1.0519    9.0408   15.7895 C   0  0  0  0  0  0  0  0  0  0  0  0
   -0.6871   10.3564   15.4205 C   0  0  0  0  0  0  0  0  0  0  0  0
   -1.5747   11.1928   14.6477 C   0  0  0  0  0  0  0  0  0  0  0  0
   -2.8729   10.6786   14.2374 C   0  0  0  0  0  0  0  0  0  0  0  0
   -3.7134   11.4367   13.5190 F   0  0  0  0  0  0  0  0  0  0  0  0
  1  2  2  0  0  0
  1  6  1  0  0  0
  2  3  1  0  0  0
  3  4  2  0  0  0
  3  7  1  0  0  0
  4  5  1  0  0  0
  5  6  2  0  0  0
  6 13  1  0  0  0
 13 14  2  0  0  0
 13 15  1  0  0  0
 15 17  1  0  0  0
 17 18  1  0  0  0
  7  8  1  0  0  0
  7  9  2  0  0  0
  7 10  2  0  0  0
 18 19  2  0  0  0
 18 23  1  0  0  0
 19 20  1  0  0  0
 20 21  2  0  0  0
 21 22  1  0  0  0
 22 23  2  0  0  0
 23 24  1  0  0  0
 15 16  1  0  0  0
  8 11  1  0  0  0
  8 12  1  0  0  0
M  END
> <minimizedAffinity>
-7.51518

$$$$
1G45_FSB_A_555


 24 25  0  0  0  0  0  0  0  0999 V2000
   -4.1358    4.1364   15.2094 C   0  0  0  0  0  0  0  0  0  0  0  0
   -4.3906    2.8603   15.7693 C   0  0  0  0  0  0  0  0  0  0  0  0
   -5.6783    2.6446   16.3540 C   0  0  0  0  0  0  0  0  0  0  0  0
   -6.6138    3.7014   16.3400 C   0  0  0  0  0  0  0  0  0  0  0  0
   -6.3189    4.9459   15.7726 C   0  0  0  0  0  0  0  0  0  0  0  0
   -5.0874    5.1663   15.2108 C   0  0  0  0  0  0  0  0  0  0  0  0
   -5.9905    1.0136   17.0742 S   0  0  0  0  0  0  0  0  0  0  0  0
   -5.2602   -0.1593   16.3232 N   0  0  0  0  0  0  0  0  0  0  0  0
   -7.4959    1.0475   16.9778 O   0  0  0  0  0  0  0  0  0  0  0  0
   -5.6284    1.2651   18.4705 O   0  0  0  0  0  0  0  0  0  0  0  0
   -5.6084   -0.2194   15.3664 H   0  0  0  0  0  0  0  0  0  0  0  0
   -5.4426   -1.0385   16.8072 H   0  0  0  0  0  0  0  0  0  0  0  0
   -4.7491    6.5038   14.5983 C   0  0  0  0  0  0  0  0  0  0  0  0
   -3.5941    6.7631   14.3792 O   0  0  0  0  0  0  0  0  0  0  0  0
   -5.7403    7.4104   14.2910 N   0  0  0  0  0  0  0  0  0  0  0  0
   -6.6619    7.1358   14.5016 H   0  0  0  0  0  0  0  0  0  0  0  0
   -5.5822    8.7294   13.6900 C   0  0  0  0  0  0  0  0  0  0  0  0
   -6.0461    8.8777   12.3450 C   0  0  0  0  0  0  0  0  0  0  0  0
   -6.6211    7.7392   11.7029 C   0  0  0  0  0  0  0  0  0  0  0  0
   -7.1114    7.7948   10.3682 C   0  0  0  0  0  0  0  0  0  0  0  0
   -7.0229    9.0184    9.6645 C   0  0  0  0  0  0  0  0  0  0  0  0
   -6.4503   10.1953   10.2742 C   0  0  0  0  0  0  0  0  0  0  0  0
   -5.9515   10.1284   11.6398 C   0  0  0  0  0  0  0  0  0  0  0  0
   -5.4165   11.2084   12.2267 F   0  0  0  0  0  0  0  0  0  0  0  0
  1  2  2  0  0  0
  1  6  1  0  0  0
  2  3  1  0  0  0
  3  4  2  0  0  0
  3  7  1  0  0  0
  4  5  1  0  0  0
  5  6  2  0  0  0
  6 13  1  0  0  0
 13 14  2  0  0  0
 13 15  1  0  0  0
 15 17  1  0  0  0
 17 18  1  0  0  0
  7  8  1  0  0  0
  7  9  2  0  0  0
  7 10  2  0  0  0
 18 19  2  0  0  0
 18 23  1  0  0  0
 19 20  1  0  0  0
 20 21  2  0  0  0
 21 22  1  0  0  0
 22 23  2  0  0  0
 23 24  1  0  0  0
 15 16  1  0  0  0
  8 11  1  0  0  0
  8 12  1  0  0  0
M  END
> <minimizedAffinity>
-7.17507

$$$$
1G45_FSB_A_555


 24 25  0  0  0  0  0  0  0  0999 V2000
   -2.0642    4.9833   12.8434 C   0  0  0  0  0  0  0  0  0  0  0  0
   -0.7434    5.2537   12.4086 C   0  0  0  0  0  0  0  0  0  0  0  0
   -0.1499    4.3267   11.4947 C   0  0  0  0  0  0  0  0  0  0  0  0
   -0.9039    3.2079   11.0800 C   0  0  0  0  0  0  0  0  0  0  0  0
   -2.2080    2.9825   11.5341 C   0  0  0  0  0  0  0  0  0  0  0  0
   -2.7877    3.8622   12.4120 C   0  0  0  0  0  0  0  0  0  0  0  0
    1.5410    4.6768   10.9522 S   0  0  0  0  0  0  0  0  0  0  0  0
    2.6275    4.4109   12.0576 N   0  0  0  0  0  0  0  0  0  0  0  0
    1.3190    6.1143   10.5511 O   0  0  0  0  0  0  0  0  0  0  0  0
    1.5988    3.8771    9.7270 O   0  0  0  0  0  0  0  0  0  0  0  0
    2.4670    5.0343   12.8489 H   0  0  0  0  0  0  0  0  0  0  0  0
    3.5554    4.5842   11.6710 H   0  0  0  0  0  0  0  0  0  0  0  0
   -4.1916    3.6331   12.9168 C   0  0  0  0  0  0  0  0  0  0  0  0
   -4.9838    3.0872   12.1930 O   0  0  0  0  0  0  0  0  0  0  0  0
   -4.5614    4.0356   14.1818 N   0  0  0  0  0  0  0  0  0  0  0  0
   -3.8656    4.4803   14.7178 H   0  0  0  0  0  0  0  0  0  0  0  0
   -5.8637    3.8790   14.8184 C   0  0  0  0  0  0  0  0  0  0  0  0
   -5.9545    2.8947   15.8524 C   0  0  0  0  0  0  0  0  0  0  0  0
   -5.3097    1.6380   15.6426 C   0  0  0  0  0  0  0  0  0  0  0  0
   -5.3450    0.6014   16.6167 C   0  0  0  0  0  0  0  0  0  0  0  0
   -6.0412    0.8317   17.8260 C   0  0  0  0  0  0  0  0  0  0  0  0
   -6.7067    2.0872   18.0817 C   0  0  0  0  0  0  0  0  0  0  0  0
   -6.6650    3.1413   17.0791 C   0  0  0  0  0  0  0  0  0  0  0  0
   -7.2750    4.3155   17.2947 F   0  0  0  0  0  0  0  0  0  0  0  0
  1  2  2  0  0  0
  1  6  1  0  0  0
  2  3  1  0  0  0
  3  4  2  0  0  0
  3  7  1  0  0  0
  4  5  1  0  0  0
  5  6  2  0  0  0
  6 13  1  0  0  0
 13 14  2  0  0  0
 13 15  1  0  0  0
 15 17  1  0  0  0
 17 18  1  0  0  0
  7  8  1  0  0  0
  7  9  2  0  0  0
  7 10  2  0  0  0
 18 19  2  0  0  0
 18 23  1  0  0  0
 19 20  1  0  0  0
 20 21  2  0  0  0
 21 22  1  0  0  0
 22 23  2  0  0  0
 23 24  1  0  0  0
 15 16  1  0  0  0
  8 11  1  0  0  0
  8 12  1  0  0  0
M  END
> <minimizedAffinity>
-7.17422

$$$$
1G45_FSB_A_555


 24 25  0  0  0  0  0  0  0  0999 V2000
   -6.1262    4.5481   15.1514 C   0  0  0  0  0  0  0  0  0  0  0  0
   -6.5955    3.7039   16.1876 C   0  0  0  0  0  0  0  0  0  0  0  0
   -5.7193    2.6662   16.6371 C   0  0  0  0  0  0  0  0  0  0  0  0
   -4.4500    2.5425   16.0323 C   0  0  0  0  0  0  0  0  0  0  0  0
   -4.0272    3.4021   15.0125 C   0  0  0  0  0  0  0  0  0  0  0  0
   -4.8584    4.3995   14.5709 C   0  0  0  0  0  0  0  0  0  0  0  0
   -6.3319    1.5877   17.9554 S   0  0  0  0  0  0  0  0  0  0  0  0
   -6.3849    2.2810   19.3660 N   0  0  0  0  0  0  0  0  0  0  0  0
   -5.3217    0.4807   17.7812 O   0  0  0  0  0  0  0  0  0  0  0  0
   -7.5934    1.1356   17.3653 O   0  0  0  0  0  0  0  0  0  0  0  0
   -5.4413    2.5422   19.6521 H   0  0  0  0  0  0  0  0  0  0  0  0
   -6.7803    1.6340   20.0482 H   0  0  0  0  0  0  0  0  0  0  0  0
   -4.4218    5.3335   13.4684 C   0  0  0  0  0  0  0  0  0  0  0  0
   -3.3699    5.1280   12.9201 O   0  0  0  0  0  0  0  0  0  0  0  0
   -5.2110    6.3984   13.0915 N   0  0  0  0  0  0  0  0  0  0  0  0
   -6.0553    6.5106   13.5853 H   0  0  0  0  0  0  0  0  0  0  0  0
   -4.9405    7.3781   12.0461 C   0  0  0  0  0  0  0  0  0  0  0  0
   -5.8216    7.3688   10.9192 C   0  0  0  0  0  0  0  0  0  0  0  0
   -5.3755    6.7302    9.7225 C   0  0  0  0  0  0  0  0  0  0  0  0
   -6.1854    6.6702    8.5539 C   0  0  0  0  0  0  0  0  0  0  0  0
   -7.4690    7.2627    8.5883 C   0  0  0  0  0  0  0  0  0  0  0  0
   -7.9619    7.9180    9.7767 C   0  0  0  0  0  0  0  0  0  0  0  0
   -7.1260    7.9743   10.9668 C   0  0  0  0  0  0  0  0  0  0  0  0
   -7.5627    8.5768   12.0820 F   0  0  0  0  0  0  0  0  0  0  0  0
  1  2  2  0  0  0
  1  6  1  0  0  0
  2  3  1  0  0  0
  3  4  2  0  0  0
  3  7  1  0  0  0
  4  5  1  0  0  0
  5  6  2  0  0  0
  6 13  1  0  0  0
 13 14  2  0  0  0
 13 15  1  0  0  0
 15 17  1  0  0  0
 17 18  1  0  0  0
  7  8  1  0  0  0
  7  9  2  0  0  0
  7 10  2  0  0  0
 18 19  2  0  0  0
 18 23  1  0  0  0
 19 20  1  0  0  0
 20 21  2  0  0  0
 21 22  1  0  0  0
 22 23  2  0  0  0
 23 24  1  0  0  0
 15 16  1  0  0  0
  8 11  1  0  0  0
  8 12  1  0  0  0
M  END
> <minimizedAffinity>
-7.08004

$$$$
1G45_FSB_A_555


 24 25  0  0  0  0  0  0  0  0999 V2000
   -3.8357    3.6960   15.1012 C   0  0  0  0  0  0  0  0  0  0  0  0
   -4.3213    2.7218   16.0077 C   0  0  0  0  0  0  0  0  0  0  0  0
   -5.6799    2.8448   16.4387 C   0  0  0  0  0  0  0  0  0  0  0  0
   -6.4535    3.9158   15.9421 C   0  0  0  0  0  0  0  0  0  0  0  0
   -5.9319    4.8541   15.0447 C   0  0  0  0  0  0  0  0  0  0  0  0
   -4.6304    4.7489   14.6254 C   0  0  0  0  0  0  0  0  0  0  0  0
   -6.2878    1.5999   17.6037 S   0  0  0  0  0  0  0  0  0  0  0  0
   -5.4426    0.2738   17.6099 N   0  0  0  0  0  0  0  0  0  0  0  0
   -7.6941    1.5055   17.0653 O   0  0  0  0  0  0  0  0  0  0  0  0
   -6.3354    2.3890   18.8361 O   0  0  0  0  0  0  0  0  0  0  0  0
   -5.4986   -0.1694   16.6929 H   0  0  0  0  0  0  0  0  0  0  0  0
   -5.8116   -0.3613   18.3176 H   0  0  0  0  0  0  0  0  0  0  0  0
   -4.0487    5.7544   13.6616 C   0  0  0  0  0  0  0  0  0  0  0  0
   -3.1319    5.4166   12.9581 O   0  0  0  0  0  0  0  0  0  0  0  0
   -4.5570    7.0328   13.5828 N   0  0  0  0  0  0  0  0  0  0  0  0
   -5.3026    7.2429   14.1905 H   0  0  0  0  0  0  0  0  0  0  0  0
   -4.1187    8.1102   12.7037 C   0  0  0  0  0  0  0  0  0  0  0  0
   -3.5978    9.2809   13.3397 C   0  0  0  0  0  0  0  0  0  0  0  0
   -4.3351   10.4975   13.2156 C   0  0  0  0  0  0  0  0  0  0  0  0
   -3.8946   11.7098   13.8168 C   0  0  0  0  0  0  0  0  0  0  0  0
   -2.6901   11.6997   14.5578 C   0  0  0  0  0  0  0  0  0  0  0  0
   -1.9128   10.4927   14.7108 C   0  0  0  0  0  0  0  0  0  0  0  0
   -2.3715    9.2578   14.0920 C   0  0  0  0  0  0  0  0  0  0  0  0
   -1.6668    8.1247   14.2209 F   0  0  0  0  0  0  0  0  0  0  0  0
  1  2  2  0  0  0
  1  6  1  0  0  0
  2  3  1  0  0  0
  3  4  2  0  0  0
  3  7  1  0  0  0
  4  5  1  0  0  0
  5  6  2  0  0  0
  6 13  1  0  0  0
 13 14  2  0  0  0
 13 15  1  0  0  0
 15 17  1  0  0  0
 17 18  1  0  0  0
  7  8  1  0  0  0
  7  9  2  0  0  0
  7 10  2  0  0  0
 18 19  2  0  0  0
 18 23  1  0  0  0
 19 20  1  0  0  0
 20 21  2  0  0  0
 21 22  1  0  0  0
 22 23  2  0  0  0
 23 24  1  0  0  0
 15 16  1  0  0  0
  8 11  1  0  0  0
  8 12  1  0  0  0
M  END
> <minimizedAffinity>
-6.98300

$$$$
1G45_FSB_A_555


 24 25  0  0  0  0  0  0  0  0999 V2000
   -4.4186    2.1465   14.3245 C   0  0  0  0  0  0  0  0  0  0  0  0
   -4.9186    1.5002   15.4817 C   0  0  0  0  0  0  0  0  0  0  0  0
   -5.8260    2.2377   16.3058 C   0  0  0  0  0  0  0  0  0  0  0  0
   -6.1708    3.5523   15.9250 C   0  0  0  0  0  0  0  0  0  0  0  0
   -5.6538    4.1500   14.7704 C   0  0  0  0  0  0  0  0  0  0  0  0
   -4.7812    3.4547   13.9729 C   0  0  0  0  0  0  0  0  0  0  0  0
   -6.4522    1.4058   17.7864 S   0  0  0  0  0  0  0  0  0  0  0  0
   -6.4105    2.3001   19.0794 N   0  0  0  0  0  0  0  0  0  0  0  0
   -5.5173    0.2221   17.7500 O   0  0  0  0  0  0  0  0  0  0  0  0
   -7.7597    0.9549   17.3059 O   0  0  0  0  0  0  0  0  0  0  0  0
   -5.4429    2.5386   19.2967 H   0  0  0  0  0  0  0  0  0  0  0  0
   -6.8180    1.7869   19.8610 H   0  0  0  0  0  0  0  0  0  0  0  0
   -4.2091    4.0845   12.7262 C   0  0  0  0  0  0  0  0  0  0  0  0
   -4.7108    3.8215   11.6639 O   0  0  0  0  0  0  0  0  0  0  0  0
   -3.1368    4.9469   12.7992 N   0  0  0  0  0  0  0  0  0  0  0  0
   -2.7726    5.1132   13.6986 H   0  0  0  0  0  0  0  0  0  0  0  0
   -2.4793    5.6416   11.6988 C   0  0  0  0  0  0  0  0  0  0  0  0
   -1.1876    5.1579   11.3195 C   0  0  0  0  0  0  0  0  0  0  0  0
   -0.0414    5.7547   11.9269 C   0  0  0  0  0  0  0  0  0  0  0  0
    1.2817    5.3357   11.6125 C   0  0  0  0  0  0  0  0  0  0  0  0
    1.4569    4.2961   10.6698 C   0  0  0  0  0  0  0  0  0  0  0  0
    0.3271    3.6629   10.0317 C   0  0  0  0  0  0  0  0  0  0  0  0
   -1.0222    4.0986   10.3599 C   0  0  0  0  0  0  0  0  0  0  0  0
   -2.0866    3.5250    9.7806 F   0  0  0  0  0  0  0  0  0  0  0  0
  1  2  2  0  0  0
  1  6  1  0  0  0
  2  3  1  0  0  0
  3  4  2  0  0  0
  3  7  1  0  0  0
  4  5  1  0  0  0
  5  6  2  0  0  0
  6 13  1  0  0  0
 13 14  2  0  0  0
 13 15  1  0  0  0
 15 17  1  0  0  0
 17 18  1  0  0  0
  7  8  1  0  0  0
  7  9  2  0  0  0
  7 10  2  0  0  0
 18 19  2  0  0  0
 18 23  1  0  0  0
 19 20  1  0  0  0
 20 21  2  0  0  0
 21 22  1  0  0  0
 22 23  2  0  0  0
 23 24  1  0  0  0
 15 16  1  0  0  0
  8 11  1  0  0  0
  8 12  1  0  0  0
M  END
> <minimizedAffinity>
-6.78314

$$$$
1G45_FSB_A_555


 24 25  0  0  0  0  0  0  0  0999 V2000
   -1.2152    4.6170   12.2635 C   0  0  0  0  0  0  0  0  0  0  0  0
    0.1064    5.0829   12.0561 C   0  0  0  0  0  0  0  0  0  0  0  0
    0.8632    4.4677   11.0095 C   0  0  0  0  0  0  0  0  0  0  0  0
    0.2589    3.4439   10.2488 C   0  0  0  0  0  0  0  0  0  0  0  0
   -1.0521    3.0174   10.4878 C   0  0  0  0  0  0  0  0  0  0  0  0
   -1.7876    3.5973   11.4895 C   0  0  0  0  0  0  0  0  0  0  0  0
    2.5536    5.0644   10.7585 S   0  0  0  0  0  0  0  0  0  0  0  0
    2.6320    6.5650   10.2946 N   0  0  0  0  0  0  0  0  0  0  0  0
    2.9771    4.0210    9.7543 O   0  0  0  0  0  0  0  0  0  0  0  0
    3.1546    4.7120   12.0463 O   0  0  0  0  0  0  0  0  0  0  0  0
    2.1767    6.6646    9.3873 H   0  0  0  0  0  0  0  0  0  0  0  0
    3.6094    6.8463   10.2173 H   0  0  0  0  0  0  0  0  0  0  0  0
   -3.2017    3.1472   11.7656 C   0  0  0  0  0  0  0  0  0  0  0  0
   -4.0675    3.4526   10.9868 O   0  0  0  0  0  0  0  0  0  0  0  0
   -3.4984    2.3979   12.8833 N   0  0  0  0  0  0  0  0  0  0  0  0
   -2.7438    2.1888   13.4801 H   0  0  0  0  0  0  0  0  0  0  0  0
   -4.8006    1.8789   13.2846 C   0  0  0  0  0  0  0  0  0  0  0  0
   -5.2344    2.1987   14.6097 C   0  0  0  0  0  0  0  0  0  0  0  0
   -5.9788    3.4021   14.8012 C   0  0  0  0  0  0  0  0  0  0  0  0
   -6.4530    3.7985   16.0829 C   0  0  0  0  0  0  0  0  0  0  0  0
   -6.1746    2.9695   17.1943 C   0  0  0  0  0  0  0  0  0  0  0  0
   -5.4266    1.7433   17.0476 C   0  0  0  0  0  0  0  0  0  0  0  0
   -4.9457    1.3464   15.7325 C   0  0  0  0  0  0  0  0  0  0  0  0
   -4.2498    0.2119   15.5719 F   0  0  0  0  0  0  0  0  0  0  0  0
  1  2  2  0  0  0
  1  6  1  0  0  0
  2  3  1  0  0  0
  3  4  2  0  0  0
  3  7  1  0  0  0
  4  5  1  0  0  0
  5  6  2  0  0  0
  6 13  1  0  0  0
 13 14  2  0  0  0
 13 15  1  0  0  0
 15 17  1  0  0  0
 17 18  1  0  0  0
  7  8  1  0  0  0
  7  9  2  0  0  0
  7 10  2  0  0  0
 18 19  2  0  0  0
 18 23  1  0  0  0
 19 20  1  0  0  0
 20 21  2  0  0  0
 21 22  1  0  0  0
 22 23  2  0  0  0
 23 24  1  0  0  0
 15 16  1  0  0  0
  8 11  1  0  0  0
  8 12  1  0  0  0
M  END
> <minimizedAffinity>
-6.76964

$$$$
1G45_FSB_A_555


 24 25  0  0  0  0  0  0  0  0999 V2000
   -4.8381    2.5455   14.2143 C   0  0  0  0  0  0  0  0  0  0  0  0
   -4.6001    1.4251   13.3807 C   0  0  0  0  0  0  0  0  0  0  0  0
   -4.1402    1.6818   12.0506 C   0  0  0  0  0  0  0  0  0  0  0  0
   -3.9493    3.0207   11.6468 C   0  0  0  0  0  0  0  0  0  0  0  0
   -4.1949    4.0971   12.5064 C   0  0  0  0  0  0  0  0  0  0  0  0
   -4.6382    3.8648   13.7832 C   0  0  0  0  0  0  0  0  0  0  0  0
   -3.8474    0.2439   10.9910 S   0  0  0  0  0  0  0  0  0  0  0  0
   -4.1249   -1.1316   11.7011 N   0  0  0  0  0  0  0  0  0  0  0  0
   -2.4113    0.5510   10.6450 O   0  0  0  0  0  0  0  0  0  0  0  0
   -4.6693    0.5955    9.8314 O   0  0  0  0  0  0  0  0  0  0  0  0
   -3.4838   -1.2443   12.4864 H   0  0  0  0  0  0  0  0  0  0  0  0
   -3.9846   -1.8920   11.0359 H   0  0  0  0  0  0  0  0  0  0  0  0
   -4.9134    5.0132   14.7233 C   0  0  0  0  0  0  0  0  0  0  0  0
   -5.8025    4.9012   15.5272 O   0  0  0  0  0  0  0  0  0  0  0  0
   -4.1611    6.1664   14.6681 N   0  0  0  0  0  0  0  0  0  0  0  0
   -3.4541    6.1926   13.9835 H   0  0  0  0  0  0  0  0  0  0  0  0
   -4.2909    7.3524   15.5063 C   0  0  0  0  0  0  0  0  0  0  0  0
   -3.4000    8.4350   15.2226 C   0  0  0  0  0  0  0  0  0  0  0  0
   -2.1113    8.4238   15.8376 C   0  0  0  0  0  0  0  0  0  0  0  0
   -1.1596    9.4572   15.6111 C   0  0  0  0  0  0  0  0  0  0  0  0
   -1.5089   10.5227   14.7493 C   0  0  0  0  0  0  0  0  0  0  0  0
   -2.7999   10.5747   14.1049 C   0  0  0  0  0  0  0  0  0  0  0  0
   -3.7665    9.5131   14.3430 C   0  0  0  0  0  0  0  0  0  0  0  0
   -4.9711    9.5398   13.7552 F   0  0  0  0  0  0  0  0  0  0  0  0
  1  2  2  0  0  0
  1  6  1  0  0  0
  2  3  1  0  0  0
  3  4  2  0  0  0
  3  7  1  0  0  0
  4  5  1  0  0  0
  5  6  2  0  0  0
  6 13  1  0  0  0
 13 14  2  0  0  0
 13 15  1  0  0  0
 15 17  1  0  0  0
 17 18  1  0  0  0
  7  8  1  0  0  0
  7  9  2  0  0  0
  7 10  2  0  0  0
 18 19  2  0  0  0
 18 23  1  0  0  0
 19 20  1  0  0  0
 20 21  2  0  0  0
 21 22  1  0  0  0
 22 23  2  0  0  0
 23 24  1  0  0  0
 15 16  1  0  0  0
  8 11  1  0  0  0
  8 12  1  0  0  0
M  END
> <minimizedAffinity>
-6.46830

$$$$
1G45_FSB_A_555


 24 25  0  0  0  0  0  0  0  0999 V2000
   -1.4671    6.6576   13.4940 C   0  0  0  0  0  0  0  0  0  0  0  0
   -1.0235    8.0029   13.5040 C   0  0  0  0  0  0  0  0  0  0  0  0
   -1.6808    8.9047   14.3991 C   0  0  0  0  0  0  0  0  0  0  0  0
   -2.7216    8.4107   15.2145 C   0  0  0  0  0  0  0  0  0  0  0  0
   -3.1249    7.0716   15.1728 C   0  0  0  0  0  0  0  0  0  0  0  0
   -2.5045    6.1973   14.3176 C   0  0  0  0  0  0  0  0  0  0  0  0
   -1.1122   10.6231   14.3979 S   0  0  0  0  0  0  0  0  0  0  0  0
   -0.2096   10.9895   13.1633 N   0  0  0  0  0  0  0  0  0  0  0  0
   -0.4389   10.6022   15.7480 O   0  0  0  0  0  0  0  0  0  0  0  0
   -2.3879   11.3261   14.5479 O   0  0  0  0  0  0  0  0  0  0  0  0
    0.6411   10.4272   13.1854 H   0  0  0  0  0  0  0  0  0  0  0  0
    0.0356   11.9788   13.2031 H   0  0  0  0  0  0  0  0  0  0  0  0
   -2.9290    4.7502   14.2548 C   0  0  0  0  0  0  0  0  0  0  0  0
   -2.0780    3.8988   14.2388 O   0  0  0  0  0  0  0  0  0  0  0  0
   -4.2631    4.4067   14.2207 N   0  0  0  0  0  0  0  0  0  0  0  0
   -4.9051    5.1531   14.2309 H   0  0  0  0  0  0  0  0  0  0  0  0
   -4.8341    3.0660   14.1712 C   0  0  0  0  0  0  0  0  0  0  0  0
   -5.3999    2.5680   15.3870 C   0  0  0  0  0  0  0  0  0  0  0  0
   -6.2960    3.4147   16.1076 C   0  0  0  0  0  0  0  0  0  0  0  0
   -6.9079    3.0020   17.3242 C   0  0  0  0  0  0  0  0  0  0  0  0
   -6.6145    1.7130   17.8267 C   0  0  0  0  0  0  0  0  0  0  0  0
   -5.7156    0.8227   17.1311 C   0  0  0  0  0  0  0  0  0  0  0  0
   -5.0945    1.2540   15.8875 C   0  0  0  0  0  0  0  0  0  0  0  0
   -4.2571    0.4444   15.2238 F   0  0  0  0  0  0  0  0  0  0  0  0
  1  2  2  0  0  0
  1  6  1  0  0  0
  2  3  1  0  0  0
  3  4  2  0  0  0
  3  7  1  0  0  0
  4  5  1  0  0  0
  5  6  2  0  0  0
  6 13  1  0  0  0
 13 14  2  0  0  0
 13 15  1  0  0  0
 15 17  1  0  0  0
 17 18  1  0  0  0
  7  8  1  0  0  0
  7  9  2  0  0  0
  7 10  2  0  0  0
 18 19  2  0  0  0
 18 23  1  0  0  0
 19 20  1  0  0  0
 20 21  2  0  0  0
 21 22  1  0  0  0
 22 23  2  0  0  0
 23 24  1  0  0  0
 15 16  1  0  0  0
  8 11  1  0  0  0
  8 12  1  0  0  0
M  END
> <minimizedAffinity>
-6.37624

$$$$
