5AUT_2AN_A_301
  RCSB PDB12061716533D
Coordinates from PDB:5AUT:A:301 Model:1 without hydrogens
 21 23  0  0  0  0            999 V2000
  -22.8380    2.1830  -11.4640   C 0  0  0  0  0  0  0  0  0  0  0  0
  -23.5690    1.8130  -12.5960   C 0  0  0  0  0  0  0  0  0  0  0  0
  -24.8190    2.3330  -12.8770   C 0  0  0  0  0  0  0  0  0  0  0  0
  -25.3420    3.2780  -12.0160   C 0  0  0  0  0  0  0  0  0  0  0  0
  -24.6320    3.6900  -10.9040   C 0  0  0  0  0  0  0  0  0  0  0  0
  -25.2700    4.6340  -10.1140   C 0  0  0  0  0  0  0  0  0  0  0  0
  -24.6730    5.1240   -8.9690   C 0  0  0  0  0  0  0  0  0  0  0  0
  -23.4210    4.6300   -8.6360   C 0  0  0  0  0  0  0  0  0  0  0  0
  -21.6150    1.6350  -11.2220   N 0  0  0  0  0  0  0  0  0  0  0  0
  -21.1990    3.2540   -8.7280   S 0  0  0  0  0  0  0  0  0  0  0  0
  -22.7690    3.6770   -9.4050   C 0  0  0  0  0  0  0  0  0  0  0  0
  -23.3660    3.1660  -10.5860   C 0  0  0  0  0  0  0  0  0  0  0  0
  -21.3590    0.2850  -11.2370   C 0  0  0  0  0  0  0  0  0  0  0  0
  -22.2670   -0.7250  -11.5890   C 0  0  0  0  0  0  0  0  0  0  0  0
  -21.9390   -2.0800  -11.5760   C 0  0  0  0  0  0  0  0  0  0  0  0
  -20.6560   -2.4720  -11.2260   C 0  0  0  0  0  0  0  0  0  0  0  0
  -19.7310   -1.4960  -10.8710   C 0  0  0  0  0  0  0  0  0  0  0  0
  -20.0760   -0.1370  -10.8780   C 0  0  0  0  0  0  0  0  0  0  0  0
  -20.2090    3.2650   -9.8840   O 0  0  0  0  0  0  0  0  0  0  0  0
  -21.2780    1.8680   -8.0630   O 0  0  0  0  0  0  0  0  0  0  0  0
  -20.8320    4.3250   -7.7010   O 0  0  0  0  0  0  0  0  0  0  0  0
  1  2  2  0  0  0  0
  1  9  1  0  0  0  0
  1 12  1  0  0  0  0
  2  3  1  0  0  0  0
  3  4  2  0  0  0  0
  4  5  1  0  0  0  0
  5  6  2  0  0  0  0
  5 12  1  0  0  0  0
  6  7  1  0  0  0  0
  7  8  2  0  0  0  0
  8 11  1  0  0  0  0
  9 13  1  0  0  0  0
 10 11  1  0  0  0  0
 10 19  2  0  0  0  0
 10 20  2  0  0  0  0
 10 21  1  0  0  0  0
 11 12  2  0  0  0  0
 13 14  2  0  0  0  0
 13 18  1  0  0  0  0
 14 15  1  0  0  0  0
 15 16  2  0  0  0  0
 16 17  1  0  0  0  0
 17 18  2  0  0  0  0
A    1
C1
A    2
C2
A    3
C3
A    4
C4
A    5
C5
A    6
C6
A    7
C7
A    8
C8
A    9
N
A   10
S
A   11
C9
A   12
C10
A   13
C11
A   14
C12
A   15
C13
A   16
C14
A   17
C15
A   18
C16
A   19
O1
A   20
O2
A   21
O3
M  END
>  <InstanceId>
5AUT_2AN_A_301

>  <ChemCompId>
2AN

>  <PdbId>
5AUT

>  <ChainId>
A

>  <ResidueNumber>
301

>  <InsertionCode>


>  <Model>
1

>  <AltIds>


>  <MissingHeavyAtoms>
0

>  <ObservedFormula>
C16 N O3 S

>  <Name>
8-ANILINO-1-NAPHTHALENE SULFONATE

>  <SystematicName>
8-phenylazanylnaphthalene-1-sulfonic acid

>  <Synonyms>


>  <Type>
NON-POLYMER

>  <Formula>
C16 H13 N O3 S

>  <MolecularWeight>
299.344

>  <ModifiedDate>
2011-06-04

>  <Parent>


>  <OneLetterCode>


>  <SubcomponentList>


>  <AmbiguousFlag>
N

>  <InChI>
InChI=1S/C16H13NO3S/c18-21(19,20)15-11-5-7-12-6-4-10-14(16(12)15)17-13-8-2-1-3-9-13/h1-11,17H,(H,18,19,20)

>  <InChIKey>
FWEOQOXTVHGIFQ-UHFFFAOYSA-N

>  <SMILES>
c1ccc(cc1)Nc2cccc3c2c(ccc3)S(=O)(=O)O

$$$$
