2POW_I7C_A_1000


 25 25  0  0  0  0  0  0  0  0999 V2000
   -4.3957    2.5416   13.7292 C   0  0  0  0  0  0  0  0  0  0  0  0
   -4.5882    3.7556   13.0644 C   0  0  0  0  0  0  0  0  0  0  0  0
   -5.3506    4.7965   13.6452 C   0  0  0  0  0  0  0  0  0  0  0  0
   -5.9244    4.5887   14.9038 C   0  0  0  0  0  0  0  0  0  0  0  0
   -5.7552    3.3618   15.6123 C   0  0  0  0  0  0  0  0  0  0  0  0
   -4.9609    2.3211   14.9955 C   0  0  0  0  0  0  0  0  0  0  0  0
   -5.5562    6.0086   13.0249 N   0  0  0  0  0  0  0  0  0  0  0  0
   -6.0945    6.7035   13.4683 H   0  0  0  0  0  0  0  0  0  0  0  0
   -5.1649    6.1803   12.1379 H   0  0  0  0  0  0  0  0  0  0  0  0
   -3.8580    3.9845   11.4812 S   0  0  0  0  0  0  0  0  0  0  0  0
   -3.2337    2.6137   11.0138 N   0  0  0  0  0  0  0  0  0  0  0  0
   -4.9061    4.3049   10.5603 O   0  0  0  0  0  0  0  0  0  0  0  0
   -2.8028    4.9175   11.6911 O   0  0  0  0  0  0  0  0  0  0  0  0
   -2.4794    2.3499   11.6478 H   0  0  0  0  0  0  0  0  0  0  0  0
   -2.8640    2.7133   10.0684 H   0  0  0  0  0  0  0  0  0  0  0  0
   -4.6081    0.7190   15.7162 S   0  0  0  0  0  0  0  0  0  0  0  0
   -5.7991    0.2783   16.6425 N   0  0  0  0  0  0  0  0  0  0  0  0
   -4.5109   -0.2089   14.6293 O   0  0  0  0  0  0  0  0  0  0  0  0
   -3.4537    0.8882   16.5433 O   0  0  0  0  0  0  0  0  0  0  0  0
   -5.5933   -0.6339   17.0501 H   0  0  0  0  0  0  0  0  0  0  0  0
   -6.6550    0.2189   16.0908 H   0  0  0  0  0  0  0  0  0  0  0  0
   -6.3988    3.2066   16.9503 C   0  0  0  0  0  0  0  0  0  0  0  0
   -5.5516    2.8218   17.9187 F   0  0  0  0  0  0  0  0  0  0  0  0
   -6.9440    4.3511   17.3953 F   0  0  0  0  0  0  0  0  0  0  0  0
   -7.4123    2.3200   16.9703 F   0  0  0  0  0  0  0  0  0  0  0  0
 19 16  2  0  0  0
 18 16  2  0  0  0
 17 16  1  0  0  0
 16  6  1  0  0  0
 23 22  1  0  0  0
 25 22  1  0  0  0
 22 24  1  0  0  0
 22  5  1  0  0  0
  6  5  2  0  0  0
  6  1  1  0  0  0
  5  4  1  0  0  0
  1  2  2  0  0  0
  4  3  2  0  0  0
  2  3  1  0  0  0
  2 10  1  0  0  0
 11 10  1  0  0  0
  3  7  1  0  0  0
 13 10  2  0  0  0
 10 12  2  0  0  0
 11 14  1  0  0  0
 11 15  1  0  0  0
 17 20  1  0  0  0
 17 21  1  0  0  0
  7  8  1  0  0  0
  7  9  1  0  0  0
M  END
> <minimizedAffinity>
-8.57668

$$$$
2POW_I7C_A_1000


 25 25  0  0  0  0  0  0  0  0999 V2000
   -4.9890    1.9023   14.5662 C   0  0  0  0  0  0  0  0  0  0  0  0
   -5.6116    2.2735   15.7609 C   0  0  0  0  0  0  0  0  0  0  0  0
   -5.8612    3.6324   16.0659 C   0  0  0  0  0  0  0  0  0  0  0  0
   -5.4629    4.6117   15.1501 C   0  0  0  0  0  0  0  0  0  0  0  0
   -4.8202    4.2736   13.9220 C   0  0  0  0  0  0  0  0  0  0  0  0
   -4.5890    2.8741   13.6351 C   0  0  0  0  0  0  0  0  0  0  0  0
   -6.4786    4.0368   17.2285 N   0  0  0  0  0  0  0  0  0  0  0  0
   -6.6312    4.9946   17.3974 H   0  0  0  0  0  0  0  0  0  0  0  0
   -6.7675    3.3680   17.8908 H   0  0  0  0  0  0  0  0  0  0  0  0
   -6.0960    1.0192   16.8942 S   0  0  0  0  0  0  0  0  0  0  0  0
   -5.5595    1.4030   18.3267 N   0  0  0  0  0  0  0  0  0  0  0  0
   -7.5258    1.0250   16.9652 O   0  0  0  0  0  0  0  0  0  0  0  0
   -5.4229   -0.1567   16.4557 O   0  0  0  0  0  0  0  0  0  0  0  0
   -4.5396    1.4097   18.3173 H   0  0  0  0  0  0  0  0  0  0  0  0
   -5.8887    0.7186   19.0077 H   0  0  0  0  0  0  0  0  0  0  0  0
   -3.8184    2.2318   12.1504 S   0  0  0  0  0  0  0  0  0  0  0  0
   -3.8488    0.6604   12.1722 N   0  0  0  0  0  0  0  0  0  0  0  0
   -4.6099    2.6859   11.0464 O   0  0  0  0  0  0  0  0  0  0  0  0
   -2.4485    2.6407   12.1912 O   0  0  0  0  0  0  0  0  0  0  0  0
   -3.4092    0.3000   11.3253 H   0  0  0  0  0  0  0  0  0  0  0  0
   -4.8161    0.3396   12.2161 H   0  0  0  0  0  0  0  0  0  0  0  0
   -4.4184    5.3701   12.9921 C   0  0  0  0  0  0  0  0  0  0  0  0
   -5.1069    5.3834   11.8390 F   0  0  0  0  0  0  0  0  0  0  0  0
   -4.6021    6.5899   13.5245 F   0  0  0  0  0  0  0  0  0  0  0  0
   -3.1170    5.3452   12.6467 F   0  0  0  0  0  0  0  0  0  0  0  0
 19 16  2  0  0  0
 18 16  2  0  0  0
 17 16  1  0  0  0
 16  6  1  0  0  0
 23 22  1  0  0  0
 25 22  1  0  0  0
 22 24  1  0  0  0
 22  5  1  0  0  0
  6  5  2  0  0  0
  6  1  1  0  0  0
  5  4  1  0  0  0
  1  2  2  0  0  0
  4  3  2  0  0  0
  2  3  1  0  0  0
  2 10  1  0  0  0
 11 10  1  0  0  0
  3  7  1  0  0  0
 13 10  2  0  0  0
 10 12  2  0  0  0
 11 14  1  0  0  0
 11 15  1  0  0  0
 17 20  1  0  0  0
 17 21  1  0  0  0
  7  8  1  0  0  0
  7  9  1  0  0  0
M  END
> <minimizedAffinity>
-8.08280

$$$$
2POW_I7C_A_1000


 25 25  0  0  0  0  0  0  0  0999 V2000
   -4.2500    2.2409   13.3814 C   0  0  0  0  0  0  0  0  0  0  0  0
   -4.5464    2.3024   14.7457 C   0  0  0  0  0  0  0  0  0  0  0  0
   -4.7646    3.5414   15.3932 C   0  0  0  0  0  0  0  0  0  0  0  0
   -4.6688    4.7184   14.6437 C   0  0  0  0  0  0  0  0  0  0  0  0
   -4.3633    4.6978   13.2501 C   0  0  0  0  0  0  0  0  0  0  0  0
   -4.1562    3.4138   12.6154 C   0  0  0  0  0  0  0  0  0  0  0  0
   -5.0661    3.6421   16.7331 N   0  0  0  0  0  0  0  0  0  0  0  0
   -5.2097    4.5269   17.1402 H   0  0  0  0  0  0  0  0  0  0  0  0
   -5.1380    2.8292   17.2839 H   0  0  0  0  0  0  0  0  0  0  0  0
   -4.6552    0.8053   15.6617 S   0  0  0  0  0  0  0  0  0  0  0  0
   -6.0249    0.7939   16.4434 N   0  0  0  0  0  0  0  0  0  0  0  0
   -4.6966   -0.2765   14.7250 O   0  0  0  0  0  0  0  0  0  0  0  0
   -3.5920    0.8709   16.6068 O   0  0  0  0  0  0  0  0  0  0  0  0
   -6.0345    1.5538   17.1237 H   0  0  0  0  0  0  0  0  0  0  0  0
   -6.1327   -0.0974   16.9276 H   0  0  0  0  0  0  0  0  0  0  0  0
   -3.7830    3.1607   10.8812 S   0  0  0  0  0  0  0  0  0  0  0  0
   -4.3090    1.7518   10.4239 N   0  0  0  0  0  0  0  0  0  0  0  0
   -4.4958    4.1690   10.1554 O   0  0  0  0  0  0  0  0  0  0  0  0
   -2.3574    3.1506   10.7672 O   0  0  0  0  0  0  0  0  0  0  0  0
   -4.0941    1.6128    9.4365 H   0  0  0  0  0  0  0  0  0  0  0  0
   -5.3185    1.7045   10.5621 H   0  0  0  0  0  0  0  0  0  0  0  0
   -4.2730    5.9923   12.5121 C   0  0  0  0  0  0  0  0  0  0  0  0
   -5.3534    6.2664   11.7629 F   0  0  0  0  0  0  0  0  0  0  0  0
   -4.1401    7.0460   13.3350 F   0  0  0  0  0  0  0  0  0  0  0  0
   -3.2154    6.0764   11.6826 F   0  0  0  0  0  0  0  0  0  0  0  0
 19 16  2  0  0  0
 18 16  2  0  0  0
 17 16  1  0  0  0
 16  6  1  0  0  0
 23 22  1  0  0  0
 25 22  1  0  0  0
 22 24  1  0  0  0
 22  5  1  0  0  0
  6  5  2  0  0  0
  6  1  1  0  0  0
  5  4  1  0  0  0
  1  2  2  0  0  0
  4  3  2  0  0  0
  2  3  1  0  0  0
  2 10  1  0  0  0
 11 10  1  0  0  0
  3  7  1  0  0  0
 13 10  2  0  0  0
 10 12  2  0  0  0
 11 14  1  0  0  0
 11 15  1  0  0  0
 17 20  1  0  0  0
 17 21  1  0  0  0
  7  8  1  0  0  0
  7  9  1  0  0  0
M  END
> <minimizedAffinity>
-7.31670

$$$$
2POW_I7C_A_1000


 25 25  0  0  0  0  0  0  0  0999 V2000
   -2.0021    3.9407   12.3593 C   0  0  0  0  0  0  0  0  0  0  0  0
   -1.1574    5.0534   12.3258 C   0  0  0  0  0  0  0  0  0  0  0  0
   -1.3836    6.1709   13.1637 C   0  0  0  0  0  0  0  0  0  0  0  0
   -2.4824    6.1517   14.0289 C   0  0  0  0  0  0  0  0  0  0  0  0
   -3.3708    5.0368   14.0891 C   0  0  0  0  0  0  0  0  0  0  0  0
   -3.1055    3.9051   13.2268 C   0  0  0  0  0  0  0  0  0  0  0  0
   -0.5698    7.2817   13.1648 N   0  0  0  0  0  0  0  0  0  0  0  0
   -0.7671    8.0359   13.7660 H   0  0  0  0  0  0  0  0  0  0  0  0
    0.2094    7.3217   12.5644 H   0  0  0  0  0  0  0  0  0  0  0  0
    0.2128    5.0494   11.2236 S   0  0  0  0  0  0  0  0  0  0  0  0
    1.5369    5.1898   12.0689 N   0  0  0  0  0  0  0  0  0  0  0  0
    0.2550    3.7684   10.5859 O   0  0  0  0  0  0  0  0  0  0  0  0
    0.0531    6.2205   10.4293 O   0  0  0  0  0  0  0  0  0  0  0  0
    1.5446    6.0940   12.5409 H   0  0  0  0  0  0  0  0  0  0  0  0
    2.3444    5.1228   11.4494 H   0  0  0  0  0  0  0  0  0  0  0  0
   -4.0789    2.4023   13.1566 S   0  0  0  0  0  0  0  0  0  0  0  0
   -3.4929    1.4395   12.0610 N   0  0  0  0  0  0  0  0  0  0  0  0
   -3.9497    1.7682   14.4344 O   0  0  0  0  0  0  0  0  0  0  0  0
   -5.3926    2.7854   12.7410 O   0  0  0  0  0  0  0  0  0  0  0  0
   -4.0502    0.5860   12.0251 H   0  0  0  0  0  0  0  0  0  0  0  0
   -2.5279    1.2058   12.2948 H   0  0  0  0  0  0  0  0  0  0  0  0
   -4.5260    5.0848   15.0333 C   0  0  0  0  0  0  0  0  0  0  0  0
   -4.5414    4.0794   15.9237 F   0  0  0  0  0  0  0  0  0  0  0  0
   -4.5414    6.2074   15.7714 F   0  0  0  0  0  0  0  0  0  0  0  0
   -5.7287    5.0625   14.4279 F   0  0  0  0  0  0  0  0  0  0  0  0
 19 16  2  0  0  0
 18 16  2  0  0  0
 17 16  1  0  0  0
 16  6  1  0  0  0
 23 22  1  0  0  0
 25 22  1  0  0  0
 22 24  1  0  0  0
 22  5  1  0  0  0
  6  5  2  0  0  0
  6  1  1  0  0  0
  5  4  1  0  0  0
  1  2  2  0  0  0
  4  3  2  0  0  0
  2  3  1  0  0  0
  2 10  1  0  0  0
 11 10  1  0  0  0
  3  7  1  0  0  0
 13 10  2  0  0  0
 10 12  2  0  0  0
 11 14  1  0  0  0
 11 15  1  0  0  0
 17 20  1  0  0  0
 17 21  1  0  0  0
  7  8  1  0  0  0
  7  9  1  0  0  0
M  END
> <minimizedAffinity>
-6.93599

$$$$
2POW_I7C_A_1000


 25 25  0  0  0  0  0  0  0  0999 V2000
   -5.6502    3.5605   15.0780 C   0  0  0  0  0  0  0  0  0  0  0  0
   -5.5312    2.3501   15.7660 C   0  0  0  0  0  0  0  0  0  0  0  0
   -4.7020    1.3105   15.2825 C   0  0  0  0  0  0  0  0  0  0  0  0
   -4.0023    1.5085   14.0876 C   0  0  0  0  0  0  0  0  0  0  0  0
   -4.1012    2.7279   13.3534 C   0  0  0  0  0  0  0  0  0  0  0  0
   -4.9494    3.7753   13.8803 C   0  0  0  0  0  0  0  0  0  0  0  0
   -4.5532    0.1074   15.9358 N   0  0  0  0  0  0  0  0  0  0  0  0
   -3.9644   -0.5868   15.5608 H   0  0  0  0  0  0  0  0  0  0  0  0
   -5.0355   -0.0584   16.7779 H   0  0  0  0  0  0  0  0  0  0  0  0
   -6.4274    2.1299   17.2629 S   0  0  0  0  0  0  0  0  0  0  0  0
   -7.5857    1.0909   17.0059 N   0  0  0  0  0  0  0  0  0  0  0  0
   -5.5396    1.5416   18.2195 O   0  0  0  0  0  0  0  0  0  0  0  0
   -7.0081    3.4008   17.5377 O   0  0  0  0  0  0  0  0  0  0  0  0
   -8.2424    1.4750   16.3263 H   0  0  0  0  0  0  0  0  0  0  0  0
   -8.0739    0.9025   17.8814 H   0  0  0  0  0  0  0  0  0  0  0  0
   -5.2006    5.3837   13.1314 S   0  0  0  0  0  0  0  0  0  0  0  0
   -6.6147    5.9417   13.5308 N   0  0  0  0  0  0  0  0  0  0  0  0
   -4.1996    6.2519   13.6754 O   0  0  0  0  0  0  0  0  0  0  0  0
   -5.1974    5.1802   11.7157 O   0  0  0  0  0  0  0  0  0  0  0  0
   -6.7526    6.8569   13.1021 H   0  0  0  0  0  0  0  0  0  0  0  0
   -6.6714    6.0295   14.5454 H   0  0  0  0  0  0  0  0  0  0  0  0
   -3.3295    2.8700   12.0834 C   0  0  0  0  0  0  0  0  0  0  0  0
   -2.6197    4.0074   12.0041 F   0  0  0  0  0  0  0  0  0  0  0  0
   -2.4328    1.8841   11.9127 F   0  0  0  0  0  0  0  0  0  0  0  0
   -4.0908    2.8296   10.9733 F   0  0  0  0  0  0  0  0  0  0  0  0
 19 16  2  0  0  0
 18 16  2  0  0  0
 17 16  1  0  0  0
 16  6  1  0  0  0
 23 22  1  0  0  0
 25 22  1  0  0  0
 22 24  1  0  0  0
 22  5  1  0  0  0
  6  5  2  0  0  0
  6  1  1  0  0  0
  5  4  1  0  0  0
  1  2  2  0  0  0
  4  3  2  0  0  0
  2  3  1  0  0  0
  2 10  1  0  0  0
 11 10  1  0  0  0
  3  7  1  0  0  0
 13 10  2  0  0  0
 10 12  2  0  0  0
 11 14  1  0  0  0
 11 15  1  0  0  0
 17 20  1  0  0  0
 17 21  1  0  0  0
  7  8  1  0  0  0
  7  9  1  0  0  0
M  END
> <minimizedAffinity>
-6.86811

$$$$
2POW_I7C_A_1000


 25 25  0  0  0  0  0  0  0  0999 V2000
   -2.9660    4.9018   11.9326 C   0  0  0  0  0  0  0  0  0  0  0  0
   -2.6368    6.1093   12.5540 C   0  0  0  0  0  0  0  0  0  0  0  0
   -2.9186    6.3300   13.9229 C   0  0  0  0  0  0  0  0  0  0  0  0
   -3.5477    5.3158   14.6524 C   0  0  0  0  0  0  0  0  0  0  0  0
   -3.9042    4.0710   14.0531 C   0  0  0  0  0  0  0  0  0  0  0  0
   -3.5925    3.8728   12.6538 C   0  0  0  0  0  0  0  0  0  0  0  0
   -2.6028    7.5028   14.5719 N   0  0  0  0  0  0  0  0  0  0  0  0
   -2.8187    7.6107   15.5264 H   0  0  0  0  0  0  0  0  0  0  0  0
   -2.1612    8.2333   14.0814 H   0  0  0  0  0  0  0  0  0  0  0  0
   -1.8510    7.3668   11.6087 S   0  0  0  0  0  0  0  0  0  0  0  0
   -0.4633    7.7042   12.2779 N   0  0  0  0  0  0  0  0  0  0  0  0
   -1.5725    6.8273   10.3123 O   0  0  0  0  0  0  0  0  0  0  0  0
   -2.7010    8.5035   11.7247 O   0  0  0  0  0  0  0  0  0  0  0  0
   -0.6199    8.0929   13.2079 H   0  0  0  0  0  0  0  0  0  0  0  0
    0.0342    8.3852   11.7042 H   0  0  0  0  0  0  0  0  0  0  0  0
   -3.9343    2.3858   11.7142 S   0  0  0  0  0  0  0  0  0  0  0  0
   -3.6408    2.6396   10.1910 N   0  0  0  0  0  0  0  0  0  0  0  0
   -3.0303    1.3816   12.1896 O   0  0  0  0  0  0  0  0  0  0  0  0
   -5.3347    2.1292   11.8502 O   0  0  0  0  0  0  0  0  0  0  0  0
   -3.8369    1.7906    9.6609 H   0  0  0  0  0  0  0  0  0  0  0  0
   -2.6608    2.8963   10.0717 H   0  0  0  0  0  0  0  0  0  0  0  0
   -4.5768    3.0337   14.8899 C   0  0  0  0  0  0  0  0  0  0  0  0
   -4.0023    1.8220   14.8178 F   0  0  0  0  0  0  0  0  0  0  0  0
   -4.5749    3.3458   16.1967 F   0  0  0  0  0  0  0  0  0  0  0  0
   -5.8761    2.8466   14.5895 F   0  0  0  0  0  0  0  0  0  0  0  0
 19 16  2  0  0  0
 18 16  2  0  0  0
 17 16  1  0  0  0
 16  6  1  0  0  0
 23 22  1  0  0  0
 25 22  1  0  0  0
 22 24  1  0  0  0
 22  5  1  0  0  0
  6  5  2  0  0  0
  6  1  1  0  0  0
  5  4  1  0  0  0
  1  2  2  0  0  0
  4  3  2  0  0  0
  2  3  1  0  0  0
  2 10  1  0  0  0
 11 10  1  0  0  0
  3  7  1  0  0  0
 13 10  2  0  0  0
 10 12  2  0  0  0
 11 14  1  0  0  0
 11 15  1  0  0  0
 17 20  1  0  0  0
 17 21  1  0  0  0
  7  8  1  0  0  0
  7  9  1  0  0  0
M  END
> <minimizedAffinity>
-6.79315

$$$$
2POW_I7C_A_1000


 25 25  0  0  0  0  0  0  0  0999 V2000
   -2.5053    3.6652   11.4948 C   0  0  0  0  0  0  0  0  0  0  0  0
   -1.6678    4.6957   11.9298 C   0  0  0  0  0  0  0  0  0  0  0  0
   -1.7310    5.1805   13.2576 C   0  0  0  0  0  0  0  0  0  0  0  0
   -2.6605    4.6153   14.1367 C   0  0  0  0  0  0  0  0  0  0  0  0
   -3.5364    3.5652   13.7295 C   0  0  0  0  0  0  0  0  0  0  0  0
   -3.4392    3.0846   12.3679 C   0  0  0  0  0  0  0  0  0  0  0  0
   -0.9177    6.1886   13.7252 N   0  0  0  0  0  0  0  0  0  0  0  0
   -0.9980    6.4932   14.6579 H   0  0  0  0  0  0  0  0  0  0  0  0
   -0.2559    6.6047   13.1267 H   0  0  0  0  0  0  0  0  0  0  0  0
   -0.5130    5.3890   10.7993 S   0  0  0  0  0  0  0  0  0  0  0  0
   -0.6766    4.6648    9.4078 N   0  0  0  0  0  0  0  0  0  0  0  0
   -0.8666    6.7622   10.6027 O   0  0  0  0  0  0  0  0  0  0  0  0
    0.7674    5.0666   11.3328 O   0  0  0  0  0  0  0  0  0  0  0  0
   -0.4327    3.6794    9.5067 H   0  0  0  0  0  0  0  0  0  0  0  0
   -0.0592    5.1009    8.7229 H   0  0  0  0  0  0  0  0  0  0  0  0
   -4.4259    1.7678   11.6584 S   0  0  0  0  0  0  0  0  0  0  0  0
   -4.2029    1.7145   10.1033 N   0  0  0  0  0  0  0  0  0  0  0  0
   -3.9486    0.5433   12.2278 O   0  0  0  0  0  0  0  0  0  0  0  0
   -5.7945    2.1125   11.8898 O   0  0  0  0  0  0  0  0  0  0  0  0
   -4.7665    0.9637    9.7046 H   0  0  0  0  0  0  0  0  0  0  0  0
   -3.2172    1.5408    9.9070 H   0  0  0  0  0  0  0  0  0  0  0  0
   -4.5068    3.0106   14.7189 C   0  0  0  0  0  0  0  0  0  0  0  0
   -5.7912    3.2666   14.4215 F   0  0  0  0  0  0  0  0  0  0  0  0
   -4.4302    1.6731   14.8212 F   0  0  0  0  0  0  0  0  0  0  0  0
   -4.3213    3.4563   15.9761 F   0  0  0  0  0  0  0  0  0  0  0  0
 19 16  2  0  0  0
 18 16  2  0  0  0
 17 16  1  0  0  0
 16  6  1  0  0  0
 23 22  1  0  0  0
 25 22  1  0  0  0
 22 24  1  0  0  0
 22  5  1  0  0  0
  6  5  2  0  0  0
  6  1  1  0  0  0
  5  4  1  0  0  0
  1  2  2  0  0  0
  4  3  2  0  0  0
  2  3  1  0  0  0
  2 10  1  0  0  0
 11 10  1  0  0  0
  3  7  1  0  0  0
 13 10  2  0  0  0
 10 12  2  0  0  0
 11 14  1  0  0  0
 11 15  1  0  0  0
 17 20  1  0  0  0
 17 21  1  0  0  0
  7  8  1  0  0  0
  7  9  1  0  0  0
M  END
> <minimizedAffinity>
-6.54475

$$$$
2POW_I7C_A_1000


 25 25  0  0  0  0  0  0  0  0999 V2000
   -2.7528    4.5475   11.6414 C   0  0  0  0  0  0  0  0  0  0  0  0
   -3.6442    3.6450   12.2277 C   0  0  0  0  0  0  0  0  0  0  0  0
   -4.2082    3.8944   13.5011 C   0  0  0  0  0  0  0  0  0  0  0  0
   -3.8500    5.0648   14.1782 C   0  0  0  0  0  0  0  0  0  0  0  0
   -2.9396    6.0084   13.6156 C   0  0  0  0  0  0  0  0  0  0  0  0
   -2.3886    5.7290   12.3069 C   0  0  0  0  0  0  0  0  0  0  0  0
   -5.0953    3.0334   14.1078 N   0  0  0  0  0  0  0  0  0  0  0  0
   -5.4619    3.2494   14.9956 H   0  0  0  0  0  0  0  0  0  0  0  0
   -5.3629    2.2019   13.6538 H   0  0  0  0  0  0  0  0  0  0  0  0
   -4.0710    2.1802   11.3534 S   0  0  0  0  0  0  0  0  0  0  0  0
   -5.6345    1.9877   11.4302 N   0  0  0  0  0  0  0  0  0  0  0  0
   -3.7396    2.3831    9.9756 O   0  0  0  0  0  0  0  0  0  0  0  0
   -3.4460    1.1229   12.0742 O   0  0  0  0  0  0  0  0  0  0  0  0
   -5.9116    1.8397   12.4007 H   0  0  0  0  0  0  0  0  0  0  0  0
   -5.9052    1.1780   10.8721 H   0  0  0  0  0  0  0  0  0  0  0  0
   -1.2482    6.7834   11.4134 S   0  0  0  0  0  0  0  0  0  0  0  0
   -1.9628    8.1269   11.0195 N   0  0  0  0  0  0  0  0  0  0  0  0
   -0.1762    7.0864   12.3138 O   0  0  0  0  0  0  0  0  0  0  0  0
   -0.9180    6.0957   10.2037 O   0  0  0  0  0  0  0  0  0  0  0  0
   -1.3097    8.7232   10.5114 H   0  0  0  0  0  0  0  0  0  0  0  0
   -2.2746    8.6065   11.8641 H   0  0  0  0  0  0  0  0  0  0  0  0
   -2.5986    7.2351   14.3951 C   0  0  0  0  0  0  0  0  0  0  0  0
   -3.3374    7.3956   15.5050 F   0  0  0  0  0  0  0  0  0  0  0  0
   -1.3235    7.2381   14.8187 F   0  0  0  0  0  0  0  0  0  0  0  0
   -2.7248    8.3796   13.6967 F   0  0  0  0  0  0  0  0  0  0  0  0
 19 16  2  0  0  0
 18 16  2  0  0  0
 17 16  1  0  0  0
 16  6  1  0  0  0
 23 22  1  0  0  0
 25 22  1  0  0  0
 22 24  1  0  0  0
 22  5  1  0  0  0
  6  5  2  0  0  0
  6  1  1  0  0  0
  5  4  1  0  0  0
  1  2  2  0  0  0
  4  3  2  0  0  0
  2  3  1  0  0  0
  2 10  1  0  0  0
 11 10  1  0  0  0
  3  7  1  0  0  0
 13 10  2  0  0  0
 10 12  2  0  0  0
 11 14  1  0  0  0
 11 15  1  0  0  0
 17 20  1  0  0  0
 17 21  1  0  0  0
  7  8  1  0  0  0
  7  9  1  0  0  0
M  END
> <minimizedAffinity>
-6.50966

$$$$
2POW_I7C_A_1000


 25 25  0  0  0  0  0  0  0  0999 V2000
   -3.8022    4.3613   10.9893 C   0  0  0  0  0  0  0  0  0  0  0  0
   -3.1872    5.4889   10.4390 C   0  0  0  0  0  0  0  0  0  0  0  0
   -2.9037    6.6281   11.2289 C   0  0  0  0  0  0  0  0  0  0  0  0
   -3.2602    6.6148   12.5814 C   0  0  0  0  0  0  0  0  0  0  0  0
   -3.8939    5.4849   13.1792 C   0  0  0  0  0  0  0  0  0  0  0  0
   -4.1604    4.3316   12.3466 C   0  0  0  0  0  0  0  0  0  0  0  0
   -2.2924    7.7544   10.7248 N   0  0  0  0  0  0  0  0  0  0  0  0
   -2.1152    8.5235   11.3133 H   0  0  0  0  0  0  0  0  0  0  0  0
   -2.0327    7.7906    9.7759 H   0  0  0  0  0  0  0  0  0  0  0  0
   -2.7556    5.4768    8.7343 S   0  0  0  0  0  0  0  0  0  0  0  0
   -3.5593    6.6213    8.0052 N   0  0  0  0  0  0  0  0  0  0  0  0
   -1.3667    5.8090    8.6344 O   0  0  0  0  0  0  0  0  0  0  0  0
   -3.2101    4.2187    8.2458 O   0  0  0  0  0  0  0  0  0  0  0  0
   -4.5580    6.4201    8.0549 H   0  0  0  0  0  0  0  0  0  0  0  0
   -3.2705    6.6702    7.0282 H   0  0  0  0  0  0  0  0  0  0  0  0
   -4.9267    2.8082   12.8968 S   0  0  0  0  0  0  0  0  0  0  0  0
   -5.3696    1.9557   11.6527 N   0  0  0  0  0  0  0  0  0  0  0  0
   -3.9238    2.0785   13.6134 O   0  0  0  0  0  0  0  0  0  0  0  0
   -6.1081    3.1800   13.6120 O   0  0  0  0  0  0  0  0  0  0  0  0
   -5.8050    1.0901   11.9713 H   0  0  0  0  0  0  0  0  0  0  0  0
   -4.5527    1.7358   11.0830 H   0  0  0  0  0  0  0  0  0  0  0  0
   -4.2503    5.5402   14.6278 C   0  0  0  0  0  0  0  0  0  0  0  0
   -3.7995    4.4933   15.3380 F   0  0  0  0  0  0  0  0  0  0  0  0
   -3.7456    6.6238   15.2413 F   0  0  0  0  0  0  0  0  0  0  0  0
   -5.5747    5.6054   14.8632 F   0  0  0  0  0  0  0  0  0  0  0  0
 19 16  2  0  0  0
 18 16  2  0  0  0
 17 16  1  0  0  0
 16  6  1  0  0  0
 23 22  1  0  0  0
 25 22  1  0  0  0
 22 24  1  0  0  0
 22  5  1  0  0  0
  6  5  2  0  0  0
  6  1  1  0  0  0
  5  4  1  0  0  0
  1  2  2  0  0  0
  4  3  2  0  0  0
  2  3  1  0  0  0
  2 10  1  0  0  0
 11 10  1  0  0  0
  3  7  1  0  0  0
 13 10  2  0  0  0
 10 12  2  0  0  0
 11 14  1  0  0  0
 11 15  1  0  0  0
 17 20  1  0  0  0
 17 21  1  0  0  0
  7  8  1  0  0  0
  7  9  1  0  0  0
M  END
> <minimizedAffinity>
-6.49860

$$$$
2POW_I7C_A_1000


 25 25  0  0  0  0  0  0  0  0999 V2000
   -2.5851    4.5784   12.5902 C   0  0  0  0  0  0  0  0  0  0  0  0
   -2.1370    5.8898   12.7696 C   0  0  0  0  0  0  0  0  0  0  0  0
   -2.6702    6.7136   13.7889 C   0  0  0  0  0  0  0  0  0  0  0  0
   -3.6707    6.1958   14.6180 C   0  0  0  0  0  0  0  0  0  0  0  0
   -4.1584    4.8639   14.4636 C   0  0  0  0  0  0  0  0  0  0  0  0
   -3.5847    4.0436   13.4185 C   0  0  0  0  0  0  0  0  0  0  0  0
   -2.2493    8.0074   14.0015 N   0  0  0  0  0  0  0  0  0  0  0  0
   -2.6501    8.5430   14.7239 H   0  0  0  0  0  0  0  0  0  0  0  0
   -1.5476    8.3968   13.4312 H   0  0  0  0  0  0  0  0  0  0  0  0
   -0.8815    6.5133   11.7079 S   0  0  0  0  0  0  0  0  0  0  0  0
   -0.4995    5.3899   10.6690 N   0  0  0  0  0  0  0  0  0  0  0  0
   -1.4407    7.6012   10.9642 O   0  0  0  0  0  0  0  0  0  0  0  0
    0.2379    6.7490   12.5561 O   0  0  0  0  0  0  0  0  0  0  0  0
   -0.0957    4.5937   11.1623 H   0  0  0  0  0  0  0  0  0  0  0  0
    0.1808    5.7586   10.0043 H   0  0  0  0  0  0  0  0  0  0  0  0
   -4.0359    2.3457   13.0654 S   0  0  0  0  0  0  0  0  0  0  0  0
   -4.1001    1.5230   14.4032 N   0  0  0  0  0  0  0  0  0  0  0  0
   -5.3470    2.3795   12.4897 O   0  0  0  0  0  0  0  0  0  0  0  0
   -2.9807    1.7996   12.2694 O   0  0  0  0  0  0  0  0  0  0  0  0
   -4.3572    0.5578   14.1967 H   0  0  0  0  0  0  0  0  0  0  0  0
   -4.7975    1.9354   15.0229 H   0  0  0  0  0  0  0  0  0  0  0  0
   -5.2304    4.3772   15.3815 C   0  0  0  0  0  0  0  0  0  0  0  0
   -5.7864    5.3452   16.1281 F   0  0  0  0  0  0  0  0  0  0  0  0
   -6.2548    3.8106   14.7221 F   0  0  0  0  0  0  0  0  0  0  0  0
   -4.8211    3.4301   16.2470 F   0  0  0  0  0  0  0  0  0  0  0  0
 19 16  2  0  0  0
 18 16  2  0  0  0
 17 16  1  0  0  0
 16  6  1  0  0  0
 23 22  1  0  0  0
 25 22  1  0  0  0
 22 24  1  0  0  0
 22  5  1  0  0  0
  6  5  2  0  0  0
  6  1  1  0  0  0
  5  4  1  0  0  0
  1  2  2  0  0  0
  4  3  2  0  0  0
  2  3  1  0  0  0
  2 10  1  0  0  0
 11 10  1  0  0  0
  3  7  1  0  0  0
 13 10  2  0  0  0
 10 12  2  0  0  0
 11 14  1  0  0  0
 11 15  1  0  0  0
 17 20  1  0  0  0
 17 21  1  0  0  0
  7  8  1  0  0  0
  7  9  1  0  0  0
M  END
> <minimizedAffinity>
-6.45084

$$$$
