2POW_I7C_A_1000
  RCSB PDB12061706403D
Coordinates from PDB:2POW:A:1000 Model:1 without hydrogens
 19 19  0  0  0  0            999 V2000
   -4.9980    1.9280   14.6650   C 0  0  0  0  0  0  0  0  0  0  0  0
   -5.5620    2.1870   15.9170   C 0  0  0  0  0  0  0  0  0  0  0  0
   -5.7840    3.5120   16.3610   C 0  0  0  0  0  0  0  0  0  0  0  0
   -5.4180    4.5720   15.5250   C 0  0  0  0  0  0  0  0  0  0  0  0
   -4.8350    4.3490   14.2420   C 0  0  0  0  0  0  0  0  0  0  0  0
   -4.6310    2.9820   13.8130   C 0  0  0  0  0  0  0  0  0  0  0  0
   -6.0070    0.8330   16.9470   S 0  0  0  0  0  0  0  0  0  0  0  0
   -5.3870   -0.4840   16.3400   N 0  0  0  0  0  0  0  0  0  0  0  0
   -5.3930    1.0370   18.2240   O 0  0  0  0  0  0  0  0  0  0  0  0
   -7.4260    0.7510   16.8590   O 0  0  0  0  0  0  0  0  0  0  0  0
   -3.9350    2.4800   12.2400   S 0  0  0  0  0  0  0  0  0  0  0  0
   -2.3860    2.7470   12.2340   N 0  0  0  0  0  0  0  0  0  0  0  0
   -4.1530    1.0690   12.1250   O 0  0  0  0  0  0  0  0  0  0  0  0
   -4.5250    3.3210   11.2450   O 0  0  0  0  0  0  0  0  0  0  0  0
   -6.3440    3.8070   17.5840   N 0  0  0  0  0  0  0  0  0  0  0  0
   -4.4650    5.5270   13.4030   C 0  0  0  0  0  0  0  0  0  0  0  0
   -5.3940    5.8570   12.4910   F 0  0  0  0  0  0  0  0  0  0  0  0
   -4.2780    6.6400   14.1320   F 0  0  0  0  0  0  0  0  0  0  0  0
   -3.3140    5.3730   12.7210   F 0  0  0  0  0  0  0  0  0  0  0  0
 14 11  2  0  0  0  0
 13 11  2  0  0  0  0
 12 11  1  0  0  0  0
 11  6  1  0  0  0  0
 17 16  1  0  0  0  0
 19 16  1  0  0  0  0
 16 18  1  0  0  0  0
 16  5  1  0  0  0  0
  6  5  2  0  0  0  0
  6  1  1  0  0  0  0
  5  4  1  0  0  0  0
  1  2  2  0  0  0  0
  4  3  2  0  0  0  0
  2  3  1  0  0  0  0
  2  7  1  0  0  0  0
  8  7  1  0  0  0  0
  3 15  1  0  0  0  0
 10  7  2  0  0  0  0
  7  9  2  0  0  0  0
A    1
C2
A    2
C1
A    3
C6
A    4
C5
A    5
C4
A    6
C3
A    7
S1
A    8
N1
A    9
O1
A   10
O2
A   11
S2
A   12
N2
A   13
O3
A   14
O4
A   15
N3
A   16
C7
A   17
F1
A   18
F2
A   19
F3
M  END
>  <InstanceId>
2POW_I7C_A_1000

>  <ChemCompId>
I7C

>  <PdbId>
2POW

>  <ChainId>
A

>  <ResidueNumber>
1000

>  <InsertionCode>


>  <Model>
1

>  <AltIds>


>  <MissingHeavyAtoms>
0

>  <ObservedFormula>
C7 N3 O4 S2 F3

>  <Name>
4-AMINO-6-(TRIFLUOROMETHYL)BENZENE-1,3-DISULFONAMIDE

>  <SystematicName>
4-amino-6-(trifluoromethyl)benzene-1,3-disulfonamide

>  <Synonyms>


>  <Type>
NON-POLYMER

>  <Formula>
C7 H8 F3 N3 O4 S2

>  <MolecularWeight>
319.281

>  <ModifiedDate>
2011-06-04

>  <Parent>


>  <OneLetterCode>


>  <SubcomponentList>


>  <AmbiguousFlag>


>  <InChI>
InChI=1S/C7H8F3N3O4S2/c8-7(9,10)3-1-4(11)6(19(13,16)17)2-5(3)18(12,14)15/h1-2H,11H2,(H2,12,14,15)(H2,13,16,17)

>  <InChIKey>
KRVABEGPNKGLOT-UHFFFAOYSA-N

>  <SMILES>
c1c(c(cc(c1N)S(=O)(=O)N)S(=O)(=O)N)C(F)(F)F

$$$$
