4KZ3_1U1_A_401


 16 16  0  0  0  0  0  0  0  0999 V2000
   24.1222    7.8844    9.5033 C   0  0  0  0  0  0  0  0  0  0  0  0
   23.5512    7.7774    8.1880 C   0  0  0  0  0  0  0  0  0  0  0  0
   22.5343    6.8298    8.2058 C   0  0  0  0  0  0  0  0  0  0  0  0
   22.3103    6.1257    9.7490 S   0  0  0  0  0  0  0  0  0  0  0  0
   23.5762    7.0750   10.4316 C   0  0  0  0  0  0  0  0  0  0  0  0
   23.9530    6.8787   12.0639 Cl  0  0  0  0  0  0  0  0  0  0  0  0
   24.0587    8.7245    6.9196 S   0  0  0  0  0  0  0  0  0  0  0  0
   23.0749    9.7302    6.6725 O   0  0  0  0  0  0  0  0  0  0  0  0
   24.4607    7.9247    5.8177 O   0  0  0  0  0  0  0  0  0  0  0  0
   25.3651    9.6074    7.4549 N   0  0  0  0  0  0  0  0  0  0  0  0
   25.7052   10.2031    6.7001 H   0  0  0  0  0  0  0  0  0  0  0  0
   26.1077    8.9723    7.7477 H   0  0  0  0  0  0  0  0  0  0  0  0
   21.6600    6.2809    6.9974 C   0  0  0  0  0  0  0  0  0  0  0  0
   22.3469    5.6242    6.1904 O   0  0  0  0  0  0  0  0  0  0  0  0
   20.4399    6.4353    7.0303 O   0  0  0  0  0  0  0  0  0  0  0  0
   23.2785    5.5929    6.2851 H   0  0  0  0  0  0  0  0  0  0  0  0
 10  7  1  0  0  0
  8  7  2  0  0  0
  9  7  2  0  0  0
  7  2  1  0  0  0
 15 13  2  0  0  0
  2  3  2  0  0  0
  2  1  1  0  0  0
 13  3  1  0  0  0
 13 14  1  0  0  0
  3  4  1  0  0  0
  1  5  2  0  0  0
  5  4  1  0  0  0
  5  6  1  0  0  0
 14 16  1  0  0  0
 10 11  1  0  0  0
 10 12  1  0  0  0
M  END
> <minimizedAffinity>
-5.35339

$$$$
4KZ3_1U1_A_401


 16 16  0  0  0  0  0  0  0  0999 V2000
   23.7093    5.4441   12.6559 C   0  0  0  0  0  0  0  0  0  0  0  0
   23.6959    6.3542   13.7690 C   0  0  0  0  0  0  0  0  0  0  0  0
   22.3830    6.7128   14.0517 C   0  0  0  0  0  0  0  0  0  0  0  0
   21.2519    5.9697   13.0048 S   0  0  0  0  0  0  0  0  0  0  0  0
   22.4987    5.1490   12.1436 C   0  0  0  0  0  0  0  0  0  0  0  0
   22.0761    4.1535   10.8493 Cl  0  0  0  0  0  0  0  0  0  0  0  0
   25.0840    6.8043   14.5652 S   0  0  0  0  0  0  0  0  0  0  0  0
   25.0143    6.3376   15.9134 O   0  0  0  0  0  0  0  0  0  0  0  0
   25.3577    8.1833   14.3686 O   0  0  0  0  0  0  0  0  0  0  0  0
   26.3324    5.9065   13.9261 N   0  0  0  0  0  0  0  0  0  0  0  0
   27.2045    6.1566   14.3924 H   0  0  0  0  0  0  0  0  0  0  0  0
   26.4133    6.0990   12.9277 H   0  0  0  0  0  0  0  0  0  0  0  0
   21.8413    7.7562   15.1213 C   0  0  0  0  0  0  0  0  0  0  0  0
   22.0629    7.3791   16.2887 O   0  0  0  0  0  0  0  0  0  0  0  0
   21.3945    8.8323   14.7263 O   0  0  0  0  0  0  0  0  0  0  0  0
   22.4086    6.5226   16.4467 H   0  0  0  0  0  0  0  0  0  0  0  0
 10  7  1  0  0  0
  8  7  2  0  0  0
  9  7  2  0  0  0
  7  2  1  0  0  0
 15 13  2  0  0  0
  2  3  2  0  0  0
  2  1  1  0  0  0
 13  3  1  0  0  0
 13 14  1  0  0  0
  3  4  1  0  0  0
  1  5  2  0  0  0
  5  4  1  0  0  0
  5  6  1  0  0  0
 14 16  1  0  0  0
 10 11  1  0  0  0
 10 12  1  0  0  0
M  END
> <minimizedAffinity>
-5.35137

$$$$
4KZ3_1U1_A_401


 16 16  0  0  0  0  0  0  0  0999 V2000
   23.3635    6.3607   10.3142 C   0  0  0  0  0  0  0  0  0  0  0  0
   22.2636    5.9100    9.5052 C   0  0  0  0  0  0  0  0  0  0  0  0
   21.5331    4.9620   10.2123 C   0  0  0  0  0  0  0  0  0  0  0  0
   22.1736    4.6568   11.7692 S   0  0  0  0  0  0  0  0  0  0  0  0
   23.4503    5.7894   11.5312 C   0  0  0  0  0  0  0  0  0  0  0  0
   24.5773    6.0187   12.7650 Cl  0  0  0  0  0  0  0  0  0  0  0  0
   21.9619    6.5286    7.9920 S   0  0  0  0  0  0  0  0  0  0  0  0
   23.0128    7.4317    7.6450 O   0  0  0  0  0  0  0  0  0  0  0  0
   20.6311    7.0138    7.8978 O   0  0  0  0  0  0  0  0  0  0  0  0
   22.1654    5.2865    6.9017 N   0  0  0  0  0  0  0  0  0  0  0  0
   21.9877    5.6301    5.9579 H   0  0  0  0  0  0  0  0  0  0  0  0
   21.5120    4.5337    7.1181 H   0  0  0  0  0  0  0  0  0  0  0  0
   20.2875    4.0996    9.7319 C   0  0  0  0  0  0  0  0  0  0  0  0
   20.2197    4.0376    8.4886 O   0  0  0  0  0  0  0  0  0  0  0  0
   19.6184    3.5037   10.5751 O   0  0  0  0  0  0  0  0  0  0  0  0
   20.7981    4.5530    7.9616 H   0  0  0  0  0  0  0  0  0  0  0  0
 10  7  1  0  0  0
  8  7  2  0  0  0
  9  7  2  0  0  0
  7  2  1  0  0  0
 15 13  2  0  0  0
  2  3  2  0  0  0
  2  1  1  0  0  0
 13  3  1  0  0  0
 13 14  1  0  0  0
  3  4  1  0  0  0
  1  5  2  0  0  0
  5  4  1  0  0  0
  5  6  1  0  0  0
 14 16  1  0  0  0
 10 11  1  0  0  0
 10 12  1  0  0  0
M  END
> <minimizedAffinity>
-5.27905

$$$$
4KZ3_1U1_A_401


 16 16  0  0  0  0  0  0  0  0999 V2000
   22.6256    6.1775    9.8492 C   0  0  0  0  0  0  0  0  0  0  0  0
   22.4477    6.6001    8.4864 C   0  0  0  0  0  0  0  0  0  0  0  0
   23.2818    7.6820    8.2297 C   0  0  0  0  0  0  0  0  0  0  0  0
   24.2161    8.1368    9.5890 S   0  0  0  0  0  0  0  0  0  0  0  0
   23.5212    6.8923   10.5575 C   0  0  0  0  0  0  0  0  0  0  0  0
   24.0102    6.7412   12.1647 Cl  0  0  0  0  0  0  0  0  0  0  0  0
   21.4209    5.8162    7.4401 S   0  0  0  0  0  0  0  0  0  0  0  0
   20.4249    6.7379    6.9942 O   0  0  0  0  0  0  0  0  0  0  0  0
   20.9691    4.5902    7.9952 O   0  0  0  0  0  0  0  0  0  0  0  0
   22.2811    5.4987    6.0501 N   0  0  0  0  0  0  0  0  0  0  0  0
   21.6807    5.0159    5.3815 H   0  0  0  0  0  0  0  0  0  0  0  0
   23.0833    4.9097    6.2737 H   0  0  0  0  0  0  0  0  0  0  0  0
   23.3954    8.5647    6.9129 C   0  0  0  0  0  0  0  0  0  0  0  0
   24.0688    7.9959    6.0314 O   0  0  0  0  0  0  0  0  0  0  0  0
   22.7450    9.6065    6.8396 O   0  0  0  0  0  0  0  0  0  0  0  0
   24.5187    7.1977    6.2275 H   0  0  0  0  0  0  0  0  0  0  0  0
 10  7  1  0  0  0
  8  7  2  0  0  0
  9  7  2  0  0  0
  7  2  1  0  0  0
 15 13  2  0  0  0
  2  3  2  0  0  0
  2  1  1  0  0  0
 13  3  1  0  0  0
 13 14  1  0  0  0
  3  4  1  0  0  0
  1  5  2  0  0  0
  5  4  1  0  0  0
  5  6  1  0  0  0
 14 16  1  0  0  0
 10 11  1  0  0  0
 10 12  1  0  0  0
M  END
> <minimizedAffinity>
-5.13502

$$$$
4KZ3_1U1_A_401


 16 16  0  0  0  0  0  0  0  0999 V2000
   23.4851    6.8667   10.5726 C   0  0  0  0  0  0  0  0  0  0  0  0
   22.4236    5.9279   10.3292 C   0  0  0  0  0  0  0  0  0  0  0  0
   21.9585    6.0893    9.0292 C   0  0  0  0  0  0  0  0  0  0  0  0
   22.7848    7.3216    8.1770 S   0  0  0  0  0  0  0  0  0  0  0  0
   23.7868    7.6709    9.5348 C   0  0  0  0  0  0  0  0  0  0  0  0
   24.9360    8.8988    9.4055 Cl  0  0  0  0  0  0  0  0  0  0  0  0
   21.9369    4.8217   11.4706 S   0  0  0  0  0  0  0  0  0  0  0  0
   21.9912    3.5141   10.8981 O   0  0  0  0  0  0  0  0  0  0  0  0
   20.7131    5.2171   12.0716 O   0  0  0  0  0  0  0  0  0  0  0  0
   23.1221    4.7644   12.6389 N   0  0  0  0  0  0  0  0  0  0  0  0
   22.8570    4.0929   13.3595 H   0  0  0  0  0  0  0  0  0  0  0  0
   23.2310    5.6878   13.0582 H   0  0  0  0  0  0  0  0  0  0  0  0
   20.7437    5.3631    8.3061 C   0  0  0  0  0  0  0  0  0  0  0  0
   21.0187    4.1833    8.0122 O   0  0  0  0  0  0  0  0  0  0  0  0
   19.6668    5.9521    8.2208 O   0  0  0  0  0  0  0  0  0  0  0  0
   21.8913    3.8625    8.1293 H   0  0  0  0  0  0  0  0  0  0  0  0
 10  7  1  0  0  0
  8  7  2  0  0  0
  9  7  2  0  0  0
  7  2  1  0  0  0
 15 13  2  0  0  0
  2  3  2  0  0  0
  2  1  1  0  0  0
 13  3  1  0  0  0
 13 14  1  0  0  0
  3  4  1  0  0  0
  1  5  2  0  0  0
  5  4  1  0  0  0
  5  6  1  0  0  0
 14 16  1  0  0  0
 10 11  1  0  0  0
 10 12  1  0  0  0
M  END
> <minimizedAffinity>
-5.01532

$$$$
4KZ3_1U1_A_401


 16 16  0  0  0  0  0  0  0  0999 V2000
   22.4079    6.7399   15.2118 C   0  0  0  0  0  0  0  0  0  0  0  0
   23.4628    6.8457   14.2406 C   0  0  0  0  0  0  0  0  0  0  0  0
   22.9256    6.7173   12.9649 C   0  0  0  0  0  0  0  0  0  0  0  0
   21.2310    6.4811   12.9793 S   0  0  0  0  0  0  0  0  0  0  0  0
   21.1771    6.5431   14.7005 C   0  0  0  0  0  0  0  0  0  0  0  0
   19.6918    6.3535   15.4770 Cl  0  0  0  0  0  0  0  0  0  0  0  0
   25.0421    7.1341   14.6722 S   0  0  0  0  0  0  0  0  0  0  0  0
   25.2230    6.7576   16.0382 O   0  0  0  0  0  0  0  0  0  0  0  0
   25.4381    8.4462   14.3023 O   0  0  0  0  0  0  0  0  0  0  0  0
   25.9858    6.0316   13.8556 N   0  0  0  0  0  0  0  0  0  0  0  0
   26.9660    6.1786   14.0966 H   0  0  0  0  0  0  0  0  0  0  0  0
   25.8605    6.1549   12.8509 H   0  0  0  0  0  0  0  0  0  0  0  0
   23.6770    6.6714   11.5652 C   0  0  0  0  0  0  0  0  0  0  0  0
   24.5231    7.5814   11.4643 O   0  0  0  0  0  0  0  0  0  0  0  0
   23.4606    5.7270   10.8069 O   0  0  0  0  0  0  0  0  0  0  0  0
   24.5783    8.2450   12.1235 H   0  0  0  0  0  0  0  0  0  0  0  0
 10  7  1  0  0  0
  8  7  2  0  0  0
  9  7  2  0  0  0
  7  2  1  0  0  0
 15 13  2  0  0  0
  2  3  2  0  0  0
  2  1  1  0  0  0
 13  3  1  0  0  0
 13 14  1  0  0  0
  3  4  1  0  0  0
  1  5  2  0  0  0
  5  4  1  0  0  0
  5  6  1  0  0  0
 14 16  1  0  0  0
 10 11  1  0  0  0
 10 12  1  0  0  0
M  END
> <minimizedAffinity>
-5.01101

$$$$
4KZ3_1U1_A_401


 16 16  0  0  0  0  0  0  0  0999 V2000
   23.7837    7.1520   10.1218 C   0  0  0  0  0  0  0  0  0  0  0  0
   23.7644    7.7206    8.8013 C   0  0  0  0  0  0  0  0  0  0  0  0
   22.7233    7.1552    8.0742 C   0  0  0  0  0  0  0  0  0  0  0  0
   21.8372    5.9998    8.9728 S   0  0  0  0  0  0  0  0  0  0  0  0
   22.8321    6.2288   10.3611 C   0  0  0  0  0  0  0  0  0  0  0  0
   22.5165    5.3232   11.7486 Cl  0  0  0  0  0  0  0  0  0  0  0  0
   24.8290    8.9070    8.3294 S   0  0  0  0  0  0  0  0  0  0  0  0
   25.7759    9.1203    9.3773 O   0  0  0  0  0  0  0  0  0  0  0  0
   24.1363   10.0448    7.8385 O   0  0  0  0  0  0  0  0  0  0  0  0
   25.7650    8.2721    7.1073 N   0  0  0  0  0  0  0  0  0  0  0  0
   26.4333    8.9748    6.7908 H   0  0  0  0  0  0  0  0  0  0  0  0
   25.1665    7.9970    6.3285 H   0  0  0  0  0  0  0  0  0  0  0  0
   22.3361    7.3756    6.5486 C   0  0  0  0  0  0  0  0  0  0  0  0
   21.8925    8.5227    6.3450 O   0  0  0  0  0  0  0  0  0  0  0  0
   22.6099    6.4948    5.7343 O   0  0  0  0  0  0  0  0  0  0  0  0
   21.7275    9.0962    7.0673 H   0  0  0  0  0  0  0  0  0  0  0  0
 10  7  1  0  0  0
  8  7  2  0  0  0
  9  7  2  0  0  0
  7  2  1  0  0  0
 15 13  2  0  0  0
  2  3  2  0  0  0
  2  1  1  0  0  0
 13  3  1  0  0  0
 13 14  1  0  0  0
  3  4  1  0  0  0
  1  5  2  0  0  0
  5  4  1  0  0  0
  5  6  1  0  0  0
 14 16  1  0  0  0
 10 11  1  0  0  0
 10 12  1  0  0  0
M  END
> <minimizedAffinity>
-4.99209

$$$$
4KZ3_1U1_A_401


 16 16  0  0  0  0  0  0  0  0999 V2000
   23.6823    7.3921   10.2610 C   0  0  0  0  0  0  0  0  0  0  0  0
   23.0240    7.1565    9.0046 C   0  0  0  0  0  0  0  0  0  0  0  0
   22.3042    5.9697    9.0800 C   0  0  0  0  0  0  0  0  0  0  0  0
   22.4413    5.2063   10.6051 S   0  0  0  0  0  0  0  0  0  0  0  0
   23.4735    6.4505   11.2017 C   0  0  0  0  0  0  0  0  0  0  0  0
   24.0602    6.3366   12.7789 Cl  0  0  0  0  0  0  0  0  0  0  0  0
   23.1230    8.2258    7.7357 S   0  0  0  0  0  0  0  0  0  0  0  0
   23.7813    7.5844    6.6423 O   0  0  0  0  0  0  0  0  0  0  0  0
   23.6429    9.4754    8.1640 O   0  0  0  0  0  0  0  0  0  0  0  0
   21.5774    8.4501    7.1578 N   0  0  0  0  0  0  0  0  0  0  0  0
   21.5987    9.1034    6.3748 H   0  0  0  0  0  0  0  0  0  0  0  0
   20.9885    8.8280    7.9000 H   0  0  0  0  0  0  0  0  0  0  0  0
   21.4846    5.2251    7.9400 C   0  0  0  0  0  0  0  0  0  0  0  0
   22.0763    5.2653    6.8434 O   0  0  0  0  0  0  0  0  0  0  0  0
   20.4670    4.6063    8.2492 O   0  0  0  0  0  0  0  0  0  0  0  0
   22.8503    5.7845    6.7475 H   0  0  0  0  0  0  0  0  0  0  0  0
 10  7  1  0  0  0
  8  7  2  0  0  0
  9  7  2  0  0  0
  7  2  1  0  0  0
 15 13  2  0  0  0
  2  3  2  0  0  0
  2  1  1  0  0  0
 13  3  1  0  0  0
 13 14  1  0  0  0
  3  4  1  0  0  0
  1  5  2  0  0  0
  5  4  1  0  0  0
  5  6  1  0  0  0
 14 16  1  0  0  0
 10 11  1  0  0  0
 10 12  1  0  0  0
M  END
> <minimizedAffinity>
-4.82061

$$$$
4KZ3_1U1_A_401


 16 16  0  0  0  0  0  0  0  0999 V2000
   23.6503    7.1460   10.0518 C   0  0  0  0  0  0  0  0  0  0  0  0
   22.9675    6.2429   10.9382 C   0  0  0  0  0  0  0  0  0  0  0  0
   21.8612    5.7103   10.2864 C   0  0  0  0  0  0  0  0  0  0  0  0
   21.6875    6.2953    8.6879 S   0  0  0  0  0  0  0  0  0  0  0  0
   23.0937    7.2809    8.8324 C   0  0  0  0  0  0  0  0  0  0  0  0
   23.5600    8.2331    7.5207 Cl  0  0  0  0  0  0  0  0  0  0  0  0
   23.5248    5.9091   12.4684 S   0  0  0  0  0  0  0  0  0  0  0  0
   22.6064    6.4469   13.4212 O   0  0  0  0  0  0  0  0  0  0  0  0
   24.8895    6.2761   12.6031 O   0  0  0  0  0  0  0  0  0  0  0  0
   23.3788    4.2664   12.6991 N   0  0  0  0  0  0  0  0  0  0  0  0
   23.7127    4.0231   13.6317 H   0  0  0  0  0  0  0  0  0  0  0  0
   23.9347    3.7742   11.9998 H   0  0  0  0  0  0  0  0  0  0  0  0
   20.7380    4.7408   10.8560 C   0  0  0  0  0  0  0  0  0  0  0  0
   20.2683    5.1589   11.9324 O   0  0  0  0  0  0  0  0  0  0  0  0
   20.3672    3.7927   10.1650 O   0  0  0  0  0  0  0  0  0  0  0  0
   20.6546    5.9003   12.3555 H   0  0  0  0  0  0  0  0  0  0  0  0
 10  7  1  0  0  0
  8  7  2  0  0  0
  9  7  2  0  0  0
  7  2  1  0  0  0
 15 13  2  0  0  0
  2  3  2  0  0  0
  2  1  1  0  0  0
 13  3  1  0  0  0
 13 14  1  0  0  0
  3  4  1  0  0  0
  1  5  2  0  0  0
  5  4  1  0  0  0
  5  6  1  0  0  0
 14 16  1  0  0  0
 10 11  1  0  0  0
 10 12  1  0  0  0
M  END
> <minimizedAffinity>
-4.75418

$$$$
4KZ3_1U1_A_401


 16 16  0  0  0  0  0  0  0  0999 V2000
   23.1069    7.2645    8.6748 C   0  0  0  0  0  0  0  0  0  0  0  0
   22.2597    6.1570    9.0259 C   0  0  0  0  0  0  0  0  0  0  0  0
   22.4277    5.8611   10.3737 C   0  0  0  0  0  0  0  0  0  0  0  0
   23.5595    6.8884   11.1426 S   0  0  0  0  0  0  0  0  0  0  0  0
   23.8540    7.7553    9.6827 C   0  0  0  0  0  0  0  0  0  0  0  0
   24.9716    9.0185    9.6960 Cl  0  0  0  0  0  0  0  0  0  0  0  0
   21.2309    5.4439    7.9321 S   0  0  0  0  0  0  0  0  0  0  0  0
   20.1304    6.3226    7.6934 O   0  0  0  0  0  0  0  0  0  0  0  0
   20.9266    4.1113    8.3154 O   0  0  0  0  0  0  0  0  0  0  0  0
   22.0127    5.4209    6.4620 N   0  0  0  0  0  0  0  0  0  0  0  0
   21.4092    4.9884    5.7627 H   0  0  0  0  0  0  0  0  0  0  0  0
   22.8763    4.8844    6.5445 H   0  0  0  0  0  0  0  0  0  0  0  0
   21.7933    4.6764   11.2223 C   0  0  0  0  0  0  0  0  0  0  0  0
   20.5500    4.7553   11.2692 O   0  0  0  0  0  0  0  0  0  0  0  0
   22.5284    3.7753   11.6241 O   0  0  0  0  0  0  0  0  0  0  0  0
   20.1149    5.5084   10.9209 H   0  0  0  0  0  0  0  0  0  0  0  0
 10  7  1  0  0  0
  8  7  2  0  0  0
  9  7  2  0  0  0
  7  2  1  0  0  0
 15 13  2  0  0  0
  2  3  2  0  0  0
  2  1  1  0  0  0
 13  3  1  0  0  0
 13 14  1  0  0  0
  3  4  1  0  0  0
  1  5  2  0  0  0
  5  4  1  0  0  0
  5  6  1  0  0  0
 14 16  1  0  0  0
 10 11  1  0  0  0
 10 12  1  0  0  0
M  END
> <minimizedAffinity>
-4.71553

$$$$
