2B9A_FBC_A_301


 18 19  0  0  0  0  0  0  0  0999 V2000
   21.1418   84.1808   57.7387 C   0  0  0  0  0  0  0  0  0  0  0  0
   22.1424   84.5459   56.8415 C   0  0  0  0  0  0  0  0  0  0  0  0
   22.1589   84.0704   55.5335 C   0  0  0  0  0  0  0  0  0  0  0  0
   20.1286   83.3193   57.2610 C   0  0  0  0  0  0  0  0  0  0  0  0
   20.1262   82.8562   55.9326 C   0  0  0  0  0  0  0  0  0  0  0  0
   21.1587   83.2312   55.0678 C   0  0  0  0  0  0  0  0  0  0  0  0
   21.6565   83.5937   62.5265 F   0  0  0  0  0  0  0  0  0  0  0  0
   21.4398   84.3995   61.4642 C   0  0  0  0  0  0  0  0  0  0  0  0
   21.2443   85.7634   61.6613 C   0  0  0  0  0  0  0  0  0  0  0  0
   21.0342   86.5975   60.5808 C   0  0  0  0  0  0  0  0  0  0  0  0
   20.8572   87.9255   60.7812 F   0  0  0  0  0  0  0  0  0  0  0  0
   21.0022   86.0553   59.2903 C   0  0  0  0  0  0  0  0  0  0  0  0
   21.4017   83.8660   60.1650 C   0  0  0  0  0  0  0  0  0  0  0  0
   21.1813   84.6864   59.0546 C   0  0  0  0  0  0  0  0  0  0  0  0
   21.2360   82.7329   53.6443 C   0  0  0  0  0  0  0  0  0  0  0  0
   21.6234   83.5240   52.7620 O   0  0  0  0  0  0  0  0  0  0  0  0
   20.8936   81.5666   53.3238 O   0  0  0  0  0  0  0  0  0  0  0  0
   20.6015   80.9666   53.9816 H   0  0  0  0  0  0  0  0  0  0  0  0
  7  8  1  0  0  0
  8  9  2  0  0  0
  8 13  1  0  0  0
  9 10  1  0  0  0
 10 11  1  0  0  0
 10 12  2  0  0  0
 12 14  1  0  0  0
 13 14  2  0  0  0
 14  1  1  0  0  0
  1  2  2  0  0  0
  1  4  1  0  0  0
  2  3  1  0  0  0
  3  6  2  0  0  0
  4  5  2  0  0  0
  5  6  1  0  0  0
  6 15  1  0  0  0
 15 16  2  0  0  0
 15 17  1  0  0  0
 17 18  1  0  0  0
M  END
> <minimizedAffinity>
-7.86761

$$$$
2B9A_FBC_A_301


 18 19  0  0  0  0  0  0  0  0999 V2000
   21.7714   85.4865   57.7233 C   0  0  0  0  0  0  0  0  0  0  0  0
   20.7805   85.1204   56.8159 C   0  0  0  0  0  0  0  0  0  0  0  0
   20.7660   85.6113   55.5135 C   0  0  0  0  0  0  0  0  0  0  0  0
   22.7772   86.3655   57.2620 C   0  0  0  0  0  0  0  0  0  0  0  0
   22.7818   86.8443   55.9392 C   0  0  0  0  0  0  0  0  0  0  0  0
   21.7589   86.4676   55.0638 C   0  0  0  0  0  0  0  0  0  0  0  0
   22.0164   81.7940   60.8599 F   0  0  0  0  0  0  0  0  0  0  0  0
   21.8528   83.1128   60.6173 C   0  0  0  0  0  0  0  0  0  0  0  0
   21.6321   83.9872   61.6774 C   0  0  0  0  0  0  0  0  0  0  0  0
   21.4759   85.3389   61.4409 C   0  0  0  0  0  0  0  0  0  0  0  0
   21.2739   86.1841   62.4801 F   0  0  0  0  0  0  0  0  0  0  0  0
   21.5236   85.8162   60.1255 C   0  0  0  0  0  0  0  0  0  0  0  0
   21.8948   83.6026   59.3011 C   0  0  0  0  0  0  0  0  0  0  0  0
   21.7301   84.9648   59.0330 C   0  0  0  0  0  0  0  0  0  0  0  0
   21.6841   86.9820   53.6459 C   0  0  0  0  0  0  0  0  0  0  0  0
   21.2961   86.2016   52.7545 O   0  0  0  0  0  0  0  0  0  0  0  0
   22.0292   88.1511   53.3388 O   0  0  0  0  0  0  0  0  0  0  0  0
   22.3219   88.7431   54.0036 H   0  0  0  0  0  0  0  0  0  0  0  0
  7  8  1  0  0  0
  8  9  2  0  0  0
  8 13  1  0  0  0
  9 10  1  0  0  0
 10 11  1  0  0  0
 10 12  2  0  0  0
 12 14  1  0  0  0
 13 14  2  0  0  0
 14  1  1  0  0  0
  1  2  2  0  0  0
  1  4  1  0  0  0
  2  3  1  0  0  0
  3  6  2  0  0  0
  4  5  2  0  0  0
  5  6  1  0  0  0
  6 15  1  0  0  0
 15 16  2  0  0  0
 15 17  1  0  0  0
 17 18  1  0  0  0
M  END
> <minimizedAffinity>
-7.85811

$$$$
2B9A_FBC_A_301


 18 19  0  0  0  0  0  0  0  0999 V2000
   21.7697   85.5369   57.7462 C   0  0  0  0  0  0  0  0  0  0  0  0
   20.7606   85.1889   56.8517 C   0  0  0  0  0  0  0  0  0  0  0  0
   20.7485   85.6648   55.5438 C   0  0  0  0  0  0  0  0  0  0  0  0
   22.7961   86.3810   57.2658 C   0  0  0  0  0  0  0  0  0  0  0  0
   22.8027   86.8441   55.9375 C   0  0  0  0  0  0  0  0  0  0  0  0
   21.7616   86.4869   55.0754 C   0  0  0  0  0  0  0  0  0  0  0  0
   21.2947   86.1343   62.5369 F   0  0  0  0  0  0  0  0  0  0  0  0
   21.4864   85.3239   61.4732 C   0  0  0  0  0  0  0  0  0  0  0  0
   21.6504   83.9557   61.6690 C   0  0  0  0  0  0  0  0  0  0  0  0
   21.8347   83.1172   60.5871 C   0  0  0  0  0  0  0  0  0  0  0  0
   21.9812   81.7853   60.7863 F   0  0  0  0  0  0  0  0  0  0  0  0
   21.8728   83.6590   59.2966 C   0  0  0  0  0  0  0  0  0  0  0  0
   21.5303   85.8569   60.1739 C   0  0  0  0  0  0  0  0  0  0  0  0
   21.7251   85.0318   59.0623 C   0  0  0  0  0  0  0  0  0  0  0  0
   21.6889   86.9866   53.6522 C   0  0  0  0  0  0  0  0  0  0  0  0
   21.3014   86.1974   52.7684 O   0  0  0  0  0  0  0  0  0  0  0  0
   22.0353   88.1522   53.3335 O   0  0  0  0  0  0  0  0  0  0  0  0
   22.3276   88.7508   53.9924 H   0  0  0  0  0  0  0  0  0  0  0  0
  7  8  1  0  0  0
  8  9  2  0  0  0
  8 13  1  0  0  0
  9 10  1  0  0  0
 10 11  1  0  0  0
 10 12  2  0  0  0
 12 14  1  0  0  0
 13 14  2  0  0  0
 14  1  1  0  0  0
  1  2  2  0  0  0
  1  4  1  0  0  0
  2  3  1  0  0  0
  3  6  2  0  0  0
  4  5  2  0  0  0
  5  6  1  0  0  0
  6 15  1  0  0  0
 15 16  2  0  0  0
 15 17  1  0  0  0
 17 18  1  0  0  0
M  END
> <minimizedAffinity>
-7.84663

$$$$
2B9A_FBC_A_301


 18 19  0  0  0  0  0  0  0  0999 V2000
   21.3803   84.4611   57.5308 C   0  0  0  0  0  0  0  0  0  0  0  0
   22.2955   85.0662   56.6732 C   0  0  0  0  0  0  0  0  0  0  0  0
   22.3663   84.7282   55.3249 C   0  0  0  0  0  0  0  0  0  0  0  0
   20.5092   83.4991   56.9715 C   0  0  0  0  0  0  0  0  0  0  0  0
   20.5590   83.1722   55.6042 C   0  0  0  0  0  0  0  0  0  0  0  0
   21.5047   83.7891   54.7797 C   0  0  0  0  0  0  0  0  0  0  0  0
   20.9392   87.7838   61.0377 F   0  0  0  0  0  0  0  0  0  0  0  0
   21.1388   86.5022   60.6600 C   0  0  0  0  0  0  0  0  0  0  0  0
   21.3359   85.5207   61.6269 C   0  0  0  0  0  0  0  0  0  0  0  0
   21.5286   84.2057   61.2513 C   0  0  0  0  0  0  0  0  0  0  0  0
   21.7073   83.2551   62.1998 F   0  0  0  0  0  0  0  0  0  0  0  0
   21.5416   83.8744   59.8910 C   0  0  0  0  0  0  0  0  0  0  0  0
   21.1577   86.1588   59.2977 C   0  0  0  0  0  0  0  0  0  0  0  0
   21.3603   84.8369   58.8900 C   0  0  0  0  0  0  0  0  0  0  0  0
   21.6372   83.4494   53.3142 C   0  0  0  0  0  0  0  0  0  0  0  0
   21.3529   84.3279   52.4765 O   0  0  0  0  0  0  0  0  0  0  0  0
   21.9905   82.3090   52.9206 O   0  0  0  0  0  0  0  0  0  0  0  0
   22.2056   81.6439   53.5446 H   0  0  0  0  0  0  0  0  0  0  0  0
  7  8  1  0  0  0
  8  9  2  0  0  0
  8 13  1  0  0  0
  9 10  1  0  0  0
 10 11  1  0  0  0
 10 12  2  0  0  0
 12 14  1  0  0  0
 13 14  2  0  0  0
 14  1  1  0  0  0
  1  2  2  0  0  0
  1  4  1  0  0  0
  2  3  1  0  0  0
  3  6  2  0  0  0
  4  5  2  0  0  0
  5  6  1  0  0  0
  6 15  1  0  0  0
 15 16  2  0  0  0
 15 17  1  0  0  0
 17 18  1  0  0  0
M  END
> <minimizedAffinity>
-7.74816

$$$$
2B9A_FBC_A_301


 18 19  0  0  0  0  0  0  0  0999 V2000
   21.3902   84.6229   57.8027 C   0  0  0  0  0  0  0  0  0  0  0  0
   20.8242   83.6947   58.6730 C   0  0  0  0  0  0  0  0  0  0  0  0
   20.8133   83.8974   60.0500 C   0  0  0  0  0  0  0  0  0  0  0  0
   21.9391   85.7931   58.3739 C   0  0  0  0  0  0  0  0  0  0  0  0
   21.9079   86.0151   59.7627 C   0  0  0  0  0  0  0  0  0  0  0  0
   21.3466   85.0504   60.6047 C   0  0  0  0  0  0  0  0  0  0  0  0
   20.9060   81.6128   54.0294 F   0  0  0  0  0  0  0  0  0  0  0  0
   21.1377   82.8525   54.5137 C   0  0  0  0  0  0  0  0  0  0  0  0
   21.3795   83.9030   53.6333 C   0  0  0  0  0  0  0  0  0  0  0  0
   21.6054   85.1764   54.1180 C   0  0  0  0  0  0  0  0  0  0  0  0
   21.8275   86.1952   53.2533 F   0  0  0  0  0  0  0  0  0  0  0  0
   21.6066   85.3949   55.5010 C   0  0  0  0  0  0  0  0  0  0  0  0
   21.1452   83.0828   55.8996 C   0  0  0  0  0  0  0  0  0  0  0  0
   21.3806   84.3600   56.4171 C   0  0  0  0  0  0  0  0  0  0  0  0
   21.3222   85.2100   62.1062 C   0  0  0  0  0  0  0  0  0  0  0  0
   21.8638   84.3290   62.8025 O   0  0  0  0  0  0  0  0  0  0  0  0
   20.7491   86.1780   62.6673 O   0  0  0  0  0  0  0  0  0  0  0  0
   20.3399   86.8438   62.1503 H   0  0  0  0  0  0  0  0  0  0  0  0
  7  8  1  0  0  0
  8  9  2  0  0  0
  8 13  1  0  0  0
  9 10  1  0  0  0
 10 11  1  0  0  0
 10 12  2  0  0  0
 12 14  1  0  0  0
 13 14  2  0  0  0
 14  1  1  0  0  0
  1  2  2  0  0  0
  1  4  1  0  0  0
  2  3  1  0  0  0
  3  6  2  0  0  0
  4  5  2  0  0  0
  5  6  1  0  0  0
  6 15  1  0  0  0
 15 16  2  0  0  0
 15 17  1  0  0  0
 17 18  1  0  0  0
M  END
> <minimizedAffinity>
-7.56850

$$$$
2B9A_FBC_A_301


 18 19  0  0  0  0  0  0  0  0999 V2000
   21.5360   85.1234   57.7114 C   0  0  0  0  0  0  0  0  0  0  0  0
   22.1968   85.9897   58.5786 C   0  0  0  0  0  0  0  0  0  0  0  0
   22.2143   85.7734   59.9535 C   0  0  0  0  0  0  0  0  0  0  0  0
   20.8967   84.0002   58.2830 C   0  0  0  0  0  0  0  0  0  0  0  0
   20.9330   83.7627   59.6691 C   0  0  0  0  0  0  0  0  0  0  0  0
   21.5917   84.6662   60.5084 C   0  0  0  0  0  0  0  0  0  0  0  0
   21.9803   88.1723   53.9644 F   0  0  0  0  0  0  0  0  0  0  0  0
   21.7670   86.9252   54.4378 C   0  0  0  0  0  0  0  0  0  0  0  0
   21.5431   85.8785   53.5482 C   0  0  0  0  0  0  0  0  0  0  0  0
   21.3361   84.5977   54.0218 C   0  0  0  0  0  0  0  0  0  0  0  0
   21.1314   83.5829   53.1480 F   0  0  0  0  0  0  0  0  0  0  0  0
   21.3359   84.3675   55.4028 C   0  0  0  0  0  0  0  0  0  0  0  0
   21.7606   86.6831   55.8218 C   0  0  0  0  0  0  0  0  0  0  0  0
   21.5440   85.3981   56.3280 C   0  0  0  0  0  0  0  0  0  0  0  0
   21.6288   84.4903   62.0078 C   0  0  0  0  0  0  0  0  0  0  0  0
   20.9801   85.2886   62.7122 O   0  0  0  0  0  0  0  0  0  0  0  0
   22.3135   83.5921   62.5598 O   0  0  0  0  0  0  0  0  0  0  0  0
   22.8036   82.9886   62.0367 H   0  0  0  0  0  0  0  0  0  0  0  0
  7  8  1  0  0  0
  8  9  2  0  0  0
  8 13  1  0  0  0
  9 10  1  0  0  0
 10 11  1  0  0  0
 10 12  2  0  0  0
 12 14  1  0  0  0
 13 14  2  0  0  0
 14  1  1  0  0  0
  1  2  2  0  0  0
  1  4  1  0  0  0
  2  3  1  0  0  0
  3  6  2  0  0  0
  4  5  2  0  0  0
  5  6  1  0  0  0
  6 15  1  0  0  0
 15 16  2  0  0  0
 15 17  1  0  0  0
 17 18  1  0  0  0
M  END
> <minimizedAffinity>
-7.56843

$$$$
2B9A_FBC_A_301


 18 19  0  0  0  0  0  0  0  0999 V2000
   21.5304   85.0787   57.6807 C   0  0  0  0  0  0  0  0  0  0  0  0
   22.1761   85.9617   58.5424 C   0  0  0  0  0  0  0  0  0  0  0  0
   22.2003   85.7525   59.9183 C   0  0  0  0  0  0  0  0  0  0  0  0
   20.9137   83.9463   58.2590 C   0  0  0  0  0  0  0  0  0  0  0  0
   20.9571   83.7164   59.6462 C   0  0  0  0  0  0  0  0  0  0  0  0
   21.6000   84.6364   60.4798 C   0  0  0  0  0  0  0  0  0  0  0  0
   21.0982   83.6729   53.0579 F   0  0  0  0  0  0  0  0  0  0  0  0
   21.3138   84.6476   53.9681 C   0  0  0  0  0  0  0  0  0  0  0  0
   21.5483   85.9512   53.5406 C   0  0  0  0  0  0  0  0  0  0  0  0
   21.7576   86.9570   54.4636 C   0  0  0  0  0  0  0  0  0  0  0  0
   21.9728   88.2252   54.0386 F   0  0  0  0  0  0  0  0  0  0  0  0
   21.7495   86.6487   55.8293 C   0  0  0  0  0  0  0  0  0  0  0  0
   21.3118   84.3493   55.3411 C   0  0  0  0  0  0  0  0  0  0  0  0
   21.5305   85.3466   56.2960 C   0  0  0  0  0  0  0  0  0  0  0  0
   21.6432   84.4686   61.9800 C   0  0  0  0  0  0  0  0  0  0  0  0
   20.9845   85.2609   62.6820 O   0  0  0  0  0  0  0  0  0  0  0  0
   22.3424   83.5834   62.5348 O   0  0  0  0  0  0  0  0  0  0  0  0
   22.8400   82.9845   62.0136 H   0  0  0  0  0  0  0  0  0  0  0  0
  7  8  1  0  0  0
  8  9  2  0  0  0
  8 13  1  0  0  0
  9 10  1  0  0  0
 10 11  1  0  0  0
 10 12  2  0  0  0
 12 14  1  0  0  0
 13 14  2  0  0  0
 14  1  1  0  0  0
  1  2  2  0  0  0
  1  4  1  0  0  0
  2  3  1  0  0  0
  3  6  2  0  0  0
  4  5  2  0  0  0
  5  6  1  0  0  0
  6 15  1  0  0  0
 15 16  2  0  0  0
 15 17  1  0  0  0
 17 18  1  0  0  0
M  END
> <minimizedAffinity>
-7.56573

$$$$
2B9A_FBC_A_301


 18 19  0  0  0  0  0  0  0  0999 V2000
   21.4129   84.6474   57.7447 C   0  0  0  0  0  0  0  0  0  0  0  0
   20.7479   83.7678   58.5953 C   0  0  0  0  0  0  0  0  0  0  0  0
   20.7347   83.9556   59.9743 C   0  0  0  0  0  0  0  0  0  0  0  0
   22.0612   85.7540   58.3382 C   0  0  0  0  0  0  0  0  0  0  0  0
   22.0295   85.9628   59.7290 C   0  0  0  0  0  0  0  0  0  0  0  0
   21.3662   85.0467   60.5508 C   0  0  0  0  0  0  0  0  0  0  0  0
   21.7929   86.1289   53.1411 F   0  0  0  0  0  0  0  0  0  0  0  0
   21.5906   85.1389   54.0376 C   0  0  0  0  0  0  0  0  0  0  0  0
   21.3576   83.8412   53.5915 C   0  0  0  0  0  0  0  0  0  0  0  0
   21.1619   82.8198   54.5003 C   0  0  0  0  0  0  0  0  0  0  0  0
   20.9482   81.5576   54.0572 F   0  0  0  0  0  0  0  0  0  0  0  0
   21.1823   83.1062   55.8706 C   0  0  0  0  0  0  0  0  0  0  0  0
   21.6049   85.4152   55.4151 C   0  0  0  0  0  0  0  0  0  0  0  0
   21.4001   84.4017   56.3560 C   0  0  0  0  0  0  0  0  0  0  0  0
   21.3335   85.1916   62.0537 C   0  0  0  0  0  0  0  0  0  0  0  0
   21.9744   84.3715   62.7400 O   0  0  0  0  0  0  0  0  0  0  0  0
   20.6596   86.0855   62.6255 O   0  0  0  0  0  0  0  0  0  0  0  0
   20.1754   86.7052   62.1161 H   0  0  0  0  0  0  0  0  0  0  0  0
  7  8  1  0  0  0
  8  9  2  0  0  0
  8 13  1  0  0  0
  9 10  1  0  0  0
 10 11  1  0  0  0
 10 12  2  0  0  0
 12 14  1  0  0  0
 13 14  2  0  0  0
 14  1  1  0  0  0
  1  2  2  0  0  0
  1  4  1  0  0  0
  2  3  1  0  0  0
  3  6  2  0  0  0
  4  5  2  0  0  0
  5  6  1  0  0  0
  6 15  1  0  0  0
 15 16  2  0  0  0
 15 17  1  0  0  0
 17 18  1  0  0  0
M  END
> <minimizedAffinity>
-7.55953

$$$$
2B9A_FBC_A_301


 18 19  0  0  0  0  0  0  0  0999 V2000
   21.5755   84.6960   58.1614 C   0  0  0  0  0  0  0  0  0  0  0  0
   22.1946   85.8251   57.6313 C   0  0  0  0  0  0  0  0  0  0  0  0
   22.2022   86.0786   56.2627 C   0  0  0  0  0  0  0  0  0  0  0  0
   20.9358   83.8232   57.2526 C   0  0  0  0  0  0  0  0  0  0  0  0
   20.9182   84.0878   55.8711 C   0  0  0  0  0  0  0  0  0  0  0  0
   21.5670   85.2230   55.3761 C   0  0  0  0  0  0  0  0  0  0  0  0
   22.1604   81.8393   62.0383 F   0  0  0  0  0  0  0  0  0  0  0  0
   21.9012   83.0557   61.5110 C   0  0  0  0  0  0  0  0  0  0  0  0
   21.6529   84.1346   62.3544 C   0  0  0  0  0  0  0  0  0  0  0  0
   21.3989   85.3848   61.8253 C   0  0  0  0  0  0  0  0  0  0  0  0
   21.1706   86.4317   62.6541 F   0  0  0  0  0  0  0  0  0  0  0  0
   21.3759   85.5508   60.4353 C   0  0  0  0  0  0  0  0  0  0  0  0
   21.8717   83.2333   60.1176 C   0  0  0  0  0  0  0  0  0  0  0  0
   21.6076   84.4859   59.5557 C   0  0  0  0  0  0  0  0  0  0  0  0
   21.6210   85.5389   53.9004 C   0  0  0  0  0  0  0  0  0  0  0  0
   21.4231   84.6119   53.0905 O   0  0  0  0  0  0  0  0  0  0  0  0
   21.8891   86.6897   53.4715 O   0  0  0  0  0  0  0  0  0  0  0  0
   22.0390   87.3912   54.0743 H   0  0  0  0  0  0  0  0  0  0  0  0
  7  8  1  0  0  0
  8  9  2  0  0  0
  8 13  1  0  0  0
  9 10  1  0  0  0
 10 11  1  0  0  0
 10 12  2  0  0  0
 12 14  1  0  0  0
 13 14  2  0  0  0
 14  1  1  0  0  0
  1  2  2  0  0  0
  1  4  1  0  0  0
  2  3  1  0  0  0
  3  6  2  0  0  0
  4  5  2  0  0  0
  5  6  1  0  0  0
  6 15  1  0  0  0
 15 16  2  0  0  0
 15 17  1  0  0  0
 17 18  1  0  0  0
M  END
> <minimizedAffinity>
-6.87222

$$$$
2B9A_FBC_A_301


 18 19  0  0  0  0  0  0  0  0999 V2000
   21.0584   85.4619   59.3712 C   0  0  0  0  0  0  0  0  0  0  0  0
   20.2768   86.6033   59.5318 C   0  0  0  0  0  0  0  0  0  0  0  0
   20.0223   87.1426   60.7894 C   0  0  0  0  0  0  0  0  0  0  0  0
   21.6011   84.8809   60.5395 C   0  0  0  0  0  0  0  0  0  0  0  0
   21.3683   85.4366   61.8107 C   0  0  0  0  0  0  0  0  0  0  0  0
   20.5629   86.5730   61.9316 C   0  0  0  0  0  0  0  0  0  0  0  0
   23.3494   85.5057   55.0954 F   0  0  0  0  0  0  0  0  0  0  0  0
   22.4232   84.9697   55.9200 C   0  0  0  0  0  0  0  0  0  0  0  0
   21.6540   83.8937   55.4868 C   0  0  0  0  0  0  0  0  0  0  0  0
   20.7131   83.3309   56.3267 C   0  0  0  0  0  0  0  0  0  0  0  0
   19.9776   82.2758   55.9011 F   0  0  0  0  0  0  0  0  0  0  0  0
   20.5292   83.8644   57.6080 C   0  0  0  0  0  0  0  0  0  0  0  0
   22.2272   85.4993   57.2065 C   0  0  0  0  0  0  0  0  0  0  0  0
   21.2749   84.9548   58.0731 C   0  0  0  0  0  0  0  0  0  0  0  0
   20.2402   87.1908   63.2713 C   0  0  0  0  0  0  0  0  0  0  0  0
   21.1397   87.2346   64.1334 O   0  0  0  0  0  0  0  0  0  0  0  0
   19.0943   87.6269   63.5487 O   0  0  0  0  0  0  0  0  0  0  0  0
   18.4133   87.5972   62.9057 H   0  0  0  0  0  0  0  0  0  0  0  0
  7  8  1  0  0  0
  8  9  2  0  0  0
  8 13  1  0  0  0
  9 10  1  0  0  0
 10 11  1  0  0  0
 10 12  2  0  0  0
 12 14  1  0  0  0
 13 14  2  0  0  0
 14  1  1  0  0  0
  1  2  2  0  0  0
  1  4  1  0  0  0
  2  3  1  0  0  0
  3  6  2  0  0  0
  4  5  2  0  0  0
  5  6  1  0  0  0
  6 15  1  0  0  0
 15 16  2  0  0  0
 15 17  1  0  0  0
 17 18  1  0  0  0
M  END
> <minimizedAffinity>
-6.65948

$$$$
