1WCQ_DAN_A_1651


 26 26  0  0  0  0  0  0  0  0999 V2000
  -31.5020   55.2110   75.4801 C   0  0  0  0  0  0  0  0  0  0  0  0
  -32.1257   54.9923   76.7010 C   0  0  0  0  0  0  0  0  0  0  0  0
  -32.7267   56.2123   77.4212 C   0  0  0  0  0  0  0  0  0  0  0  0
  -33.1150   57.3076   76.5040 C   0  0  0  0  0  0  0  0  0  0  0  0
  -31.8982   57.6700   75.6897 C   0  0  0  0  0  0  0  0  0  0  0  0
  -33.7311   55.9161   78.4018 O   0  0  0  0  0  0  0  0  0  0  0  0
  -31.4625   56.4933   74.9593 O   0  0  0  0  0  0  0  0  0  0  0  0
  -34.5216   55.5685   77.9601 H   0  0  0  0  0  0  0  0  0  0  0  0
  -34.7967   58.8673   77.4773 C   0  0  0  0  0  0  0  0  0  0  0  0
  -34.9312   60.2555   78.1435 C   0  0  0  0  0  0  0  0  0  0  0  0
  -33.4190   58.4538   77.3630 N   0  0  0  0  0  0  0  0  0  0  0  0
  -35.3585   58.8464   76.1991 O   0  0  0  0  0  0  0  0  0  0  0  0
  -32.7052   58.9279   77.8477 H   0  0  0  0  0  0  0  0  0  0  0  0
  -30.7893   54.0556   74.7008 C   0  0  0  0  0  0  0  0  0  0  0  0
  -30.6856   52.9147   75.2388 O   0  0  0  0  0  0  0  0  0  0  0  0
  -30.3509   54.3225   73.5647 O   0  0  0  0  0  0  0  0  0  0  0  0
  -30.4546   55.1848   73.2131 H   0  0  0  0  0  0  0  0  0  0  0  0
  -32.1864   58.7324   74.6336 C   0  0  0  0  0  0  0  0  0  0  0  0
  -33.5389   58.7169   74.0824 O   0  0  0  0  0  0  0  0  0  0  0  0
  -33.6805   57.8896   73.5962 H   0  0  0  0  0  0  0  0  0  0  0  0
  -31.2632   58.5911   73.4794 C   0  0  0  0  0  0  0  0  0  0  0  0
  -29.9059   58.6282   73.9289 O   0  0  0  0  0  0  0  0  0  0  0  0
  -29.7333   59.4765   74.3665 H   0  0  0  0  0  0  0  0  0  0  0  0
  -31.5248   59.7064   72.4831 C   0  0  0  0  0  0  0  0  0  0  0  0
  -30.8304   60.7724   73.0881 O   0  0  0  0  0  0  0  0  0  0  0  0
  -31.1672   60.9086   73.9875 H   0  0  0  0  0  0  0  0  0  0  0  0
 14  1  1  0  0  0
 14 15  2  0  0  0
 14 16  1  0  0  0
  1  2  2  0  0  0
  1  7  1  0  0  0
  2  3  1  0  0  0
  3  4  1  0  0  0
  3  6  1  0  0  0
  4  5  1  0  0  0
  4 11  1  0  0  0
  5 18  1  0  0  0
  5  7  1  0  0  0
 18 21  1  0  0  0
 18 19  1  0  0  0
 21 24  1  0  0  0
 21 22  1  0  0  0
 24 25  1  0  0  0
  9 10  1  0  0  0
  9 11  1  0  0  0
  9 12  2  0  0  0
 11 13  1  0  0  0
 16 17  1  0  0  0
  6  8  1  0  0  0
 19 20  1  0  0  0
 22 23  1  0  0  0
 25 26  1  0  0  0
M  END
> <minimizedAffinity>
-8.87428

$$$$
1WCQ_DAN_A_1651


 26 26  0  0  0  0  0  0  0  0999 V2000
  -35.0249   58.7312   77.4038 C   0  0  0  0  0  0  0  0  0  0  0  0
  -35.6325   59.1606   76.2318 C   0  0  0  0  0  0  0  0  0  0  0  0
  -34.8180   59.0595   74.9299 C   0  0  0  0  0  0  0  0  0  0  0  0
  -33.7867   57.9976   74.9594 C   0  0  0  0  0  0  0  0  0  0  0  0
  -32.9103   58.2499   76.1609 C   0  0  0  0  0  0  0  0  0  0  0  0
  -35.5877   59.0635   73.7194 O   0  0  0  0  0  0  0  0  0  0  0  0
  -33.7389   58.2205   77.3527 O   0  0  0  0  0  0  0  0  0  0  0  0
  -36.1066   58.2459   73.6634 H   0  0  0  0  0  0  0  0  0  0  0  0
  -33.0808   57.2697   72.6835 C   0  0  0  0  0  0  0  0  0  0  0  0
  -31.9445   57.4322   71.6483 C   0  0  0  0  0  0  0  0  0  0  0  0
  -32.9625   58.2135   73.7685 N   0  0  0  0  0  0  0  0  0  0  0  0
  -33.1058   55.9859   73.2322 O   0  0  0  0  0  0  0  0  0  0  0  0
  -32.3465   58.9792   73.7100 H   0  0  0  0  0  0  0  0  0  0  0  0
  -35.7324   58.8619   78.7939 C   0  0  0  0  0  0  0  0  0  0  0  0
  -36.1107   57.8168   79.3994 O   0  0  0  0  0  0  0  0  0  0  0  0
  -35.8905   60.0132   79.2451 O   0  0  0  0  0  0  0  0  0  0  0  0
  -35.5910   60.7536   78.7551 H   0  0  0  0  0  0  0  0  0  0  0  0
  -31.8537   57.1680   76.3616 C   0  0  0  0  0  0  0  0  0  0  0  0
  -31.0525   56.8486   75.1829 O   0  0  0  0  0  0  0  0  0  0  0  0
  -31.6229   56.4649   74.4985 H   0  0  0  0  0  0  0  0  0  0  0  0
  -32.4807   55.8948   76.7981 C   0  0  0  0  0  0  0  0  0  0  0  0
  -32.5848   55.8624   78.2242 O   0  0  0  0  0  0  0  0  0  0  0  0
  -31.6991   55.9260   78.6146 H   0  0  0  0  0  0  0  0  0  0  0  0
  -31.6515   54.7254   76.2981 C   0  0  0  0  0  0  0  0  0  0  0  0
  -32.5798   54.0810   75.4569 O   0  0  0  0  0  0  0  0  0  0  0  0
  -33.3767   53.8602   75.9640 H   0  0  0  0  0  0  0  0  0  0  0  0
 14  1  1  0  0  0
 14 15  2  0  0  0
 14 16  1  0  0  0
  1  2  2  0  0  0
  1  7  1  0  0  0
  2  3  1  0  0  0
  3  4  1  0  0  0
  3  6  1  0  0  0
  4  5  1  0  0  0
  4 11  1  0  0  0
  5 18  1  0  0  0
  5  7  1  0  0  0
 18 21  1  0  0  0
 18 19  1  0  0  0
 21 24  1  0  0  0
 21 22  1  0  0  0
 24 25  1  0  0  0
  9 10  1  0  0  0
  9 11  1  0  0  0
  9 12  2  0  0  0
 11 13  1  0  0  0
 16 17  1  0  0  0
  6  8  1  0  0  0
 19 20  1  0  0  0
 22 23  1  0  0  0
 25 26  1  0  0  0
M  END
> <minimizedAffinity>
-7.08030

$$$$
1WCQ_DAN_A_1651


 26 26  0  0  0  0  0  0  0  0999 V2000
  -35.6313   58.6851   77.5156 C   0  0  0  0  0  0  0  0  0  0  0  0
  -36.6025   59.2683   76.7131 C   0  0  0  0  0  0  0  0  0  0  0  0
  -36.2662   59.4741   75.2254 C   0  0  0  0  0  0  0  0  0  0  0  0
  -35.2647   58.5144   74.7080 C   0  0  0  0  0  0  0  0  0  0  0  0
  -34.0430   58.6161   75.5869 C   0  0  0  0  0  0  0  0  0  0  0  0
  -37.3951   59.6341   74.3548 O   0  0  0  0  0  0  0  0  0  0  0  0
  -34.4266   58.3013   76.9512 O   0  0  0  0  0  0  0  0  0  0  0  0
  -37.8879   58.7999   74.3076 H   0  0  0  0  0  0  0  0  0  0  0  0
  -35.4920   58.3885   72.2300 C   0  0  0  0  0  0  0  0  0  0  0  0
  -34.7778   58.7844   70.9176 C   0  0  0  0  0  0  0  0  0  0  0  0
  -34.8882   59.0114   73.3831 N   0  0  0  0  0  0  0  0  0  0  0  0
  -35.4803   57.0070   72.4330 O   0  0  0  0  0  0  0  0  0  0  0  0
  -34.2429   59.7480   73.2821 H   0  0  0  0  0  0  0  0  0  0  0  0
  -35.8378   58.5011   79.0563 C   0  0  0  0  0  0  0  0  0  0  0  0
  -35.8230   59.5171   79.8110 O   0  0  0  0  0  0  0  0  0  0  0  0
  -36.0109   57.3385   79.4716 O   0  0  0  0  0  0  0  0  0  0  0  0
  -36.0128   56.6211   78.8689 H   0  0  0  0  0  0  0  0  0  0  0  0
  -32.9601   57.6078   75.2157 C   0  0  0  0  0  0  0  0  0  0  0  0
  -33.3585   56.5881   74.2487 O   0  0  0  0  0  0  0  0  0  0  0  0
  -34.0482   56.0269   74.6363 H   0  0  0  0  0  0  0  0  0  0  0  0
  -32.4848   56.8793   76.4190 C   0  0  0  0  0  0  0  0  0  0  0  0
  -31.6237   57.7190   77.1931 O   0  0  0  0  0  0  0  0  0  0  0  0
  -30.8562   57.9757   76.6583 H   0  0  0  0  0  0  0  0  0  0  0  0
  -31.7552   55.6184   75.9914 C   0  0  0  0  0  0  0  0  0  0  0  0
  -30.6559   56.1673   75.3024 O   0  0  0  0  0  0  0  0  0  0  0  0
  -30.9754   56.7440   74.5909 H   0  0  0  0  0  0  0  0  0  0  0  0
 14  1  1  0  0  0
 14 15  2  0  0  0
 14 16  1  0  0  0
  1  2  2  0  0  0
  1  7  1  0  0  0
  2  3  1  0  0  0
  3  4  1  0  0  0
  3  6  1  0  0  0
  4  5  1  0  0  0
  4 11  1  0  0  0
  5 18  1  0  0  0
  5  7  1  0  0  0
 18 21  1  0  0  0
 18 19  1  0  0  0
 21 24  1  0  0  0
 21 22  1  0  0  0
 24 25  1  0  0  0
  9 10  1  0  0  0
  9 11  1  0  0  0
  9 12  2  0  0  0
 11 13  1  0  0  0
 16 17  1  0  0  0
  6  8  1  0  0  0
 19 20  1  0  0  0
 22 23  1  0  0  0
 25 26  1  0  0  0
M  END
> <minimizedAffinity>
-7.07689

$$$$
1WCQ_DAN_A_1651


 26 26  0  0  0  0  0  0  0  0999 V2000
  -34.9681   59.1988   77.0869 C   0  0  0  0  0  0  0  0  0  0  0  0
  -34.7622   58.1088   77.9216 C   0  0  0  0  0  0  0  0  0  0  0  0
  -34.0150   56.8968   77.3373 C   0  0  0  0  0  0  0  0  0  0  0  0
  -33.0975   57.2466   76.2293 C   0  0  0  0  0  0  0  0  0  0  0  0
  -33.9055   57.9747   75.1842 C   0  0  0  0  0  0  0  0  0  0  0  0
  -33.4232   56.0144   78.3013 O   0  0  0  0  0  0  0  0  0  0  0  0
  -34.4850   59.1601   75.7899 O   0  0  0  0  0  0  0  0  0  0  0  0
  -32.6930   56.4687   78.7501 H   0  0  0  0  0  0  0  0  0  0  0  0
  -31.3085   55.5606   75.8230 C   0  0  0  0  0  0  0  0  0  0  0  0
  -30.9323   54.3793   74.8999 C   0  0  0  0  0  0  0  0  0  0  0  0
  -32.6802   55.9710   75.6437 N   0  0  0  0  0  0  0  0  0  0  0  0
  -30.4951   56.6739   75.6019 O   0  0  0  0  0  0  0  0  0  0  0  0
  -33.3161   55.4105   75.1430 H   0  0  0  0  0  0  0  0  0  0  0  0
  -35.7838   60.4507   77.5534 C   0  0  0  0  0  0  0  0  0  0  0  0
  -35.3179   61.1902   78.4689 O   0  0  0  0  0  0  0  0  0  0  0  0
  -36.8743   60.6617   76.9873 O   0  0  0  0  0  0  0  0  0  0  0  0
  -37.1728   60.0819   76.3145 H   0  0  0  0  0  0  0  0  0  0  0  0
  -33.0560   58.4748   74.0201 C   0  0  0  0  0  0  0  0  0  0  0  0
  -33.1436   59.9077   73.7509 O   0  0  0  0  0  0  0  0  0  0  0  0
  -34.0445   60.1290   73.4676 H   0  0  0  0  0  0  0  0  0  0  0  0
  -33.4354   57.7889   72.7591 C   0  0  0  0  0  0  0  0  0  0  0  0
  -34.4401   56.8046   73.0186 O   0  0  0  0  0  0  0  0  0  0  0  0
  -34.0947   56.1466   73.6420 H   0  0  0  0  0  0  0  0  0  0  0  0
  -32.2057   57.1451   72.1439 C   0  0  0  0  0  0  0  0  0  0  0  0
  -31.1995   57.6055   73.0158 O   0  0  0  0  0  0  0  0  0  0  0  0
  -31.2127   58.5751   73.0414 H   0  0  0  0  0  0  0  0  0  0  0  0
 14  1  1  0  0  0
 14 15  2  0  0  0
 14 16  1  0  0  0
  1  2  2  0  0  0
  1  7  1  0  0  0
  2  3  1  0  0  0
  3  4  1  0  0  0
  3  6  1  0  0  0
  4  5  1  0  0  0
  4 11  1  0  0  0
  5 18  1  0  0  0
  5  7  1  0  0  0
 18 21  1  0  0  0
 18 19  1  0  0  0
 21 24  1  0  0  0
 21 22  1  0  0  0
 24 25  1  0  0  0
  9 10  1  0  0  0
  9 11  1  0  0  0
  9 12  2  0  0  0
 11 13  1  0  0  0
 16 17  1  0  0  0
  6  8  1  0  0  0
 19 20  1  0  0  0
 22 23  1  0  0  0
 25 26  1  0  0  0
M  END
> <minimizedAffinity>
-6.46354

$$$$
1WCQ_DAN_A_1651


 26 26  0  0  0  0  0  0  0  0999 V2000
  -32.6119   56.3989   75.9786 C   0  0  0  0  0  0  0  0  0  0  0  0
  -31.9153   56.2088   74.7929 C   0  0  0  0  0  0  0  0  0  0  0  0
  -32.3029   57.0889   73.5913 C   0  0  0  0  0  0  0  0  0  0  0  0
  -32.8925   58.3906   73.9785 C   0  0  0  0  0  0  0  0  0  0  0  0
  -34.0691   58.1058   74.8783 C   0  0  0  0  0  0  0  0  0  0  0  0
  -31.3069   57.2046   72.5654 O   0  0  0  0  0  0  0  0  0  0  0  0
  -33.5981   57.3690   76.0372 O   0  0  0  0  0  0  0  0  0  0  0  0
  -30.5472   57.7018   72.9068 H   0  0  0  0  0  0  0  0  0  0  0  0
  -32.4862   59.5557   71.8138 C   0  0  0  0  0  0  0  0  0  0  0  0
  -33.1968   60.3959   70.7284 C   0  0  0  0  0  0  0  0  0  0  0  0
  -33.4223   58.9683   72.7417 N   0  0  0  0  0  0  0  0  0  0  0  0
  -31.5746   60.3171   72.5481 O   0  0  0  0  0  0  0  0  0  0  0  0
  -34.3877   58.9564   72.5491 H   0  0  0  0  0  0  0  0  0  0  0  0
  -32.3532   55.5059   77.2379 C   0  0  0  0  0  0  0  0  0  0  0  0
  -32.4193   54.2465   77.1308 O   0  0  0  0  0  0  0  0  0  0  0  0
  -32.0888   56.0923   78.3057 O   0  0  0  0  0  0  0  0  0  0  0  0
  -32.0524   57.0283   78.3297 H   0  0  0  0  0  0  0  0  0  0  0  0
  -34.7171   59.3735   75.4260 C   0  0  0  0  0  0  0  0  0  0  0  0
  -33.8514   60.2141   76.2490 O   0  0  0  0  0  0  0  0  0  0  0  0
  -33.6070   59.7343   77.0558 H   0  0  0  0  0  0  0  0  0  0  0  0
  -35.8967   59.0415   76.2644 C   0  0  0  0  0  0  0  0  0  0  0  0
  -37.0807   59.6017   75.6900 O   0  0  0  0  0  0  0  0  0  0  0  0
  -36.9915   60.5664   75.6421 H   0  0  0  0  0  0  0  0  0  0  0  0
  -35.6837   59.5736   77.6703 C   0  0  0  0  0  0  0  0  0  0  0  0
  -35.0023   58.4929   78.2639 O   0  0  0  0  0  0  0  0  0  0  0  0
  -35.5386   57.6887   78.1828 H   0  0  0  0  0  0  0  0  0  0  0  0
 14  1  1  0  0  0
 14 15  2  0  0  0
 14 16  1  0  0  0
  1  2  2  0  0  0
  1  7  1  0  0  0
  2  3  1  0  0  0
  3  4  1  0  0  0
  3  6  1  0  0  0
  4  5  1  0  0  0
  4 11  1  0  0  0
  5 18  1  0  0  0
  5  7  1  0  0  0
 18 21  1  0  0  0
 18 19  1  0  0  0
 21 24  1  0  0  0
 21 22  1  0  0  0
 24 25  1  0  0  0
  9 10  1  0  0  0
  9 11  1  0  0  0
  9 12  2  0  0  0
 11 13  1  0  0  0
 16 17  1  0  0  0
  6  8  1  0  0  0
 19 20  1  0  0  0
 22 23  1  0  0  0
 25 26  1  0  0  0
M  END
> <minimizedAffinity>
-6.37987

$$$$
1WCQ_DAN_A_1651


 26 26  0  0  0  0  0  0  0  0999 V2000
  -32.6776   56.6623   76.3298 C   0  0  0  0  0  0  0  0  0  0  0  0
  -33.0831   57.9484   76.0000 C   0  0  0  0  0  0  0  0  0  0  0  0
  -33.0201   58.3557   74.5172 C   0  0  0  0  0  0  0  0  0  0  0  0
  -33.1359   57.2115   73.5849 C   0  0  0  0  0  0  0  0  0  0  0  0
  -32.0594   56.2195   73.9487 C   0  0  0  0  0  0  0  0  0  0  0  0
  -33.8465   59.4688   74.1481 O   0  0  0  0  0  0  0  0  0  0  0  0
  -32.2574   55.8059   75.3263 O   0  0  0  0  0  0  0  0  0  0  0  0
  -34.7803   59.2157   74.2191 H   0  0  0  0  0  0  0  0  0  0  0  0
  -33.8645   57.8405   71.2868 C   0  0  0  0  0  0  0  0  0  0  0  0
  -33.3205   58.1101   69.8653 C   0  0  0  0  0  0  0  0  0  0  0  0
  -32.8051   57.7443   72.2617 N   0  0  0  0  0  0  0  0  0  0  0  0
  -34.6092   56.6607   71.3444 O   0  0  0  0  0  0  0  0  0  0  0  0
  -31.8879   58.0283   72.0439 H   0  0  0  0  0  0  0  0  0  0  0  0
  -32.6268   56.1703   77.8149 C   0  0  0  0  0  0  0  0  0  0  0  0
  -33.6514   55.6310   78.3263 O   0  0  0  0  0  0  0  0  0  0  0  0
  -31.5568   56.3370   78.4325 O   0  0  0  0  0  0  0  0  0  0  0  0
  -30.8278   56.7424   78.0057 H   0  0  0  0  0  0  0  0  0  0  0  0
  -32.1247   54.9423   73.1171 C   0  0  0  0  0  0  0  0  0  0  0  0
  -33.4686   54.4946   72.7611 O   0  0  0  0  0  0  0  0  0  0  0  0
  -33.9516   54.2496   73.5658 H   0  0  0  0  0  0  0  0  0  0  0  0
  -31.4850   53.8123   73.8372 C   0  0  0  0  0  0  0  0  0  0  0  0
  -30.1069   54.1047   74.0843 O   0  0  0  0  0  0  0  0  0  0  0  0
  -29.6483   54.2386   73.2401 H   0  0  0  0  0  0  0  0  0  0  0  0
  -31.6207   52.5452   73.0120 C   0  0  0  0  0  0  0  0  0  0  0  0
  -32.4343   51.7636   73.8556 O   0  0  0  0  0  0  0  0  0  0  0  0
  -32.0076   51.6716   74.7219 H   0  0  0  0  0  0  0  0  0  0  0  0
 14  1  1  0  0  0
 14 15  2  0  0  0
 14 16  1  0  0  0
  1  2  2  0  0  0
  1  7  1  0  0  0
  2  3  1  0  0  0
  3  4  1  0  0  0
  3  6  1  0  0  0
  4  5  1  0  0  0
  4 11  1  0  0  0
  5 18  1  0  0  0
  5  7  1  0  0  0
 18 21  1  0  0  0
 18 19  1  0  0  0
 21 24  1  0  0  0
 21 22  1  0  0  0
 24 25  1  0  0  0
  9 10  1  0  0  0
  9 11  1  0  0  0
  9 12  2  0  0  0
 11 13  1  0  0  0
 16 17  1  0  0  0
  6  8  1  0  0  0
 19 20  1  0  0  0
 22 23  1  0  0  0
 25 26  1  0  0  0
M  END
> <minimizedAffinity>
-6.18372

$$$$
1WCQ_DAN_A_1651


 26 26  0  0  0  0  0  0  0  0999 V2000
  -32.2483   55.5442   75.8967 C   0  0  0  0  0  0  0  0  0  0  0  0
  -32.0094   54.1847   75.7487 C   0  0  0  0  0  0  0  0  0  0  0  0
  -32.1129   53.5945   74.3312 C   0  0  0  0  0  0  0  0  0  0  0  0
  -31.8433   54.5802   73.2599 C   0  0  0  0  0  0  0  0  0  0  0  0
  -32.7856   55.7403   73.4635 C   0  0  0  0  0  0  0  0  0  0  0  0
  -31.4341   52.3465   74.1321 O   0  0  0  0  0  0  0  0  0  0  0  0
  -32.5467   56.3054   74.7792 O   0  0  0  0  0  0  0  0  0  0  0  0
  -30.4761   52.4863   74.1924 H   0  0  0  0  0  0  0  0  0  0  0  0
  -31.2146   53.1960   71.2858 C   0  0  0  0  0  0  0  0  0  0  0  0
  -31.6730   52.8318   69.8553 C   0  0  0  0  0  0  0  0  0  0  0  0
  -32.2297   53.9218   72.0103 N   0  0  0  0  0  0  0  0  0  0  0  0
  -30.0541   53.9725   71.2791 O   0  0  0  0  0  0  0  0  0  0  0  0
  -33.1538   53.9729   71.6747 H   0  0  0  0  0  0  0  0  0  0  0  0
  -32.2467   56.2324   77.3026 C   0  0  0  0  0  0  0  0  0  0  0  0
  -33.0720   55.8499   78.1826 O   0  0  0  0  0  0  0  0  0  0  0  0
  -31.4144   57.1416   77.4893 O   0  0  0  0  0  0  0  0  0  0  0  0
  -30.8255   57.3859   76.8026 H   0  0  0  0  0  0  0  0  0  0  0  0
  -32.5498   56.8764   72.4732 C   0  0  0  0  0  0  0  0  0  0  0  0
  -31.4180   56.6937   71.5682 O   0  0  0  0  0  0  0  0  0  0  0  0
  -30.5938   56.6822   72.0794 H   0  0  0  0  0  0  0  0  0  0  0  0
  -32.3110   58.1559   73.1876 C   0  0  0  0  0  0  0  0  0  0  0  0
  -33.5573   58.7484   73.5635 O   0  0  0  0  0  0  0  0  0  0  0  0
  -34.0835   58.9266   72.7683 H   0  0  0  0  0  0  0  0  0  0  0  0
  -31.5233   59.0956   72.2923 C   0  0  0  0  0  0  0  0  0  0  0  0
  -30.2172   58.8975   72.7818 O   0  0  0  0  0  0  0  0  0  0  0  0
  -30.1960   59.0876   73.7327 H   0  0  0  0  0  0  0  0  0  0  0  0
 14  1  1  0  0  0
 14 15  2  0  0  0
 14 16  1  0  0  0
  1  2  2  0  0  0
  1  7  1  0  0  0
  2  3  1  0  0  0
  3  4  1  0  0  0
  3  6  1  0  0  0
  4  5  1  0  0  0
  4 11  1  0  0  0
  5 18  1  0  0  0
  5  7  1  0  0  0
 18 21  1  0  0  0
 18 19  1  0  0  0
 21 24  1  0  0  0
 21 22  1  0  0  0
 24 25  1  0  0  0
  9 10  1  0  0  0
  9 11  1  0  0  0
  9 12  2  0  0  0
 11 13  1  0  0  0
 16 17  1  0  0  0
  6  8  1  0  0  0
 19 20  1  0  0  0
 22 23  1  0  0  0
 25 26  1  0  0  0
M  END
> <minimizedAffinity>
-6.09500

$$$$
1WCQ_DAN_A_1651


 26 26  0  0  0  0  0  0  0  0999 V2000
  -34.9781   58.7980   73.1664 C   0  0  0  0  0  0  0  0  0  0  0  0
  -36.2307   59.1520   73.6493 C   0  0  0  0  0  0  0  0  0  0  0  0
  -36.4692   59.0301   75.1648 C   0  0  0  0  0  0  0  0  0  0  0  0
  -35.2324   59.1531   75.9692 C   0  0  0  0  0  0  0  0  0  0  0  0
  -34.2568   58.1206   75.4618 C   0  0  0  0  0  0  0  0  0  0  0  0
  -37.5573   59.8089   75.6821 O   0  0  0  0  0  0  0  0  0  0  0  0
  -34.0043   58.3742   74.0548 O   0  0  0  0  0  0  0  0  0  0  0  0
  -37.3400   60.7519   75.6159 H   0  0  0  0  0  0  0  0  0  0  0  0
  -35.7910   59.8116   78.3064 C   0  0  0  0  0  0  0  0  0  0  0  0
  -35.8645   59.2546   79.7463 C   0  0  0  0  0  0  0  0  0  0  0  0
  -35.6057   58.7647   77.3307 N   0  0  0  0  0  0  0  0  0  0  0  0
  -34.7488   60.7285   78.1551 O   0  0  0  0  0  0  0  0  0  0  0  0
  -35.7266   57.8182   77.5731 H   0  0  0  0  0  0  0  0  0  0  0  0
  -34.6525   58.8090   71.6354 C   0  0  0  0  0  0  0  0  0  0  0  0
  -34.1675   57.7720   71.0957 O   0  0  0  0  0  0  0  0  0  0  0  0
  -34.8930   59.8608   71.0109 O   0  0  0  0  0  0  0  0  0  0  0  0
  -35.2527   60.6005   71.4598 H   0  0  0  0  0  0  0  0  0  0  0  0
  -32.8977   58.2006   76.1498 C   0  0  0  0  0  0  0  0  0  0  0  0
  -31.8044   58.7012   75.3207 O   0  0  0  0  0  0  0  0  0  0  0  0
  -31.6391   58.0801   74.5942 H   0  0  0  0  0  0  0  0  0  0  0  0
  -32.4746   56.8630   76.6360 C   0  0  0  0  0  0  0  0  0  0  0  0
  -31.5806   57.0033   77.7435 O   0  0  0  0  0  0  0  0  0  0  0  0
  -30.7947   57.4984   77.4640 H   0  0  0  0  0  0  0  0  0  0  0  0
  -31.8060   56.1020   75.5051 C   0  0  0  0  0  0  0  0  0  0  0  0
  -30.4512   56.4054   75.7443 O   0  0  0  0  0  0  0  0  0  0  0  0
  -30.3312   57.3680   75.7478 H   0  0  0  0  0  0  0  0  0  0  0  0
 14  1  1  0  0  0
 14 15  2  0  0  0
 14 16  1  0  0  0
  1  2  2  0  0  0
  1  7  1  0  0  0
  2  3  1  0  0  0
  3  4  1  0  0  0
  3  6  1  0  0  0
  4  5  1  0  0  0
  4 11  1  0  0  0
  5 18  1  0  0  0
  5  7  1  0  0  0
 18 21  1  0  0  0
 18 19  1  0  0  0
 21 24  1  0  0  0
 21 22  1  0  0  0
 24 25  1  0  0  0
  9 10  1  0  0  0
  9 11  1  0  0  0
  9 12  2  0  0  0
 11 13  1  0  0  0
 16 17  1  0  0  0
  6  8  1  0  0  0
 19 20  1  0  0  0
 22 23  1  0  0  0
 25 26  1  0  0  0
M  END
> <minimizedAffinity>
-6.07436

$$$$
1WCQ_DAN_A_1651


 26 26  0  0  0  0  0  0  0  0999 V2000
  -30.8869   58.7913   70.4992 C   0  0  0  0  0  0  0  0  0  0  0  0
  -32.1403   59.1890   70.0538 C   0  0  0  0  0  0  0  0  0  0  0  0
  -33.3282   59.0041   71.0147 C   0  0  0  0  0  0  0  0  0  0  0  0
  -32.9400   59.0182   72.4433 C   0  0  0  0  0  0  0  0  0  0  0  0
  -31.8822   57.9605   72.6362 C   0  0  0  0  0  0  0  0  0  0  0  0
  -34.4785   59.8146   70.7356 O   0  0  0  0  0  0  0  0  0  0  0  0
  -30.7550   58.2704   71.7753 O   0  0  0  0  0  0  0  0  0  0  0  0
  -34.2653   60.7464   70.9004 H   0  0  0  0  0  0  0  0  0  0  0  0
  -34.6315   59.4446   74.2224 C   0  0  0  0  0  0  0  0  0  0  0  0
  -35.6717   58.7285   75.1137 C   0  0  0  0  0  0  0  0  0  0  0  0
  -34.1280   58.5828   73.1803 N   0  0  0  0  0  0  0  0  0  0  0  0
  -33.5408   59.9056   74.9624 O   0  0  0  0  0  0  0  0  0  0  0  0
  -34.5698   57.7282   72.9712 H   0  0  0  0  0  0  0  0  0  0  0  0
  -29.6246   58.8616   69.5764 C   0  0  0  0  0  0  0  0  0  0  0  0
  -29.7438   59.2914   68.3919 O   0  0  0  0  0  0  0  0  0  0  0  0
  -28.5418   58.4834   70.0649 O   0  0  0  0  0  0  0  0  0  0  0  0
  -28.5093   58.1737   70.9487 H   0  0  0  0  0  0  0  0  0  0  0  0
  -31.3256   57.9307   74.0562 C   0  0  0  0  0  0  0  0  0  0  0  0
  -29.9226   58.3150   74.1873 O   0  0  0  0  0  0  0  0  0  0  0  0
  -29.3657   57.6680   73.7268 H   0  0  0  0  0  0  0  0  0  0  0  0
  -31.4422   56.5699   74.6386 C   0  0  0  0  0  0  0  0  0  0  0  0
  -32.7266   56.0163   74.3398 O   0  0  0  0  0  0  0  0  0  0  0  0
  -33.4182   56.5804   74.7197 H   0  0  0  0  0  0  0  0  0  0  0  0
  -31.2300   56.6426   76.1402 C   0  0  0  0  0  0  0  0  0  0  0  0
  -31.6071   57.9752   76.3983 O   0  0  0  0  0  0  0  0  0  0  0  0
  -31.0698   58.5740   75.8565 H   0  0  0  0  0  0  0  0  0  0  0  0
 14  1  1  0  0  0
 14 15  2  0  0  0
 14 16  1  0  0  0
  1  2  2  0  0  0
  1  7  1  0  0  0
  2  3  1  0  0  0
  3  4  1  0  0  0
  3  6  1  0  0  0
  4  5  1  0  0  0
  4 11  1  0  0  0
  5 18  1  0  0  0
  5  7  1  0  0  0
 18 21  1  0  0  0
 18 19  1  0  0  0
 21 24  1  0  0  0
 21 22  1  0  0  0
 24 25  1  0  0  0
  9 10  1  0  0  0
  9 11  1  0  0  0
  9 12  2  0  0  0
 11 13  1  0  0  0
 16 17  1  0  0  0
  6  8  1  0  0  0
 19 20  1  0  0  0
 22 23  1  0  0  0
 25 26  1  0  0  0
M  END
> <minimizedAffinity>
-5.87736

$$$$
