2VMF_MVL_A_1865


 18 19  0  0  0  0  0  0  0  0999 V2000
   27.5937   45.8272   -1.9895 C   0  0  0  0  0  0  0  0  0  0  0  0
   27.0490   46.9345   -2.4606 N   0  0  0  0  0  0  0  0  0  0  0  0
   28.0485   46.7569    0.2309 C   0  0  0  0  0  0  0  0  0  0  0  0
   27.6450   48.0974   -0.4501 C   0  0  0  0  0  0  0  0  0  0  0  0
   26.5585   47.9450   -1.5118 C   0  0  0  0  0  0  0  0  0  0  0  0
   27.8510   45.8798   -4.1613 C   0  0  0  0  0  0  0  0  0  0  0  0
   27.3022   47.0593   -3.7979 C   0  0  0  0  0  0  0  0  0  0  0  0
   28.0674   45.1509   -3.0451 N   0  0  0  0  0  0  0  0  0  0  0  0
   29.4687   46.7013    0.3607 O   0  0  0  0  0  0  0  0  0  0  0  0
   28.4200   44.3589   -0.2763 O   0  0  0  0  0  0  0  0  0  0  0  0
   27.1844   49.0633    0.5073 O   0  0  0  0  0  0  0  0  0  0  0  0
   27.6028   45.4961   -0.5360 C   0  0  0  0  0  0  0  0  0  0  0  0
   29.8745   46.7080   -0.5203 H   0  0  0  0  0  0  0  0  0  0  0  0
   28.0909   43.6013   -0.7850 H   0  0  0  0  0  0  0  0  0  0  0  0
   26.3707   48.7412    0.9257 H   0  0  0  0  0  0  0  0  0  0  0  0
   26.1152   49.2488   -2.1778 C   0  0  0  0  0  0  0  0  0  0  0  0
   26.9900   49.6125   -3.2351 O   0  0  0  0  0  0  0  0  0  0  0  0
   27.8837   49.7480   -2.8832 H   0  0  0  0  0  0  0  0  0  0  0  0
  1  2  1  0  0  0
  1  8  2  0  0  0
  1 12  1  0  0  0
  2  5  1  0  0  0
  2  7  1  0  0  0
  3  4  1  0  0  0
  3  9  1  0  0  0
  3 12  1  0  0  0
  4  5  1  0  0  0
  4 11  1  0  0  0
  5 16  1  0  0  0
 16 17  1  0  0  0
  6  7  2  0  0  0
  6  8  1  0  0  0
 10 12  1  0  0  0
  9 13  1  0  0  0
 10 14  1  0  0  0
 11 15  1  0  0  0
 17 18  1  0  0  0
M  END
> <minimizedAffinity>
-8.63518

$$$$
2VMF_MVL_A_1865


 18 19  0  0  0  0  0  0  0  0999 V2000
   27.9872   48.0571   -2.9774 C   0  0  0  0  0  0  0  0  0  0  0  0
   27.3611   47.3041   -2.0908 N   0  0  0  0  0  0  0  0  0  0  0  0
   30.2222   47.6022   -2.0835 C   0  0  0  0  0  0  0  0  0  0  0  0
   29.4224   46.9503   -0.9178 C   0  0  0  0  0  0  0  0  0  0  0  0
   28.1244   46.2803   -1.3621 C   0  0  0  0  0  0  0  0  0  0  0  0
   25.9514   48.8124   -2.7117 C   0  0  0  0  0  0  0  0  0  0  0  0
   26.1289   47.8238   -1.8086 C   0  0  0  0  0  0  0  0  0  0  0  0
   27.1067   48.9787   -3.3912 N   0  0  0  0  0  0  0  0  0  0  0  0
   30.7101   48.8772   -1.6672 O   0  0  0  0  0  0  0  0  0  0  0  0
   29.8961   48.8793   -4.1831 O   0  0  0  0  0  0  0  0  0  0  0  0
   30.2028   45.9667   -0.2215 O   0  0  0  0  0  0  0  0  0  0  0  0
   29.4043   47.8164   -3.3725 C   0  0  0  0  0  0  0  0  0  0  0  0
   29.9612   49.4620   -1.4721 H   0  0  0  0  0  0  0  0  0  0  0  0
   29.3428   48.9643   -4.9753 H   0  0  0  0  0  0  0  0  0  0  0  0
   30.4100   45.2338   -0.8222 H   0  0  0  0  0  0  0  0  0  0  0  0
   27.3300   45.6010   -0.2452 C   0  0  0  0  0  0  0  0  0  0  0  0
   28.0000   44.4457    0.2365 O   0  0  0  0  0  0  0  0  0  0  0  0
   28.1023   43.8065   -0.4859 H   0  0  0  0  0  0  0  0  0  0  0  0
  1  2  1  0  0  0
  1  8  2  0  0  0
  1 12  1  0  0  0
  2  5  1  0  0  0
  2  7  1  0  0  0
  3  4  1  0  0  0
  3  9  1  0  0  0
  3 12  1  0  0  0
  4  5  1  0  0  0
  4 11  1  0  0  0
  5 16  1  0  0  0
 16 17  1  0  0  0
  6  7  2  0  0  0
  6  8  1  0  0  0
 10 12  1  0  0  0
  9 13  1  0  0  0
 10 14  1  0  0  0
 11 15  1  0  0  0
 17 18  1  0  0  0
M  END
> <minimizedAffinity>
-8.30916

$$$$
2VMF_MVL_A_1865


 18 19  0  0  0  0  0  0  0  0999 V2000
   29.0480   46.1891   -3.8426 C   0  0  0  0  0  0  0  0  0  0  0  0
   30.0713   46.9924   -4.0721 N   0  0  0  0  0  0  0  0  0  0  0  0
   28.9613   46.6569   -1.4395 C   0  0  0  0  0  0  0  0  0  0  0  0
   30.3143   47.3750   -1.7174 C   0  0  0  0  0  0  0  0  0  0  0  0
   30.3869   48.0400   -3.0898 C   0  0  0  0  0  0  0  0  0  0  0  0
   30.1343   45.4748   -5.6019 C   0  0  0  0  0  0  0  0  0  0  0  0
   30.8432   46.5035   -5.0884 C   0  0  0  0  0  0  0  0  0  0  0  0
   29.0626   45.2603   -4.8086 N   0  0  0  0  0  0  0  0  0  0  0  0
   29.2137   45.3971   -0.8179 O   0  0  0  0  0  0  0  0  0  0  0  0
   27.2282   45.2841   -2.5609 O   0  0  0  0  0  0  0  0  0  0  0  0
   30.5954   48.3807   -0.7320 O   0  0  0  0  0  0  0  0  0  0  0  0
   28.1133   46.3914   -2.6991 C   0  0  0  0  0  0  0  0  0  0  0  0
   29.7178   44.8325   -1.4245 H   0  0  0  0  0  0  0  0  0  0  0  0
   26.7247   45.1682   -3.3818 H   0  0  0  0  0  0  0  0  0  0  0  0
   29.9261   49.0808   -0.7844 H   0  0  0  0  0  0  0  0  0  0  0  0
   31.6915   48.7831   -3.3822 C   0  0  0  0  0  0  0  0  0  0  0  0
   31.8142   49.9475   -2.5792 O   0  0  0  0  0  0  0  0  0  0  0  0
   31.0795   50.5512   -2.7708 H   0  0  0  0  0  0  0  0  0  0  0  0
  1  2  1  0  0  0
  1  8  2  0  0  0
  1 12  1  0  0  0
  2  5  1  0  0  0
  2  7  1  0  0  0
  3  4  1  0  0  0
  3  9  1  0  0  0
  3 12  1  0  0  0
  4  5  1  0  0  0
  4 11  1  0  0  0
  5 16  1  0  0  0
 16 17  1  0  0  0
  6  7  2  0  0  0
  6  8  1  0  0  0
 10 12  1  0  0  0
  9 13  1  0  0  0
 10 14  1  0  0  0
 11 15  1  0  0  0
 17 18  1  0  0  0
M  END
> <minimizedAffinity>
-8.22065

$$$$
2VMF_MVL_A_1865


 18 19  0  0  0  0  0  0  0  0999 V2000
   30.6855   47.9554   -3.3220 C   0  0  0  0  0  0  0  0  0  0  0  0
   30.4075   47.2071   -4.3744 N   0  0  0  0  0  0  0  0  0  0  0  0
   28.8759   47.0442   -1.9449 C   0  0  0  0  0  0  0  0  0  0  0  0
   28.4343   46.3879   -3.2857 C   0  0  0  0  0  0  0  0  0  0  0  0
   29.5994   45.9927   -4.1898 C   0  0  0  0  0  0  0  0  0  0  0  0
   31.3655   48.9852   -5.1282 C   0  0  0  0  0  0  0  0  0  0  0  0
   30.7056   47.8766   -5.5281 C   0  0  0  0  0  0  0  0  0  0  0  0
   31.3095   49.0493   -3.7804 N   0  0  0  0  0  0  0  0  0  0  0  0
   28.0356   48.1640   -1.6674 O   0  0  0  0  0  0  0  0  0  0  0  0
   30.5589   48.6077   -1.0128 O   0  0  0  0  0  0  0  0  0  0  0  0
   27.6370   45.2141   -3.0666 O   0  0  0  0  0  0  0  0  0  0  0  0
   30.3341   47.5440   -1.9329 C   0  0  0  0  0  0  0  0  0  0  0  0
   28.1462   48.8314   -2.3626 H   0  0  0  0  0  0  0  0  0  0  0  0
   31.4900   48.8771   -1.0513 H   0  0  0  0  0  0  0  0  0  0  0  0
   28.1721   44.5380   -2.6223 H   0  0  0  0  0  0  0  0  0  0  0  0
   29.2011   45.3147   -5.5018 C   0  0  0  0  0  0  0  0  0  0  0  0
   29.2027   43.9007   -5.3741 O   0  0  0  0  0  0  0  0  0  0  0  0
   30.0947   43.5980   -5.1426 H   0  0  0  0  0  0  0  0  0  0  0  0
  1  2  1  0  0  0
  1  8  2  0  0  0
  1 12  1  0  0  0
  2  5  1  0  0  0
  2  7  1  0  0  0
  3  4  1  0  0  0
  3  9  1  0  0  0
  3 12  1  0  0  0
  4  5  1  0  0  0
  4 11  1  0  0  0
  5 16  1  0  0  0
 16 17  1  0  0  0
  6  7  2  0  0  0
  6  8  1  0  0  0
 10 12  1  0  0  0
  9 13  1  0  0  0
 10 14  1  0  0  0
 11 15  1  0  0  0
 17 18  1  0  0  0
M  END
> <minimizedAffinity>
-7.74727

$$$$
2VMF_MVL_A_1865


 18 19  0  0  0  0  0  0  0  0999 V2000
   30.4872   46.5120   -3.5767 C   0  0  0  0  0  0  0  0  0  0  0  0
   29.2375   46.1950   -3.2894 N   0  0  0  0  0  0  0  0  0  0  0  0
   30.7798   47.9620   -1.6240 C   0  0  0  0  0  0  0  0  0  0  0  0
   29.2420   47.7677   -1.4793 C   0  0  0  0  0  0  0  0  0  0  0  0
   28.7530   46.3885   -1.9147 C   0  0  0  0  0  0  0  0  0  0  0  0
   29.4370   46.0054   -5.4276 C   0  0  0  0  0  0  0  0  0  0  0  0
   28.5204   45.9949   -4.4356 C   0  0  0  0  0  0  0  0  0  0  0  0
   30.6274   46.3664   -4.9015 N   0  0  0  0  0  0  0  0  0  0  0  0
   31.0438   49.2537   -2.1707 O   0  0  0  0  0  0  0  0  0  0  0  0
   32.6729   47.4013   -3.1232 O   0  0  0  0  0  0  0  0  0  0  0  0
   28.8038   47.9774   -0.1282 O   0  0  0  0  0  0  0  0  0  0  0  0
   31.4680   46.9240   -2.5324 C   0  0  0  0  0  0  0  0  0  0  0  0
   30.6631   49.3119   -3.0610 H   0  0  0  0  0  0  0  0  0  0  0  0
   33.0570   46.7065   -3.6805 H   0  0  0  0  0  0  0  0  0  0  0  0
   29.1958   47.3022    0.4474 H   0  0  0  0  0  0  0  0  0  0  0  0
   27.2501   46.1529   -1.7544 C   0  0  0  0  0  0  0  0  0  0  0  0
   26.9539   45.5329   -0.5119 O   0  0  0  0  0  0  0  0  0  0  0  0
   27.3958   44.6706   -0.4674 H   0  0  0  0  0  0  0  0  0  0  0  0
  1  2  1  0  0  0
  1  8  2  0  0  0
  1 12  1  0  0  0
  2  5  1  0  0  0
  2  7  1  0  0  0
  3  4  1  0  0  0
  3  9  1  0  0  0
  3 12  1  0  0  0
  4  5  1  0  0  0
  4 11  1  0  0  0
  5 16  1  0  0  0
 16 17  1  0  0  0
  6  7  2  0  0  0
  6  8  1  0  0  0
 10 12  1  0  0  0
  9 13  1  0  0  0
 10 14  1  0  0  0
 11 15  1  0  0  0
 17 18  1  0  0  0
M  END
> <minimizedAffinity>
-7.22466

$$$$
2VMF_MVL_A_1865


 18 19  0  0  0  0  0  0  0  0999 V2000
   30.0076   47.7242   -1.7179 C   0  0  0  0  0  0  0  0  0  0  0  0
   30.4237   47.0457   -2.7721 N   0  0  0  0  0  0  0  0  0  0  0  0
   27.6388   47.6174   -2.3334 C   0  0  0  0  0  0  0  0  0  0  0  0
   28.2018   47.0608   -3.6738 C   0  0  0  0  0  0  0  0  0  0  0  0
   29.4604   46.2127   -3.5070 C   0  0  0  0  0  0  0  0  0  0  0  0
   32.0656   48.3086   -2.1746 C   0  0  0  0  0  0  0  0  0  0  0  0
   31.6609   47.4780   -3.1599 C   0  0  0  0  0  0  0  0  0  0  0  0
   31.0341   48.4892   -1.3217 N   0  0  0  0  0  0  0  0  0  0  0  0
   27.2514   48.9793   -2.5125 O   0  0  0  0  0  0  0  0  0  0  0  0
   28.3769   48.5504   -0.1584 O   0  0  0  0  0  0  0  0  0  0  0  0
   27.2304   46.2646   -4.3694 O   0  0  0  0  0  0  0  0  0  0  0  0
   28.6348   47.5689   -1.1578 C   0  0  0  0  0  0  0  0  0  0  0  0
   28.0313   49.5104   -2.7376 H   0  0  0  0  0  0  0  0  0  0  0  0
   29.0335   48.4697    0.5510 H   0  0  0  0  0  0  0  0  0  0  0  0
   27.0193   45.4784   -3.8420 H   0  0  0  0  0  0  0  0  0  0  0  0
   30.0211   45.6228   -4.8022 C   0  0  0  0  0  0  0  0  0  0  0  0
   29.4531   44.3515   -5.0794 O   0  0  0  0  0  0  0  0  0  0  0  0
   29.6649   43.7385   -4.3581 H   0  0  0  0  0  0  0  0  0  0  0  0
  1  2  1  0  0  0
  1  8  2  0  0  0
  1 12  1  0  0  0
  2  5  1  0  0  0
  2  7  1  0  0  0
  3  4  1  0  0  0
  3  9  1  0  0  0
  3 12  1  0  0  0
  4  5  1  0  0  0
  4 11  1  0  0  0
  5 16  1  0  0  0
 16 17  1  0  0  0
  6  7  2  0  0  0
  6  8  1  0  0  0
 10 12  1  0  0  0
  9 13  1  0  0  0
 10 14  1  0  0  0
 11 15  1  0  0  0
 17 18  1  0  0  0
M  END
> <minimizedAffinity>
-7.21430

$$$$
2VMF_MVL_A_1865


 18 19  0  0  0  0  0  0  0  0999 V2000
   29.3374   47.3795   -1.4840 C   0  0  0  0  0  0  0  0  0  0  0  0
   28.7061   46.5463   -2.2915 N   0  0  0  0  0  0  0  0  0  0  0  0
   31.1468   47.8576   -3.0648 C   0  0  0  0  0  0  0  0  0  0  0  0
   30.5128   46.6804   -3.8623 C   0  0  0  0  0  0  0  0  0  0  0  0
   28.9939   46.5975   -3.7325 C   0  0  0  0  0  0  0  0  0  0  0  0
   28.1890   45.9565   -0.2833 C   0  0  0  0  0  0  0  0  0  0  0  0
   28.0799   45.5673   -1.5721 C   0  0  0  0  0  0  0  0  0  0  0  0
   28.9961   47.0383   -0.2338 N   0  0  0  0  0  0  0  0  0  0  0  0
   32.3289   47.4012   -2.4080 O   0  0  0  0  0  0  0  0  0  0  0  0
   30.9335   49.0854   -0.9218 O   0  0  0  0  0  0  0  0  0  0  0  0
   30.8258   46.7558   -5.2615 O   0  0  0  0  0  0  0  0  0  0  0  0
   30.2241   48.4658   -1.9901 C   0  0  0  0  0  0  0  0  0  0  0  0
   32.0965   46.7128   -1.7654 H   0  0  0  0  0  0  0  0  0  0  0  0
   30.3016   49.4473   -0.2810 H   0  0  0  0  0  0  0  0  0  0  0  0
   30.4279   47.5558   -5.6392 H   0  0  0  0  0  0  0  0  0  0  0  0
   28.3354   45.4710   -4.5307 C   0  0  0  0  0  0  0  0  0  0  0  0
   29.2764   44.4670   -4.8803 O   0  0  0  0  0  0  0  0  0  0  0  0
   29.9725   44.8548   -5.4334 H   0  0  0  0  0  0  0  0  0  0  0  0
  1  2  1  0  0  0
  1  8  2  0  0  0
  1 12  1  0  0  0
  2  5  1  0  0  0
  2  7  1  0  0  0
  3  4  1  0  0  0
  3  9  1  0  0  0
  3 12  1  0  0  0
  4  5  1  0  0  0
  4 11  1  0  0  0
  5 16  1  0  0  0
 16 17  1  0  0  0
  6  7  2  0  0  0
  6  8  1  0  0  0
 10 12  1  0  0  0
  9 13  1  0  0  0
 10 14  1  0  0  0
 11 15  1  0  0  0
 17 18  1  0  0  0
M  END
> <minimizedAffinity>
-7.19050

$$$$
2VMF_MVL_A_1865


 18 19  0  0  0  0  0  0  0  0999 V2000
   27.5752   47.7613   -1.2585 C   0  0  0  0  0  0  0  0  0  0  0  0
   28.0230   48.1504   -2.4388 N   0  0  0  0  0  0  0  0  0  0  0  0
   29.3993   46.1740   -0.8658 C   0  0  0  0  0  0  0  0  0  0  0  0
   29.7327   46.4711   -2.3572 C   0  0  0  0  0  0  0  0  0  0  0  0
   29.4323   47.9070   -2.7800 C   0  0  0  0  0  0  0  0  0  0  0  0
   25.8895   48.4588   -2.4657 C   0  0  0  0  0  0  0  0  0  0  0  0
   26.9807   48.4742   -3.2616 C   0  0  0  0  0  0  0  0  0  0  0  0
   26.2528   47.9792   -1.2567 N   0  0  0  0  0  0  0  0  0  0  0  0
   28.7565   44.9033   -0.7691 O   0  0  0  0  0  0  0  0  0  0  0  0
   27.7220   46.6874    0.8859 O   0  0  0  0  0  0  0  0  0  0  0  0
   31.1123   46.2096   -2.6565 O   0  0  0  0  0  0  0  0  0  0  0  0
   28.4742   47.2137   -0.2030 C   0  0  0  0  0  0  0  0  0  0  0  0
   27.9149   44.9292   -1.2506 H   0  0  0  0  0  0  0  0  0  0  0  0
   27.1620   47.3858    1.2595 H   0  0  0  0  0  0  0  0  0  0  0  0
   31.6739   46.8168   -2.1497 H   0  0  0  0  0  0  0  0  0  0  0  0
   29.7794   48.2416   -4.2317 C   0  0  0  0  0  0  0  0  0  0  0  0
   30.3642   49.5309   -4.3393 O   0  0  0  0  0  0  0  0  0  0  0  0
   29.7355   50.1985   -4.0231 H   0  0  0  0  0  0  0  0  0  0  0  0
  1  2  1  0  0  0
  1  8  2  0  0  0
  1 12  1  0  0  0
  2  5  1  0  0  0
  2  7  1  0  0  0
  3  4  1  0  0  0
  3  9  1  0  0  0
  3 12  1  0  0  0
  4  5  1  0  0  0
  4 11  1  0  0  0
  5 16  1  0  0  0
 16 17  1  0  0  0
  6  7  2  0  0  0
  6  8  1  0  0  0
 10 12  1  0  0  0
  9 13  1  0  0  0
 10 14  1  0  0  0
 11 15  1  0  0  0
 17 18  1  0  0  0
M  END
> <minimizedAffinity>
-7.15345

$$$$
2VMF_MVL_A_1865


 18 19  0  0  0  0  0  0  0  0999 V2000
   29.6144   47.2615   -3.2767 C   0  0  0  0  0  0  0  0  0  0  0  0
   29.3940   47.7144   -2.0555 N   0  0  0  0  0  0  0  0  0  0  0  0
   27.5584   45.9331   -3.3716 C   0  0  0  0  0  0  0  0  0  0  0  0
   27.4819   46.2812   -1.8562 C   0  0  0  0  0  0  0  0  0  0  0  0
   28.0273   47.6658   -1.5152 C   0  0  0  0  0  0  0  0  0  0  0  0
   31.5317   47.7317   -2.3340 C   0  0  0  0  0  0  0  0  0  0  0  0
   30.5758   47.8991   -1.3944 C   0  0  0  0  0  0  0  0  0  0  0  0
   30.9403   47.2985   -3.4683 N   0  0  0  0  0  0  0  0  0  0  0  0
   28.0062   44.5867   -3.5254 O   0  0  0  0  0  0  0  0  0  0  0  0
   29.0241   46.2049   -5.3524 O   0  0  0  0  0  0  0  0  0  0  0  0
   26.1361   46.2104   -1.3610 O   0  0  0  0  0  0  0  0  0  0  0  0
   28.5103   46.8343   -4.1826 C   0  0  0  0  0  0  0  0  0  0  0  0
   28.9034   44.5014   -3.1668 H   0  0  0  0  0  0  0  0  0  0  0  0
   29.6135   46.8189   -5.8176 H   0  0  0  0  0  0  0  0  0  0  0  0
   25.5943   46.8850   -1.7995 H   0  0  0  0  0  0  0  0  0  0  0  0
   27.9369   48.0527   -0.0381 C   0  0  0  0  0  0  0  0  0  0  0  0
   28.1384   46.9276    0.8041 O   0  0  0  0  0  0  0  0  0  0  0  0
   27.4520   46.2651    0.6283 H   0  0  0  0  0  0  0  0  0  0  0  0
  1  2  1  0  0  0
  1  8  2  0  0  0
  1 12  1  0  0  0
  2  5  1  0  0  0
  2  7  1  0  0  0
  3  4  1  0  0  0
  3  9  1  0  0  0
  3 12  1  0  0  0
  4  5  1  0  0  0
  4 11  1  0  0  0
  5 16  1  0  0  0
 16 17  1  0  0  0
  6  7  2  0  0  0
  6  8  1  0  0  0
 10 12  1  0  0  0
  9 13  1  0  0  0
 10 14  1  0  0  0
 11 15  1  0  0  0
 17 18  1  0  0  0
M  END
> <minimizedAffinity>
-7.14701

$$$$
2VMF_MVL_A_1865


 18 19  0  0  0  0  0  0  0  0999 V2000
   30.2298   46.5479   -4.1636 C   0  0  0  0  0  0  0  0  0  0  0  0
   29.4731   46.3111   -3.1071 N   0  0  0  0  0  0  0  0  0  0  0  0
   31.3872   48.4578   -3.1567 C   0  0  0  0  0  0  0  0  0  0  0  0
   30.2991   48.3010   -2.0545 C   0  0  0  0  0  0  0  0  0  0  0  0
   29.8825   46.8538   -1.8033 C   0  0  0  0  0  0  0  0  0  0  0  0
   28.3832   45.5719   -4.8140 C   0  0  0  0  0  0  0  0  0  0  0  0
   28.2585   45.8161   -3.4914 C   0  0  0  0  0  0  0  0  0  0  0  0
   29.5721   46.0628   -5.2258 N   0  0  0  0  0  0  0  0  0  0  0  0
   31.0546   49.5636   -3.9955 O   0  0  0  0  0  0  0  0  0  0  0  0
   32.0692   47.5344   -5.3540 O   0  0  0  0  0  0  0  0  0  0  0  0
   30.7279   48.8535   -0.8006 O   0  0  0  0  0  0  0  0  0  0  0  0
   31.5555   47.2221   -4.0628 C   0  0  0  0  0  0  0  0  0  0  0  0
   30.2143   49.3862   -4.4464 H   0  0  0  0  0  0  0  0  0  0  0  0
   32.1522   46.7202   -5.8746 H   0  0  0  0  0  0  0  0  0  0  0  0
   31.4908   48.3532   -0.4709 H   0  0  0  0  0  0  0  0  0  0  0  0
   28.8379   46.6614   -0.7026 C   0  0  0  0  0  0  0  0  0  0  0  0
   29.4483   46.3427    0.5390 O   0  0  0  0  0  0  0  0  0  0  0  0
   29.9440   45.5134    0.4522 H   0  0  0  0  0  0  0  0  0  0  0  0
  1  2  1  0  0  0
  1  8  2  0  0  0
  1 12  1  0  0  0
  2  5  1  0  0  0
  2  7  1  0  0  0
  3  4  1  0  0  0
  3  9  1  0  0  0
  3 12  1  0  0  0
  4  5  1  0  0  0
  4 11  1  0  0  0
  5 16  1  0  0  0
 16 17  1  0  0  0
  6  7  2  0  0  0
  6  8  1  0  0  0
 10 12  1  0  0  0
  9 13  1  0  0  0
 10 14  1  0  0  0
 11 15  1  0  0  0
 17 18  1  0  0  0
M  END
> <minimizedAffinity>
-7.05652

$$$$
