5YHG_8UX_A_608
  RCSB PDB03231823553D
Coordinates from PDB:5YHG:A:608 Model:1 without hydrogens
 23 23  0  0  0  0            999 V2000
  103.6210   18.3950   47.4920   O 0  0  0  0  0  0  0  0  0  0  0  0
  102.5440   18.9370   47.8210   C 0  0  0  0  0  0  0  0  0  0  0  0
  101.5940   19.1520   47.0670   O 0  0  0  0  0  0  0  0  0  0  0  0
  102.3560   19.4870   49.2210   C 0  0  0  0  0  0  0  0  0  0  0  0
  101.7080   20.9210   49.1470   C 0  0  0  0  0  0  0  0  0  0  0  0
  103.6140   19.4060   49.9550   N 0  0  0  0  0  0  0  0  0  0  0  0
  104.4590   20.6010   50.4350   C 0  0  0  0  0  0  0  0  0  0  0  0
  105.1820   21.3490   49.3080   C 0  0  0  0  0  0  0  0  0  0  0  0
  105.4760   22.5720   49.4520   O 0  0  0  0  0  0  0  0  0  0  0  0
  105.4330   20.6740   48.3210   O 0  0  0  0  0  0  0  0  0  0  0  0
  105.5320   20.2480   51.4410   C 0  0  0  0  0  0  0  0  0  0  0  0
  105.9380   18.7820   51.3670   C 0  0  0  0  0  0  0  0  0  0  0  0
  106.8720   18.5060   50.2850   N 0  0  0  0  0  0  0  0  0  0  0  0
  107.2020   17.0710   50.1070   C 0  0  0  0  0  0  0  0  0  0  0  0
  106.0420   16.0520   49.8830   C 0  0  0  0  0  0  0  0  0  0  0  0
  106.3120   14.8580   50.3050   O 0  0  0  0  0  0  0  0  0  0  0  0
  104.9020   16.4600   49.3980   O 0  0  0  0  0  0  0  0  0  0  0  0
  108.3420   16.9470   49.1280   C 0  0  0  0  0  0  0  0  0  0  0  0
  107.9140   17.4260   47.7890   C 0  0  0  0  0  0  0  0  0  0  0  0
  108.7560   17.4650   46.8120   C 0  0  0  0  0  0  0  0  0  0  0  0
  108.1240   17.9650   45.7670   N 0  0  0  0  0  0  0  0  0  0  0  0
  106.8890   18.2250   46.0980   C 0  0  0  0  0  0  0  0  0  0  0  0
  106.7390   17.9110   47.3730   N 0  0  0  0  0  0  0  0  0  0  0  0
 20 21  1  0  0  0  0
 20 19  2  0  0  0  0
 18 19  1  0  0  0  0
 18 14  1  0  0  0  0
 21 22  1  0  0  0  0
 19 23  1  0  0  0  0
 14 13  1  0  0  0  0
 14 15  1  0  0  0  0
 22 23  2  0  0  0  0
 13 12  1  0  0  0  0
 17 15  2  0  0  0  0
 15 16  1  0  0  0  0
 12 11  1  0  0  0  0
 10  8  2  0  0  0  0
 11  7  1  0  0  0  0
  9  8  1  0  0  0  0
  8  7  1  0  0  0  0
  7  6  1  0  0  0  0
  3  2  2  0  0  0  0
  6  4  1  0  0  0  0
  2  4  1  0  0  0  0
  2  1  1  0  0  0  0
  4  5  1  0  0  0  0
A    1
O
A    2
C
A    3
OXT
A    4
CA
A    5
CB
A    6
N
A    7
CAV
A    8
CAR
A    9
OAF
A   10
OAC
A   11
CAK
A   12
CAJ
A   13
NAN
A   14
CAW
A   15
CAS
A   16
OAG
A   17
OAD
A   18
CAL
A   19
CAT
A   20
CAI
A   21
NAM
A   22
CAH
A   23
NAP
M  END
>  <InstanceId>
5YHG_8UX_A_608

>  <ChemCompId>
8UX

>  <PdbId>
5YHG

>  <ChainId>
A

>  <ResidueNumber>
608

>  <InsertionCode>


>  <Model>
1

>  <AltIds>


>  <MissingHeavyAtoms>
0

>  <ObservedFormula>
C13 N4 O6

>  <Name>
(2~{S})-4-[[(2~{R})-3-(1~{H}-imidazol-4-yl)-1-oxidanyl-1-oxidanylidene-propan-2-yl]amino]-2-[[(2~{S})-1-oxidanyl-1-oxidanylidene-propan-2-yl]amino]butanoic acid

>  <SystematicName>
(2~{S})-4-[[(2~{R})-3-(1~{H}-imidazol-4-yl)-1-oxidanyl-1-oxidanylidene-propan-2-yl]amino]-2-[[(2~{S})-1-oxidanyl-1-oxidanylidene-propan-2-yl]amino]butanoic acid

>  <Synonyms>
staphylopine

>  <Type>
NON-POLYMER

>  <Formula>
C13 H20 N4 O6

>  <MolecularWeight>
328.321

>  <ModifiedDate>
2018-03-23

>  <Parent>


>  <OneLetterCode>


>  <SubcomponentList>


>  <AmbiguousFlag>
N

>  <InChI>
InChI=1S/C13H20N4O6/c1-7(11(18)19)17-9(12(20)21)2-3-15-10(13(22)23)4-8-5-14-6-16-8/h5-7,9-10,15,17H,2-4H2,1H3,(H,14,16)(H,18,19)(H,20,21)(H,22,23)/t7-,9-,10+/m0/s1

>  <InChIKey>
WLNNYKMTYVPSDL-UJNFCWOMSA-N

>  <SMILES>
C[C@@H](C(=O)O)N[C@@H](CCN[C@H](Cc1c[nH]cn1)C(=O)O)C(=O)O

$$$$
