5UPZ_8HD_A_201


 50 53  0  0  0  0  0  0  0  0999 V2000
   15.0910   22.7345   16.9141 C   0  0  0  0  0  0  0  0  0  0  0  0
   14.2183   21.7837   17.6457 N   0  0  0  0  0  0  0  0  0  0  0  0
   14.7510   20.7095   18.2802 C   0  0  0  0  0  0  0  0  0  0  0  0
   15.8811   20.4542   18.4523 O   0  0  0  0  0  0  0  0  0  0  0  0
   13.2455   21.9334   17.6710 H   0  0  0  0  0  0  0  0  0  0  0  0
   13.6992   19.7207   18.8155 C   0  0  0  0  0  0  0  0  0  0  0  0
   13.8061   19.1757   20.0851 C   0  0  0  0  0  0  0  0  0  0  0  0
   12.7988   18.2963   20.5623 C   0  0  0  0  0  0  0  0  0  0  0  0
   11.7429   17.9527   19.7452 C   0  0  0  0  0  0  0  0  0  0  0  0
   11.6465   18.5002   18.4669 C   0  0  0  0  0  0  0  0  0  0  0  0
   12.5596   19.4485   18.0280 C   0  0  0  0  0  0  0  0  0  0  0  0
   10.4436   18.2519   17.5811 C   0  0  0  0  0  0  0  0  0  0  0  0
    9.5733   19.1074   17.6339 O   0  0  0  0  0  0  0  0  0  0  0  0
   10.4369   17.1862   16.8122 N   0  0  0  0  0  0  0  0  0  0  0  0
   11.5620   16.2352   16.7455 C   0  0  0  0  0  0  0  0  0  0  0  0
    9.2017   16.8684   16.0477 C   0  0  0  0  0  0  0  0  0  0  0  0
    9.3767   17.3306   14.6168 C   0  0  0  0  0  0  0  0  0  0  0  0
    8.9747   18.5084   14.1600 N   0  0  0  0  0  0  0  0  0  0  0  0
    9.1849   18.5299   12.8392 C   0  0  0  0  0  0  0  0  0  0  0  0
    9.7882   17.4065   12.4745 C   0  0  0  0  0  0  0  0  0  0  0  0
    9.6098   16.5286   13.5439 O   0  0  0  0  0  0  0  0  0  0  0  0
    9.1607   19.7332   12.1864 C   0  0  0  0  0  0  0  0  0  0  0  0
   15.5273   23.8430   17.8934 C   0  0  0  0  0  0  0  0  0  0  0  0
   14.3738   24.6286   18.3105 O   0  0  0  0  0  0  0  0  0  0  0  0
   13.9688   25.0457   17.5340 H   0  0  0  0  0  0  0  0  0  0  0  0
   16.5330   24.8041   17.1945 C   0  0  0  0  0  0  0  0  0  0  0  0
   17.8843   24.3089   17.3642 N   0  0  0  0  0  0  0  0  0  0  0  0
   18.6852   23.8537   16.0044 S   0  0  0  0  0  0  0  0  0  0  0  0
   17.6446   23.4221   15.0552 O   0  0  0  0  0  0  0  0  0  0  0  0
   19.7616   22.9293   16.3883 O   0  0  0  0  0  0  0  0  0  0  0  0
   20.6504   27.5817   14.3475 C   0  0  0  0  0  0  0  0  0  0  0  0
   19.2733   27.4265   14.2136 C   0  0  0  0  0  0  0  0  0  0  0  0
   18.6840   26.2553   14.7112 C   0  0  0  0  0  0  0  0  0  0  0  0
   19.4685   25.2819   15.3362 C   0  0  0  0  0  0  0  0  0  0  0  0
   20.8188   25.4632   15.4896 C   0  0  0  0  0  0  0  0  0  0  0  0
   21.3943   26.6026   14.9756 C   0  0  0  0  0  0  0  0  0  0  0  0
   21.3978   28.8319   13.8159 C   0  0  0  0  0  0  0  0  0  0  0  0
   21.7471   29.5803   15.0158 O   0  0  0  0  0  0  0  0  0  0  0  0
   20.9408   29.7883   15.5132 H   0  0  0  0  0  0  0  0  0  0  0  0
   18.7600   24.8064   18.4222 C   0  0  0  0  0  0  0  0  0  0  0  0
   18.5390   24.0869   19.7913 C   0  0  0  0  0  0  0  0  0  0  0  0
   18.5124   22.5667   19.6555 C   0  0  0  0  0  0  0  0  0  0  0  0
   19.7075   24.5431   20.6960 C   0  0  0  0  0  0  0  0  0  0  0  0
   14.2667   23.2456   15.7181 C   0  0  0  0  0  0  0  0  0  0  0  0
   12.5693   21.6699   14.8192 C   0  0  0  0  0  0  0  0  0  0  0  0
   12.2227   20.4802   14.1106 C   0  0  0  0  0  0  0  0  0  0  0  0
   13.1619   19.7555   13.3787 C   0  0  0  0  0  0  0  0  0  0  0  0
   14.4865   20.1985   13.3901 C   0  0  0  0  0  0  0  0  0  0  0  0
   14.8626   21.3444   14.1325 C   0  0  0  0  0  0  0  0  0  0  0  0
   13.9095   22.0535   14.8528 C   0  0  0  0  0  0  0  0  0  0  0  0
 20 21  1  0  0  0
 20 19  2  0  0  0
 21 17  1  0  0  0
 47 48  2  0  0  0
 47 46  1  0  0  0
 22 19  1  0  0  0
 48 49  1  0  0  0
 19 18  1  0  0  0
 37 31  1  0  0  0
 37 38  1  0  0  0
 46 45  2  0  0  0
 49 50  2  0  0  0
 36 31  2  0  0  0
 36 35  1  0  0  0
 31 32  1  0  0  0
 17 18  2  0  0  0
 17 16  1  0  0  0
 45 50  1  0  0  0
 35 34  2  0  0  0
 50 44  1  0  0  0
 29 28  2  0  0  0
 32 33  2  0  0  0
 34 33  1  0  0  0
 34 28  1  0  0  0
 16 14  1  0  0  0
 44  1  1  0  0  0
 28 30  2  0  0  0
 28 27  1  0  0  0
 15 14  1  0  0  0
 14 12  1  0  0  0
  1  2  1  0  0  0
  1 23  1  0  0  0
 26 27  1  0  0  0
 26 23  1  0  0  0
 27 40  1  0  0  0
 12 13  2  0  0  0
 12 10  1  0  0  0
  2  3  1  0  0  0
 11 10  2  0  0  0
 11  6  1  0  0  0
 23 24  1  0  0  0
  3  4  2  0  0  0
  3  6  1  0  0  0
 10  9  1  0  0  0
 40 41  1  0  0  0
  6  7  2  0  0  0
  9  8  2  0  0  0
 42 41  1  0  0  0
 41 43  1  0  0  0
  7  8  1  0  0  0
 38 39  1  0  0  0
 24 25  1  0  0  0
  2  5  1  0  0  0
M  END
> <minimizedAffinity>
-10.42605

$$$$
5UPZ_8HD_A_201


 50 53  0  0  0  0  0  0  0  0999 V2000
   14.9121   22.5852   16.9001 C   0  0  0  0  0  0  0  0  0  0  0  0
   14.2457   21.4806   17.6328 N   0  0  0  0  0  0  0  0  0  0  0  0
   14.9083   20.3240   17.8846 C   0  0  0  0  0  0  0  0  0  0  0  0
   16.0398   20.0809   17.7042 O   0  0  0  0  0  0  0  0  0  0  0  0
   13.3160   21.5877   17.9384 H   0  0  0  0  0  0  0  0  0  0  0  0
   14.0172   19.2136   18.4707 C   0  0  0  0  0  0  0  0  0  0  0  0
   13.9550   18.9882   19.8365 C   0  0  0  0  0  0  0  0  0  0  0  0
   13.0942   17.9810   20.3468 C   0  0  0  0  0  0  0  0  0  0  0  0
   12.3585   17.2017   19.4797 C   0  0  0  0  0  0  0  0  0  0  0  0
   12.4320   17.4305   18.1066 C   0  0  0  0  0  0  0  0  0  0  0  0
   13.1792   18.4842   17.5996 C   0  0  0  0  0  0  0  0  0  0  0  0
   11.5508   16.6863   17.1253 C   0  0  0  0  0  0  0  0  0  0  0  0
   11.9885   15.6112   16.7449 O   0  0  0  0  0  0  0  0  0  0  0  0
   10.3947   17.2143   16.7912 N   0  0  0  0  0  0  0  0  0  0  0  0
    9.8978   18.4841   17.3527 C   0  0  0  0  0  0  0  0  0  0  0  0
    9.5930   16.5553   15.7263 C   0  0  0  0  0  0  0  0  0  0  0  0
    8.4834   15.7529   16.3717 C   0  0  0  0  0  0  0  0  0  0  0  0
    7.3327   15.4632   15.7805 N   0  0  0  0  0  0  0  0  0  0  0  0
    6.5541   14.8477   16.6772 C   0  0  0  0  0  0  0  0  0  0  0  0
    7.2344   14.6777   17.8029 C   0  0  0  0  0  0  0  0  0  0  0  0
    8.3291   15.5368   17.7053 O   0  0  0  0  0  0  0  0  0  0  0  0
    5.4541   14.1622   16.2361 C   0  0  0  0  0  0  0  0  0  0  0  0
   15.2671   23.6928   17.9126 C   0  0  0  0  0  0  0  0  0  0  0  0
   14.0802   24.4682   18.2470 O   0  0  0  0  0  0  0  0  0  0  0  0
   13.7298   24.8855   17.4445 H   0  0  0  0  0  0  0  0  0  0  0  0
   16.3138   24.6642   17.2926 C   0  0  0  0  0  0  0  0  0  0  0  0
   17.6433   24.1027   17.4243 N   0  0  0  0  0  0  0  0  0  0  0  0
   18.4041   23.6610   16.0374 S   0  0  0  0  0  0  0  0  0  0  0  0
   17.3316   23.3488   15.0771 O   0  0  0  0  0  0  0  0  0  0  0  0
   19.4163   22.6474   16.3669 O   0  0  0  0  0  0  0  0  0  0  0  0
   20.6925   27.2138   14.4107 C   0  0  0  0  0  0  0  0  0  0  0  0
   21.3998   26.1027   14.8620 C   0  0  0  0  0  0  0  0  0  0  0  0
   20.6768   25.0208   15.3846 C   0  0  0  0  0  0  0  0  0  0  0  0
   19.2806   25.0633   15.4329 C   0  0  0  0  0  0  0  0  0  0  0  0
   18.5962   26.1509   14.9551 C   0  0  0  0  0  0  0  0  0  0  0  0
   19.3129   27.2199   14.4680 C   0  0  0  0  0  0  0  0  0  0  0  0
   21.4003   28.4661   13.8316 C   0  0  0  0  0  0  0  0  0  0  0  0
   21.1095   29.5211   14.7929 O   0  0  0  0  0  0  0  0  0  0  0  0
   20.1488   29.6210   14.8827 H   0  0  0  0  0  0  0  0  0  0  0  0
   18.5549   24.5219   18.4859 C   0  0  0  0  0  0  0  0  0  0  0  0
   18.2506   23.8436   19.8600 C   0  0  0  0  0  0  0  0  0  0  0  0
   18.2506   22.3196   19.7727 C   0  0  0  0  0  0  0  0  0  0  0  0
   19.3503   24.3443   20.8254 C   0  0  0  0  0  0  0  0  0  0  0  0
   13.9278   23.0325   15.8036 C   0  0  0  0  0  0  0  0  0  0  0  0
   14.6870   21.2879   14.2061 C   0  0  0  0  0  0  0  0  0  0  0  0
   14.4087   20.2353   13.2829 C   0  0  0  0  0  0  0  0  0  0  0  0
   13.1371   19.6780   13.1586 C   0  0  0  0  0  0  0  0  0  0  0  0
   12.1077   20.2117   13.9373 C   0  0  0  0  0  0  0  0  0  0  0  0
   12.3499   21.2936   14.8183 C   0  0  0  0  0  0  0  0  0  0  0  0
   13.6257   21.8322   14.9286 C   0  0  0  0  0  0  0  0  0  0  0  0
 20 21  1  0  0  0
 20 19  2  0  0  0
 21 17  1  0  0  0
 47 48  2  0  0  0
 47 46  1  0  0  0
 22 19  1  0  0  0
 48 49  1  0  0  0
 19 18  1  0  0  0
 37 31  1  0  0  0
 37 38  1  0  0  0
 46 45  2  0  0  0
 49 50  2  0  0  0
 36 31  2  0  0  0
 36 35  1  0  0  0
 31 32  1  0  0  0
 17 18  2  0  0  0
 17 16  1  0  0  0
 45 50  1  0  0  0
 35 34  2  0  0  0
 50 44  1  0  0  0
 29 28  2  0  0  0
 32 33  2  0  0  0
 34 33  1  0  0  0
 34 28  1  0  0  0
 16 14  1  0  0  0
 44  1  1  0  0  0
 28 30  2  0  0  0
 28 27  1  0  0  0
 15 14  1  0  0  0
 14 12  1  0  0  0
  1  2  1  0  0  0
  1 23  1  0  0  0
 26 27  1  0  0  0
 26 23  1  0  0  0
 27 40  1  0  0  0
 12 13  2  0  0  0
 12 10  1  0  0  0
  2  3  1  0  0  0
 11 10  2  0  0  0
 11  6  1  0  0  0
 23 24  1  0  0  0
  3  4  2  0  0  0
  3  6  1  0  0  0
 10  9  1  0  0  0
 40 41  1  0  0  0
  6  7  2  0  0  0
  9  8  2  0  0  0
 42 41  1  0  0  0
 41 43  1  0  0  0
  7  8  1  0  0  0
 38 39  1  0  0  0
 24 25  1  0  0  0
  2  5  1  0  0  0
M  END
> <minimizedAffinity>
-10.17466

$$$$
5UPZ_8HD_A_201


 50 53  0  0  0  0  0  0  0  0999 V2000
   17.0012   21.6158   18.0653 C   0  0  0  0  0  0  0  0  0  0  0  0
   15.8497   20.6927   18.2169 N   0  0  0  0  0  0  0  0  0  0  0  0
   14.7591   21.0650   18.9326 C   0  0  0  0  0  0  0  0  0  0  0  0
   14.5133   22.1156   19.3883 O   0  0  0  0  0  0  0  0  0  0  0  0
   15.8773   19.8035   17.7952 H   0  0  0  0  0  0  0  0  0  0  0  0
   13.7482   19.9263   19.1604 C   0  0  0  0  0  0  0  0  0  0  0  0
   13.8639   19.0687   20.2427 C   0  0  0  0  0  0  0  0  0  0  0  0
   12.8929   18.0527   20.4445 C   0  0  0  0  0  0  0  0  0  0  0  0
   11.8654   17.8945   19.5392 C   0  0  0  0  0  0  0  0  0  0  0  0
   11.7601   18.7572   18.4494 C   0  0  0  0  0  0  0  0  0  0  0  0
   12.6332   19.8255   18.3004 C   0  0  0  0  0  0  0  0  0  0  0  0
   10.5820   18.7029   17.4995 C   0  0  0  0  0  0  0  0  0  0  0  0
    9.7343   19.5653   17.6722 O   0  0  0  0  0  0  0  0  0  0  0  0
   10.5725   17.7841   16.5600 N   0  0  0  0  0  0  0  0  0  0  0  0
   11.6725   16.8215   16.3648 C   0  0  0  0  0  0  0  0  0  0  0  0
    9.3561   17.6418   15.7166 C   0  0  0  0  0  0  0  0  0  0  0  0
    9.4677   18.5765   14.5311 C   0  0  0  0  0  0  0  0  0  0  0  0
    8.6922   19.6348   14.3413 N   0  0  0  0  0  0  0  0  0  0  0  0
    8.9932   20.1552   13.1464 C   0  0  0  0  0  0  0  0  0  0  0  0
   10.0054   19.4803   12.6184 C   0  0  0  0  0  0  0  0  0  0  0  0
   10.0792   18.2947   13.3498 O   0  0  0  0  0  0  0  0  0  0  0  0
    8.5734   21.4255   12.8550 C   0  0  0  0  0  0  0  0  0  0  0  0
   17.5422   21.4827   16.6273 C   0  0  0  0  0  0  0  0  0  0  0  0
   18.5521   20.4347   16.5646 O   0  0  0  0  0  0  0  0  0  0  0  0
   19.2903   20.6616   17.1515 H   0  0  0  0  0  0  0  0  0  0  0  0
   18.2102   22.8175   16.1849 C   0  0  0  0  0  0  0  0  0  0  0  0
   17.1981   23.7386   15.7081 N   0  0  0  0  0  0  0  0  0  0  0  0
   17.3489   25.3092   16.1638 S   0  0  0  0  0  0  0  0  0  0  0  0
   17.0928   25.3293   17.6143 O   0  0  0  0  0  0  0  0  0  0  0  0
   16.5341   26.1340   15.2602 O   0  0  0  0  0  0  0  0  0  0  0  0
   21.6238   26.6226   15.4529 C   0  0  0  0  0  0  0  0  0  0  0  0
   20.7941   26.3982   14.3576 C   0  0  0  0  0  0  0  0  0  0  0  0
   19.4803   25.9690   14.5948 C   0  0  0  0  0  0  0  0  0  0  0  0
   19.0230   25.7882   15.9031 C   0  0  0  0  0  0  0  0  0  0  0  0
   19.8416   26.0441   16.9726 C   0  0  0  0  0  0  0  0  0  0  0  0
   21.1376   26.4395   16.7321 C   0  0  0  0  0  0  0  0  0  0  0  0
   23.0963   27.0821   15.2950 C   0  0  0  0  0  0  0  0  0  0  0  0
   23.8746   26.0150   15.9092 O   0  0  0  0  0  0  0  0  0  0  0  0
   23.5966   25.9018   16.8316 H   0  0  0  0  0  0  0  0  0  0  0  0
   16.5455   23.5633   14.4130 C   0  0  0  0  0  0  0  0  0  0  0  0
   15.5056   22.3975   14.4021 C   0  0  0  0  0  0  0  0  0  0  0  0
   14.1160   22.8491   14.8443 C   0  0  0  0  0  0  0  0  0  0  0  0
   15.4820   21.8727   12.9474 C   0  0  0  0  0  0  0  0  0  0  0  0
   18.0166   21.2232   19.1542 C   0  0  0  0  0  0  0  0  0  0  0  0
   17.8923   23.3247   20.4732 C   0  0  0  0  0  0  0  0  0  0  0  0
   18.4372   24.5831   20.8697 C   0  0  0  0  0  0  0  0  0  0  0  0
   19.7439   24.9544   20.5571 C   0  0  0  0  0  0  0  0  0  0  0  0
   20.5113   24.0731   19.7922 C   0  0  0  0  0  0  0  0  0  0  0  0
   19.9715   22.8442   19.3407 C   0  0  0  0  0  0  0  0  0  0  0  0
   18.6675   22.4928   19.6661 C   0  0  0  0  0  0  0  0  0  0  0  0
 20 21  1  0  0  0
 20 19  2  0  0  0
 21 17  1  0  0  0
 47 48  2  0  0  0
 47 46  1  0  0  0
 22 19  1  0  0  0
 48 49  1  0  0  0
 19 18  1  0  0  0
 37 31  1  0  0  0
 37 38  1  0  0  0
 46 45  2  0  0  0
 49 50  2  0  0  0
 36 31  2  0  0  0
 36 35  1  0  0  0
 31 32  1  0  0  0
 17 18  2  0  0  0
 17 16  1  0  0  0
 45 50  1  0  0  0
 35 34  2  0  0  0
 50 44  1  0  0  0
 29 28  2  0  0  0
 32 33  2  0  0  0
 34 33  1  0  0  0
 34 28  1  0  0  0
 16 14  1  0  0  0
 44  1  1  0  0  0
 28 30  2  0  0  0
 28 27  1  0  0  0
 15 14  1  0  0  0
 14 12  1  0  0  0
  1  2  1  0  0  0
  1 23  1  0  0  0
 26 27  1  0  0  0
 26 23  1  0  0  0
 27 40  1  0  0  0
 12 13  2  0  0  0
 12 10  1  0  0  0
  2  3  1  0  0  0
 11 10  2  0  0  0
 11  6  1  0  0  0
 23 24  1  0  0  0
  3  4  2  0  0  0
  3  6  1  0  0  0
 10  9  1  0  0  0
 40 41  1  0  0  0
  6  7  2  0  0  0
  9  8  2  0  0  0
 42 41  1  0  0  0
 41 43  1  0  0  0
  7  8  1  0  0  0
 38 39  1  0  0  0
 24 25  1  0  0  0
  2  5  1  0  0  0
M  END
> <minimizedAffinity>
-9.87834

$$$$
5UPZ_8HD_A_201


 50 53  0  0  0  0  0  0  0  0999 V2000
   22.2799   26.1237   19.4142 C   0  0  0  0  0  0  0  0  0  0  0  0
   21.3605   24.9672   19.5487 N   0  0  0  0  0  0  0  0  0  0  0  0
   20.0660   25.0681   19.1558 C   0  0  0  0  0  0  0  0  0  0  0  0
   19.5477   25.9475   18.5814 O   0  0  0  0  0  0  0  0  0  0  0  0
   21.6921   24.1204   19.9258 H   0  0  0  0  0  0  0  0  0  0  0  0
   19.2027   23.8547   19.5465 C   0  0  0  0  0  0  0  0  0  0  0  0
   19.5780   23.0078   20.5771 C   0  0  0  0  0  0  0  0  0  0  0  0
   18.7399   21.9197   20.9367 C   0  0  0  0  0  0  0  0  0  0  0  0
   17.5797   21.6833   20.2306 C   0  0  0  0  0  0  0  0  0  0  0  0
   17.2127   22.5361   19.1908 C   0  0  0  0  0  0  0  0  0  0  0  0
   17.9607   23.6686   18.9016 C   0  0  0  0  0  0  0  0  0  0  0  0
   15.8890   22.3916   18.4697 C   0  0  0  0  0  0  0  0  0  0  0  0
   15.1085   23.3184   18.6244 O   0  0  0  0  0  0  0  0  0  0  0  0
   15.6930   21.3303   17.7198 N   0  0  0  0  0  0  0  0  0  0  0  0
   16.7152   20.2865   17.5198 C   0  0  0  0  0  0  0  0  0  0  0  0
   14.3471   21.1194   17.1238 C   0  0  0  0  0  0  0  0  0  0  0  0
   13.7002   19.9197   17.7828 C   0  0  0  0  0  0  0  0  0  0  0  0
   13.5511   19.7796   19.0926 N   0  0  0  0  0  0  0  0  0  0  0  0
   13.0509   18.5601   19.3205 C   0  0  0  0  0  0  0  0  0  0  0  0
   12.8104   17.9628   18.1611 C   0  0  0  0  0  0  0  0  0  0  0  0
   13.5226   18.6979   17.2132 O   0  0  0  0  0  0  0  0  0  0  0  0
   12.5048   18.2894   20.5465 C   0  0  0  0  0  0  0  0  0  0  0  0
   22.7254   26.2193   17.9409 C   0  0  0  0  0  0  0  0  0  0  0  0
   24.1643   26.0180   17.8362 O   0  0  0  0  0  0  0  0  0  0  0  0
   24.6246   26.7057   18.3422 H   0  0  0  0  0  0  0  0  0  0  0  0
   22.3979   27.6330   17.3772 C   0  0  0  0  0  0  0  0  0  0  0  0
   22.6446   27.6615   15.9495 N   0  0  0  0  0  0  0  0  0  0  0  0
   21.3711   28.0366   14.9827 S   0  0  0  0  0  0  0  0  0  0  0  0
   21.9144   28.0989   13.6149 O   0  0  0  0  0  0  0  0  0  0  0  0
   20.6818   29.2016   15.5556 O   0  0  0  0  0  0  0  0  0  0  0  0
   18.4561   24.5817   15.2516 C   0  0  0  0  0  0  0  0  0  0  0  0
   19.8113   24.3413   15.4620 C   0  0  0  0  0  0  0  0  0  0  0  0
   20.7031   25.4178   15.3516 C   0  0  0  0  0  0  0  0  0  0  0  0
   20.2294   26.6980   15.0511 C   0  0  0  0  0  0  0  0  0  0  0  0
   18.8886   26.9257   14.8783 C   0  0  0  0  0  0  0  0  0  0  0  0
   18.0219   25.8600   14.9620 C   0  0  0  0  0  0  0  0  0  0  0  0
   17.3933   23.4556   15.3345 C   0  0  0  0  0  0  0  0  0  0  0  0
   16.1680   24.1441   15.7170 O   0  0  0  0  0  0  0  0  0  0  0  0
   16.3083   24.6124   16.5548 H   0  0  0  0  0  0  0  0  0  0  0  0
   23.9372   28.0614   15.3988 C   0  0  0  0  0  0  0  0  0  0  0  0
   24.4095   29.4647   15.8972 C   0  0  0  0  0  0  0  0  0  0  0  0
   25.6342   29.3815   16.8046 C   0  0  0  0  0  0  0  0  0  0  0  0
   24.7195   30.2790   14.6194 C   0  0  0  0  0  0  0  0  0  0  0  0
   23.4349   25.8750   20.4018 C   0  0  0  0  0  0  0  0  0  0  0  0
   23.9242   26.2817   22.8032 C   0  0  0  0  0  0  0  0  0  0  0  0
   23.5257   26.7259   24.1000 C   0  0  0  0  0  0  0  0  0  0  0  0
   22.3368   27.4225   24.3099 C   0  0  0  0  0  0  0  0  0  0  0  0
   21.5021   27.6419   23.2116 C   0  0  0  0  0  0  0  0  0  0  0  0
   21.8516   27.1605   21.9264 C   0  0  0  0  0  0  0  0  0  0  0  0
   23.0428   26.4707   21.7393 C   0  0  0  0  0  0  0  0  0  0  0  0
 20 21  1  0  0  0
 20 19  2  0  0  0
 21 17  1  0  0  0
 47 48  2  0  0  0
 47 46  1  0  0  0
 22 19  1  0  0  0
 48 49  1  0  0  0
 19 18  1  0  0  0
 37 31  1  0  0  0
 37 38  1  0  0  0
 46 45  2  0  0  0
 49 50  2  0  0  0
 36 31  2  0  0  0
 36 35  1  0  0  0
 31 32  1  0  0  0
 17 18  2  0  0  0
 17 16  1  0  0  0
 45 50  1  0  0  0
 35 34  2  0  0  0
 50 44  1  0  0  0
 29 28  2  0  0  0
 32 33  2  0  0  0
 34 33  1  0  0  0
 34 28  1  0  0  0
 16 14  1  0  0  0
 44  1  1  0  0  0
 28 30  2  0  0  0
 28 27  1  0  0  0
 15 14  1  0  0  0
 14 12  1  0  0  0
  1  2  1  0  0  0
  1 23  1  0  0  0
 26 27  1  0  0  0
 26 23  1  0  0  0
 27 40  1  0  0  0
 12 13  2  0  0  0
 12 10  1  0  0  0
  2  3  1  0  0  0
 11 10  2  0  0  0
 11  6  1  0  0  0
 23 24  1  0  0  0
  3  4  2  0  0  0
  3  6  1  0  0  0
 10  9  1  0  0  0
 40 41  1  0  0  0
  6  7  2  0  0  0
  9  8  2  0  0  0
 42 41  1  0  0  0
 41 43  1  0  0  0
  7  8  1  0  0  0
 38 39  1  0  0  0
 24 25  1  0  0  0
  2  5  1  0  0  0
M  END
> <minimizedAffinity>
-9.56792

$$$$
5UPZ_8HD_A_201


 50 53  0  0  0  0  0  0  0  0999 V2000
   15.2332   22.7321   17.0100 C   0  0  0  0  0  0  0  0  0  0  0  0
   14.5591   21.6327   17.7433 N   0  0  0  0  0  0  0  0  0  0  0  0
   15.0744   20.3780   17.7276 C   0  0  0  0  0  0  0  0  0  0  0  0
   16.1006   20.0195   17.2913 O   0  0  0  0  0  0  0  0  0  0  0  0
   13.7319   21.8151   18.2450 H   0  0  0  0  0  0  0  0  0  0  0  0
   14.1536   19.3211   18.3644 C   0  0  0  0  0  0  0  0  0  0  0  0
   14.0686   19.1774   19.7401 C   0  0  0  0  0  0  0  0  0  0  0  0
   13.1811   18.2185   20.2957 C   0  0  0  0  0  0  0  0  0  0  0  0
   12.4416   17.4040   19.4649 C   0  0  0  0  0  0  0  0  0  0  0  0
   12.5379   17.5505   18.0820 C   0  0  0  0  0  0  0  0  0  0  0  0
   13.3128   18.5582   17.5254 C   0  0  0  0  0  0  0  0  0  0  0  0
   11.6553   16.7672   17.1331 C   0  0  0  0  0  0  0  0  0  0  0  0
   12.1486   15.7408   16.6914 O   0  0  0  0  0  0  0  0  0  0  0  0
   10.4431   17.2120   16.8885 N   0  0  0  0  0  0  0  0  0  0  0  0
    9.8875   18.4228   17.5210 C   0  0  0  0  0  0  0  0  0  0  0  0
    9.6276   16.5221   15.8541 C   0  0  0  0  0  0  0  0  0  0  0  0
    9.6394   17.3495   14.5864 C   0  0  0  0  0  0  0  0  0  0  0  0
   10.5315   17.2120   13.6155 N   0  0  0  0  0  0  0  0  0  0  0  0
   10.3089   18.1750   12.7142 C   0  0  0  0  0  0  0  0  0  0  0  0
    9.2355   18.8675   13.0708 C   0  0  0  0  0  0  0  0  0  0  0  0
    9.0181   18.5461   14.4108 O   0  0  0  0  0  0  0  0  0  0  0  0
   10.8728   18.0596   11.4719 C   0  0  0  0  0  0  0  0  0  0  0  0
   15.5904   23.8407   18.0208 C   0  0  0  0  0  0  0  0  0  0  0  0
   14.4194   24.6592   18.3047 O   0  0  0  0  0  0  0  0  0  0  0  0
   14.1108   25.0773   17.4856 H   0  0  0  0  0  0  0  0  0  0  0  0
   16.6896   24.7687   17.4256 C   0  0  0  0  0  0  0  0  0  0  0  0
   17.9752   24.4449   18.0108 N   0  0  0  0  0  0  0  0  0  0  0  0
   19.3088   24.9926   17.2242 S   0  0  0  0  0  0  0  0  0  0  0  0
   18.8812   26.2121   16.5171 O   0  0  0  0  0  0  0  0  0  0  0  0
   19.8964   23.8735   16.4739 O   0  0  0  0  0  0  0  0  0  0  0  0
   22.4350   26.1658   20.2830 C   0  0  0  0  0  0  0  0  0  0  0  0
   22.3419   24.8341   19.8875 C   0  0  0  0  0  0  0  0  0  0  0  0
   21.3528   24.4837   18.9573 C   0  0  0  0  0  0  0  0  0  0  0  0
   20.4971   25.4587   18.4370 C   0  0  0  0  0  0  0  0  0  0  0  0
   20.6217   26.7717   18.8115 C   0  0  0  0  0  0  0  0  0  0  0  0
   21.5770   27.1041   19.7445 C   0  0  0  0  0  0  0  0  0  0  0  0
   23.4832   26.6503   21.3179 C   0  0  0  0  0  0  0  0  0  0  0  0
   22.7463   27.5707   22.1732 O   0  0  0  0  0  0  0  0  0  0  0  0
   22.3708   28.2837   21.6332 H   0  0  0  0  0  0  0  0  0  0  0  0
   18.1551   24.3215   19.4552 C   0  0  0  0  0  0  0  0  0  0  0  0
   18.1082   22.8424   19.9558 C   0  0  0  0  0  0  0  0  0  0  0  0
   18.5590   21.8489   18.8880 C   0  0  0  0  0  0  0  0  0  0  0  0
   19.0379   22.7899   21.1907 C   0  0  0  0  0  0  0  0  0  0  0  0
   14.2547   23.1814   15.9092 C   0  0  0  0  0  0  0  0  0  0  0  0
   15.1025   21.6068   14.1846 C   0  0  0  0  0  0  0  0  0  0  0  0
   14.8834   20.5843   13.2129 C   0  0  0  0  0  0  0  0  0  0  0  0
   13.6650   19.9159   13.1050 C   0  0  0  0  0  0  0  0  0  0  0  0
   12.6253   20.3058   13.9524 C   0  0  0  0  0  0  0  0  0  0  0  0
   12.8040   21.3562   14.8852 C   0  0  0  0  0  0  0  0  0  0  0  0
   14.0278   22.0072   14.9778 C   0  0  0  0  0  0  0  0  0  0  0  0
 20 21  1  0  0  0
 20 19  2  0  0  0
 21 17  1  0  0  0
 47 48  2  0  0  0
 47 46  1  0  0  0
 22 19  1  0  0  0
 48 49  1  0  0  0
 19 18  1  0  0  0
 37 31  1  0  0  0
 37 38  1  0  0  0
 46 45  2  0  0  0
 49 50  2  0  0  0
 36 31  2  0  0  0
 36 35  1  0  0  0
 31 32  1  0  0  0
 17 18  2  0  0  0
 17 16  1  0  0  0
 45 50  1  0  0  0
 35 34  2  0  0  0
 50 44  1  0  0  0
 29 28  2  0  0  0
 32 33  2  0  0  0
 34 33  1  0  0  0
 34 28  1  0  0  0
 16 14  1  0  0  0
 44  1  1  0  0  0
 28 30  2  0  0  0
 28 27  1  0  0  0
 15 14  1  0  0  0
 14 12  1  0  0  0
  1  2  1  0  0  0
  1 23  1  0  0  0
 26 27  1  0  0  0
 26 23  1  0  0  0
 27 40  1  0  0  0
 12 13  2  0  0  0
 12 10  1  0  0  0
  2  3  1  0  0  0
 11 10  2  0  0  0
 11  6  1  0  0  0
 23 24  1  0  0  0
  3  4  2  0  0  0
  3  6  1  0  0  0
 10  9  1  0  0  0
 40 41  1  0  0  0
  6  7  2  0  0  0
  9  8  2  0  0  0
 42 41  1  0  0  0
 41 43  1  0  0  0
  7  8  1  0  0  0
 38 39  1  0  0  0
 24 25  1  0  0  0
  2  5  1  0  0  0
M  END
> <minimizedAffinity>
-9.39500

$$$$
5UPZ_8HD_A_201


 50 53  0  0  0  0  0  0  0  0999 V2000
   16.4007   23.2505   16.7545 C   0  0  0  0  0  0  0  0  0  0  0  0
   17.2521   24.2803   16.1097 N   0  0  0  0  0  0  0  0  0  0  0  0
   18.5866   24.0807   15.9703 C   0  0  0  0  0  0  0  0  0  0  0  0
   19.2026   23.1089   16.1897 O   0  0  0  0  0  0  0  0  0  0  0  0
   16.8457   25.1144   15.7807 H   0  0  0  0  0  0  0  0  0  0  0  0
   19.3501   25.3199   15.4684 C   0  0  0  0  0  0  0  0  0  0  0  0
   18.7588   26.2263   14.6028 C   0  0  0  0  0  0  0  0  0  0  0  0
   19.4777   27.3786   14.1891 C   0  0  0  0  0  0  0  0  0  0  0  0
   20.7756   27.5680   14.6134 C   0  0  0  0  0  0  0  0  0  0  0  0
   21.3653   26.6479   15.4787 C   0  0  0  0  0  0  0  0  0  0  0  0
   20.6391   25.5783   15.9829 C   0  0  0  0  0  0  0  0  0  0  0  0
   22.7405   26.8766   16.0701 C   0  0  0  0  0  0  0  0  0  0  0  0
   23.6719   26.4652   15.3953 O   0  0  0  0  0  0  0  0  0  0  0  0
   22.8356   27.5160   17.2143 N   0  0  0  0  0  0  0  0  0  0  0  0
   21.6667   28.0524   17.9358 C   0  0  0  0  0  0  0  0  0  0  0  0
   24.1699   27.6195   17.8625 C   0  0  0  0  0  0  0  0  0  0  0  0
   24.1817   26.7533   19.1040 C   0  0  0  0  0  0  0  0  0  0  0  0
   24.0548   27.2193   20.3386 N   0  0  0  0  0  0  0  0  0  0  0  0
   24.2257   26.1962   21.1831 C   0  0  0  0  0  0  0  0  0  0  0  0
   24.3803   25.0772   20.4881 C   0  0  0  0  0  0  0  0  0  0  0  0
   24.6740   25.4886   19.1879 O   0  0  0  0  0  0  0  0  0  0  0  0
   23.8266   26.3409   22.4847 C   0  0  0  0  0  0  0  0  0  0  0  0
   15.1736   23.0036   15.8537 C   0  0  0  0  0  0  0  0  0  0  0  0
   14.5370   24.2687   15.5126 O   0  0  0  0  0  0  0  0  0  0  0  0
   14.2398   24.7101   16.3236 H   0  0  0  0  0  0  0  0  0  0  0  0
   14.1281   22.1302   16.6073 C   0  0  0  0  0  0  0  0  0  0  0  0
   14.5416   20.7414   16.5855 N   0  0  0  0  0  0  0  0  0  0  0  0
   14.3406   19.8844   17.9720 S   0  0  0  0  0  0  0  0  0  0  0  0
   14.0826   20.8833   19.0235 O   0  0  0  0  0  0  0  0  0  0  0  0
   15.4659   18.9482   18.1052 O   0  0  0  0  0  0  0  0  0  0  0  0
   10.6299   17.3162   17.5979 C   0  0  0  0  0  0  0  0  0  0  0  0
   11.8742   16.6980   17.6872 C   0  0  0  0  0  0  0  0  0  0  0  0
   13.0149   17.5084   17.7786 C   0  0  0  0  0  0  0  0  0  0  0  0
   12.8915   18.9006   17.7928 C   0  0  0  0  0  0  0  0  0  0  0  0
   11.6572   19.4947   17.7367 C   0  0  0  0  0  0  0  0  0  0  0  0
   10.5440   18.6941   17.6205 C   0  0  0  0  0  0  0  0  0  0  0  0
    9.3116   16.5088   17.4765 C   0  0  0  0  0  0  0  0  0  0  0  0
    8.5708   17.1852   16.4204 O   0  0  0  0  0  0  0  0  0  0  0  0
    8.4393   18.1153   16.6624 H   0  0  0  0  0  0  0  0  0  0  0  0
   14.4494   19.9291   15.3749 C   0  0  0  0  0  0  0  0  0  0  0  0
   13.7931   20.6858   14.1760 C   0  0  0  0  0  0  0  0  0  0  0  0
   14.7621   20.8946   13.0151 C   0  0  0  0  0  0  0  0  0  0  0  0
   12.5880   19.8180   13.7441 C   0  0  0  0  0  0  0  0  0  0  0  0
   16.0511   23.7921   18.1529 C   0  0  0  0  0  0  0  0  0  0  0  0
   17.3606   22.0297   19.3152 C   0  0  0  0  0  0  0  0  0  0  0  0
   18.3203   21.6287   20.2928 C   0  0  0  0  0  0  0  0  0  0  0  0
   19.1263   22.5504   20.9592 C   0  0  0  0  0  0  0  0  0  0  0  0
   18.9409   23.9064   20.6804 C   0  0  0  0  0  0  0  0  0  0  0  0
   17.9556   24.3295   19.7554 C   0  0  0  0  0  0  0  0  0  0  0  0
   17.1649   23.3936   19.1005 C   0  0  0  0  0  0  0  0  0  0  0  0
 20 21  1  0  0  0
 20 19  2  0  0  0
 21 17  1  0  0  0
 47 48  2  0  0  0
 47 46  1  0  0  0
 22 19  1  0  0  0
 48 49  1  0  0  0
 19 18  1  0  0  0
 37 31  1  0  0  0
 37 38  1  0  0  0
 46 45  2  0  0  0
 49 50  2  0  0  0
 36 31  2  0  0  0
 36 35  1  0  0  0
 31 32  1  0  0  0
 17 18  2  0  0  0
 17 16  1  0  0  0
 45 50  1  0  0  0
 35 34  2  0  0  0
 50 44  1  0  0  0
 29 28  2  0  0  0
 32 33  2  0  0  0
 34 33  1  0  0  0
 34 28  1  0  0  0
 16 14  1  0  0  0
 44  1  1  0  0  0
 28 30  2  0  0  0
 28 27  1  0  0  0
 15 14  1  0  0  0
 14 12  1  0  0  0
  1  2  1  0  0  0
  1 23  1  0  0  0
 26 27  1  0  0  0
 26 23  1  0  0  0
 27 40  1  0  0  0
 12 13  2  0  0  0
 12 10  1  0  0  0
  2  3  1  0  0  0
 11 10  2  0  0  0
 11  6  1  0  0  0
 23 24  1  0  0  0
  3  4  2  0  0  0
  3  6  1  0  0  0
 10  9  1  0  0  0
 40 41  1  0  0  0
  6  7  2  0  0  0
  9  8  2  0  0  0
 42 41  1  0  0  0
 41 43  1  0  0  0
  7  8  1  0  0  0
 38 39  1  0  0  0
 24 25  1  0  0  0
  2  5  1  0  0  0
M  END
> <minimizedAffinity>
-9.29584

$$$$
5UPZ_8HD_A_201


 50 53  0  0  0  0  0  0  0  0999 V2000
   17.1818   21.8208   18.2336 C   0  0  0  0  0  0  0  0  0  0  0  0
   16.1100   20.8027   18.3591 N   0  0  0  0  0  0  0  0  0  0  0  0
   14.8905   21.1440   18.8455 C   0  0  0  0  0  0  0  0  0  0  0  0
   14.4808   22.2128   19.0942 O   0  0  0  0  0  0  0  0  0  0  0  0
   16.2851   19.8728   18.0875 H   0  0  0  0  0  0  0  0  0  0  0  0
   13.9646   19.9404   19.0987 C   0  0  0  0  0  0  0  0  0  0  0  0
   14.1968   19.0630   20.1459 C   0  0  0  0  0  0  0  0  0  0  0  0
   13.3018   17.9848   20.3745 C   0  0  0  0  0  0  0  0  0  0  0  0
   12.2319   17.7884   19.5277 C   0  0  0  0  0  0  0  0  0  0  0  0
   12.0092   18.6717   18.4726 C   0  0  0  0  0  0  0  0  0  0  0  0
   12.8069   19.7947   18.3040 C   0  0  0  0  0  0  0  0  0  0  0  0
   10.7804   18.5710   17.5933 C   0  0  0  0  0  0  0  0  0  0  0  0
   10.0114   19.5174   17.6637 O   0  0  0  0  0  0  0  0  0  0  0  0
   10.6499   17.5230   16.8111 N   0  0  0  0  0  0  0  0  0  0  0  0
   11.6613   16.4534   16.7237 C   0  0  0  0  0  0  0  0  0  0  0  0
    9.3821   17.3552   16.0525 C   0  0  0  0  0  0  0  0  0  0  0  0
    9.5589   17.9351   14.6653 C   0  0  0  0  0  0  0  0  0  0  0  0
    9.0284   19.0819   14.2642 N   0  0  0  0  0  0  0  0  0  0  0  0
    9.2923   19.2224   12.9604 C   0  0  0  0  0  0  0  0  0  0  0  0
   10.0514   18.2124   12.5570 C   0  0  0  0  0  0  0  0  0  0  0  0
    9.9410   17.2461   13.5571 O   0  0  0  0  0  0  0  0  0  0  0  0
    9.1414   20.4558   12.3856 C   0  0  0  0  0  0  0  0  0  0  0  0
   17.7359   21.7657   16.7954 C   0  0  0  0  0  0  0  0  0  0  0  0
   18.4354   20.5074   16.5736 O   0  0  0  0  0  0  0  0  0  0  0  0
   19.1788   20.4372   17.1928 H   0  0  0  0  0  0  0  0  0  0  0  0
   18.7523   22.9237   16.5726 C   0  0  0  0  0  0  0  0  0  0  0  0
   18.2212   23.8639   15.6061 N   0  0  0  0  0  0  0  0  0  0  0  0
   16.7722   24.5524   15.9578 S   0  0  0  0  0  0  0  0  0  0  0  0
   16.6876   25.7558   15.1125 O   0  0  0  0  0  0  0  0  0  0  0  0
   16.6569   24.6684   17.4186 O   0  0  0  0  0  0  0  0  0  0  0  0
   13.5729   21.6184   14.6690 C   0  0  0  0  0  0  0  0  0  0  0  0
   14.8271   21.5590   14.0675 C   0  0  0  0  0  0  0  0  0  0  0  0
   15.7989   22.4901   14.4613 C   0  0  0  0  0  0  0  0  0  0  0  0
   15.5077   23.4402   15.4442 C   0  0  0  0  0  0  0  0  0  0  0  0
   14.2785   23.4659   16.0508 C   0  0  0  0  0  0  0  0  0  0  0  0
   13.3212   22.5664   15.6408 C   0  0  0  0  0  0  0  0  0  0  0  0
   12.4268   20.6447   14.2909 C   0  0  0  0  0  0  0  0  0  0  0  0
   11.3606   20.9606   15.2317 O   0  0  0  0  0  0  0  0  0  0  0  0
   11.6860   20.8487   16.1386 H   0  0  0  0  0  0  0  0  0  0  0  0
   19.0930   24.7120   14.7969 C   0  0  0  0  0  0  0  0  0  0  0  0
   20.4187   25.1022   15.5255 C   0  0  0  0  0  0  0  0  0  0  0  0
   21.5280   25.4927   14.5522 C   0  0  0  0  0  0  0  0  0  0  0  0
   20.0528   26.2842   16.4534 C   0  0  0  0  0  0  0  0  0  0  0  0
   18.2232   21.4884   19.3180 C   0  0  0  0  0  0  0  0  0  0  0  0
   20.1042   23.1113   19.3341 C   0  0  0  0  0  0  0  0  0  0  0  0
   20.7480   24.2700   19.8639 C   0  0  0  0  0  0  0  0  0  0  0  0
   20.1047   25.1335   20.7491 C   0  0  0  0  0  0  0  0  0  0  0  0
   18.8069   24.8118   21.1531 C   0  0  0  0  0  0  0  0  0  0  0  0
   18.1704   23.6371   20.6835 C   0  0  0  0  0  0  0  0  0  0  0  0
   18.8291   22.7917   19.7995 C   0  0  0  0  0  0  0  0  0  0  0  0
 20 21  1  0  0  0
 20 19  2  0  0  0
 21 17  1  0  0  0
 47 48  2  0  0  0
 47 46  1  0  0  0
 22 19  1  0  0  0
 48 49  1  0  0  0
 19 18  1  0  0  0
 37 31  1  0  0  0
 37 38  1  0  0  0
 46 45  2  0  0  0
 49 50  2  0  0  0
 36 31  2  0  0  0
 36 35  1  0  0  0
 31 32  1  0  0  0
 17 18  2  0  0  0
 17 16  1  0  0  0
 45 50  1  0  0  0
 35 34  2  0  0  0
 50 44  1  0  0  0
 29 28  2  0  0  0
 32 33  2  0  0  0
 34 33  1  0  0  0
 34 28  1  0  0  0
 16 14  1  0  0  0
 44  1  1  0  0  0
 28 30  2  0  0  0
 28 27  1  0  0  0
 15 14  1  0  0  0
 14 12  1  0  0  0
  1  2  1  0  0  0
  1 23  1  0  0  0
 26 27  1  0  0  0
 26 23  1  0  0  0
 27 40  1  0  0  0
 12 13  2  0  0  0
 12 10  1  0  0  0
  2  3  1  0  0  0
 11 10  2  0  0  0
 11  6  1  0  0  0
 23 24  1  0  0  0
  3  4  2  0  0  0
  3  6  1  0  0  0
 10  9  1  0  0  0
 40 41  1  0  0  0
  6  7  2  0  0  0
  9  8  2  0  0  0
 42 41  1  0  0  0
 41 43  1  0  0  0
  7  8  1  0  0  0
 38 39  1  0  0  0
 24 25  1  0  0  0
  2  5  1  0  0  0
M  END
> <minimizedAffinity>
-9.25806

$$$$
5UPZ_8HD_A_201


 50 53  0  0  0  0  0  0  0  0999 V2000
   22.3676   26.1086   19.4762 C   0  0  0  0  0  0  0  0  0  0  0  0
   21.4507   24.9489   19.5996 N   0  0  0  0  0  0  0  0  0  0  0  0
   20.1590   25.0472   19.1970 C   0  0  0  0  0  0  0  0  0  0  0  0
   19.6425   25.9270   18.6215 O   0  0  0  0  0  0  0  0  0  0  0  0
   21.7820   24.1018   19.9764 H   0  0  0  0  0  0  0  0  0  0  0  0
   19.2964   23.8298   19.5768 C   0  0  0  0  0  0  0  0  0  0  0  0
   19.7107   22.9299   20.5457 C   0  0  0  0  0  0  0  0  0  0  0  0
   18.8738   21.8388   20.8990 C   0  0  0  0  0  0  0  0  0  0  0  0
   17.6741   21.6533   20.2458 C   0  0  0  0  0  0  0  0  0  0  0  0
   17.2677   22.5595   19.2676 C   0  0  0  0  0  0  0  0  0  0  0  0
   18.0190   23.6930   18.9915 C   0  0  0  0  0  0  0  0  0  0  0  0
   15.9055   22.4690   18.6125 C   0  0  0  0  0  0  0  0  0  0  0  0
   15.2529   23.5015   18.6244 O   0  0  0  0  0  0  0  0  0  0  0  0
   15.5468   21.3319   18.0597 N   0  0  0  0  0  0  0  0  0  0  0  0
   16.4226   20.1463   18.0175 C   0  0  0  0  0  0  0  0  0  0  0  0
   14.1600   21.2001   17.5397 C   0  0  0  0  0  0  0  0  0  0  0  0
   14.1379   21.6223   16.0861 C   0  0  0  0  0  0  0  0  0  0  0  0
   14.9365   21.1230   15.1532 N   0  0  0  0  0  0  0  0  0  0  0  0
   14.7214   21.8031   14.0217 C   0  0  0  0  0  0  0  0  0  0  0  0
   13.7385   22.6724   14.2147 C   0  0  0  0  0  0  0  0  0  0  0  0
   13.6027   22.7736   15.5993 O   0  0  0  0  0  0  0  0  0  0  0  0
   15.1743   21.2794   12.8405 C   0  0  0  0  0  0  0  0  0  0  0  0
   22.8322   26.2044   18.0088 C   0  0  0  0  0  0  0  0  0  0  0  0
   24.2679   25.9746   17.9195 O   0  0  0  0  0  0  0  0  0  0  0  0
   24.7361   26.6495   18.4354 H   0  0  0  0  0  0  0  0  0  0  0  0
   22.5402   27.6281   17.4507 C   0  0  0  0  0  0  0  0  0  0  0  0
   22.7788   27.6537   16.0215 N   0  0  0  0  0  0  0  0  0  0  0  0
   21.5024   28.0371   15.0618 S   0  0  0  0  0  0  0  0  0  0  0  0
   22.0398   28.1022   13.6918 O   0  0  0  0  0  0  0  0  0  0  0  0
   20.8203   29.2027   15.6420 O   0  0  0  0  0  0  0  0  0  0  0  0
   18.5793   24.5890   15.3299 C   0  0  0  0  0  0  0  0  0  0  0  0
   19.9414   24.3330   15.4629 C   0  0  0  0  0  0  0  0  0  0  0  0
   20.8345   25.4086   15.3536 C   0  0  0  0  0  0  0  0  0  0  0  0
   20.3558   26.7027   15.1306 C   0  0  0  0  0  0  0  0  0  0  0  0
   19.0098   26.9444   15.0339 C   0  0  0  0  0  0  0  0  0  0  0  0
   18.1407   25.8806   15.1158 C   0  0  0  0  0  0  0  0  0  0  0  0
   17.5138   23.4659   15.4182 C   0  0  0  0  0  0  0  0  0  0  0  0
   16.2930   24.1574   15.8096 O   0  0  0  0  0  0  0  0  0  0  0  0
   16.4402   24.6241   16.6472 H   0  0  0  0  0  0  0  0  0  0  0  0
   24.0710   28.0437   15.4630 C   0  0  0  0  0  0  0  0  0  0  0  0
   24.5722   29.4289   15.9835 C   0  0  0  0  0  0  0  0  0  0  0  0
   25.7963   29.3061   16.8872 C   0  0  0  0  0  0  0  0  0  0  0  0
   24.8967   30.2576   14.7186 C   0  0  0  0  0  0  0  0  0  0  0  0
   23.5103   25.8651   20.4792 C   0  0  0  0  0  0  0  0  0  0  0  0
   21.8432   27.0564   21.8840 C   0  0  0  0  0  0  0  0  0  0  0  0
   21.4553   27.6610   23.1176 C   0  0  0  0  0  0  0  0  0  0  0  0
   22.2085   27.5152   24.2814 C   0  0  0  0  0  0  0  0  0  0  0  0
   23.3998   26.7900   24.2055 C   0  0  0  0  0  0  0  0  0  0  0  0
   23.8318   26.2295   22.9788 C   0  0  0  0  0  0  0  0  0  0  0  0
   23.0641   26.3847   21.8314 C   0  0  0  0  0  0  0  0  0  0  0  0
 20 21  1  0  0  0
 20 19  2  0  0  0
 21 17  1  0  0  0
 47 48  2  0  0  0
 47 46  1  0  0  0
 22 19  1  0  0  0
 48 49  1  0  0  0
 19 18  1  0  0  0
 37 31  1  0  0  0
 37 38  1  0  0  0
 46 45  2  0  0  0
 49 50  2  0  0  0
 36 31  2  0  0  0
 36 35  1  0  0  0
 31 32  1  0  0  0
 17 18  2  0  0  0
 17 16  1  0  0  0
 45 50  1  0  0  0
 35 34  2  0  0  0
 50 44  1  0  0  0
 29 28  2  0  0  0
 32 33  2  0  0  0
 34 33  1  0  0  0
 34 28  1  0  0  0
 16 14  1  0  0  0
 44  1  1  0  0  0
 28 30  2  0  0  0
 28 27  1  0  0  0
 15 14  1  0  0  0
 14 12  1  0  0  0
  1  2  1  0  0  0
  1 23  1  0  0  0
 26 27  1  0  0  0
 26 23  1  0  0  0
 27 40  1  0  0  0
 12 13  2  0  0  0
 12 10  1  0  0  0
  2  3  1  0  0  0
 11 10  2  0  0  0
 11  6  1  0  0  0
 23 24  1  0  0  0
  3  4  2  0  0  0
  3  6  1  0  0  0
 10  9  1  0  0  0
 40 41  1  0  0  0
  6  7  2  0  0  0
  9  8  2  0  0  0
 42 41  1  0  0  0
 41 43  1  0  0  0
  7  8  1  0  0  0
 38 39  1  0  0  0
 24 25  1  0  0  0
  2  5  1  0  0  0
M  END
> <minimizedAffinity>
-9.24471

$$$$
5UPZ_8HD_A_201


 50 53  0  0  0  0  0  0  0  0999 V2000
   16.1013   22.6458   16.7433 C   0  0  0  0  0  0  0  0  0  0  0  0
   16.8894   23.7117   16.0771 N   0  0  0  0  0  0  0  0  0  0  0  0
   18.2429   23.6365   16.0259 C   0  0  0  0  0  0  0  0  0  0  0  0
   18.9336   22.7463   16.3458 O   0  0  0  0  0  0  0  0  0  0  0  0
   16.4267   24.4790   15.6692 H   0  0  0  0  0  0  0  0  0  0  0  0
   18.9148   24.9108   15.4827 C   0  0  0  0  0  0  0  0  0  0  0  0
   18.2342   25.7813   14.6465 C   0  0  0  0  0  0  0  0  0  0  0  0
   18.8707   26.9670   14.1938 C   0  0  0  0  0  0  0  0  0  0  0  0
   20.1770   27.2249   14.5506 C   0  0  0  0  0  0  0  0  0  0  0  0
   20.8569   26.3406   15.3866 C   0  0  0  0  0  0  0  0  0  0  0  0
   20.2134   25.2376   15.9298 C   0  0  0  0  0  0  0  0  0  0  0  0
   22.2469   26.6424   15.9062 C   0  0  0  0  0  0  0  0  0  0  0  0
   23.1622   26.1830   15.2405 O   0  0  0  0  0  0  0  0  0  0  0  0
   22.3690   27.3869   16.9822 N   0  0  0  0  0  0  0  0  0  0  0  0
   21.2158   27.9718   17.6911 C   0  0  0  0  0  0  0  0  0  0  0  0
   23.7222   27.5689   17.5713 C   0  0  0  0  0  0  0  0  0  0  0  0
   23.8162   26.7582   18.8464 C   0  0  0  0  0  0  0  0  0  0  0  0
   23.6593   27.2619   20.0626 N   0  0  0  0  0  0  0  0  0  0  0  0
   23.9223   26.2921   20.9455 C   0  0  0  0  0  0  0  0  0  0  0  0
   24.1660   25.1628   20.2944 C   0  0  0  0  0  0  0  0  0  0  0  0
   24.4144   25.5440   18.9756 O   0  0  0  0  0  0  0  0  0  0  0  0
   23.5218   26.4559   22.2445 C   0  0  0  0  0  0  0  0  0  0  0  0
   14.8989   22.2979   15.8425 C   0  0  0  0  0  0  0  0  0  0  0  0
   13.6529   22.6598   16.5044 O   0  0  0  0  0  0  0  0  0  0  0  0
   13.5707   22.1626   17.3332 H   0  0  0  0  0  0  0  0  0  0  0  0
   14.8667   20.7659   15.5672 C   0  0  0  0  0  0  0  0  0  0  0  0
   13.5624   20.2334   15.9068 N   0  0  0  0  0  0  0  0  0  0  0  0
   12.4433   20.1861   14.7056 S   0  0  0  0  0  0  0  0  0  0  0  0
   13.1681   19.7385   13.5037 O   0  0  0  0  0  0  0  0  0  0  0  0
   11.7197   21.4655   14.6960 O   0  0  0  0  0  0  0  0  0  0  0  0
    9.4759   16.9440   15.7957 C   0  0  0  0  0  0  0  0  0  0  0  0
   10.4173   16.6927   14.8011 C   0  0  0  0  0  0  0  0  0  0  0  0
   11.3135   17.7157   14.4592 C   0  0  0  0  0  0  0  0  0  0  0  0
   11.2617   18.9475   15.1176 C   0  0  0  0  0  0  0  0  0  0  0  0
   10.3503   19.1694   16.1174 C   0  0  0  0  0  0  0  0  0  0  0  0
    9.4567   18.1705   16.4295 C   0  0  0  0  0  0  0  0  0  0  0  0
    8.4318   15.8844   16.2334 C   0  0  0  0  0  0  0  0  0  0  0  0
    8.2482   16.1265   17.6580 O   0  0  0  0  0  0  0  0  0  0  0  0
    9.1016   16.0461   18.1122 H   0  0  0  0  0  0  0  0  0  0  0  0
   13.3964   19.1802   16.9053 C   0  0  0  0  0  0  0  0  0  0  0  0
   14.5836   19.1011   17.9177 C   0  0  0  0  0  0  0  0  0  0  0  0
   14.3190   19.8975   19.1928 C   0  0  0  0  0  0  0  0  0  0  0  0
   14.7665   17.5975   18.2301 C   0  0  0  0  0  0  0  0  0  0  0  0
   15.7078   23.1987   18.1255 C   0  0  0  0  0  0  0  0  0  0  0  0
   17.4748   24.1171   19.6108 C   0  0  0  0  0  0  0  0  0  0  0  0
   18.6507   23.9495   20.4025 C   0  0  0  0  0  0  0  0  0  0  0  0
   19.1532   22.6893   20.7224 C   0  0  0  0  0  0  0  0  0  0  0  0
   18.4973   21.5704   20.2039 C   0  0  0  0  0  0  0  0  0  0  0  0
   17.3620   21.7159   19.3699 C   0  0  0  0  0  0  0  0  0  0  0  0
   16.8764   22.9815   19.0660 C   0  0  0  0  0  0  0  0  0  0  0  0
 20 21  1  0  0  0
 20 19  2  0  0  0
 21 17  1  0  0  0
 47 48  2  0  0  0
 47 46  1  0  0  0
 22 19  1  0  0  0
 48 49  1  0  0  0
 19 18  1  0  0  0
 37 31  1  0  0  0
 37 38  1  0  0  0
 46 45  2  0  0  0
 49 50  2  0  0  0
 36 31  2  0  0  0
 36 35  1  0  0  0
 31 32  1  0  0  0
 17 18  2  0  0  0
 17 16  1  0  0  0
 45 50  1  0  0  0
 35 34  2  0  0  0
 50 44  1  0  0  0
 29 28  2  0  0  0
 32 33  2  0  0  0
 34 33  1  0  0  0
 34 28  1  0  0  0
 16 14  1  0  0  0
 44  1  1  0  0  0
 28 30  2  0  0  0
 28 27  1  0  0  0
 15 14  1  0  0  0
 14 12  1  0  0  0
  1  2  1  0  0  0
  1 23  1  0  0  0
 26 27  1  0  0  0
 26 23  1  0  0  0
 27 40  1  0  0  0
 12 13  2  0  0  0
 12 10  1  0  0  0
  2  3  1  0  0  0
 11 10  2  0  0  0
 11  6  1  0  0  0
 23 24  1  0  0  0
  3  4  2  0  0  0
  3  6  1  0  0  0
 10  9  1  0  0  0
 40 41  1  0  0  0
  6  7  2  0  0  0
  9  8  2  0  0  0
 42 41  1  0  0  0
 41 43  1  0  0  0
  7  8  1  0  0  0
 38 39  1  0  0  0
 24 25  1  0  0  0
  2  5  1  0  0  0
M  END
> <minimizedAffinity>
-9.22032

$$$$
5UPZ_8HD_A_201


 50 53  0  0  0  0  0  0  0  0999 V2000
   21.1855   26.0339   19.9172 C   0  0  0  0  0  0  0  0  0  0  0  0
   19.8625   25.5773   19.4251 N   0  0  0  0  0  0  0  0  0  0  0  0
   19.1661   24.6302   20.1020 C   0  0  0  0  0  0  0  0  0  0  0  0
   19.4050   24.1623   21.1488 O   0  0  0  0  0  0  0  0  0  0  0  0
   19.4873   25.9644   18.6013 H   0  0  0  0  0  0  0  0  0  0  0  0
   17.9168   24.1272   19.3560 C   0  0  0  0  0  0  0  0  0  0  0  0
   16.9634   25.0100   18.8745 C   0  0  0  0  0  0  0  0  0  0  0  0
   15.8421   24.5153   18.1577 C   0  0  0  0  0  0  0  0  0  0  0  0
   15.6828   23.1572   17.9828 C   0  0  0  0  0  0  0  0  0  0  0  0
   16.6431   22.2754   18.4762 C   0  0  0  0  0  0  0  0  0  0  0  0
   17.8009   22.7479   19.0779 C   0  0  0  0  0  0  0  0  0  0  0  0
   16.5768   20.7877   18.2013 C   0  0  0  0  0  0  0  0  0  0  0  0
   17.5813   20.3061   17.7002 O   0  0  0  0  0  0  0  0  0  0  0  0
   15.4915   20.1315   18.5457 N   0  0  0  0  0  0  0  0  0  0  0  0
   14.3451   20.7695   19.2189 C   0  0  0  0  0  0  0  0  0  0  0  0
   15.3695   18.7027   18.1524 C   0  0  0  0  0  0  0  0  0  0  0  0
   13.9493   18.4367   17.7007 C   0  0  0  0  0  0  0  0  0  0  0  0
   13.3014   17.2995   17.9111 N   0  0  0  0  0  0  0  0  0  0  0  0
   12.1240   17.3753   17.2809 C   0  0  0  0  0  0  0  0  0  0  0  0
   11.9934   18.5802   16.7424 C   0  0  0  0  0  0  0  0  0  0  0  0
   13.2787   19.1226   16.7371 O   0  0  0  0  0  0  0  0  0  0  0  0
   11.1424   16.4777   17.6057 C   0  0  0  0  0  0  0  0  0  0  0  0
   21.4301   27.4635   19.3930 C   0  0  0  0  0  0  0  0  0  0  0  0
   20.9106   28.4420   20.3388 O   0  0  0  0  0  0  0  0  0  0  0  0
   19.9552   28.3126   20.4459 H   0  0  0  0  0  0  0  0  0  0  0  0
   20.6894   27.6671   18.0389 C   0  0  0  0  0  0  0  0  0  0  0  0
   21.6471   27.6729   16.9514 N   0  0  0  0  0  0  0  0  0  0  0  0
   21.0391   27.6874   15.4258 S   0  0  0  0  0  0  0  0  0  0  0  0
   22.1620   27.3197   14.5462 O   0  0  0  0  0  0  0  0  0  0  0  0
   20.3290   28.9582   15.2222 O   0  0  0  0  0  0  0  0  0  0  0  0
   17.9282   24.4185   15.0483 C   0  0  0  0  0  0  0  0  0  0  0  0
   17.6511   25.6795   14.5270 C   0  0  0  0  0  0  0  0  0  0  0  0
   18.6157   26.6868   14.6734 C   0  0  0  0  0  0  0  0  0  0  0  0
   19.8267   26.4153   15.3163 C   0  0  0  0  0  0  0  0  0  0  0  0
   20.0988   25.1602   15.7960 C   0  0  0  0  0  0  0  0  0  0  0  0
   19.1373   24.1836   15.6724 C   0  0  0  0  0  0  0  0  0  0  0  0
   16.9207   23.2438   14.9523 C   0  0  0  0  0  0  0  0  0  0  0  0
   17.6807   22.0806   15.3896 O   0  0  0  0  0  0  0  0  0  0  0  0
   18.4617   21.9736   14.8245 H   0  0  0  0  0  0  0  0  0  0  0  0
   22.9457   28.3310   17.0719 C   0  0  0  0  0  0  0  0  0  0  0  0
   24.1152   27.3346   17.3550 C   0  0  0  0  0  0  0  0  0  0  0  0
   24.8714   26.9450   16.0875 C   0  0  0  0  0  0  0  0  0  0  0  0
   25.0460   28.0573   18.3567 C   0  0  0  0  0  0  0  0  0  0  0  0
   22.2126   25.0008   19.4184 C   0  0  0  0  0  0  0  0  0  0  0  0
   24.6642   24.7719   19.7486 C   0  0  0  0  0  0  0  0  0  0  0  0
   25.8091   24.7193   20.5995 C   0  0  0  0  0  0  0  0  0  0  0  0
   25.7428   25.0587   21.9499 C   0  0  0  0  0  0  0  0  0  0  0  0
   24.4990   25.4137   22.4769 C   0  0  0  0  0  0  0  0  0  0  0  0
   23.3400   25.4179   21.6632 C   0  0  0  0  0  0  0  0  0  0  0  0
   23.4293   25.0788   20.3190 C   0  0  0  0  0  0  0  0  0  0  0  0
 20 21  1  0  0  0
 20 19  2  0  0  0
 21 17  1  0  0  0
 47 48  2  0  0  0
 47 46  1  0  0  0
 22 19  1  0  0  0
 48 49  1  0  0  0
 19 18  1  0  0  0
 37 31  1  0  0  0
 37 38  1  0  0  0
 46 45  2  0  0  0
 49 50  2  0  0  0
 36 31  2  0  0  0
 36 35  1  0  0  0
 31 32  1  0  0  0
 17 18  2  0  0  0
 17 16  1  0  0  0
 45 50  1  0  0  0
 35 34  2  0  0  0
 50 44  1  0  0  0
 29 28  2  0  0  0
 32 33  2  0  0  0
 34 33  1  0  0  0
 34 28  1  0  0  0
 16 14  1  0  0  0
 44  1  1  0  0  0
 28 30  2  0  0  0
 28 27  1  0  0  0
 15 14  1  0  0  0
 14 12  1  0  0  0
  1  2  1  0  0  0
  1 23  1  0  0  0
 26 27  1  0  0  0
 26 23  1  0  0  0
 27 40  1  0  0  0
 12 13  2  0  0  0
 12 10  1  0  0  0
  2  3  1  0  0  0
 11 10  2  0  0  0
 11  6  1  0  0  0
 23 24  1  0  0  0
  3  4  2  0  0  0
  3  6  1  0  0  0
 10  9  1  0  0  0
 40 41  1  0  0  0
  6  7  2  0  0  0
  9  8  2  0  0  0
 42 41  1  0  0  0
 41 43  1  0  0  0
  7  8  1  0  0  0
 38 39  1  0  0  0
 24 25  1  0  0  0
  2  5  1  0  0  0
M  END
> <minimizedAffinity>
-9.18720

$$$$
