1NO6_794_A_322


 27 29  0  0  0  0  0  0  0  0999 V2000
   37.6367   26.0879   19.6502 C   0  0  0  0  0  0  0  0  0  0  0  0
   38.3342   25.3722   18.9034 O   0  0  0  0  0  0  0  0  0  0  0  0
   36.4090   25.6265   20.3459 N   0  0  0  0  0  0  0  0  0  0  0  0
   35.6656   26.4993   21.1736 C   0  0  0  0  0  0  0  0  0  0  0  0
   35.9739   26.5297   22.5784 C   0  0  0  0  0  0  0  0  0  0  0  0
   35.2678   27.3887   23.4829 C   0  0  0  0  0  0  0  0  0  0  0  0
   34.2352   28.2352   22.9934 C   0  0  0  0  0  0  0  0  0  0  0  0
   33.8878   28.2391   21.6007 C   0  0  0  0  0  0  0  0  0  0  0  0
   34.6034   27.3657   20.6615 C   0  0  0  0  0  0  0  0  0  0  0  0
   34.2332   27.3924   19.2600 C   0  0  0  0  0  0  0  0  0  0  0  0
   33.1897   28.2559   18.8259 C   0  0  0  0  0  0  0  0  0  0  0  0
   32.4982   29.1067   19.7629 C   0  0  0  0  0  0  0  0  0  0  0  0
   32.8511   29.0898   21.1325 C   0  0  0  0  0  0  0  0  0  0  0  0
   35.9782   24.2609   20.1792 C   0  0  0  0  0  0  0  0  0  0  0  0
   34.9572   24.0018   19.1729 C   0  0  0  0  0  0  0  0  0  0  0  0
   34.4517   22.6813   18.9365 C   0  0  0  0  0  0  0  0  0  0  0  0
   34.9351   21.5882   19.6904 C   0  0  0  0  0  0  0  0  0  0  0  0
   35.9244   21.7785   20.6904 C   0  0  0  0  0  0  0  0  0  0  0  0
   36.4829   23.0904   20.9736 C   0  0  0  0  0  0  0  0  0  0  0  0
   37.5291   23.1800   22.0457 C   0  0  0  0  0  0  0  0  0  0  0  0
   37.2015   23.2085   23.2432 O   0  0  0  0  0  0  0  0  0  0  0  0
   38.6827   23.2214   21.7225 O   0  0  0  0  0  0  0  0  0  0  0  0
   38.9161   23.1991   20.8153 H   0  0  0  0  0  0  0  0  0  0  0  0
   39.1232   27.8030   20.6333 O   0  0  0  0  0  0  0  0  0  0  0  0
   38.1908   27.5144   19.7955 C   0  0  0  0  0  0  0  0  0  0  0  0
   37.7289   28.3756   19.0161 O   0  0  0  0  0  0  0  0  0  0  0  0
   39.4563   27.1433   21.2092 H   0  0  0  0  0  0  0  0  0  0  0  0
 24 25  1  0  0  0
 25 26  2  0  0  0
 25  1  1  0  0  0
  1  2  2  0  0  0
  1  3  1  0  0  0
  3 14  1  0  0  0
  3  4  1  0  0  0
 14 15  2  0  0  0
 14 19  1  0  0  0
 15 16  1  0  0  0
 16 17  2  0  0  0
 17 18  1  0  0  0
 18 19  2  0  0  0
 19 20  1  0  0  0
 20 21  2  0  0  0
 20 22  1  0  0  0
  4  5  2  0  0  0
  4  9  1  0  0  0
  5  6  1  0  0  0
  6  7  2  0  0  0
  7  8  1  0  0  0
  8  9  2  0  0  0
  8 13  1  0  0  0
  9 10  1  0  0  0
 10 11  2  0  0  0
 11 12  1  0  0  0
 12 13  2  0  0  0
 24 27  1  0  0  0
 22 23  1  0  0  0
M  END
> <minimizedAffinity>
-8.56952

$$$$
1NO6_794_A_322


 27 29  0  0  0  0  0  0  0  0999 V2000
   37.6274   25.4580   19.3517 C   0  0  0  0  0  0  0  0  0  0  0  0
   38.5188   24.6313   19.0715 O   0  0  0  0  0  0  0  0  0  0  0  0
   36.2580   25.0958   19.7961 N   0  0  0  0  0  0  0  0  0  0  0  0
   35.2976   26.0910   20.0906 C   0  0  0  0  0  0  0  0  0  0  0  0
   34.2983   26.3851   19.0984 C   0  0  0  0  0  0  0  0  0  0  0  0
   33.2891   27.3781   19.3215 C   0  0  0  0  0  0  0  0  0  0  0  0
   33.2641   28.0977   20.5479 C   0  0  0  0  0  0  0  0  0  0  0  0
   34.2412   27.8434   21.5682 C   0  0  0  0  0  0  0  0  0  0  0  0
   35.2805   26.8278   21.3547 C   0  0  0  0  0  0  0  0  0  0  0  0
   36.2528   26.5902   22.4036 C   0  0  0  0  0  0  0  0  0  0  0  0
   36.1831   27.3419   23.6089 C   0  0  0  0  0  0  0  0  0  0  0  0
   35.1552   28.3353   23.8006 C   0  0  0  0  0  0  0  0  0  0  0  0
   34.2007   28.5754   22.7848 C   0  0  0  0  0  0  0  0  0  0  0  0
   35.9106   23.7040   19.9381 C   0  0  0  0  0  0  0  0  0  0  0  0
   34.9640   23.1516   18.9784 C   0  0  0  0  0  0  0  0  0  0  0  0
   34.5437   21.7824   19.0389 C   0  0  0  0  0  0  0  0  0  0  0  0
   35.0406   20.9289   20.0497 C   0  0  0  0  0  0  0  0  0  0  0  0
   35.9596   21.4110   21.0181 C   0  0  0  0  0  0  0  0  0  0  0  0
   36.4305   22.7862   21.0073 C   0  0  0  0  0  0  0  0  0  0  0  0
   37.4075   23.1911   22.0721 C   0  0  0  0  0  0  0  0  0  0  0  0
   37.0294   23.3531   23.2438 O   0  0  0  0  0  0  0  0  0  0  0  0
   38.5559   23.3522   21.7686 O   0  0  0  0  0  0  0  0  0  0  0  0
   38.8279   23.2267   20.8808 H   0  0  0  0  0  0  0  0  0  0  0  0
   38.7764   27.5084   20.1224 O   0  0  0  0  0  0  0  0  0  0  0  0
   38.0984   26.9140   19.2050 C   0  0  0  0  0  0  0  0  0  0  0  0
   37.8382   27.4791   18.1208 O   0  0  0  0  0  0  0  0  0  0  0  0
   38.9611   27.0677   20.9284 H   0  0  0  0  0  0  0  0  0  0  0  0
 24 25  1  0  0  0
 25 26  2  0  0  0
 25  1  1  0  0  0
  1  2  2  0  0  0
  1  3  1  0  0  0
  3 14  1  0  0  0
  3  4  1  0  0  0
 14 15  2  0  0  0
 14 19  1  0  0  0
 15 16  1  0  0  0
 16 17  2  0  0  0
 17 18  1  0  0  0
 18 19  2  0  0  0
 19 20  1  0  0  0
 20 21  2  0  0  0
 20 22  1  0  0  0
  4  5  2  0  0  0
  4  9  1  0  0  0
  5  6  1  0  0  0
  6  7  2  0  0  0
  7  8  1  0  0  0
  8  9  2  0  0  0
  8 13  1  0  0  0
  9 10  1  0  0  0
 10 11  2  0  0  0
 11 12  1  0  0  0
 12 13  2  0  0  0
 24 27  1  0  0  0
 22 23  1  0  0  0
M  END
> <minimizedAffinity>
-8.19419

$$$$
1NO6_794_A_322


 27 29  0  0  0  0  0  0  0  0999 V2000
   35.2605   27.2987   22.5985 C   0  0  0  0  0  0  0  0  0  0  0  0
   35.2423   26.3307   23.3852 O   0  0  0  0  0  0  0  0  0  0  0  0
   35.0822   27.1879   21.1288 N   0  0  0  0  0  0  0  0  0  0  0  0
   35.1213   28.3323   20.2990 C   0  0  0  0  0  0  0  0  0  0  0  0
   36.3046   28.5613   19.5135 C   0  0  0  0  0  0  0  0  0  0  0  0
   36.4211   29.6965   18.6463 C   0  0  0  0  0  0  0  0  0  0  0  0
   35.3495   30.6267   18.5513 C   0  0  0  0  0  0  0  0  0  0  0  0
   34.1493   30.4443   19.3171 C   0  0  0  0  0  0  0  0  0  0  0  0
   34.0146   29.2852   20.2089 C   0  0  0  0  0  0  0  0  0  0  0  0
   32.7900   29.1249   20.9684 C   0  0  0  0  0  0  0  0  0  0  0  0
   31.7518   30.0882   20.8378 C   0  0  0  0  0  0  0  0  0  0  0  0
   31.9021   31.2202   19.9569 C   0  0  0  0  0  0  0  0  0  0  0  0
   33.0919   31.3868   19.2104 C   0  0  0  0  0  0  0  0  0  0  0  0
   34.8553   25.8897   20.5446 C   0  0  0  0  0  0  0  0  0  0  0  0
   33.5188   25.6117   20.0358 C   0  0  0  0  0  0  0  0  0  0  0  0
   33.1858   24.3479   19.4468 C   0  0  0  0  0  0  0  0  0  0  0  0
   34.1590   23.3277   19.3523 C   0  0  0  0  0  0  0  0  0  0  0  0
   35.4766   23.5360   19.8373 C   0  0  0  0  0  0  0  0  0  0  0  0
   35.8798   24.7967   20.4384 C   0  0  0  0  0  0  0  0  0  0  0  0
   37.2990   24.9145   20.9120 C   0  0  0  0  0  0  0  0  0  0  0  0
   38.1877   25.3144   20.1423 O   0  0  0  0  0  0  0  0  0  0  0  0
   37.5544   24.6174   22.0449 O   0  0  0  0  0  0  0  0  0  0  0  0
   36.8743   24.3172   22.6152 H   0  0  0  0  0  0  0  0  0  0  0  0
   36.5497   29.3316   23.1675 O   0  0  0  0  0  0  0  0  0  0  0  0
   35.4730   28.6430   23.3134 C   0  0  0  0  0  0  0  0  0  0  0  0
   34.5205   29.0657   24.0037 O   0  0  0  0  0  0  0  0  0  0  0  0
   37.2526   28.9972   22.6459 H   0  0  0  0  0  0  0  0  0  0  0  0
 24 25  1  0  0  0
 25 26  2  0  0  0
 25  1  1  0  0  0
  1  2  2  0  0  0
  1  3  1  0  0  0
  3 14  1  0  0  0
  3  4  1  0  0  0
 14 15  2  0  0  0
 14 19  1  0  0  0
 15 16  1  0  0  0
 16 17  2  0  0  0
 17 18  1  0  0  0
 18 19  2  0  0  0
 19 20  1  0  0  0
 20 21  2  0  0  0
 20 22  1  0  0  0
  4  5  2  0  0  0
  4  9  1  0  0  0
  5  6  1  0  0  0
  6  7  2  0  0  0
  7  8  1  0  0  0
  8  9  2  0  0  0
  8 13  1  0  0  0
  9 10  1  0  0  0
 10 11  2  0  0  0
 11 12  1  0  0  0
 12 13  2  0  0  0
 24 27  1  0  0  0
 22 23  1  0  0  0
M  END
> <minimizedAffinity>
-8.02224

$$$$
1NO6_794_A_322


 27 29  0  0  0  0  0  0  0  0999 V2000
   36.2006   23.0784   21.1567 C   0  0  0  0  0  0  0  0  0  0  0  0
   35.5303   22.0265   21.1802 O   0  0  0  0  0  0  0  0  0  0  0  0
   35.8524   24.2763   20.3518 N   0  0  0  0  0  0  0  0  0  0  0  0
   36.6661   25.4326   20.3718 C   0  0  0  0  0  0  0  0  0  0  0  0
   37.6160   25.6129   19.3065 C   0  0  0  0  0  0  0  0  0  0  0  0
   38.4752   26.7589   19.2536 C   0  0  0  0  0  0  0  0  0  0  0  0
   38.3978   27.7482   20.2723 C   0  0  0  0  0  0  0  0  0  0  0  0
   37.4689   27.6127   21.3581 C   0  0  0  0  0  0  0  0  0  0  0  0
   36.5810   26.4447   21.4251 C   0  0  0  0  0  0  0  0  0  0  0  0
   35.6509   26.3352   22.5319 C   0  0  0  0  0  0  0  0  0  0  0  0
   35.6189   27.3525   23.5253 C   0  0  0  0  0  0  0  0  0  0  0  0
   36.4986   28.4924   23.4427 C   0  0  0  0  0  0  0  0  0  0  0  0
   37.4097   28.6105   22.3673 C   0  0  0  0  0  0  0  0  0  0  0  0
   34.6571   24.2582   19.5461 C   0  0  0  0  0  0  0  0  0  0  0  0
   33.5099   25.0095   20.0378 C   0  0  0  0  0  0  0  0  0  0  0  0
   32.2705   25.0466   19.3184 C   0  0  0  0  0  0  0  0  0  0  0  0
   32.1311   24.3394   18.1029 C   0  0  0  0  0  0  0  0  0  0  0  0
   33.2108   23.5831   17.5766 C   0  0  0  0  0  0  0  0  0  0  0  0
   34.4953   23.5107   18.2535 C   0  0  0  0  0  0  0  0  0  0  0  0
   35.5722   22.6891   17.6075 C   0  0  0  0  0  0  0  0  0  0  0  0
   36.1394   23.0925   16.5791 O   0  0  0  0  0  0  0  0  0  0  0  0
   35.8729   21.6406   18.1047 O   0  0  0  0  0  0  0  0  0  0  0  0
   35.4369   21.3480   18.8808 H   0  0  0  0  0  0  0  0  0  0  0  0
   38.6114   22.7679   21.6146 O   0  0  0  0  0  0  0  0  0  0  0  0
   37.4351   23.0184   22.0708 C   0  0  0  0  0  0  0  0  0  0  0  0
   37.2497   23.2818   23.2786 O   0  0  0  0  0  0  0  0  0  0  0  0
   38.7297   22.5726   20.7058 H   0  0  0  0  0  0  0  0  0  0  0  0
 24 25  1  0  0  0
 25 26  2  0  0  0
 25  1  1  0  0  0
  1  2  2  0  0  0
  1  3  1  0  0  0
  3 14  1  0  0  0
  3  4  1  0  0  0
 14 15  2  0  0  0
 14 19  1  0  0  0
 15 16  1  0  0  0
 16 17  2  0  0  0
 17 18  1  0  0  0
 18 19  2  0  0  0
 19 20  1  0  0  0
 20 21  2  0  0  0
 20 22  1  0  0  0
  4  5  2  0  0  0
  4  9  1  0  0  0
  5  6  1  0  0  0
  6  7  2  0  0  0
  7  8  1  0  0  0
  8  9  2  0  0  0
  8 13  1  0  0  0
  9 10  1  0  0  0
 10 11  2  0  0  0
 11 12  1  0  0  0
 12 13  2  0  0  0
 24 27  1  0  0  0
 22 23  1  0  0  0
M  END
> <minimizedAffinity>
-7.63698

$$$$
1NO6_794_A_322


 27 29  0  0  0  0  0  0  0  0999 V2000
   37.7531   25.8749   19.9047 C   0  0  0  0  0  0  0  0  0  0  0  0
   38.4092   25.0669   19.2169 O   0  0  0  0  0  0  0  0  0  0  0  0
   36.6154   25.4992   20.7813 N   0  0  0  0  0  0  0  0  0  0  0  0
   35.9144   26.4742   21.5280 C   0  0  0  0  0  0  0  0  0  0  0  0
   36.3105   26.6986   22.8926 C   0  0  0  0  0  0  0  0  0  0  0  0
   35.6517   27.6705   23.7148 C   0  0  0  0  0  0  0  0  0  0  0  0
   34.5792   28.4373   23.1816 C   0  0  0  0  0  0  0  0  0  0  0  0
   34.1445   28.2485   21.8267 C   0  0  0  0  0  0  0  0  0  0  0  0
   34.8107   27.2574   20.9717 C   0  0  0  0  0  0  0  0  0  0  0  0
   34.3524   27.0899   19.6065 C   0  0  0  0  0  0  0  0  0  0  0  0
   33.2723   27.8811   19.1265 C   0  0  0  0  0  0  0  0  0  0  0  0
   32.6302   28.8495   19.9809 C   0  0  0  0  0  0  0  0  0  0  0  0
   33.0692   29.0223   21.3144 C   0  0  0  0  0  0  0  0  0  0  0  0
   36.2300   24.1134   20.8769 C   0  0  0  0  0  0  0  0  0  0  0  0
   36.6133   23.3964   22.0857 C   0  0  0  0  0  0  0  0  0  0  0  0
   36.2892   22.0128   22.2745 C   0  0  0  0  0  0  0  0  0  0  0  0
   35.5870   21.3029   21.2746 C   0  0  0  0  0  0  0  0  0  0  0  0
   35.1930   21.9449   20.0715 C   0  0  0  0  0  0  0  0  0  0  0  0
   35.4845   23.3470   19.8220 C   0  0  0  0  0  0  0  0  0  0  0  0
   35.0168   23.9298   18.5206 C   0  0  0  0  0  0  0  0  0  0  0  0
   33.8035   24.0558   18.2879 O   0  0  0  0  0  0  0  0  0  0  0  0
   35.8362   24.2713   17.7151 O   0  0  0  0  0  0  0  0  0  0  0  0
   36.7486   24.1707   17.9033 H   0  0  0  0  0  0  0  0  0  0  0  0
   37.8382   28.1037   18.8353 O   0  0  0  0  0  0  0  0  0  0  0  0
   38.2566   27.3208   19.7662 C   0  0  0  0  0  0  0  0  0  0  0  0
   39.0553   27.7207   20.6407 O   0  0  0  0  0  0  0  0  0  0  0  0
   37.2395   27.7849   18.1889 H   0  0  0  0  0  0  0  0  0  0  0  0
 24 25  1  0  0  0
 25 26  2  0  0  0
 25  1  1  0  0  0
  1  2  2  0  0  0
  1  3  1  0  0  0
  3 14  1  0  0  0
  3  4  1  0  0  0
 14 15  2  0  0  0
 14 19  1  0  0  0
 15 16  1  0  0  0
 16 17  2  0  0  0
 17 18  1  0  0  0
 18 19  2  0  0  0
 19 20  1  0  0  0
 20 21  2  0  0  0
 20 22  1  0  0  0
  4  5  2  0  0  0
  4  9  1  0  0  0
  5  6  1  0  0  0
  6  7  2  0  0  0
  7  8  1  0  0  0
  8  9  2  0  0  0
  8 13  1  0  0  0
  9 10  1  0  0  0
 10 11  2  0  0  0
 11 12  1  0  0  0
 12 13  2  0  0  0
 24 27  1  0  0  0
 22 23  1  0  0  0
M  END
> <minimizedAffinity>
-7.55516

$$$$
1NO6_794_A_322


 27 29  0  0  0  0  0  0  0  0999 V2000
   37.4760   25.1328   19.5177 C   0  0  0  0  0  0  0  0  0  0  0  0
   38.3779   24.3023   19.2867 O   0  0  0  0  0  0  0  0  0  0  0  0
   36.1087   24.7798   19.9756 N   0  0  0  0  0  0  0  0  0  0  0  0
   35.1358   25.7785   20.2114 C   0  0  0  0  0  0  0  0  0  0  0  0
   34.1030   25.9661   19.2277 C   0  0  0  0  0  0  0  0  0  0  0  0
   33.0794   26.9555   19.3940 C   0  0  0  0  0  0  0  0  0  0  0  0
   33.0734   27.7786   20.5538 C   0  0  0  0  0  0  0  0  0  0  0  0
   34.0840   27.6326   21.5626 C   0  0  0  0  0  0  0  0  0  0  0  0
   35.1384   26.6222   21.4069 C   0  0  0  0  0  0  0  0  0  0  0  0
   36.1446   26.4952   22.4430 C   0  0  0  0  0  0  0  0  0  0  0  0
   36.0927   27.3476   23.5803 C   0  0  0  0  0  0  0  0  0  0  0  0
   35.0495   28.3343   23.7159 C   0  0  0  0  0  0  0  0  0  0  0  0
   34.0619   28.4669   22.7120 C   0  0  0  0  0  0  0  0  0  0  0  0
   35.7762   23.3939   20.1918 C   0  0  0  0  0  0  0  0  0  0  0  0
   35.7540   22.9204   21.5693 C   0  0  0  0  0  0  0  0  0  0  0  0
   35.4469   21.5577   21.8918 C   0  0  0  0  0  0  0  0  0  0  0  0
   35.1621   20.6297   20.8648 C   0  0  0  0  0  0  0  0  0  0  0  0
   35.1757   21.0293   19.5028 C   0  0  0  0  0  0  0  0  0  0  0  0
   35.4721   22.3972   19.1102 C   0  0  0  0  0  0  0  0  0  0  0  0
   35.4527   22.7155   17.6437 C   0  0  0  0  0  0  0  0  0  0  0  0
   34.3746   22.8854   17.0512 O   0  0  0  0  0  0  0  0  0  0  0  0
   36.4959   22.8035   17.0598 O   0  0  0  0  0  0  0  0  0  0  0  0
   37.3022   22.6729   17.5189 H   0  0  0  0  0  0  0  0  0  0  0  0
   38.6614   27.2104   20.1477 O   0  0  0  0  0  0  0  0  0  0  0  0
   37.9314   26.5839   19.2937 C   0  0  0  0  0  0  0  0  0  0  0  0
   37.6036   27.1115   18.2090 O   0  0  0  0  0  0  0  0  0  0  0  0
   38.8964   26.7975   20.9553 H   0  0  0  0  0  0  0  0  0  0  0  0
 24 25  1  0  0  0
 25 26  2  0  0  0
 25  1  1  0  0  0
  1  2  2  0  0  0
  1  3  1  0  0  0
  3 14  1  0  0  0
  3  4  1  0  0  0
 14 15  2  0  0  0
 14 19  1  0  0  0
 15 16  1  0  0  0
 16 17  2  0  0  0
 17 18  1  0  0  0
 18 19  2  0  0  0
 19 20  1  0  0  0
 20 21  2  0  0  0
 20 22  1  0  0  0
  4  5  2  0  0  0
  4  9  1  0  0  0
  5  6  1  0  0  0
  6  7  2  0  0  0
  7  8  1  0  0  0
  8  9  2  0  0  0
  8 13  1  0  0  0
  9 10  1  0  0  0
 10 11  2  0  0  0
 11 12  1  0  0  0
 12 13  2  0  0  0
 24 27  1  0  0  0
 22 23  1  0  0  0
M  END
> <minimizedAffinity>
-7.41705

$$$$
1NO6_794_A_322


 27 29  0  0  0  0  0  0  0  0999 V2000
   35.0722   27.6730   22.4689 C   0  0  0  0  0  0  0  0  0  0  0  0
   34.2613   28.4708   22.9811 O   0  0  0  0  0  0  0  0  0  0  0  0
   35.1314   27.3523   21.0205 N   0  0  0  0  0  0  0  0  0  0  0  0
   36.0766   26.4309   20.5135 C   0  0  0  0  0  0  0  0  0  0  0  0
   37.2697   26.9504   19.9001 C   0  0  0  0  0  0  0  0  0  0  0  0
   38.2767   26.0824   19.3644 C   0  0  0  0  0  0  0  0  0  0  0  0
   38.1045   24.6724   19.4336 C   0  0  0  0  0  0  0  0  0  0  0  0
   36.9301   24.1049   20.0328 C   0  0  0  0  0  0  0  0  0  0  0  0
   35.8903   24.9815   20.5874 C   0  0  0  0  0  0  0  0  0  0  0  0
   34.7161   24.3806   21.1891 C   0  0  0  0  0  0  0  0  0  0  0  0
   34.5938   22.9642   21.2276 C   0  0  0  0  0  0  0  0  0  0  0  0
   35.6254   22.1193   20.6779 C   0  0  0  0  0  0  0  0  0  0  0  0
   36.7758   22.6940   20.0890 C   0  0  0  0  0  0  0  0  0  0  0  0
   34.2136   28.0027   20.1190 C   0  0  0  0  0  0  0  0  0  0  0  0
   33.0062   27.2731   19.7553 C   0  0  0  0  0  0  0  0  0  0  0  0
   32.0353   27.8253   18.8568 C   0  0  0  0  0  0  0  0  0  0  0  0
   32.2350   29.1049   18.2912 C   0  0  0  0  0  0  0  0  0  0  0  0
   33.3955   29.8611   18.6013 C   0  0  0  0  0  0  0  0  0  0  0  0
   34.4136   29.3611   19.5104 C   0  0  0  0  0  0  0  0  0  0  0  0
   35.5977   30.2441   19.7758 C   0  0  0  0  0  0  0  0  0  0  0  0
   36.4459   30.4418   18.8905 O   0  0  0  0  0  0  0  0  0  0  0  0
   35.7054   30.7537   20.8555 O   0  0  0  0  0  0  0  0  0  0  0  0
   35.0583   30.5962   21.5145 H   0  0  0  0  0  0  0  0  0  0  0  0
   35.7709   25.9471   24.0972 O   0  0  0  0  0  0  0  0  0  0  0  0
   36.0318   27.0557   23.4992 C   0  0  0  0  0  0  0  0  0  0  0  0
   37.1111   27.6571   23.6883 O   0  0  0  0  0  0  0  0  0  0  0  0
   34.9559   25.5116   23.9420 H   0  0  0  0  0  0  0  0  0  0  0  0
 24 25  1  0  0  0
 25 26  2  0  0  0
 25  1  1  0  0  0
  1  2  2  0  0  0
  1  3  1  0  0  0
  3 14  1  0  0  0
  3  4  1  0  0  0
 14 15  2  0  0  0
 14 19  1  0  0  0
 15 16  1  0  0  0
 16 17  2  0  0  0
 17 18  1  0  0  0
 18 19  2  0  0  0
 19 20  1  0  0  0
 20 21  2  0  0  0
 20 22  1  0  0  0
  4  5  2  0  0  0
  4  9  1  0  0  0
  5  6  1  0  0  0
  6  7  2  0  0  0
  7  8  1  0  0  0
  8  9  2  0  0  0
  8 13  1  0  0  0
  9 10  1  0  0  0
 10 11  2  0  0  0
 11 12  1  0  0  0
 12 13  2  0  0  0
 24 27  1  0  0  0
 22 23  1  0  0  0
M  END
> <minimizedAffinity>
-7.01721

$$$$
1NO6_794_A_322


 27 29  0  0  0  0  0  0  0  0999 V2000
   36.4335   28.8251   21.9808 C   0  0  0  0  0  0  0  0  0  0  0  0
   36.0186   29.9492   22.3281 O   0  0  0  0  0  0  0  0  0  0  0  0
   36.2160   28.2293   20.6384 N   0  0  0  0  0  0  0  0  0  0  0  0
   36.7126   26.9443   20.3195 C   0  0  0  0  0  0  0  0  0  0  0  0
   37.9926   26.8530   19.6694 C   0  0  0  0  0  0  0  0  0  0  0  0
   38.5657   25.5878   19.3155 C   0  0  0  0  0  0  0  0  0  0  0  0
   37.8626   24.3867   19.6075 C   0  0  0  0  0  0  0  0  0  0  0  0
   36.5807   24.4247   20.2521 C   0  0  0  0  0  0  0  0  0  0  0  0
   35.9813   25.7135   20.6221 C   0  0  0  0  0  0  0  0  0  0  0  0
   34.6866   25.7217   21.2745 C   0  0  0  0  0  0  0  0  0  0  0  0
   34.0259   24.4903   21.5390 C   0  0  0  0  0  0  0  0  0  0  0  0
   34.6301   23.2343   21.1683 C   0  0  0  0  0  0  0  0  0  0  0  0
   35.8932   23.2137   20.5320 C   0  0  0  0  0  0  0  0  0  0  0  0
   35.4946   28.9831   19.6438 C   0  0  0  0  0  0  0  0  0  0  0  0
   36.2773   29.6267   18.5972 C   0  0  0  0  0  0  0  0  0  0  0  0
   35.6580   30.4089   17.5678 C   0  0  0  0  0  0  0  0  0  0  0  0
   34.2554   30.5804   17.5502 C   0  0  0  0  0  0  0  0  0  0  0  0
   33.4399   29.9844   18.5474 C   0  0  0  0  0  0  0  0  0  0  0  0
   34.0051   29.1739   19.6136 C   0  0  0  0  0  0  0  0  0  0  0  0
   33.0533   28.5836   20.6125 C   0  0  0  0  0  0  0  0  0  0  0  0
   33.0528   28.9782   21.7900 O   0  0  0  0  0  0  0  0  0  0  0  0
   32.2957   27.7282   20.2501 O   0  0  0  0  0  0  0  0  0  0  0  0
   32.3065   27.4397   19.3587 H   0  0  0  0  0  0  0  0  0  0  0  0
   36.6842   27.2081   23.8357 O   0  0  0  0  0  0  0  0  0  0  0  0
   37.2196   28.1110   23.0923 C   0  0  0  0  0  0  0  0  0  0  0  0
   38.4279   28.4110   23.2035 O   0  0  0  0  0  0  0  0  0  0  0  0
   35.7765   26.9976   23.7369 H   0  0  0  0  0  0  0  0  0  0  0  0
 24 25  1  0  0  0
 25 26  2  0  0  0
 25  1  1  0  0  0
  1  2  2  0  0  0
  1  3  1  0  0  0
  3 14  1  0  0  0
  3  4  1  0  0  0
 14 15  2  0  0  0
 14 19  1  0  0  0
 15 16  1  0  0  0
 16 17  2  0  0  0
 17 18  1  0  0  0
 18 19  2  0  0  0
 19 20  1  0  0  0
 20 21  2  0  0  0
 20 22  1  0  0  0
  4  5  2  0  0  0
  4  9  1  0  0  0
  5  6  1  0  0  0
  6  7  2  0  0  0
  7  8  1  0  0  0
  8  9  2  0  0  0
  8 13  1  0  0  0
  9 10  1  0  0  0
 10 11  2  0  0  0
 11 12  1  0  0  0
 12 13  2  0  0  0
 24 27  1  0  0  0
 22 23  1  0  0  0
M  END
> <minimizedAffinity>
-6.99013

$$$$
1NO6_794_A_322


 27 29  0  0  0  0  0  0  0  0999 V2000
   36.2705   25.8412   22.2719 C   0  0  0  0  0  0  0  0  0  0  0  0
   36.8192   24.7874   22.6526 O   0  0  0  0  0  0  0  0  0  0  0  0
   35.5592   25.9958   20.9780 N   0  0  0  0  0  0  0  0  0  0  0  0
   34.9658   27.2260   20.6121 C   0  0  0  0  0  0  0  0  0  0  0  0
   33.7654   27.6302   21.2941 C   0  0  0  0  0  0  0  0  0  0  0  0
   33.1049   28.8637   20.9828 C   0  0  0  0  0  0  0  0  0  0  0  0
   33.6378   29.7170   19.9777 C   0  0  0  0  0  0  0  0  0  0  0  0
   34.8314   29.3569   19.2663 C   0  0  0  0  0  0  0  0  0  0  0  0
   35.5201   28.0970   19.5752 C   0  0  0  0  0  0  0  0  0  0  0  0
   36.7251   27.7602   18.8427 C   0  0  0  0  0  0  0  0  0  0  0  0
   37.2114   28.6490   17.8446 C   0  0  0  0  0  0  0  0  0  0  0  0
   36.5216   29.8820   17.5550 C   0  0  0  0  0  0  0  0  0  0  0  0
   35.3455   30.2217   18.2636 C   0  0  0  0  0  0  0  0  0  0  0  0
   35.4662   24.8655   20.0881 C   0  0  0  0  0  0  0  0  0  0  0  0
   34.1310   24.4243   19.7076 C   0  0  0  0  0  0  0  0  0  0  0  0
   33.9285   23.3034   18.8372 C   0  0  0  0  0  0  0  0  0  0  0  0
   35.0358   22.5880   18.3280 C   0  0  0  0  0  0  0  0  0  0  0  0
   36.3611   22.9651   18.6688 C   0  0  0  0  0  0  0  0  0  0  0  0
   36.6340   24.0961   19.5403 C   0  0  0  0  0  0  0  0  0  0  0  0
   38.0716   24.4141   19.8310 C   0  0  0  0  0  0  0  0  0  0  0  0
   38.6288   25.3734   19.2730 O   0  0  0  0  0  0  0  0  0  0  0  0
   38.6670   23.7261   20.6115 O   0  0  0  0  0  0  0  0  0  0  0  0
   38.2346   23.0053   21.0255 H   0  0  0  0  0  0  0  0  0  0  0  0
   35.4815   27.2024   24.1806 O   0  0  0  0  0  0  0  0  0  0  0  0
   36.3906   26.9794   23.2983 C   0  0  0  0  0  0  0  0  0  0  0  0
   37.4467   27.6474   23.2712 O   0  0  0  0  0  0  0  0  0  0  0  0
   34.6966   26.6906   24.1842 H   0  0  0  0  0  0  0  0  0  0  0  0
 24 25  1  0  0  0
 25 26  2  0  0  0
 25  1  1  0  0  0
  1  2  2  0  0  0
  1  3  1  0  0  0
  3 14  1  0  0  0
  3  4  1  0  0  0
 14 15  2  0  0  0
 14 19  1  0  0  0
 15 16  1  0  0  0
 16 17  2  0  0  0
 17 18  1  0  0  0
 18 19  2  0  0  0
 19 20  1  0  0  0
 20 21  2  0  0  0
 20 22  1  0  0  0
  4  5  2  0  0  0
  4  9  1  0  0  0
  5  6  1  0  0  0
  6  7  2  0  0  0
  7  8  1  0  0  0
  8  9  2  0  0  0
  8 13  1  0  0  0
  9 10  1  0  0  0
 10 11  2  0  0  0
 11 12  1  0  0  0
 12 13  2  0  0  0
 24 27  1  0  0  0
 22 23  1  0  0  0
M  END
> <minimizedAffinity>
-6.98374

$$$$
1NO6_794_A_322


 27 29  0  0  0  0  0  0  0  0999 V2000
   36.5198   25.9279   22.4753 C   0  0  0  0  0  0  0  0  0  0  0  0
   36.5215   24.8647   23.1281 O   0  0  0  0  0  0  0  0  0  0  0  0
   36.3872   26.0044   20.9986 N   0  0  0  0  0  0  0  0  0  0  0  0
   36.3998   27.2486   20.3267 C   0  0  0  0  0  0  0  0  0  0  0  0
   37.6027   27.6373   19.6401 C   0  0  0  0  0  0  0  0  0  0  0  0
   37.6948   28.8813   18.9340 C   0  0  0  0  0  0  0  0  0  0  0  0
   36.5784   29.7617   18.9043 C   0  0  0  0  0  0  0  0  0  0  0  0
   35.3568   29.4210   19.5765 C   0  0  0  0  0  0  0  0  0  0  0  0
   35.2469   28.1493   20.3029 C   0  0  0  0  0  0  0  0  0  0  0  0
   34.0001   27.8301   20.9705 C   0  0  0  0  0  0  0  0  0  0  0  0
   32.9167   28.7497   20.9115 C   0  0  0  0  0  0  0  0  0  0  0  0
   33.0433   29.9939   20.1933 C   0  0  0  0  0  0  0  0  0  0  0  0
   34.2544   30.3159   19.5375 C   0  0  0  0  0  0  0  0  0  0  0  0
   36.2326   24.7865   20.2430 C   0  0  0  0  0  0  0  0  0  0  0  0
   37.4080   24.2792   19.5479 C   0  0  0  0  0  0  0  0  0  0  0  0
   37.3581   23.0827   18.7598 C   0  0  0  0  0  0  0  0  0  0  0  0
   36.1483   22.3634   18.6331 C   0  0  0  0  0  0  0  0  0  0  0  0
   34.9674   22.8118   19.2806 C   0  0  0  0  0  0  0  0  0  0  0  0
   34.9534   24.0127   20.0996 C   0  0  0  0  0  0  0  0  0  0  0  0
   33.6536   24.3941   20.7456 C   0  0  0  0  0  0  0  0  0  0  0  0
   32.7058   24.8055   20.0568 O   0  0  0  0  0  0  0  0  0  0  0  0
   33.5503   24.2917   21.9355 O   0  0  0  0  0  0  0  0  0  0  0  0
   34.2733   23.9800   22.4435 H   0  0  0  0  0  0  0  0  0  0  0  0
   37.7010   27.9209   23.3416 O   0  0  0  0  0  0  0  0  0  0  0  0
   36.6543   27.1737   23.3658 C   0  0  0  0  0  0  0  0  0  0  0  0
   35.6683   27.4603   24.0787 O   0  0  0  0  0  0  0  0  0  0  0  0
   38.4299   27.6888   22.8005 H   0  0  0  0  0  0  0  0  0  0  0  0
 24 25  1  0  0  0
 25 26  2  0  0  0
 25  1  1  0  0  0
  1  2  2  0  0  0
  1  3  1  0  0  0
  3 14  1  0  0  0
  3  4  1  0  0  0
 14 15  2  0  0  0
 14 19  1  0  0  0
 15 16  1  0  0  0
 16 17  2  0  0  0
 17 18  1  0  0  0
 18 19  2  0  0  0
 19 20  1  0  0  0
 20 21  2  0  0  0
 20 22  1  0  0  0
  4  5  2  0  0  0
  4  9  1  0  0  0
  5  6  1  0  0  0
  6  7  2  0  0  0
  7  8  1  0  0  0
  8  9  2  0  0  0
  8 13  1  0  0  0
  9 10  1  0  0  0
 10 11  2  0  0  0
 11 12  1  0  0  0
 12 13  2  0  0  0
 24 27  1  0  0  0
 22 23  1  0  0  0
M  END
> <minimizedAffinity>
-6.89888

$$$$
