3L4Z_SSD_A_1001
  RCSB PDB12061709333D
Coordinates from PDB:3L4Z:A:1001 Model:1 without hydrogens
 20 20  0  0  0  0            999 V2000
   45.5930   94.3270   35.6510   C 0  0  0  0  0  0  0  0  0  0  0  0
   46.4390   93.6620   34.5700   C 0  0  0  0  0  0  0  0  0  0  0  0
   45.4420   93.4090   33.4200   C 0  0  0  0  0  0  0  0  0  0  0  0
   44.4620   93.3080   35.9670   C 0  0  0  0  0  0  0  0  0  0  0  0
   43.9910   92.7450   34.3170   S 0  3  0  0  0  0  0  0  0  0  0  0
   47.4560   94.6280   34.1970   O 0  0  0  0  0  0  0  0  0  0  0  0
   46.4190   94.5190   36.7990   O 0  0  0  0  0  0  0  0  0  0  0  0
   43.3230   93.9460   36.7850   C 0  0  0  0  0  0  0  0  0  0  0  0
   42.8480   95.1280   36.1600   O 0  0  0  0  0  0  0  0  0  0  0  0
   44.3280   90.9610   34.4780   C 0  0  0  0  0  0  0  0  0  0  0  0
   43.7480   90.0630   33.3930   C 0  0  0  0  0  0  0  0  0  0  0  0
   44.0570   88.5990   33.7370   C 0  0  0  0  0  0  0  0  0  0  0  0
   43.5760   87.6740   32.6200   C 0  0  0  0  0  0  0  0  0  0  0  0
   42.2760   88.1380   32.2820   O 0  0  0  0  0  0  0  0  0  0  0  0
   44.3130   90.3770   32.1290   O 0  0  0  0  0  0  0  0  0  0  0  0
   43.3690   88.2440   34.9500   O 0  0  0  0  0  0  0  0  0  0  0  0
   44.0760   87.6120   36.0520   S 0  0  0  0  0  0  0  0  0  0  0  0
   45.0180   88.5450   36.7410   O 0  5  0  0  0  0  0  0  0  0  0  0
   43.0620   87.1850   37.0990   O 0  5  0  0  0  0  0  0  0  0  0  0
   44.8470   86.4340   35.5370   O 0  5  0  0  0  0  0  0  0  0  0  0
  1  2  1  0  0  0  0
  1  4  1  0  0  0  0
  1  7  1  0  0  0  0
  2  3  1  0  0  0  0
  2  6  1  0  0  0  0
  3  5  1  0  0  0  0
  4  5  1  0  0  0  0
  4  8  1  0  0  0  0
  5 10  1  0  0  0  0
  8  9  1  0  0  0  0
 10 11  1  0  0  0  0
 11 12  1  0  0  0  0
 11 15  1  0  0  0  0
 12 13  1  0  0  0  0
 12 16  1  0  0  0  0
 13 14  1  0  0  0  0
 16 17  1  0  0  0  0
 17 18  1  0  0  0  0
 17 19  1  0  0  0  0
 17 20  1  0  0  0  0
M  CHG  4   5   1  18  -1  19  -1  20  -1
A    1
C1
A    2
C2
A    3
C3
A    4
C5
A    5
S4
A    6
O2
A    7
O1
A    8
C6
A    9
O6
A   10
C7
A   11
C8
A   12
C9
A   13
C10
A   14
O10
A   15
O8
A   16
O9
A   17
S9
A   18
O11
A   19
O12
A   20
O13
M  END
>  <InstanceId>
3L4Z_SSD_A_1001

>  <ChemCompId>
SSD

>  <PdbId>
3L4Z

>  <ChainId>
A

>  <ResidueNumber>
1001

>  <InsertionCode>


>  <Model>
1

>  <AltIds>


>  <MissingHeavyAtoms>
0

>  <ObservedFormula>
C9 O9 S2

>  <Name>
1,4-DIDEOXY-1,4-[[2R,3R)-2,4-DIHYDROXY-3-(SULFOXY)BUTYL]EPISULFONIUMYLIDENE]-D-ARABINITOL INNER SALT

>  <SystematicName>


>  <Synonyms>
DIASTEREOMER OF SALACINOL

>  <Type>
NON-POLYMER

>  <Formula>
C9 H18 O9 S2

>  <MolecularWeight>
334.364

>  <ModifiedDate>
2011-06-04

>  <Parent>


>  <OneLetterCode>


>  <SubcomponentList>


>  <AmbiguousFlag>
N

>  <InChI>
InChI=1S/C9H20O9S2/c10-1-7(18-20(15,16)17)5(12)3-19-4-6(13)9(14)8(19)2-11/h5-14H,1-4H2,(H2-,15,16,17)/p-2/t5-,6+,7+,8+,9-,19+/m0/s1

>  <InChIKey>
NYHLFUZUGSMDBR-ITGKUZSGSA-L

>  <SMILES>
C1[C@H]([C@@H]([C@H]([S@@+]1C[C@@H]([C@@H](CO)OS([O-])([O-])[O-])O)CO)O)O

$$$$
