5I9X_DB8_A_1001
  RCSB PDB12061718083D
Coordinates from PDB:5I9X:A:1001 Model:1 without hydrogens
 36 39  0  0  0  0            999 V2000
  -84.4130  -15.3720    9.4560   C 0  0  0  0  0  0  0  0  0  0  0  0
  -92.5450  -18.9780    9.3680   O 0  0  0  0  0  0  0  0  0  0  0  0
  -82.3600  -12.2770    4.2680   C 0  0  0  0  0  0  0  0  0  0  0  0
  -92.7620  -14.7930    8.6760   N 0  0  0  0  0  0  0  0  0  0  0  0
  -93.8790  -18.4140   11.7950  Cl 0  0  0  0  0  0  0  0  0  0  0  0
  -90.4300  -14.3090   12.2050  Cl 0  0  0  0  0  0  0  0  0  0  0  0
  -91.7970  -14.6520    8.1820   C 0  0  0  0  0  0  0  0  0  0  0  0
  -90.4350  -14.0760    6.2950   C 0  0  0  0  0  0  0  0  0  0  0  0
  -92.0260  -16.3960   11.8210   C 0  0  0  0  0  0  0  0  0  0  0  0
  -90.8710  -17.1780    9.4020   C 0  0  0  0  0  0  0  0  0  0  0  0
  -86.8620  -13.8730    5.6540   C 0  0  0  0  0  0  0  0  0  0  0  0
  -86.8650  -14.8020    8.3170   C 0  0  0  0  0  0  0  0  0  0  0  0
  -82.9760  -13.6230    3.9240   C 0  0  0  0  0  0  0  0  0  0  0  0
  -84.4430  -13.6150    4.3730   C 0  0  0  0  0  0  0  0  0  0  0  0
  -76.8800  -11.0570    4.4970   C 0  0  0  0  0  0  0  0  0  0  0  0
  -80.5690  -10.7890    3.8170   C 0  0  0  0  0  0  0  0  0  0  0  0
  -80.1420  -12.8600    4.9740   C 0  0  0  0  0  0  0  0  0  0  0  0
  -79.0760  -10.6150    3.5820   C 0  0  0  0  0  0  0  0  0  0  0  0
  -78.6550  -12.6740    4.7390   C 0  0  0  0  0  0  0  0  0  0  0  0
  -89.2130  -13.8720    5.6740   N 0  0  0  0  0  0  0  0  0  0  0  0
  -89.3220  -15.2600    9.5980   N 0  0  0  0  0  0  0  0  0  0  0  0
  -84.4270  -14.7640    8.1610   O 0  0  0  0  0  0  0  0  0  0  0  0
  -84.4430  -13.9120    5.7750   O 0  0  0  0  0  0  0  0  0  0  0  0
  -91.9660  -17.8750    9.9450   C 0  0  0  0  0  0  0  0  0  0  0  0
  -92.5290  -17.4980   11.1520   C 0  0  0  0  0  0  0  0  0  0  0  0
  -90.9610  -15.6830   11.2820   C 0  0  0  0  0  0  0  0  0  0  0  0
  -90.5030  -14.5290    7.6040   C 0  0  0  0  0  0  0  0  0  0  0  0
  -90.3480  -16.0570   10.0760   C 0  0  0  0  0  0  0  0  0  0  0  0
  -85.6760  -14.5690    7.6290   C 0  0  0  0  0  0  0  0  0  0  0  0
  -85.6750  -14.1110    6.3210   C 0  0  0  0  0  0  0  0  0  0  0  0
  -89.3140  -14.7940    8.3030   C 0  0  0  0  0  0  0  0  0  0  0  0
  -88.0580  -14.1040    6.3340   C 0  0  0  0  0  0  0  0  0  0  0  0
  -88.0790  -14.5680    7.6620   C 0  0  0  0  0  0  0  0  0  0  0  0
  -80.9310  -12.2150    3.9110   N 0  0  0  0  0  0  0  0  0  0  0  0
  -78.3280  -11.2410    4.6810   N 0  0  0  0  0  0  0  0  0  0  0  0
  -92.1000  -19.1800    8.0260   C 0  0  0  0  0  0  0  0  0  0  0  0
  1 22  1  0  0  0  0
 24  2  1  0  0  0  0
 36  2  1  0  0  0  0
 34  3  1  0  0  0  0
 13  3  1  0  0  0  0
  7  4  3  0  0  0  0
  5 25  1  0  0  0  0
  6 26  1  0  0  0  0
 27  7  1  0  0  0  0
 27  8  2  0  0  0  0
 20  8  1  0  0  0  0
  9 26  2  0  0  0  0
  9 25  1  0  0  0  0
 28 10  2  0  0  0  0
 24 10  1  0  0  0  0
 30 11  2  0  0  0  0
 11 32  1  0  0  0  0
 29 12  2  0  0  0  0
 12 33  1  0  0  0  0
 13 14  1  0  0  0  0
 23 14  1  0  0  0  0
 15 35  1  0  0  0  0
 34 16  1  0  0  0  0
 18 16  1  0  0  0  0
 19 17  1  0  0  0  0
 17 34  1  0  0  0  0
 35 18  1  0  0  0  0
 19 35  1  0  0  0  0
 32 20  2  0  0  0  0
 28 21  1  0  0  0  0
 21 31  1  0  0  0  0
 22 29  1  0  0  0  0
 23 30  1  0  0  0  0
 25 24  2  0  0  0  0
 26 28  1  0  0  0  0
 31 27  1  0  0  0  0
 29 30  1  0  0  0  0
 33 31  2  0  0  0  0
 33 32  1  0  0  0  0
A    1
CAA
A    2
O02
A    3
CAC
A    4
NAD
A    5
CL1
A    6
CL2
A    7
CAG
A    8
CAH
A    9
CAI
A   10
CAJ
A   11
CAK
A   12
CAL
A   13
CAM
A   14
CAN
A   15
CAO
A   16
CAP
A   17
CAQ
A   18
CAR
A   19
CAS
A   20
NAT
A   21
NAU
A   22
OAV
A   23
OAW
A   24
CAX
A   25
CAY
A   26
CAZ
A   27
CBA
A   28
CBB
A   29
CBC
A   30
CBD
A   31
CBE
A   32
CBF
A   33
CBG
A   34
NBH
A   35
NBI
A   36
C01
M  END
>  <InstanceId>
5I9X_DB8_A_1001

>  <ChemCompId>
DB8

>  <PdbId>
5I9X

>  <ChainId>
A

>  <ResidueNumber>
1001

>  <InsertionCode>


>  <Model>
1

>  <AltIds>


>  <MissingHeavyAtoms>
0

>  <ObservedFormula>
C26 N5 O3 Cl2

>  <Name>
4-[(2,4-dichloro-5-methoxyphenyl)amino]-6-methoxy-7-[3-(4-methylpiperazin-1-yl)propoxy]quinoline-3-carbonitrile

>  <SystematicName>
4-[[2,4-bis(chloranyl)-5-methoxy-phenyl]amino]-6-methoxy-7-[3-(4-methylpiperazin-1-yl)propoxy]quinoline-3-carbonitrile

>  <Synonyms>
Bosutinib

>  <Type>
NON-POLYMER

>  <Formula>
C26 H29 Cl2 N5 O3

>  <MolecularWeight>
530.446

>  <ModifiedDate>
2011-08-31

>  <Parent>


>  <OneLetterCode>


>  <SubcomponentList>


>  <AmbiguousFlag>
N

>  <InChI>
InChI=1S/C26H29Cl2N5O3/c1-32-6-8-33(9-7-32)5-4-10-36-25-13-21-18(11-24(25)35-3)26(17(15-29)16-30-21)31-22-14-23(34-2)20(28)12-19(22)27/h11-14,16H,4-10H2,1-3H3,(H,30,31)

>  <InChIKey>
UBPYILGKFZZVDX-UHFFFAOYSA-N

>  <SMILES>
CN1CCN(CC1)CCCOc2cc3c(cc2OC)c(c(cn3)C#N)Nc4cc(c(cc4Cl)Cl)OC

$$$$
