6EQ1_STW_B_726


 59 62  0  0  0  0  0  0  0  0999 V2000
   30.3000   27.6704   62.4565 O   0  0  0  0  0  0  0  0  0  0  0  0
   30.1687   29.0630   62.8242 C   0  0  0  0  0  0  0  0  0  0  0  0
   29.8425   28.9740   64.2560 O   0  0  0  0  0  0  0  0  0  0  0  0
   31.0034   28.7086   65.0734 C   0  0  0  0  0  0  0  0  0  0  0  0
   31.7674   30.0378   65.1731 C   0  0  0  0  0  0  0  0  0  0  0  0
   30.9389   31.0588   65.7750 O   0  0  0  0  0  0  0  0  0  0  0  0
   32.1426   30.5906   63.7733 C   0  0  0  0  0  0  0  0  0  0  0  0
   33.5716   30.6583   63.6327 O   0  0  0  0  0  0  0  0  0  0  0  0
   31.5178   29.8401   62.5549 C   0  0  0  0  0  0  0  0  0  0  0  0
   31.3129   30.7862   61.4828 O   0  0  0  0  0  0  0  0  0  0  0  0
   30.1612   31.2148   65.2167 H   0  0  0  0  0  0  0  0  0  0  0  0
   33.9423   29.7624   63.6631 H   0  0  0  0  0  0  0  0  0  0  0  0
   30.6659   31.4537   61.7599 H   0  0  0  0  0  0  0  0  0  0  0  0
   30.4561   28.1570   66.3808 C   0  0  0  0  0  0  0  0  0  0  0  0
   31.4657   27.8735   67.3861 O   0  0  0  0  0  0  0  0  0  0  0  0
   31.2163   28.6490   68.5487 C   0  0  0  0  0  0  0  0  0  0  0  0
   29.9485   28.2351   69.2272 O   0  0  0  0  0  0  0  0  0  0  0  0
   29.9906   26.8940   69.7175 C   0  0  0  0  0  0  0  0  0  0  0  0
   31.0730   26.7957   70.8466 C   0  0  0  0  0  0  0  0  0  0  0  0
   30.7197   27.6799   71.9305 O   0  0  0  0  0  0  0  0  0  0  0  0
   32.4517   27.1990   70.2475 C   0  0  0  0  0  0  0  0  0  0  0  0
   33.4450   27.2838   71.2622 O   0  0  0  0  0  0  0  0  0  0  0  0
   32.3803   28.5587   69.5163 C   0  0  0  0  0  0  0  0  0  0  0  0
   33.6119   28.8380   68.8813 O   0  0  0  0  0  0  0  0  0  0  0  0
   30.6679   28.5907   71.6009 H   0  0  0  0  0  0  0  0  0  0  0  0
   33.2021   27.9774   71.8953 H   0  0  0  0  0  0  0  0  0  0  0  0
   33.7879   28.1637   68.2065 H   0  0  0  0  0  0  0  0  0  0  0  0
   28.6059   26.3619   70.1040 C   0  0  0  0  0  0  0  0  0  0  0  0
   28.5661   26.0040   71.4842 O   0  0  0  0  0  0  0  0  0  0  0  0
   28.7529   26.7862   72.0265 H   0  0  0  0  0  0  0  0  0  0  0  0
   31.5847   27.2995   62.0435 C   0  0  0  0  0  0  0  0  0  0  0  0
   29.7361   24.2330   61.7962 C   0  0  0  0  0  0  0  0  0  0  0  0
   30.1678   25.5706   62.1261 O   0  0  0  0  0  0  0  0  0  0  0  0
   31.3832   25.9229   61.4620 C   0  0  0  0  0  0  0  0  0  0  0  0
   31.2173   25.9703   59.8914 C   0  0  0  0  0  0  0  0  0  0  0  0
   32.4740   26.1594   59.1703 O   0  0  0  0  0  0  0  0  0  0  0  0
   30.5973   24.6753   59.3600 C   0  0  0  0  0  0  0  0  0  0  0  0
   30.0996   24.9401   58.0261 O   0  0  0  0  0  0  0  0  0  0  0  0
   29.4557   24.1267   60.2604 C   0  0  0  0  0  0  0  0  0  0  0  0
   29.2520   22.7751   59.9360 O   0  0  0  0  0  0  0  0  0  0  0  0
   33.0529   25.3964   59.3240 H   0  0  0  0  0  0  0  0  0  0  0  0
   29.4186   25.6297   58.0660 H   0  0  0  0  0  0  0  0  0  0  0  0
   30.0587   22.2715   60.1275 H   0  0  0  0  0  0  0  0  0  0  0  0
   30.6639   23.1665   62.2539 O   0  0  0  0  0  0  0  0  0  0  0  0
   30.6031   22.6961   63.6895 C   0  0  0  0  0  0  0  0  0  0  0  0
   30.6291   21.2123   63.8102 O   0  0  0  0  0  0  0  0  0  0  0  0
   29.3370   20.6793   64.2355 C   0  0  0  0  0  0  0  0  0  0  0  0
   28.4336   21.8215   64.6662 C   0  0  0  0  0  0  0  0  0  0  0  0
   28.1764   21.7209   66.1018 O   0  0  0  0  0  0  0  0  0  0  0  0
   29.1798   23.1351   64.2318 C   0  0  0  0  0  0  0  0  0  0  0  0
   29.2445   24.1374   65.3192 O   0  0  0  0  0  0  0  0  0  0  0  0
   29.0187   21.7297   66.5826 H   0  0  0  0  0  0  0  0  0  0  0  0
   29.7240   23.7638   66.0752 H   0  0  0  0  0  0  0  0  0  0  0  0
   31.7711   23.2599   64.5739 C   0  0  0  0  0  0  0  0  0  0  0  0
   31.7900   24.6998   64.6247 O   0  0  0  0  0  0  0  0  0  0  0  0
   30.9653   25.0201   65.0225 H   0  0  0  0  0  0  0  0  0  0  0  0
   28.7226   19.9155   63.0672 C   0  0  0  0  0  0  0  0  0  0  0  0
   29.7981   19.3634   62.2997 O   0  0  0  0  0  0  0  0  0  0  0  0
   30.3281   18.7765   62.8614 H   0  0  0  0  0  0  0  0  0  0  0  0
 38 37  1  0  0  0
 40 39  1  0  0  0
 39 37  1  0  0  0
 39 32  1  0  0  0
 37 35  1  0  0  0
 35 36  1  0  0  0
 35 34  1  0  0  0
 32 33  1  0  0  0
 32 44  1  0  0  0
 55 54  1  0  0  0
 33 34  1  0  0  0
 34 31  1  0  0  0
 54 45  1  0  0  0
 44 45  1  0  0  0
 10  9  1  0  0  0
 31  1  1  0  0  0
 45 46  1  0  0  0
 45 50  1  0  0  0
 46 47  1  0  0  0
  9  2  1  0  0  0
  9  7  1  0  0  0
  1  2  1  0  0  0
  2  3  1  0  0  0
  8  7  1  0  0  0
 50 51  1  0  0  0
 50 48  1  0  0  0
 58 57  1  0  0  0
  7  5  1  0  0  0
 47 57  1  0  0  0
 47 48  1  0  0  0
  3  4  1  0  0  0
 48 49  1  0  0  0
  5  4  1  0  0  0
  5  6  1  0  0  0
  4 14  1  0  0  0
 14 15  1  0  0  0
 15 16  1  0  0  0
 16 17  1  0  0  0
 16 23  1  0  0  0
 24 23  1  0  0  0
 29 28  1  0  0  0
 17 18  1  0  0  0
 23 21  1  0  0  0
 18 28  1  0  0  0
 18 19  1  0  0  0
 21 19  1  0  0  0
 21 22  1  0  0  0
 19 20  1  0  0  0
 29 30  1  0  0  0
 20 25  1  0  0  0
 22 26  1  0  0  0
 24 27  1  0  0  0
  6 11  1  0  0  0
  8 12  1  0  0  0
 10 13  1  0  0  0
 55 56  1  0  0  0
 49 52  1  0  0  0
 51 53  1  0  0  0
 58 59  1  0  0  0
 36 41  1  0  0  0
 38 42  1  0  0  0
 40 43  1  0  0  0
M  END
> <minimizedAffinity>
-14.27692

$$$$
6EQ1_STW_B_726


 59 62  0  0  0  0  0  0  0  0999 V2000
   29.5714   27.9552   62.8810 O   0  0  0  0  0  0  0  0  0  0  0  0
   29.8059   29.3681   63.0825 C   0  0  0  0  0  0  0  0  0  0  0  0
   29.6743   29.4969   64.5421 O   0  0  0  0  0  0  0  0  0  0  0  0
   30.8511   29.0443   65.2467 C   0  0  0  0  0  0  0  0  0  0  0  0
   31.8973   30.1584   65.0887 C   0  0  0  0  0  0  0  0  0  0  0  0
   31.4098   31.3994   65.6486 O   0  0  0  0  0  0  0  0  0  0  0  0
   32.1835   30.4694   63.5964 C   0  0  0  0  0  0  0  0  0  0  0  0
   33.5573   30.1833   63.2841 O   0  0  0  0  0  0  0  0  0  0  0  0
   31.2417   29.7744   62.5630 C   0  0  0  0  0  0  0  0  0  0  0  0
   31.1020   30.6345   61.4110 O   0  0  0  0  0  0  0  0  0  0  0  0
   30.6150   31.6804   65.1688 H   0  0  0  0  0  0  0  0  0  0  0  0
   33.7204   29.2324   63.3843 H   0  0  0  0  0  0  0  0  0  0  0  0
   30.6652   31.4596   61.6745 H   0  0  0  0  0  0  0  0  0  0  0  0
   30.3859   28.7663   66.6678 C   0  0  0  0  0  0  0  0  0  0  0  0
   31.4314   28.3087   67.5666 O   0  0  0  0  0  0  0  0  0  0  0  0
   31.2510   28.8912   68.8486 C   0  0  0  0  0  0  0  0  0  0  0  0
   30.0083   28.3889   69.5135 O   0  0  0  0  0  0  0  0  0  0  0  0
   30.0472   26.9862   69.7815 C   0  0  0  0  0  0  0  0  0  0  0  0
   31.1786   26.6962   70.8265 C   0  0  0  0  0  0  0  0  0  0  0  0
   30.8928   27.3997   72.0531 O   0  0  0  0  0  0  0  0  0  0  0  0
   32.5355   27.1741   70.2327 C   0  0  0  0  0  0  0  0  0  0  0  0
   33.5762   27.0841   71.1983 O   0  0  0  0  0  0  0  0  0  0  0  0
   32.4565   28.6340   69.7316 C   0  0  0  0  0  0  0  0  0  0  0  0
   33.6625   28.9969   69.0898 O   0  0  0  0  0  0  0  0  0  0  0  0
   30.8433   28.3520   71.8756 H   0  0  0  0  0  0  0  0  0  0  0  0
   33.3762   27.6703   71.9448 H   0  0  0  0  0  0  0  0  0  0  0  0
   33.7942   28.4372   68.3085 H   0  0  0  0  0  0  0  0  0  0  0  0
   28.6719   26.4153   70.1454 C   0  0  0  0  0  0  0  0  0  0  0  0
   28.6288   26.0295   71.5179 O   0  0  0  0  0  0  0  0  0  0  0  0
   28.7932   26.8049   72.0770 H   0  0  0  0  0  0  0  0  0  0  0  0
   29.0837   27.6249   61.6115 C   0  0  0  0  0  0  0  0  0  0  0  0
   29.1188   24.1361   60.7695 C   0  0  0  0  0  0  0  0  0  0  0  0
   28.7084   25.4871   61.0709 O   0  0  0  0  0  0  0  0  0  0  0  0
   29.8248   26.3569   61.2693 C   0  0  0  0  0  0  0  0  0  0  0  0
   30.6959   26.5237   59.9617 C   0  0  0  0  0  0  0  0  0  0  0  0
   31.9366   27.2670   60.1696 O   0  0  0  0  0  0  0  0  0  0  0  0
   31.0916   25.1632   59.3818 C   0  0  0  0  0  0  0  0  0  0  0  0
   31.5073   25.3728   58.0105 O   0  0  0  0  0  0  0  0  0  0  0  0
   29.9469   24.1139   59.4419 C   0  0  0  0  0  0  0  0  0  0  0  0
   30.5134   22.8373   59.2900 O   0  0  0  0  0  0  0  0  0  0  0  0
   32.5115   26.7736   60.7754 H   0  0  0  0  0  0  0  0  0  0  0  0
   30.7669   25.7366   57.5002 H   0  0  0  0  0  0  0  0  0  0  0  0
   31.1228   22.6646   60.0246 H   0  0  0  0  0  0  0  0  0  0  0  0
   29.8479   23.4631   61.8755 O   0  0  0  0  0  0  0  0  0  0  0  0
   29.1901   22.3152   62.6073 C   0  0  0  0  0  0  0  0  0  0  0  0
   27.9025   22.7030   63.2464 O   0  0  0  0  0  0  0  0  0  0  0  0
   28.0114   22.7501   64.7026 C   0  0  0  0  0  0  0  0  0  0  0  0
   29.3368   22.1460   65.1323 C   0  0  0  0  0  0  0  0  0  0  0  0
   29.0886   20.9117   65.8752 O   0  0  0  0  0  0  0  0  0  0  0  0
   30.1597   21.9509   63.8072 C   0  0  0  0  0  0  0  0  0  0  0  0
   30.7509   20.5980   63.7002 O   0  0  0  0  0  0  0  0  0  0  0  0
   28.5781   20.2991   65.3230 H   0  0  0  0  0  0  0  0  0  0  0  0
   30.0433   19.9345   63.7066 H   0  0  0  0  0  0  0  0  0  0  0  0
   28.9028   21.0783   61.6844 C   0  0  0  0  0  0  0  0  0  0  0  0
   28.3959   19.9426   62.4121 O   0  0  0  0  0  0  0  0  0  0  0  0
   27.5516   20.1762   62.8286 H   0  0  0  0  0  0  0  0  0  0  0  0
   27.9118   24.2057   65.1464 C   0  0  0  0  0  0  0  0  0  0  0  0
   28.1212   25.0243   63.9903 O   0  0  0  0  0  0  0  0  0  0  0  0
   27.4509   24.8159   63.3208 H   0  0  0  0  0  0  0  0  0  0  0  0
 38 37  1  0  0  0
 40 39  1  0  0  0
 39 37  1  0  0  0
 39 32  1  0  0  0
 37 35  1  0  0  0
 35 36  1  0  0  0
 35 34  1  0  0  0
 32 33  1  0  0  0
 32 44  1  0  0  0
 55 54  1  0  0  0
 33 34  1  0  0  0
 34 31  1  0  0  0
 54 45  1  0  0  0
 44 45  1  0  0  0
 10  9  1  0  0  0
 31  1  1  0  0  0
 45 46  1  0  0  0
 45 50  1  0  0  0
 46 47  1  0  0  0
  9  2  1  0  0  0
  9  7  1  0  0  0
  1  2  1  0  0  0
  2  3  1  0  0  0
  8  7  1  0  0  0
 50 51  1  0  0  0
 50 48  1  0  0  0
 58 57  1  0  0  0
  7  5  1  0  0  0
 47 57  1  0  0  0
 47 48  1  0  0  0
  3  4  1  0  0  0
 48 49  1  0  0  0
  5  4  1  0  0  0
  5  6  1  0  0  0
  4 14  1  0  0  0
 14 15  1  0  0  0
 15 16  1  0  0  0
 16 17  1  0  0  0
 16 23  1  0  0  0
 24 23  1  0  0  0
 29 28  1  0  0  0
 17 18  1  0  0  0
 23 21  1  0  0  0
 18 28  1  0  0  0
 18 19  1  0  0  0
 21 19  1  0  0  0
 21 22  1  0  0  0
 19 20  1  0  0  0
 29 30  1  0  0  0
 20 25  1  0  0  0
 22 26  1  0  0  0
 24 27  1  0  0  0
  6 11  1  0  0  0
  8 12  1  0  0  0
 10 13  1  0  0  0
 55 56  1  0  0  0
 49 52  1  0  0  0
 51 53  1  0  0  0
 58 59  1  0  0  0
 36 41  1  0  0  0
 38 42  1  0  0  0
 40 43  1  0  0  0
M  END
> <minimizedAffinity>
-14.16027

$$$$
6EQ1_STW_B_726


 59 62  0  0  0  0  0  0  0  0999 V2000
   29.9460   26.4275   64.4926 O   0  0  0  0  0  0  0  0  0  0  0  0
   29.2346   27.6595   64.2319 C   0  0  0  0  0  0  0  0  0  0  0  0
   29.6764   28.5119   65.3466 O   0  0  0  0  0  0  0  0  0  0  0  0
   30.9997   29.0526   65.1401 C   0  0  0  0  0  0  0  0  0  0  0  0
   30.8395   30.1965   64.1271 C   0  0  0  0  0  0  0  0  0  0  0  0
   29.9453   31.2108   64.6399 O   0  0  0  0  0  0  0  0  0  0  0  0
   30.1869   29.7076   62.8076 C   0  0  0  0  0  0  0  0  0  0  0  0
   31.0970   29.8829   61.7087 O   0  0  0  0  0  0  0  0  0  0  0  0
   29.6357   28.2467   62.8210 C   0  0  0  0  0  0  0  0  0  0  0  0
   28.4961   28.1729   61.9365 O   0  0  0  0  0  0  0  0  0  0  0  0
   29.0663   30.8256   64.7808 H   0  0  0  0  0  0  0  0  0  0  0  0
   31.8728   29.3150   61.8377 H   0  0  0  0  0  0  0  0  0  0  0  0
   27.7866   28.7410   62.2752 H   0  0  0  0  0  0  0  0  0  0  0  0
   31.4899   29.4533   66.5229 C   0  0  0  0  0  0  0  0  0  0  0  0
   31.4561   28.3863   67.5081 O   0  0  0  0  0  0  0  0  0  0  0  0
   31.2564   28.9344   68.8023 C   0  0  0  0  0  0  0  0  0  0  0  0
   29.9969   28.4254   69.4295 O   0  0  0  0  0  0  0  0  0  0  0  0
   30.0183   27.0155   69.6585 C   0  0  0  0  0  0  0  0  0  0  0  0
   31.1269   26.6856   70.7160 C   0  0  0  0  0  0  0  0  0  0  0  0
   30.8242   27.3572   71.9564 O   0  0  0  0  0  0  0  0  0  0  0  0
   32.4991   27.1671   70.1615 C   0  0  0  0  0  0  0  0  0  0  0  0
   33.5204   27.0403   71.1435 O   0  0  0  0  0  0  0  0  0  0  0  0
   32.4426   28.6411   69.7002 C   0  0  0  0  0  0  0  0  0  0  0  0
   33.6639   29.0104   69.0916 O   0  0  0  0  0  0  0  0  0  0  0  0
   30.7865   28.3146   71.8049 H   0  0  0  0  0  0  0  0  0  0  0  0
   33.3115   27.6073   71.9023 H   0  0  0  0  0  0  0  0  0  0  0  0
   33.8053   28.4716   68.2976 H   0  0  0  0  0  0  0  0  0  0  0  0
   28.6312   26.4475   69.9803 C   0  0  0  0  0  0  0  0  0  0  0  0
   28.5585   26.0241   71.3405 O   0  0  0  0  0  0  0  0  0  0  0  0
   28.7191   26.7821   71.9241 H   0  0  0  0  0  0  0  0  0  0  0  0
   29.1272   25.3524   64.8564 C   0  0  0  0  0  0  0  0  0  0  0  0
   30.3260   23.7372   61.8838 C   0  0  0  0  0  0  0  0  0  0  0  0
   30.2351   24.3878   63.1694 O   0  0  0  0  0  0  0  0  0  0  0  0
   28.8810   24.6404   63.5501 C   0  0  0  0  0  0  0  0  0  0  0  0
   28.0568   23.3082   63.7566 C   0  0  0  0  0  0  0  0  0  0  0  0
   26.6292   23.5256   63.9794 O   0  0  0  0  0  0  0  0  0  0  0  0
   28.1756   22.3883   62.5387 C   0  0  0  0  0  0  0  0  0  0  0  0
   27.7666   21.0607   62.9479 O   0  0  0  0  0  0  0  0  0  0  0  0
   29.6081   22.3478   61.9374 C   0  0  0  0  0  0  0  0  0  0  0  0
   29.5212   21.8392   60.6307 O   0  0  0  0  0  0  0  0  0  0  0  0
   26.2360   23.9267   63.1886 H   0  0  0  0  0  0  0  0  0  0  0  0
   28.3560   20.7426   63.6495 H   0  0  0  0  0  0  0  0  0  0  0  0
   28.9803   22.4337   60.0876 H   0  0  0  0  0  0  0  0  0  0  0  0
   29.8305   24.5612   60.7510 O   0  0  0  0  0  0  0  0  0  0  0  0
   30.8181   25.1173   59.7505 C   0  0  0  0  0  0  0  0  0  0  0  0
   32.2157   24.6787   60.0170 O   0  0  0  0  0  0  0  0  0  0  0  0
   33.0455   25.7767   60.5071 C   0  0  0  0  0  0  0  0  0  0  0  0
   32.2932   27.0874   60.3573 C   0  0  0  0  0  0  0  0  0  0  0  0
   32.9705   27.9245   59.3685 O   0  0  0  0  0  0  0  0  0  0  0  0
   30.8232   26.6872   59.9700 C   0  0  0  0  0  0  0  0  0  0  0  0
   30.3152   27.4489   58.8068 O   0  0  0  0  0  0  0  0  0  0  0  0
   33.0292   27.4469   58.5263 H   0  0  0  0  0  0  0  0  0  0  0  0
   30.8789   27.2767   58.0364 H   0  0  0  0  0  0  0  0  0  0  0  0
   30.4788   24.7301   58.2674 C   0  0  0  0  0  0  0  0  0  0  0  0
   31.4223   25.2658   57.3192 O   0  0  0  0  0  0  0  0  0  0  0  0
   32.3043   24.9057   57.5020 H   0  0  0  0  0  0  0  0  0  0  0  0
   33.3814   25.5108   61.9708 C   0  0  0  0  0  0  0  0  0  0  0  0
   32.5205   26.3327   62.7669 O   0  0  0  0  0  0  0  0  0  0  0  0
   31.5954   26.1133   62.5747 H   0  0  0  0  0  0  0  0  0  0  0  0
 38 37  1  0  0  0
 40 39  1  0  0  0
 39 37  1  0  0  0
 39 32  1  0  0  0
 37 35  1  0  0  0
 35 36  1  0  0  0
 35 34  1  0  0  0
 32 33  1  0  0  0
 32 44  1  0  0  0
 55 54  1  0  0  0
 33 34  1  0  0  0
 34 31  1  0  0  0
 54 45  1  0  0  0
 44 45  1  0  0  0
 10  9  1  0  0  0
 31  1  1  0  0  0
 45 46  1  0  0  0
 45 50  1  0  0  0
 46 47  1  0  0  0
  9  2  1  0  0  0
  9  7  1  0  0  0
  1  2  1  0  0  0
  2  3  1  0  0  0
  8  7  1  0  0  0
 50 51  1  0  0  0
 50 48  1  0  0  0
 58 57  1  0  0  0
  7  5  1  0  0  0
 47 57  1  0  0  0
 47 48  1  0  0  0
  3  4  1  0  0  0
 48 49  1  0  0  0
  5  4  1  0  0  0
  5  6  1  0  0  0
  4 14  1  0  0  0
 14 15  1  0  0  0
 15 16  1  0  0  0
 16 17  1  0  0  0
 16 23  1  0  0  0
 24 23  1  0  0  0
 29 28  1  0  0  0
 17 18  1  0  0  0
 23 21  1  0  0  0
 18 28  1  0  0  0
 18 19  1  0  0  0
 21 19  1  0  0  0
 21 22  1  0  0  0
 19 20  1  0  0  0
 29 30  1  0  0  0
 20 25  1  0  0  0
 22 26  1  0  0  0
 24 27  1  0  0  0
  6 11  1  0  0  0
  8 12  1  0  0  0
 10 13  1  0  0  0
 55 56  1  0  0  0
 49 52  1  0  0  0
 51 53  1  0  0  0
 58 59  1  0  0  0
 36 41  1  0  0  0
 38 42  1  0  0  0
 40 43  1  0  0  0
M  END
> <minimizedAffinity>
-13.77224

$$$$
6EQ1_STW_B_726


 59 62  0  0  0  0  0  0  0  0999 V2000
   30.7000   24.1485   63.0956 O   0  0  0  0  0  0  0  0  0  0  0  0
   30.1058   23.5983   64.2939 C   0  0  0  0  0  0  0  0  0  0  0  0
   30.1773   24.7363   65.2235 O   0  0  0  0  0  0  0  0  0  0  0  0
   29.1465   25.7179   64.9782 C   0  0  0  0  0  0  0  0  0  0  0  0
   27.8508   25.1290   65.5570 C   0  0  0  0  0  0  0  0  0  0  0  0
   27.9929   24.8776   66.9739 O   0  0  0  0  0  0  0  0  0  0  0  0
   27.5169   23.7501   64.9301 C   0  0  0  0  0  0  0  0  0  0  0  0
   26.2684   23.8164   64.2205 O   0  0  0  0  0  0  0  0  0  0  0  0
   28.6220   23.1317   64.0166 C   0  0  0  0  0  0  0  0  0  0  0  0
   28.5525   21.6922   64.1143 O   0  0  0  0  0  0  0  0  0  0  0  0
   28.6955   24.2244   67.1176 H   0  0  0  0  0  0  0  0  0  0  0  0
   26.3547   24.4255   63.4706 H   0  0  0  0  0  0  0  0  0  0  0  0
   28.7576   21.4196   65.0223 H   0  0  0  0  0  0  0  0  0  0  0  0
   29.6458   26.9966   65.6329 C   0  0  0  0  0  0  0  0  0  0  0  0
   30.2579   26.8080   66.9368 O   0  0  0  0  0  0  0  0  0  0  0  0
   30.0195   27.9482   67.7482 C   0  0  0  0  0  0  0  0  0  0  0  0
   29.1824   27.6116   68.9418 O   0  0  0  0  0  0  0  0  0  0  0  0
   29.8209   26.6921   69.8293 C   0  0  0  0  0  0  0  0  0  0  0  0
   31.0944   27.3711   70.4402 C   0  0  0  0  0  0  0  0  0  0  0  0
   30.7047   28.5450   71.1828 O   0  0  0  0  0  0  0  0  0  0  0  0
   32.0538   27.7603   69.2782 C   0  0  0  0  0  0  0  0  0  0  0  0
   33.1540   28.5241   69.7575 O   0  0  0  0  0  0  0  0  0  0  0  0
   31.3264   28.5792   68.1878 C   0  0  0  0  0  0  0  0  0  0  0  0
   32.1899   28.8116   67.0930 O   0  0  0  0  0  0  0  0  0  0  0  0
   30.2508   29.1657   70.5915 H   0  0  0  0  0  0  0  0  0  0  0  0
   32.8290   29.3537   70.1410 H   0  0  0  0  0  0  0  0  0  0  0  0
   32.4378   27.9643   66.6912 H   0  0  0  0  0  0  0  0  0  0  0  0
   28.8537   26.0936   70.8571 C   0  0  0  0  0  0  0  0  0  0  0  0
   27.5097   26.4785   70.5742 O   0  0  0  0  0  0  0  0  0  0  0  0
   27.2583   26.1534   69.6955 H   0  0  0  0  0  0  0  0  0  0  0  0
   29.9654   23.9177   61.9270 C   0  0  0  0  0  0  0  0  0  0  0  0
   32.2263   26.5162   60.9180 C   0  0  0  0  0  0  0  0  0  0  0  0
   31.6292   25.3652   61.5528 O   0  0  0  0  0  0  0  0  0  0  0  0
   30.3187   25.0937   61.0517 C   0  0  0  0  0  0  0  0  0  0  0  0
   30.3305   24.7009   59.5213 C   0  0  0  0  0  0  0  0  0  0  0  0
   28.9987   24.5822   58.9319 O   0  0  0  0  0  0  0  0  0  0  0  0
   31.0878   25.7383   58.6884 C   0  0  0  0  0  0  0  0  0  0  0  0
   31.4150   25.1283   57.4163 O   0  0  0  0  0  0  0  0  0  0  0  0
   32.3772   26.2596   59.3818 C   0  0  0  0  0  0  0  0  0  0  0  0
   32.7524   27.4634   58.7625 O   0  0  0  0  0  0  0  0  0  0  0  0
   28.5586   25.4464   58.9509 H   0  0  0  0  0  0  0  0  0  0  0  0
   31.9845   24.3572   57.5645 H   0  0  0  0  0  0  0  0  0  0  0  0
   32.0524   28.1232   58.8873 H   0  0  0  0  0  0  0  0  0  0  0  0
   31.5167   27.7935   61.1880 O   0  0  0  0  0  0  0  0  0  0  0  0
   32.2311   28.8949   61.9378 C   0  0  0  0  0  0  0  0  0  0  0  0
   33.2404   29.5999   61.1004 O   0  0  0  0  0  0  0  0  0  0  0  0
   34.6055   29.2854   61.5151 C   0  0  0  0  0  0  0  0  0  0  0  0
   34.5746   28.5317   62.8331 C   0  0  0  0  0  0  0  0  0  0  0  0
   35.1775   29.3576   63.8779 O   0  0  0  0  0  0  0  0  0  0  0  0
   33.0633   28.1759   63.0793 C   0  0  0  0  0  0  0  0  0  0  0  0
   32.6141   28.5224   64.4466 O   0  0  0  0  0  0  0  0  0  0  0  0
   34.7032   30.2016   63.9368 H   0  0  0  0  0  0  0  0  0  0  0  0
   32.7180   29.4762   64.5891 H   0  0  0  0  0  0  0  0  0  0  0  0
   31.2565   29.9824   62.5140 C   0  0  0  0  0  0  0  0  0  0  0  0
   31.9411   31.0126   63.2529 O   0  0  0  0  0  0  0  0  0  0  0  0
   32.5553   31.4788   62.6644 H   0  0  0  0  0  0  0  0  0  0  0  0
   35.2579   28.4415   60.4252 C   0  0  0  0  0  0  0  0  0  0  0  0
   35.1956   29.1893   59.2055 O   0  0  0  0  0  0  0  0  0  0  0  0
   35.6599   30.0333   59.3197 H   0  0  0  0  0  0  0  0  0  0  0  0
 38 37  1  0  0  0
 40 39  1  0  0  0
 39 37  1  0  0  0
 39 32  1  0  0  0
 37 35  1  0  0  0
 35 36  1  0  0  0
 35 34  1  0  0  0
 32 33  1  0  0  0
 32 44  1  0  0  0
 55 54  1  0  0  0
 33 34  1  0  0  0
 34 31  1  0  0  0
 54 45  1  0  0  0
 44 45  1  0  0  0
 10  9  1  0  0  0
 31  1  1  0  0  0
 45 46  1  0  0  0
 45 50  1  0  0  0
 46 47  1  0  0  0
  9  2  1  0  0  0
  9  7  1  0  0  0
  1  2  1  0  0  0
  2  3  1  0  0  0
  8  7  1  0  0  0
 50 51  1  0  0  0
 50 48  1  0  0  0
 58 57  1  0  0  0
  7  5  1  0  0  0
 47 57  1  0  0  0
 47 48  1  0  0  0
  3  4  1  0  0  0
 48 49  1  0  0  0
  5  4  1  0  0  0
  5  6  1  0  0  0
  4 14  1  0  0  0
 14 15  1  0  0  0
 15 16  1  0  0  0
 16 17  1  0  0  0
 16 23  1  0  0  0
 24 23  1  0  0  0
 29 28  1  0  0  0
 17 18  1  0  0  0
 23 21  1  0  0  0
 18 28  1  0  0  0
 18 19  1  0  0  0
 21 19  1  0  0  0
 21 22  1  0  0  0
 19 20  1  0  0  0
 29 30  1  0  0  0
 20 25  1  0  0  0
 22 26  1  0  0  0
 24 27  1  0  0  0
  6 11  1  0  0  0
  8 12  1  0  0  0
 10 13  1  0  0  0
 55 56  1  0  0  0
 49 52  1  0  0  0
 51 53  1  0  0  0
 58 59  1  0  0  0
 36 41  1  0  0  0
 38 42  1  0  0  0
 40 43  1  0  0  0
M  END
> <minimizedAffinity>
-12.87339

$$$$
6EQ1_STW_B_726


 59 62  0  0  0  0  0  0  0  0999 V2000
   29.8581   26.5755   64.8389 O   0  0  0  0  0  0  0  0  0  0  0  0
   29.2433   27.8061   64.3922 C   0  0  0  0  0  0  0  0  0  0  0  0
   29.6110   28.7416   65.4664 O   0  0  0  0  0  0  0  0  0  0  0  0
   30.9753   29.2032   65.3563 C   0  0  0  0  0  0  0  0  0  0  0  0
   30.9813   30.2509   64.2325 C   0  0  0  0  0  0  0  0  0  0  0  0
   30.0933   31.3466   64.5515 O   0  0  0  0  0  0  0  0  0  0  0  0
   30.4445   29.6662   62.8999 C   0  0  0  0  0  0  0  0  0  0  0  0
   31.4718   29.6967   61.8947 O   0  0  0  0  0  0  0  0  0  0  0  0
   29.8191   28.2381   62.9857 C   0  0  0  0  0  0  0  0  0  0  0  0
   28.7752   28.1287   61.9933 O   0  0  0  0  0  0  0  0  0  0  0  0
   29.1854   31.0145   64.6307 H   0  0  0  0  0  0  0  0  0  0  0  0
   32.1991   29.1112   62.1577 H   0  0  0  0  0  0  0  0  0  0  0  0
   28.0651   28.7562   62.2003 H   0  0  0  0  0  0  0  0  0  0  0  0
   31.3395   29.7131   66.7421 C   0  0  0  0  0  0  0  0  0  0  0  0
   31.6687   28.6727   67.7010 O   0  0  0  0  0  0  0  0  0  0  0  0
   31.2920   29.0860   69.0057 C   0  0  0  0  0  0  0  0  0  0  0  0
   30.0427   28.4012   69.4629 O   0  0  0  0  0  0  0  0  0  0  0  0
   30.1958   26.9863   69.5871 C   0  0  0  0  0  0  0  0  0  0  0  0
   31.2313   26.6815   70.7234 C   0  0  0  0  0  0  0  0  0  0  0  0
   30.7440   27.2115   71.9736 O   0  0  0  0  0  0  0  0  0  0  0  0
   32.5884   27.3443   70.3475 C   0  0  0  0  0  0  0  0  0  0  0  0
   33.5222   27.2384   71.4153 O   0  0  0  0  0  0  0  0  0  0  0  0
   32.4149   28.8389   69.9943 C   0  0  0  0  0  0  0  0  0  0  0  0
   33.6398   29.3798   69.5411 O   0  0  0  0  0  0  0  0  0  0  0  0
   30.6167   28.1696   71.8909 H   0  0  0  0  0  0  0  0  0  0  0  0
   33.1838   27.7150   72.1894 H   0  0  0  0  0  0  0  0  0  0  0  0
   33.9117   28.9273   68.7274 H   0  0  0  0  0  0  0  0  0  0  0  0
   28.8549   26.2561   69.7242 C   0  0  0  0  0  0  0  0  0  0  0  0
   28.3441   26.3763   71.0505 O   0  0  0  0  0  0  0  0  0  0  0  0
   28.2023   27.3130   71.2588 H   0  0  0  0  0  0  0  0  0  0  0  0
   28.9684   25.6578   65.4089 C   0  0  0  0  0  0  0  0  0  0  0  0
   31.0357   22.9326   64.3220 C   0  0  0  0  0  0  0  0  0  0  0  0
   30.5178   24.0971   65.0003 O   0  0  0  0  0  0  0  0  0  0  0  0
   29.1833   24.4073   64.5940 C   0  0  0  0  0  0  0  0  0  0  0  0
   28.1571   23.2712   64.9849 C   0  0  0  0  0  0  0  0  0  0  0  0
   26.8170   23.4724   64.4384 O   0  0  0  0  0  0  0  0  0  0  0  0
   28.6312   21.9019   64.4909 C   0  0  0  0  0  0  0  0  0  0  0  0
   27.8938   20.8911   65.2200 O   0  0  0  0  0  0  0  0  0  0  0  0
   30.1598   21.6821   64.6649 C   0  0  0  0  0  0  0  0  0  0  0  0
   30.5485   20.6217   63.8294 O   0  0  0  0  0  0  0  0  0  0  0  0
   26.8538   23.4348   63.4698 H   0  0  0  0  0  0  0  0  0  0  0  0
   28.0825   20.9738   66.1678 H   0  0  0  0  0  0  0  0  0  0  0  0
   30.3790   20.8600   62.9045 H   0  0  0  0  0  0  0  0  0  0  0  0
   31.1869   23.1036   62.8537 O   0  0  0  0  0  0  0  0  0  0  0  0
   31.7449   24.3998   62.3114 C   0  0  0  0  0  0  0  0  0  0  0  0
   30.6896   25.4192   62.0583 O   0  0  0  0  0  0  0  0  0  0  0  0
   30.4772   25.6379   60.6295 C   0  0  0  0  0  0  0  0  0  0  0  0
   31.5724   24.9413   59.8411 C   0  0  0  0  0  0  0  0  0  0  0  0
   32.4014   25.9437   59.1737 O   0  0  0  0  0  0  0  0  0  0  0  0
   32.3429   24.0535   60.8848 C   0  0  0  0  0  0  0  0  0  0  0  0
   33.8109   24.2242   60.8013 O   0  0  0  0  0  0  0  0  0  0  0  0
   32.7674   26.5523   59.8343 H   0  0  0  0  0  0  0  0  0  0  0  0
   34.0393   25.1502   60.9783 H   0  0  0  0  0  0  0  0  0  0  0  0
   32.8140   25.0550   63.2560 C   0  0  0  0  0  0  0  0  0  0  0  0
   33.2836   26.3283   62.7719 O   0  0  0  0  0  0  0  0  0  0  0  0
   32.5407   26.9503   62.7251 H   0  0  0  0  0  0  0  0  0  0  0  0
   29.1065   25.0836   60.2557 C   0  0  0  0  0  0  0  0  0  0  0  0
   29.1975   24.5721   58.9212 O   0  0  0  0  0  0  0  0  0  0  0  0
   29.8763   23.8801   58.8858 H   0  0  0  0  0  0  0  0  0  0  0  0
 38 37  1  0  0  0
 40 39  1  0  0  0
 39 37  1  0  0  0
 39 32  1  0  0  0
 37 35  1  0  0  0
 35 36  1  0  0  0
 35 34  1  0  0  0
 32 33  1  0  0  0
 32 44  1  0  0  0
 55 54  1  0  0  0
 33 34  1  0  0  0
 34 31  1  0  0  0
 54 45  1  0  0  0
 44 45  1  0  0  0
 10  9  1  0  0  0
 31  1  1  0  0  0
 45 46  1  0  0  0
 45 50  1  0  0  0
 46 47  1  0  0  0
  9  2  1  0  0  0
  9  7  1  0  0  0
  1  2  1  0  0  0
  2  3  1  0  0  0
  8  7  1  0  0  0
 50 51  1  0  0  0
 50 48  1  0  0  0
 58 57  1  0  0  0
  7  5  1  0  0  0
 47 57  1  0  0  0
 47 48  1  0  0  0
  3  4  1  0  0  0
 48 49  1  0  0  0
  5  4  1  0  0  0
  5  6  1  0  0  0
  4 14  1  0  0  0
 14 15  1  0  0  0
 15 16  1  0  0  0
 16 17  1  0  0  0
 16 23  1  0  0  0
 24 23  1  0  0  0
 29 28  1  0  0  0
 17 18  1  0  0  0
 23 21  1  0  0  0
 18 28  1  0  0  0
 18 19  1  0  0  0
 21 19  1  0  0  0
 21 22  1  0  0  0
 19 20  1  0  0  0
 29 30  1  0  0  0
 20 25  1  0  0  0
 22 26  1  0  0  0
 24 27  1  0  0  0
  6 11  1  0  0  0
  8 12  1  0  0  0
 10 13  1  0  0  0
 55 56  1  0  0  0
 49 52  1  0  0  0
 51 53  1  0  0  0
 58 59  1  0  0  0
 36 41  1  0  0  0
 38 42  1  0  0  0
 40 43  1  0  0  0
M  END
> <minimizedAffinity>
-12.27715

$$$$
6EQ1_STW_B_726


 59 62  0  0  0  0  0  0  0  0999 V2000
   30.7767   23.6782   63.2210 O   0  0  0  0  0  0  0  0  0  0  0  0
   30.0173   23.2248   64.3653 C   0  0  0  0  0  0  0  0  0  0  0  0
   30.0113   24.4195   65.2239 O   0  0  0  0  0  0  0  0  0  0  0  0
   29.0549   25.4103   64.7881 C   0  0  0  0  0  0  0  0  0  0  0  0
   27.6766   24.8963   65.2318 C   0  0  0  0  0  0  0  0  0  0  0  0
   27.6302   24.7354   66.6682 O   0  0  0  0  0  0  0  0  0  0  0  0
   27.3759   23.4885   64.6544 C   0  0  0  0  0  0  0  0  0  0  0  0
   26.2298   23.5415   63.7881 O   0  0  0  0  0  0  0  0  0  0  0  0
   28.5646   22.7813   63.9299 C   0  0  0  0  0  0  0  0  0  0  0  0
   28.4327   21.3539   64.1073 O   0  0  0  0  0  0  0  0  0  0  0  0
   28.2856   24.0744   66.9409 H   0  0  0  0  0  0  0  0  0  0  0  0
   26.4313   24.0972   63.0190 H   0  0  0  0  0  0  0  0  0  0  0  0
   28.5120   21.1364   65.0493 H   0  0  0  0  0  0  0  0  0  0  0  0
   29.5125   26.7154   65.4206 C   0  0  0  0  0  0  0  0  0  0  0  0
   30.0852   26.5748   66.7482 O   0  0  0  0  0  0  0  0  0  0  0  0
   29.8876   27.7718   67.4853 C   0  0  0  0  0  0  0  0  0  0  0  0
   29.1291   27.5224   68.7507 O   0  0  0  0  0  0  0  0  0  0  0  0
   29.8294   26.6749   69.6629 C   0  0  0  0  0  0  0  0  0  0  0  0
   31.1323   27.4031   70.1406 C   0  0  0  0  0  0  0  0  0  0  0  0
   30.7790   28.6279   70.8162 O   0  0  0  0  0  0  0  0  0  0  0  0
   32.0144   27.7078   68.8951 C   0  0  0  0  0  0  0  0  0  0  0  0
   33.1354   28.5100   69.2463 O   0  0  0  0  0  0  0  0  0  0  0  0
   31.2137   28.4393   67.7940 C   0  0  0  0  0  0  0  0  0  0  0  0
   32.0055   28.5923   66.6331 O   0  0  0  0  0  0  0  0  0  0  0  0
   30.2840   29.2006   70.2096 H   0  0  0  0  0  0  0  0  0  0  0  0
   32.8275   29.3648   69.5862 H   0  0  0  0  0  0  0  0  0  0  0  0
   32.2355   27.7182   66.2811 H   0  0  0  0  0  0  0  0  0  0  0  0
   28.9330   26.1514   70.7909 C   0  0  0  0  0  0  0  0  0  0  0  0
   27.5727   26.5204   70.5717 O   0  0  0  0  0  0  0  0  0  0  0  0
   27.2643   26.1366   69.7360 H   0  0  0  0  0  0  0  0  0  0  0  0
   30.1519   23.4590   61.9881 C   0  0  0  0  0  0  0  0  0  0  0  0
   32.4962   25.9732   60.9562 C   0  0  0  0  0  0  0  0  0  0  0  0
   31.8801   24.8089   61.5473 O   0  0  0  0  0  0  0  0  0  0  0  0
   30.5005   24.6921   61.1932 C   0  0  0  0  0  0  0  0  0  0  0  0
   30.2956   24.4656   59.6429 C   0  0  0  0  0  0  0  0  0  0  0  0
   28.8979   24.5113   59.2193 O   0  0  0  0  0  0  0  0  0  0  0  0
   31.0367   25.5264   58.8249 C   0  0  0  0  0  0  0  0  0  0  0  0
   31.1553   25.0333   57.4684 O   0  0  0  0  0  0  0  0  0  0  0  0
   32.4402   25.8719   59.3957 C   0  0  0  0  0  0  0  0  0  0  0  0
   32.8434   27.1035   58.8533 O   0  0  0  0  0  0  0  0  0  0  0  0
   28.5408   25.3991   59.3778 H   0  0  0  0  0  0  0  0  0  0  0  0
   31.6684   24.2101   57.4674 H   0  0  0  0  0  0  0  0  0  0  0  0
   32.2239   27.7968   59.1297 H   0  0  0  0  0  0  0  0  0  0  0  0
   31.9388   27.2639   61.4370 O   0  0  0  0  0  0  0  0  0  0  0  0
   32.6035   27.9737   62.5946 C   0  0  0  0  0  0  0  0  0  0  0  0
   31.6914   28.1568   63.7572 O   0  0  0  0  0  0  0  0  0  0  0  0
   31.3078   29.5557   63.9316 C   0  0  0  0  0  0  0  0  0  0  0  0
   32.1555   30.4312   63.0254 C   0  0  0  0  0  0  0  0  0  0  0  0
   33.0214   31.2793   63.8429 O   0  0  0  0  0  0  0  0  0  0  0  0
   32.9253   29.4383   62.0807 C   0  0  0  0  0  0  0  0  0  0  0  0
   34.3738   29.7339   62.0057 O   0  0  0  0  0  0  0  0  0  0  0  0
   33.5694   30.7227   64.4180 H   0  0  0  0  0  0  0  0  0  0  0  0
   34.7650   29.6603   62.8902 H   0  0  0  0  0  0  0  0  0  0  0  0
   33.8873   27.2361   63.1163 C   0  0  0  0  0  0  0  0  0  0  0  0
   33.5811   26.0692   63.9043 O   0  0  0  0  0  0  0  0  0  0  0  0
   33.0988   25.4282   63.3590 H   0  0  0  0  0  0  0  0  0  0  0  0
   29.8284   29.6960   63.5886 C   0  0  0  0  0  0  0  0  0  0  0  0
   29.7416   30.2868   62.2871 O   0  0  0  0  0  0  0  0  0  0  0  0
   30.1978   29.7215   61.6443 H   0  0  0  0  0  0  0  0  0  0  0  0
 38 37  1  0  0  0
 40 39  1  0  0  0
 39 37  1  0  0  0
 39 32  1  0  0  0
 37 35  1  0  0  0
 35 36  1  0  0  0
 35 34  1  0  0  0
 32 33  1  0  0  0
 32 44  1  0  0  0
 55 54  1  0  0  0
 33 34  1  0  0  0
 34 31  1  0  0  0
 54 45  1  0  0  0
 44 45  1  0  0  0
 10  9  1  0  0  0
 31  1  1  0  0  0
 45 46  1  0  0  0
 45 50  1  0  0  0
 46 47  1  0  0  0
  9  2  1  0  0  0
  9  7  1  0  0  0
  1  2  1  0  0  0
  2  3  1  0  0  0
  8  7  1  0  0  0
 50 51  1  0  0  0
 50 48  1  0  0  0
 58 57  1  0  0  0
  7  5  1  0  0  0
 47 57  1  0  0  0
 47 48  1  0  0  0
  3  4  1  0  0  0
 48 49  1  0  0  0
  5  4  1  0  0  0
  5  6  1  0  0  0
  4 14  1  0  0  0
 14 15  1  0  0  0
 15 16  1  0  0  0
 16 17  1  0  0  0
 16 23  1  0  0  0
 24 23  1  0  0  0
 29 28  1  0  0  0
 17 18  1  0  0  0
 23 21  1  0  0  0
 18 28  1  0  0  0
 18 19  1  0  0  0
 21 19  1  0  0  0
 21 22  1  0  0  0
 19 20  1  0  0  0
 29 30  1  0  0  0
 20 25  1  0  0  0
 22 26  1  0  0  0
 24 27  1  0  0  0
  6 11  1  0  0  0
  8 12  1  0  0  0
 10 13  1  0  0  0
 55 56  1  0  0  0
 49 52  1  0  0  0
 51 53  1  0  0  0
 58 59  1  0  0  0
 36 41  1  0  0  0
 38 42  1  0  0  0
 40 43  1  0  0  0
M  END
> <minimizedAffinity>
-11.85752

$$$$
6EQ1_STW_B_726


 59 62  0  0  0  0  0  0  0  0999 V2000
   30.5690   26.8312   63.7528 O   0  0  0  0  0  0  0  0  0  0  0  0
   30.1713   28.1940   63.4768 C   0  0  0  0  0  0  0  0  0  0  0  0
   29.8814   28.7091   64.8240 O   0  0  0  0  0  0  0  0  0  0  0  0
   31.0790   29.0448   65.5584 C   0  0  0  0  0  0  0  0  0  0  0  0
   31.5693   30.3834   64.9853 C   0  0  0  0  0  0  0  0  0  0  0  0
   30.5625   31.4083   65.1497 O   0  0  0  0  0  0  0  0  0  0  0  0
   31.8167   30.2970   63.4565 C   0  0  0  0  0  0  0  0  0  0  0  0
   33.2037   30.5360   63.1637 O   0  0  0  0  0  0  0  0  0  0  0  0
   31.3400   28.9819   62.7627 C   0  0  0  0  0  0  0  0  0  0  0  0
   30.9446   29.2894   61.4079 O   0  0  0  0  0  0  0  0  0  0  0  0
   29.7644   31.1594   64.6578 H   0  0  0  0  0  0  0  0  0  0  0  0
   33.7426   29.8289   63.5516 H   0  0  0  0  0  0  0  0  0  0  0  0
   30.1821   29.8887   61.4217 H   0  0  0  0  0  0  0  0  0  0  0  0
   30.6616   29.0611   67.0208 C   0  0  0  0  0  0  0  0  0  0  0  0
   29.5956   28.1325   67.3548 O   0  0  0  0  0  0  0  0  0  0  0  0
   30.1473   26.9486   67.9111 C   0  0  0  0  0  0  0  0  0  0  0  0
   31.4584   27.2125   68.5821 O   0  0  0  0  0  0  0  0  0  0  0  0
   31.3445   28.0918   69.7023 C   0  0  0  0  0  0  0  0  0  0  0  0
   30.4848   27.3966   70.8130 C   0  0  0  0  0  0  0  0  0  0  0  0
   31.1365   26.1810   71.2359 O   0  0  0  0  0  0  0  0  0  0  0  0
   29.0788   27.0800   70.2254 C   0  0  0  0  0  0  0  0  0  0  0  0
   28.3071   26.3051   71.1350 O   0  0  0  0  0  0  0  0  0  0  0  0
   29.1792   26.3109   68.8886 C   0  0  0  0  0  0  0  0  0  0  0  0
   27.8950   26.1462   68.3213 O   0  0  0  0  0  0  0  0  0  0  0  0
   31.2371   25.5868   70.4759 H   0  0  0  0  0  0  0  0  0  0  0  0
   28.7449   25.4528   71.2860 H   0  0  0  0  0  0  0  0  0  0  0  0
   27.5171   27.0163   68.1185 H   0  0  0  0  0  0  0  0  0  0  0  0
   32.7016   28.6242   70.1765 C   0  0  0  0  0  0  0  0  0  0  0  0
   33.6059   28.7576   69.0814 O   0  0  0  0  0  0  0  0  0  0  0  0
   33.2424   29.3843   68.4365 H   0  0  0  0  0  0  0  0  0  0  0  0
   31.8529   26.5009   63.3045 C   0  0  0  0  0  0  0  0  0  0  0  0
   29.6166   24.4919   61.3438 C   0  0  0  0  0  0  0  0  0  0  0  0
   30.1707   25.4351   62.2860 O   0  0  0  0  0  0  0  0  0  0  0  0
   31.5944   25.5155   62.1927 C   0  0  0  0  0  0  0  0  0  0  0  0
   32.0740   26.0730   60.7942 C   0  0  0  0  0  0  0  0  0  0  0  0
   33.5206   26.0102   60.5982 O   0  0  0  0  0  0  0  0  0  0  0  0
   31.4407   25.2924   59.6395 C   0  0  0  0  0  0  0  0  0  0  0  0
   31.5798   26.0909   58.4394 O   0  0  0  0  0  0  0  0  0  0  0  0
   29.9460   24.9426   59.8819 C   0  0  0  0  0  0  0  0  0  0  0  0
   29.5902   23.9054   59.0037 O   0  0  0  0  0  0  0  0  0  0  0  0
   33.8064   25.0833   60.5939 H   0  0  0  0  0  0  0  0  0  0  0  0
   31.1104   26.9320   58.5544 H   0  0  0  0  0  0  0  0  0  0  0  0
   30.1222   23.1185   59.2003 H   0  0  0  0  0  0  0  0  0  0  0  0
   30.0265   23.0840   61.5833 O   0  0  0  0  0  0  0  0  0  0  0  0
   29.0647   22.1370   62.2646 C   0  0  0  0  0  0  0  0  0  0  0  0
   27.9639   22.8464   62.9730 O   0  0  0  0  0  0  0  0  0  0  0  0
   28.1045   22.7553   64.4243 C   0  0  0  0  0  0  0  0  0  0  0  0
   29.1927   21.7530   64.7669 C   0  0  0  0  0  0  0  0  0  0  0  0
   28.5956   20.6003   65.4391 O   0  0  0  0  0  0  0  0  0  0  0  0
   29.8979   21.4147   63.4033 C   0  0  0  0  0  0  0  0  0  0  0  0
   30.0521   19.9580   63.1900 O   0  0  0  0  0  0  0  0  0  0  0  0
   27.9157   20.2096   64.8682 H   0  0  0  0  0  0  0  0  0  0  0  0
   29.1776   19.5383   63.1802 H   0  0  0  0  0  0  0  0  0  0  0  0
   28.4037   21.1117   61.2766 C   0  0  0  0  0  0  0  0  0  0  0  0
   28.0202   21.7099   60.0230 O   0  0  0  0  0  0  0  0  0  0  0  0
   28.8083   22.0541   59.5745 H   0  0  0  0  0  0  0  0  0  0  0  0
   28.4552   24.1386   64.9623 C   0  0  0  0  0  0  0  0  0  0  0  0
   29.8826   24.2205   65.0436 O   0  0  0  0  0  0  0  0  0  0  0  0
   30.2651   24.0799   64.1634 H   0  0  0  0  0  0  0  0  0  0  0  0
 38 37  1  0  0  0
 40 39  1  0  0  0
 39 37  1  0  0  0
 39 32  1  0  0  0
 37 35  1  0  0  0
 35 36  1  0  0  0
 35 34  1  0  0  0
 32 33  1  0  0  0
 32 44  1  0  0  0
 55 54  1  0  0  0
 33 34  1  0  0  0
 34 31  1  0  0  0
 54 45  1  0  0  0
 44 45  1  0  0  0
 10  9  1  0  0  0
 31  1  1  0  0  0
 45 46  1  0  0  0
 45 50  1  0  0  0
 46 47  1  0  0  0
  9  2  1  0  0  0
  9  7  1  0  0  0
  1  2  1  0  0  0
  2  3  1  0  0  0
  8  7  1  0  0  0
 50 51  1  0  0  0
 50 48  1  0  0  0
 58 57  1  0  0  0
  7  5  1  0  0  0
 47 57  1  0  0  0
 47 48  1  0  0  0
  3  4  1  0  0  0
 48 49  1  0  0  0
  5  4  1  0  0  0
  5  6  1  0  0  0
  4 14  1  0  0  0
 14 15  1  0  0  0
 15 16  1  0  0  0
 16 17  1  0  0  0
 16 23  1  0  0  0
 24 23  1  0  0  0
 29 28  1  0  0  0
 17 18  1  0  0  0
 23 21  1  0  0  0
 18 28  1  0  0  0
 18 19  1  0  0  0
 21 19  1  0  0  0
 21 22  1  0  0  0
 19 20  1  0  0  0
 29 30  1  0  0  0
 20 25  1  0  0  0
 22 26  1  0  0  0
 24 27  1  0  0  0
  6 11  1  0  0  0
  8 12  1  0  0  0
 10 13  1  0  0  0
 55 56  1  0  0  0
 49 52  1  0  0  0
 51 53  1  0  0  0
 58 59  1  0  0  0
 36 41  1  0  0  0
 38 42  1  0  0  0
 40 43  1  0  0  0
M  END
> <minimizedAffinity>
-11.69936

$$$$
6EQ1_STW_B_726


 59 62  0  0  0  0  0  0  0  0999 V2000
   30.0084   27.3774   63.6319 O   0  0  0  0  0  0  0  0  0  0  0  0
   29.8732   28.8164   63.5796 C   0  0  0  0  0  0  0  0  0  0  0  0
   29.7311   29.1643   65.0019 O   0  0  0  0  0  0  0  0  0  0  0  0
   30.9936   29.1545   65.7036 C   0  0  0  0  0  0  0  0  0  0  0  0
   31.7151   30.4498   65.3008 C   0  0  0  0  0  0  0  0  0  0  0  0
   30.9312   31.6071   65.6715 O   0  0  0  0  0  0  0  0  0  0  0  0
   31.8927   30.5537   63.7635 C   0  0  0  0  0  0  0  0  0  0  0  0
   33.2897   30.5719   63.4250 O   0  0  0  0  0  0  0  0  0  0  0  0
   31.1490   29.4723   62.9174 C   0  0  0  0  0  0  0  0  0  0  0  0
   30.7779   30.0517   61.6473 O   0  0  0  0  0  0  0  0  0  0  0  0
   30.0848   31.5896   65.1979 H   0  0  0  0  0  0  0  0  0  0  0  0
   33.6938   29.7259   63.6739 H   0  0  0  0  0  0  0  0  0  0  0  0
   30.1464   30.7734   61.7933 H   0  0  0  0  0  0  0  0  0  0  0  0
   30.6338   29.0245   67.1755 C   0  0  0  0  0  0  0  0  0  0  0  0
   29.5754   28.0698   67.4563 O   0  0  0  0  0  0  0  0  0  0  0  0
   30.1333   26.8776   67.9879 C   0  0  0  0  0  0  0  0  0  0  0  0
   31.4608   27.1279   68.6312 O   0  0  0  0  0  0  0  0  0  0  0  0
   31.3774   27.9963   69.7624 C   0  0  0  0  0  0  0  0  0  0  0  0
   30.5396   27.2945   70.8856 C   0  0  0  0  0  0  0  0  0  0  0  0
   31.1941   26.0714   71.2814 O   0  0  0  0  0  0  0  0  0  0  0  0
   29.1188   26.9912   70.3273 C   0  0  0  0  0  0  0  0  0  0  0  0
   28.3639   26.2111   71.2466 O   0  0  0  0  0  0  0  0  0  0  0  0
   29.1844   26.2351   68.9809 C   0  0  0  0  0  0  0  0  0  0  0  0
   27.8866   26.0828   68.4417 O   0  0  0  0  0  0  0  0  0  0  0  0
   31.2741   25.4843   70.5133 H   0  0  0  0  0  0  0  0  0  0  0  0
   28.8005   25.3551   71.3791 H   0  0  0  0  0  0  0  0  0  0  0  0
   27.5089   26.9568   68.2563 H   0  0  0  0  0  0  0  0  0  0  0  0
   32.7478   28.5169   70.2106 C   0  0  0  0  0  0  0  0  0  0  0  0
   33.6670   28.5324   69.1200 O   0  0  0  0  0  0  0  0  0  0  0  0
   33.3325   29.1188   68.4235 H   0  0  0  0  0  0  0  0  0  0  0  0
   28.8682   26.7052   64.0865 C   0  0  0  0  0  0  0  0  0  0  0  0
   30.2798   24.1421   62.0081 C   0  0  0  0  0  0  0  0  0  0  0  0
   30.0944   25.2115   62.9602 O   0  0  0  0  0  0  0  0  0  0  0  0
   28.7182   25.5668   63.1091 C   0  0  0  0  0  0  0  0  0  0  0  0
   27.8557   24.3882   63.7121 C   0  0  0  0  0  0  0  0  0  0  0  0
   26.4187   24.6528   63.7209 O   0  0  0  0  0  0  0  0  0  0  0  0
   28.0583   23.0925   62.9224 C   0  0  0  0  0  0  0  0  0  0  0  0
   27.5927   21.9967   63.7468 O   0  0  0  0  0  0  0  0  0  0  0  0
   29.5347   22.8564   62.4986 C   0  0  0  0  0  0  0  0  0  0  0  0
   29.5473   21.9096   61.4608 O   0  0  0  0  0  0  0  0  0  0  0  0
   26.0998   24.7364   62.8086 H   0  0  0  0  0  0  0  0  0  0  0  0
   28.1160   21.9609   64.5627 H   0  0  0  0  0  0  0  0  0  0  0  0
   29.0642   22.2610   60.6966 H   0  0  0  0  0  0  0  0  0  0  0  0
   29.8950   24.4954   60.6171 O   0  0  0  0  0  0  0  0  0  0  0  0
   30.8968   25.1921   59.7245 C   0  0  0  0  0  0  0  0  0  0  0  0
   32.3002   24.7806   60.0041 O   0  0  0  0  0  0  0  0  0  0  0  0
   33.0630   25.8507   60.6425 C   0  0  0  0  0  0  0  0  0  0  0  0
   32.2626   27.1405   60.5984 C   0  0  0  0  0  0  0  0  0  0  0  0
   32.9423   28.1033   59.7335 O   0  0  0  0  0  0  0  0  0  0  0  0
   30.8271   26.7286   60.1076 C   0  0  0  0  0  0  0  0  0  0  0  0
   30.3335   27.5902   59.0098 O   0  0  0  0  0  0  0  0  0  0  0  0
   33.0541   27.7208   58.8491 H   0  0  0  0  0  0  0  0  0  0  0  0
   30.9338   27.5226   58.2509 H   0  0  0  0  0  0  0  0  0  0  0  0
   30.6328   24.9526   58.1956 C   0  0  0  0  0  0  0  0  0  0  0  0
   31.4500   25.7847   57.3494 O   0  0  0  0  0  0  0  0  0  0  0  0
   32.3859   25.5803   57.5016 H   0  0  0  0  0  0  0  0  0  0  0  0
   33.3520   25.4431   62.0834 C   0  0  0  0  0  0  0  0  0  0  0  0
   32.7632   26.4305   62.9372 O   0  0  0  0  0  0  0  0  0  0  0  0
   31.8086   26.4743   62.7706 H   0  0  0  0  0  0  0  0  0  0  0  0
 38 37  1  0  0  0
 40 39  1  0  0  0
 39 37  1  0  0  0
 39 32  1  0  0  0
 37 35  1  0  0  0
 35 36  1  0  0  0
 35 34  1  0  0  0
 32 33  1  0  0  0
 32 44  1  0  0  0
 55 54  1  0  0  0
 33 34  1  0  0  0
 34 31  1  0  0  0
 54 45  1  0  0  0
 44 45  1  0  0  0
 10  9  1  0  0  0
 31  1  1  0  0  0
 45 46  1  0  0  0
 45 50  1  0  0  0
 46 47  1  0  0  0
  9  2  1  0  0  0
  9  7  1  0  0  0
  1  2  1  0  0  0
  2  3  1  0  0  0
  8  7  1  0  0  0
 50 51  1  0  0  0
 50 48  1  0  0  0
 58 57  1  0  0  0
  7  5  1  0  0  0
 47 57  1  0  0  0
 47 48  1  0  0  0
  3  4  1  0  0  0
 48 49  1  0  0  0
  5  4  1  0  0  0
  5  6  1  0  0  0
  4 14  1  0  0  0
 14 15  1  0  0  0
 15 16  1  0  0  0
 16 17  1  0  0  0
 16 23  1  0  0  0
 24 23  1  0  0  0
 29 28  1  0  0  0
 17 18  1  0  0  0
 23 21  1  0  0  0
 18 28  1  0  0  0
 18 19  1  0  0  0
 21 19  1  0  0  0
 21 22  1  0  0  0
 19 20  1  0  0  0
 29 30  1  0  0  0
 20 25  1  0  0  0
 22 26  1  0  0  0
 24 27  1  0  0  0
  6 11  1  0  0  0
  8 12  1  0  0  0
 10 13  1  0  0  0
 55 56  1  0  0  0
 49 52  1  0  0  0
 51 53  1  0  0  0
 58 59  1  0  0  0
 36 41  1  0  0  0
 38 42  1  0  0  0
 40 43  1  0  0  0
M  END
> <minimizedAffinity>
-11.66586

$$$$
6EQ1_STW_B_726


 59 62  0  0  0  0  0  0  0  0999 V2000
   29.1848   26.6843   63.8994 O   0  0  0  0  0  0  0  0  0  0  0  0
   29.8370   26.1111   65.0561 C   0  0  0  0  0  0  0  0  0  0  0  0
   31.0334   26.9574   65.1860 O   0  0  0  0  0  0  0  0  0  0  0  0
   30.7442   28.2366   65.7914 C   0  0  0  0  0  0  0  0  0  0  0  0
   30.5821   27.9692   67.2956 C   0  0  0  0  0  0  0  0  0  0  0  0
   31.7933   27.4030   67.8467 O   0  0  0  0  0  0  0  0  0  0  0  0
   29.4767   26.9179   67.5759 C   0  0  0  0  0  0  0  0  0  0  0  0
   28.4132   27.5078   68.3425 O   0  0  0  0  0  0  0  0  0  0  0  0
   28.8957   26.1899   66.3227 C   0  0  0  0  0  0  0  0  0  0  0  0
   28.5024   24.8532   66.7037 O   0  0  0  0  0  0  0  0  0  0  0  0
   31.9747   26.5507   67.4207 H   0  0  0  0  0  0  0  0  0  0  0  0
   27.9821   28.2005   67.8178 H   0  0  0  0  0  0  0  0  0  0  0  0
   29.2858   24.3516   66.9785 H   0  0  0  0  0  0  0  0  0  0  0  0
   31.9041   29.1382   65.3979 C   0  0  0  0  0  0  0  0  0  0  0  0
   32.6392   28.6989   64.2245 O   0  0  0  0  0  0  0  0  0  0  0  0
   33.0425   29.8258   63.4611 C   0  0  0  0  0  0  0  0  0  0  0  0
   34.5146   30.0695   63.5715 O   0  0  0  0  0  0  0  0  0  0  0  0
   35.2983   29.0010   63.0376 C   0  0  0  0  0  0  0  0  0  0  0  0
   35.0461   28.9033   61.4939 C   0  0  0  0  0  0  0  0  0  0  0  0
   35.4444   30.1375   60.8619 O   0  0  0  0  0  0  0  0  0  0  0  0
   33.5311   28.6382   61.2554 C   0  0  0  0  0  0  0  0  0  0  0  0
   33.2133   28.6989   59.8702 O   0  0  0  0  0  0  0  0  0  0  0  0
   32.6479   29.6601   62.0064 C   0  0  0  0  0  0  0  0  0  0  0  0
   31.2826   29.3205   61.8697 O   0  0  0  0  0  0  0  0  0  0  0  0
   34.9316   30.8717   61.2346 H   0  0  0  0  0  0  0  0  0  0  0  0
   33.3967   29.5905   59.5352 H   0  0  0  0  0  0  0  0  0  0  0  0
   31.1222   28.4553   62.2779 H   0  0  0  0  0  0  0  0  0  0  0  0
   36.7734   29.0885   63.4455 C   0  0  0  0  0  0  0  0  0  0  0  0
   36.9015   29.5155   64.8004 O   0  0  0  0  0  0  0  0  0  0  0  0
   36.4626   28.8767   65.3836 H   0  0  0  0  0  0  0  0  0  0  0  0
   28.3289   25.8072   63.2238 C   0  0  0  0  0  0  0  0  0  0  0  0
   28.8981   23.7304   60.3525 C   0  0  0  0  0  0  0  0  0  0  0  0
   28.2939   24.5639   61.3646 O   0  0  0  0  0  0  0  0  0  0  0  0
   29.2544   25.0520   62.3035 C   0  0  0  0  0  0  0  0  0  0  0  0
   30.3187   26.0075   61.6319 C   0  0  0  0  0  0  0  0  0  0  0  0
   31.4132   26.3898   62.5212 O   0  0  0  0  0  0  0  0  0  0  0  0
   30.9587   25.3501   60.4063 C   0  0  0  0  0  0  0  0  0  0  0  0
   31.5839   26.3948   59.6222 O   0  0  0  0  0  0  0  0  0  0  0  0
   29.9446   24.5580   59.5349 C   0  0  0  0  0  0  0  0  0  0  0  0
   30.6669   23.6772   58.7126 O   0  0  0  0  0  0  0  0  0  0  0  0
   31.9232   25.6012   62.7639 H   0  0  0  0  0  0  0  0  0  0  0  0
   30.9095   27.0285   59.3316 H   0  0  0  0  0  0  0  0  0  0  0  0
   31.1525   23.0444   59.2646 H   0  0  0  0  0  0  0  0  0  0  0  0
   29.4906   22.4728   60.8772 O   0  0  0  0  0  0  0  0  0  0  0  0
   28.5786   21.3493   61.3151 C   0  0  0  0  0  0  0  0  0  0  0  0
   27.6073   21.7717   62.3616 O   0  0  0  0  0  0  0  0  0  0  0  0
   27.9222   21.1867   63.6628 C   0  0  0  0  0  0  0  0  0  0  0  0
   28.9978   20.1276   63.4962 C   0  0  0  0  0  0  0  0  0  0  0  0
   28.4368   18.8141   63.8074 O   0  0  0  0  0  0  0  0  0  0  0  0
   29.5126   20.2792   62.0187 C   0  0  0  0  0  0  0  0  0  0  0  0
   29.5728   18.9849   61.3030 O   0  0  0  0  0  0  0  0  0  0  0  0
   27.6743   18.6437   63.2325 H   0  0  0  0  0  0  0  0  0  0  0  0
   28.6857   18.5943   61.2660 H   0  0  0  0  0  0  0  0  0  0  0  0
   27.7543   20.7267   60.1330 C   0  0  0  0  0  0  0  0  0  0  0  0
   27.0537   19.5256   60.5107 O   0  0  0  0  0  0  0  0  0  0  0  0
   26.4157   19.7305   61.2121 H   0  0  0  0  0  0  0  0  0  0  0  0
   28.3993   22.3004   64.5890 C   0  0  0  0  0  0  0  0  0  0  0  0
   28.4799   21.7566   65.9113 O   0  0  0  0  0  0  0  0  0  0  0  0
   29.0974   21.0086   65.9163 H   0  0  0  0  0  0  0  0  0  0  0  0
 38 37  1  0  0  0
 40 39  1  0  0  0
 39 37  1  0  0  0
 39 32  1  0  0  0
 37 35  1  0  0  0
 35 36  1  0  0  0
 35 34  1  0  0  0
 32 33  1  0  0  0
 32 44  1  0  0  0
 55 54  1  0  0  0
 33 34  1  0  0  0
 34 31  1  0  0  0
 54 45  1  0  0  0
 44 45  1  0  0  0
 10  9  1  0  0  0
 31  1  1  0  0  0
 45 46  1  0  0  0
 45 50  1  0  0  0
 46 47  1  0  0  0
  9  2  1  0  0  0
  9  7  1  0  0  0
  1  2  1  0  0  0
  2  3  1  0  0  0
  8  7  1  0  0  0
 50 51  1  0  0  0
 50 48  1  0  0  0
 58 57  1  0  0  0
  7  5  1  0  0  0
 47 57  1  0  0  0
 47 48  1  0  0  0
  3  4  1  0  0  0
 48 49  1  0  0  0
  5  4  1  0  0  0
  5  6  1  0  0  0
  4 14  1  0  0  0
 14 15  1  0  0  0
 15 16  1  0  0  0
 16 17  1  0  0  0
 16 23  1  0  0  0
 24 23  1  0  0  0
 29 28  1  0  0  0
 17 18  1  0  0  0
 23 21  1  0  0  0
 18 28  1  0  0  0
 18 19  1  0  0  0
 21 19  1  0  0  0
 21 22  1  0  0  0
 19 20  1  0  0  0
 29 30  1  0  0  0
 20 25  1  0  0  0
 22 26  1  0  0  0
 24 27  1  0  0  0
  6 11  1  0  0  0
  8 12  1  0  0  0
 10 13  1  0  0  0
 55 56  1  0  0  0
 49 52  1  0  0  0
 51 53  1  0  0  0
 58 59  1  0  0  0
 36 41  1  0  0  0
 38 42  1  0  0  0
 40 43  1  0  0  0
M  END
> <minimizedAffinity>
-11.59395

$$$$
6EQ1_STW_B_726


 59 62  0  0  0  0  0  0  0  0999 V2000
   30.4526   27.4211   63.4877 O   0  0  0  0  0  0  0  0  0  0  0  0
   30.1444   28.8333   63.4395 C   0  0  0  0  0  0  0  0  0  0  0  0
   29.8543   29.1336   64.8501 O   0  0  0  0  0  0  0  0  0  0  0  0
   31.0521   29.2654   65.6464 C   0  0  0  0  0  0  0  0  0  0  0  0
   31.6357   30.6470   65.3130 C   0  0  0  0  0  0  0  0  0  0  0  0
   30.6889   31.6918   65.6340 O   0  0  0  0  0  0  0  0  0  0  0  0
   31.9136   30.8015   63.7949 C   0  0  0  0  0  0  0  0  0  0  0  0
   33.3191   30.9976   63.5647 O   0  0  0  0  0  0  0  0  0  0  0  0
   31.3751   29.6536   62.8836 C   0  0  0  0  0  0  0  0  0  0  0  0
   31.0312   30.2074   61.5946 O   0  0  0  0  0  0  0  0  0  0  0  0
   29.8891   31.5797   65.0967 H   0  0  0  0  0  0  0  0  0  0  0  0
   33.8050   30.2030   63.8354 H   0  0  0  0  0  0  0  0  0  0  0  0
   30.3060   30.8432   61.6989 H   0  0  0  0  0  0  0  0  0  0  0  0
   30.6020   29.0637   67.0850 C   0  0  0  0  0  0  0  0  0  0  0  0
   29.5782   28.0482   67.2606 O   0  0  0  0  0  0  0  0  0  0  0  0
   30.1440   26.8962   67.8672 C   0  0  0  0  0  0  0  0  0  0  0  0
   31.4268   27.2148   68.5683 O   0  0  0  0  0  0  0  0  0  0  0  0
   31.2561   28.1220   69.6585 C   0  0  0  0  0  0  0  0  0  0  0  0
   30.3820   27.4356   70.7634 C   0  0  0  0  0  0  0  0  0  0  0  0
   31.0526   26.2507   71.2406 O   0  0  0  0  0  0  0  0  0  0  0  0
   29.0032   27.0641   70.1443 C   0  0  0  0  0  0  0  0  0  0  0  0
   28.2252   26.2946   71.0531 O   0  0  0  0  0  0  0  0  0  0  0  0
   29.1641   26.2603   68.8341 C   0  0  0  0  0  0  0  0  0  0  0  0
   27.9023   26.0446   68.2344 O   0  0  0  0  0  0  0  0  0  0  0  0
   31.1917   25.6381   70.5015 H   0  0  0  0  0  0  0  0  0  0  0  0
   28.6807   25.4592   71.2418 H   0  0  0  0  0  0  0  0  0  0  0  0
   27.5078   26.8978   67.9953 H   0  0  0  0  0  0  0  0  0  0  0  0
   32.5837   28.7046   70.1565 C   0  0  0  0  0  0  0  0  0  0  0  0
   33.3041   27.7429   70.9252 O   0  0  0  0  0  0  0  0  0  0  0  0
   33.4999   26.9693   70.3737 H   0  0  0  0  0  0  0  0  0  0  0  0
   31.7416   27.0948   63.0514 C   0  0  0  0  0  0  0  0  0  0  0  0
   29.7164   24.4156   61.7857 C   0  0  0  0  0  0  0  0  0  0  0  0
   30.2028   25.5625   62.5154 O   0  0  0  0  0  0  0  0  0  0  0  0
   31.5098   25.9551   62.0915 C   0  0  0  0  0  0  0  0  0  0  0  0
   31.5326   26.4426   60.5887 C   0  0  0  0  0  0  0  0  0  0  0  0
   32.8754   26.6903   60.0686 O   0  0  0  0  0  0  0  0  0  0  0  0
   30.8864   25.4103   59.6611 C   0  0  0  0  0  0  0  0  0  0  0  0
   30.5687   26.0758   58.4148 O   0  0  0  0  0  0  0  0  0  0  0  0
   29.6104   24.7583   60.2626 C   0  0  0  0  0  0  0  0  0  0  0  0
   29.3483   23.5731   59.5552 O   0  0  0  0  0  0  0  0  0  0  0  0
   33.3753   25.8591   60.0552 H   0  0  0  0  0  0  0  0  0  0  0  0
   29.9397   26.7948   58.5833 H   0  0  0  0  0  0  0  0  0  0  0  0
   30.0882   22.9568   59.6715 H   0  0  0  0  0  0  0  0  0  0  0  0
   30.5042   23.1759   62.0099 O   0  0  0  0  0  0  0  0  0  0  0  0
   30.2723   22.3664   63.2656 C   0  0  0  0  0  0  0  0  0  0  0  0
   30.3179   20.8985   63.0203 O   0  0  0  0  0  0  0  0  0  0  0  0
   28.9952   20.2880   63.1309 C   0  0  0  0  0  0  0  0  0  0  0  0
   28.0175   21.2962   63.7086 C   0  0  0  0  0  0  0  0  0  0  0  0
   27.5820   20.8468   65.0297 O   0  0  0  0  0  0  0  0  0  0  0  0
   28.7815   22.6701   63.7105 C   0  0  0  0  0  0  0  0  0  0  0  0
   28.6833   23.3724   65.0098 O   0  0  0  0  0  0  0  0  0  0  0  0
   28.3558   20.7294   65.6027 H   0  0  0  0  0  0  0  0  0  0  0  0
   29.0714   22.8199   65.7062 H   0  0  0  0  0  0  0  0  0  0  0  0
   31.3044   22.6847   64.4048 C   0  0  0  0  0  0  0  0  0  0  0  0
   31.2905   24.0697   64.8018 O   0  0  0  0  0  0  0  0  0  0  0  0
   30.4153   24.2966   65.1532 H   0  0  0  0  0  0  0  0  0  0  0  0
   28.5529   19.8413   61.7414 C   0  0  0  0  0  0  0  0  0  0  0  0
   29.4945   18.8650   61.2823 O   0  0  0  0  0  0  0  0  0  0  0  0
   29.5131   18.1179   61.9006 H   0  0  0  0  0  0  0  0  0  0  0  0
 38 37  1  0  0  0
 40 39  1  0  0  0
 39 37  1  0  0  0
 39 32  1  0  0  0
 37 35  1  0  0  0
 35 36  1  0  0  0
 35 34  1  0  0  0
 32 33  1  0  0  0
 32 44  1  0  0  0
 55 54  1  0  0  0
 33 34  1  0  0  0
 34 31  1  0  0  0
 54 45  1  0  0  0
 44 45  1  0  0  0
 10  9  1  0  0  0
 31  1  1  0  0  0
 45 46  1  0  0  0
 45 50  1  0  0  0
 46 47  1  0  0  0
  9  2  1  0  0  0
  9  7  1  0  0  0
  1  2  1  0  0  0
  2  3  1  0  0  0
  8  7  1  0  0  0
 50 51  1  0  0  0
 50 48  1  0  0  0
 58 57  1  0  0  0
  7  5  1  0  0  0
 47 57  1  0  0  0
 47 48  1  0  0  0
  3  4  1  0  0  0
 48 49  1  0  0  0
  5  4  1  0  0  0
  5  6  1  0  0  0
  4 14  1  0  0  0
 14 15  1  0  0  0
 15 16  1  0  0  0
 16 17  1  0  0  0
 16 23  1  0  0  0
 24 23  1  0  0  0
 29 28  1  0  0  0
 17 18  1  0  0  0
 23 21  1  0  0  0
 18 28  1  0  0  0
 18 19  1  0  0  0
 21 19  1  0  0  0
 21 22  1  0  0  0
 19 20  1  0  0  0
 29 30  1  0  0  0
 20 25  1  0  0  0
 22 26  1  0  0  0
 24 27  1  0  0  0
  6 11  1  0  0  0
  8 12  1  0  0  0
 10 13  1  0  0  0
 55 56  1  0  0  0
 49 52  1  0  0  0
 51 53  1  0  0  0
 58 59  1  0  0  0
 36 41  1  0  0  0
 38 42  1  0  0  0
 40 43  1  0  0  0
M  END
> <minimizedAffinity>
-11.29660

$$$$
