6EQ1_STW_B_726
  RCSB PDB04141810333D
Coordinates from PDB:6EQ1:B:726 Model:1 without hydrogens
 45 48  0  0  0  0            999 V2000
   31.2480   28.9360   68.8820   C 0  0  0  0  0  0  0  0  0  0  0  0
   30.0520   28.3320   69.5480   O 0  0  0  0  0  0  0  0  0  0  0  0
   30.2070   26.9370   69.8140   C 0  0  0  0  0  0  0  0  0  0  0  0
   28.8840   26.2540   70.1790   C 0  0  0  0  0  0  0  0  0  0  0  0
   27.8650   26.5840   69.2370   O 0  0  0  0  0  0  0  0  0  0  0  0
   31.3600   26.7400   70.8570   C 0  0  0  0  0  0  0  0  0  0  0  0
   31.0190   27.4160   72.0850   O 0  0  0  0  0  0  0  0  0  0  0  0
   32.6720   27.3290   70.2620   C 0  0  0  0  0  0  0  0  0  0  0  0
   33.7180   27.3240   71.2260   O 0  0  0  0  0  0  0  0  0  0  0  0
   32.4720   28.7780   69.7630   C 0  0  0  0  0  0  0  0  0  0  0  0
   33.6430   29.2400   69.1200   O 0  0  0  0  0  0  0  0  0  0  0  0
   29.6310   29.2710   63.1590   C 0  0  0  0  0  0  0  0  0  0  0  0
   29.5300   29.3750   64.6230   O 0  0  0  0  0  0  0  0  0  0  0  0
   30.7610   29.0200   65.2900   C 0  0  0  0  0  0  0  0  0  0  0  0
   30.3620   28.6900   66.7200   C 0  0  0  0  0  0  0  0  0  0  0  0
   31.4740   28.3720   67.5990   O 0  0  0  0  0  0  0  0  0  0  0  0
   31.7020   30.2220   65.1160   C 0  0  0  0  0  0  0  0  0  0  0  0
   31.1250   31.4110   65.7030   O 0  0  0  0  0  0  0  0  0  0  0  0
   31.9180   30.5700   63.6200   C 0  0  0  0  0  0  0  0  0  0  0  0
   33.3020   30.4070   63.2670   O 0  0  0  0  0  0  0  0  0  0  0  0
   31.0110   29.8050   62.6050   C 0  0  0  0  0  0  0  0  0  0  0  0
   30.7650   30.6600   61.4670   O 0  0  0  0  0  0  0  0  0  0  0  0
   29.0510   24.1730   60.4030   C 0  0  0  0  0  0  0  0  0  0  0  0
   29.7770   23.3640   61.4160   O 0  0  0  0  0  0  0  0  0  0  0  0
   29.0510   22.2490   62.1340   C 0  0  0  0  0  0  0  0  0  0  0  0
   28.9220   20.9420   61.2740   C 0  0  0  0  0  0  0  0  0  0  0  0
   27.6850   20.8760   60.5380   O 0  0  0  0  0  0  0  0  0  0  0  0
   27.6790   22.6380   62.5620   O 0  0  0  0  0  0  0  0  0  0  0  0
   27.5850   22.7900   64.0120   C 0  0  0  0  0  0  0  0  0  0  0  0
   28.8520   22.2610   64.6610   C 0  0  0  0  0  0  0  0  0  0  0  0
   28.5320   21.0740   65.4520   O 0  0  0  0  0  0  0  0  0  0  0  0
   29.8540   22.0010   63.4780   C 0  0  0  0  0  0  0  0  0  0  0  0
   30.4850   20.6640   63.5520   O 0  0  0  0  0  0  0  0  0  0  0  0
   27.3920   24.2690   64.3300   C 0  0  0  0  0  0  0  0  0  0  0  0
   26.2860   24.7370   63.5500   O 0  0  0  0  0  0  0  0  0  0  0  0
   28.5790   25.4460   60.8940   O 0  0  0  0  0  0  0  0  0  0  0  0
   29.6540   26.3140   61.2590   C 0  0  0  0  0  0  0  0  0  0  0  0
   28.8540   27.4870   61.7670   C 0  0  0  0  0  0  0  0  0  0  0  0
   29.5140   27.8450   62.9480   O 0  0  0  0  0  0  0  0  0  0  0  0
   30.5520   26.7110   60.0210   C 0  0  0  0  0  0  0  0  0  0  0  0
   31.7560   27.4570   60.3800   O 0  0  0  0  0  0  0  0  0  0  0  0
   31.0170   25.4710   59.2530   C 0  0  0  0  0  0  0  0  0  0  0  0
   31.4600   25.9040   57.9440   O 0  0  0  0  0  0  0  0  0  0  0  0
   29.9140   24.3850   59.1150   C 0  0  0  0  0  0  0  0  0  0  0  0
   30.5350   23.1680   58.7880   O 0  0  0  0  0  0  0  0  0  0  0  0
 43 42  1  0  0  0  0
 45 44  1  0  0  0  0
 44 42  1  0  0  0  0
 44 23  1  0  0  0  0
 42 40  1  0  0  0  0
 40 41  1  0  0  0  0
 40 37  1  0  0  0  0
 23 36  1  0  0  0  0
 23 24  1  0  0  0  0
 27 26  1  0  0  0  0
 36 37  1  0  0  0  0
 37 38  1  0  0  0  0
 26 25  1  0  0  0  0
 24 25  1  0  0  0  0
 22 21  1  0  0  0  0
 38 39  1  0  0  0  0
 25 28  1  0  0  0  0
 25 32  1  0  0  0  0
 28 29  1  0  0  0  0
 21 12  1  0  0  0  0
 21 19  1  0  0  0  0
 39 12  1  0  0  0  0
 12 13  1  0  0  0  0
 20 19  1  0  0  0  0
 32 33  1  0  0  0  0
 32 30  1  0  0  0  0
 35 34  1  0  0  0  0
 19 17  1  0  0  0  0
 29 34  1  0  0  0  0
 29 30  1  0  0  0  0
 13 14  1  0  0  0  0
 30 31  1  0  0  0  0
 17 14  1  0  0  0  0
 17 18  1  0  0  0  0
 14 15  1  0  0  0  0
 15 16  1  0  0  0  0
 16  1  1  0  0  0  0
  1  2  1  0  0  0  0
  1 10  1  0  0  0  0
 11 10  1  0  0  0  0
  5  4  1  0  0  0  0
  2  3  1  0  0  0  0
 10  8  1  0  0  0  0
  3  4  1  0  0  0  0
  3  6  1  0  0  0  0
  8  6  1  0  0  0  0
  8  9  1  0  0  0  0
  6  7  1  0  0  0  0
A    1
C1X
A    2
O5X
A    3
C5X
A    4
C6X
A    5
O6X
A    6
C4X
A    7
O4X
A    8
C3X
A    9
O3X
A   10
C2X
A   11
O2X
A   12
C1Y
A   13
O5Y
A   14
C5Y
A   15
C6Y
A   16
O6Y
A   17
C4Y
A   18
O4Y
A   19
C3Y
A   20
O3Y
A   21
C2Y
A   22
O2Y
A   23
C1
A   24
O1
A   25
C2'
A   26
C1'
A   27
O1'
A   28
O2'
A   29
C5'
A   30
C4'
A   31
O4'
A   32
C3'
A   33
O3'
A   34
C6'
A   35
O6'
A   36
O5
A   37
C5
A   38
C6
A   39
O6
A   40
C4
A   41
O4
A   42
C3
A   43
O3
A   44
C2
A   45
O2
M  END
>  <InstanceId>
6EQ1_STW_B_726

>  <ChemCompId>
STW

>  <PdbId>
6EQ1

>  <ChainId>
B

>  <ResidueNumber>
726

>  <InsertionCode>


>  <Model>
1

>  <AltIds>


>  <MissingHeavyAtoms>
0

>  <ObservedFormula>
C24 O21

>  <Name>
Stachyose

>  <SystematicName>
(2~{S},3~{R},4~{S},5~{R},6~{R})-2-[[(2~{R},3~{R},4~{R},5~{S},6~{S})-6-[[(2~{R},3~{S},4~{S},5~{R},6~{R})-6-[(2~{S},3~{R},4~{S},5~{R})-2,5-bis(hydroxymethyl)-3,4-bis(oxidanyl)oxolan-2-yl]oxy-3,4,5-tris(oxidanyl)oxan-2-yl]methoxy]-3,4,5-tris(oxidanyl)oxan-2-yl]methoxy]-6-(hydroxymethyl)oxane-3,4,5-triol

>  <Synonyms>


>  <Type>
NON-POLYMER

>  <Formula>
C24 H42 O21

>  <MolecularWeight>
666.578

>  <ModifiedDate>
2018-04-06

>  <Parent>


>  <OneLetterCode>


>  <SubcomponentList>


>  <AmbiguousFlag>
N

>  <InChI>
InChI=1S/C24H42O21/c25-1-6-10(28)14(32)17(35)21(41-6)39-3-8-11(29)15(33)18(36)22(42-8)40-4-9-12(30)16(34)19(37)23(43-9)45-24(5-27)20(38)13(31)7(2-26)44-24/h6-23,25-38H,1-5H2/t6-,7-,8-,9-,10+,11+,12-,13-,14+,15-,16+,17-,18+,19-,20-,21+,22+,23-,24+/m1/s1

>  <InChIKey>
UQZIYBXSHAGNOE-JWLFEUNLSA-N

>  <SMILES>
C([C@@H]1[C@@H]([C@@H]([C@H]([C@H](O1)OC[C@@H]2[C@@H]([C@H]([C@@H]([C@H](O2)OC[C@@H]3[C@H]([C@@H]([C@H]([C@H](O3)O[C@]4([C@@H]([C@@H]([C@H](O4)CO)O)O)CO)O)O)O)O)O)O)O)O)O)O

$$$$
