3NW3_MU2_D_5369


 43 43  0  0  0  0  0  0  0  0999 V2000
  -16.2223  -19.5389  -22.3746 C   0  0  0  0  0  0  0  0  0  0  0  0
  -15.6676  -18.4794  -22.1316 O   0  0  0  0  0  0  0  0  0  0  0  0
  -15.6535  -20.6136  -22.9276 N   0  0  0  0  0  0  0  0  0  0  0  0
  -16.2740  -21.3722  -23.0206 H   0  0  0  0  0  0  0  0  0  0  0  0
  -17.6841  -19.7425  -22.0612 C   0  0  0  0  0  0  0  0  0  0  0  0
  -17.8387  -20.7876  -20.9642 C   0  0  0  0  0  0  0  0  0  0  0  0
  -18.3177  -18.5183  -21.6650 O   0  0  0  0  0  0  0  0  0  0  0  0
  -20.5032  -18.1410  -24.7905 C   0  0  0  0  0  0  0  0  0  0  0  0
  -21.9101  -18.1801  -24.6225 O   0  0  0  0  0  0  0  0  0  0  0  0
  -19.7545  -18.8179  -23.6185 C   0  0  0  0  0  0  0  0  0  0  0  0
  -19.1404  -17.8183  -22.6206 C   0  0  0  0  0  0  0  0  0  0  0  0
  -18.5064  -16.6026  -23.3184 C   0  0  0  0  0  0  0  0  0  0  0  0
  -18.0617  -15.6409  -22.3405 O   0  0  0  0  0  0  0  0  0  0  0  0
  -19.6194  -15.9729  -24.1690 C   0  0  0  0  0  0  0  0  0  0  0  0
  -19.9312  -16.8914  -25.2264 O   0  0  0  0  0  0  0  0  0  0  0  0
  -22.1582  -17.6500  -23.8490 H   0  0  0  0  0  0  0  0  0  0  0  0
  -18.8141  -15.3629  -21.7951 H   0  0  0  0  0  0  0  0  0  0  0  0
  -20.7638  -19.5020  -22.8003 N   0  0  0  0  0  0  0  0  0  0  0  0
  -21.0740  -20.8115  -22.8581 C   0  0  0  0  0  0  0  0  0  0  0  0
  -20.5400  -21.6226  -23.6250 O   0  0  0  0  0  0  0  0  0  0  0  0
  -22.1561  -21.2290  -21.8982 C   0  0  0  0  0  0  0  0  0  0  0  0
  -21.2592  -18.9534  -22.1500 H   0  0  0  0  0  0  0  0  0  0  0  0
  -19.2291  -14.6128  -24.7522 C   0  0  0  0  0  0  0  0  0  0  0  0
  -19.7333  -14.5184  -26.1010 O   0  0  0  0  0  0  0  0  0  0  0  0
  -19.3525  -15.2299  -26.6391 H   0  0  0  0  0  0  0  0  0  0  0  0
  -14.3046  -20.9109  -23.4273 C   0  0  0  0  0  0  0  0  0  0  0  0
  -13.9919  -22.3312  -22.9546 C   0  0  0  0  0  0  0  0  0  0  0  0
  -13.9106  -20.7771  -24.8824 C   0  0  0  0  0  0  0  0  0  0  0  0
  -12.9285  -21.3312  -25.3522 O   0  0  0  0  0  0  0  0  0  0  0  0
  -14.7374  -19.9700  -25.5681 N   0  0  0  0  0  0  0  0  0  0  0  0
  -15.4855  -19.5999  -25.0460 H   0  0  0  0  0  0  0  0  0  0  0  0
  -14.6976  -19.5548  -26.9759 C   0  0  0  0  0  0  0  0  0  0  0  0
  -15.5955  -20.3229  -27.9148 C   0  0  0  0  0  0  0  0  0  0  0  0
  -15.1336  -21.3593  -28.4582 O   0  0  0  0  0  0  0  0  0  0  0  0
  -16.7829  -19.9184  -28.0940 O   0  0  0  0  0  0  0  0  0  0  0  0
  -14.2482  -21.6189  -28.2952 H   0  0  0  0  0  0  0  0  0  0  0  0
  -15.1418  -18.0932  -26.8714 C   0  0  0  0  0  0  0  0  0  0  0  0
  -15.8252  -17.7218  -25.5568 C   0  0  0  0  0  0  0  0  0  0  0  0
  -15.4144  -16.3211  -25.1577 C   0  0  0  0  0  0  0  0  0  0  0  0
  -15.2791  -16.0806  -23.8539 N   0  0  0  0  0  0  0  0  0  0  0  0
  -15.2185  -15.4697  -26.0106 O   0  0  0  0  0  0  0  0  0  0  0  0
  -15.4475  -16.7979  -23.2009 H   0  0  0  0  0  0  0  0  0  0  0  0
  -15.0108  -15.1856  -23.5437 H   0  0  0  0  0  0  0  0  0  0  0  0
  8  9  1  0  0  0
  8 10  1  0  0  0
  8 15  1  0  0  0
 10 18  1  0  0  0
 10 11  1  0  0  0
 18 19  1  0  0  0
 19 20  2  0  0  0
 19 21  1  0  0  0
 11  7  1  0  0  0
 11 12  1  0  0  0
  7  5  1  0  0  0
 12 13  1  0  0  0
 12 14  1  0  0  0
 14 15  1  0  0  0
 14 23  1  0  0  0
 23 24  1  0  0  0
  5  6  1  0  0  0
  5  1  1  0  0  0
  1  2  2  0  0  0
  1  3  1  0  0  0
  3 26  1  0  0  0
 26 27  1  0  0  0
 26 28  1  0  0  0
 28 29  2  0  0  0
 28 30  1  0  0  0
 30 32  1  0  0  0
 32 37  1  0  0  0
 32 33  1  0  0  0
 37 38  1  0  0  0
 38 39  1  0  0  0
 39 40  1  0  0  0
 39 41  2  0  0  0
 33 34  1  0  0  0
 33 35  2  0  0  0
  9 16  1  0  0  0
 18 22  1  0  0  0
 13 17  1  0  0  0
 24 25  1  0  0  0
  3  4  1  0  0  0
 30 31  1  0  0  0
 40 42  1  0  0  0
 40 43  1  0  0  0
 34 36  1  0  0  0
M  END
> <minimizedAffinity>
-9.25814

$$$$
3NW3_MU2_D_5369


 43 43  0  0  0  0  0  0  0  0999 V2000
  -19.2366  -19.8409  -23.9569 C   0  0  0  0  0  0  0  0  0  0  0  0
  -18.6453  -20.8692  -24.2436 O   0  0  0  0  0  0  0  0  0  0  0  0
  -19.3995  -19.3463  -22.7268 N   0  0  0  0  0  0  0  0  0  0  0  0
  -19.8928  -18.4944  -22.7170 H   0  0  0  0  0  0  0  0  0  0  0  0
  -19.8792  -18.9888  -25.0235 C   0  0  0  0  0  0  0  0  0  0  0  0
  -21.1069  -18.2875  -24.4573 C   0  0  0  0  0  0  0  0  0  0  0  0
  -18.9628  -18.0214  -25.5540 O   0  0  0  0  0  0  0  0  0  0  0  0
  -15.7172  -16.5118  -24.1850 C   0  0  0  0  0  0  0  0  0  0  0  0
  -15.4754  -16.6154  -22.7922 O   0  0  0  0  0  0  0  0  0  0  0  0
  -17.2184  -16.6503  -24.5307 C   0  0  0  0  0  0  0  0  0  0  0  0
  -17.5953  -18.0325  -25.0961 C   0  0  0  0  0  0  0  0  0  0  0  0
  -16.5425  -18.5751  -26.0778 C   0  0  0  0  0  0  0  0  0  0  0  0
  -16.8781  -19.9191  -26.4778 O   0  0  0  0  0  0  0  0  0  0  0  0
  -15.2149  -18.5996  -25.3060 C   0  0  0  0  0  0  0  0  0  0  0  0
  -14.8305  -17.2396  -25.0585 O   0  0  0  0  0  0  0  0  0  0  0  0
  -15.7038  -17.5084  -22.4900 H   0  0  0  0  0  0  0  0  0  0  0  0
  -16.9317  -20.4862  -25.6927 H   0  0  0  0  0  0  0  0  0  0  0  0
  -17.9575  -16.6150  -23.2624 N   0  0  0  0  0  0  0  0  0  0  0  0
  -18.9581  -15.7679  -22.9532 C   0  0  0  0  0  0  0  0  0  0  0  0
  -19.3902  -14.8909  -23.7117 O   0  0  0  0  0  0  0  0  0  0  0  0
  -19.5253  -15.9655  -21.5726 C   0  0  0  0  0  0  0  0  0  0  0  0
  -17.6981  -17.2705  -22.5752 H   0  0  0  0  0  0  0  0  0  0  0  0
  -14.1005  -19.3324  -26.0567 C   0  0  0  0  0  0  0  0  0  0  0  0
  -14.2379  -20.7513  -25.8325 O   0  0  0  0  0  0  0  0  0  0  0  0
  -14.1731  -20.9363  -24.8825 H   0  0  0  0  0  0  0  0  0  0  0  0
  -19.0034  -19.7957  -21.3856 C   0  0  0  0  0  0  0  0  0  0  0  0
  -19.6454  -21.1716  -21.2038 C   0  0  0  0  0  0  0  0  0  0  0  0
  -17.5638  -19.8577  -20.9229 C   0  0  0  0  0  0  0  0  0  0  0  0
  -16.6852  -19.1626  -21.4100 O   0  0  0  0  0  0  0  0  0  0  0  0
  -17.3722  -20.7700  -19.9553 N   0  0  0  0  0  0  0  0  0  0  0  0
  -18.1830  -21.2495  -19.6690 H   0  0  0  0  0  0  0  0  0  0  0  0
  -16.1405  -21.1623  -19.2590 C   0  0  0  0  0  0  0  0  0  0  0  0
  -16.3122  -21.6496  -17.8410 C   0  0  0  0  0  0  0  0  0  0  0  0
  -15.5544  -22.5685  -17.4362 O   0  0  0  0  0  0  0  0  0  0  0  0
  -17.1835  -21.0970  -17.1052 O   0  0  0  0  0  0  0  0  0  0  0  0
  -14.9247  -22.9468  -18.0179 H   0  0  0  0  0  0  0  0  0  0  0  0
  -15.6287  -22.2870  -20.1632 C   0  0  0  0  0  0  0  0  0  0  0  0
  -14.5865  -21.8585  -21.1944 C   0  0  0  0  0  0  0  0  0  0  0  0
  -14.9900  -22.3756  -22.5581 C   0  0  0  0  0  0  0  0  0  0  0  0
  -15.6866  -21.5472  -23.3355 N   0  0  0  0  0  0  0  0  0  0  0  0
  -14.6761  -23.5027  -22.9075 O   0  0  0  0  0  0  0  0  0  0  0  0
  -15.9177  -20.6464  -23.0124 H   0  0  0  0  0  0  0  0  0  0  0  0
  -15.9702  -21.8360  -24.2329 H   0  0  0  0  0  0  0  0  0  0  0  0
  8  9  1  0  0  0
  8 10  1  0  0  0
  8 15  1  0  0  0
 10 18  1  0  0  0
 10 11  1  0  0  0
 18 19  1  0  0  0
 19 20  2  0  0  0
 19 21  1  0  0  0
 11  7  1  0  0  0
 11 12  1  0  0  0
  7  5  1  0  0  0
 12 13  1  0  0  0
 12 14  1  0  0  0
 14 15  1  0  0  0
 14 23  1  0  0  0
 23 24  1  0  0  0
  5  6  1  0  0  0
  5  1  1  0  0  0
  1  2  2  0  0  0
  1  3  1  0  0  0
  3 26  1  0  0  0
 26 27  1  0  0  0
 26 28  1  0  0  0
 28 29  2  0  0  0
 28 30  1  0  0  0
 30 32  1  0  0  0
 32 37  1  0  0  0
 32 33  1  0  0  0
 37 38  1  0  0  0
 38 39  1  0  0  0
 39 40  1  0  0  0
 39 41  2  0  0  0
 33 34  1  0  0  0
 33 35  2  0  0  0
  9 16  1  0  0  0
 18 22  1  0  0  0
 13 17  1  0  0  0
 24 25  1  0  0  0
  3  4  1  0  0  0
 30 31  1  0  0  0
 40 42  1  0  0  0
 40 43  1  0  0  0
 34 36  1  0  0  0
M  END
> <minimizedAffinity>
-8.76637

$$$$
3NW3_MU2_D_5369


 43 43  0  0  0  0  0  0  0  0999 V2000
  -16.2272  -18.9381  -23.5929 C   0  0  0  0  0  0  0  0  0  0  0  0
  -15.3485  -18.2780  -23.0622 O   0  0  0  0  0  0  0  0  0  0  0  0
  -16.2167  -19.3931  -24.8487 N   0  0  0  0  0  0  0  0  0  0  0  0
  -17.0166  -19.9213  -25.0731 H   0  0  0  0  0  0  0  0  0  0  0  0
  -17.4786  -19.3174  -22.8400 C   0  0  0  0  0  0  0  0  0  0  0  0
  -17.1378  -20.3047  -21.7316 C   0  0  0  0  0  0  0  0  0  0  0  0
  -18.1351  -18.1679  -22.2880 O   0  0  0  0  0  0  0  0  0  0  0  0
  -20.8488  -17.9440  -24.9850 C   0  0  0  0  0  0  0  0  0  0  0  0
  -22.1857  -18.2181  -24.6024 O   0  0  0  0  0  0  0  0  0  0  0  0
  -19.8215  -18.5666  -24.0107 C   0  0  0  0  0  0  0  0  0  0  0  0
  -19.2014  -17.5482  -23.0358 C   0  0  0  0  0  0  0  0  0  0  0  0
  -18.8802  -16.2043  -23.7124 C   0  0  0  0  0  0  0  0  0  0  0  0
  -18.4230  -15.2491  -22.7340 O   0  0  0  0  0  0  0  0  0  0  0  0
  -20.2013  -15.7072  -24.3176 C   0  0  0  0  0  0  0  0  0  0  0  0
  -20.5487  -16.5935  -25.3912 O   0  0  0  0  0  0  0  0  0  0  0  0
  -22.3747  -17.7855  -23.7551 H   0  0  0  0  0  0  0  0  0  0  0  0
  -19.1050  -15.1306  -22.0545 H   0  0  0  0  0  0  0  0  0  0  0  0
  -20.5662  -19.4546  -23.1090 N   0  0  0  0  0  0  0  0  0  0  0  0
  -20.6175  -20.7983  -23.1864 C   0  0  0  0  0  0  0  0  0  0  0  0
  -20.0344  -21.4713  -24.0457 O   0  0  0  0  0  0  0  0  0  0  0  0
  -21.4678  -21.4425  -22.1239 C   0  0  0  0  0  0  0  0  0  0  0  0
  -21.0746  -19.0288  -22.3813 H   0  0  0  0  0  0  0  0  0  0  0  0
  -20.1195  -14.2674  -24.8303 C   0  0  0  0  0  0  0  0  0  0  0  0
  -19.6429  -14.2806  -26.1923 O   0  0  0  0  0  0  0  0  0  0  0  0
  -18.7653  -14.6926  -26.2239 H   0  0  0  0  0  0  0  0  0  0  0  0
  -15.2726  -19.2776  -25.9681 C   0  0  0  0  0  0  0  0  0  0  0  0
  -14.5676  -17.9341  -25.7778 C   0  0  0  0  0  0  0  0  0  0  0  0
  -14.2402  -20.3348  -26.2952 C   0  0  0  0  0  0  0  0  0  0  0  0
  -14.1395  -20.8355  -27.4049 O   0  0  0  0  0  0  0  0  0  0  0  0
  -13.4877  -20.6665  -25.2328 N   0  0  0  0  0  0  0  0  0  0  0  0
  -13.6916  -20.1706  -24.4071 H   0  0  0  0  0  0  0  0  0  0  0  0
  -12.4082  -21.6545  -25.1128 C   0  0  0  0  0  0  0  0  0  0  0  0
  -11.0070  -21.1244  -25.2957 C   0  0  0  0  0  0  0  0  0  0  0  0
  -10.8684  -19.9902  -25.8220 O   0  0  0  0  0  0  0  0  0  0  0  0
  -10.0308  -21.8205  -24.8854 O   0  0  0  0  0  0  0  0  0  0  0  0
  -11.6211  -19.5125  -26.1105 H   0  0  0  0  0  0  0  0  0  0  0  0
  -12.6178  -22.1574  -23.6819 C   0  0  0  0  0  0  0  0  0  0  0  0
  -14.0179  -21.9245  -23.1176 C   0  0  0  0  0  0  0  0  0  0  0  0
  -14.4096  -23.1006  -22.2498 C   0  0  0  0  0  0  0  0  0  0  0  0
  -14.8149  -22.8271  -21.0101 N   0  0  0  0  0  0  0  0  0  0  0  0
  -14.3514  -24.2379  -22.6902 O   0  0  0  0  0  0  0  0  0  0  0  0
  -14.8461  -21.8942  -20.6970 H   0  0  0  0  0  0  0  0  0  0  0  0
  -15.0832  -23.5578  -20.4074 H   0  0  0  0  0  0  0  0  0  0  0  0
  8  9  1  0  0  0
  8 10  1  0  0  0
  8 15  1  0  0  0
 10 18  1  0  0  0
 10 11  1  0  0  0
 18 19  1  0  0  0
 19 20  2  0  0  0
 19 21  1  0  0  0
 11  7  1  0  0  0
 11 12  1  0  0  0
  7  5  1  0  0  0
 12 13  1  0  0  0
 12 14  1  0  0  0
 14 15  1  0  0  0
 14 23  1  0  0  0
 23 24  1  0  0  0
  5  6  1  0  0  0
  5  1  1  0  0  0
  1  2  2  0  0  0
  1  3  1  0  0  0
  3 26  1  0  0  0
 26 27  1  0  0  0
 26 28  1  0  0  0
 28 29  2  0  0  0
 28 30  1  0  0  0
 30 32  1  0  0  0
 32 37  1  0  0  0
 32 33  1  0  0  0
 37 38  1  0  0  0
 38 39  1  0  0  0
 39 40  1  0  0  0
 39 41  2  0  0  0
 33 34  1  0  0  0
 33 35  2  0  0  0
  9 16  1  0  0  0
 18 22  1  0  0  0
 13 17  1  0  0  0
 24 25  1  0  0  0
  3  4  1  0  0  0
 30 31  1  0  0  0
 40 42  1  0  0  0
 40 43  1  0  0  0
 34 36  1  0  0  0
M  END
> <minimizedAffinity>
-8.76060

$$$$
3NW3_MU2_D_5369


 43 43  0  0  0  0  0  0  0  0999 V2000
  -15.7236  -21.6898  -21.0732 C   0  0  0  0  0  0  0  0  0  0  0  0
  -15.3985  -22.0101  -19.9413 O   0  0  0  0  0  0  0  0  0  0  0  0
  -14.9752  -21.8225  -22.1716 N   0  0  0  0  0  0  0  0  0  0  0  0
  -15.4335  -21.5187  -22.9883 H   0  0  0  0  0  0  0  0  0  0  0  0
  -17.0731  -21.0750  -21.3513 C   0  0  0  0  0  0  0  0  0  0  0  0
  -17.1944  -19.7408  -20.6266 C   0  0  0  0  0  0  0  0  0  0  0  0
  -17.2937  -20.8915  -22.7566 O   0  0  0  0  0  0  0  0  0  0  0  0
  -19.2236  -18.1905  -24.6715 C   0  0  0  0  0  0  0  0  0  0  0  0
  -20.1072  -17.3616  -23.9357 O   0  0  0  0  0  0  0  0  0  0  0  0
  -18.9332  -19.5257  -23.9468 C   0  0  0  0  0  0  0  0  0  0  0  0
  -17.5587  -19.5636  -23.2530 C   0  0  0  0  0  0  0  0  0  0  0  0
  -16.4529  -18.9088  -24.0986 C   0  0  0  0  0  0  0  0  0  0  0  0
  -15.2193  -18.8567  -23.3541 O   0  0  0  0  0  0  0  0  0  0  0  0
  -16.9272  -17.4758  -24.3819 C   0  0  0  0  0  0  0  0  0  0  0  0
  -18.0651  -17.5583  -25.2521 O   0  0  0  0  0  0  0  0  0  0  0  0
  -19.6817  -17.0906  -23.1073 H   0  0  0  0  0  0  0  0  0  0  0  0
  -15.3575  -18.3575  -22.5340 H   0  0  0  0  0  0  0  0  0  0  0  0
  -19.8624  -19.6114  -22.8130 N   0  0  0  0  0  0  0  0  0  0  0  0
  -20.7284  -20.6150  -22.5742 C   0  0  0  0  0  0  0  0  0  0  0  0
  -20.8575  -21.6126  -23.2949 O   0  0  0  0  0  0  0  0  0  0  0  0
  -21.5596  -20.4264  -21.3331 C   0  0  0  0  0  0  0  0  0  0  0  0
  -19.8513  -18.8673  -22.1685 H   0  0  0  0  0  0  0  0  0  0  0  0
  -15.8428  -16.6016  -25.0161 C   0  0  0  0  0  0  0  0  0  0  0  0
  -15.1271  -15.9098  -23.9714 O   0  0  0  0  0  0  0  0  0  0  0  0
  -15.7447  -15.3566  -23.4680 H   0  0  0  0  0  0  0  0  0  0  0  0
  -13.6180  -22.3226  -22.4275 C   0  0  0  0  0  0  0  0  0  0  0  0
  -13.7846  -23.7932  -22.8121 C   0  0  0  0  0  0  0  0  0  0  0  0
  -12.6603  -21.6644  -23.3970 C   0  0  0  0  0  0  0  0  0  0  0  0
  -11.4772  -21.4975  -23.1426 O   0  0  0  0  0  0  0  0  0  0  0  0
  -13.2642  -21.2700  -24.5305 N   0  0  0  0  0  0  0  0  0  0  0  0
  -14.2249  -21.4786  -24.5846 H   0  0  0  0  0  0  0  0  0  0  0  0
  -12.7128  -20.5761  -25.7012 C   0  0  0  0  0  0  0  0  0  0  0  0
  -11.3877  -21.0908  -26.2082 C   0  0  0  0  0  0  0  0  0  0  0  0
  -10.3633  -20.3911  -25.9997 O   0  0  0  0  0  0  0  0  0  0  0  0
  -11.3504  -22.2155  -26.7909 O   0  0  0  0  0  0  0  0  0  0  0  0
  -10.4408  -19.5650  -25.5643 H   0  0  0  0  0  0  0  0  0  0  0  0
  -13.8181  -20.8057  -26.7356 C   0  0  0  0  0  0  0  0  0  0  0  0
  -14.5139  -19.5370  -27.2248 C   0  0  0  0  0  0  0  0  0  0  0  0
  -15.8073  -19.9104  -27.9158 C   0  0  0  0  0  0  0  0  0  0  0  0
  -15.7228  -20.2876  -29.1912 N   0  0  0  0  0  0  0  0  0  0  0  0
  -16.8660  -19.8633  -27.3094 O   0  0  0  0  0  0  0  0  0  0  0  0
  -14.8472  -20.3108  -29.6407 H   0  0  0  0  0  0  0  0  0  0  0  0
  -16.5360  -20.5430  -29.6839 H   0  0  0  0  0  0  0  0  0  0  0  0
  8  9  1  0  0  0
  8 10  1  0  0  0
  8 15  1  0  0  0
 10 18  1  0  0  0
 10 11  1  0  0  0
 18 19  1  0  0  0
 19 20  2  0  0  0
 19 21  1  0  0  0
 11  7  1  0  0  0
 11 12  1  0  0  0
  7  5  1  0  0  0
 12 13  1  0  0  0
 12 14  1  0  0  0
 14 15  1  0  0  0
 14 23  1  0  0  0
 23 24  1  0  0  0
  5  6  1  0  0  0
  5  1  1  0  0  0
  1  2  2  0  0  0
  1  3  1  0  0  0
  3 26  1  0  0  0
 26 27  1  0  0  0
 26 28  1  0  0  0
 28 29  2  0  0  0
 28 30  1  0  0  0
 30 32  1  0  0  0
 32 37  1  0  0  0
 32 33  1  0  0  0
 37 38  1  0  0  0
 38 39  1  0  0  0
 39 40  1  0  0  0
 39 41  2  0  0  0
 33 34  1  0  0  0
 33 35  2  0  0  0
  9 16  1  0  0  0
 18 22  1  0  0  0
 13 17  1  0  0  0
 24 25  1  0  0  0
  3  4  1  0  0  0
 30 31  1  0  0  0
 40 42  1  0  0  0
 40 43  1  0  0  0
 34 36  1  0  0  0
M  END
> <minimizedAffinity>
-8.72059

$$$$
3NW3_MU2_D_5369


 43 43  0  0  0  0  0  0  0  0999 V2000
  -18.6867  -19.3677  -22.8773 C   0  0  0  0  0  0  0  0  0  0  0  0
  -18.8678  -18.4731  -22.0672 O   0  0  0  0  0  0  0  0  0  0  0  0
  -17.8487  -20.3980  -22.7341 N   0  0  0  0  0  0  0  0  0  0  0  0
  -17.8674  -21.0182  -23.4985 H   0  0  0  0  0  0  0  0  0  0  0  0
  -19.4290  -19.3911  -24.1907 C   0  0  0  0  0  0  0  0  0  0  0  0
  -20.7418  -18.6304  -24.0581 C   0  0  0  0  0  0  0  0  0  0  0  0
  -18.6444  -18.8336  -25.2541 O   0  0  0  0  0  0  0  0  0  0  0  0
  -15.4678  -16.6897  -25.2473 C   0  0  0  0  0  0  0  0  0  0  0  0
  -15.1171  -16.0308  -24.0424 O   0  0  0  0  0  0  0  0  0  0  0  0
  -16.9699  -17.0548  -25.2993 C   0  0  0  0  0  0  0  0  0  0  0  0
  -17.2525  -18.5417  -25.0142 C   0  0  0  0  0  0  0  0  0  0  0  0
  -16.2264  -19.4752  -25.6793 C   0  0  0  0  0  0  0  0  0  0  0  0
  -16.4598  -20.8405  -25.2788 O   0  0  0  0  0  0  0  0  0  0  0  0
  -14.8503  -19.0305  -25.1624 C   0  0  0  0  0  0  0  0  0  0  0  0
  -14.5810  -17.7300  -25.7057 O   0  0  0  0  0  0  0  0  0  0  0  0
  -15.2364  -16.6379  -23.2953 H   0  0  0  0  0  0  0  0  0  0  0  0
  -16.4019  -20.9085  -24.3129 H   0  0  0  0  0  0  0  0  0  0  0  0
  -17.6153  -16.3864  -24.1623 N   0  0  0  0  0  0  0  0  0  0  0  0
  -18.6661  -15.5465  -24.2309 C   0  0  0  0  0  0  0  0  0  0  0  0
  -19.2327  -15.2211  -25.2817 O   0  0  0  0  0  0  0  0  0  0  0  0
  -19.1107  -15.0092  -22.8965 C   0  0  0  0  0  0  0  0  0  0  0  0
  -17.2462  -16.5688  -23.2680 H   0  0  0  0  0  0  0  0  0  0  0  0
  -13.7280  -20.0004  -25.5398 C   0  0  0  0  0  0  0  0  0  0  0  0
  -13.6239  -21.0170  -24.5210 O   0  0  0  0  0  0  0  0  0  0  0  0
  -13.4270  -20.6003  -23.6674 H   0  0  0  0  0  0  0  0  0  0  0  0
  -16.9054  -20.8081  -21.6854 C   0  0  0  0  0  0  0  0  0  0  0  0
  -15.8986  -19.6636  -21.5639 C   0  0  0  0  0  0  0  0  0  0  0  0
  -17.3393  -21.2330  -20.2991 C   0  0  0  0  0  0  0  0  0  0  0  0
  -18.5039  -21.1931  -19.9327 O   0  0  0  0  0  0  0  0  0  0  0  0
  -16.3067  -21.6211  -19.5322 N   0  0  0  0  0  0  0  0  0  0  0  0
  -15.4276  -21.5977  -19.9748 H   0  0  0  0  0  0  0  0  0  0  0  0
  -16.2867  -22.0748  -18.1359 C   0  0  0  0  0  0  0  0  0  0  0  0
  -16.5690  -23.5410  -17.9158 C   0  0  0  0  0  0  0  0  0  0  0  0
  -15.8842  -24.1517  -17.0551 O   0  0  0  0  0  0  0  0  0  0  0  0
  -17.5002  -24.0910  -18.5762 O   0  0  0  0  0  0  0  0  0  0  0  0
  -15.2053  -23.7022  -16.5914 H   0  0  0  0  0  0  0  0  0  0  0  0
  -14.8522  -21.7290  -17.7274 C   0  0  0  0  0  0  0  0  0  0  0  0
  -14.7080  -21.1365  -16.3270 C   0  0  0  0  0  0  0  0  0  0  0  0
  -13.9733  -22.1190  -15.4412 C   0  0  0  0  0  0  0  0  0  0  0  0
  -14.0261  -21.9030  -14.1272 N   0  0  0  0  0  0  0  0  0  0  0  0
  -13.3701  -23.0601  -15.9324 O   0  0  0  0  0  0  0  0  0  0  0  0
  -14.5248  -21.1306  -13.7750 H   0  0  0  0  0  0  0  0  0  0  0  0
  -13.5665  -22.5158  -13.5087 H   0  0  0  0  0  0  0  0  0  0  0  0
  8  9  1  0  0  0
  8 10  1  0  0  0
  8 15  1  0  0  0
 10 18  1  0  0  0
 10 11  1  0  0  0
 18 19  1  0  0  0
 19 20  2  0  0  0
 19 21  1  0  0  0
 11  7  1  0  0  0
 11 12  1  0  0  0
  7  5  1  0  0  0
 12 13  1  0  0  0
 12 14  1  0  0  0
 14 15  1  0  0  0
 14 23  1  0  0  0
 23 24  1  0  0  0
  5  6  1  0  0  0
  5  1  1  0  0  0
  1  2  2  0  0  0
  1  3  1  0  0  0
  3 26  1  0  0  0
 26 27  1  0  0  0
 26 28  1  0  0  0
 28 29  2  0  0  0
 28 30  1  0  0  0
 30 32  1  0  0  0
 32 37  1  0  0  0
 32 33  1  0  0  0
 37 38  1  0  0  0
 38 39  1  0  0  0
 39 40  1  0  0  0
 39 41  2  0  0  0
 33 34  1  0  0  0
 33 35  2  0  0  0
  9 16  1  0  0  0
 18 22  1  0  0  0
 13 17  1  0  0  0
 24 25  1  0  0  0
  3  4  1  0  0  0
 30 31  1  0  0  0
 40 42  1  0  0  0
 40 43  1  0  0  0
 34 36  1  0  0  0
M  END
> <minimizedAffinity>
-8.59346

$$$$
3NW3_MU2_D_5369


 43 43  0  0  0  0  0  0  0  0999 V2000
  -16.4130  -17.7742  -24.5040 C   0  0  0  0  0  0  0  0  0  0  0  0
  -17.3076  -17.2335  -25.1340 O   0  0  0  0  0  0  0  0  0  0  0  0
  -15.5146  -18.6317  -24.9957 N   0  0  0  0  0  0  0  0  0  0  0  0
  -14.8662  -18.9382  -24.3213 H   0  0  0  0  0  0  0  0  0  0  0  0
  -16.2325  -17.5143  -23.0287 C   0  0  0  0  0  0  0  0  0  0  0  0
  -15.5481  -16.1700  -22.8189 C   0  0  0  0  0  0  0  0  0  0  0  0
  -17.4834  -17.5425  -22.3276 O   0  0  0  0  0  0  0  0  0  0  0  0
  -20.3906  -19.9420  -21.6360 C   0  0  0  0  0  0  0  0  0  0  0  0
  -20.9216  -20.6703  -22.7299 O   0  0  0  0  0  0  0  0  0  0  0  0
  -19.6387  -18.6688  -22.0900 C   0  0  0  0  0  0  0  0  0  0  0  0
  -18.1058  -18.8164  -22.0636 C   0  0  0  0  0  0  0  0  0  0  0  0
  -17.6086  -19.5851  -20.8272 C   0  0  0  0  0  0  0  0  0  0  0  0
  -16.1864  -19.8057  -20.9146 O   0  0  0  0  0  0  0  0  0  0  0  0
  -18.3278  -20.9418  -20.8530 C   0  0  0  0  0  0  0  0  0  0  0  0
  -19.7210  -20.7004  -20.6088 O   0  0  0  0  0  0  0  0  0  0  0  0
  -20.1950  -21.0097  -23.2756 H   0  0  0  0  0  0  0  0  0  0  0  0
  -15.9853  -20.3013  -21.7238 H   0  0  0  0  0  0  0  0  0  0  0  0
  -19.9149  -18.4927  -23.5214 N   0  0  0  0  0  0  0  0  0  0  0  0
  -20.3462  -17.3607  -24.1103 C   0  0  0  0  0  0  0  0  0  0  0  0
  -20.5725  -16.3030  -23.5092 O   0  0  0  0  0  0  0  0  0  0  0  0
  -20.5470  -17.4806  -25.5976 C   0  0  0  0  0  0  0  0  0  0  0  0
  -19.7718  -19.2734  -24.1038 H   0  0  0  0  0  0  0  0  0  0  0  0
  -17.7771  -21.9301  -19.8222 C   0  0  0  0  0  0  0  0  0  0  0  0
  -17.4425  -21.2123  -18.6159 O   0  0  0  0  0  0  0  0  0  0  0  0
  -16.7750  -20.5375  -18.8158 H   0  0  0  0  0  0  0  0  0  0  0  0
  -15.2827  -19.2175  -26.3226 C   0  0  0  0  0  0  0  0  0  0  0  0
  -14.9304  -18.0437  -27.2372 C   0  0  0  0  0  0  0  0  0  0  0  0
  -14.3071  -20.3474  -26.5718 C   0  0  0  0  0  0  0  0  0  0  0  0
  -14.2795  -20.9741  -27.6200 O   0  0  0  0  0  0  0  0  0  0  0  0
  -13.5161  -20.5883  -25.5128 N   0  0  0  0  0  0  0  0  0  0  0  0
  -13.6608  -19.9940  -24.7414 H   0  0  0  0  0  0  0  0  0  0  0  0
  -12.4690  -21.6010  -25.3284 C   0  0  0  0  0  0  0  0  0  0  0  0
  -11.0547  -21.1400  -25.5835 C   0  0  0  0  0  0  0  0  0  0  0  0
  -10.8397  -19.9022  -25.6500 O   0  0  0  0  0  0  0  0  0  0  0  0
  -10.1373  -22.0080  -25.6870 O   0  0  0  0  0  0  0  0  0  0  0  0
  -11.5512  -19.2981  -25.5678 H   0  0  0  0  0  0  0  0  0  0  0  0
  -12.6640  -21.9709  -23.8555 C   0  0  0  0  0  0  0  0  0  0  0  0
  -14.0906  -21.8065  -23.3351 C   0  0  0  0  0  0  0  0  0  0  0  0
  -14.3256  -22.7823  -22.2026 C   0  0  0  0  0  0  0  0  0  0  0  0
  -13.9467  -24.0438  -22.4049 N   0  0  0  0  0  0  0  0  0  0  0  0
  -14.8375  -22.4051  -21.1603 O   0  0  0  0  0  0  0  0  0  0  0  0
  -13.5376  -24.3036  -23.2619 H   0  0  0  0  0  0  0  0  0  0  0  0
  -14.0757  -24.7160  -21.6972 H   0  0  0  0  0  0  0  0  0  0  0  0
  8  9  1  0  0  0
  8 10  1  0  0  0
  8 15  1  0  0  0
 10 18  1  0  0  0
 10 11  1  0  0  0
 18 19  1  0  0  0
 19 20  2  0  0  0
 19 21  1  0  0  0
 11  7  1  0  0  0
 11 12  1  0  0  0
  7  5  1  0  0  0
 12 13  1  0  0  0
 12 14  1  0  0  0
 14 15  1  0  0  0
 14 23  1  0  0  0
 23 24  1  0  0  0
  5  6  1  0  0  0
  5  1  1  0  0  0
  1  2  2  0  0  0
  1  3  1  0  0  0
  3 26  1  0  0  0
 26 27  1  0  0  0
 26 28  1  0  0  0
 28 29  2  0  0  0
 28 30  1  0  0  0
 30 32  1  0  0  0
 32 37  1  0  0  0
 32 33  1  0  0  0
 37 38  1  0  0  0
 38 39  1  0  0  0
 39 40  1  0  0  0
 39 41  2  0  0  0
 33 34  1  0  0  0
 33 35  2  0  0  0
  9 16  1  0  0  0
 18 22  1  0  0  0
 13 17  1  0  0  0
 24 25  1  0  0  0
  3  4  1  0  0  0
 30 31  1  0  0  0
 40 42  1  0  0  0
 40 43  1  0  0  0
 34 36  1  0  0  0
M  END
> <minimizedAffinity>
-8.47195

$$$$
3NW3_MU2_D_5369


 43 43  0  0  0  0  0  0  0  0999 V2000
  -13.8323  -20.3730  -26.1897 C   0  0  0  0  0  0  0  0  0  0  0  0
  -13.7622  -21.0839  -27.1792 O   0  0  0  0  0  0  0  0  0  0  0  0
  -12.8907  -20.2387  -25.2518 N   0  0  0  0  0  0  0  0  0  0  0  0
  -13.1398  -19.5999  -24.5454 H   0  0  0  0  0  0  0  0  0  0  0  0
  -15.0590  -19.5383  -25.9157 C   0  0  0  0  0  0  0  0  0  0  0  0
  -15.4680  -18.7881  -27.1764 C   0  0  0  0  0  0  0  0  0  0  0  0
  -16.1519  -20.3391  -25.4452 O   0  0  0  0  0  0  0  0  0  0  0  0
  -16.9872  -18.7538  -22.0575 C   0  0  0  0  0  0  0  0  0  0  0  0
  -18.3508  -18.6877  -21.6764 O   0  0  0  0  0  0  0  0  0  0  0  0
  -16.8131  -18.8958  -23.5878 C   0  0  0  0  0  0  0  0  0  0  0  0
  -16.4692  -20.3279  -24.0384 C   0  0  0  0  0  0  0  0  0  0  0  0
  -15.4649  -21.0168  -23.0983 C   0  0  0  0  0  0  0  0  0  0  0  0
  -15.2753  -22.3912  -23.4904 O   0  0  0  0  0  0  0  0  0  0  0  0
  -16.0976  -20.9783  -21.6994 C   0  0  0  0  0  0  0  0  0  0  0  0
  -16.1299  -19.6083  -21.2740 O   0  0  0  0  0  0  0  0  0  0  0  0
  -18.7858  -19.5294  -21.8843 H   0  0  0  0  0  0  0  0  0  0  0  0
  -16.1278  -22.8535  -23.4711 H   0  0  0  0  0  0  0  0  0  0  0  0
  -18.1337  -18.6823  -24.1933 N   0  0  0  0  0  0  0  0  0  0  0  0
  -18.5354  -17.5738  -24.8446 C   0  0  0  0  0  0  0  0  0  0  0  0
  -17.8308  -16.5715  -25.0178 O   0  0  0  0  0  0  0  0  0  0  0  0
  -19.9500  -17.6408  -25.3557 C   0  0  0  0  0  0  0  0  0  0  0  0
  -18.7851  -19.4164  -24.1161 H   0  0  0  0  0  0  0  0  0  0  0  0
  -15.3395  -21.8283  -20.6770 C   0  0  0  0  0  0  0  0  0  0  0  0
  -13.9909  -22.0356  -21.1466 O   0  0  0  0  0  0  0  0  0  0  0  0
  -14.0131  -22.4909  -22.0029 H   0  0  0  0  0  0  0  0  0  0  0  0
  -11.5648  -20.8358  -25.0441 C   0  0  0  0  0  0  0  0  0  0  0  0
  -11.7722  -21.9617  -24.0303 C   0  0  0  0  0  0  0  0  0  0  0  0
  -10.6972  -21.3438  -26.1753 C   0  0  0  0  0  0  0  0  0  0  0  0
  -11.0563  -22.2329  -26.9322 O   0  0  0  0  0  0  0  0  0  0  0  0
   -9.5022  -20.7316  -26.2233 N   0  0  0  0  0  0  0  0  0  0  0  0
   -9.3644  -20.0337  -25.5428 H   0  0  0  0  0  0  0  0  0  0  0  0
   -8.3700  -20.9426  -27.1341 C   0  0  0  0  0  0  0  0  0  0  0  0
   -7.7255  -19.6936  -27.6841 C   0  0  0  0  0  0  0  0  0  0  0  0
   -8.0805  -19.2988  -28.8246 O   0  0  0  0  0  0  0  0  0  0  0  0
   -6.8821  -19.0744  -26.9692 O   0  0  0  0  0  0  0  0  0  0  0  0
   -8.7082  -19.7909  -29.3163 H   0  0  0  0  0  0  0  0  0  0  0  0
   -7.3962  -21.7060  -26.2321 C   0  0  0  0  0  0  0  0  0  0  0  0
   -6.2733  -22.4332  -26.9691 C   0  0  0  0  0  0  0  0  0  0  0  0
   -4.9463  -22.0783  -26.3343 C   0  0  0  0  0  0  0  0  0  0  0  0
   -4.9559  -21.1130  -25.4157 N   0  0  0  0  0  0  0  0  0  0  0  0
   -3.9285  -22.6670  -26.6637 O   0  0  0  0  0  0  0  0  0  0  0  0
   -5.8007  -20.6651  -25.1811 H   0  0  0  0  0  0  0  0  0  0  0  0
   -4.1183  -20.8476  -24.9716 H   0  0  0  0  0  0  0  0  0  0  0  0
  8  9  1  0  0  0
  8 10  1  0  0  0
  8 15  1  0  0  0
 10 18  1  0  0  0
 10 11  1  0  0  0
 18 19  1  0  0  0
 19 20  2  0  0  0
 19 21  1  0  0  0
 11  7  1  0  0  0
 11 12  1  0  0  0
  7  5  1  0  0  0
 12 13  1  0  0  0
 12 14  1  0  0  0
 14 15  1  0  0  0
 14 23  1  0  0  0
 23 24  1  0  0  0
  5  6  1  0  0  0
  5  1  1  0  0  0
  1  2  2  0  0  0
  1  3  1  0  0  0
  3 26  1  0  0  0
 26 27  1  0  0  0
 26 28  1  0  0  0
 28 29  2  0  0  0
 28 30  1  0  0  0
 30 32  1  0  0  0
 32 37  1  0  0  0
 32 33  1  0  0  0
 37 38  1  0  0  0
 38 39  1  0  0  0
 39 40  1  0  0  0
 39 41  2  0  0  0
 33 34  1  0  0  0
 33 35  2  0  0  0
  9 16  1  0  0  0
 18 22  1  0  0  0
 13 17  1  0  0  0
 24 25  1  0  0  0
  3  4  1  0  0  0
 30 31  1  0  0  0
 40 42  1  0  0  0
 40 43  1  0  0  0
 34 36  1  0  0  0
M  END
> <minimizedAffinity>
-8.44670

$$$$
3NW3_MU2_D_5369


 43 43  0  0  0  0  0  0  0  0999 V2000
  -16.7885  -20.7224  -24.2260 C   0  0  0  0  0  0  0  0  0  0  0  0
  -17.3582  -21.6373  -24.7986 O   0  0  0  0  0  0  0  0  0  0  0  0
  -15.8721  -20.8494  -23.2625 N   0  0  0  0  0  0  0  0  0  0  0  0
  -15.5233  -19.9846  -22.9471 H   0  0  0  0  0  0  0  0  0  0  0  0
  -17.0871  -19.2835  -24.5681 C   0  0  0  0  0  0  0  0  0  0  0  0
  -16.4076  -18.9103  -25.8790 C   0  0  0  0  0  0  0  0  0  0  0  0
  -18.4978  -19.0415  -24.6607 O   0  0  0  0  0  0  0  0  0  0  0  0
  -19.1886  -17.4873  -21.2264 C   0  0  0  0  0  0  0  0  0  0  0  0
  -20.0301  -16.3480  -21.1731 O   0  0  0  0  0  0  0  0  0  0  0  0
  -18.5639  -17.6889  -22.6269 C   0  0  0  0  0  0  0  0  0  0  0  0
  -19.2441  -18.7983  -23.4508 C   0  0  0  0  0  0  0  0  0  0  0  0
  -19.6015  -20.0295  -22.6004 C   0  0  0  0  0  0  0  0  0  0  0  0
  -20.3464  -20.9808  -23.3870 O   0  0  0  0  0  0  0  0  0  0  0  0
  -20.4938  -19.5144  -21.4614 C   0  0  0  0  0  0  0  0  0  0  0  0
  -19.6816  -18.6937  -20.6096 O   0  0  0  0  0  0  0  0  0  0  0  0
  -20.7954  -16.4839  -21.7534 H   0  0  0  0  0  0  0  0  0  0  0  0
  -21.1516  -20.5597  -23.7266 H   0  0  0  0  0  0  0  0  0  0  0  0
  -18.8643  -16.4838  -23.4102 N   0  0  0  0  0  0  0  0  0  0  0  0
  -17.9695  -15.7323  -24.0800 C   0  0  0  0  0  0  0  0  0  0  0  0
  -16.7544  -15.9631  -24.1204 O   0  0  0  0  0  0  0  0  0  0  0  0
  -18.5712  -14.5499  -24.7918 C   0  0  0  0  0  0  0  0  0  0  0  0
  -19.8059  -16.1991  -23.4494 H   0  0  0  0  0  0  0  0  0  0  0  0
  -21.1359  -20.6412  -20.6488 C   0  0  0  0  0  0  0  0  0  0  0  0
  -20.2623  -21.7896  -20.6669 O   0  0  0  0  0  0  0  0  0  0  0  0
  -20.1272  -22.0787  -21.5829 H   0  0  0  0  0  0  0  0  0  0  0  0
  -15.2712  -21.9974  -22.5707 C   0  0  0  0  0  0  0  0  0  0  0  0
  -13.8192  -22.0538  -23.0469 C   0  0  0  0  0  0  0  0  0  0  0  0
  -15.3047  -22.1708  -21.0676 C   0  0  0  0  0  0  0  0  0  0  0  0
  -14.9947  -23.2171  -20.5185 O   0  0  0  0  0  0  0  0  0  0  0  0
  -15.7350  -21.0686  -20.4311 N   0  0  0  0  0  0  0  0  0  0  0  0
  -15.9452  -20.3053  -21.0163 H   0  0  0  0  0  0  0  0  0  0  0  0
  -15.9403  -20.8266  -18.9975 C   0  0  0  0  0  0  0  0  0  0  0  0
  -17.2703  -21.2700  -18.4386 C   0  0  0  0  0  0  0  0  0  0  0  0
  -17.5811  -20.8892  -17.2806 O   0  0  0  0  0  0  0  0  0  0  0  0
  -18.0339  -21.9760  -19.1628 O   0  0  0  0  0  0  0  0  0  0  0  0
  -16.9827  -20.3679  -16.7825 H   0  0  0  0  0  0  0  0  0  0  0  0
  -14.7951  -21.6397  -18.3878 C   0  0  0  0  0  0  0  0  0  0  0  0
  -14.4261  -21.2564  -16.9561 C   0  0  0  0  0  0  0  0  0  0  0  0
  -14.7532  -22.4074  -16.0298 C   0  0  0  0  0  0  0  0  0  0  0  0
  -14.4069  -22.2694  -14.7504 N   0  0  0  0  0  0  0  0  0  0  0  0
  -15.3123  -23.4043  -16.4593 O   0  0  0  0  0  0  0  0  0  0  0  0
  -13.9573  -21.4474  -14.4481 H   0  0  0  0  0  0  0  0  0  0  0  0
  -14.6007  -22.9894  -14.1075 H   0  0  0  0  0  0  0  0  0  0  0  0
  8  9  1  0  0  0
  8 10  1  0  0  0
  8 15  1  0  0  0
 10 18  1  0  0  0
 10 11  1  0  0  0
 18 19  1  0  0  0
 19 20  2  0  0  0
 19 21  1  0  0  0
 11  7  1  0  0  0
 11 12  1  0  0  0
  7  5  1  0  0  0
 12 13  1  0  0  0
 12 14  1  0  0  0
 14 15  1  0  0  0
 14 23  1  0  0  0
 23 24  1  0  0  0
  5  6  1  0  0  0
  5  1  1  0  0  0
  1  2  2  0  0  0
  1  3  1  0  0  0
  3 26  1  0  0  0
 26 27  1  0  0  0
 26 28  1  0  0  0
 28 29  2  0  0  0
 28 30  1  0  0  0
 30 32  1  0  0  0
 32 37  1  0  0  0
 32 33  1  0  0  0
 37 38  1  0  0  0
 38 39  1  0  0  0
 39 40  1  0  0  0
 39 41  2  0  0  0
 33 34  1  0  0  0
 33 35  2  0  0  0
  9 16  1  0  0  0
 18 22  1  0  0  0
 13 17  1  0  0  0
 24 25  1  0  0  0
  3  4  1  0  0  0
 30 31  1  0  0  0
 40 42  1  0  0  0
 40 43  1  0  0  0
 34 36  1  0  0  0
M  END
> <minimizedAffinity>
-8.36124

$$$$
3NW3_MU2_D_5369


 43 43  0  0  0  0  0  0  0  0999 V2000
  -15.9291  -18.6279  -25.6980 C   0  0  0  0  0  0  0  0  0  0  0  0
  -16.9143  -18.5114  -26.4088 O   0  0  0  0  0  0  0  0  0  0  0  0
  -15.5102  -17.7454  -24.7869 N   0  0  0  0  0  0  0  0  0  0  0  0
  -14.7024  -18.0411  -24.3081 H   0  0  0  0  0  0  0  0  0  0  0  0
  -15.0405  -19.8437  -25.7917 C   0  0  0  0  0  0  0  0  0  0  0  0
  -14.5561  -20.0228  -27.2245 C   0  0  0  0  0  0  0  0  0  0  0  0
  -13.9187  -19.7514  -24.9027 O   0  0  0  0  0  0  0  0  0  0  0  0
  -13.2659  -23.1403  -23.2364 C   0  0  0  0  0  0  0  0  0  0  0  0
  -11.9940  -23.3543  -22.6486 O   0  0  0  0  0  0  0  0  0  0  0  0
  -13.2374  -22.0198  -24.3022 C   0  0  0  0  0  0  0  0  0  0  0  0
  -13.8199  -20.6831  -23.8062 C   0  0  0  0  0  0  0  0  0  0  0  0
  -15.0806  -20.8724  -22.9450 C   0  0  0  0  0  0  0  0  0  0  0  0
  -15.5103  -19.6072  -22.4033 O   0  0  0  0  0  0  0  0  0  0  0  0
  -14.6706  -21.7978  -21.7899 C   0  0  0  0  0  0  0  0  0  0  0  0
  -14.3984  -23.0925  -22.3453 O   0  0  0  0  0  0  0  0  0  0  0  0
  -11.7309  -22.5644  -22.1508 H   0  0  0  0  0  0  0  0  0  0  0  0
  -14.7944  -19.2222  -21.8740 H   0  0  0  0  0  0  0  0  0  0  0  0
  -11.8274  -21.6831  -24.5358 N   0  0  0  0  0  0  0  0  0  0  0  0
  -11.1811  -21.7579  -25.7152 C   0  0  0  0  0  0  0  0  0  0  0  0
  -11.7015  -22.1299  -26.7745 O   0  0  0  0  0  0  0  0  0  0  0  0
   -9.7330  -21.3513  -25.6486 C   0  0  0  0  0  0  0  0  0  0  0  0
  -11.3067  -21.3745  -23.7593 H   0  0  0  0  0  0  0  0  0  0  0  0
  -15.7421  -21.9072  -20.7025 C   0  0  0  0  0  0  0  0  0  0  0  0
  -15.1919  -22.6134  -19.5707 O   0  0  0  0  0  0  0  0  0  0  0  0
  -14.9111  -23.4996  -19.8479 H   0  0  0  0  0  0  0  0  0  0  0  0
  -15.9913  -16.4304  -24.3433 C   0  0  0  0  0  0  0  0  0  0  0  0
  -15.7383  -15.4805  -25.5147 C   0  0  0  0  0  0  0  0  0  0  0  0
  -17.3876  -16.1945  -23.8094 C   0  0  0  0  0  0  0  0  0  0  0  0
  -17.6019  -15.8410  -22.6598 O   0  0  0  0  0  0  0  0  0  0  0  0
  -18.3386  -16.4447  -24.7249 N   0  0  0  0  0  0  0  0  0  0  0  0
  -18.0034  -16.7210  -25.6084 H   0  0  0  0  0  0  0  0  0  0  0  0
  -19.8006  -16.3697  -24.6112 C   0  0  0  0  0  0  0  0  0  0  0  0
  -20.4632  -15.2450  -25.3687 C   0  0  0  0  0  0  0  0  0  0  0  0
  -21.4482  -15.5248  -26.0996 O   0  0  0  0  0  0  0  0  0  0  0  0
  -20.0281  -14.0647  -25.2162 O   0  0  0  0  0  0  0  0  0  0  0  0
  -21.7336  -16.4135  -26.1812 H   0  0  0  0  0  0  0  0  0  0  0  0
  -20.2169  -17.7290  -25.1801 C   0  0  0  0  0  0  0  0  0  0  0  0
  -20.7849  -18.7080  -24.1545 C   0  0  0  0  0  0  0  0  0  0  0  0
  -19.7466  -18.9714  -23.0857 C   0  0  0  0  0  0  0  0  0  0  0  0
  -18.6447  -19.6198  -23.4619 N   0  0  0  0  0  0  0  0  0  0  0  0
  -19.9323  -18.5938  -21.9396 O   0  0  0  0  0  0  0  0  0  0  0  0
  -18.5372  -19.9059  -24.3978 H   0  0  0  0  0  0  0  0  0  0  0  0
  -17.9382  -19.8127  -22.8040 H   0  0  0  0  0  0  0  0  0  0  0  0
  8  9  1  0  0  0
  8 10  1  0  0  0
  8 15  1  0  0  0
 10 18  1  0  0  0
 10 11  1  0  0  0
 18 19  1  0  0  0
 19 20  2  0  0  0
 19 21  1  0  0  0
 11  7  1  0  0  0
 11 12  1  0  0  0
  7  5  1  0  0  0
 12 13  1  0  0  0
 12 14  1  0  0  0
 14 15  1  0  0  0
 14 23  1  0  0  0
 23 24  1  0  0  0
  5  6  1  0  0  0
  5  1  1  0  0  0
  1  2  2  0  0  0
  1  3  1  0  0  0
  3 26  1  0  0  0
 26 27  1  0  0  0
 26 28  1  0  0  0
 28 29  2  0  0  0
 28 30  1  0  0  0
 30 32  1  0  0  0
 32 37  1  0  0  0
 32 33  1  0  0  0
 37 38  1  0  0  0
 38 39  1  0  0  0
 39 40  1  0  0  0
 39 41  2  0  0  0
 33 34  1  0  0  0
 33 35  2  0  0  0
  9 16  1  0  0  0
 18 22  1  0  0  0
 13 17  1  0  0  0
 24 25  1  0  0  0
  3  4  1  0  0  0
 30 31  1  0  0  0
 40 42  1  0  0  0
 40 43  1  0  0  0
 34 36  1  0  0  0
M  END
> <minimizedAffinity>
-8.29672

$$$$
3NW3_MU2_D_5369


 43 43  0  0  0  0  0  0  0  0999 V2000
  -14.5987  -20.3667  -24.3715 C   0  0  0  0  0  0  0  0  0  0  0  0
  -14.6537  -20.5388  -23.1645 O   0  0  0  0  0  0  0  0  0  0  0  0
  -13.5515  -20.6368  -25.1556 N   0  0  0  0  0  0  0  0  0  0  0  0
  -13.7215  -20.4409  -26.1053 H   0  0  0  0  0  0  0  0  0  0  0  0
  -15.7708  -19.7959  -25.1310 C   0  0  0  0  0  0  0  0  0  0  0  0
  -15.6608  -20.1610  -26.6055 C   0  0  0  0  0  0  0  0  0  0  0  0
  -17.0217  -20.2585  -24.6033 O   0  0  0  0  0  0  0  0  0  0  0  0
  -19.6697  -19.0682  -22.1016 C   0  0  0  0  0  0  0  0  0  0  0  0
  -19.2228  -18.4104  -20.9283 O   0  0  0  0  0  0  0  0  0  0  0  0
  -18.5667  -19.9475  -22.7362 C   0  0  0  0  0  0  0  0  0  0  0  0
  -17.9056  -19.3095  -23.9723 C   0  0  0  0  0  0  0  0  0  0  0  0
  -18.9213  -18.5996  -24.8840 C   0  0  0  0  0  0  0  0  0  0  0  0
  -18.2390  -17.9141  -25.9533 O   0  0  0  0  0  0  0  0  0  0  0  0
  -19.6339  -17.5649  -24.0007 C   0  0  0  0  0  0  0  0  0  0  0  0
  -20.4268  -18.2821  -23.0437 O   0  0  0  0  0  0  0  0  0  0  0  0
  -18.5233  -17.7789  -21.1581 H   0  0  0  0  0  0  0  0  0  0  0  0
  -17.6146  -17.2727  -25.5796 H   0  0  0  0  0  0  0  0  0  0  0  0
  -17.4561  -20.0042  -21.7773 N   0  0  0  0  0  0  0  0  0  0  0  0
  -17.4298  -20.7237  -20.6389 C   0  0  0  0  0  0  0  0  0  0  0  0
  -18.3574  -21.4417  -20.2448 O   0  0  0  0  0  0  0  0  0  0  0  0
  -16.1543  -20.5810  -19.8517 C   0  0  0  0  0  0  0  0  0  0  0  0
  -16.6576  -19.4672  -21.9855 H   0  0  0  0  0  0  0  0  0  0  0  0
  -20.5170  -16.6037  -24.7999 C   0  0  0  0  0  0  0  0  0  0  0  0
  -19.6826  -15.5961  -25.4089 O   0  0  0  0  0  0  0  0  0  0  0  0
  -19.2064  -15.1097  -24.7179 H   0  0  0  0  0  0  0  0  0  0  0  0
  -12.2018  -21.1620  -24.9106 C   0  0  0  0  0  0  0  0  0  0  0  0
  -12.3794  -22.3136  -23.9203 C   0  0  0  0  0  0  0  0  0  0  0  0
  -11.2694  -21.6028  -26.0182 C   0  0  0  0  0  0  0  0  0  0  0  0
  -11.6430  -22.2833  -26.9614 O   0  0  0  0  0  0  0  0  0  0  0  0
  -10.0062  -21.1881  -25.8242 N   0  0  0  0  0  0  0  0  0  0  0  0
   -9.8660  -20.6456  -25.0146 H   0  0  0  0  0  0  0  0  0  0  0  0
   -8.8027  -21.4190  -26.6329 C   0  0  0  0  0  0  0  0  0  0  0  0
   -8.4435  -20.3232  -27.6067 C   0  0  0  0  0  0  0  0  0  0  0  0
   -8.3484  -19.1489  -27.1658 O   0  0  0  0  0  0  0  0  0  0  0  0
   -8.2195  -20.6283  -28.8161 O   0  0  0  0  0  0  0  0  0  0  0  0
   -8.5241  -18.9719  -26.2626 H   0  0  0  0  0  0  0  0  0  0  0  0
   -7.7318  -21.5553  -25.5471 C   0  0  0  0  0  0  0  0  0  0  0  0
   -6.4006  -22.1307  -26.0263 C   0  0  0  0  0  0  0  0  0  0  0  0
   -5.3355  -21.0585  -25.9498 C   0  0  0  0  0  0  0  0  0  0  0  0
   -4.4035  -21.2001  -25.0079 N   0  0  0  0  0  0  0  0  0  0  0  0
   -5.3499  -20.1188  -26.7293 O   0  0  0  0  0  0  0  0  0  0  0  0
   -4.4311  -21.9744  -24.4005 H   0  0  0  0  0  0  0  0  0  0  0  0
   -3.6873  -20.5304  -24.9193 H   0  0  0  0  0  0  0  0  0  0  0  0
  8  9  1  0  0  0
  8 10  1  0  0  0
  8 15  1  0  0  0
 10 18  1  0  0  0
 10 11  1  0  0  0
 18 19  1  0  0  0
 19 20  2  0  0  0
 19 21  1  0  0  0
 11  7  1  0  0  0
 11 12  1  0  0  0
  7  5  1  0  0  0
 12 13  1  0  0  0
 12 14  1  0  0  0
 14 15  1  0  0  0
 14 23  1  0  0  0
 23 24  1  0  0  0
  5  6  1  0  0  0
  5  1  1  0  0  0
  1  2  2  0  0  0
  1  3  1  0  0  0
  3 26  1  0  0  0
 26 27  1  0  0  0
 26 28  1  0  0  0
 28 29  2  0  0  0
 28 30  1  0  0  0
 30 32  1  0  0  0
 32 37  1  0  0  0
 32 33  1  0  0  0
 37 38  1  0  0  0
 38 39  1  0  0  0
 39 40  1  0  0  0
 39 41  2  0  0  0
 33 34  1  0  0  0
 33 35  2  0  0  0
  9 16  1  0  0  0
 18 22  1  0  0  0
 13 17  1  0  0  0
 24 25  1  0  0  0
  3  4  1  0  0  0
 30 31  1  0  0  0
 40 42  1  0  0  0
 40 43  1  0  0  0
 34 36  1  0  0  0
M  END
> <minimizedAffinity>
-8.13654

$$$$
