3NW3_MU2_D_5369
  RCSB PDB12061709583D
Coordinates from PDB:3NW3:D:5369 Model:1 without hydrogens
 34 34  0  0  0  0            999 V2000
  -17.6450  -21.2200  -19.3950   C 0  0  0  0  0  0  0  0  0  0  0  0
  -17.5960  -20.3540  -18.2740   O 0  0  0  0  0  0  0  0  0  0  0  0
  -16.2940  -21.9300  -19.6460   C 0  0  0  0  0  0  0  0  0  0  0  0
  -15.4390  -21.6520  -18.4850   N 0  0  0  0  0  0  0  0  0  0  0  0
  -15.5920  -22.1650  -17.2490   C 0  0  0  0  0  0  0  0  0  0  0  0
  -16.4920  -22.9500  -16.9250   O 0  0  0  0  0  0  0  0  0  0  0  0
  -14.5620  -21.6940  -16.2570   C 0  0  0  0  0  0  0  0  0  0  0  0
  -15.4850  -21.3220  -20.8070   C 0  0  0  0  0  0  0  0  0  0  0  0
  -14.3330  -22.1430  -21.0880   O 0  0  0  0  0  0  0  0  0  0  0  0
  -16.3700  -20.9400  -22.0060   C 0  0  0  0  0  0  0  0  0  0  0  0
  -15.5870  -20.2620  -23.0090   O 0  0  0  0  0  0  0  0  0  0  0  0
  -17.4300  -19.9720  -21.4600   C 0  0  0  0  0  0  0  0  0  0  0  0
  -18.2880  -20.7160  -20.5830   O 0  0  0  0  0  0  0  0  0  0  0  0
  -18.2560  -19.3060  -22.5630   C 0  0  0  0  0  0  0  0  0  0  0  0
  -17.4990  -18.2110  -23.1200   O 0  0  0  0  0  0  0  0  0  0  0  0
  -14.1470  -22.6440  -22.4190   C 0  0  0  0  0  0  0  0  0  0  0  0
  -14.0540  -24.1640  -22.3950   C 0  0  0  0  0  0  0  0  0  0  0  0
  -12.9140  -22.0640  -23.0670   C 0  0  0  0  0  0  0  0  0  0  0  0
  -12.0600  -21.4990  -22.4030   O 0  0  0  0  0  0  0  0  0  0  0  0
  -12.8900  -22.2390  -24.3910   N 0  0  0  0  0  0  0  0  0  0  0  0
  -11.9550  -21.8500  -25.4550   C 0  0  0  0  0  0  0  0  0  0  0  0
  -12.6190  -20.6800  -26.1820   C 0  0  0  0  0  0  0  0  0  0  0  0
  -10.5020  -21.5120  -25.2000   C 0  0  0  0  0  0  0  0  0  0  0  0
  -10.0990  -21.1130  -24.1180   O 0  0  0  0  0  0  0  0  0  0  0  0
   -9.7360  -21.6730  -26.2920   N 0  0  0  0  0  0  0  0  0  0  0  0
   -8.3000  -21.4320  -26.4810   C 0  0  0  0  0  0  0  0  0  0  0  0
   -8.0880  -21.9720  -27.8980   C 0  0  0  0  0  0  0  0  0  0  0  0
   -6.8510  -21.4320  -28.6130   C 0  0  0  0  0  0  0  0  0  0  0  0
   -6.0070  -22.5910  -29.0970   C 0  0  0  0  0  0  0  0  0  0  0  0
   -6.4060  -23.2040  -30.2110   N 0  0  0  0  0  0  0  0  0  0  0  0
   -5.0090  -22.9270  -28.4790   O 0  0  0  0  0  0  0  0  0  0  0  0
   -7.3820  -22.1210  -25.5010   C 0  0  0  0  0  0  0  0  0  0  0  0
   -7.9040  -22.8020  -24.5810   O 0  0  0  0  0  0  0  0  0  0  0  0
   -6.1290  -22.0170  -25.6590   O 0  0  0  0  0  0  0  0  0  0  0  0
  1  2  1  0  0  0  0
  1  3  1  0  0  0  0
  1 13  1  0  0  0  0
  3  4  1  0  0  0  0
  3  8  1  0  0  0  0
  4  5  1  0  0  0  0
  5  6  2  0  0  0  0
  5  7  1  0  0  0  0
  8  9  1  0  0  0  0
  8 10  1  0  0  0  0
  9 16  1  0  0  0  0
 10 11  1  0  0  0  0
 10 12  1  0  0  0  0
 12 13  1  0  0  0  0
 12 14  1  0  0  0  0
 14 15  1  0  0  0  0
 16 17  1  0  0  0  0
 16 18  1  0  0  0  0
 18 19  2  0  0  0  0
 18 20  1  0  0  0  0
 20 21  1  0  0  0  0
 21 22  1  0  0  0  0
 21 23  1  0  0  0  0
 23 24  2  0  0  0  0
 23 25  1  0  0  0  0
 25 26  1  0  0  0  0
 26 27  1  0  0  0  0
 26 32  1  0  0  0  0
 27 28  1  0  0  0  0
 28 29  1  0  0  0  0
 29 30  1  0  0  0  0
 29 31  2  0  0  0  0
 32 33  1  0  0  0  0
 32 34  2  0  0  0  0
A    1
C1
A    2
O1
A    3
C2
A    4
N2
A    5
C7
A    6
O7
A    7
C8
A    8
C3
A    9
O3
A   10
C4
A   11
O4
A   12
C5
A   13
O5
A   14
C6
A   15
O6
A   16
C18
A   17
C20
A   18
C19
A   19
O18
A   20
N4
A   21
C21
A   22
C23
A   23
C22
A   24
O19
A   25
N5
A   26
C24
A   27
C25
A   28
C26
A   29
C27
A   30
N20
A   31
O21
A   32
C28
A   33
O22
A   34
O23
M  END
>  <InstanceId>
3NW3_MU2_D_5369

>  <ChemCompId>
MU2

>  <PdbId>
3NW3

>  <ChainId>
D

>  <ResidueNumber>
5369

>  <InsertionCode>


>  <Model>
1

>  <AltIds>


>  <MissingHeavyAtoms>
0

>  <ObservedFormula>
C19 N4 O11

>  <Name>
N-ACETYLMURAMYL-L-ALANYL-D-ISOGLUTAMINE

>  <SystematicName>
(2R)-2-[[(2S)-2-[[(2R)-2-[(2S,3R,4R,5S,6R)-3-acetamido-2,5-dihydroxy-6-(hydroxymethyl)oxan-4-yl]oxypropanoyl]amino]propanoyl]amino]-5-amino-5-oxo-pentanoic acid

>  <Synonyms>


>  <Type>
NON-POLYMER

>  <Formula>
C19 H32 N4 O11

>  <MolecularWeight>
492.478

>  <ModifiedDate>
2011-06-04

>  <Parent>


>  <OneLetterCode>


>  <SubcomponentList>


>  <AmbiguousFlag>
N

>  <InChI>
InChI=1S/C19H32N4O11/c1-7(16(28)23-10(18(30)31)4-5-12(20)26)21-17(29)8(2)33-15-13(22-9(3)25)19(32)34-11(6-24)14(15)27/h7-8,10-11,13-15,19,24,27,32H,4-6H2,1-3H3,(H2,20,26)(H,21,29)(H,22,25)(H,23,28)(H,30,31)/t7-,8+,10+,11+,13+,14+,15+,19-/m0/s1

>  <InChIKey>
SNTUQIQTAZQYIG-PUFOHHGRSA-N

>  <SMILES>
C[C@@H](C(=O)N[C@H](CCC(=O)N)C(=O)O)NC(=O)[C@@H](C)O[C@@H]1[C@H]([C@H](O[C@@H]([C@H]1O)CO)O)NC(=O)C

$$$$
