5LVQ_2LX_A_904


 18 19  0  0  0  0  0  0  0  0999 V2000
   21.1264    0.2557   57.2062 C   0  0  0  0  0  0  0  0  0  0  0  0
   21.3834   -0.5509   58.3200 C   0  0  0  0  0  0  0  0  0  0  0  0
   20.9795   -1.8827   58.3569 C   0  0  0  0  0  0  0  0  0  0  0  0
   20.2978   -2.4427   57.2856 C   0  0  0  0  0  0  0  0  0  0  0  0
   19.9836   -1.6711   56.1792 C   0  0  0  0  0  0  0  0  0  0  0  0
   20.3708   -0.3142   56.1489 C   0  0  0  0  0  0  0  0  0  0  0  0
   22.9095    3.4122   56.0381 C   0  0  0  0  0  0  0  0  0  0  0  0
   22.3273    2.0828   56.1158 N   0  0  0  0  0  0  0  0  0  0  0  0
   21.7759    1.6199   57.2387 C   0  0  0  0  0  0  0  0  0  0  0  0
   21.7596    2.3019   58.2658 O   0  0  0  0  0  0  0  0  0  0  0  0
   22.3403    1.5076   55.3169 H   0  0  0  0  0  0  0  0  0  0  0  0
   19.9505    0.5655   55.1704 O   0  0  0  0  0  0  0  0  0  0  0  0
   19.9972    0.1153   53.7768 C   0  0  0  0  0  0  0  0  0  0  0  0
   21.4355    0.1931   53.3248 C   0  0  0  0  0  0  0  0  0  0  0  0
   21.5262   -0.1307   51.8477 C   0  0  0  0  0  0  0  0  0  0  0  0
   20.7215    0.7465   51.0751 O   0  0  0  0  0  0  0  0  0  0  0  0
   19.3445    0.6535   51.4988 C   0  0  0  0  0  0  0  0  0  0  0  0
   19.0987    1.0139   52.9499 C   0  0  0  0  0  0  0  0  0  0  0  0
 15 14  1  0  0  0
 15 16  1  0  0  0
 14 13  1  0  0  0
 13 12  1  0  0  0
 13 18  1  0  0  0
 16 17  1  0  0  0
 12  6  1  0  0  0
  7  8  1  0  0  0
  8  9  1  0  0  0
  6  5  2  0  0  0
  6  1  1  0  0  0
  5  4  1  0  0  0
  9  1  1  0  0  0
  9 10  2  0  0  0
  1  2  2  0  0  0
 17 18  1  0  0  0
  4  3  2  0  0  0
  2  3  1  0  0  0
  8 11  1  0  0  0
M  END
> <minimizedAffinity>
-6.89735

$$$$
5LVQ_2LX_A_904


 18 19  0  0  0  0  0  0  0  0999 V2000
   20.9896    0.6940   55.9079 C   0  0  0  0  0  0  0  0  0  0  0  0
   20.8096   -0.5637   56.4936 C   0  0  0  0  0  0  0  0  0  0  0  0
   20.8972   -0.7387   57.8719 C   0  0  0  0  0  0  0  0  0  0  0  0
   21.1780    0.3368   58.7028 C   0  0  0  0  0  0  0  0  0  0  0  0
   21.4058    1.5926   58.1646 C   0  0  0  0  0  0  0  0  0  0  0  0
   21.3413    1.7683   56.7657 C   0  0  0  0  0  0  0  0  0  0  0  0
   19.0769    1.1627   52.6477 C   0  0  0  0  0  0  0  0  0  0  0  0
   19.4382    1.0105   54.0472 N   0  0  0  0  0  0  0  0  0  0  0  0
   20.6919    0.7608   54.4277 C   0  0  0  0  0  0  0  0  0  0  0  0
   21.5931    0.6281   53.5966 O   0  0  0  0  0  0  0  0  0  0  0  0
   18.7376    1.0940   54.7338 H   0  0  0  0  0  0  0  0  0  0  0  0
   21.7229    2.9374   56.1368 O   0  0  0  0  0  0  0  0  0  0  0  0
   20.9388    4.1466   56.4017 C   0  0  0  0  0  0  0  0  0  0  0  0
   20.5194    4.7147   55.0674 C   0  0  0  0  0  0  0  0  0  0  0  0
   19.8204    6.0427   55.2732 C   0  0  0  0  0  0  0  0  0  0  0  0
   20.6529    6.9652   55.9587 O   0  0  0  0  0  0  0  0  0  0  0  0
   21.0348    6.4247   57.2418 C   0  0  0  0  0  0  0  0  0  0  0  0
   21.8021    5.1196   57.1805 C   0  0  0  0  0  0  0  0  0  0  0  0
 15 14  1  0  0  0
 15 16  1  0  0  0
 14 13  1  0  0  0
 13 12  1  0  0  0
 13 18  1  0  0  0
 16 17  1  0  0  0
 12  6  1  0  0  0
  7  8  1  0  0  0
  8  9  1  0  0  0
  6  5  2  0  0  0
  6  1  1  0  0  0
  5  4  1  0  0  0
  9  1  1  0  0  0
  9 10  2  0  0  0
  1  2  2  0  0  0
 17 18  1  0  0  0
  4  3  2  0  0  0
  2  3  1  0  0  0
  8 11  1  0  0  0
M  END
> <minimizedAffinity>
-6.85966

$$$$
5LVQ_2LX_A_904


 18 19  0  0  0  0  0  0  0  0999 V2000
   21.4023    1.2157   57.2378 C   0  0  0  0  0  0  0  0  0  0  0  0
   21.5606    2.1999   58.2193 C   0  0  0  0  0  0  0  0  0  0  0  0
   22.0027    3.4796   57.8953 C   0  0  0  0  0  0  0  0  0  0  0  0
   22.3096    3.8084   56.5824 C   0  0  0  0  0  0  0  0  0  0  0  0
   22.2090    2.8544   55.5833 C   0  0  0  0  0  0  0  0  0  0  0  0
   21.7839    1.5494   55.9124 C   0  0  0  0  0  0  0  0  0  0  0  0
   20.2854   -2.4245   57.3291 C   0  0  0  0  0  0  0  0  0  0  0  0
   20.8214   -1.1364   56.9221 N   0  0  0  0  0  0  0  0  0  0  0  0
   20.7506   -0.0631   57.7109 C   0  0  0  0  0  0  0  0  0  0  0  0
   20.2040   -0.1215   58.8147 O   0  0  0  0  0  0  0  0  0  0  0  0
   21.2488   -1.0536   56.0392 H   0  0  0  0  0  0  0  0  0  0  0  0
   21.8220    0.4985   55.0168 O   0  0  0  0  0  0  0  0  0  0  0  0
   21.0160    0.6061   53.7978 C   0  0  0  0  0  0  0  0  0  0  0  0
   19.6017    0.9259   54.2178 C   0  0  0  0  0  0  0  0  0  0  0  0
   18.6927    0.9144   53.0061 C   0  0  0  0  0  0  0  0  0  0  0  0
   18.7346   -0.3376   52.3393 O   0  0  0  0  0  0  0  0  0  0  0  0
   20.0860   -0.6290   51.9231 C   0  0  0  0  0  0  0  0  0  0  0  0
   21.0962   -0.7101   53.0496 C   0  0  0  0  0  0  0  0  0  0  0  0
 15 14  1  0  0  0
 15 16  1  0  0  0
 14 13  1  0  0  0
 13 12  1  0  0  0
 13 18  1  0  0  0
 16 17  1  0  0  0
 12  6  1  0  0  0
  7  8  1  0  0  0
  8  9  1  0  0  0
  6  5  2  0  0  0
  6  1  1  0  0  0
  5  4  1  0  0  0
  9  1  1  0  0  0
  9 10  2  0  0  0
  1  2  2  0  0  0
 17 18  1  0  0  0
  4  3  2  0  0  0
  2  3  1  0  0  0
  8 11  1  0  0  0
M  END
> <minimizedAffinity>
-6.62716

$$$$
5LVQ_2LX_A_904


 18 19  0  0  0  0  0  0  0  0999 V2000
   20.7393   -0.4724   56.5658 C   0  0  0  0  0  0  0  0  0  0  0  0
   20.7080   -0.1738   57.9322 C   0  0  0  0  0  0  0  0  0  0  0  0
   21.1536    1.0538   58.4144 C   0  0  0  0  0  0  0  0  0  0  0  0
   21.6532    2.0135   57.5454 C   0  0  0  0  0  0  0  0  0  0  0  0
   21.7431    1.7465   56.1892 C   0  0  0  0  0  0  0  0  0  0  0  0
   21.3144    0.4939   55.7003 C   0  0  0  0  0  0  0  0  0  0  0  0
   20.2693   -4.0817   55.4438 C   0  0  0  0  0  0  0  0  0  0  0  0
   20.8285   -2.7802   55.7687 N   0  0  0  0  0  0  0  0  0  0  0  0
   20.0632   -1.7667   56.1765 C   0  0  0  0  0  0  0  0  0  0  0  0
   18.8404   -1.8934   56.2727 O   0  0  0  0  0  0  0  0  0  0  0  0
   21.7998   -2.6427   55.6854 H   0  0  0  0  0  0  0  0  0  0  0  0
   21.5279    0.0820   54.3993 O   0  0  0  0  0  0  0  0  0  0  0  0
   20.3844    0.0816   53.4831 C   0  0  0  0  0  0  0  0  0  0  0  0
   20.9187    0.3301   52.0933 C   0  0  0  0  0  0  0  0  0  0  0  0
   19.7668    0.4766   51.1204 C   0  0  0  0  0  0  0  0  0  0  0  0
   18.8946    1.5278   51.5054 O   0  0  0  0  0  0  0  0  0  0  0  0
   18.3718    1.2749   52.8272 C   0  0  0  0  0  0  0  0  0  0  0  0
   19.4192    1.1673   53.9168 C   0  0  0  0  0  0  0  0  0  0  0  0
 15 14  1  0  0  0
 15 16  1  0  0  0
 14 13  1  0  0  0
 13 12  1  0  0  0
 13 18  1  0  0  0
 16 17  1  0  0  0
 12  6  1  0  0  0
  7  8  1  0  0  0
  8  9  1  0  0  0
  6  5  2  0  0  0
  6  1  1  0  0  0
  5  4  1  0  0  0
  9  1  1  0  0  0
  9 10  2  0  0  0
  1  2  2  0  0  0
 17 18  1  0  0  0
  4  3  2  0  0  0
  2  3  1  0  0  0
  8 11  1  0  0  0
M  END
> <minimizedAffinity>
-6.29587

$$$$
5LVQ_2LX_A_904


 18 19  0  0  0  0  0  0  0  0999 V2000
   21.0562    0.2754   56.1947 C   0  0  0  0  0  0  0  0  0  0  0  0
   20.4919   -0.3185   57.3286 C   0  0  0  0  0  0  0  0  0  0  0  0
   19.9157   -1.5845   57.2708 C   0  0  0  0  0  0  0  0  0  0  0  0
   19.8777   -2.2880   56.0751 C   0  0  0  0  0  0  0  0  0  0  0  0
   20.3858   -1.7226   54.9173 C   0  0  0  0  0  0  0  0  0  0  0  0
   20.9491   -0.4295   54.9678 C   0  0  0  0  0  0  0  0  0  0  0  0
   22.1177    3.9218   55.9051 C   0  0  0  0  0  0  0  0  0  0  0  0
   21.5067    2.6218   55.6840 N   0  0  0  0  0  0  0  0  0  0  0  0
   21.7965    1.5682   56.4489 C   0  0  0  0  0  0  0  0  0  0  0  0
   22.6165    1.6557   57.3656 O   0  0  0  0  0  0  0  0  0  0  0  0
   20.8606    2.5158   54.9488 H   0  0  0  0  0  0  0  0  0  0  0  0
   21.3178    0.2741   53.8378 O   0  0  0  0  0  0  0  0  0  0  0  0
   20.2822    0.5670   52.8434 C   0  0  0  0  0  0  0  0  0  0  0  0
   19.0353    0.9679   53.5939 C   0  0  0  0  0  0  0  0  0  0  0  0
   17.8886    1.1511   52.6211 C   0  0  0  0  0  0  0  0  0  0  0  0
   17.6512   -0.0309   51.8725 O   0  0  0  0  0  0  0  0  0  0  0  0
   18.8409   -0.3985   51.1418 C   0  0  0  0  0  0  0  0  0  0  0  0
   20.0573   -0.6742   52.0022 C   0  0  0  0  0  0  0  0  0  0  0  0
 15 14  1  0  0  0
 15 16  1  0  0  0
 14 13  1  0  0  0
 13 12  1  0  0  0
 13 18  1  0  0  0
 16 17  1  0  0  0
 12  6  1  0  0  0
  7  8  1  0  0  0
  8  9  1  0  0  0
  6  5  2  0  0  0
  6  1  1  0  0  0
  5  4  1  0  0  0
  9  1  1  0  0  0
  9 10  2  0  0  0
  1  2  2  0  0  0
 17 18  1  0  0  0
  4  3  2  0  0  0
  2  3  1  0  0  0
  8 11  1  0  0  0
M  END
> <minimizedAffinity>
-6.13754

$$$$
5LVQ_2LX_A_904


 18 19  0  0  0  0  0  0  0  0999 V2000
   21.3365    1.6039   55.8121 C   0  0  0  0  0  0  0  0  0  0  0  0
   21.8668    2.8917   55.6802 C   0  0  0  0  0  0  0  0  0  0  0  0
   22.1803    3.6624   56.7963 C   0  0  0  0  0  0  0  0  0  0  0  0
   21.9622    3.1716   58.0760 C   0  0  0  0  0  0  0  0  0  0  0  0
   21.3994    1.9188   58.2554 C   0  0  0  0  0  0  0  0  0  0  0  0
   21.0584    1.1447   57.1256 C   0  0  0  0  0  0  0  0  0  0  0  0
   19.7991   -0.3984   52.9600 C   0  0  0  0  0  0  0  0  0  0  0  0
   20.0257    0.3026   54.2128 N   0  0  0  0  0  0  0  0  0  0  0  0
   21.2129    0.8259   54.5223 C   0  0  0  0  0  0  0  0  0  0  0  0
   22.1745    0.7137   53.7587 O   0  0  0  0  0  0  0  0  0  0  0  0
   19.2817    0.3939   54.8510 H   0  0  0  0  0  0  0  0  0  0  0  0
   20.3393   -0.0316   57.2099 O   0  0  0  0  0  0  0  0  0  0  0  0
   21.0874   -1.2881   57.3026 C   0  0  0  0  0  0  0  0  0  0  0  0
   20.2408   -2.3658   56.6695 C   0  0  0  0  0  0  0  0  0  0  0  0
   20.9040   -3.7147   56.8577 C   0  0  0  0  0  0  0  0  0  0  0  0
   21.1146   -4.0008   58.2317 O   0  0  0  0  0  0  0  0  0  0  0  0
   21.9407   -2.9772   58.8269 C   0  0  0  0  0  0  0  0  0  0  0  0
   21.3643   -1.5772   58.7648 C   0  0  0  0  0  0  0  0  0  0  0  0
 15 14  1  0  0  0
 15 16  1  0  0  0
 14 13  1  0  0  0
 13 12  1  0  0  0
 13 18  1  0  0  0
 16 17  1  0  0  0
 12  6  1  0  0  0
  7  8  1  0  0  0
  8  9  1  0  0  0
  6  5  2  0  0  0
  6  1  1  0  0  0
  5  4  1  0  0  0
  9  1  1  0  0  0
  9 10  2  0  0  0
  1  2  2  0  0  0
 17 18  1  0  0  0
  4  3  2  0  0  0
  2  3  1  0  0  0
  8 11  1  0  0  0
M  END
> <minimizedAffinity>
-6.06689

$$$$
5LVQ_2LX_A_904


 18 19  0  0  0  0  0  0  0  0999 V2000
   20.3517   -0.5714   55.8164 C   0  0  0  0  0  0  0  0  0  0  0  0
   19.9547   -1.7774   56.4037 C   0  0  0  0  0  0  0  0  0  0  0  0
   20.3705   -2.1292   57.6848 C   0  0  0  0  0  0  0  0  0  0  0  0
   21.2040   -1.2901   58.4109 C   0  0  0  0  0  0  0  0  0  0  0  0
   21.6573   -0.1057   57.8540 C   0  0  0  0  0  0  0  0  0  0  0  0
   21.2567    0.2423   56.5463 C   0  0  0  0  0  0  0  0  0  0  0  0
   18.6872    1.4203   53.0291 C   0  0  0  0  0  0  0  0  0  0  0  0
   19.2749    1.0050   54.2918 N   0  0  0  0  0  0  0  0  0  0  0  0
   19.6825   -0.2477   54.5007 C   0  0  0  0  0  0  0  0  0  0  0  0
   19.5544   -1.1105   53.6291 O   0  0  0  0  0  0  0  0  0  0  0  0
   19.3749    1.6672   55.0134 H   0  0  0  0  0  0  0  0  0  0  0  0
   21.7955    1.3095   55.8543 O   0  0  0  0  0  0  0  0  0  0  0  0
   22.1284    2.5198   56.6101 C   0  0  0  0  0  0  0  0  0  0  0  0
   21.4546    2.4115   57.9566 C   0  0  0  0  0  0  0  0  0  0  0  0
   21.6508    3.6978   58.7323 C   0  0  0  0  0  0  0  0  0  0  0  0
   21.1436    4.8149   58.0191 O   0  0  0  0  0  0  0  0  0  0  0  0
   21.8053    4.9247   56.7406 C   0  0  0  0  0  0  0  0  0  0  0  0
   21.6375    3.7244   55.8312 C   0  0  0  0  0  0  0  0  0  0  0  0
 15 14  1  0  0  0
 15 16  1  0  0  0
 14 13  1  0  0  0
 13 12  1  0  0  0
 13 18  1  0  0  0
 16 17  1  0  0  0
 12  6  1  0  0  0
  7  8  1  0  0  0
  8  9  1  0  0  0
  6  5  2  0  0  0
  6  1  1  0  0  0
  5  4  1  0  0  0
  9  1  1  0  0  0
  9 10  2  0  0  0
  1  2  2  0  0  0
 17 18  1  0  0  0
  4  3  2  0  0  0
  2  3  1  0  0  0
  8 11  1  0  0  0
M  END
> <minimizedAffinity>
-5.96728

$$$$
5LVQ_2LX_A_904


 18 19  0  0  0  0  0  0  0  0999 V2000
   21.5154    0.6557   54.9970 C   0  0  0  0  0  0  0  0  0  0  0  0
   22.0129    0.8127   53.6990 C   0  0  0  0  0  0  0  0  0  0  0  0
   21.6198   -0.0345   52.6666 C   0  0  0  0  0  0  0  0  0  0  0  0
   20.7266   -1.0695   52.9051 C   0  0  0  0  0  0  0  0  0  0  0  0
   20.2404   -1.2899   54.1832 C   0  0  0  0  0  0  0  0  0  0  0  0
   20.6555   -0.4474   55.2366 C   0  0  0  0  0  0  0  0  0  0  0  0
   21.7253    4.0908   56.6289 C   0  0  0  0  0  0  0  0  0  0  0  0
   21.4686    2.9907   55.7145 N   0  0  0  0  0  0  0  0  0  0  0  0
   21.8941    1.7519   55.9660 C   0  0  0  0  0  0  0  0  0  0  0  0
   22.5445    1.4982   56.9824 O   0  0  0  0  0  0  0  0  0  0  0  0
   20.9665    3.1650   54.8858 H   0  0  0  0  0  0  0  0  0  0  0  0
   20.3593   -0.6999   56.5620 O   0  0  0  0  0  0  0  0  0  0  0  0
   21.1259   -1.7418   57.2501 C   0  0  0  0  0  0  0  0  0  0  0  0
   20.3378   -3.0252   57.1472 C   0  0  0  0  0  0  0  0  0  0  0  0
   21.0164   -4.1093   57.9591 C   0  0  0  0  0  0  0  0  0  0  0  0
   21.1554   -3.7273   59.3188 O   0  0  0  0  0  0  0  0  0  0  0  0
   21.9262   -2.5101   59.4121 C   0  0  0  0  0  0  0  0  0  0  0  0
   21.3263   -1.3193   58.6923 C   0  0  0  0  0  0  0  0  0  0  0  0
 15 14  1  0  0  0
 15 16  1  0  0  0
 14 13  1  0  0  0
 13 12  1  0  0  0
 13 18  1  0  0  0
 16 17  1  0  0  0
 12  6  1  0  0  0
  7  8  1  0  0  0
  8  9  1  0  0  0
  6  5  2  0  0  0
  6  1  1  0  0  0
  5  4  1  0  0  0
  9  1  1  0  0  0
  9 10  2  0  0  0
  1  2  2  0  0  0
 17 18  1  0  0  0
  4  3  2  0  0  0
  2  3  1  0  0  0
  8 11  1  0  0  0
M  END
> <minimizedAffinity>
-5.82393

$$$$
5LVQ_2LX_A_904


 18 19  0  0  0  0  0  0  0  0999 V2000
   19.8242   -1.0158   52.7023 C   0  0  0  0  0  0  0  0  0  0  0  0
   19.0761   -0.6057   51.5936 C   0  0  0  0  0  0  0  0  0  0  0  0
   18.3689    0.5934   51.6020 C   0  0  0  0  0  0  0  0  0  0  0  0
   18.3808    1.4112   52.7232 C   0  0  0  0  0  0  0  0  0  0  0  0
   19.0728    1.0261   53.8595 C   0  0  0  0  0  0  0  0  0  0  0  0
   19.7711   -0.2004   53.8624 C   0  0  0  0  0  0  0  0  0  0  0  0
   20.9196   -4.6635   52.6593 C   0  0  0  0  0  0  0  0  0  0  0  0
   20.2010   -3.4222   52.8939 N   0  0  0  0  0  0  0  0  0  0  0  0
   20.6752   -2.2453   52.4827 C   0  0  0  0  0  0  0  0  0  0  0  0
   21.7602   -2.1659   51.9023 O   0  0  0  0  0  0  0  0  0  0  0  0
   19.3397   -3.4509   53.3700 H   0  0  0  0  0  0  0  0  0  0  0  0
   20.3381   -0.7395   55.0007 O   0  0  0  0  0  0  0  0  0  0  0  0
   20.3588    0.0834   56.2129 C   0  0  0  0  0  0  0  0  0  0  0  0
   21.6100    0.9267   56.1654 C   0  0  0  0  0  0  0  0  0  0  0  0
   21.7557    1.7001   57.4598 C   0  0  0  0  0  0  0  0  0  0  0  0
   21.7931    0.8306   58.5808 O   0  0  0  0  0  0  0  0  0  0  0  0
   20.5857    0.0407   58.6319 C   0  0  0  0  0  0  0  0  0  0  0  0
   20.3456   -0.8352   57.4190 C   0  0  0  0  0  0  0  0  0  0  0  0
 15 14  1  0  0  0
 15 16  1  0  0  0
 14 13  1  0  0  0
 13 12  1  0  0  0
 13 18  1  0  0  0
 16 17  1  0  0  0
 12  6  1  0  0  0
  7  8  1  0  0  0
  8  9  1  0  0  0
  6  5  2  0  0  0
  6  1  1  0  0  0
  5  4  1  0  0  0
  9  1  1  0  0  0
  9 10  2  0  0  0
  1  2  2  0  0  0
 17 18  1  0  0  0
  4  3  2  0  0  0
  2  3  1  0  0  0
  8 11  1  0  0  0
M  END
> <minimizedAffinity>
-5.73887

$$$$
5LVQ_2LX_A_904


 18 19  0  0  0  0  0  0  0  0999 V2000
   20.9516   -0.3729   56.2117 C   0  0  0  0  0  0  0  0  0  0  0  0
   20.2309   -1.1751   55.3206 C   0  0  0  0  0  0  0  0  0  0  0  0
   20.3266   -0.9927   53.9438 C   0  0  0  0  0  0  0  0  0  0  0  0
   21.1373    0.0041   53.4193 C   0  0  0  0  0  0  0  0  0  0  0  0
   21.8366    0.8502   54.2640 C   0  0  0  0  0  0  0  0  0  0  0  0
   21.7229    0.6831   55.6607 C   0  0  0  0  0  0  0  0  0  0  0  0
   21.3636   -2.4846   59.3547 C   0  0  0  0  0  0  0  0  0  0  0  0
   21.3257   -2.0183   57.9787 N   0  0  0  0  0  0  0  0  0  0  0  0
   20.8833   -0.8012   57.6595 C   0  0  0  0  0  0  0  0  0  0  0  0
   20.4671   -0.0294   58.5265 O   0  0  0  0  0  0  0  0  0  0  0  0
   21.6354   -2.6178   57.2618 H   0  0  0  0  0  0  0  0  0  0  0  0
   22.2427    1.5835   56.5701 O   0  0  0  0  0  0  0  0  0  0  0  0
   21.4918    2.8165   56.8209 C   0  0  0  0  0  0  0  0  0  0  0  0
   21.8303    3.7850   55.7136 C   0  0  0  0  0  0  0  0  0  0  0  0
   21.1882    5.1281   55.9940 C   0  0  0  0  0  0  0  0  0  0  0  0
   21.6053    5.6500   57.2460 O   0  0  0  0  0  0  0  0  0  0  0  0
   21.2617    4.7284   58.3029 C   0  0  0  0  0  0  0  0  0  0  0  0
   21.8909    3.3555   58.1806 C   0  0  0  0  0  0  0  0  0  0  0  0
 15 14  1  0  0  0
 15 16  1  0  0  0
 14 13  1  0  0  0
 13 12  1  0  0  0
 13 18  1  0  0  0
 16 17  1  0  0  0
 12  6  1  0  0  0
  7  8  1  0  0  0
  8  9  1  0  0  0
  6  5  2  0  0  0
  6  1  1  0  0  0
  5  4  1  0  0  0
  9  1  1  0  0  0
  9 10  2  0  0  0
  1  2  2  0  0  0
 17 18  1  0  0  0
  4  3  2  0  0  0
  2  3  1  0  0  0
  8 11  1  0  0  0
M  END
> <minimizedAffinity>
-5.71214

$$$$
