4Q6E_KR5_A_305


 25 26  0  0  0  0  0  0  0  0999 V2000
   -3.8310    5.0977   13.6287 N   0  0  0  0  0  0  0  0  0  0  0  0
   -3.9519    6.0710   13.7139 H   0  0  0  0  0  0  0  0  0  0  0  0
   -4.4883    4.2226   14.5066 C   0  0  0  0  0  0  0  0  0  0  0  0
   -5.8164    4.3771   14.8173 C   0  0  0  0  0  0  0  0  0  0  0  0
   -6.4434    3.4756   15.7087 C   0  0  0  0  0  0  0  0  0  0  0  0
   -3.7320    3.1757   15.0479 C   0  0  0  0  0  0  0  0  0  0  0  0
   -4.3504    2.2953   15.9243 C   0  0  0  0  0  0  0  0  0  0  0  0
   -5.6962    2.4329   16.2719 C   0  0  0  0  0  0  0  0  0  0  0  0
   -6.4624    1.3239   17.3947 S   0  0  0  0  0  0  0  0  0  0  0  0
   -7.7533    1.1057   16.8975 O   0  0  0  0  0  0  0  0  0  0  0  0
   -6.3306    1.9328   18.7114 O   0  0  0  0  0  0  0  0  0  0  0  0
   -5.6333   -0.0637   17.3547 N   0  0  0  0  0  0  0  0  0  0  0  0
   -5.7264   -0.4889   16.4323 H   0  0  0  0  0  0  0  0  0  0  0  0
   -6.0017   -0.7004   18.0614 H   0  0  0  0  0  0  0  0  0  0  0  0
   -2.9509    4.5408   12.5691 C   0  0  0  0  0  0  0  0  0  0  0  0
   -3.7349    3.9915   11.4242 C   0  0  0  0  0  0  0  0  0  0  0  0
   -3.0738    5.0373    9.3287 O   0  0  0  0  0  0  0  0  0  0  0  0
   -3.7406    4.9600   10.3369 C   0  0  0  0  0  0  0  0  0  0  0  0
   -4.8464    5.8475   10.2926 N   0  0  0  0  0  0  0  0  0  0  0  0
   -5.2135    6.6146    9.1097 C   0  0  0  0  0  0  0  0  0  0  0  0
   -4.5445    6.3435    7.7972 C   0  0  0  0  0  0  0  0  0  0  0  0
   -6.3495    7.4138    9.3981 C   0  0  0  0  0  0  0  0  0  0  0  0
   -6.5920    7.1950   10.7891 C   0  0  0  0  0  0  0  0  0  0  0  0
   -7.6227    7.8338   11.6403 C   0  0  0  0  0  0  0  0  0  0  0  0
   -5.6894    6.2877   11.3006 N   0  0  0  0  0  0  0  0  0  0  0  0
 24 23  1  0  0  0
 25 23  2  0  0  0
 25 19  1  0  0  0
 23 22  1  0  0  0
 16 15  1  0  0  0
 16 18  1  0  0  0
 15  1  1  0  0  0
 19 18  1  0  0  0
 19 20  1  0  0  0
 22 20  2  0  0  0
 18 17  2  0  0  0
  1  3  1  0  0  0
 20 21  1  0  0  0
  3  6  2  0  0  0
  3  4  1  0  0  0
  6  7  1  0  0  0
  4  5  2  0  0  0
  7  8  2  0  0  0
  5  8  1  0  0  0
  8  9  1  0  0  0
 12  9  1  0  0  0
 10  9  2  0  0  0
  9 11  2  0  0  0
  1  2  1  0  0  0
 12 13  1  0  0  0
 12 14  1  0  0  0
M  END
> <minimizedAffinity>
-7.63481

$$$$
4Q6E_KR5_A_305


 25 26  0  0  0  0  0  0  0  0999 V2000
   -4.1498    5.7076   14.0318 N   0  0  0  0  0  0  0  0  0  0  0  0
   -4.4234    6.6172   14.2907 H   0  0  0  0  0  0  0  0  0  0  0  0
   -4.6254    4.5954   14.7425 C   0  0  0  0  0  0  0  0  0  0  0  0
   -5.9437    4.4849   15.1091 C   0  0  0  0  0  0  0  0  0  0  0  0
   -6.3850    3.3490   15.8272 C   0  0  0  0  0  0  0  0  0  0  0  0
   -3.6974    3.5946   15.0557 C   0  0  0  0  0  0  0  0  0  0  0  0
   -4.1340    2.4834   15.7630 C   0  0  0  0  0  0  0  0  0  0  0  0
   -5.4653    2.3470   16.1629 C   0  0  0  0  0  0  0  0  0  0  0  0
   -6.0016    0.9457   17.0720 S   0  0  0  0  0  0  0  0  0  0  0  0
   -5.6014    1.1708   18.3950 O   0  0  0  0  0  0  0  0  0  0  0  0
   -5.4548   -0.2136   16.3801 O   0  0  0  0  0  0  0  0  0  0  0  0
   -7.6165    0.9057   17.0022 N   0  0  0  0  0  0  0  0  0  0  0  0
   -7.9980    1.7179   17.4871 H   0  0  0  0  0  0  0  0  0  0  0  0
   -7.9551    0.0533   17.4485 H   0  0  0  0  0  0  0  0  0  0  0  0
   -3.2291    5.4992   12.8845 C   0  0  0  0  0  0  0  0  0  0  0  0
   -3.2936    6.6240   11.9058 C   0  0  0  0  0  0  0  0  0  0  0  0
   -5.6616    6.1298   11.6409 O   0  0  0  0  0  0  0  0  0  0  0  0
   -4.6730    6.8107   11.4785 C   0  0  0  0  0  0  0  0  0  0  0  0
   -5.0091    8.0981   10.9868 N   0  0  0  0  0  0  0  0  0  0  0  0
   -6.3789    8.5791   10.8656 C   0  0  0  0  0  0  0  0  0  0  0  0
   -7.5094    7.7931   11.4554 C   0  0  0  0  0  0  0  0  0  0  0  0
   -6.3733    9.8920   10.3284 C   0  0  0  0  0  0  0  0  0  0  0  0
   -4.9988   10.1482   10.0346 C   0  0  0  0  0  0  0  0  0  0  0  0
   -4.4188   11.3502    9.3914 C   0  0  0  0  0  0  0  0  0  0  0  0
   -4.2161    9.0778   10.4106 N   0  0  0  0  0  0  0  0  0  0  0  0
 24 23  1  0  0  0
 25 23  2  0  0  0
 25 19  1  0  0  0
 23 22  1  0  0  0
 16 15  1  0  0  0
 16 18  1  0  0  0
 15  1  1  0  0  0
 19 18  1  0  0  0
 19 20  1  0  0  0
 22 20  2  0  0  0
 18 17  2  0  0  0
  1  3  1  0  0  0
 20 21  1  0  0  0
  3  6  2  0  0  0
  3  4  1  0  0  0
  6  7  1  0  0  0
  4  5  2  0  0  0
  7  8  2  0  0  0
  5  8  1  0  0  0
  8  9  1  0  0  0
 12  9  1  0  0  0
 10  9  2  0  0  0
  9 11  2  0  0  0
  1  2  1  0  0  0
 12 13  1  0  0  0
 12 14  1  0  0  0
M  END
> <minimizedAffinity>
-7.50374

$$$$
4Q6E_KR5_A_305


 25 26  0  0  0  0  0  0  0  0999 V2000
   -4.3019    4.9952   13.3344 N   0  0  0  0  0  0  0  0  0  0  0  0
   -4.3763    5.9665   13.4765 H   0  0  0  0  0  0  0  0  0  0  0  0
   -4.7849    4.0988   14.2996 C   0  0  0  0  0  0  0  0  0  0  0  0
   -4.0903    2.9651   14.6413 C   0  0  0  0  0  0  0  0  0  0  0  0
   -4.6112    2.0843   15.6177 C   0  0  0  0  0  0  0  0  0  0  0  0
   -6.0056    4.4149   14.9087 C   0  0  0  0  0  0  0  0  0  0  0  0
   -6.5143    3.5464   15.8639 C   0  0  0  0  0  0  0  0  0  0  0  0
   -5.8395    2.3777   16.2241 C   0  0  0  0  0  0  0  0  0  0  0  0
   -6.5015    1.2785   17.4205 S   0  0  0  0  0  0  0  0  0  0  0  0
   -7.8005    0.9807   16.9904 O   0  0  0  0  0  0  0  0  0  0  0  0
   -6.3427    1.9438   18.7066 O   0  0  0  0  0  0  0  0  0  0  0  0
   -5.6083   -0.0691   17.3944 N   0  0  0  0  0  0  0  0  0  0  0  0
   -5.7205   -0.5339   16.4934 H   0  0  0  0  0  0  0  0  0  0  0  0
   -5.9144   -0.6944   18.1399 H   0  0  0  0  0  0  0  0  0  0  0  0
   -3.6769    4.4639   12.0956 C   0  0  0  0  0  0  0  0  0  0  0  0
   -4.3116    5.0235   10.8662 C   0  0  0  0  0  0  0  0  0  0  0  0
   -4.0573    7.2838   11.7313 O   0  0  0  0  0  0  0  0  0  0  0  0
   -4.6206    6.4299   11.0826 C   0  0  0  0  0  0  0  0  0  0  0  0
   -5.6035    6.9950   10.2301 N   0  0  0  0  0  0  0  0  0  0  0  0
   -5.7771    8.4296   10.0450 C   0  0  0  0  0  0  0  0  0  0  0  0
   -4.7726    9.3895   10.6047 C   0  0  0  0  0  0  0  0  0  0  0  0
   -6.8498    8.6641    9.1468 C   0  0  0  0  0  0  0  0  0  0  0  0
   -7.3788    7.3639    8.8804 C   0  0  0  0  0  0  0  0  0  0  0  0
   -8.5586    7.0179    8.0538 C   0  0  0  0  0  0  0  0  0  0  0  0
   -6.6466    6.3995    9.5387 N   0  0  0  0  0  0  0  0  0  0  0  0
 24 23  1  0  0  0
 25 23  2  0  0  0
 25 19  1  0  0  0
 23 22  1  0  0  0
 16 15  1  0  0  0
 16 18  1  0  0  0
 15  1  1  0  0  0
 19 18  1  0  0  0
 19 20  1  0  0  0
 22 20  2  0  0  0
 18 17  2  0  0  0
  1  3  1  0  0  0
 20 21  1  0  0  0
  3  6  2  0  0  0
  3  4  1  0  0  0
  6  7  1  0  0  0
  4  5  2  0  0  0
  7  8  2  0  0  0
  5  8  1  0  0  0
  8  9  1  0  0  0
 12  9  1  0  0  0
 10  9  2  0  0  0
  9 11  2  0  0  0
  1  2  1  0  0  0
 12 13  1  0  0  0
 12 14  1  0  0  0
M  END
> <minimizedAffinity>
-7.21101

$$$$
4Q6E_KR5_A_305


 25 26  0  0  0  0  0  0  0  0999 V2000
   -4.1167    5.7233   14.0688 N   0  0  0  0  0  0  0  0  0  0  0  0
   -4.6995    6.4882   13.8580 H   0  0  0  0  0  0  0  0  0  0  0  0
   -4.6316    4.6044   14.7407 C   0  0  0  0  0  0  0  0  0  0  0  0
   -5.9583    4.5170   15.0825 C   0  0  0  0  0  0  0  0  0  0  0  0
   -6.4394    3.3735   15.7617 C   0  0  0  0  0  0  0  0  0  0  0  0
   -3.7339    3.5725   15.0412 C   0  0  0  0  0  0  0  0  0  0  0  0
   -4.2097    2.4538   15.7103 C   0  0  0  0  0  0  0  0  0  0  0  0
   -5.5506    2.3399   16.0846 C   0  0  0  0  0  0  0  0  0  0  0  0
   -6.1366    0.9283   16.9458 S   0  0  0  0  0  0  0  0  0  0  0  0
   -5.4727   -0.1681   16.3815 O   0  0  0  0  0  0  0  0  0  0  0  0
   -7.5891    0.9733   16.8465 O   0  0  0  0  0  0  0  0  0  0  0  0
   -5.6949    1.0809   18.4937 N   0  0  0  0  0  0  0  0  0  0  0  0
   -4.6776    1.0493   18.5617 H   0  0  0  0  0  0  0  0  0  0  0  0
   -6.0960    0.3176   19.0385 H   0  0  0  0  0  0  0  0  0  0  0  0
   -2.6833    5.7423   13.6786 C   0  0  0  0  0  0  0  0  0  0  0  0
   -2.5065    5.9730   12.2148 C   0  0  0  0  0  0  0  0  0  0  0  0
   -1.7500    8.2636   11.8938 O   0  0  0  0  0  0  0  0  0  0  0  0
   -2.5980    7.3997   11.9387 C   0  0  0  0  0  0  0  0  0  0  0  0
   -3.8289    7.8577   11.4027 N   0  0  0  0  0  0  0  0  0  0  0  0
   -3.9845    9.1416   10.7318 C   0  0  0  0  0  0  0  0  0  0  0  0
   -2.7812    9.9668   10.3936 C   0  0  0  0  0  0  0  0  0  0  0  0
   -5.3353    9.3044   10.3300 C   0  0  0  0  0  0  0  0  0  0  0  0
   -6.0022    8.1562   10.8576 C   0  0  0  0  0  0  0  0  0  0  0  0
   -7.4484    7.8406   10.7955 C   0  0  0  0  0  0  0  0  0  0  0  0
   -5.1061    7.3285   11.4990 N   0  0  0  0  0  0  0  0  0  0  0  0
 24 23  1  0  0  0
 25 23  2  0  0  0
 25 19  1  0  0  0
 23 22  1  0  0  0
 16 15  1  0  0  0
 16 18  1  0  0  0
 15  1  1  0  0  0
 19 18  1  0  0  0
 19 20  1  0  0  0
 22 20  2  0  0  0
 18 17  2  0  0  0
  1  3  1  0  0  0
 20 21  1  0  0  0
  3  6  2  0  0  0
  3  4  1  0  0  0
  6  7  1  0  0  0
  4  5  2  0  0  0
  7  8  2  0  0  0
  5  8  1  0  0  0
  8  9  1  0  0  0
 12  9  1  0  0  0
 10  9  2  0  0  0
  9 11  2  0  0  0
  1  2  1  0  0  0
 12 13  1  0  0  0
 12 14  1  0  0  0
M  END
> <minimizedAffinity>
-6.94194

$$$$
4Q6E_KR5_A_305


 25 26  0  0  0  0  0  0  0  0999 V2000
   -4.1828    5.4396   13.8619 N   0  0  0  0  0  0  0  0  0  0  0  0
   -3.8929    6.3001   14.2423 H   0  0  0  0  0  0  0  0  0  0  0  0
   -4.6746    4.4253   14.6974 C   0  0  0  0  0  0  0  0  0  0  0  0
   -3.8858    3.3749   15.0960 C   0  0  0  0  0  0  0  0  0  0  0  0
   -4.4185    2.3702   15.9370 C   0  0  0  0  0  0  0  0  0  0  0  0
   -6.0063    4.5345   15.1165 C   0  0  0  0  0  0  0  0  0  0  0  0
   -6.5256    3.5450   15.9391 C   0  0  0  0  0  0  0  0  0  0  0  0
   -5.7540    2.4562   16.3513 C   0  0  0  0  0  0  0  0  0  0  0  0
   -6.4271    1.2022   17.3771 S   0  0  0  0  0  0  0  0  0  0  0  0
   -7.7211    0.9668   16.8961 O   0  0  0  0  0  0  0  0  0  0  0  0
   -6.2828    1.6834   18.7444 O   0  0  0  0  0  0  0  0  0  0  0  0
   -5.5319   -0.1289   17.1745 N   0  0  0  0  0  0  0  0  0  0  0  0
   -5.6338   -0.4647   16.2168 H   0  0  0  0  0  0  0  0  0  0  0  0
   -5.8449   -0.8512   17.8232 H   0  0  0  0  0  0  0  0  0  0  0  0
   -4.1038    5.2021   12.3974 C   0  0  0  0  0  0  0  0  0  0  0  0
   -2.6930    5.1798   11.9111 C   0  0  0  0  0  0  0  0  0  0  0  0
   -2.3613    6.9594   10.2848 O   0  0  0  0  0  0  0  0  0  0  0  0
   -2.3385    6.4981   11.4046 C   0  0  0  0  0  0  0  0  0  0  0  0
   -2.1485    7.5138   12.3765 N   0  0  0  0  0  0  0  0  0  0  0  0
   -2.1573    8.9366   12.0634 C   0  0  0  0  0  0  0  0  0  0  0  0
   -2.5758    9.4074   10.7045 C   0  0  0  0  0  0  0  0  0  0  0  0
   -1.9235    9.6827   13.2472 C   0  0  0  0  0  0  0  0  0  0  0  0
   -1.6729    8.6922   14.2459 C   0  0  0  0  0  0  0  0  0  0  0  0
   -1.3026    8.9091   15.6639 C   0  0  0  0  0  0  0  0  0  0  0  0
   -1.7912    7.4268   13.7127 N   0  0  0  0  0  0  0  0  0  0  0  0
 24 23  1  0  0  0
 25 23  2  0  0  0
 25 19  1  0  0  0
 23 22  1  0  0  0
 16 15  1  0  0  0
 16 18  1  0  0  0
 15  1  1  0  0  0
 19 18  1  0  0  0
 19 20  1  0  0  0
 22 20  2  0  0  0
 18 17  2  0  0  0
  1  3  1  0  0  0
 20 21  1  0  0  0
  3  6  2  0  0  0
  3  4  1  0  0  0
  6  7  1  0  0  0
  4  5  2  0  0  0
  7  8  2  0  0  0
  5  8  1  0  0  0
  8  9  1  0  0  0
 12  9  1  0  0  0
 10  9  2  0  0  0
  9 11  2  0  0  0
  1  2  1  0  0  0
 12 13  1  0  0  0
 12 14  1  0  0  0
M  END
> <minimizedAffinity>
-6.85534

$$$$
4Q6E_KR5_A_305


 25 26  0  0  0  0  0  0  0  0999 V2000
   -4.1282    5.5661   13.7253 N   0  0  0  0  0  0  0  0  0  0  0  0
   -3.3595    6.1144   14.0040 H   0  0  0  0  0  0  0  0  0  0  0  0
   -4.6162    4.5521   14.5632 C   0  0  0  0  0  0  0  0  0  0  0  0
   -3.8235    3.5056   14.9643 C   0  0  0  0  0  0  0  0  0  0  0  0
   -4.3525    2.5010   15.8079 C   0  0  0  0  0  0  0  0  0  0  0  0
   -5.9482    4.6575   14.9822 C   0  0  0  0  0  0  0  0  0  0  0  0
   -6.4639    3.6681   15.8074 C   0  0  0  0  0  0  0  0  0  0  0  0
   -5.6882    2.5831   16.2221 C   0  0  0  0  0  0  0  0  0  0  0  0
   -6.3566    1.3292   17.2511 S   0  0  0  0  0  0  0  0  0  0  0  0
   -7.6454    1.0795   16.7634 O   0  0  0  0  0  0  0  0  0  0  0  0
   -6.2253    1.8196   18.6164 O   0  0  0  0  0  0  0  0  0  0  0  0
   -5.4484    0.0049   17.0619 N   0  0  0  0  0  0  0  0  0  0  0  0
   -5.5413   -0.3373   16.1055 H   0  0  0  0  0  0  0  0  0  0  0  0
   -5.7591   -0.7163   17.7128 H   0  0  0  0  0  0  0  0  0  0  0  0
   -4.7831    5.8042   12.4130 C   0  0  0  0  0  0  0  0  0  0  0  0
   -3.7968    5.8265   11.2932 C   0  0  0  0  0  0  0  0  0  0  0  0
   -2.7610    7.8736   12.1045 O   0  0  0  0  0  0  0  0  0  0  0  0
   -2.7325    6.7687   11.6089 C   0  0  0  0  0  0  0  0  0  0  0  0
   -1.4090    6.2609   11.5576 N   0  0  0  0  0  0  0  0  0  0  0  0
   -0.2707    6.9215   12.1824 C   0  0  0  0  0  0  0  0  0  0  0  0
   -0.4843    8.0881   13.0972 C   0  0  0  0  0  0  0  0  0  0  0  0
    0.9068    6.1702   11.9341 C   0  0  0  0  0  0  0  0  0  0  0  0
    0.4780    5.1153   11.0711 C   0  0  0  0  0  0  0  0  0  0  0  0
    1.3117    4.0656   10.4404 C   0  0  0  0  0  0  0  0  0  0  0  0
   -0.8796    5.1955   10.8468 N   0  0  0  0  0  0  0  0  0  0  0  0
 24 23  1  0  0  0
 25 23  2  0  0  0
 25 19  1  0  0  0
 23 22  1  0  0  0
 16 15  1  0  0  0
 16 18  1  0  0  0
 15  1  1  0  0  0
 19 18  1  0  0  0
 19 20  1  0  0  0
 22 20  2  0  0  0
 18 17  2  0  0  0
  1  3  1  0  0  0
 20 21  1  0  0  0
  3  6  2  0  0  0
  3  4  1  0  0  0
  6  7  1  0  0  0
  4  5  2  0  0  0
  7  8  2  0  0  0
  5  8  1  0  0  0
  8  9  1  0  0  0
 12  9  1  0  0  0
 10  9  2  0  0  0
  9 11  2  0  0  0
  1  2  1  0  0  0
 12 13  1  0  0  0
 12 14  1  0  0  0
M  END
> <minimizedAffinity>
-6.83533

$$$$
4Q6E_KR5_A_305


 25 26  0  0  0  0  0  0  0  0999 V2000
   -4.1031    5.5050   13.8502 N   0  0  0  0  0  0  0  0  0  0  0  0
   -4.3714    5.5578   12.9044 H   0  0  0  0  0  0  0  0  0  0  0  0
   -4.6085    4.4881   14.6742 C   0  0  0  0  0  0  0  0  0  0  0  0
   -3.8301    3.4294   15.0713 C   0  0  0  0  0  0  0  0  0  0  0  0
   -4.3763    2.4223   15.9007 C   0  0  0  0  0  0  0  0  0  0  0  0
   -5.9427    4.6034   15.0835 C   0  0  0  0  0  0  0  0  0  0  0  0
   -6.4754    3.6115   15.8947 C   0  0  0  0  0  0  0  0  0  0  0  0
   -5.7145    2.5144   16.3050 C   0  0  0  0  0  0  0  0  0  0  0  0
   -6.4043    1.2577   17.3162 S   0  0  0  0  0  0  0  0  0  0  0  0
   -7.6878    1.0190   16.8093 O   0  0  0  0  0  0  0  0  0  0  0  0
   -6.2887    1.7381   18.6865 O   0  0  0  0  0  0  0  0  0  0  0  0
   -5.5015   -0.0708   17.1304 N   0  0  0  0  0  0  0  0  0  0  0  0
   -5.5834   -0.4060   16.1706 H   0  0  0  0  0  0  0  0  0  0  0  0
   -5.8253   -0.7945   17.7721 H   0  0  0  0  0  0  0  0  0  0  0  0
   -3.1591    6.5013   14.4190 C   0  0  0  0  0  0  0  0  0  0  0  0
   -2.2831    7.1019   13.3705 C   0  0  0  0  0  0  0  0  0  0  0  0
   -3.7003    6.8403   11.4096 O   0  0  0  0  0  0  0  0  0  0  0  0
   -2.7027    6.6223   12.0612 C   0  0  0  0  0  0  0  0  0  0  0  0
   -1.7102    5.9735   11.2827 N   0  0  0  0  0  0  0  0  0  0  0  0
   -1.8271    5.7631    9.8458 C   0  0  0  0  0  0  0  0  0  0  0  0
   -2.9344    6.4144    9.0757 C   0  0  0  0  0  0  0  0  0  0  0  0
   -0.6801    5.0744    9.3739 C   0  0  0  0  0  0  0  0  0  0  0  0
    0.0701    4.7857   10.5551 C   0  0  0  0  0  0  0  0  0  0  0  0
    1.3332    4.0188   10.6610 C   0  0  0  0  0  0  0  0  0  0  0  0
   -0.5587    5.3047   11.6664 N   0  0  0  0  0  0  0  0  0  0  0  0
 24 23  1  0  0  0
 25 23  2  0  0  0
 25 19  1  0  0  0
 23 22  1  0  0  0
 16 15  1  0  0  0
 16 18  1  0  0  0
 15  1  1  0  0  0
 19 18  1  0  0  0
 19 20  1  0  0  0
 22 20  2  0  0  0
 18 17  2  0  0  0
  1  3  1  0  0  0
 20 21  1  0  0  0
  3  6  2  0  0  0
  3  4  1  0  0  0
  6  7  1  0  0  0
  4  5  2  0  0  0
  7  8  2  0  0  0
  5  8  1  0  0  0
  8  9  1  0  0  0
 12  9  1  0  0  0
 10  9  2  0  0  0
  9 11  2  0  0  0
  1  2  1  0  0  0
 12 13  1  0  0  0
 12 14  1  0  0  0
M  END
> <minimizedAffinity>
-6.80195

$$$$
4Q6E_KR5_A_305


 25 26  0  0  0  0  0  0  0  0999 V2000
   -3.8200    5.0899   13.5581 N   0  0  0  0  0  0  0  0  0  0  0  0
   -2.8571    5.2943   13.5693 H   0  0  0  0  0  0  0  0  0  0  0  0
   -4.3628    4.1845   14.4823 C   0  0  0  0  0  0  0  0  0  0  0  0
   -3.5883    3.2337   15.0992 C   0  0  0  0  0  0  0  0  0  0  0  0
   -4.1726    2.3369   16.0238 C   0  0  0  0  0  0  0  0  0  0  0  0
   -5.7314    4.2975   14.7568 C   0  0  0  0  0  0  0  0  0  0  0  0
   -6.3011    3.4136   15.6623 C   0  0  0  0  0  0  0  0  0  0  0  0
   -5.5438    2.4261   16.2965 C   0  0  0  0  0  0  0  0  0  0  0  0
   -6.2790    1.3031   17.4262 S   0  0  0  0  0  0  0  0  0  0  0  0
   -5.3662    0.2507   17.5697 O   0  0  0  0  0  0  0  0  0  0  0  0
   -7.5965    0.9966   16.8858 O   0  0  0  0  0  0  0  0  0  0  0  0
   -6.4392    2.0675   18.8420 N   0  0  0  0  0  0  0  0  0  0  0  0
   -5.5160    2.2815   19.2193 H   0  0  0  0  0  0  0  0  0  0  0  0
   -6.9435    1.4692   19.4963 H   0  0  0  0  0  0  0  0  0  0  0  0
   -4.7129    5.7371   12.5624 C   0  0  0  0  0  0  0  0  0  0  0  0
   -4.6660    5.0476   11.2397 C   0  0  0  0  0  0  0  0  0  0  0  0
   -3.1179    6.3235    9.8622 O   0  0  0  0  0  0  0  0  0  0  0  0
   -4.2258    5.9909   10.2215 C   0  0  0  0  0  0  0  0  0  0  0  0
   -5.2194    6.4492    9.3187 N   0  0  0  0  0  0  0  0  0  0  0  0
   -4.9144    7.0830    8.0429 C   0  0  0  0  0  0  0  0  0  0  0  0
   -3.5089    7.0990    7.5254 C   0  0  0  0  0  0  0  0  0  0  0  0
   -6.1230    7.4373    7.3900 C   0  0  0  0  0  0  0  0  0  0  0  0
   -7.1447    7.1040    8.3316 C   0  0  0  0  0  0  0  0  0  0  0  0
   -8.6037    7.3252    8.2013 C   0  0  0  0  0  0  0  0  0  0  0  0
   -6.5945    6.5427    9.4638 N   0  0  0  0  0  0  0  0  0  0  0  0
 24 23  1  0  0  0
 25 23  2  0  0  0
 25 19  1  0  0  0
 23 22  1  0  0  0
 16 15  1  0  0  0
 16 18  1  0  0  0
 15  1  1  0  0  0
 19 18  1  0  0  0
 19 20  1  0  0  0
 22 20  2  0  0  0
 18 17  2  0  0  0
  1  3  1  0  0  0
 20 21  1  0  0  0
  3  6  2  0  0  0
  3  4  1  0  0  0
  6  7  1  0  0  0
  4  5  2  0  0  0
  7  8  2  0  0  0
  5  8  1  0  0  0
  8  9  1  0  0  0
 12  9  1  0  0  0
 10  9  2  0  0  0
  9 11  2  0  0  0
  1  2  1  0  0  0
 12 13  1  0  0  0
 12 14  1  0  0  0
M  END
> <minimizedAffinity>
-6.77140

$$$$
4Q6E_KR5_A_305


 25 26  0  0  0  0  0  0  0  0999 V2000
   -4.1294    5.6903   14.0938 N   0  0  0  0  0  0  0  0  0  0  0  0
   -3.6119    6.3671   14.5871 H   0  0  0  0  0  0  0  0  0  0  0  0
   -4.6364    4.5632   14.7579 C   0  0  0  0  0  0  0  0  0  0  0  0
   -5.9711    4.4421   15.0550 C   0  0  0  0  0  0  0  0  0  0  0  0
   -6.4440    3.2913   15.7278 C   0  0  0  0  0  0  0  0  0  0  0  0
   -3.7217    3.5590   15.0984 C   0  0  0  0  0  0  0  0  0  0  0  0
   -4.1895    2.4331   15.7611 C   0  0  0  0  0  0  0  0  0  0  0  0
   -5.5389    2.2854   16.0903 C   0  0  0  0  0  0  0  0  0  0  0  0
   -6.1154    0.8652   16.9439 S   0  0  0  0  0  0  0  0  0  0  0  0
   -5.4638   -0.2262   16.3561 O   0  0  0  0  0  0  0  0  0  0  0  0
   -7.5692    0.9154   16.8682 O   0  0  0  0  0  0  0  0  0  0  0  0
   -5.6488    0.9981   18.4863 N   0  0  0  0  0  0  0  0  0  0  0  0
   -4.6307    0.9628   18.5378 H   0  0  0  0  0  0  0  0  0  0  0  0
   -6.0435    0.2295   19.0283 H   0  0  0  0  0  0  0  0  0  0  0  0
   -4.3814    5.8525   12.6385 C   0  0  0  0  0  0  0  0  0  0  0  0
   -3.1259    5.7420   11.8392 C   0  0  0  0  0  0  0  0  0  0  0  0
   -2.9141    7.5643   10.2403 O   0  0  0  0  0  0  0  0  0  0  0  0
   -2.7633    7.0571   11.3299 C   0  0  0  0  0  0  0  0  0  0  0  0
   -2.3745    8.0194   12.2969 N   0  0  0  0  0  0  0  0  0  0  0  0
   -2.3371    9.4520   12.0342 C   0  0  0  0  0  0  0  0  0  0  0  0
   -2.9119   10.0014   10.7649 C   0  0  0  0  0  0  0  0  0  0  0  0
   -1.8923   10.1342   13.1957 C   0  0  0  0  0  0  0  0  0  0  0  0
   -1.5669    9.0909   14.1161 C   0  0  0  0  0  0  0  0  0  0  0  0
   -0.9878    9.2278   15.4727 C   0  0  0  0  0  0  0  0  0  0  0  0
   -1.8390    7.8573   13.5648 N   0  0  0  0  0  0  0  0  0  0  0  0
 24 23  1  0  0  0
 25 23  2  0  0  0
 25 19  1  0  0  0
 23 22  1  0  0  0
 16 15  1  0  0  0
 16 18  1  0  0  0
 15  1  1  0  0  0
 19 18  1  0  0  0
 19 20  1  0  0  0
 22 20  2  0  0  0
 18 17  2  0  0  0
  1  3  1  0  0  0
 20 21  1  0  0  0
  3  6  2  0  0  0
  3  4  1  0  0  0
  6  7  1  0  0  0
  4  5  2  0  0  0
  7  8  2  0  0  0
  5  8  1  0  0  0
  8  9  1  0  0  0
 12  9  1  0  0  0
 10  9  2  0  0  0
  9 11  2  0  0  0
  1  2  1  0  0  0
 12 13  1  0  0  0
 12 14  1  0  0  0
M  END
> <minimizedAffinity>
-6.75482

$$$$
4Q6E_KR5_A_305


 25 26  0  0  0  0  0  0  0  0999 V2000
   -4.1527    5.5355   13.8295 N   0  0  0  0  0  0  0  0  0  0  0  0
   -4.5117    5.6281   12.9175 H   0  0  0  0  0  0  0  0  0  0  0  0
   -4.6057    4.5061   14.6682 C   0  0  0  0  0  0  0  0  0  0  0  0
   -3.7840    3.4756   15.0520 C   0  0  0  0  0  0  0  0  0  0  0  0
   -4.2782    2.4545   15.8969 C   0  0  0  0  0  0  0  0  0  0  0  0
   -5.9338    4.5788   15.1062 C   0  0  0  0  0  0  0  0  0  0  0  0
   -6.4153    3.5733   15.9326 C   0  0  0  0  0  0  0  0  0  0  0  0
   -5.6095    2.5039   16.3301 C   0  0  0  0  0  0  0  0  0  0  0  0
   -6.2349    1.2294   17.3608 S   0  0  0  0  0  0  0  0  0  0  0  0
   -5.2822    0.2036   17.3230 O   0  0  0  0  0  0  0  0  0  0  0  0
   -7.5742    0.9373   16.8683 O   0  0  0  0  0  0  0  0  0  0  0  0
   -6.3273    1.8170   18.8644 N   0  0  0  0  0  0  0  0  0  0  0  0
   -5.3888    2.0211   19.2079 H   0  0  0  0  0  0  0  0  0  0  0  0
   -6.7694    1.1275   19.4723 H   0  0  0  0  0  0  0  0  0  0  0  0
   -3.1256    6.4846   14.3314 C   0  0  0  0  0  0  0  0  0  0  0  0
   -2.3144    7.0668   13.2222 C   0  0  0  0  0  0  0  0  0  0  0  0
   -2.0935    5.3498   11.5118 O   0  0  0  0  0  0  0  0  0  0  0  0
   -2.5954    6.3431   11.9903 C   0  0  0  0  0  0  0  0  0  0  0  0
   -3.7982    6.6861   11.3211 N   0  0  0  0  0  0  0  0  0  0  0  0
   -4.4226    5.8440   10.3094 C   0  0  0  0  0  0  0  0  0  0  0  0
   -3.9184    4.4542   10.0687 C   0  0  0  0  0  0  0  0  0  0  0  0
   -5.5968    6.4768    9.8264 C   0  0  0  0  0  0  0  0  0  0  0  0
   -5.6099    7.7461   10.4822 C   0  0  0  0  0  0  0  0  0  0  0  0
   -6.5806    8.8502   10.2992 C   0  0  0  0  0  0  0  0  0  0  0  0
   -4.5376    7.8580   11.3409 N   0  0  0  0  0  0  0  0  0  0  0  0
 24 23  1  0  0  0
 25 23  2  0  0  0
 25 19  1  0  0  0
 23 22  1  0  0  0
 16 15  1  0  0  0
 16 18  1  0  0  0
 15  1  1  0  0  0
 19 18  1  0  0  0
 19 20  1  0  0  0
 22 20  2  0  0  0
 18 17  2  0  0  0
  1  3  1  0  0  0
 20 21  1  0  0  0
  3  6  2  0  0  0
  3  4  1  0  0  0
  6  7  1  0  0  0
  4  5  2  0  0  0
  7  8  2  0  0  0
  5  8  1  0  0  0
  8  9  1  0  0  0
 12  9  1  0  0  0
 10  9  2  0  0  0
  9 11  2  0  0  0
  1  2  1  0  0  0
 12 13  1  0  0  0
 12 14  1  0  0  0
M  END
> <minimizedAffinity>
-6.60346

$$$$
