5JHB_6K5_A_1201


 34 37  0  0  0  0  0  0  0  0999 V2000
   22.7271   -4.3413   20.4587 C   0  0  0  0  0  0  0  0  0  0  0  0
   21.8212   -5.0687   21.2179 N   0  0  0  0  0  0  0  0  0  0  0  0
   22.4725   -3.0482   20.0257 N   0  0  0  0  0  0  0  0  0  0  0  0
   21.2358   -2.4674   20.3795 C   0  0  0  0  0  0  0  0  0  0  0  0
   20.3105   -3.1668   21.1357 N   0  0  0  0  0  0  0  0  0  0  0  0
   20.6290   -4.4582   21.5373 C   0  0  0  0  0  0  0  0  0  0  0  0
   24.5747   -5.4222   18.8237 C   0  0  0  0  0  0  0  0  0  0  0  0
   25.8191   -6.0587   18.5770 C   0  0  0  0  0  0  0  0  0  0  0  0
   26.6706   -6.3807   19.6655 C   0  0  0  0  0  0  0  0  0  0  0  0
   27.9014   -7.0059   19.5019 N   0  0  0  0  0  0  0  0  0  0  0  0
   26.2327   -6.0459   20.9351 N   0  0  0  0  0  0  0  0  0  0  0  0
   25.0323   -5.4357   21.0858 C   0  0  0  0  0  0  0  0  0  0  0  0
   24.0907   -5.0525   20.1039 C   0  0  0  0  0  0  0  0  0  0  0  0
   28.2159   -7.2453   18.6002 H   0  0  0  0  0  0  0  0  0  0  0  0
   28.4586   -7.2092   20.2877 H   0  0  0  0  0  0  0  0  0  0  0  0
   23.7995   -3.8387   17.1593 F   0  0  0  0  0  0  0  0  0  0  0  0
   23.7349   -5.1118   17.5893 C   0  0  0  0  0  0  0  0  0  0  0  0
   24.0756   -5.8569   16.5290 F   0  0  0  0  0  0  0  0  0  0  0  0
   22.4011   -5.3224   17.7218 F   0  0  0  0  0  0  0  0  0  0  0  0
   19.5603   -5.1038   22.3525 N   0  0  0  0  0  0  0  0  0  0  0  0
   19.8414   -6.3597   23.1316 C   0  0  0  0  0  0  0  0  0  0  0  0
   18.6877   -6.6920   24.1270 C   0  0  0  0  0  0  0  0  0  0  0  0
   17.4304   -6.7204   23.5206 O   0  0  0  0  0  0  0  0  0  0  0  0
   17.1148   -5.5391   22.8416 C   0  0  0  0  0  0  0  0  0  0  0  0
   18.1802   -5.2040   21.7636 C   0  0  0  0  0  0  0  0  0  0  0  0
   20.8538   -1.1144   19.9796 N   0  0  0  0  0  0  0  0  0  0  0  0
   21.6231    0.1066   19.5033 C   0  0  0  0  0  0  0  0  0  0  0  0
   19.6349   -0.2704   20.1726 C   0  0  0  0  0  0  0  0  0  0  0  0
   20.3552    1.0422   19.6350 C   0  0  0  0  0  0  0  0  0  0  0  0
   19.7378    1.5618   18.2960 C   0  0  0  0  0  0  0  0  0  0  0  0
   20.6805    2.3593   17.6269 O   0  0  0  0  0  0  0  0  0  0  0  0
   20.9220    3.1134   18.1873 H   0  0  0  0  0  0  0  0  0  0  0  0
   20.3701    2.1777   20.6821 C   0  0  0  0  0  0  0  0  0  0  0  0
   18.7771    3.1727   20.8320 Cl  0  0  0  0  0  0  0  0  0  0  0  0
 16 17  1  0  0  0
 18 17  1  0  0  0
 19 17  1  0  0  0
 17  7  1  0  0  0
 28 29  1  0  0  0
 28 26  1  0  0  0
 30 29  1  0  0  0
 30 31  1  0  0  0
  8  7  2  0  0  0
  8  9  1  0  0  0
 33 29  1  0  0  0
 33 34  1  0  0  0
  7 13  1  0  0  0
 29 27  1  0  0  0
 10  9  1  0  0  0
  9 11  2  0  0  0
 26  4  1  0  0  0
 26 27  1  0  0  0
  3  4  2  0  0  0
  3  1  1  0  0  0
 13  1  1  0  0  0
 13 12  2  0  0  0
  4  5  1  0  0  0
  1  2  2  0  0  0
 11 12  1  0  0  0
  5  6  2  0  0  0
  2  6  1  0  0  0
  6 20  1  0  0  0
 25 20  1  0  0  0
 25 24  1  0  0  0
 20 21  1  0  0  0
 21 22  1  0  0  0
 24 23  1  0  0  0
 23 22  1  0  0  0
 10 14  1  0  0  0
 10 15  1  0  0  0
 31 32  1  0  0  0
M  END
> <minimizedAffinity>
-9.30523

$$$$
5JHB_6K5_A_1201


 34 37  0  0  0  0  0  0  0  0999 V2000
   20.8880   -2.4310   19.9855 C   0  0  0  0  0  0  0  0  0  0  0  0
   19.9606   -2.9800   20.8600 N   0  0  0  0  0  0  0  0  0  0  0  0
   22.0672   -3.0765   19.6428 N   0  0  0  0  0  0  0  0  0  0  0  0
   22.3167   -4.3404   20.2193 C   0  0  0  0  0  0  0  0  0  0  0  0
   21.4118   -4.9153   21.0955 N   0  0  0  0  0  0  0  0  0  0  0  0
   20.2499   -4.2151   21.3958 C   0  0  0  0  0  0  0  0  0  0  0  0
   21.0363    0.2502   19.7750 C   0  0  0  0  0  0  0  0  0  0  0  0
   20.6821    1.4873   19.1762 C   0  0  0  0  0  0  0  0  0  0  0  0
   19.7551    1.5071   18.1021 C   0  0  0  0  0  0  0  0  0  0  0  0
   19.3587    2.6793   17.4684 N   0  0  0  0  0  0  0  0  0  0  0  0
   19.2387    0.2921   17.6863 N   0  0  0  0  0  0  0  0  0  0  0  0
   19.6311   -0.8459   18.3085 C   0  0  0  0  0  0  0  0  0  0  0  0
   20.5411   -1.0169   19.3763 C   0  0  0  0  0  0  0  0  0  0  0  0
   19.7240    3.5451   17.7617 H   0  0  0  0  0  0  0  0  0  0  0  0
   18.7126    2.6434   16.7265 H   0  0  0  0  0  0  0  0  0  0  0  0
   23.2719   -0.1363   20.6302 F   0  0  0  0  0  0  0  0  0  0  0  0
   22.0440    0.3329   20.9165 C   0  0  0  0  0  0  0  0  0  0  0  0
   22.2401    1.5871   21.3458 F   0  0  0  0  0  0  0  0  0  0  0  0
   21.7106   -0.3491   22.0410 F   0  0  0  0  0  0  0  0  0  0  0  0
   19.3515   -4.9388   22.3406 N   0  0  0  0  0  0  0  0  0  0  0  0
   19.7595   -6.2630   22.9267 C   0  0  0  0  0  0  0  0  0  0  0  0
   18.8182   -6.6923   24.0937 C   0  0  0  0  0  0  0  0  0  0  0  0
   17.4661   -6.6658   23.7466 O   0  0  0  0  0  0  0  0  0  0  0  0
   17.0427   -5.4257   23.2579 C   0  0  0  0  0  0  0  0  0  0  0  0
   17.8813   -4.9857   22.0280 C   0  0  0  0  0  0  0  0  0  0  0  0
   23.5242   -5.1143   19.9370 N   0  0  0  0  0  0  0  0  0  0  0  0
   23.8585   -6.5968   19.9456 C   0  0  0  0  0  0  0  0  0  0  0  0
   24.9802   -4.7871   19.8462 C   0  0  0  0  0  0  0  0  0  0  0  0
   25.4079   -6.3185   19.7961 C   0  0  0  0  0  0  0  0  0  0  0  0
   26.0530   -6.7187   18.4295 C   0  0  0  0  0  0  0  0  0  0  0  0
   27.4020   -7.0531   18.6313 O   0  0  0  0  0  0  0  0  0  0  0  0
   27.8725   -6.2897   19.0013 H   0  0  0  0  0  0  0  0  0  0  0  0
   26.3518   -6.7055   20.9560 C   0  0  0  0  0  0  0  0  0  0  0  0
   26.0878   -8.4217   21.6873 Cl  0  0  0  0  0  0  0  0  0  0  0  0
 16 17  1  0  0  0
 18 17  1  0  0  0
 19 17  1  0  0  0
 17  7  1  0  0  0
 28 29  1  0  0  0
 28 26  1  0  0  0
 30 29  1  0  0  0
 30 31  1  0  0  0
  8  7  2  0  0  0
  8  9  1  0  0  0
 33 29  1  0  0  0
 33 34  1  0  0  0
  7 13  1  0  0  0
 29 27  1  0  0  0
 10  9  1  0  0  0
  9 11  2  0  0  0
 26  4  1  0  0  0
 26 27  1  0  0  0
  3  4  2  0  0  0
  3  1  1  0  0  0
 13  1  1  0  0  0
 13 12  2  0  0  0
  4  5  1  0  0  0
  1  2  2  0  0  0
 11 12  1  0  0  0
  5  6  2  0  0  0
  2  6  1  0  0  0
  6 20  1  0  0  0
 25 20  1  0  0  0
 25 24  1  0  0  0
 20 21  1  0  0  0
 21 22  1  0  0  0
 24 23  1  0  0  0
 23 22  1  0  0  0
 10 14  1  0  0  0
 10 15  1  0  0  0
 31 32  1  0  0  0
M  END
> <minimizedAffinity>
-8.80890

$$$$
5JHB_6K5_A_1201


 34 37  0  0  0  0  0  0  0  0999 V2000
   23.9644   -4.0536   19.9962 C   0  0  0  0  0  0  0  0  0  0  0  0
   24.7771   -3.1466   19.3305 N   0  0  0  0  0  0  0  0  0  0  0  0
   22.6108   -3.8326   20.2052 N   0  0  0  0  0  0  0  0  0  0  0  0
   22.0574   -2.6300   19.7159 C   0  0  0  0  0  0  0  0  0  0  0  0
   22.8413   -1.7046   19.0479 N   0  0  0  0  0  0  0  0  0  0  0  0
   24.1900   -1.9884   18.8721 C   0  0  0  0  0  0  0  0  0  0  0  0
   25.2999   -6.3793   19.7472 C   0  0  0  0  0  0  0  0  0  0  0  0
   25.9016   -7.5488   20.2810 C   0  0  0  0  0  0  0  0  0  0  0  0
   25.8627   -7.7818   21.6802 C   0  0  0  0  0  0  0  0  0  0  0  0
   26.4273   -8.9045   22.2745 N   0  0  0  0  0  0  0  0  0  0  0  0
   25.2293   -6.8335   22.4647 N   0  0  0  0  0  0  0  0  0  0  0  0
   24.6826   -5.7415   21.8776 C   0  0  0  0  0  0  0  0  0  0  0  0
   24.6503   -5.3780   20.5121 C   0  0  0  0  0  0  0  0  0  0  0  0
   26.8786   -9.5809   21.7195 H   0  0  0  0  0  0  0  0  0  0  0  0
   26.3759   -9.0232   23.2505 H   0  0  0  0  0  0  0  0  0  0  0  0
   26.0525   -5.1146   17.8202 F   0  0  0  0  0  0  0  0  0  0  0  0
   25.4003   -6.2160   18.2343 C   0  0  0  0  0  0  0  0  0  0  0  0
   26.0313   -7.2394   17.6427 F   0  0  0  0  0  0  0  0  0  0  0  0
   24.2170   -6.1367   17.5753 F   0  0  0  0  0  0  0  0  0  0  0  0
   24.9261   -0.9237   18.1318 N   0  0  0  0  0  0  0  0  0  0  0  0
   26.3302   -1.1573   17.6446 C   0  0  0  0  0  0  0  0  0  0  0  0
   26.7924   -0.0406   16.6590 C   0  0  0  0  0  0  0  0  0  0  0  0
   26.6210    1.2477   17.1693 O   0  0  0  0  0  0  0  0  0  0  0  0
   25.3085    1.5153   17.5714 C   0  0  0  0  0  0  0  0  0  0  0  0
   24.8212    0.4909   18.6310 C   0  0  0  0  0  0  0  0  0  0  0  0
   20.6462   -2.2850   19.8778 N   0  0  0  0  0  0  0  0  0  0  0  0
   19.3415   -3.0365   19.6718 C   0  0  0  0  0  0  0  0  0  0  0  0
   19.8884   -1.0011   19.9896 C   0  0  0  0  0  0  0  0  0  0  0  0
   18.4786   -1.7214   19.8340 C   0  0  0  0  0  0  0  0  0  0  0  0
   17.6063   -1.6225   21.1276 C   0  0  0  0  0  0  0  0  0  0  0  0
   16.2520   -1.7762   20.7893 O   0  0  0  0  0  0  0  0  0  0  0  0
   15.9925   -1.0775   20.1685 H   0  0  0  0  0  0  0  0  0  0  0  0
   17.6794   -1.1976   18.6203 C   0  0  0  0  0  0  0  0  0  0  0  0
   17.1681    0.6141   18.6981 Cl  0  0  0  0  0  0  0  0  0  0  0  0
 16 17  1  0  0  0
 18 17  1  0  0  0
 19 17  1  0  0  0
 17  7  1  0  0  0
 28 29  1  0  0  0
 28 26  1  0  0  0
 30 29  1  0  0  0
 30 31  1  0  0  0
  8  7  2  0  0  0
  8  9  1  0  0  0
 33 29  1  0  0  0
 33 34  1  0  0  0
  7 13  1  0  0  0
 29 27  1  0  0  0
 10  9  1  0  0  0
  9 11  2  0  0  0
 26  4  1  0  0  0
 26 27  1  0  0  0
  3  4  2  0  0  0
  3  1  1  0  0  0
 13  1  1  0  0  0
 13 12  2  0  0  0
  4  5  1  0  0  0
  1  2  2  0  0  0
 11 12  1  0  0  0
  5  6  2  0  0  0
  2  6  1  0  0  0
  6 20  1  0  0  0
 25 20  1  0  0  0
 25 24  1  0  0  0
 20 21  1  0  0  0
 21 22  1  0  0  0
 24 23  1  0  0  0
 23 22  1  0  0  0
 10 14  1  0  0  0
 10 15  1  0  0  0
 31 32  1  0  0  0
M  END
> <minimizedAffinity>
-8.69130

$$$$
5JHB_6K5_A_1201


 34 37  0  0  0  0  0  0  0  0999 V2000
   21.3845   -2.9436   19.8919 C   0  0  0  0  0  0  0  0  0  0  0  0
   21.2283   -3.9546   20.8298 N   0  0  0  0  0  0  0  0  0  0  0  0
   20.3316   -2.1452   19.4697 N   0  0  0  0  0  0  0  0  0  0  0  0
   19.0575   -2.3881   20.0261 C   0  0  0  0  0  0  0  0  0  0  0  0
   18.8684   -3.3894   20.9637 N   0  0  0  0  0  0  0  0  0  0  0  0
   19.9659   -4.1523   21.3431 C   0  0  0  0  0  0  0  0  0  0  0  0
   23.5504   -3.5535   18.4116 C   0  0  0  0  0  0  0  0  0  0  0  0
   24.8599   -3.2930   17.9298 C   0  0  0  0  0  0  0  0  0  0  0  0
   25.5520   -2.1350   18.3696 C   0  0  0  0  0  0  0  0  0  0  0  0
   26.8363   -1.8158   17.9438 N   0  0  0  0  0  0  0  0  0  0  0  0
   24.8964   -1.3034   19.2610 N   0  0  0  0  0  0  0  0  0  0  0  0
   23.6443   -1.6212   19.6701 C   0  0  0  0  0  0  0  0  0  0  0  0
   22.8377   -2.7263   19.3157 C   0  0  0  0  0  0  0  0  0  0  0  0
   27.3054   -2.4051   17.3099 H   0  0  0  0  0  0  0  0  0  0  0  0
   27.2766   -1.0005   18.2763 H   0  0  0  0  0  0  0  0  0  0  0  0
   22.6672   -5.7796   18.7902 F   0  0  0  0  0  0  0  0  0  0  0  0
   22.8883   -4.8183   17.8754 C   0  0  0  0  0  0  0  0  0  0  0  0
   21.6920   -4.5821   17.3198 F   0  0  0  0  0  0  0  0  0  0  0  0
   23.5760   -5.4716   16.9053 F   0  0  0  0  0  0  0  0  0  0  0  0
   19.6398   -5.1898   22.3633 N   0  0  0  0  0  0  0  0  0  0  0  0
   20.4104   -6.4807   22.4197 C   0  0  0  0  0  0  0  0  0  0  0  0
   20.1039   -7.2794   23.7236 C   0  0  0  0  0  0  0  0  0  0  0  0
   18.7383   -7.4728   23.9409 O   0  0  0  0  0  0  0  0  0  0  0  0
   18.0048   -6.2822   23.9578 C   0  0  0  0  0  0  0  0  0  0  0  0
   18.1912   -5.4838   22.6397 C   0  0  0  0  0  0  0  0  0  0  0  0
   17.8728   -1.6152   19.6579 N   0  0  0  0  0  0  0  0  0  0  0  0
   16.4411   -1.5644   20.1652 C   0  0  0  0  0  0  0  0  0  0  0  0
   17.4758   -0.8146   18.4593 C   0  0  0  0  0  0  0  0  0  0  0  0
   15.9690   -0.6710   18.9489 C   0  0  0  0  0  0  0  0  0  0  0  0
   15.5838    0.8063   19.2853 C   0  0  0  0  0  0  0  0  0  0  0  0
   14.5511    1.2247   18.4305 O   0  0  0  0  0  0  0  0  0  0  0  0
   14.8510    1.1690   17.5097 H   0  0  0  0  0  0  0  0  0  0  0  0
   14.9614   -1.2591   17.9367 C   0  0  0  0  0  0  0  0  0  0  0  0
   13.3709   -1.9501   18.6735 Cl  0  0  0  0  0  0  0  0  0  0  0  0
 16 17  1  0  0  0
 18 17  1  0  0  0
 19 17  1  0  0  0
 17  7  1  0  0  0
 28 29  1  0  0  0
 28 26  1  0  0  0
 30 29  1  0  0  0
 30 31  1  0  0  0
  8  7  2  0  0  0
  8  9  1  0  0  0
 33 29  1  0  0  0
 33 34  1  0  0  0
  7 13  1  0  0  0
 29 27  1  0  0  0
 10  9  1  0  0  0
  9 11  2  0  0  0
 26  4  1  0  0  0
 26 27  1  0  0  0
  3  4  2  0  0  0
  3  1  1  0  0  0
 13  1  1  0  0  0
 13 12  2  0  0  0
  4  5  1  0  0  0
  1  2  2  0  0  0
 11 12  1  0  0  0
  5  6  2  0  0  0
  2  6  1  0  0  0
  6 20  1  0  0  0
 25 20  1  0  0  0
 25 24  1  0  0  0
 20 21  1  0  0  0
 21 22  1  0  0  0
 24 23  1  0  0  0
 23 22  1  0  0  0
 10 14  1  0  0  0
 10 15  1  0  0  0
 31 32  1  0  0  0
M  END
> <minimizedAffinity>
-8.57636

$$$$
5JHB_6K5_A_1201


 34 37  0  0  0  0  0  0  0  0999 V2000
   24.0254   -3.8884   20.2543 C   0  0  0  0  0  0  0  0  0  0  0  0
   22.6381   -3.8493   20.2481 N   0  0  0  0  0  0  0  0  0  0  0  0
   24.8066   -2.7826   19.9519 N   0  0  0  0  0  0  0  0  0  0  0  0
   24.1453   -1.5794   19.6248 C   0  0  0  0  0  0  0  0  0  0  0  0
   22.7626   -1.5077   19.6094 N   0  0  0  0  0  0  0  0  0  0  0  0
   22.0401   -2.6524   19.9227 C   0  0  0  0  0  0  0  0  0  0  0  0
   25.3986   -6.1571   19.7831 C   0  0  0  0  0  0  0  0  0  0  0  0
   25.9829   -7.3834   20.1947 C   0  0  0  0  0  0  0  0  0  0  0  0
   25.8694   -7.7956   21.5477 C   0  0  0  0  0  0  0  0  0  0  0  0
   26.4128   -8.9835   22.0232 N   0  0  0  0  0  0  0  0  0  0  0  0
   25.1830   -6.9592   22.4110 N   0  0  0  0  0  0  0  0  0  0  0  0
   24.6574   -5.8026   21.9398 C   0  0  0  0  0  0  0  0  0  0  0  0
   24.6966   -5.2657   20.6330 C   0  0  0  0  0  0  0  0  0  0  0  0
   26.9016   -9.5806   21.4118 H   0  0  0  0  0  0  0  0  0  0  0  0
   26.3088   -9.2276   22.9712 H   0  0  0  0  0  0  0  0  0  0  0  0
   26.2024   -4.6286   18.0811 F   0  0  0  0  0  0  0  0  0  0  0  0
   25.5806   -5.7991   18.3119 C   0  0  0  0  0  0  0  0  0  0  0  0
   26.2942   -6.7128   17.6400 F   0  0  0  0  0  0  0  0  0  0  0  0
   24.4361   -5.6845   17.5925 F   0  0  0  0  0  0  0  0  0  0  0  0
   20.5634   -2.4485   19.8819 N   0  0  0  0  0  0  0  0  0  0  0  0
   19.9708   -1.2644   19.1677 C   0  0  0  0  0  0  0  0  0  0  0  0
   18.4264   -1.4038   19.0023 C   0  0  0  0  0  0  0  0  0  0  0  0
   17.7679   -1.6765   20.2030 O   0  0  0  0  0  0  0  0  0  0  0  0
   18.2561   -2.8115   20.8583 C   0  0  0  0  0  0  0  0  0  0  0  0
   19.7777   -2.6913   21.1409 C   0  0  0  0  0  0  0  0  0  0  0  0
   24.8602   -0.3504   19.2860 N   0  0  0  0  0  0  0  0  0  0  0  0
   25.4866    0.1942   18.0130 C   0  0  0  0  0  0  0  0  0  0  0  0
   25.5508    0.7119   20.0796 C   0  0  0  0  0  0  0  0  0  0  0  0
   26.2015    1.3731   18.7872 C   0  0  0  0  0  0  0  0  0  0  0  0
   25.6579    2.8123   18.5091 C   0  0  0  0  0  0  0  0  0  0  0  0
   26.7351    3.6750   18.2493 O   0  0  0  0  0  0  0  0  0  0  0  0
   27.3266    3.6943   19.0178 H   0  0  0  0  0  0  0  0  0  0  0  0
   27.7447    1.3977   18.8508 C   0  0  0  0  0  0  0  0  0  0  0  0
   28.6362    0.9491   17.2528 Cl  0  0  0  0  0  0  0  0  0  0  0  0
 16 17  1  0  0  0
 18 17  1  0  0  0
 19 17  1  0  0  0
 17  7  1  0  0  0
 28 29  1  0  0  0
 28 26  1  0  0  0
 30 29  1  0  0  0
 30 31  1  0  0  0
  8  7  2  0  0  0
  8  9  1  0  0  0
 33 29  1  0  0  0
 33 34  1  0  0  0
  7 13  1  0  0  0
 29 27  1  0  0  0
 10  9  1  0  0  0
  9 11  2  0  0  0
 26  4  1  0  0  0
 26 27  1  0  0  0
  3  4  2  0  0  0
  3  1  1  0  0  0
 13  1  1  0  0  0
 13 12  2  0  0  0
  4  5  1  0  0  0
  1  2  2  0  0  0
 11 12  1  0  0  0
  5  6  2  0  0  0
  2  6  1  0  0  0
  6 20  1  0  0  0
 25 20  1  0  0  0
 25 24  1  0  0  0
 20 21  1  0  0  0
 21 22  1  0  0  0
 24 23  1  0  0  0
 23 22  1  0  0  0
 10 14  1  0  0  0
 10 15  1  0  0  0
 31 32  1  0  0  0
M  END
> <minimizedAffinity>
-8.55842

$$$$
5JHB_6K5_A_1201


 34 37  0  0  0  0  0  0  0  0999 V2000
   21.3754   -2.2651   20.6760 C   0  0  0  0  0  0  0  0  0  0  0  0
   20.3349   -2.9493   21.2888 N   0  0  0  0  0  0  0  0  0  0  0  0
   22.5078   -2.9032   20.1912 N   0  0  0  0  0  0  0  0  0  0  0  0
   22.5873   -4.3045   20.3388 C   0  0  0  0  0  0  0  0  0  0  0  0
   21.5664   -5.0163   20.9458 N   0  0  0  0  0  0  0  0  0  0  0  0
   20.4597   -4.3154   21.4089 C   0  0  0  0  0  0  0  0  0  0  0  0
   20.4304    0.0197   19.6077 C   0  0  0  0  0  0  0  0  0  0  0  0
   20.3309    1.4344   19.5474 C   0  0  0  0  0  0  0  0  0  0  0  0
   21.0670    2.2293   20.4637 C   0  0  0  0  0  0  0  0  0  0  0  0
   21.0220    3.6187   20.4636 N   0  0  0  0  0  0  0  0  0  0  0  0
   21.8560    1.5669   21.3882 N   0  0  0  0  0  0  0  0  0  0  0  0
   21.8933    0.2124   21.3823 C   0  0  0  0  0  0  0  0  0  0  0  0
   21.2165   -0.7006   20.5420 C   0  0  0  0  0  0  0  0  0  0  0  0
   20.4619    4.0930   19.8075 H   0  0  0  0  0  0  0  0  0  0  0  0
   21.5503    4.1284   21.1197 H   0  0  0  0  0  0  0  0  0  0  0  0
   20.2592   -1.6989   17.9061 F   0  0  0  0  0  0  0  0  0  0  0  0
   19.5966   -0.7456   18.5857 C   0  0  0  0  0  0  0  0  0  0  0  0
   18.5485   -1.3731   19.1365 F   0  0  0  0  0  0  0  0  0  0  0  0
   19.0461    0.0063   17.5997 F   0  0  0  0  0  0  0  0  0  0  0  0
   19.4254   -5.1897   22.0329 N   0  0  0  0  0  0  0  0  0  0  0  0
   17.9971   -4.7306   22.1447 C   0  0  0  0  0  0  0  0  0  0  0  0
   17.0463   -5.8967   22.5547 C   0  0  0  0  0  0  0  0  0  0  0  0
   17.4711   -6.5751   23.6988 O   0  0  0  0  0  0  0  0  0  0  0  0
   18.7753   -7.0699   23.5985 C   0  0  0  0  0  0  0  0  0  0  0  0
   19.7885   -5.9359   23.2869 C   0  0  0  0  0  0  0  0  0  0  0  0
   23.7305   -5.0859   19.8709 N   0  0  0  0  0  0  0  0  0  0  0  0
   23.9719   -6.5655   19.6220 C   0  0  0  0  0  0  0  0  0  0  0  0
   25.1986   -4.8277   19.7559 C   0  0  0  0  0  0  0  0  0  0  0  0
   25.5275   -6.3510   19.4363 C   0  0  0  0  0  0  0  0  0  0  0  0
   26.0855   -6.5556   17.9903 C   0  0  0  0  0  0  0  0  0  0  0  0
   27.2959   -7.2648   18.0540 O   0  0  0  0  0  0  0  0  0  0  0  0
   27.9371   -6.7634   18.5816 H   0  0  0  0  0  0  0  0  0  0  0  0
   26.4958   -6.9739   20.4660 C   0  0  0  0  0  0  0  0  0  0  0  0
   25.6886   -7.9444   21.8647 Cl  0  0  0  0  0  0  0  0  0  0  0  0
 16 17  1  0  0  0
 18 17  1  0  0  0
 19 17  1  0  0  0
 17  7  1  0  0  0
 28 29  1  0  0  0
 28 26  1  0  0  0
 30 29  1  0  0  0
 30 31  1  0  0  0
  8  7  2  0  0  0
  8  9  1  0  0  0
 33 29  1  0  0  0
 33 34  1  0  0  0
  7 13  1  0  0  0
 29 27  1  0  0  0
 10  9  1  0  0  0
  9 11  2  0  0  0
 26  4  1  0  0  0
 26 27  1  0  0  0
  3  4  2  0  0  0
  3  1  1  0  0  0
 13  1  1  0  0  0
 13 12  2  0  0  0
  4  5  1  0  0  0
  1  2  2  0  0  0
 11 12  1  0  0  0
  5  6  2  0  0  0
  2  6  1  0  0  0
  6 20  1  0  0  0
 25 20  1  0  0  0
 25 24  1  0  0  0
 20 21  1  0  0  0
 21 22  1  0  0  0
 24 23  1  0  0  0
 23 22  1  0  0  0
 10 14  1  0  0  0
 10 15  1  0  0  0
 31 32  1  0  0  0
M  END
> <minimizedAffinity>
-8.51023

$$$$
5JHB_6K5_A_1201


 34 37  0  0  0  0  0  0  0  0999 V2000
   23.5554   -2.9744   19.6442 C   0  0  0  0  0  0  0  0  0  0  0  0
   24.3499   -1.8603   19.4123 N   0  0  0  0  0  0  0  0  0  0  0  0
   22.1699   -2.9122   19.6758 N   0  0  0  0  0  0  0  0  0  0  0  0
   21.5628   -1.6558   19.4639 C   0  0  0  0  0  0  0  0  0  0  0  0
   22.3273   -0.5252   19.2302 N   0  0  0  0  0  0  0  0  0  0  0  0
   23.7102   -0.6576   19.2112 C   0  0  0  0  0  0  0  0  0  0  0  0
   24.4952   -5.3977   18.9376 C   0  0  0  0  0  0  0  0  0  0  0  0
   25.1844   -6.6086   19.2086 C   0  0  0  0  0  0  0  0  0  0  0  0
   25.7270   -6.8332   20.5003 C   0  0  0  0  0  0  0  0  0  0  0  0
   26.4116   -7.9945   20.8401 N   0  0  0  0  0  0  0  0  0  0  0  0
   25.5534   -5.8360   21.4444 N   0  0  0  0  0  0  0  0  0  0  0  0
   24.8860   -4.7068   21.1047 C   0  0  0  0  0  0  0  0  0  0  0  0
   24.3023   -4.3464   19.8690 C   0  0  0  0  0  0  0  0  0  0  0  0
   26.5368   -8.7057   20.1710 H   0  0  0  0  0  0  0  0  0  0  0  0
   26.7711   -8.1056   21.7498 H   0  0  0  0  0  0  0  0  0  0  0  0
   24.4843   -4.2344   16.8103 F   0  0  0  0  0  0  0  0  0  0  0  0
   23.9550   -5.2477   17.5195 C   0  0  0  0  0  0  0  0  0  0  0  0
   24.1541   -6.3406   16.7700 F   0  0  0  0  0  0  0  0  0  0  0  0
   22.6203   -5.0240   17.4231 F   0  0  0  0  0  0  0  0  0  0  0  0
   24.4226    0.6242   18.9410 N   0  0  0  0  0  0  0  0  0  0  0  0
   23.6574    1.9098   18.7825 C   0  0  0  0  0  0  0  0  0  0  0  0
   24.6029    3.1500   18.7984 C   0  0  0  0  0  0  0  0  0  0  0  0
   25.6558    3.0496   17.8870 O   0  0  0  0  0  0  0  0  0  0  0  0
   26.4249    1.8933   18.0527 C   0  0  0  0  0  0  0  0  0  0  0  0
   25.5526    0.6136   17.9488 C   0  0  0  0  0  0  0  0  0  0  0  0
   20.1137   -1.4650   19.4767 N   0  0  0  0  0  0  0  0  0  0  0  0
   19.2054   -0.2466   19.4687 C   0  0  0  0  0  0  0  0  0  0  0  0
   18.9464   -2.3320   19.8247 C   0  0  0  0  0  0  0  0  0  0  0  0
   17.9223   -1.1154   19.7832 C   0  0  0  0  0  0  0  0  0  0  0  0
   16.8772   -1.2477   18.6281 C   0  0  0  0  0  0  0  0  0  0  0  0
   15.9083   -0.2395   18.7587 O   0  0  0  0  0  0  0  0  0  0  0  0
   15.4601   -0.3307   19.6141 H   0  0  0  0  0  0  0  0  0  0  0  0
   17.1937   -0.9117   21.1299 C   0  0  0  0  0  0  0  0  0  0  0  0
   15.8711   -2.1877   21.5454 Cl  0  0  0  0  0  0  0  0  0  0  0  0
 16 17  1  0  0  0
 18 17  1  0  0  0
 19 17  1  0  0  0
 17  7  1  0  0  0
 28 29  1  0  0  0
 28 26  1  0  0  0
 30 29  1  0  0  0
 30 31  1  0  0  0
  8  7  2  0  0  0
  8  9  1  0  0  0
 33 29  1  0  0  0
 33 34  1  0  0  0
  7 13  1  0  0  0
 29 27  1  0  0  0
 10  9  1  0  0  0
  9 11  2  0  0  0
 26  4  1  0  0  0
 26 27  1  0  0  0
  3  4  2  0  0  0
  3  1  1  0  0  0
 13  1  1  0  0  0
 13 12  2  0  0  0
  4  5  1  0  0  0
  1  2  2  0  0  0
 11 12  1  0  0  0
  5  6  2  0  0  0
  2  6  1  0  0  0
  6 20  1  0  0  0
 25 20  1  0  0  0
 25 24  1  0  0  0
 20 21  1  0  0  0
 21 22  1  0  0  0
 24 23  1  0  0  0
 23 22  1  0  0  0
 10 14  1  0  0  0
 10 15  1  0  0  0
 31 32  1  0  0  0
M  END
> <minimizedAffinity>
-8.45388

$$$$
5JHB_6K5_A_1201


 34 37  0  0  0  0  0  0  0  0999 V2000
   23.6000   -2.8530   19.6146 C   0  0  0  0  0  0  0  0  0  0  0  0
   22.2177   -2.8574   19.7384 N   0  0  0  0  0  0  0  0  0  0  0  0
   24.3231   -1.7017   19.3382 N   0  0  0  0  0  0  0  0  0  0  0  0
   23.6056   -0.4970   19.1774 C   0  0  0  0  0  0  0  0  0  0  0  0
   22.2262   -0.4679   19.2944 N   0  0  0  0  0  0  0  0  0  0  0  0
   21.5636   -1.6569   19.5729 C   0  0  0  0  0  0  0  0  0  0  0  0
   24.5027   -5.2772   18.8641 C   0  0  0  0  0  0  0  0  0  0  0  0
   25.1835   -6.4982   19.1094 C   0  0  0  0  0  0  0  0  0  0  0  0
   25.7448   -6.7439   20.3892 C   0  0  0  0  0  0  0  0  0  0  0  0
   26.4226   -7.9160   20.7040 N   0  0  0  0  0  0  0  0  0  0  0  0
   25.5972   -5.7563   21.3478 N   0  0  0  0  0  0  0  0  0  0  0  0
   24.9362   -4.6162   21.0325 C   0  0  0  0  0  0  0  0  0  0  0  0
   24.3362   -4.2352   19.8108 C   0  0  0  0  0  0  0  0  0  0  0  0
   26.5294   -8.6205   20.0246 H   0  0  0  0  0  0  0  0  0  0  0  0
   26.7959   -8.0417   21.6063 H   0  0  0  0  0  0  0  0  0  0  0  0
   22.6157   -4.8821   17.3938 F   0  0  0  0  0  0  0  0  0  0  0  0
   23.9409   -5.1048   17.4569 C   0  0  0  0  0  0  0  0  0  0  0  0
   24.4995   -4.0811   16.7970 F   0  0  0  0  0  0  0  0  0  0  0  0
   24.1132   -6.1628   16.6252 F   0  0  0  0  0  0  0  0  0  0  0  0
   20.0852   -1.4971   19.6847 N   0  0  0  0  0  0  0  0  0  0  0  0
   19.2367   -2.5905   20.2746 C   0  0  0  0  0  0  0  0  0  0  0  0
   17.7830   -2.1030   20.5593 C   0  0  0  0  0  0  0  0  0  0  0  0
   17.1767   -1.5073   19.4516 O   0  0  0  0  0  0  0  0  0  0  0  0
   17.9137   -0.4440   18.9205 C   0  0  0  0  0  0  0  0  0  0  0  0
   19.3464   -0.8906   18.5239 C   0  0  0  0  0  0  0  0  0  0  0  0
   24.2563    0.7780   18.8814 N   0  0  0  0  0  0  0  0  0  0  0  0
   24.0164    2.2152   19.3131 C   0  0  0  0  0  0  0  0  0  0  0  0
   25.1890    1.2548   17.8147 C   0  0  0  0  0  0  0  0  0  0  0  0
   25.0319    2.7794   18.2405 C   0  0  0  0  0  0  0  0  0  0  0  0
   26.3593    3.3881   18.7989 C   0  0  0  0  0  0  0  0  0  0  0  0
   26.1958    4.7703   18.9854 O   0  0  0  0  0  0  0  0  0  0  0  0
   25.9789    5.1876   18.1370 H   0  0  0  0  0  0  0  0  0  0  0  0
   24.4927    3.6601   17.0918 C   0  0  0  0  0  0  0  0  0  0  0  0
   23.1285    4.8718   17.5615 Cl  0  0  0  0  0  0  0  0  0  0  0  0
 16 17  1  0  0  0
 18 17  1  0  0  0
 19 17  1  0  0  0
 17  7  1  0  0  0
 28 29  1  0  0  0
 28 26  1  0  0  0
 30 29  1  0  0  0
 30 31  1  0  0  0
  8  7  2  0  0  0
  8  9  1  0  0  0
 33 29  1  0  0  0
 33 34  1  0  0  0
  7 13  1  0  0  0
 29 27  1  0  0  0
 10  9  1  0  0  0
  9 11  2  0  0  0
 26  4  1  0  0  0
 26 27  1  0  0  0
  3  4  2  0  0  0
  3  1  1  0  0  0
 13  1  1  0  0  0
 13 12  2  0  0  0
  4  5  1  0  0  0
  1  2  2  0  0  0
 11 12  1  0  0  0
  5  6  2  0  0  0
  2  6  1  0  0  0
  6 20  1  0  0  0
 25 20  1  0  0  0
 25 24  1  0  0  0
 20 21  1  0  0  0
 21 22  1  0  0  0
 24 23  1  0  0  0
 23 22  1  0  0  0
 10 14  1  0  0  0
 10 15  1  0  0  0
 31 32  1  0  0  0
M  END
> <minimizedAffinity>
-8.28500

$$$$
5JHB_6K5_A_1201


 34 37  0  0  0  0  0  0  0  0999 V2000
   18.7478   -1.9117   19.7636 C   0  0  0  0  0  0  0  0  0  0  0  0
   18.3264   -2.8107   20.7333 N   0  0  0  0  0  0  0  0  0  0  0  0
   20.0271   -1.9342   19.2275 N   0  0  0  0  0  0  0  0  0  0  0  0
   20.9221   -2.9168   19.7022 C   0  0  0  0  0  0  0  0  0  0  0  0
   20.5327   -3.8280   20.6693 N   0  0  0  0  0  0  0  0  0  0  0  0
   19.2365   -3.7503   21.1636 C   0  0  0  0  0  0  0  0  0  0  0  0
   17.4406    0.4427   19.8181 C   0  0  0  0  0  0  0  0  0  0  0  0
   16.4738    1.3574   19.3249 C   0  0  0  0  0  0  0  0  0  0  0  0
   15.6660    0.9948   18.2162 C   0  0  0  0  0  0  0  0  0  0  0  0
   14.6978    1.8361   17.6802 N   0  0  0  0  0  0  0  0  0  0  0  0
   15.8722   -0.2570   17.6626 N   0  0  0  0  0  0  0  0  0  0  0  0
   16.8187   -1.0705   18.1902 C   0  0  0  0  0  0  0  0  0  0  0  0
   17.6927   -0.8434   19.2775 C   0  0  0  0  0  0  0  0  0  0  0  0
   14.5486    2.7270   18.0716 H   0  0  0  0  0  0  0  0  0  0  0  0
   14.1613    1.5409   16.9093 H   0  0  0  0  0  0  0  0  0  0  0  0
   18.1699    0.1681   22.1141 F   0  0  0  0  0  0  0  0  0  0  0  0
   18.2629    0.9274   21.0074 C   0  0  0  0  0  0  0  0  0  0  0  0
   19.5739    0.9952   20.7388 F   0  0  0  0  0  0  0  0  0  0  0  0
   17.9577    2.1688   21.4618 F   0  0  0  0  0  0  0  0  0  0  0  0
   18.9327   -4.7881   22.1904 N   0  0  0  0  0  0  0  0  0  0  0  0
   19.7129   -6.0735   22.2377 C   0  0  0  0  0  0  0  0  0  0  0  0
   19.4312   -6.8718   23.5475 C   0  0  0  0  0  0  0  0  0  0  0  0
   18.0703   -7.0743   23.7853 O   0  0  0  0  0  0  0  0  0  0  0  0
   17.3290   -5.8886   23.8108 C   0  0  0  0  0  0  0  0  0  0  0  0
   17.4904   -5.0915   22.4887 C   0  0  0  0  0  0  0  0  0  0  0  0
   22.2952   -3.0376   19.2158 N   0  0  0  0  0  0  0  0  0  0  0  0
   22.9177   -3.2952   17.8535 C   0  0  0  0  0  0  0  0  0  0  0  0
   23.6187   -3.2832   19.8663 C   0  0  0  0  0  0  0  0  0  0  0  0
   24.3551   -3.5135   18.4752 C   0  0  0  0  0  0  0  0  0  0  0  0
   25.4168   -2.4082   18.1661 C   0  0  0  0  0  0  0  0  0  0  0  0
   26.6669   -3.0105   17.9500 O   0  0  0  0  0  0  0  0  0  0  0  0
   26.9309   -3.5013   18.7439 H   0  0  0  0  0  0  0  0  0  0  0  0
   25.0073   -4.9103   18.3773 C   0  0  0  0  0  0  0  0  0  0  0  0
   24.1623   -6.1276   17.2137 Cl  0  0  0  0  0  0  0  0  0  0  0  0
 16 17  1  0  0  0
 18 17  1  0  0  0
 19 17  1  0  0  0
 17  7  1  0  0  0
 28 29  1  0  0  0
 28 26  1  0  0  0
 30 29  1  0  0  0
 30 31  1  0  0  0
  8  7  2  0  0  0
  8  9  1  0  0  0
 33 29  1  0  0  0
 33 34  1  0  0  0
  7 13  1  0  0  0
 29 27  1  0  0  0
 10  9  1  0  0  0
  9 11  2  0  0  0
 26  4  1  0  0  0
 26 27  1  0  0  0
  3  4  2  0  0  0
  3  1  1  0  0  0
 13  1  1  0  0  0
 13 12  2  0  0  0
  4  5  1  0  0  0
  1  2  2  0  0  0
 11 12  1  0  0  0
  5  6  2  0  0  0
  2  6  1  0  0  0
  6 20  1  0  0  0
 25 20  1  0  0  0
 25 24  1  0  0  0
 20 21  1  0  0  0
 21 22  1  0  0  0
 24 23  1  0  0  0
 23 22  1  0  0  0
 10 14  1  0  0  0
 10 15  1  0  0  0
 31 32  1  0  0  0
M  END
> <minimizedAffinity>
-8.13663

$$$$
5JHB_6K5_A_1201


 34 37  0  0  0  0  0  0  0  0999 V2000
   21.2344   -3.3154   20.4205 C   0  0  0  0  0  0  0  0  0  0  0  0
   20.0619   -2.8326   19.8560 N   0  0  0  0  0  0  0  0  0  0  0  0
   22.4580   -2.6814   20.2614 N   0  0  0  0  0  0  0  0  0  0  0  0
   22.4917   -1.5007   19.4889 C   0  0  0  0  0  0  0  0  0  0  0  0
   21.3397   -0.9933   18.9121 N   0  0  0  0  0  0  0  0  0  0  0  0
   20.1469   -1.6774   19.1113 C   0  0  0  0  0  0  0  0  0  0  0  0
   21.9295   -5.7994   21.1959 C   0  0  0  0  0  0  0  0  0  0  0  0
   21.7720   -6.9566   22.0026 C   0  0  0  0  0  0  0  0  0  0  0  0
   20.7308   -7.0045   22.9653 C   0  0  0  0  0  0  0  0  0  0  0  0
   20.5135   -8.1035   23.7884 N   0  0  0  0  0  0  0  0  0  0  0  0
   19.9103   -5.8945   23.0694 N   0  0  0  0  0  0  0  0  0  0  0  0
   20.1296   -4.8269   22.2642 C   0  0  0  0  0  0  0  0  0  0  0  0
   21.1207   -4.6377   21.2745 C   0  0  0  0  0  0  0  0  0  0  0  0
   21.0951   -8.8946   23.7170 H   0  0  0  0  0  0  0  0  0  0  0  0
   19.7779   -8.0908   24.4426 H   0  0  0  0  0  0  0  0  0  0  0  0
   23.6819   -7.0386   20.0679 F   0  0  0  0  0  0  0  0  0  0  0  0
   23.0805   -5.8420   20.1964 C   0  0  0  0  0  0  0  0  0  0  0  0
   22.7030   -5.5051   18.9556 F   0  0  0  0  0  0  0  0  0  0  0  0
   24.1159   -5.0062   20.4614 F   0  0  0  0  0  0  0  0  0  0  0  0
   18.9772   -1.0301   18.4507 N   0  0  0  0  0  0  0  0  0  0  0  0
   19.0728    0.3766   17.9258 C   0  0  0  0  0  0  0  0  0  0  0  0
   17.8505    0.7423   17.0290 C   0  0  0  0  0  0  0  0  0  0  0  0
   16.6228    0.4941   17.6461 O   0  0  0  0  0  0  0  0  0  0  0  0
   16.4802   -0.8252   18.0876 C   0  0  0  0  0  0  0  0  0  0  0  0
   17.6185   -1.2208   19.0661 C   0  0  0  0  0  0  0  0  0  0  0  0
   23.7209   -0.7471   19.2487 N   0  0  0  0  0  0  0  0  0  0  0  0
   24.0471    0.7303   19.1063 C   0  0  0  0  0  0  0  0  0  0  0  0
   25.0784   -1.0963   18.7286 C   0  0  0  0  0  0  0  0  0  0  0  0
   25.5147    0.4281   18.6012 C   0  0  0  0  0  0  0  0  0  0  0  0
   26.6738    0.8061   19.5799 C   0  0  0  0  0  0  0  0  0  0  0  0
   27.2607    2.0121   19.1633 O   0  0  0  0  0  0  0  0  0  0  0  0
   27.6145    1.9066   18.2663 H   0  0  0  0  0  0  0  0  0  0  0  0
   25.9014    0.8121   17.1559 C   0  0  0  0  0  0  0  0  0  0  0  0
   27.3924   -0.0910   16.4409 Cl  0  0  0  0  0  0  0  0  0  0  0  0
 16 17  1  0  0  0
 18 17  1  0  0  0
 19 17  1  0  0  0
 17  7  1  0  0  0
 28 29  1  0  0  0
 28 26  1  0  0  0
 30 29  1  0  0  0
 30 31  1  0  0  0
  8  7  2  0  0  0
  8  9  1  0  0  0
 33 29  1  0  0  0
 33 34  1  0  0  0
  7 13  1  0  0  0
 29 27  1  0  0  0
 10  9  1  0  0  0
  9 11  2  0  0  0
 26  4  1  0  0  0
 26 27  1  0  0  0
  3  4  2  0  0  0
  3  1  1  0  0  0
 13  1  1  0  0  0
 13 12  2  0  0  0
  4  5  1  0  0  0
  1  2  2  0  0  0
 11 12  1  0  0  0
  5  6  2  0  0  0
  2  6  1  0  0  0
  6 20  1  0  0  0
 25 20  1  0  0  0
 25 24  1  0  0  0
 20 21  1  0  0  0
 21 22  1  0  0  0
 24 23  1  0  0  0
 23 22  1  0  0  0
 10 14  1  0  0  0
 10 15  1  0  0  0
 31 32  1  0  0  0
M  END
> <minimizedAffinity>
-7.88104

$$$$
