3RZ7_RZ7_A_262


 33 33  0  0  0  0  0  0  0  0999 V2000
   18.4885    6.7855   12.3605 C   0  0  0  0  0  0  0  0  0  0  0  0
   17.9676    5.9004   13.4086 N   0  0  0  0  0  0  0  0  0  0  0  0
   16.0089    5.6998   12.3228 O   0  0  0  0  0  0  0  0  0  0  0  0
   16.7494    5.3932   13.2902 C   0  0  0  0  0  0  0  0  0  0  0  0
   18.5198    5.6849   14.1947 H   0  0  0  0  0  0  0  0  0  0  0  0
   16.2651    4.4924   14.3576 C   0  0  0  0  0  0  0  0  0  0  0  0
   16.6365    2.5493   15.7807 C   0  0  0  0  0  0  0  0  0  0  0  0
   17.0698    3.4305   14.7614 C   0  0  0  0  0  0  0  0  0  0  0  0
   15.3411    2.6765   16.3578 C   0  0  0  0  0  0  0  0  0  0  0  0
   14.9740    4.6525   14.9164 C   0  0  0  0  0  0  0  0  0  0  0  0
   14.5705    3.7709   15.9194 C   0  0  0  0  0  0  0  0  0  0  0  0
   14.7436    1.6415   17.5499 S   0  0  0  0  0  0  0  0  0  0  0  0
   13.4690    1.1411   17.1339 O   0  0  0  0  0  0  0  0  0  0  0  0
   14.7657    2.3911   18.8105 O   0  0  0  0  0  0  0  0  0  0  0  0
   15.7946    0.4604   17.6994 N   0  0  0  0  0  0  0  0  0  0  0  0
   15.8122   -0.0898   16.8407 H   0  0  0  0  0  0  0  0  0  0  0  0
   15.5253   -0.1374   18.4808 H   0  0  0  0  0  0  0  0  0  0  0  0
   20.4775    5.7739   13.0124 F   0  0  0  0  0  0  0  0  0  0  0  0
   20.6377    7.2310   11.4940 F   0  0  0  0  0  0  0  0  0  0  0  0
   19.8669    6.2871   11.9485 C   0  0  0  0  0  0  0  0  0  0  0  0
   20.6572    5.6563    9.8177 F   0  0  0  0  0  0  0  0  0  0  0  0
   18.5406    5.5634   10.1482 F   0  0  0  0  0  0  0  0  0  0  0  0
   19.7314    5.3387   10.7687 C   0  0  0  0  0  0  0  0  0  0  0  0
   19.4468    3.4912   12.5819 F   0  0  0  0  0  0  0  0  0  0  0  0
   21.3054    3.6778   11.2211 F   0  0  0  0  0  0  0  0  0  0  0  0
   19.9863    3.8936   11.3594 C   0  0  0  0  0  0  0  0  0  0  0  0
   19.6588    3.1765    9.3050 F   0  0  0  0  0  0  0  0  0  0  0  0
   17.9508    3.5842   10.9398 F   0  0  0  0  0  0  0  0  0  0  0  0
   19.1323    3.0028   10.5411 C   0  0  0  0  0  0  0  0  0  0  0  0
   18.1044    1.1410   11.8155 F   0  0  0  0  0  0  0  0  0  0  0  0
   20.3211    1.1962   11.4838 F   0  0  0  0  0  0  0  0  0  0  0  0
   18.9427    0.8186    9.8595 F   0  0  0  0  0  0  0  0  0  0  0  0
   19.1187    1.5024   10.9752 C   0  0  0  0  0  0  0  0  0  0  0  0
  9 12  1  0  0  0
 15 12  1  0  0  0
 13 12  2  0  0  0
 12 14  2  0  0  0
  1  2  1  0  0  0
  2  4  1  0  0  0
  3  4  2  0  0  0
  4  6  1  0  0  0
  6 10  2  0  0  0
  6  8  1  0  0  0
  8  7  2  0  0  0
  7  9  1  0  0  0
 11  9  2  0  0  0
 10 11  1  0  0  0
 20 18  1  0  0  0
 21 23  1  0  0  0
 26 24  1  0  0  0
 27 29  1  0  0  0
 33 30  1  0  0  0
 20 19  1  0  0  0
 22 23  1  0  0  0
 26 25  1  0  0  0
 29 28  1  0  0  0
 33 31  1  0  0  0
 32 33  1  0  0  0
  1 20  1  0  0  0
 23 20  1  0  0  0
 23 26  1  0  0  0
 29 26  1  0  0  0
 29 33  1  0  0  0
  2  5  1  0  0  0
 15 16  1  0  0  0
 15 17  1  0  0  0
M  END
> <minimizedAffinity>
-7.67863

$$$$
3RZ7_RZ7_A_262


 33 33  0  0  0  0  0  0  0  0999 V2000
   16.7566    5.6408   13.1247 C   0  0  0  0  0  0  0  0  0  0  0  0
   17.6450    6.7629   13.4486 N   0  0  0  0  0  0  0  0  0  0  0  0
   19.4041    5.3732   13.6229 O   0  0  0  0  0  0  0  0  0  0  0  0
   18.9351    6.5384   13.6499 C   0  0  0  0  0  0  0  0  0  0  0  0
   17.2847    7.6767   13.5159 H   0  0  0  0  0  0  0  0  0  0  0  0
   19.8020    7.6957   13.9575 C   0  0  0  0  0  0  0  0  0  0  0  0
   21.7755    9.0262   13.4341 C   0  0  0  0  0  0  0  0  0  0  0  0
   20.9245    7.9271   13.1672 C   0  0  0  0  0  0  0  0  0  0  0  0
   21.5527    9.8693   14.5597 C   0  0  0  0  0  0  0  0  0  0  0  0
   19.5466    8.5195   15.0803 C   0  0  0  0  0  0  0  0  0  0  0  0
   20.4002    9.5962   15.3219 C   0  0  0  0  0  0  0  0  0  0  0  0
   22.5454   11.1744   14.9605 S   0  0  0  0  0  0  0  0  0  0  0  0
   23.8830   10.7003   15.1458 O   0  0  0  0  0  0  0  0  0  0  0  0
   21.9271   11.8374   16.1135 O   0  0  0  0  0  0  0  0  0  0  0  0
   22.4695   12.1966   13.7476 N   0  0  0  0  0  0  0  0  0  0  0  0
   22.8906   11.7743   12.9202 H   0  0  0  0  0  0  0  0  0  0  0  0
   22.9752   13.0489   13.9892 H   0  0  0  0  0  0  0  0  0  0  0  0
   14.6605    5.3661   14.0919 F   0  0  0  0  0  0  0  0  0  0  0  0
   16.1789    6.0854   15.3691 F   0  0  0  0  0  0  0  0  0  0  0  0
   15.9580    5.2820   14.3704 C   0  0  0  0  0  0  0  0  0  0  0  0
   17.4520    4.1019   15.7627 F   0  0  0  0  0  0  0  0  0  0  0  0
   16.9636    3.2171   13.8715 F   0  0  0  0  0  0  0  0  0  0  0  0
   16.4142    3.9299   14.8931 C   0  0  0  0  0  0  0  0  0  0  0  0
   14.0931    2.7491   14.9054 F   0  0  0  0  0  0  0  0  0  0  0  0
   14.7954    4.2153   16.5481 F   0  0  0  0  0  0  0  0  0  0  0  0
   15.1520    3.3120   15.6192 C   0  0  0  0  0  0  0  0  0  0  0  0
   16.8261    2.3861   16.7064 F   0  0  0  0  0  0  0  0  0  0  0  0
   15.5242    1.3450   14.9809 F   0  0  0  0  0  0  0  0  0  0  0  0
   15.6348    2.0258   16.1714 C   0  0  0  0  0  0  0  0  0  0  0  0
   13.4457    1.0261   16.7677 F   0  0  0  0  0  0  0  0  0  0  0  0
   14.6431    2.1288   18.3095 F   0  0  0  0  0  0  0  0  0  0  0  0
   15.2845    0.2128   17.5358 F   0  0  0  0  0  0  0  0  0  0  0  0
   14.6935    1.3502   17.2189 C   0  0  0  0  0  0  0  0  0  0  0  0
  9 12  1  0  0  0
 15 12  1  0  0  0
 13 12  2  0  0  0
 12 14  2  0  0  0
  1  2  1  0  0  0
  2  4  1  0  0  0
  3  4  2  0  0  0
  4  6  1  0  0  0
  6 10  2  0  0  0
  6  8  1  0  0  0
  8  7  2  0  0  0
  7  9  1  0  0  0
 11  9  2  0  0  0
 10 11  1  0  0  0
 20 18  1  0  0  0
 21 23  1  0  0  0
 26 24  1  0  0  0
 27 29  1  0  0  0
 33 30  1  0  0  0
 20 19  1  0  0  0
 22 23  1  0  0  0
 26 25  1  0  0  0
 29 28  1  0  0  0
 33 31  1  0  0  0
 32 33  1  0  0  0
  1 20  1  0  0  0
 23 20  1  0  0  0
 23 26  1  0  0  0
 29 26  1  0  0  0
 29 33  1  0  0  0
  2  5  1  0  0  0
 15 16  1  0  0  0
 15 17  1  0  0  0
M  END
> <minimizedAffinity>
-7.27466

$$$$
3RZ7_RZ7_A_262


 33 33  0  0  0  0  0  0  0  0999 V2000
   16.5621    4.8578   13.1579 C   0  0  0  0  0  0  0  0  0  0  0  0
   17.9426    5.0283   12.6906 N   0  0  0  0  0  0  0  0  0  0  0  0
   18.1594    2.8100   12.3937 O   0  0  0  0  0  0  0  0  0  0  0  0
   18.6397    3.9678   12.3101 C   0  0  0  0  0  0  0  0  0  0  0  0
   18.3482    5.9249   12.6600 H   0  0  0  0  0  0  0  0  0  0  0  0
   20.0215    4.1805   11.8296 C   0  0  0  0  0  0  0  0  0  0  0  0
   22.0073    5.5899   11.7339 C   0  0  0  0  0  0  0  0  0  0  0  0
   20.6837    5.3547   12.1770 C   0  0  0  0  0  0  0  0  0  0  0  0
   22.6609    4.6755   10.8598 C   0  0  0  0  0  0  0  0  0  0  0  0
   20.6454    3.2461   10.9679 C   0  0  0  0  0  0  0  0  0  0  0  0
   21.9501    3.5011   10.5450 C   0  0  0  0  0  0  0  0  0  0  0  0
   24.2225    4.9080   10.2626 S   0  0  0  0  0  0  0  0  0  0  0  0
   25.1482    4.8615   11.3531 O   0  0  0  0  0  0  0  0  0  0  0  0
   24.1974    6.1522    9.4863 O   0  0  0  0  0  0  0  0  0  0  0  0
   24.4993    3.7303    9.2339 N   0  0  0  0  0  0  0  0  0  0  0  0
   24.5251    2.8414    9.7336 H   0  0  0  0  0  0  0  0  0  0  0  0
   25.3948    3.8864    8.7713 H   0  0  0  0  0  0  0  0  0  0  0  0
   16.6607    6.2497   15.0173 F   0  0  0  0  0  0  0  0  0  0  0  0
   17.5376    4.3435   15.2441 F   0  0  0  0  0  0  0  0  0  0  0  0
   16.5489    4.9693   14.6763 C   0  0  0  0  0  0  0  0  0  0  0  0
   14.3574    4.2038   14.2593 F   0  0  0  0  0  0  0  0  0  0  0  0
   14.7553    5.0396   16.1934 F   0  0  0  0  0  0  0  0  0  0  0  0
   15.3191    4.2656   15.2257 C   0  0  0  0  0  0  0  0  0  0  0  0
   16.9497    2.6263   16.4240 F   0  0  0  0  0  0  0  0  0  0  0  0
   15.7647    2.0895   14.5138 F   0  0  0  0  0  0  0  0  0  0  0  0
   15.8115    2.8206   15.6403 C   0  0  0  0  0  0  0  0  0  0  0  0
   13.6693    2.7356   16.1363 F   0  0  0  0  0  0  0  0  0  0  0  0
   15.4570    3.1181   17.6899 F   0  0  0  0  0  0  0  0  0  0  0  0
   14.8576    2.3905   16.6879 C   0  0  0  0  0  0  0  0  0  0  0  0
   15.7156    0.1009   16.2775 F   0  0  0  0  0  0  0  0  0  0  0  0
   13.6645    0.4040   17.1308 F   0  0  0  0  0  0  0  0  0  0  0  0
   15.4446    0.8433   18.2795 F   0  0  0  0  0  0  0  0  0  0  0  0
   14.9178    0.8770   17.0692 C   0  0  0  0  0  0  0  0  0  0  0  0
  9 12  1  0  0  0
 15 12  1  0  0  0
 13 12  2  0  0  0
 12 14  2  0  0  0
  1  2  1  0  0  0
  2  4  1  0  0  0
  3  4  2  0  0  0
  4  6  1  0  0  0
  6 10  2  0  0  0
  6  8  1  0  0  0
  8  7  2  0  0  0
  7  9  1  0  0  0
 11  9  2  0  0  0
 10 11  1  0  0  0
 20 18  1  0  0  0
 21 23  1  0  0  0
 26 24  1  0  0  0
 27 29  1  0  0  0
 33 30  1  0  0  0
 20 19  1  0  0  0
 22 23  1  0  0  0
 26 25  1  0  0  0
 29 28  1  0  0  0
 33 31  1  0  0  0
 32 33  1  0  0  0
  1 20  1  0  0  0
 23 20  1  0  0  0
 23 26  1  0  0  0
 29 26  1  0  0  0
 29 33  1  0  0  0
  2  5  1  0  0  0
 15 16  1  0  0  0
 15 17  1  0  0  0
M  END
> <minimizedAffinity>
-7.13916

$$$$
3RZ7_RZ7_A_262


 33 33  0  0  0  0  0  0  0  0999 V2000
   16.8157    5.0949   13.0487 C   0  0  0  0  0  0  0  0  0  0  0  0
   17.5280    6.3384   13.3644 N   0  0  0  0  0  0  0  0  0  0  0  0
   19.4083    5.1932   13.8215 O   0  0  0  0  0  0  0  0  0  0  0  0
   18.8068    6.2902   13.7075 C   0  0  0  0  0  0  0  0  0  0  0  0
   17.0587    7.2028   13.3215 H   0  0  0  0  0  0  0  0  0  0  0  0
   19.4956    7.5646   14.0021 C   0  0  0  0  0  0  0  0  0  0  0  0
   19.5821    9.6523   15.2563 C   0  0  0  0  0  0  0  0  0  0  0  0
   18.9480    8.4244   14.9502 C   0  0  0  0  0  0  0  0  0  0  0  0
   20.7432   10.0741   14.5483 C   0  0  0  0  0  0  0  0  0  0  0  0
   20.6540    7.9497   13.2848 C   0  0  0  0  0  0  0  0  0  0  0  0
   21.2601    9.1647   13.6051 C   0  0  0  0  0  0  0  0  0  0  0  0
   21.5303   11.5398   14.8335 S   0  0  0  0  0  0  0  0  0  0  0  0
   22.1346   11.4974   16.1302 O   0  0  0  0  0  0  0  0  0  0  0  0
   20.5416   12.6005   14.6136 O   0  0  0  0  0  0  0  0  0  0  0  0
   22.6315   11.6962   13.7001 N   0  0  0  0  0  0  0  0  0  0  0  0
   23.3431   10.9745   13.8154 H   0  0  0  0  0  0  0  0  0  0  0  0
   23.0657   12.6164   13.7725 H   0  0  0  0  0  0  0  0  0  0  0  0
   14.7989    5.0971   14.2052 F   0  0  0  0  0  0  0  0  0  0  0  0
   16.5435    5.1229   15.3926 F   0  0  0  0  0  0  0  0  0  0  0  0
   16.0487    4.6502   14.2865 C   0  0  0  0  0  0  0  0  0  0  0  0
   17.4256    2.7493   14.0555 F   0  0  0  0  0  0  0  0  0  0  0  0
   15.3490    2.5236   13.5710 F   0  0  0  0  0  0  0  0  0  0  0  0
   16.1809    3.1452   14.4514 C   0  0  0  0  0  0  0  0  0  0  0  0
   15.0598    3.6261   16.7522 F   0  0  0  0  0  0  0  0  0  0  0  0
   17.1821    2.7413   16.5191 F   0  0  0  0  0  0  0  0  0  0  0  0
   15.9525    2.8692   15.9921 C   0  0  0  0  0  0  0  0  0  0  0  0
   15.9099    0.7748   15.3187 F   0  0  0  0  0  0  0  0  0  0  0  0
   14.0096    2.2257   15.5170 F   0  0  0  0  0  0  0  0  0  0  0  0
   15.1396    1.6323   16.0305 C   0  0  0  0  0  0  0  0  0  0  0  0
   15.3933    1.7638   18.4933 F   0  0  0  0  0  0  0  0  0  0  0  0
   15.0965   -0.2198   17.4912 F   0  0  0  0  0  0  0  0  0  0  0  0
   13.5067    1.2440   17.5971 F   0  0  0  0  0  0  0  0  0  0  0  0
   14.8107    1.0900   17.4579 C   0  0  0  0  0  0  0  0  0  0  0  0
  9 12  1  0  0  0
 15 12  1  0  0  0
 13 12  2  0  0  0
 12 14  2  0  0  0
  1  2  1  0  0  0
  2  4  1  0  0  0
  3  4  2  0  0  0
  4  6  1  0  0  0
  6 10  2  0  0  0
  6  8  1  0  0  0
  8  7  2  0  0  0
  7  9  1  0  0  0
 11  9  2  0  0  0
 10 11  1  0  0  0
 20 18  1  0  0  0
 21 23  1  0  0  0
 26 24  1  0  0  0
 27 29  1  0  0  0
 33 30  1  0  0  0
 20 19  1  0  0  0
 22 23  1  0  0  0
 26 25  1  0  0  0
 29 28  1  0  0  0
 33 31  1  0  0  0
 32 33  1  0  0  0
  1 20  1  0  0  0
 23 20  1  0  0  0
 23 26  1  0  0  0
 29 26  1  0  0  0
 29 33  1  0  0  0
  2  5  1  0  0  0
 15 16  1  0  0  0
 15 17  1  0  0  0
M  END
> <minimizedAffinity>
-7.11028

$$$$
3RZ7_RZ7_A_262


 33 33  0  0  0  0  0  0  0  0999 V2000
   17.0087    4.7583   11.4725 C   0  0  0  0  0  0  0  0  0  0  0  0
   18.4408    4.8303   11.1610 N   0  0  0  0  0  0  0  0  0  0  0  0
   18.3576    2.8359   10.1259 O   0  0  0  0  0  0  0  0  0  0  0  0
   19.0099    3.8524   10.4715 C   0  0  0  0  0  0  0  0  0  0  0  0
   18.9753    5.6002   11.4623 H   0  0  0  0  0  0  0  0  0  0  0  0
   20.4509    3.9677   10.1622 C   0  0  0  0  0  0  0  0  0  0  0  0
   22.7303    4.3494   10.9350 C   0  0  0  0  0  0  0  0  0  0  0  0
   21.3441    4.2331   11.1965 C   0  0  0  0  0  0  0  0  0  0  0  0
   23.2337    4.2801    9.6049 C   0  0  0  0  0  0  0  0  0  0  0  0
   20.9189    3.8850    8.8284 C   0  0  0  0  0  0  0  0  0  0  0  0
   22.2895    4.0032    8.5971 C   0  0  0  0  0  0  0  0  0  0  0  0
   24.8674    4.4464    9.2144 S   0  0  0  0  0  0  0  0  0  0  0  0
   25.0086    5.4869    8.2419 O   0  0  0  0  0  0  0  0  0  0  0  0
   25.3442    3.1178    8.8160 O   0  0  0  0  0  0  0  0  0  0  0  0
   25.6237    4.8215   10.5594 N   0  0  0  0  0  0  0  0  0  0  0  0
   25.3207    5.7432   10.8742 H   0  0  0  0  0  0  0  0  0  0  0  0
   26.6298    4.8333   10.3918 H   0  0  0  0  0  0  0  0  0  0  0  0
   15.8254    5.6710   13.2533 F   0  0  0  0  0  0  0  0  0  0  0  0
   17.8824    5.3368   13.5868 F   0  0  0  0  0  0  0  0  0  0  0  0
   16.8376    4.8523   12.9825 C   0  0  0  0  0  0  0  0  0  0  0  0
   17.8884    2.7893   13.4326 F   0  0  0  0  0  0  0  0  0  0  0  0
   15.8397    2.7321   12.8024 F   0  0  0  0  0  0  0  0  0  0  0  0
   16.7045    3.4552   13.5656 C   0  0  0  0  0  0  0  0  0  0  0  0
   15.6446    4.8005   15.5274 F   0  0  0  0  0  0  0  0  0  0  0  0
   17.4523    3.3818   15.7738 F   0  0  0  0  0  0  0  0  0  0  0  0
   16.3327    3.6686   15.0882 C   0  0  0  0  0  0  0  0  0  0  0  0
   15.7661    1.5446   14.9903 F   0  0  0  0  0  0  0  0  0  0  0  0
   14.3273    3.4056   14.5188 F   0  0  0  0  0  0  0  0  0  0  0  0
   15.2112    2.7327   15.3305 C   0  0  0  0  0  0  0  0  0  0  0  0
   14.0288    3.8811   17.1825 F   0  0  0  0  0  0  0  0  0  0  0  0
   15.6288    2.3740   17.6246 F   0  0  0  0  0  0  0  0  0  0  0  0
   13.7184    1.7867   16.7960 F   0  0  0  0  0  0  0  0  0  0  0  0
   14.6441    2.7281   16.7858 C   0  0  0  0  0  0  0  0  0  0  0  0
  9 12  1  0  0  0
 15 12  1  0  0  0
 13 12  2  0  0  0
 12 14  2  0  0  0
  1  2  1  0  0  0
  2  4  1  0  0  0
  3  4  2  0  0  0
  4  6  1  0  0  0
  6 10  2  0  0  0
  6  8  1  0  0  0
  8  7  2  0  0  0
  7  9  1  0  0  0
 11  9  2  0  0  0
 10 11  1  0  0  0
 20 18  1  0  0  0
 21 23  1  0  0  0
 26 24  1  0  0  0
 27 29  1  0  0  0
 33 30  1  0  0  0
 20 19  1  0  0  0
 22 23  1  0  0  0
 26 25  1  0  0  0
 29 28  1  0  0  0
 33 31  1  0  0  0
 32 33  1  0  0  0
  1 20  1  0  0  0
 23 20  1  0  0  0
 23 26  1  0  0  0
 29 26  1  0  0  0
 29 33  1  0  0  0
  2  5  1  0  0  0
 15 16  1  0  0  0
 15 17  1  0  0  0
M  END
> <minimizedAffinity>
-7.03192

$$$$
3RZ7_RZ7_A_262


 33 33  0  0  0  0  0  0  0  0999 V2000
   18.5259    7.6235   13.2477 C   0  0  0  0  0  0  0  0  0  0  0  0
   18.0139    6.5428   14.0981 N   0  0  0  0  0  0  0  0  0  0  0  0
   16.2663    6.2298   12.7182 O   0  0  0  0  0  0  0  0  0  0  0  0
   16.9127    5.8973   13.7429 C   0  0  0  0  0  0  0  0  0  0  0  0
   18.4855    6.2989   14.9271 H   0  0  0  0  0  0  0  0  0  0  0  0
   16.4364    4.8034   14.6157 C   0  0  0  0  0  0  0  0  0  0  0  0
   16.8721    2.6841   15.7370 C   0  0  0  0  0  0  0  0  0  0  0  0
   17.2962    3.7473   14.9046 C   0  0  0  0  0  0  0  0  0  0  0  0
   15.5374    2.6266   16.2299 C   0  0  0  0  0  0  0  0  0  0  0  0
   15.1046    4.7817   15.0961 C   0  0  0  0  0  0  0  0  0  0  0  0
   14.7111    3.7227   15.9145 C   0  0  0  0  0  0  0  0  0  0  0  0
   14.9515    1.3726   17.1960 S   0  0  0  0  0  0  0  0  0  0  0  0
   13.5525    1.2071   16.9435 O   0  0  0  0  0  0  0  0  0  0  0  0
   15.3274    1.6920   18.5773 O   0  0  0  0  0  0  0  0  0  0  0  0
   15.7588    0.0667   16.7905 N   0  0  0  0  0  0  0  0  0  0  0  0
   15.5265   -0.1927   15.8318 H   0  0  0  0  0  0  0  0  0  0  0  0
   15.5089   -0.6966   17.4193 H   0  0  0  0  0  0  0  0  0  0  0  0
   20.2859    7.9592   14.7290 F   0  0  0  0  0  0  0  0  0  0  0  0
   18.5637    9.1329   15.0612 F   0  0  0  0  0  0  0  0  0  0  0  0
   19.2935    8.6045   14.1233 C   0  0  0  0  0  0  0  0  0  0  0  0
   18.7154   10.1479   12.4362 F   0  0  0  0  0  0  0  0  0  0  0  0
   20.7346    9.4269   12.4588 F   0  0  0  0  0  0  0  0  0  0  0  0
   19.7225    9.8002   13.2891 C   0  0  0  0  0  0  0  0  0  0  0  0
   20.5941   10.6947   15.5743 F   0  0  0  0  0  0  0  0  0  0  0  0
   18.9024   11.7013   14.3635 F   0  0  0  0  0  0  0  0  0  0  0  0
   20.0189   10.9542   14.3296 C   0  0  0  0  0  0  0  0  0  0  0  0
   20.8301   11.8622   12.4967 F   0  0  0  0  0  0  0  0  0  0  0  0
   22.0929   10.6682   14.1508 F   0  0  0  0  0  0  0  0  0  0  0  0
   21.2044   11.6518   13.7816 C   0  0  0  0  0  0  0  0  0  0  0  0
   20.6258   13.5333   15.2888 F   0  0  0  0  0  0  0  0  0  0  0  0
   22.0630   13.8413   13.5959 F   0  0  0  0  0  0  0  0  0  0  0  0
   22.5865   12.6462   15.3218 F   0  0  0  0  0  0  0  0  0  0  0  0
   21.5992   12.9761   14.5095 C   0  0  0  0  0  0  0  0  0  0  0  0
  9 12  1  0  0  0
 15 12  1  0  0  0
 13 12  2  0  0  0
 12 14  2  0  0  0
  1  2  1  0  0  0
  2  4  1  0  0  0
  3  4  2  0  0  0
  4  6  1  0  0  0
  6 10  2  0  0  0
  6  8  1  0  0  0
  8  7  2  0  0  0
  7  9  1  0  0  0
 11  9  2  0  0  0
 10 11  1  0  0  0
 20 18  1  0  0  0
 21 23  1  0  0  0
 26 24  1  0  0  0
 27 29  1  0  0  0
 33 30  1  0  0  0
 20 19  1  0  0  0
 22 23  1  0  0  0
 26 25  1  0  0  0
 29 28  1  0  0  0
 33 31  1  0  0  0
 32 33  1  0  0  0
  1 20  1  0  0  0
 23 20  1  0  0  0
 23 26  1  0  0  0
 29 26  1  0  0  0
 29 33  1  0  0  0
  2  5  1  0  0  0
 15 16  1  0  0  0
 15 17  1  0  0  0
M  END
> <minimizedAffinity>
-7.01305

$$$$
3RZ7_RZ7_A_262


 33 33  0  0  0  0  0  0  0  0999 V2000
   18.1897    4.1200   13.0798 C   0  0  0  0  0  0  0  0  0  0  0  0
   18.3340    5.5779   12.9961 N   0  0  0  0  0  0  0  0  0  0  0  0
   19.9853    5.5430   14.5219 O   0  0  0  0  0  0  0  0  0  0  0  0
   19.2616    6.1857   13.7210 C   0  0  0  0  0  0  0  0  0  0  0  0
   17.7454    6.1009   12.4051 H   0  0  0  0  0  0  0  0  0  0  0  0
   19.3884    7.6534   13.5979 C   0  0  0  0  0  0  0  0  0  0  0  0
   19.4863    9.8399   14.6695 C   0  0  0  0  0  0  0  0  0  0  0  0
   19.3670    8.4319   14.7517 C   0  0  0  0  0  0  0  0  0  0  0  0
   19.5482   10.4978   13.4083 C   0  0  0  0  0  0  0  0  0  0  0  0
   19.4566    8.2750   12.3275 C   0  0  0  0  0  0  0  0  0  0  0  0
   19.5736    9.6641   12.2734 C   0  0  0  0  0  0  0  0  0  0  0  0
   19.6541   12.1733   13.2328 S   0  0  0  0  0  0  0  0  0  0  0  0
   20.1596   12.7361   14.4477 O   0  0  0  0  0  0  0  0  0  0  0  0
   18.3306   12.6381   12.8046 O   0  0  0  0  0  0  0  0  0  0  0  0
   20.6493   12.4451   12.0255 N   0  0  0  0  0  0  0  0  0  0  0  0
   21.5868   12.1352   12.2812 H   0  0  0  0  0  0  0  0  0  0  0  0
   20.6662   13.4434   11.8170 H   0  0  0  0  0  0  0  0  0  0  0  0
   16.3987    2.6724   12.7612 F   0  0  0  0  0  0  0  0  0  0  0  0
   15.9079    4.7132   12.9808 F   0  0  0  0  0  0  0  0  0  0  0  0
   16.7345    3.7956   13.3887 C   0  0  0  0  0  0  0  0  0  0  0  0
   16.0533    4.9844   15.3084 F   0  0  0  0  0  0  0  0  0  0  0  0
   17.7384    3.6740   15.5103 F   0  0  0  0  0  0  0  0  0  0  0  0
   16.5285    3.7740   14.8942 C   0  0  0  0  0  0  0  0  0  0  0  0
   15.8057    1.2746   15.0070 F   0  0  0  0  0  0  0  0  0  0  0  0
   14.3561    3.0089   14.5252 F   0  0  0  0  0  0  0  0  0  0  0  0
   15.4767    2.6223   15.1582 C   0  0  0  0  0  0  0  0  0  0  0  0
   14.8649    3.7917   16.9190 F   0  0  0  0  0  0  0  0  0  0  0  0
   16.6709    2.2144   16.8382 F   0  0  0  0  0  0  0  0  0  0  0  0
   15.3557    2.5619   16.6327 C   0  0  0  0  0  0  0  0  0  0  0  0
   15.0325    0.1851   17.2598 F   0  0  0  0  0  0  0  0  0  0  0  0
   13.3155    1.3889   16.4664 F   0  0  0  0  0  0  0  0  0  0  0  0
   14.1565    1.7698   18.4232 F   0  0  0  0  0  0  0  0  0  0  0  0
   14.4477    1.4170   17.1846 C   0  0  0  0  0  0  0  0  0  0  0  0
  9 12  1  0  0  0
 15 12  1  0  0  0
 13 12  2  0  0  0
 12 14  2  0  0  0
  1  2  1  0  0  0
  2  4  1  0  0  0
  3  4  2  0  0  0
  4  6  1  0  0  0
  6 10  2  0  0  0
  6  8  1  0  0  0
  8  7  2  0  0  0
  7  9  1  0  0  0
 11  9  2  0  0  0
 10 11  1  0  0  0
 20 18  1  0  0  0
 21 23  1  0  0  0
 26 24  1  0  0  0
 27 29  1  0  0  0
 33 30  1  0  0  0
 20 19  1  0  0  0
 22 23  1  0  0  0
 26 25  1  0  0  0
 29 28  1  0  0  0
 33 31  1  0  0  0
 32 33  1  0  0  0
  1 20  1  0  0  0
 23 20  1  0  0  0
 23 26  1  0  0  0
 29 26  1  0  0  0
 29 33  1  0  0  0
  2  5  1  0  0  0
 15 16  1  0  0  0
 15 17  1  0  0  0
M  END
> <minimizedAffinity>
-6.89348

$$$$
3RZ7_RZ7_A_262


 33 33  0  0  0  0  0  0  0  0999 V2000
   16.7453    4.9480   12.7093 C   0  0  0  0  0  0  0  0  0  0  0  0
   16.6475    6.3152   12.1855 N   0  0  0  0  0  0  0  0  0  0  0  0
   15.4828    5.5926   10.4030 O   0  0  0  0  0  0  0  0  0  0  0  0
   15.9841    6.5385   11.0606 C   0  0  0  0  0  0  0  0  0  0  0  0
   17.0720    7.0618   12.6669 H   0  0  0  0  0  0  0  0  0  0  0  0
   15.8925    7.9309   10.5726 C   0  0  0  0  0  0  0  0  0  0  0  0
   16.8945   10.1425   10.3640 C   0  0  0  0  0  0  0  0  0  0  0  0
   16.9497    8.8028   10.8175 C   0  0  0  0  0  0  0  0  0  0  0  0
   15.7299   10.6516    9.7222 C   0  0  0  0  0  0  0  0  0  0  0  0
   14.7222    8.4025    9.9300 C   0  0  0  0  0  0  0  0  0  0  0  0
   14.6927    9.7268    9.4926 C   0  0  0  0  0  0  0  0  0  0  0  0
   15.5788   12.2458    9.1883 S   0  0  0  0  0  0  0  0  0  0  0  0
   14.6710   12.2808    8.0825 O   0  0  0  0  0  0  0  0  0  0  0  0
   16.9368   12.7350    8.9279 O   0  0  0  0  0  0  0  0  0  0  0  0
   15.0144   13.0867   10.4115 N   0  0  0  0  0  0  0  0  0  0  0  0
   14.0667   12.7778   10.6280 H   0  0  0  0  0  0  0  0  0  0  0  0
   15.0017   14.0767   10.1664 H   0  0  0  0  0  0  0  0  0  0  0  0
   14.9274    5.1908   14.1379 F   0  0  0  0  0  0  0  0  0  0  0  0
   16.7849    5.8561   14.8870 F   0  0  0  0  0  0  0  0  0  0  0  0
   16.2337    4.9424   14.1433 C   0  0  0  0  0  0  0  0  0  0  0  0
   17.6970    3.8661   15.6477 F   0  0  0  0  0  0  0  0  0  0  0  0
   17.1300    2.7852   13.8848 F   0  0  0  0  0  0  0  0  0  0  0  0
   16.6353    3.6422   14.8198 C   0  0  0  0  0  0  0  0  0  0  0  0
   14.2387    2.6395   15.0009 F   0  0  0  0  0  0  0  0  0  0  0  0
   15.1014    4.1792   16.4930 F   0  0  0  0  0  0  0  0  0  0  0  0
   15.3596    3.1796   15.6328 C   0  0  0  0  0  0  0  0  0  0  0  0
   17.0111    2.2184   16.7240 F   0  0  0  0  0  0  0  0  0  0  0  0
   15.5477    1.1416   15.1572 F   0  0  0  0  0  0  0  0  0  0  0  0
   15.7701    1.9108   16.2761 C   0  0  0  0  0  0  0  0  0  0  0  0
   13.5371    1.1734   17.0614 F   0  0  0  0  0  0  0  0  0  0  0  0
   14.9221    2.2602   18.4497 F   0  0  0  0  0  0  0  0  0  0  0  0
   15.3347    0.2411   17.7907 F   0  0  0  0  0  0  0  0  0  0  0  0
   14.8344    1.4054   17.4201 C   0  0  0  0  0  0  0  0  0  0  0  0
  9 12  1  0  0  0
 15 12  1  0  0  0
 13 12  2  0  0  0
 12 14  2  0  0  0
  1  2  1  0  0  0
  2  4  1  0  0  0
  3  4  2  0  0  0
  4  6  1  0  0  0
  6 10  2  0  0  0
  6  8  1  0  0  0
  8  7  2  0  0  0
  7  9  1  0  0  0
 11  9  2  0  0  0
 10 11  1  0  0  0
 20 18  1  0  0  0
 21 23  1  0  0  0
 26 24  1  0  0  0
 27 29  1  0  0  0
 33 30  1  0  0  0
 20 19  1  0  0  0
 22 23  1  0  0  0
 26 25  1  0  0  0
 29 28  1  0  0  0
 33 31  1  0  0  0
 32 33  1  0  0  0
  1 20  1  0  0  0
 23 20  1  0  0  0
 23 26  1  0  0  0
 29 26  1  0  0  0
 29 33  1  0  0  0
  2  5  1  0  0  0
 15 16  1  0  0  0
 15 17  1  0  0  0
M  END
> <minimizedAffinity>
-6.74237

$$$$
3RZ7_RZ7_A_262


 33 33  0  0  0  0  0  0  0  0999 V2000
   17.7565    4.9878   10.6636 C   0  0  0  0  0  0  0  0  0  0  0  0
   17.1121    4.4503   11.8674 N   0  0  0  0  0  0  0  0  0  0  0  0
   18.8353    3.0478   12.2132 O   0  0  0  0  0  0  0  0  0  0  0  0
   17.7301    3.5197   12.5796 C   0  0  0  0  0  0  0  0  0  0  0  0
   16.2263    4.7791   12.1440 H   0  0  0  0  0  0  0  0  0  0  0  0
   17.0576    3.0142   13.7952 C   0  0  0  0  0  0  0  0  0  0  0  0
   16.2447    1.1241   15.1012 C   0  0  0  0  0  0  0  0  0  0  0  0
   16.8843    1.6415   13.9494 C   0  0  0  0  0  0  0  0  0  0  0  0
   15.6930    1.9924   16.0856 C   0  0  0  0  0  0  0  0  0  0  0  0
   16.5278    3.9058   14.7592 C   0  0  0  0  0  0  0  0  0  0  0  0
   15.9019    3.3708   15.8853 C   0  0  0  0  0  0  0  0  0  0  0  0
   14.8856    1.4482   17.4644 S   0  0  0  0  0  0  0  0  0  0  0  0
   14.8925    2.4885   18.4472 O   0  0  0  0  0  0  0  0  0  0  0  0
   15.5191    0.1840   17.8540 O   0  0  0  0  0  0  0  0  0  0  0  0
   13.4017    1.0999   17.0185 N   0  0  0  0  0  0  0  0  0  0  0  0
   12.9216    1.9549   16.7377 H   0  0  0  0  0  0  0  0  0  0  0  0
   12.9041    0.6711   17.7987 H   0  0  0  0  0  0  0  0  0  0  0  0
   16.5991    6.9101   11.2717 F   0  0  0  0  0  0  0  0  0  0  0  0
   17.8681    7.0887    9.5948 F   0  0  0  0  0  0  0  0  0  0  0  0
   17.7555    6.5077   10.7530 C   0  0  0  0  0  0  0  0  0  0  0  0
   19.7011    7.8407   10.7292 F   0  0  0  0  0  0  0  0  0  0  0  0
   19.8378    5.9187   11.6699 F   0  0  0  0  0  0  0  0  0  0  0  0
   18.9910    6.9721   11.5063 C   0  0  0  0  0  0  0  0  0  0  0  0
   17.5220    7.0634   13.6547 F   0  0  0  0  0  0  0  0  0  0  0  0
   18.1249    8.9299   12.4324 F   0  0  0  0  0  0  0  0  0  0  0  0
   18.4462    7.6812   12.8111 C   0  0  0  0  0  0  0  0  0  0  0  0
   20.6346    7.8488   12.9696 F   0  0  0  0  0  0  0  0  0  0  0  0
   19.2463    6.3452   14.2217 F   0  0  0  0  0  0  0  0  0  0  0  0
   19.5705    7.6043   13.7716 C   0  0  0  0  0  0  0  0  0  0  0  0
   18.2697    8.7064   15.5716 F   0  0  0  0  0  0  0  0  0  0  0  0
   19.9614    9.7880   14.5742 F   0  0  0  0  0  0  0  0  0  0  0  0
   20.3118    8.1038   15.8863 F   0  0  0  0  0  0  0  0  0  0  0  0
   19.4935    8.5969   14.9751 C   0  0  0  0  0  0  0  0  0  0  0  0
  9 12  1  0  0  0
 15 12  1  0  0  0
 13 12  2  0  0  0
 12 14  2  0  0  0
  1  2  1  0  0  0
  2  4  1  0  0  0
  3  4  2  0  0  0
  4  6  1  0  0  0
  6 10  2  0  0  0
  6  8  1  0  0  0
  8  7  2  0  0  0
  7  9  1  0  0  0
 11  9  2  0  0  0
 10 11  1  0  0  0
 20 18  1  0  0  0
 21 23  1  0  0  0
 26 24  1  0  0  0
 27 29  1  0  0  0
 33 30  1  0  0  0
 20 19  1  0  0  0
 22 23  1  0  0  0
 26 25  1  0  0  0
 29 28  1  0  0  0
 33 31  1  0  0  0
 32 33  1  0  0  0
  1 20  1  0  0  0
 23 20  1  0  0  0
 23 26  1  0  0  0
 29 26  1  0  0  0
 29 33  1  0  0  0
  2  5  1  0  0  0
 15 16  1  0  0  0
 15 17  1  0  0  0
M  END
> <minimizedAffinity>
-6.68846

$$$$
3RZ7_RZ7_A_262


 33 33  0  0  0  0  0  0  0  0999 V2000
   16.5076    5.2257   13.3103 C   0  0  0  0  0  0  0  0  0  0  0  0
   17.6671    6.1250   13.3146 N   0  0  0  0  0  0  0  0  0  0  0  0
   17.0580    6.9672   15.3085 O   0  0  0  0  0  0  0  0  0  0  0  0
   17.8706    6.9244   14.3513 C   0  0  0  0  0  0  0  0  0  0  0  0
   18.2898    6.1342   12.5521 H   0  0  0  0  0  0  0  0  0  0  0  0
   19.0583    7.8042   14.3277 C   0  0  0  0  0  0  0  0  0  0  0  0
   21.1915    8.4089   13.3164 C   0  0  0  0  0  0  0  0  0  0  0  0
   20.0418    7.5849   13.3672 C   0  0  0  0  0  0  0  0  0  0  0  0
   21.4093    9.4240   14.2909 C   0  0  0  0  0  0  0  0  0  0  0  0
   19.2396    8.8105   15.3072 C   0  0  0  0  0  0  0  0  0  0  0  0
   20.3811    9.6091   15.2355 C   0  0  0  0  0  0  0  0  0  0  0  0
   22.7726   10.4191   14.3147 S   0  0  0  0  0  0  0  0  0  0  0  0
   23.9136    9.6527   13.9160 O   0  0  0  0  0  0  0  0  0  0  0  0
   22.8319   11.0231   15.6500 O   0  0  0  0  0  0  0  0  0  0  0  0
   22.4960   11.5991   13.2887 N   0  0  0  0  0  0  0  0  0  0  0  0
   22.4468   11.2222   12.3422 H   0  0  0  0  0  0  0  0  0  0  0  0
   23.2519   12.2818   13.3439 H   0  0  0  0  0  0  0  0  0  0  0  0
   18.1724    3.7638   12.6060 F   0  0  0  0  0  0  0  0  0  0  0  0
   16.2081    2.9922   12.6101 F   0  0  0  0  0  0  0  0  0  0  0  0
   17.0104    3.7897   13.2518 C   0  0  0  0  0  0  0  0  0  0  0  0
   18.0039    3.8413   15.3903 F   0  0  0  0  0  0  0  0  0  0  0  0
   17.4830    1.9195   14.5946 F   0  0  0  0  0  0  0  0  0  0  0  0
   17.0448    3.2071   14.6551 C   0  0  0  0  0  0  0  0  0  0  0  0
   14.4439    3.1598   14.5325 F   0  0  0  0  0  0  0  0  0  0  0  0
   15.6422    4.6985   15.7727 F   0  0  0  0  0  0  0  0  0  0  0  0
   15.6017    3.4606   15.2512 C   0  0  0  0  0  0  0  0  0  0  0  0
   16.6157    2.3890   16.8839 F   0  0  0  0  0  0  0  0  0  0  0  0
   15.0685    1.4294   15.3215 F   0  0  0  0  0  0  0  0  0  0  0  0
   15.4186    2.3827   16.2497 C   0  0  0  0  0  0  0  0  0  0  0  0
   13.5769    3.7781   17.1485 F   0  0  0  0  0  0  0  0  0  0  0  0
   14.6557    2.3339   18.4816 F   0  0  0  0  0  0  0  0  0  0  0  0
   13.3421    1.6528   16.9030 F   0  0  0  0  0  0  0  0  0  0  0  0
   14.2232    2.5781   17.2358 C   0  0  0  0  0  0  0  0  0  0  0  0
  9 12  1  0  0  0
 15 12  1  0  0  0
 13 12  2  0  0  0
 12 14  2  0  0  0
  1  2  1  0  0  0
  2  4  1  0  0  0
  3  4  2  0  0  0
  4  6  1  0  0  0
  6 10  2  0  0  0
  6  8  1  0  0  0
  8  7  2  0  0  0
  7  9  1  0  0  0
 11  9  2  0  0  0
 10 11  1  0  0  0
 20 18  1  0  0  0
 21 23  1  0  0  0
 26 24  1  0  0  0
 27 29  1  0  0  0
 33 30  1  0  0  0
 20 19  1  0  0  0
 22 23  1  0  0  0
 26 25  1  0  0  0
 29 28  1  0  0  0
 33 31  1  0  0  0
 32 33  1  0  0  0
  1 20  1  0  0  0
 23 20  1  0  0  0
 23 26  1  0  0  0
 29 26  1  0  0  0
 29 33  1  0  0  0
  2  5  1  0  0  0
 15 16  1  0  0  0
 15 17  1  0  0  0
M  END
> <minimizedAffinity>
-6.63877

$$$$
