2H15_B19_A_300


 25 27  0  0  0  0  0  0  0  0999 V2000
   -6.9283    6.0443   13.6514 C   0  0  0  0  0  0  0  0  0  0  0  0
   -5.6497    5.5841   12.9339 C   0  0  0  0  0  0  0  0  0  0  0  0
   -5.0603    6.6956   12.0451 C   0  0  0  0  0  0  0  0  0  0  0  0
   -4.6685    5.1732   13.8968 O   0  0  0  0  0  0  0  0  0  0  0  0
   -5.9621    4.4564   12.1494 O   0  0  0  0  0  0  0  0  0  0  0  0
   -5.5201    3.2826   12.8482 C   0  0  0  0  0  0  0  0  0  0  0  0
   -5.1486    2.3020   11.7073 C   0  0  0  0  0  0  0  0  0  0  0  0
   -4.4782    1.0893   12.1448 O   0  0  0  0  0  0  0  0  0  0  0  0
   -3.7191    0.6678   11.0150 C   0  0  0  0  0  0  0  0  0  0  0  0
   -4.4756   -0.4057   10.2293 C   0  0  0  0  0  0  0  0  0  0  0  0
   -2.3850    0.1373   11.5011 C   0  0  0  0  0  0  0  0  0  0  0  0
   -3.4999    1.8340   10.1561 O   0  0  0  0  0  0  0  0  0  0  0  0
   -4.1295    2.9520   10.7800 C   0  0  0  0  0  0  0  0  0  0  0  0
   -3.0576    3.7597   11.5378 C   0  0  0  0  0  0  0  0  0  0  0  0
   -3.0981    3.6847   12.9976 O   0  0  0  0  0  0  0  0  0  0  0  0
   -4.3764    3.8276   13.6834 C   0  0  0  0  0  0  0  0  0  0  0  0
   -4.4113    3.2774   15.0910 C   0  0  0  0  0  0  0  0  0  0  0  0
   -5.2341    2.0808   15.1030 N   0  0  0  0  0  0  0  0  0  0  0  0
   -5.4162    1.7921   14.1418 H   0  0  0  0  0  0  0  0  0  0  0  0
   -4.4804    0.8496   15.9017 S   0  0  0  0  0  0  0  0  0  0  0  0
   -3.1967    1.2818   16.5200 O   0  0  0  0  0  0  0  0  0  0  0  0
   -5.2998    0.2362   16.9863 O   0  0  0  0  0  0  0  0  0  0  0  0
   -4.1508   -0.1832   14.7000 N   0  0  0  0  0  0  0  0  0  0  0  0
   -3.5907    0.2887   13.9901 H   0  0  0  0  0  0  0  0  0  0  0  0
   -5.0228   -0.5097   14.2835 H   0  0  0  0  0  0  0  0  0  0  0  0
  1  2  1  0  0  0
  2  3  1  0  0  0
  2  4  1  0  0  0
  2  5  1  0  0  0
  4 16  1  0  0  0
  5  6  1  0  0  0
  6  7  1  0  0  0
  6 16  1  0  0  0
  7  8  1  0  0  0
  7 13  1  0  0  0
  8  9  1  0  0  0
  9 10  1  0  0  0
  9 11  1  0  0  0
  9 12  1  0  0  0
 12 13  1  0  0  0
 13 14  1  0  0  0
 14 15  1  0  0  0
 15 16  1  0  0  0
 16 17  1  0  0  0
 17 18  1  0  0  0
 18 20  1  0  0  0
 20 21  2  0  0  0
 20 22  2  0  0  0
 20 23  1  0  0  0
 18 19  1  0  0  0
 23 24  1  0  0  0
 23 25  1  0  0  0
M  END
> <minimizedAffinity>
-8.44879

$$$$
2H15_B19_A_300


 25 27  0  0  0  0  0  0  0  0999 V2000
    1.1787    3.8162   10.1985 C   0  0  0  0  0  0  0  0  0  0  0  0
   -0.3103    4.1194    9.9704 C   0  0  0  0  0  0  0  0  0  0  0  0
   -0.5308    5.0034    8.7283 C   0  0  0  0  0  0  0  0  0  0  0  0
   -1.0422    2.8946    9.8199 O   0  0  0  0  0  0  0  0  0  0  0  0
   -0.8122    4.7671   11.1164 O   0  0  0  0  0  0  0  0  0  0  0  0
   -1.5339    3.8048   11.9004 C   0  0  0  0  0  0  0  0  0  0  0  0
   -2.6379    4.6509   12.5834 C   0  0  0  0  0  0  0  0  0  0  0  0
   -3.6437    3.8770   13.2913 O   0  0  0  0  0  0  0  0  0  0  0  0
   -4.8018    4.7071   13.2962 C   0  0  0  0  0  0  0  0  0  0  0  0
   -4.9090    5.4724   14.6172 C   0  0  0  0  0  0  0  0  0  0  0  0
   -6.0219    3.8339   13.0810 C   0  0  0  0  0  0  0  0  0  0  0  0
   -4.6799    5.6609   12.1911 O   0  0  0  0  0  0  0  0  0  0  0  0
   -3.4457    5.3941   11.5269 C   0  0  0  0  0  0  0  0  0  0  0  0
   -3.7348    4.5369   10.2791 C   0  0  0  0  0  0  0  0  0  0  0  0
   -3.3140    3.1377   10.3396 O   0  0  0  0  0  0  0  0  0  0  0  0
   -1.9848    2.8144   10.8429 C   0  0  0  0  0  0  0  0  0  0  0  0
   -1.8091    1.3885   11.3131 C   0  0  0  0  0  0  0  0  0  0  0  0
   -2.9806    1.0032   12.0799 N   0  0  0  0  0  0  0  0  0  0  0  0
   -3.5023    1.8418   12.3350 H   0  0  0  0  0  0  0  0  0  0  0  0
   -3.9604    0.0040   11.2061 S   0  0  0  0  0  0  0  0  0  0  0  0
   -3.3735   -0.3441    9.8828 O   0  0  0  0  0  0  0  0  0  0  0  0
   -4.2835   -1.2815   11.8895 O   0  0  0  0  0  0  0  0  0  0  0  0
   -5.2630    0.9334   10.9630 N   0  0  0  0  0  0  0  0  0  0  0  0
   -4.9832    1.7952   10.4946 H   0  0  0  0  0  0  0  0  0  0  0  0
   -5.6925    1.1583   11.8604 H   0  0  0  0  0  0  0  0  0  0  0  0
  1  2  1  0  0  0
  2  3  1  0  0  0
  2  4  1  0  0  0
  2  5  1  0  0  0
  4 16  1  0  0  0
  5  6  1  0  0  0
  6  7  1  0  0  0
  6 16  1  0  0  0
  7  8  1  0  0  0
  7 13  1  0  0  0
  8  9  1  0  0  0
  9 10  1  0  0  0
  9 11  1  0  0  0
  9 12  1  0  0  0
 12 13  1  0  0  0
 13 14  1  0  0  0
 14 15  1  0  0  0
 15 16  1  0  0  0
 16 17  1  0  0  0
 17 18  1  0  0  0
 18 20  1  0  0  0
 20 21  2  0  0  0
 20 22  2  0  0  0
 20 23  1  0  0  0
 18 19  1  0  0  0
 23 24  1  0  0  0
 23 25  1  0  0  0
M  END
> <minimizedAffinity>
-7.24330

$$$$
2H15_B19_A_300


 25 27  0  0  0  0  0  0  0  0999 V2000
   -6.7763    4.4556   13.5273 C   0  0  0  0  0  0  0  0  0  0  0  0
   -5.2504    4.6228   13.5973 C   0  0  0  0  0  0  0  0  0  0  0  0
   -4.8369    5.6713   14.6473 C   0  0  0  0  0  0  0  0  0  0  0  0
   -4.6337    3.3657   13.9106 O   0  0  0  0  0  0  0  0  0  0  0  0
   -4.7871    5.0089   12.3242 O   0  0  0  0  0  0  0  0  0  0  0  0
   -4.2349    3.8538   11.6741 C   0  0  0  0  0  0  0  0  0  0  0  0
   -3.1151    4.4437   10.7802 C   0  0  0  0  0  0  0  0  0  0  0  0
   -2.2561    3.4539   10.1526 O   0  0  0  0  0  0  0  0  0  0  0  0
   -1.0259    4.1354    9.9237 C   0  0  0  0  0  0  0  0  0  0  0  0
   -0.9571    4.6520    8.4848 C   0  0  0  0  0  0  0  0  0  0  0  0
    0.1153    3.1785   10.2057 C   0  0  0  0  0  0  0  0  0  0  0  0
   -0.9566    5.2682   10.8500 O   0  0  0  0  0  0  0  0  0  0  0  0
   -2.1494    5.2572   11.6327 C   0  0  0  0  0  0  0  0  0  0  0  0
   -1.8407    4.5936   12.9891 C   0  0  0  0  0  0  0  0  0  0  0  0
   -2.4023    3.2605   13.2037 O   0  0  0  0  0  0  0  0  0  0  0  0
   -3.7954    3.0097   12.8560 C   0  0  0  0  0  0  0  0  0  0  0  0
   -4.1520    1.5543   12.6563 C   0  0  0  0  0  0  0  0  0  0  0  0
   -4.7390    1.3954   11.3376 N   0  0  0  0  0  0  0  0  0  0  0  0
   -4.5537    2.2339   10.7872 H   0  0  0  0  0  0  0  0  0  0  0  0
   -4.1033    0.0877   10.5580 S   0  0  0  0  0  0  0  0  0  0  0  0
   -4.2793   -1.1709   11.3338 O   0  0  0  0  0  0  0  0  0  0  0  0
   -4.6797   -0.1529    9.2038 O   0  0  0  0  0  0  0  0  0  0  0  0
   -2.5266    0.4505   10.5165 N   0  0  0  0  0  0  0  0  0  0  0  0
   -2.1879    0.6040   11.4663 H   0  0  0  0  0  0  0  0  0  0  0  0
   -2.3869    1.2970    9.9648 H   0  0  0  0  0  0  0  0  0  0  0  0
  1  2  1  0  0  0
  2  3  1  0  0  0
  2  4  1  0  0  0
  2  5  1  0  0  0
  4 16  1  0  0  0
  5  6  1  0  0  0
  6  7  1  0  0  0
  6 16  1  0  0  0
  7  8  1  0  0  0
  7 13  1  0  0  0
  8  9  1  0  0  0
  9 10  1  0  0  0
  9 11  1  0  0  0
  9 12  1  0  0  0
 12 13  1  0  0  0
 13 14  1  0  0  0
 14 15  1  0  0  0
 15 16  1  0  0  0
 16 17  1  0  0  0
 17 18  1  0  0  0
 18 20  1  0  0  0
 20 21  2  0  0  0
 20 22  2  0  0  0
 20 23  1  0  0  0
 18 19  1  0  0  0
 23 24  1  0  0  0
 23 25  1  0  0  0
M  END
> <minimizedAffinity>
-7.21255

$$$$
2H15_B19_A_300


 25 27  0  0  0  0  0  0  0  0999 V2000
   -4.2431    2.6036   15.5911 C   0  0  0  0  0  0  0  0  0  0  0  0
   -3.7301    3.5952   14.5353 C   0  0  0  0  0  0  0  0  0  0  0  0
   -2.3511    4.1695   14.9114 C   0  0  0  0  0  0  0  0  0  0  0  0
   -3.6449    2.9492   13.2570 O   0  0  0  0  0  0  0  0  0  0  0  0
   -4.6683    4.6390   14.4135 O   0  0  0  0  0  0  0  0  0  0  0  0
   -5.4570    4.4035   13.2370 C   0  0  0  0  0  0  0  0  0  0  0  0
   -5.8150    5.8306   12.7509 C   0  0  0  0  0  0  0  0  0  0  0  0
   -6.4547    5.8841   11.4473 O   0  0  0  0  0  0  0  0  0  0  0  0
   -6.1450    7.1812   10.9453 C   0  0  0  0  0  0  0  0  0  0  0  0
   -7.3014    8.1489   11.2066 C   0  0  0  0  0  0  0  0  0  0  0  0
   -5.8640    7.0691    9.4601 C   0  0  0  0  0  0  0  0  0  0  0  0
   -4.9457    7.6599   11.6368 O   0  0  0  0  0  0  0  0  0  0  0  0
   -4.5412    6.6420   12.5510 C   0  0  0  0  0  0  0  0  0  0  0  0
   -3.4044    5.8255   11.9054 C   0  0  0  0  0  0  0  0  0  0  0  0
   -3.7410    4.4688   11.4761 O   0  0  0  0  0  0  0  0  0  0  0  0
   -4.4990    3.6049   12.3726 C   0  0  0  0  0  0  0  0  0  0  0  0
   -5.1986    2.4448   11.7020 C   0  0  0  0  0  0  0  0  0  0  0  0
   -4.4483    2.0709   10.5163 N   0  0  0  0  0  0  0  0  0  0  0  0
   -3.6480    2.6956   10.4177 H   0  0  0  0  0  0  0  0  0  0  0  0
   -3.9080    0.5155   10.6209 S   0  0  0  0  0  0  0  0  0  0  0  0
   -2.4219    0.4318   10.5830 O   0  0  0  0  0  0  0  0  0  0  0  0
   -4.3520   -0.2014   11.8510 O   0  0  0  0  0  0  0  0  0  0  0  0
   -4.4953   -0.1401    9.2627 N   0  0  0  0  0  0  0  0  0  0  0  0
   -4.1603    0.3888    8.4574 H   0  0  0  0  0  0  0  0  0  0  0  0
   -5.5147   -0.1145    9.2860 H   0  0  0  0  0  0  0  0  0  0  0  0
  1  2  1  0  0  0
  2  3  1  0  0  0
  2  4  1  0  0  0
  2  5  1  0  0  0
  4 16  1  0  0  0
  5  6  1  0  0  0
  6  7  1  0  0  0
  6 16  1  0  0  0
  7  8  1  0  0  0
  7 13  1  0  0  0
  8  9  1  0  0  0
  9 10  1  0  0  0
  9 11  1  0  0  0
  9 12  1  0  0  0
 12 13  1  0  0  0
 13 14  1  0  0  0
 14 15  1  0  0  0
 15 16  1  0  0  0
 16 17  1  0  0  0
 17 18  1  0  0  0
 18 20  1  0  0  0
 20 21  2  0  0  0
 20 22  2  0  0  0
 20 23  1  0  0  0
 18 19  1  0  0  0
 23 24  1  0  0  0
 23 25  1  0  0  0
M  END
> <minimizedAffinity>
-6.92751

$$$$
2H15_B19_A_300


 25 27  0  0  0  0  0  0  0  0999 V2000
   -5.4526    5.7793   14.9698 C   0  0  0  0  0  0  0  0  0  0  0  0
   -5.3075    5.1832   13.5609 C   0  0  0  0  0  0  0  0  0  0  0  0
   -6.3593    5.7495   12.5885 C   0  0  0  0  0  0  0  0  0  0  0  0
   -3.9935    5.4489   13.0495 O   0  0  0  0  0  0  0  0  0  0  0  0
   -5.4436    3.7841   13.6545 O   0  0  0  0  0  0  0  0  0  0  0  0
   -4.1336    3.1980   13.6087 C   0  0  0  0  0  0  0  0  0  0  0  0
   -4.3747    1.8286   12.9249 C   0  0  0  0  0  0  0  0  0  0  0  0
   -3.1645    1.1050   12.5740 O   0  0  0  0  0  0  0  0  0  0  0  0
   -3.5468    0.2657   11.4878 C   0  0  0  0  0  0  0  0  0  0  0  0
   -3.8726   -1.1440   11.9865 C   0  0  0  0  0  0  0  0  0  0  0  0
   -2.4126    0.2310   10.4828 C   0  0  0  0  0  0  0  0  0  0  0  0
   -4.7377    0.8472   10.8637 O   0  0  0  0  0  0  0  0  0  0  0  0
   -5.0617    2.0370   11.5812 C   0  0  0  0  0  0  0  0  0  0  0  0
   -4.5058    3.2462   10.8038 C   0  0  0  0  0  0  0  0  0  0  0  0
   -3.3505    3.9223   11.3924 O   0  0  0  0  0  0  0  0  0  0  0  0
   -3.3555    4.2323   12.8166 C   0  0  0  0  0  0  0  0  0  0  0  0
   -1.9922    4.4782   13.4218 C   0  0  0  0  0  0  0  0  0  0  0  0
   -1.0127    3.6842   12.7013 N   0  0  0  0  0  0  0  0  0  0  0  0
   -1.4981    3.0672   12.0501 H   0  0  0  0  0  0  0  0  0  0  0  0
    0.0278    4.6471   11.8574 S   0  0  0  0  0  0  0  0  0  0  0  0
   -0.4392    4.8972   10.4659 O   0  0  0  0  0  0  0  0  0  0  0  0
    0.2654    5.9803   12.4819 O   0  0  0  0  0  0  0  0  0  0  0  0
    1.3621    3.7331   11.7960 N   0  0  0  0  0  0  0  0  0  0  0  0
    1.1409    2.8372   11.3613 H   0  0  0  0  0  0  0  0  0  0  0  0
    1.7100    3.5754   12.7418 H   0  0  0  0  0  0  0  0  0  0  0  0
  1  2  1  0  0  0
  2  3  1  0  0  0
  2  4  1  0  0  0
  2  5  1  0  0  0
  4 16  1  0  0  0
  5  6  1  0  0  0
  6  7  1  0  0  0
  6 16  1  0  0  0
  7  8  1  0  0  0
  7 13  1  0  0  0
  8  9  1  0  0  0
  9 10  1  0  0  0
  9 11  1  0  0  0
  9 12  1  0  0  0
 12 13  1  0  0  0
 13 14  1  0  0  0
 14 15  1  0  0  0
 15 16  1  0  0  0
 16 17  1  0  0  0
 17 18  1  0  0  0
 18 20  1  0  0  0
 20 21  2  0  0  0
 20 22  2  0  0  0
 20 23  1  0  0  0
 18 19  1  0  0  0
 23 24  1  0  0  0
 23 25  1  0  0  0
M  END
> <minimizedAffinity>
-6.87963

$$$$
2H15_B19_A_300


 25 27  0  0  0  0  0  0  0  0999 V2000
   -3.0942   -1.7629   10.9118 C   0  0  0  0  0  0  0  0  0  0  0  0
   -3.7504   -0.3857   10.7274 C   0  0  0  0  0  0  0  0  0  0  0  0
   -4.6262   -0.3337    9.4613 C   0  0  0  0  0  0  0  0  0  0  0  0
   -4.5513   -0.0671   11.8744 O   0  0  0  0  0  0  0  0  0  0  0  0
   -2.7319    0.5843   10.6473 O   0  0  0  0  0  0  0  0  0  0  0  0
   -2.6316    1.2412   11.9201 C   0  0  0  0  0  0  0  0  0  0  0  0
   -2.1762    2.6756   11.5511 C   0  0  0  0  0  0  0  0  0  0  0  0
   -2.1870    3.6182   12.6569 O   0  0  0  0  0  0  0  0  0  0  0  0
   -2.3465    4.8942   12.0431 C   0  0  0  0  0  0  0  0  0  0  0  0
   -0.9904    5.5837   11.8763 C   0  0  0  0  0  0  0  0  0  0  0  0
   -3.2720    5.7310   12.9036 C   0  0  0  0  0  0  0  0  0  0  0  0
   -2.9527    4.6902   10.7252 O   0  0  0  0  0  0  0  0  0  0  0  0
   -3.1556    3.2880   10.5576 C   0  0  0  0  0  0  0  0  0  0  0  0
   -4.6259    2.9617   10.8853 C   0  0  0  0  0  0  0  0  0  0  0  0
   -4.8692    2.2399   12.1335 O   0  0  0  0  0  0  0  0  0  0  0  0
   -4.0400    1.0875   12.4636 C   0  0  0  0  0  0  0  0  0  0  0  0
   -4.0274    0.7075   13.9267 C   0  0  0  0  0  0  0  0  0  0  0  0
   -4.9842    1.5412   14.6326 N   0  0  0  0  0  0  0  0  0  0  0  0
   -5.9169    1.3686   14.2576 H   0  0  0  0  0  0  0  0  0  0  0  0
   -4.9833    1.2088   16.2486 S   0  0  0  0  0  0  0  0  0  0  0  0
   -5.7794    2.1971   17.0273 O   0  0  0  0  0  0  0  0  0  0  0  0
   -5.5126   -0.1424   16.5922 O   0  0  0  0  0  0  0  0  0  0  0  0
   -3.4212    1.3899   16.6316 N   0  0  0  0  0  0  0  0  0  0  0  0
   -3.1149    2.3285   16.3753 H   0  0  0  0  0  0  0  0  0  0  0  0
   -2.8650    0.7007   16.1257 H   0  0  0  0  0  0  0  0  0  0  0  0
  1  2  1  0  0  0
  2  3  1  0  0  0
  2  4  1  0  0  0
  2  5  1  0  0  0
  4 16  1  0  0  0
  5  6  1  0  0  0
  6  7  1  0  0  0
  6 16  1  0  0  0
  7  8  1  0  0  0
  7 13  1  0  0  0
  8  9  1  0  0  0
  9 10  1  0  0  0
  9 11  1  0  0  0
  9 12  1  0  0  0
 12 13  1  0  0  0
 13 14  1  0  0  0
 14 15  1  0  0  0
 15 16  1  0  0  0
 16 17  1  0  0  0
 17 18  1  0  0  0
 18 20  1  0  0  0
 20 21  2  0  0  0
 20 22  2  0  0  0
 20 23  1  0  0  0
 18 19  1  0  0  0
 23 24  1  0  0  0
 23 25  1  0  0  0
M  END
> <minimizedAffinity>
-6.87351

$$$$
2H15_B19_A_300


 25 27  0  0  0  0  0  0  0  0999 V2000
   -3.8501    4.5692   14.0099 C   0  0  0  0  0  0  0  0  0  0  0  0
   -2.4927    4.7482   13.3123 C   0  0  0  0  0  0  0  0  0  0  0  0
   -1.5524    5.6659   14.1164 C   0  0  0  0  0  0  0  0  0  0  0  0
   -1.8663    3.4711   13.1245 O   0  0  0  0  0  0  0  0  0  0  0  0
   -2.7191    5.2939   12.0335 O   0  0  0  0  0  0  0  0  0  0  0  0
   -2.6308    4.2352   11.0676 C   0  0  0  0  0  0  0  0  0  0  0  0
   -2.0899    4.9460    9.8015 C   0  0  0  0  0  0  0  0  0  0  0  0
   -1.7179    4.0528    8.7173 O   0  0  0  0  0  0  0  0  0  0  0  0
   -0.7405    4.7746    7.9730 C   0  0  0  0  0  0  0  0  0  0  0  0
   -1.3839    5.4646    6.7680 C   0  0  0  0  0  0  0  0  0  0  0  0
    0.3367    3.8067    7.5255 C   0  0  0  0  0  0  0  0  0  0  0  0
   -0.1550    5.7862    8.8560 O   0  0  0  0  0  0  0  0  0  0  0  0
   -0.7860    5.6625   10.1296 C   0  0  0  0  0  0  0  0  0  0  0  0
    0.1332    4.8421   11.0557 C   0  0  0  0  0  0  0  0  0  0  0  0
   -0.3085    3.4850   11.3742 O   0  0  0  0  0  0  0  0  0  0  0  0
   -1.6965    3.2589   11.7578 C   0  0  0  0  0  0  0  0  0  0  0  0
   -2.1776    1.8340   11.6048 C   0  0  0  0  0  0  0  0  0  0  0  0
   -3.2176    1.7999   10.5918 N   0  0  0  0  0  0  0  0  0  0  0  0
   -2.8447    1.3691    9.7458 H   0  0  0  0  0  0  0  0  0  0  0  0
   -4.5220    0.9319   11.1085 S   0  0  0  0  0  0  0  0  0  0  0  0
   -4.9634   -0.0737   10.1031 O   0  0  0  0  0  0  0  0  0  0  0  0
   -4.2967    0.1977   12.3868 O   0  0  0  0  0  0  0  0  0  0  0  0
   -5.6630    2.0734   11.2299 N   0  0  0  0  0  0  0  0  0  0  0  0
   -5.7738    2.5404   10.3299 H   0  0  0  0  0  0  0  0  0  0  0  0
   -5.3871    2.7562   11.9356 H   0  0  0  0  0  0  0  0  0  0  0  0
  1  2  1  0  0  0
  2  3  1  0  0  0
  2  4  1  0  0  0
  2  5  1  0  0  0
  4 16  1  0  0  0
  5  6  1  0  0  0
  6  7  1  0  0  0
  6 16  1  0  0  0
  7  8  1  0  0  0
  7 13  1  0  0  0
  8  9  1  0  0  0
  9 10  1  0  0  0
  9 11  1  0  0  0
  9 12  1  0  0  0
 12 13  1  0  0  0
 13 14  1  0  0  0
 14 15  1  0  0  0
 15 16  1  0  0  0
 16 17  1  0  0  0
 17 18  1  0  0  0
 18 20  1  0  0  0
 20 21  2  0  0  0
 20 22  2  0  0  0
 20 23  1  0  0  0
 18 19  1  0  0  0
 23 24  1  0  0  0
 23 25  1  0  0  0
M  END
> <minimizedAffinity>
-6.57996

$$$$
2H15_B19_A_300


 25 27  0  0  0  0  0  0  0  0999 V2000
   -6.1917    5.6170   14.5224 C   0  0  0  0  0  0  0  0  0  0  0  0
   -4.6621    5.5584   14.3884 C   0  0  0  0  0  0  0  0  0  0  0  0
   -3.9688    6.6084   15.2771 C   0  0  0  0  0  0  0  0  0  0  0  0
   -4.1893    4.2500   14.7392 O   0  0  0  0  0  0  0  0  0  0  0  0
   -4.3261    5.7750   13.0375 O   0  0  0  0  0  0  0  0  0  0  0  0
   -4.0327    4.5051   12.4350 C   0  0  0  0  0  0  0  0  0  0  0  0
   -2.9731    4.8524   11.3591 C   0  0  0  0  0  0  0  0  0  0  0  0
   -2.3527    3.7012   10.7256 O   0  0  0  0  0  0  0  0  0  0  0  0
   -1.0821    4.1718   10.2846 C   0  0  0  0  0  0  0  0  0  0  0  0
   -1.1375    4.5638    8.8063 C   0  0  0  0  0  0  0  0  0  0  0  0
   -0.0573    3.0784   10.5121 C   0  0  0  0  0  0  0  0  0  0  0  0
   -0.7316    5.3471   11.0856 O   0  0  0  0  0  0  0  0  0  0  0  0
   -1.7975    5.5732   12.0067 C   0  0  0  0  0  0  0  0  0  0  0  0
   -1.4034    4.9736   13.3708 C   0  0  0  0  0  0  0  0  0  0  0  0
   -2.1103    3.7595   13.7761 O   0  0  0  0  0  0  0  0  0  0  0  0
   -3.5589    3.6949   13.6274 C   0  0  0  0  0  0  0  0  0  0  0  0
   -4.1378    2.2986   13.6097 C   0  0  0  0  0  0  0  0  0  0  0  0
   -5.0676    2.1658   14.7173 N   0  0  0  0  0  0  0  0  0  0  0  0
   -5.9744    1.8684   14.3571 H   0  0  0  0  0  0  0  0  0  0  0  0
   -4.5320    1.0544   15.8126 S   0  0  0  0  0  0  0  0  0  0  0  0
   -4.3714   -0.2978   15.2104 O   0  0  0  0  0  0  0  0  0  0  0  0
   -3.2286    1.4046   16.4472 O   0  0  0  0  0  0  0  0  0  0  0  0
   -5.7552    1.0043   16.8713 N   0  0  0  0  0  0  0  0  0  0  0  0
   -6.6173    0.7612   16.3835 H   0  0  0  0  0  0  0  0  0  0  0  0
   -5.8603    1.9178   17.3128 H   0  0  0  0  0  0  0  0  0  0  0  0
  1  2  1  0  0  0
  2  3  1  0  0  0
  2  4  1  0  0  0
  2  5  1  0  0  0
  4 16  1  0  0  0
  5  6  1  0  0  0
  6  7  1  0  0  0
  6 16  1  0  0  0
  7  8  1  0  0  0
  7 13  1  0  0  0
  8  9  1  0  0  0
  9 10  1  0  0  0
  9 11  1  0  0  0
  9 12  1  0  0  0
 12 13  1  0  0  0
 13 14  1  0  0  0
 14 15  1  0  0  0
 15 16  1  0  0  0
 16 17  1  0  0  0
 17 18  1  0  0  0
 18 20  1  0  0  0
 20 21  2  0  0  0
 20 22  2  0  0  0
 20 23  1  0  0  0
 18 19  1  0  0  0
 23 24  1  0  0  0
 23 25  1  0  0  0
M  END
> <minimizedAffinity>
-6.35637

$$$$
2H15_B19_A_300


 25 27  0  0  0  0  0  0  0  0999 V2000
   -4.0328    0.2177   12.0289 C   0  0  0  0  0  0  0  0  0  0  0  0
   -2.9969    1.2736   11.6128 C   0  0  0  0  0  0  0  0  0  0  0  0
   -1.6643    0.6305   11.1845 C   0  0  0  0  0  0  0  0  0  0  0  0
   -3.5120    2.0667   10.5338 O   0  0  0  0  0  0  0  0  0  0  0  0
   -2.7838    2.1403   12.7028 O   0  0  0  0  0  0  0  0  0  0  0  0
   -3.5247    3.3483   12.4719 C   0  0  0  0  0  0  0  0  0  0  0  0
   -2.6686    4.4355   13.1691 C   0  0  0  0  0  0  0  0  0  0  0  0
   -3.0984    5.8003   12.9155 O   0  0  0  0  0  0  0  0  0  0  0  0
   -1.9241    6.5880   13.0912 C   0  0  0  0  0  0  0  0  0  0  0  0
   -1.8869    7.1913   14.4972 C   0  0  0  0  0  0  0  0  0  0  0  0
   -1.9129    7.6785   12.0386 C   0  0  0  0  0  0  0  0  0  0  0  0
   -0.7619    5.7157   12.9064 O   0  0  0  0  0  0  0  0  0  0  0  0
   -1.2487    4.4060   12.6179 C   0  0  0  0  0  0  0  0  0  0  0  0
   -1.2012    4.1893   11.0926 C   0  0  0  0  0  0  0  0  0  0  0  0
   -2.4879    4.1698   10.3982 O   0  0  0  0  0  0  0  0  0  0  0  0
   -3.5873    3.3923   10.9564 C   0  0  0  0  0  0  0  0  0  0  0  0
   -4.9627    3.7924   10.4732 C   0  0  0  0  0  0  0  0  0  0  0  0
   -4.8175    4.7974    9.4351 N   0  0  0  0  0  0  0  0  0  0  0  0
   -5.1594    4.4166    8.5527 H   0  0  0  0  0  0  0  0  0  0  0  0
   -5.6740    6.1589    9.8022 S   0  0  0  0  0  0  0  0  0  0  0  0
   -4.8714    7.3981    9.6098 O   0  0  0  0  0  0  0  0  0  0  0  0
   -6.9248    6.3239    9.0071 O   0  0  0  0  0  0  0  0  0  0  0  0
   -5.9538    5.9675   11.3848 N   0  0  0  0  0  0  0  0  0  0  0  0
   -5.0666    5.8598   11.8764 H   0  0  0  0  0  0  0  0  0  0  0  0
   -6.5264    5.1361   11.5307 H   0  0  0  0  0  0  0  0  0  0  0  0
  1  2  1  0  0  0
  2  3  1  0  0  0
  2  4  1  0  0  0
  2  5  1  0  0  0
  4 16  1  0  0  0
  5  6  1  0  0  0
  6  7  1  0  0  0
  6 16  1  0  0  0
  7  8  1  0  0  0
  7 13  1  0  0  0
  8  9  1  0  0  0
  9 10  1  0  0  0
  9 11  1  0  0  0
  9 12  1  0  0  0
 12 13  1  0  0  0
 13 14  1  0  0  0
 14 15  1  0  0  0
 15 16  1  0  0  0
 16 17  1  0  0  0
 17 18  1  0  0  0
 18 20  1  0  0  0
 20 21  2  0  0  0
 20 22  2  0  0  0
 20 23  1  0  0  0
 18 19  1  0  0  0
 23 24  1  0  0  0
 23 25  1  0  0  0
M  END
> <minimizedAffinity>
-6.33654

$$$$
2H15_B19_A_300


 25 27  0  0  0  0  0  0  0  0999 V2000
   -4.3595    4.4672   14.5158 C   0  0  0  0  0  0  0  0  0  0  0  0
   -4.0393    5.5014   13.4253 C   0  0  0  0  0  0  0  0  0  0  0  0
   -3.0487    6.5706   13.9235 C   0  0  0  0  0  0  0  0  0  0  0  0
   -3.4922    4.8447   12.2729 O   0  0  0  0  0  0  0  0  0  0  0  0
   -5.2441    6.1119   13.0248 O   0  0  0  0  0  0  0  0  0  0  0  0
   -5.6618    5.5187   11.7857 C   0  0  0  0  0  0  0  0  0  0  0  0
   -6.4010    6.6736   11.0640 C   0  0  0  0  0  0  0  0  0  0  0  0
   -6.7600    6.3944    9.6838 O   0  0  0  0  0  0  0  0  0  0  0  0
   -6.8384    7.6751    9.0642 C   0  0  0  0  0  0  0  0  0  0  0  0
   -8.2887    8.1613    9.0164 C   0  0  0  0  0  0  0  0  0  0  0  0
   -6.2607    7.5709    7.6667 C   0  0  0  0  0  0  0  0  0  0  0  0
   -6.0383    8.6116    9.8572 O   0  0  0  0  0  0  0  0  0  0  0  0
   -5.4816    7.8830   10.9502 C   0  0  0  0  0  0  0  0  0  0  0  0
   -4.0300    7.5026   10.5984 C   0  0  0  0  0  0  0  0  0  0  0  0
   -3.7794    6.0912   10.3097 O   0  0  0  0  0  0  0  0  0  0  0  0
   -4.3390    5.0733   11.1903 C   0  0  0  0  0  0  0  0  0  0  0  0
   -4.4448    3.6924   10.5844 C   0  0  0  0  0  0  0  0  0  0  0  0
   -3.2846    2.9173   10.9866 N   0  0  0  0  0  0  0  0  0  0  0  0
   -2.8616    3.3519   11.8067 H   0  0  0  0  0  0  0  0  0  0  0  0
   -3.7058    1.3655   11.3561 S   0  0  0  0  0  0  0  0  0  0  0  0
   -3.0233    0.3730   10.4808 O   0  0  0  0  0  0  0  0  0  0  0  0
   -3.4136    0.9748   12.7654 O   0  0  0  0  0  0  0  0  0  0  0  0
   -5.2875    1.3522   11.0134 N   0  0  0  0  0  0  0  0  0  0  0  0
   -5.4270    1.6263   10.0409 H   0  0  0  0  0  0  0  0  0  0  0  0
   -5.7733    2.0086   11.6247 H   0  0  0  0  0  0  0  0  0  0  0  0
  1  2  1  0  0  0
  2  3  1  0  0  0
  2  4  1  0  0  0
  2  5  1  0  0  0
  4 16  1  0  0  0
  5  6  1  0  0  0
  6  7  1  0  0  0
  6 16  1  0  0  0
  7  8  1  0  0  0
  7 13  1  0  0  0
  8  9  1  0  0  0
  9 10  1  0  0  0
  9 11  1  0  0  0
  9 12  1  0  0  0
 12 13  1  0  0  0
 13 14  1  0  0  0
 14 15  1  0  0  0
 15 16  1  0  0  0
 16 17  1  0  0  0
 17 18  1  0  0  0
 18 20  1  0  0  0
 20 21  2  0  0  0
 20 22  2  0  0  0
 20 23  1  0  0  0
 18 19  1  0  0  0
 23 24  1  0  0  0
 23 25  1  0  0  0
M  END
> <minimizedAffinity>
-6.13552

$$$$
