2H15_B19_A_300
  RCSB PDB12061705443D
Coordinates from PDB:2H15:A:300 Model:1 without hydrogens
 22 24  0  0  0  0            999 V2000
   -5.9730    6.2820   13.1580   C 0  0  0  0  0  0  0  0  0  0  0  0
   -4.7800    5.4260   12.7050   C 0  0  0  0  0  0  0  0  0  0  0  0
   -3.6980    6.2740   12.0100   C 0  0  0  0  0  0  0  0  0  0  0  0
   -4.2050    4.7510   13.8330   O 0  0  0  0  0  0  0  0  0  0  0  0
   -5.2540    4.4350   11.8230   O 0  0  0  0  0  0  0  0  0  0  0  0
   -5.3600    3.1990   12.5460   C 0  0  0  0  0  0  0  0  0  0  0  0
   -5.0790    2.1240   11.4660   C 0  0  0  0  0  0  0  0  0  0  0  0
   -4.9300    0.7730   11.9800   O 0  0  0  0  0  0  0  0  0  0  0  0
   -4.1180    0.1070   11.0170   C 0  0  0  0  0  0  0  0  0  0  0  0
   -4.9860   -0.6930   10.0430   C 0  0  0  0  0  0  0  0  0  0  0  0
   -3.1520   -0.8040   11.7480   C 0  0  0  0  0  0  0  0  0  0  0  0
   -3.3680    1.1240   10.2760   O 0  0  0  0  0  0  0  0  0  0  0  0
   -3.7350    2.3980   10.8030   C 0  0  0  0  0  0  0  0  0  0  0  0
   -2.6520    2.8460   11.8040   C 0  0  0  0  0  0  0  0  0  0  0  0
   -3.0240    2.8230   13.2180   O 0  0  0  0  0  0  0  0  0  0  0  0
   -4.3090    3.3770   13.6260   C 0  0  0  0  0  0  0  0  0  0  0  0
   -4.8130    2.9000   14.9690   C 0  0  0  0  0  0  0  0  0  0  0  0
   -4.5530    1.4760   15.0850   N 0  0  0  0  0  0  0  0  0  0  0  0
   -5.3700    0.8250   16.3620   S 0  0  0  0  0  0  0  0  0  0  0  0
   -4.7400    1.1670   17.6670   O 0  0  0  0  0  0  0  0  0  0  0  0
   -6.7990    1.2430   16.4470   O 0  0  0  0  0  0  0  0  0  0  0  0
   -5.1920   -0.7630   16.1050   N 0  0  0  0  0  0  0  0  0  0  0  0
  1  2  1  0  0  0  0
  2  3  1  0  0  0  0
  2  4  1  0  0  0  0
  2  5  1  0  0  0  0
  4 16  1  0  0  0  0
  5  6  1  0  0  0  0
  6  7  1  0  0  0  0
  6 16  1  0  0  0  0
  7  8  1  0  0  0  0
  7 13  1  0  0  0  0
  8  9  1  0  0  0  0
  9 10  1  0  0  0  0
  9 11  1  0  0  0  0
  9 12  1  0  0  0  0
 12 13  1  0  0  0  0
 13 14  1  0  0  0  0
 14 15  1  0  0  0  0
 15 16  1  0  0  0  0
 16 17  1  0  0  0  0
 17 18  1  0  0  0  0
 18 19  1  0  0  0  0
 19 20  2  0  0  0  0
 19 21  2  0  0  0  0
 19 22  1  0  0  0  0
A    1
C11
A    2
C10
A    3
C12
A    4
O3
A    5
O4
A    6
C3
A    7
C4
A    8
O5
A    9
C7
A   10
C8
A   11
C9
A   12
O6
A   13
C5
A   14
C6
A   15
O2
A   16
C2
A   17
C1
A   18
N2
A   19
S1
A   20
O7
A   21
O8
A   22
N1
M  END
>  <InstanceId>
2H15_B19_A_300

>  <ChemCompId>
B19

>  <PdbId>
2H15

>  <ChainId>
A

>  <ResidueNumber>
300

>  <InsertionCode>


>  <Model>
1

>  <AltIds>


>  <MissingHeavyAtoms>
0

>  <ObservedFormula>
C12 N2 O7 S

>  <Name>
N-{[(3AS,5AR,8AR,8BS)-2,2,7,7-TETRAMETHYLTETRAHYDRO-3AH-BIS[1,3]DIOXOLO[4,5-B:4',5'-D]PYRAN-3A-YL]METHYL}SULFAMIDE

>  <SystematicName>


>  <Synonyms>


>  <Type>
NON-POLYMER

>  <Formula>
C12 H22 N2 O7 S

>  <MolecularWeight>
338.377

>  <ModifiedDate>
2011-06-04

>  <Parent>


>  <OneLetterCode>


>  <SubcomponentList>


>  <AmbiguousFlag>
N

>  <InChI>
InChI=1S/C12H22N2O7S/c1-10(2)18-7-5-17-12(6-14-22(13,15)16)9(8(7)19-10)20-11(3,4)21-12/h7-9,14H,5-6H2,1-4H3,(H2,13,15,16)/t7-,8-,9+,12+/m1/s1

>  <InChIKey>
NQRKKQKMTGLNOZ-XBWDGYHZSA-N

>  <SMILES>
CC1(O[C@@H]2CO[C@@]3([C@H]([C@@H]2O1)OC(O3)(C)C)CNS(=O)(=O)N)C

$$$$
