2V95_HCY_A_1375


 29 32  0  0  0  0  0  0  0  0999 V2000
   48.3399  -15.2493   11.7005 C   0  0  0  0  0  0  0  0  0  0  0  0
   47.8968  -15.6969   13.0925 C   0  0  0  0  0  0  0  0  0  0  0  0
   47.6462  -14.5061   13.9966 C   0  0  0  0  0  0  0  0  0  0  0  0
   47.3415  -13.1861   13.4277 C   0  0  0  0  0  0  0  0  0  0  0  0
   47.3137  -12.9666   12.1064 C   0  0  0  0  0  0  0  0  0  0  0  0
   46.8637  -11.6074   11.6500 C   0  0  0  0  0  0  0  0  0  0  0  0
   47.8049  -11.0341   10.6122 C   0  0  0  0  0  0  0  0  0  0  0  0
   48.2056  -12.0557    9.5499 C   0  0  0  0  0  0  0  0  0  0  0  0
   48.6918  -13.3914   10.1202 C   0  0  0  0  0  0  0  0  0  0  0  0
   47.6643  -14.0409   11.0805 C   0  0  0  0  0  0  0  0  0  0  0  0
   50.2985  -13.6468    8.1319 C   0  0  0  0  0  0  0  0  0  0  0  0
   49.2789  -14.3516    9.0464 C   0  0  0  0  0  0  0  0  0  0  0  0
   49.8244  -12.2978    7.5950 C   0  0  0  0  0  0  0  0  0  0  0  0
   49.3448  -11.4428    8.7606 C   0  0  0  0  0  0  0  0  0  0  0  0
   49.0810  -10.1037    8.1286 C   0  0  0  0  0  0  0  0  0  0  0  0
   50.0949   -9.9859    7.0018 C   0  0  0  0  0  0  0  0  0  0  0  0
   50.8242  -11.3020    6.9548 C   0  0  0  0  0  0  0  0  0  0  0  0
   48.6820  -12.5767    6.6229 C   0  0  0  0  0  0  0  0  0  0  0  0
   46.3693  -14.4321   10.3635 C   0  0  0  0  0  0  0  0  0  0  0  0
   47.6975  -14.6186   15.2119 O   0  0  0  0  0  0  0  0  0  0  0  0
   48.2753  -14.9895    8.2389 O   0  0  0  0  0  0  0  0  0  0  0  0
   52.0013  -11.1246    7.7737 O   0  0  0  0  0  0  0  0  0  0  0  0
   47.8058  -14.3195    7.7177 H   0  0  0  0  0  0  0  0  0  0  0  0
   51.7344  -10.9376    8.6873 H   0  0  0  0  0  0  0  0  0  0  0  0
   51.2850  -11.5917    5.5376 C   0  0  0  0  0  0  0  0  0  0  0  0
   50.9621  -10.8771    4.5963 O   0  0  0  0  0  0  0  0  0  0  0  0
   52.2017  -12.7488    5.3075 C   0  0  0  0  0  0  0  0  0  0  0  0
   53.4670  -12.4939    5.9211 O   0  0  0  0  0  0  0  0  0  0  0  0
   53.8589  -11.6954    5.5343 H   0  0  0  0  0  0  0  0  0  0  0  0
 20  3  2  0  0  0
  3  4  1  0  0  0
  3  2  1  0  0  0
  4  5  2  0  0  0
  5  6  1  0  0  0
  5 10  1  0  0  0
  6  7  1  0  0  0
  7  8  1  0  0  0
  2  1  1  0  0  0
  1 10  1  0  0  0
 10 19  1  0  0  0
 10  9  1  0  0  0
  9  8  1  0  0  0
  9 12  1  0  0  0
  8 14  1  0  0  0
 12 21  1  0  0  0
 12 11  1  0  0  0
 11 13  1  0  0  0
 13 18  1  0  0  0
 13 14  1  0  0  0
 13 17  1  0  0  0
 14 15  1  0  0  0
 15 16  1  0  0  0
 16 17  1  0  0  0
 17 22  1  0  0  0
 17 25  1  0  0  0
 25 26  2  0  0  0
 25 27  1  0  0  0
 27 28  1  0  0  0
 21 23  1  0  0  0
 22 24  1  0  0  0
 28 29  1  0  0  0
M  END
> <minimizedAffinity>
-12.25277

$$$$
2V95_HCY_A_1375


 29 32  0  0  0  0  0  0  0  0999 V2000
   48.3380  -14.4856   11.3582 C   0  0  0  0  0  0  0  0  0  0  0  0
   47.6926  -14.5147   12.7427 C   0  0  0  0  0  0  0  0  0  0  0  0
   47.2477  -13.1295   13.1687 C   0  0  0  0  0  0  0  0  0  0  0  0
   46.9847  -12.0874   12.1667 C   0  0  0  0  0  0  0  0  0  0  0  0
   47.1640  -12.2953   10.8555 C   0  0  0  0  0  0  0  0  0  0  0  0
   46.7378  -11.1944    9.9257 C   0  0  0  0  0  0  0  0  0  0  0  0
   47.8109  -10.8898    8.9025 C   0  0  0  0  0  0  0  0  0  0  0  0
   48.4226  -12.1507    8.2950 C   0  0  0  0  0  0  0  0  0  0  0  0
   48.8649  -13.1905    9.3290 C   0  0  0  0  0  0  0  0  0  0  0  0
   47.7226  -13.5993   10.2921 C   0  0  0  0  0  0  0  0  0  0  0  0
   50.7843  -13.9049    7.7780 C   0  0  0  0  0  0  0  0  0  0  0  0
   49.6596  -14.3796    8.7174 C   0  0  0  0  0  0  0  0  0  0  0  0
   50.3479  -12.8410    6.7728 C   0  0  0  0  0  0  0  0  0  0  0  0
   49.6486  -11.7127    7.5195 C   0  0  0  0  0  0  0  0  0  0  0  0
   49.4355  -10.6685    6.4582 C   0  0  0  0  0  0  0  0  0  0  0  0
   50.6140  -10.8157    5.5090 C   0  0  0  0  0  0  0  0  0  0  0  0
   51.3960  -12.0074    5.9933 C   0  0  0  0  0  0  0  0  0  0  0  0
   49.3925  -13.5138    5.7918 C   0  0  0  0  0  0  0  0  0  0  0  0
   46.5798  -14.3126    9.5646 C   0  0  0  0  0  0  0  0  0  0  0  0
   47.1043  -12.8514   14.3495 O   0  0  0  0  0  0  0  0  0  0  0  0
   48.8293  -15.3276    8.0259 O   0  0  0  0  0  0  0  0  0  0  0  0
   52.4149  -11.4752    6.8687 O   0  0  0  0  0  0  0  0  0  0  0  0
   48.4234  -14.9003    7.2554 H   0  0  0  0  0  0  0  0  0  0  0  0
   51.9946  -11.0375    7.6255 H   0  0  0  0  0  0  0  0  0  0  0  0
   52.0941  -12.6816    4.8259 C   0  0  0  0  0  0  0  0  0  0  0  0
   52.7160  -13.7281    4.9643 O   0  0  0  0  0  0  0  0  0  0  0  0
   51.9637  -12.0726    3.4680 C   0  0  0  0  0  0  0  0  0  0  0  0
   50.9598  -12.7635    2.7214 O   0  0  0  0  0  0  0  0  0  0  0  0
   51.2098  -13.6962    2.6294 H   0  0  0  0  0  0  0  0  0  0  0  0
 20  3  2  0  0  0
  3  4  1  0  0  0
  3  2  1  0  0  0
  4  5  2  0  0  0
  5  6  1  0  0  0
  5 10  1  0  0  0
  6  7  1  0  0  0
  7  8  1  0  0  0
  2  1  1  0  0  0
  1 10  1  0  0  0
 10 19  1  0  0  0
 10  9  1  0  0  0
  9  8  1  0  0  0
  9 12  1  0  0  0
  8 14  1  0  0  0
 12 21  1  0  0  0
 12 11  1  0  0  0
 11 13  1  0  0  0
 13 18  1  0  0  0
 13 14  1  0  0  0
 13 17  1  0  0  0
 14 15  1  0  0  0
 15 16  1  0  0  0
 16 17  1  0  0  0
 17 22  1  0  0  0
 17 25  1  0  0  0
 25 26  2  0  0  0
 25 27  1  0  0  0
 27 28  1  0  0  0
 21 23  1  0  0  0
 22 24  1  0  0  0
 28 29  1  0  0  0
M  END
> <minimizedAffinity>
-11.02815

$$$$
2V95_HCY_A_1375


 29 32  0  0  0  0  0  0  0  0999 V2000
   47.1061  -12.4002    8.6227 C   0  0  0  0  0  0  0  0  0  0  0  0
   46.3269  -11.8062    9.7950 C   0  0  0  0  0  0  0  0  0  0  0  0
   47.2255  -10.9642   10.6792 C   0  0  0  0  0  0  0  0  0  0  0  0
   48.4688  -10.3877   10.1490 C   0  0  0  0  0  0  0  0  0  0  0  0
   48.8816  -10.6107    8.8942 C   0  0  0  0  0  0  0  0  0  0  0  0
   50.1002   -9.8616    8.4337 C   0  0  0  0  0  0  0  0  0  0  0  0
   51.0885  -10.7823    7.7503 C   0  0  0  0  0  0  0  0  0  0  0  0
   50.4195  -11.7437    6.7700 C   0  0  0  0  0  0  0  0  0  0  0  0
   49.2152  -12.4904    7.3514 C   0  0  0  0  0  0  0  0  0  0  0  0
   48.1421  -11.5350    7.9306 C   0  0  0  0  0  0  0  0  0  0  0  0
   49.7768  -14.5229    5.8840 C   0  0  0  0  0  0  0  0  0  0  0  0
   48.6614  -13.6043    6.4175 C   0  0  0  0  0  0  0  0  0  0  0  0
   50.9917  -13.7747    5.3389 C   0  0  0  0  0  0  0  0  0  0  0  0
   51.4637  -12.7714    6.3831 C   0  0  0  0  0  0  0  0  0  0  0  0
   52.7473  -12.2414    5.8056 C   0  0  0  0  0  0  0  0  0  0  0  0
   53.3433  -13.4007    5.0230 C   0  0  0  0  0  0  0  0  0  0  0  0
   52.3303  -14.5126    5.0842 C   0  0  0  0  0  0  0  0  0  0  0  0
   50.5468  -13.0613    4.0658 C   0  0  0  0  0  0  0  0  0  0  0  0
   47.5047  -10.6576    6.8499 C   0  0  0  0  0  0  0  0  0  0  0  0
   46.9375  -10.7529   11.8473 O   0  0  0  0  0  0  0  0  0  0  0  0
   47.8936  -13.0962    5.3136 O   0  0  0  0  0  0  0  0  0  0  0  0
   52.7149  -15.3284    6.2130 O   0  0  0  0  0  0  0  0  0  0  0  0
   48.4685  -12.5730    4.7335 H   0  0  0  0  0  0  0  0  0  0  0  0
   52.6628  -14.8012    7.0256 H   0  0  0  0  0  0  0  0  0  0  0  0
   52.4252  -15.3728    3.8369 C   0  0  0  0  0  0  0  0  0  0  0  0
   51.7741  -16.4032    3.7139 O   0  0  0  0  0  0  0  0  0  0  0  0
   53.2961  -14.9095    2.7149 C   0  0  0  0  0  0  0  0  0  0  0  0
   52.4992  -14.6551    1.5562 O   0  0  0  0  0  0  0  0  0  0  0  0
   52.0447  -15.4699    1.2911 H   0  0  0  0  0  0  0  0  0  0  0  0
 20  3  2  0  0  0
  3  4  1  0  0  0
  3  2  1  0  0  0
  4  5  2  0  0  0
  5  6  1  0  0  0
  5 10  1  0  0  0
  6  7  1  0  0  0
  7  8  1  0  0  0
  2  1  1  0  0  0
  1 10  1  0  0  0
 10 19  1  0  0  0
 10  9  1  0  0  0
  9  8  1  0  0  0
  9 12  1  0  0  0
  8 14  1  0  0  0
 12 21  1  0  0  0
 12 11  1  0  0  0
 11 13  1  0  0  0
 13 18  1  0  0  0
 13 14  1  0  0  0
 13 17  1  0  0  0
 14 15  1  0  0  0
 15 16  1  0  0  0
 16 17  1  0  0  0
 17 22  1  0  0  0
 17 25  1  0  0  0
 25 26  2  0  0  0
 25 27  1  0  0  0
 27 28  1  0  0  0
 21 23  1  0  0  0
 22 24  1  0  0  0
 28 29  1  0  0  0
M  END
> <minimizedAffinity>
-9.42661

$$$$
