3I25_MV7_A_531


 68 71  0  0  0  0  0  0  0  0999 V2000
   -2.1587   17.3856   34.3997 C   0  0  0  0  0  0  0  0  0  0  0  0
    0.1266   17.7052   33.4944 C   0  0  0  0  0  0  0  0  0  0  0  0
    0.5782   18.1362   34.5422 O   0  0  0  0  0  0  0  0  0  0  0  0
   -1.1356   17.3178   33.3580 N   0  0  0  0  0  0  0  0  0  0  0  0
   -1.4049   16.9551   32.4832 H   0  0  0  0  0  0  0  0  0  0  0  0
    1.4683   18.3772   30.0817 C   0  0  0  0  0  0  0  0  0  0  0  0
    2.6622   17.6718   30.0618 C   0  0  0  0  0  0  0  0  0  0  0  0
    3.0447   16.9106   31.1708 C   0  0  0  0  0  0  0  0  0  0  0  0
    2.2185   16.9436   32.3027 C   0  0  0  0  0  0  0  0  0  0  0  0
    0.6383   18.3949   31.1961 C   0  0  0  0  0  0  0  0  0  0  0  0
    1.0141   17.6469   32.3003 C   0  0  0  0  0  0  0  0  0  0  0  0
    1.8687   19.7067   28.2335 O   0  0  0  0  0  0  0  0  0  0  0  0
    1.0415   19.1216   28.8645 C   0  0  0  0  0  0  0  0  0  0  0  0
   -0.2299   19.0792   28.4932 N   0  0  0  0  0  0  0  0  0  0  0  0
   -0.8577   18.5869   29.0701 H   0  0  0  0  0  0  0  0  0  0  0  0
   -0.7652   19.7066   27.2963 C   0  0  0  0  0  0  0  0  0  0  0  0
   -2.1046   20.3439   27.6775 C   0  0  0  0  0  0  0  0  0  0  0  0
   -0.9042   18.6509   26.2172 C   0  0  0  0  0  0  0  0  0  0  0  0
   -1.7788   17.5666   26.3966 C   0  0  0  0  0  0  0  0  0  0  0  0
   -1.9397   16.5509   25.4260 C   0  0  0  0  0  0  0  0  0  0  0  0
   -1.2355   16.6473   24.2285 C   0  0  0  0  0  0  0  0  0  0  0  0
   -0.3812   17.7412   24.0134 C   0  0  0  0  0  0  0  0  0  0  0  0
   -0.2317   18.7326   24.9876 C   0  0  0  0  0  0  0  0  0  0  0  0
    4.2435   16.1596   31.2168 N   0  0  0  0  0  0  0  0  0  0  0  0
    4.8648   15.9565   32.5524 C   0  0  0  0  0  0  0  0  0  0  0  0
    5.0024   15.5662   29.9578 S   0  0  0  0  0  0  0  0  0  0  0  0
    5.8838   14.5586   30.3569 O   0  0  0  0  0  0  0  0  0  0  0  0
    6.0657   16.7399   29.4132 C   0  0  0  0  0  0  0  0  0  0  0  0
    4.0922   15.1675   28.9613 O   0  0  0  0  0  0  0  0  0  0  0  0
   -2.6464   15.9928   34.8086 C   0  0  0  0  0  0  0  0  0  0  0  0
   -3.1789   15.3052   33.6706 O   0  0  0  0  0  0  0  0  0  0  0  0
   -2.4887   15.2153   32.9950 H   0  0  0  0  0  0  0  0  0  0  0  0
   -1.4798   15.2042   35.3447 C   0  0  0  0  0  0  0  0  0  0  0  0
   -1.9084   14.3576   36.5151 C   0  0  0  0  0  0  0  0  0  0  0  0
   -2.1313   15.1933   37.7521 C   0  0  0  0  0  0  0  0  0  0  0  0
   -1.2176   15.8742   38.1486 O   0  0  0  0  0  0  0  0  0  0  0  0
   -3.3165   15.1498   38.3554 N   0  0  0  0  0  0  0  0  0  0  0  0
   -4.0551   14.6193   37.9784 H   0  0  0  0  0  0  0  0  0  0  0  0
   -3.4931   15.9019   39.5800 C   0  0  0  0  0  0  0  0  0  0  0  0
   -2.8707   15.1412   40.7146 C   0  0  0  0  0  0  0  0  0  0  0  0
   -3.3243   14.0461   41.0531 O   0  0  0  0  0  0  0  0  0  0  0  0
   -1.8565   15.7306   41.3397 N   0  0  0  0  0  0  0  0  0  0  0  0
   -1.5694   16.6079   40.9973 H   0  0  0  0  0  0  0  0  0  0  0  0
   -1.1282   15.1961   42.4886 C   0  0  0  0  0  0  0  0  0  0  0  0
   -0.0163   16.1416   42.8055 C   0  0  0  0  0  0  0  0  0  0  0  0
    0.6513   16.7739   41.7693 C   0  0  0  0  0  0  0  0  0  0  0  0
    1.6892   17.6467   42.0656 C   0  0  0  0  0  0  0  0  0  0  0  0
    0.3385   16.3667   44.1464 C   0  0  0  0  0  0  0  0  0  0  0  0
    1.3694   17.2497   44.4572 C   0  0  0  0  0  0  0  0  0  0  0  0
    2.0380   17.8841   43.4058 C   0  0  0  0  0  0  0  0  0  0  0  0
   -4.9303   15.9672   40.1362 C   0  0  0  0  0  0  0  0  0  0  0  0
   -5.6554   14.6362   39.9899 C   0  0  0  0  0  0  0  0  0  0  0  0
   -5.2192   16.7347   41.4221 C   0  0  0  0  0  0  0  0  0  0  0  0
   -0.7640   13.5376   36.7144 O   0  0  0  0  0  0  0  0  0  0  0  0
   -1.0592   12.2777   37.3030 C   0  0  0  0  0  0  0  0  0  0  0  0
   -0.1493   12.2006   38.5242 C   0  0  0  0  0  0  0  0  0  0  0  0
    0.9512   11.3912   38.1818 O   0  0  0  0  0  0  0  0  0  0  0  0
    0.5952   10.1870   37.4603 C   0  0  0  0  0  0  0  0  0  0  0  0
   -3.3226   18.1101   33.6964 C   0  0  0  0  0  0  0  0  0  0  0  0
   -3.3602   19.5275   33.7456 O   0  0  0  0  0  0  0  0  0  0  0  0
   -2.4472   20.4184   33.2147 C   0  0  0  0  0  0  0  0  0  0  0  0
   -1.6561   21.1188   34.1152 C   0  0  0  0  0  0  0  0  0  0  0  0
   -0.7304   22.0367   33.6413 C   0  0  0  0  0  0  0  0  0  0  0  0
    0.0086   22.6865   34.5295 F   0  0  0  0  0  0  0  0  0  0  0  0
   -0.5644   22.2931   32.2743 C   0  0  0  0  0  0  0  0  0  0  0  0
   -1.3427   21.5902   31.3851 C   0  0  0  0  0  0  0  0  0  0  0  0
   -1.2092   21.8187   30.0741 F   0  0  0  0  0  0  0  0  0  0  0  0
   -2.2741   20.6411   31.8370 C   0  0  0  0  0  0  0  0  0  0  0  0
 12 13  2  0  0  0
 13 14  1  0  0  0
 13  6  1  0  0  0
 14 16  1  0  0  0
 16 18  1  0  0  0
 16 17  1  0  0  0
 18 19  2  0  0  0
 18 23  1  0  0  0
 19 20  1  0  0  0
 20 21  2  0  0  0
 21 22  1  0  0  0
 22 23  2  0  0  0
  6  7  2  0  0  0
  6 10  1  0  0  0
  7  8  1  0  0  0
  8 24  1  0  0  0
  8  9  2  0  0  0
 24 26  1  0  0  0
 24 25  1  0  0  0
 26 27  2  0  0  0
 26 28  1  0  0  0
 26 29  2  0  0  0
  9 11  1  0  0  0
 10 11  2  0  0  0
 11  2  1  0  0  0
  2  3  2  0  0  0
  2  4  1  0  0  0
  4  1  1  0  0  0
  1 59  1  0  0  0
  1 30  1  0  0  0
 59 60  1  0  0  0
 60 61  1  0  0  0
 61 62  2  0  0  0
 61 68  1  0  0  0
 62 63  1  0  0  0
 63 64  1  0  0  0
 63 65  2  0  0  0
 65 66  1  0  0  0
 66 67  1  0  0  0
 66 68  2  0  0  0
 30 31  1  0  0  0
 30 33  1  0  0  0
 33 34  1  0  0  0
 34 54  1  0  0  0
 34 35  1  0  0  0
 54 55  1  0  0  0
 55 56  1  0  0  0
 56 57  1  0  0  0
 57 58  1  0  0  0
 35 36  2  0  0  0
 35 37  1  0  0  0
 37 39  1  0  0  0
 39 51  1  0  0  0
 39 40  1  0  0  0
 51 52  1  0  0  0
 51 53  1  0  0  0
 40 41  2  0  0  0
 40 42  1  0  0  0
 42 44  1  0  0  0
 44 45  1  0  0  0
 45 46  2  0  0  0
 45 48  1  0  0  0
 46 47  1  0  0  0
 47 50  2  0  0  0
 48 49  2  0  0  0
 49 50  1  0  0  0
 14 15  1  0  0  0
  4  5  1  0  0  0
 31 32  1  0  0  0
 37 38  1  0  0  0
 42 43  1  0  0  0
M  END
> <minimizedAffinity>
-12.26778

$$$$
3I25_MV7_A_531


 68 71  0  0  0  0  0  0  0  0999 V2000
   -1.6139   16.4557   34.8014 C   0  0  0  0  0  0  0  0  0  0  0  0
    0.2966   17.5242   33.6386 C   0  0  0  0  0  0  0  0  0  0  0  0
    0.5690   18.2603   34.5721 O   0  0  0  0  0  0  0  0  0  0  0  0
   -0.6958   16.6437   33.6798 N   0  0  0  0  0  0  0  0  0  0  0  0
   -0.8240   16.0701   32.8900 H   0  0  0  0  0  0  0  0  0  0  0  0
    1.2791   18.5772   30.1999 C   0  0  0  0  0  0  0  0  0  0  0  0
    2.5259   17.9942   30.0298 C   0  0  0  0  0  0  0  0  0  0  0  0
    3.0680   17.1926   31.0394 C   0  0  0  0  0  0  0  0  0  0  0  0
    2.3407   17.0604   32.2304 C   0  0  0  0  0  0  0  0  0  0  0  0
    0.5480   18.4308   31.3725 C   0  0  0  0  0  0  0  0  0  0  0  0
    1.0818   17.6419   32.3788 C   0  0  0  0  0  0  0  0  0  0  0  0
    0.7744   20.5559   29.1164 O   0  0  0  0  0  0  0  0  0  0  0  0
    0.6854   19.3660   29.0848 C   0  0  0  0  0  0  0  0  0  0  0  0
    0.1156   18.7277   28.0729 N   0  0  0  0  0  0  0  0  0  0  0  0
    0.0679   17.7455   28.1217 H   0  0  0  0  0  0  0  0  0  0  0  0
   -0.4441   19.3719   26.8963 C   0  0  0  0  0  0  0  0  0  0  0  0
   -1.7007   20.1238   27.3443 C   0  0  0  0  0  0  0  0  0  0  0  0
   -0.7366   18.3090   25.8555 C   0  0  0  0  0  0  0  0  0  0  0  0
   -1.5185   17.1903   26.1869 C   0  0  0  0  0  0  0  0  0  0  0  0
   -1.8141   16.1669   25.2570 C   0  0  0  0  0  0  0  0  0  0  0  0
   -1.3470   16.2894   23.9510 C   0  0  0  0  0  0  0  0  0  0  0  0
   -0.5919   17.4168   23.5882 C   0  0  0  0  0  0  0  0  0  0  0  0
   -0.3059   18.4155   24.5235 C   0  0  0  0  0  0  0  0  0  0  0  0
    4.3293   16.5599   30.9307 N   0  0  0  0  0  0  0  0  0  0  0  0
    5.2304   16.6383   32.1109 C   0  0  0  0  0  0  0  0  0  0  0  0
    4.8774   15.8239   29.6380 S   0  0  0  0  0  0  0  0  0  0  0  0
    5.9911   15.0454   29.9621 O   0  0  0  0  0  0  0  0  0  0  0  0
    5.5637   16.9889   28.6498 C   0  0  0  0  0  0  0  0  0  0  0  0
    3.8515   15.1115   28.9894 O   0  0  0  0  0  0  0  0  0  0  0  0
   -1.5624   15.0248   35.3443 C   0  0  0  0  0  0  0  0  0  0  0  0
   -0.6066   14.2539   34.6069 O   0  0  0  0  0  0  0  0  0  0  0  0
    0.2706   14.6589   34.6927 H   0  0  0  0  0  0  0  0  0  0  0  0
   -1.1364   15.0650   36.7889 C   0  0  0  0  0  0  0  0  0  0  0  0
   -2.1422   14.3527   37.6557 C   0  0  0  0  0  0  0  0  0  0  0  0
   -1.7371   14.3761   39.1094 C   0  0  0  0  0  0  0  0  0  0  0  0
   -2.5590   14.0548   39.9323 O   0  0  0  0  0  0  0  0  0  0  0  0
   -0.4996   14.7464   39.4287 N   0  0  0  0  0  0  0  0  0  0  0  0
    0.1601   14.9573   38.7290 H   0  0  0  0  0  0  0  0  0  0  0  0
   -0.1469   14.8315   40.8304 C   0  0  0  0  0  0  0  0  0  0  0  0
    0.8935   15.8988   41.0084 C   0  0  0  0  0  0  0  0  0  0  0  0
    0.6005   16.9717   41.5402 O   0  0  0  0  0  0  0  0  0  0  0  0
    2.1045   15.6343   40.5283 N   0  0  0  0  0  0  0  0  0  0  0  0
    2.2388   14.7501   40.1169 H   0  0  0  0  0  0  0  0  0  0  0  0
    3.2548   16.5355   40.5549 C   0  0  0  0  0  0  0  0  0  0  0  0
    4.4029   15.8307   39.9101 C   0  0  0  0  0  0  0  0  0  0  0  0
    4.2487   14.5151   39.5043 C   0  0  0  0  0  0  0  0  0  0  0  0
    5.3192   13.8596   38.9119 C   0  0  0  0  0  0  0  0  0  0  0  0
    5.6203   16.5102   39.7341 C   0  0  0  0  0  0  0  0  0  0  0  0
    6.6976   15.8676   39.1295 C   0  0  0  0  0  0  0  0  0  0  0  0
    6.5338   14.5401   38.7224 C   0  0  0  0  0  0  0  0  0  0  0  0
    0.6661   13.6507   41.3996 C   0  0  0  0  0  0  0  0  0  0  0  0
    0.4829   13.5100   42.9047 C   0  0  0  0  0  0  0  0  0  0  0  0
    0.7590   12.3410   40.6239 C   0  0  0  0  0  0  0  0  0  0  0  0
   -2.0472   13.0184   37.1735 O   0  0  0  0  0  0  0  0  0  0  0  0
   -0.7568   12.4437   37.3328 C   0  0  0  0  0  0  0  0  0  0  0  0
   -1.0248   10.9733   37.6353 C   0  0  0  0  0  0  0  0  0  0  0  0
    0.0668   10.2335   37.1407 O   0  0  0  0  0  0  0  0  0  0  0  0
    1.2948   10.9940   37.0354 C   0  0  0  0  0  0  0  0  0  0  0  0
   -2.9971   16.6712   34.1575 C   0  0  0  0  0  0  0  0  0  0  0  0
   -3.4988   17.9953   34.0692 O   0  0  0  0  0  0  0  0  0  0  0  0
   -2.9113   19.0850   33.4556 C   0  0  0  0  0  0  0  0  0  0  0  0
   -2.9425   19.1172   32.0680 C   0  0  0  0  0  0  0  0  0  0  0  0
   -2.3571   20.1800   31.3960 C   0  0  0  0  0  0  0  0  0  0  0  0
   -2.4066   20.1785   30.0713 F   0  0  0  0  0  0  0  0  0  0  0  0
   -1.7223   21.2316   32.0692 C   0  0  0  0  0  0  0  0  0  0  0  0
   -1.7022   21.2012   33.4437 C   0  0  0  0  0  0  0  0  0  0  0  0
   -1.0982   22.1894   34.1124 F   0  0  0  0  0  0  0  0  0  0  0  0
   -2.3042   20.1468   34.1496 C   0  0  0  0  0  0  0  0  0  0  0  0
 12 13  2  0  0  0
 13 14  1  0  0  0
 13  6  1  0  0  0
 14 16  1  0  0  0
 16 18  1  0  0  0
 16 17  1  0  0  0
 18 19  2  0  0  0
 18 23  1  0  0  0
 19 20  1  0  0  0
 20 21  2  0  0  0
 21 22  1  0  0  0
 22 23  2  0  0  0
  6  7  2  0  0  0
  6 10  1  0  0  0
  7  8  1  0  0  0
  8 24  1  0  0  0
  8  9  2  0  0  0
 24 26  1  0  0  0
 24 25  1  0  0  0
 26 27  2  0  0  0
 26 28  1  0  0  0
 26 29  2  0  0  0
  9 11  1  0  0  0
 10 11  2  0  0  0
 11  2  1  0  0  0
  2  3  2  0  0  0
  2  4  1  0  0  0
  4  1  1  0  0  0
  1 59  1  0  0  0
  1 30  1  0  0  0
 59 60  1  0  0  0
 60 61  1  0  0  0
 61 62  2  0  0  0
 61 68  1  0  0  0
 62 63  1  0  0  0
 63 64  1  0  0  0
 63 65  2  0  0  0
 65 66  1  0  0  0
 66 67  1  0  0  0
 66 68  2  0  0  0
 30 31  1  0  0  0
 30 33  1  0  0  0
 33 34  1  0  0  0
 34 54  1  0  0  0
 34 35  1  0  0  0
 54 55  1  0  0  0
 55 56  1  0  0  0
 56 57  1  0  0  0
 57 58  1  0  0  0
 35 36  2  0  0  0
 35 37  1  0  0  0
 37 39  1  0  0  0
 39 51  1  0  0  0
 39 40  1  0  0  0
 51 52  1  0  0  0
 51 53  1  0  0  0
 40 41  2  0  0  0
 40 42  1  0  0  0
 42 44  1  0  0  0
 44 45  1  0  0  0
 45 46  2  0  0  0
 45 48  1  0  0  0
 46 47  1  0  0  0
 47 50  2  0  0  0
 48 49  2  0  0  0
 49 50  1  0  0  0
 14 15  1  0  0  0
  4  5  1  0  0  0
 31 32  1  0  0  0
 37 38  1  0  0  0
 42 43  1  0  0  0
M  END
> <minimizedAffinity>
-10.75456

$$$$
3I25_MV7_A_531


 68 71  0  0  0  0  0  0  0  0999 V2000
   -1.3191   14.2545   36.5729 C   0  0  0  0  0  0  0  0  0  0  0  0
   -0.3033   13.1386   38.5394 C   0  0  0  0  0  0  0  0  0  0  0  0
   -0.7416   12.0370   38.2533 O   0  0  0  0  0  0  0  0  0  0  0  0
   -0.5159   14.2158   37.7934 N   0  0  0  0  0  0  0  0  0  0  0  0
   -0.0982   15.0578   38.0863 H   0  0  0  0  0  0  0  0  0  0  0  0
    0.9256   12.5232   42.0049 C   0  0  0  0  0  0  0  0  0  0  0  0
    1.9349   13.4617   42.1587 C   0  0  0  0  0  0  0  0  0  0  0  0
    2.2156   14.3639   41.1277 C   0  0  0  0  0  0  0  0  0  0  0  0
    1.4920   14.2380   39.9339 C   0  0  0  0  0  0  0  0  0  0  0  0
    0.1938   12.4101   40.8290 C   0  0  0  0  0  0  0  0  0  0  0  0
    0.4705   13.2977   39.8016 C   0  0  0  0  0  0  0  0  0  0  0  0
    1.4581   11.3146   43.9022 O   0  0  0  0  0  0  0  0  0  0  0  0
    0.5910   11.6202   43.1410 C   0  0  0  0  0  0  0  0  0  0  0  0
   -0.6615   11.2174   43.2996 N   0  0  0  0  0  0  0  0  0  0  0  0
   -1.3206   11.4996   42.6249 H   0  0  0  0  0  0  0  0  0  0  0  0
   -1.1331   10.3894   44.3972 C   0  0  0  0  0  0  0  0  0  0  0  0
   -1.0136    8.9299   43.9493 C   0  0  0  0  0  0  0  0  0  0  0  0
   -2.5587   10.7871   44.7257 C   0  0  0  0  0  0  0  0  0  0  0  0
   -3.2817   10.0849   45.7040 C   0  0  0  0  0  0  0  0  0  0  0  0
   -4.6158   10.4092   46.0424 C   0  0  0  0  0  0  0  0  0  0  0  0
   -5.2257   11.4907   45.4120 C   0  0  0  0  0  0  0  0  0  0  0  0
   -4.5098   12.2286   44.4551 C   0  0  0  0  0  0  0  0  0  0  0  0
   -3.1932   11.8890   44.1304 C   0  0  0  0  0  0  0  0  0  0  0  0
    3.2242   15.3527   41.2189 N   0  0  0  0  0  0  0  0  0  0  0  0
    2.7825   16.7491   41.4762 C   0  0  0  0  0  0  0  0  0  0  0  0
    4.7761   15.1008   41.0160 S   0  0  0  0  0  0  0  0  0  0  0  0
    5.4399   16.3141   40.8192 O   0  0  0  0  0  0  0  0  0  0  0  0
    4.9750   14.3684   39.5231 C   0  0  0  0  0  0  0  0  0  0  0  0
    5.3031   14.3248   42.0651 O   0  0  0  0  0  0  0  0  0  0  0  0
   -0.5436   14.8636   35.4013 C   0  0  0  0  0  0  0  0  0  0  0  0
   -0.1306   13.8326   34.4969 O   0  0  0  0  0  0  0  0  0  0  0  0
   -0.9118   13.3699   34.1555 H   0  0  0  0  0  0  0  0  0  0  0  0
   -1.4446   15.8190   34.6627 C   0  0  0  0  0  0  0  0  0  0  0  0
   -0.6637   17.0135   34.1792 C   0  0  0  0  0  0  0  0  0  0  0  0
   -1.5552   18.0161   33.4876 C   0  0  0  0  0  0  0  0  0  0  0  0
   -2.7369   17.9855   33.7289 O   0  0  0  0  0  0  0  0  0  0  0  0
   -1.0110   18.8900   32.6445 N   0  0  0  0  0  0  0  0  0  0  0  0
   -0.0367   18.9177   32.5062 H   0  0  0  0  0  0  0  0  0  0  0  0
   -1.8870   19.7991   31.9356 C   0  0  0  0  0  0  0  0  0  0  0  0
   -1.1568   20.3540   30.7472 C   0  0  0  0  0  0  0  0  0  0  0  0
   -0.1387   21.0317   30.9025 O   0  0  0  0  0  0  0  0  0  0  0  0
   -1.6908   20.1105   29.5546 N   0  0  0  0  0  0  0  0  0  0  0  0
   -2.5083   19.5624   29.5344 H   0  0  0  0  0  0  0  0  0  0  0  0
   -1.1760   20.5817   28.2704 C   0  0  0  0  0  0  0  0  0  0  0  0
   -1.3883   19.4964   27.2666 C   0  0  0  0  0  0  0  0  0  0  0  0
   -0.4506   19.3075   26.2645 C   0  0  0  0  0  0  0  0  0  0  0  0
   -0.6534   18.3032   25.3281 C   0  0  0  0  0  0  0  0  0  0  0  0
   -2.5378   18.6924   27.3506 C   0  0  0  0  0  0  0  0  0  0  0  0
   -2.7462   17.6733   26.4249 C   0  0  0  0  0  0  0  0  0  0  0  0
   -1.7950   17.4889   25.4169 C   0  0  0  0  0  0  0  0  0  0  0  0
   -2.1893   21.1384   32.6386 C   0  0  0  0  0  0  0  0  0  0  0  0
   -3.6283   21.5833   32.4151 C   0  0  0  0  0  0  0  0  0  0  0  0
   -1.6229   21.4192   34.0265 C   0  0  0  0  0  0  0  0  0  0  0  0
    0.2001   16.4246   33.2153 O   0  0  0  0  0  0  0  0  0  0  0  0
    1.5260   16.9361   33.2480 C   0  0  0  0  0  0  0  0  0  0  0  0
    1.9893   16.8979   31.7957 C   0  0  0  0  0  0  0  0  0  0  0  0
    1.6249   18.1222   31.2027 O   0  0  0  0  0  0  0  0  0  0  0  0
    1.5185   18.0694   29.7593 C   0  0  0  0  0  0  0  0  0  0  0  0
   -2.4625   15.2199   36.9403 C   0  0  0  0  0  0  0  0  0  0  0  0
   -2.4446   15.8262   38.2228 O   0  0  0  0  0  0  0  0  0  0  0  0
   -3.1280   15.4310   39.3567 C   0  0  0  0  0  0  0  0  0  0  0  0
   -4.4895   15.1964   39.2199 C   0  0  0  0  0  0  0  0  0  0  0  0
   -5.2307   14.8098   40.3268 C   0  0  0  0  0  0  0  0  0  0  0  0
   -6.5278   14.5934   40.1592 F   0  0  0  0  0  0  0  0  0  0  0  0
   -4.6548   14.6510   41.5937 C   0  0  0  0  0  0  0  0  0  0  0  0
   -3.3043   14.8744   41.7230 C   0  0  0  0  0  0  0  0  0  0  0  0
   -2.7288   14.7354   42.9222 F   0  0  0  0  0  0  0  0  0  0  0  0
   -2.5268   15.2480   40.6147 C   0  0  0  0  0  0  0  0  0  0  0  0
 12 13  2  0  0  0
 13 14  1  0  0  0
 13  6  1  0  0  0
 14 16  1  0  0  0
 16 18  1  0  0  0
 16 17  1  0  0  0
 18 19  2  0  0  0
 18 23  1  0  0  0
 19 20  1  0  0  0
 20 21  2  0  0  0
 21 22  1  0  0  0
 22 23  2  0  0  0
  6  7  2  0  0  0
  6 10  1  0  0  0
  7  8  1  0  0  0
  8 24  1  0  0  0
  8  9  2  0  0  0
 24 26  1  0  0  0
 24 25  1  0  0  0
 26 27  2  0  0  0
 26 28  1  0  0  0
 26 29  2  0  0  0
  9 11  1  0  0  0
 10 11  2  0  0  0
 11  2  1  0  0  0
  2  3  2  0  0  0
  2  4  1  0  0  0
  4  1  1  0  0  0
  1 59  1  0  0  0
  1 30  1  0  0  0
 59 60  1  0  0  0
 60 61  1  0  0  0
 61 62  2  0  0  0
 61 68  1  0  0  0
 62 63  1  0  0  0
 63 64  1  0  0  0
 63 65  2  0  0  0
 65 66  1  0  0  0
 66 67  1  0  0  0
 66 68  2  0  0  0
 30 31  1  0  0  0
 30 33  1  0  0  0
 33 34  1  0  0  0
 34 54  1  0  0  0
 34 35  1  0  0  0
 54 55  1  0  0  0
 55 56  1  0  0  0
 56 57  1  0  0  0
 57 58  1  0  0  0
 35 36  2  0  0  0
 35 37  1  0  0  0
 37 39  1  0  0  0
 39 51  1  0  0  0
 39 40  1  0  0  0
 51 52  1  0  0  0
 51 53  1  0  0  0
 40 41  2  0  0  0
 40 42  1  0  0  0
 42 44  1  0  0  0
 44 45  1  0  0  0
 45 46  2  0  0  0
 45 48  1  0  0  0
 46 47  1  0  0  0
 47 50  2  0  0  0
 48 49  2  0  0  0
 49 50  1  0  0  0
 14 15  1  0  0  0
  4  5  1  0  0  0
 31 32  1  0  0  0
 37 38  1  0  0  0
 42 43  1  0  0  0
M  END
> <minimizedAffinity>
-10.36791

$$$$
3I25_MV7_A_531


 68 71  0  0  0  0  0  0  0  0999 V2000
   -1.0872   16.6355   33.5005 C   0  0  0  0  0  0  0  0  0  0  0  0
   -2.0469   15.3054   35.3590 C   0  0  0  0  0  0  0  0  0  0  0  0
   -3.0463   14.9890   34.7355 O   0  0  0  0  0  0  0  0  0  0  0  0
   -1.0815   16.0556   34.8422 N   0  0  0  0  0  0  0  0  0  0  0  0
   -0.2973   16.2364   35.4092 H   0  0  0  0  0  0  0  0  0  0  0  0
   -2.9317   14.6095   38.9131 C   0  0  0  0  0  0  0  0  0  0  0  0
   -1.7939   13.9933   39.4122 C   0  0  0  0  0  0  0  0  0  0  0  0
   -0.6724   13.8247   38.5938 C   0  0  0  0  0  0  0  0  0  0  0  0
   -0.7700   14.2378   37.2579 C   0  0  0  0  0  0  0  0  0  0  0  0
   -3.0227   15.0375   37.5942 C   0  0  0  0  0  0  0  0  0  0  0  0
   -1.9169   14.8687   36.7766 C   0  0  0  0  0  0  0  0  0  0  0  0
   -5.0920   15.3009   39.3590 O   0  0  0  0  0  0  0  0  0  0  0  0
   -4.0887   14.8475   39.8201 C   0  0  0  0  0  0  0  0  0  0  0  0
   -3.9883   14.5118   41.0981 N   0  0  0  0  0  0  0  0  0  0  0  0
   -3.1253   14.1548   41.4097 H   0  0  0  0  0  0  0  0  0  0  0  0
   -5.0593   14.6322   42.0733 C   0  0  0  0  0  0  0  0  0  0  0  0
   -5.2467   16.1248   42.3605 C   0  0  0  0  0  0  0  0  0  0  0  0
   -4.6799   13.8405   43.3093 C   0  0  0  0  0  0  0  0  0  0  0  0
   -3.3404   13.4859   43.5389 C   0  0  0  0  0  0  0  0  0  0  0  0
   -2.9343   12.7416   44.6705 C   0  0  0  0  0  0  0  0  0  0  0  0
   -3.8905   12.3790   45.6157 C   0  0  0  0  0  0  0  0  0  0  0  0
   -5.2307   12.7525   45.4237 C   0  0  0  0  0  0  0  0  0  0  0  0
   -5.6133   13.4840   44.2956 C   0  0  0  0  0  0  0  0  0  0  0  0
    0.5242   13.2135   39.0385 N   0  0  0  0  0  0  0  0  0  0  0  0
    0.6676   11.7527   38.8005 C   0  0  0  0  0  0  0  0  0  0  0  0
    1.6953   13.9478   39.8146 S   0  0  0  0  0  0  0  0  0  0  0  0
    2.9348   13.4779   39.3739 O   0  0  0  0  0  0  0  0  0  0  0  0
    1.6742   13.3949   41.3953 C   0  0  0  0  0  0  0  0  0  0  0  0
    1.5537   15.3458   39.7368 O   0  0  0  0  0  0  0  0  0  0  0  0
    0.1718   17.4659   33.2350 C   0  0  0  0  0  0  0  0  0  0  0  0
    0.7120   17.9476   34.4710 O   0  0  0  0  0  0  0  0  0  0  0  0
    0.9406   17.1953   35.0390 H   0  0  0  0  0  0  0  0  0  0  0  0
    1.2021   16.5921   32.5678 C   0  0  0  0  0  0  0  0  0  0  0  0
    2.2873   17.4345   31.9489 C   0  0  0  0  0  0  0  0  0  0  0  0
    2.0548   17.6411   30.4719 C   0  0  0  0  0  0  0  0  0  0  0  0
    2.4686   16.8020   29.7100 O   0  0  0  0  0  0  0  0  0  0  0  0
    1.4076   18.7308   30.0667 N   0  0  0  0  0  0  0  0  0  0  0  0
    1.0423   19.3720   30.7183 H   0  0  0  0  0  0  0  0  0  0  0  0
    1.2537   18.9503   28.6438 C   0  0  0  0  0  0  0  0  0  0  0  0
    2.3580   19.8477   28.1657 C   0  0  0  0  0  0  0  0  0  0  0  0
    2.1167   21.0109   27.8363 O   0  0  0  0  0  0  0  0  0  0  0  0
    3.5692   19.3066   28.0815 N   0  0  0  0  0  0  0  0  0  0  0  0
    3.6600   18.3679   28.3641 H   0  0  0  0  0  0  0  0  0  0  0  0
    4.7785   19.9770   27.6081 C   0  0  0  0  0  0  0  0  0  0  0  0
    5.0785   19.4651   26.2375 C   0  0  0  0  0  0  0  0  0  0  0  0
    4.7804   20.2548   25.1390 C   0  0  0  0  0  0  0  0  0  0  0  0
    5.0532   19.7742   23.8657 C   0  0  0  0  0  0  0  0  0  0  0  0
    5.6491   18.1899   26.0855 C   0  0  0  0  0  0  0  0  0  0  0  0
    5.9393   17.7018   24.8141 C   0  0  0  0  0  0  0  0  0  0  0  0
    5.6358   18.5051   23.7107 C   0  0  0  0  0  0  0  0  0  0  0  0
    0.0654   19.8367   28.2175 C   0  0  0  0  0  0  0  0  0  0  0  0
   -0.6573   19.2697   27.0031 C   0  0  0  0  0  0  0  0  0  0  0  0
   -0.8285   20.4781   29.2736 C   0  0  0  0  0  0  0  0  0  0  0  0
    3.4310   16.6077   32.1229 O   0  0  0  0  0  0  0  0  0  0  0  0
    4.5628   17.2984   32.6354 C   0  0  0  0  0  0  0  0  0  0  0  0
    5.7596   16.6110   31.9869 C   0  0  0  0  0  0  0  0  0  0  0  0
    6.1155   15.5206   32.8041 O   0  0  0  0  0  0  0  0  0  0  0  0
    7.5028   15.5236   33.2196 C   0  0  0  0  0  0  0  0  0  0  0  0
   -2.2911   17.5962   33.5426 C   0  0  0  0  0  0  0  0  0  0  0  0
   -2.1154   18.8684   34.1453 O   0  0  0  0  0  0  0  0  0  0  0  0
   -2.0573   20.1004   33.5226 C   0  0  0  0  0  0  0  0  0  0  0  0
   -3.2374   20.5828   32.9728 C   0  0  0  0  0  0  0  0  0  0  0  0
   -3.2375   21.8085   32.3234 C   0  0  0  0  0  0  0  0  0  0  0  0
   -4.3822   22.2384   31.8114 F   0  0  0  0  0  0  0  0  0  0  0  0
   -2.0794   22.5854   32.1928 C   0  0  0  0  0  0  0  0  0  0  0  0
   -0.9149   22.1090   32.7474 C   0  0  0  0  0  0  0  0  0  0  0  0
    0.2074   22.8274   32.6332 F   0  0  0  0  0  0  0  0  0  0  0  0
   -0.8909   20.8802   33.4270 C   0  0  0  0  0  0  0  0  0  0  0  0
 12 13  2  0  0  0
 13 14  1  0  0  0
 13  6  1  0  0  0
 14 16  1  0  0  0
 16 18  1  0  0  0
 16 17  1  0  0  0
 18 19  2  0  0  0
 18 23  1  0  0  0
 19 20  1  0  0  0
 20 21  2  0  0  0
 21 22  1  0  0  0
 22 23  2  0  0  0
  6  7  2  0  0  0
  6 10  1  0  0  0
  7  8  1  0  0  0
  8 24  1  0  0  0
  8  9  2  0  0  0
 24 26  1  0  0  0
 24 25  1  0  0  0
 26 27  2  0  0  0
 26 28  1  0  0  0
 26 29  2  0  0  0
  9 11  1  0  0  0
 10 11  2  0  0  0
 11  2  1  0  0  0
  2  3  2  0  0  0
  2  4  1  0  0  0
  4  1  1  0  0  0
  1 59  1  0  0  0
  1 30  1  0  0  0
 59 60  1  0  0  0
 60 61  1  0  0  0
 61 62  2  0  0  0
 61 68  1  0  0  0
 62 63  1  0  0  0
 63 64  1  0  0  0
 63 65  2  0  0  0
 65 66  1  0  0  0
 66 67  1  0  0  0
 66 68  2  0  0  0
 30 31  1  0  0  0
 30 33  1  0  0  0
 33 34  1  0  0  0
 34 54  1  0  0  0
 34 35  1  0  0  0
 54 55  1  0  0  0
 55 56  1  0  0  0
 56 57  1  0  0  0
 57 58  1  0  0  0
 35 36  2  0  0  0
 35 37  1  0  0  0
 37 39  1  0  0  0
 39 51  1  0  0  0
 39 40  1  0  0  0
 51 52  1  0  0  0
 51 53  1  0  0  0
 40 41  2  0  0  0
 40 42  1  0  0  0
 42 44  1  0  0  0
 44 45  1  0  0  0
 45 46  2  0  0  0
 45 48  1  0  0  0
 46 47  1  0  0  0
 47 50  2  0  0  0
 48 49  2  0  0  0
 49 50  1  0  0  0
 14 15  1  0  0  0
  4  5  1  0  0  0
 31 32  1  0  0  0
 37 38  1  0  0  0
 42 43  1  0  0  0
M  END
> <minimizedAffinity>
-10.27083

$$$$
3I25_MV7_A_531


 68 71  0  0  0  0  0  0  0  0999 V2000
    5.1057   16.5901   29.3658 C   0  0  0  0  0  0  0  0  0  0  0  0
    5.7505   17.7842   27.2916 C   0  0  0  0  0  0  0  0  0  0  0  0
    6.6891   17.0436   27.0503 O   0  0  0  0  0  0  0  0  0  0  0  0
    4.9564   17.6235   28.3430 N   0  0  0  0  0  0  0  0  0  0  0  0
    4.2052   18.2520   28.4420 H   0  0  0  0  0  0  0  0  0  0  0  0
    4.6357   21.1454   26.1264 C   0  0  0  0  0  0  0  0  0  0  0  0
    5.0869   21.1966   24.8161 C   0  0  0  0  0  0  0  0  0  0  0  0
    5.7432   20.0952   24.2576 C   0  0  0  0  0  0  0  0  0  0  0  0
    5.9773   18.9864   25.0826 C   0  0  0  0  0  0  0  0  0  0  0  0
    4.8497   20.0390   26.9396 C   0  0  0  0  0  0  0  0  0  0  0  0
    5.5039   18.9462   26.3939 C   0  0  0  0  0  0  0  0  0  0  0  0
    2.7119   22.1561   26.9148 O   0  0  0  0  0  0  0  0  0  0  0  0
    3.8736   22.2989   26.6802 C   0  0  0  0  0  0  0  0  0  0  0  0
    4.5110   23.4322   26.9360 N   0  0  0  0  0  0  0  0  0  0  0  0
    5.4667   23.4805   26.7047 H   0  0  0  0  0  0  0  0  0  0  0  0
    3.9019   24.6091   27.5332 C   0  0  0  0  0  0  0  0  0  0  0  0
    4.4311   25.8293   26.7741 C   0  0  0  0  0  0  0  0  0  0  0  0
    4.2513   24.6394   29.0081 C   0  0  0  0  0  0  0  0  0  0  0  0
    5.4052   23.9891   29.4755 C   0  0  0  0  0  0  0  0  0  0  0  0
    5.7722   23.9797   30.8411 C   0  0  0  0  0  0  0  0  0  0  0  0
    4.9831   24.6741   31.7544 C   0  0  0  0  0  0  0  0  0  0  0  0
    3.8433   25.3602   31.3042 C   0  0  0  0  0  0  0  0  0  0  0  0
    3.4942   25.3534   29.9506 C   0  0  0  0  0  0  0  0  0  0  0  0
    6.2219   20.0741   22.9259 N   0  0  0  0  0  0  0  0  0  0  0  0
    7.4751   20.8234   22.6446 C   0  0  0  0  0  0  0  0  0  0  0  0
    5.5033   19.3635   21.7045 S   0  0  0  0  0  0  0  0  0  0  0  0
    4.5975   18.4065   22.1682 O   0  0  0  0  0  0  0  0  0  0  0  0
    6.6422   18.4003   20.9429 C   0  0  0  0  0  0  0  0  0  0  0  0
    4.9367   20.3108   20.8315 O   0  0  0  0  0  0  0  0  0  0  0  0
    3.7674   16.2465   30.0261 C   0  0  0  0  0  0  0  0  0  0  0  0
    3.9714   15.3125   31.0926 O   0  0  0  0  0  0  0  0  0  0  0  0
    4.5627   15.7025   31.7553 H   0  0  0  0  0  0  0  0  0  0  0  0
    3.1667   17.5048   30.5970 C   0  0  0  0  0  0  0  0  0  0  0  0
    1.6815   17.5418   30.3453 C   0  0  0  0  0  0  0  0  0  0  0  0
    1.3301   18.5077   29.2400 C   0  0  0  0  0  0  0  0  0  0  0  0
    2.2259   19.1314   28.7259 O   0  0  0  0  0  0  0  0  0  0  0  0
    0.0568   18.6354   28.8752 N   0  0  0  0  0  0  0  0  0  0  0  0
   -0.6433   18.0767   29.2837 H   0  0  0  0  0  0  0  0  0  0  0  0
   -0.2736   19.6163   27.8627 C   0  0  0  0  0  0  0  0  0  0  0  0
   -1.2976   20.5640   28.4164 C   0  0  0  0  0  0  0  0  0  0  0  0
   -1.9960   21.2392   27.6574 O   0  0  0  0  0  0  0  0  0  0  0  0
   -1.3675   20.6563   29.7405 N   0  0  0  0  0  0  0  0  0  0  0  0
   -0.7643   20.0782   30.2613 H   0  0  0  0  0  0  0  0  0  0  0  0
   -2.2574   21.5369   30.4945 C   0  0  0  0  0  0  0  0  0  0  0  0
   -1.7918   21.5516   31.9135 C   0  0  0  0  0  0  0  0  0  0  0  0
   -2.4007   20.7154   32.8351 C   0  0  0  0  0  0  0  0  0  0  0  0
   -1.9715   20.7359   34.1549 C   0  0  0  0  0  0  0  0  0  0  0  0
   -0.7516   22.4178   32.2907 C   0  0  0  0  0  0  0  0  0  0  0  0
   -0.3033   22.4384   33.6089 C   0  0  0  0  0  0  0  0  0  0  0  0
   -0.9228   21.5913   34.5327 C   0  0  0  0  0  0  0  0  0  0  0  0
   -1.0930   19.1029   26.6609 C   0  0  0  0  0  0  0  0  0  0  0  0
   -0.2426   18.9882   25.4029 C   0  0  0  0  0  0  0  0  0  0  0  0
   -2.1294   18.0012   26.8558 C   0  0  0  0  0  0  0  0  0  0  0  0
    1.1912   18.0550   31.5774 O   0  0  0  0  0  0  0  0  0  0  0  0
    1.4061   17.1883   32.6835 C   0  0  0  0  0  0  0  0  0  0  0  0
    0.1882   17.3957   33.5774 C   0  0  0  0  0  0  0  0  0  0  0  0
   -0.8800   16.6724   33.0121 O   0  0  0  0  0  0  0  0  0  0  0  0
   -2.1627   16.9357   33.6307 C   0  0  0  0  0  0  0  0  0  0  0  0
    5.9961   17.2729   30.4218 C   0  0  0  0  0  0  0  0  0  0  0  0
    6.3413   16.5396   31.5861 O   0  0  0  0  0  0  0  0  0  0  0  0
    6.6980   17.0356   32.8254 C   0  0  0  0  0  0  0  0  0  0  0  0
    7.3675   16.1699   33.6798 C   0  0  0  0  0  0  0  0  0  0  0  0
    7.7395   16.6080   34.9422 C   0  0  0  0  0  0  0  0  0  0  0  0
    8.3780   15.7550   35.7308 F   0  0  0  0  0  0  0  0  0  0  0  0
    7.4577   17.9022   35.3975 C   0  0  0  0  0  0  0  0  0  0  0  0
    6.8035   18.7598   34.5448 C   0  0  0  0  0  0  0  0  0  0  0  0
    6.5166   19.9999   34.9552 F   0  0  0  0  0  0  0  0  0  0  0  0
    6.4325   18.3483   33.2543 C   0  0  0  0  0  0  0  0  0  0  0  0
 12 13  2  0  0  0
 13 14  1  0  0  0
 13  6  1  0  0  0
 14 16  1  0  0  0
 16 18  1  0  0  0
 16 17  1  0  0  0
 18 19  2  0  0  0
 18 23  1  0  0  0
 19 20  1  0  0  0
 20 21  2  0  0  0
 21 22  1  0  0  0
 22 23  2  0  0  0
  6  7  2  0  0  0
  6 10  1  0  0  0
  7  8  1  0  0  0
  8 24  1  0  0  0
  8  9  2  0  0  0
 24 26  1  0  0  0
 24 25  1  0  0  0
 26 27  2  0  0  0
 26 28  1  0  0  0
 26 29  2  0  0  0
  9 11  1  0  0  0
 10 11  2  0  0  0
 11  2  1  0  0  0
  2  3  2  0  0  0
  2  4  1  0  0  0
  4  1  1  0  0  0
  1 59  1  0  0  0
  1 30  1  0  0  0
 59 60  1  0  0  0
 60 61  1  0  0  0
 61 62  2  0  0  0
 61 68  1  0  0  0
 62 63  1  0  0  0
 63 64  1  0  0  0
 63 65  2  0  0  0
 65 66  1  0  0  0
 66 67  1  0  0  0
 66 68  2  0  0  0
 30 31  1  0  0  0
 30 33  1  0  0  0
 33 34  1  0  0  0
 34 54  1  0  0  0
 34 35  1  0  0  0
 54 55  1  0  0  0
 55 56  1  0  0  0
 56 57  1  0  0  0
 57 58  1  0  0  0
 35 36  2  0  0  0
 35 37  1  0  0  0
 37 39  1  0  0  0
 39 51  1  0  0  0
 39 40  1  0  0  0
 51 52  1  0  0  0
 51 53  1  0  0  0
 40 41  2  0  0  0
 40 42  1  0  0  0
 42 44  1  0  0  0
 44 45  1  0  0  0
 45 46  2  0  0  0
 45 48  1  0  0  0
 46 47  1  0  0  0
 47 50  2  0  0  0
 48 49  2  0  0  0
 49 50  1  0  0  0
 14 15  1  0  0  0
  4  5  1  0  0  0
 31 32  1  0  0  0
 37 38  1  0  0  0
 42 43  1  0  0  0
M  END
> <minimizedAffinity>
-10.19054

$$$$
3I25_MV7_A_531


 68 71  0  0  0  0  0  0  0  0999 V2000
   -1.6983   16.9817   33.7744 C   0  0  0  0  0  0  0  0  0  0  0  0
   -2.3033   15.5093   35.6745 C   0  0  0  0  0  0  0  0  0  0  0  0
   -3.0451   14.8056   35.0095 O   0  0  0  0  0  0  0  0  0  0  0  0
   -1.6274   16.5307   35.1629 N   0  0  0  0  0  0  0  0  0  0  0  0
   -1.0291   17.0252   35.7685 H   0  0  0  0  0  0  0  0  0  0  0  0
   -0.8080   14.5457   38.9508 C   0  0  0  0  0  0  0  0  0  0  0  0
   -1.8249   14.8070   39.8568 C   0  0  0  0  0  0  0  0  0  0  0  0
   -3.0629   15.2746   39.4046 C   0  0  0  0  0  0  0  0  0  0  0  0
   -3.2061   15.5240   38.0327 C   0  0  0  0  0  0  0  0  0  0  0  0
   -0.9551   14.7737   37.5879 C   0  0  0  0  0  0  0  0  0  0  0  0
   -2.1776   15.2419   37.1339 C   0  0  0  0  0  0  0  0  0  0  0  0
    1.0139   13.1314   38.7935 O   0  0  0  0  0  0  0  0  0  0  0  0
    0.4779   13.9777   39.4426 C   0  0  0  0  0  0  0  0  0  0  0  0
    1.0106   14.4544   40.5584 N   0  0  0  0  0  0  0  0  0  0  0  0
    0.5052   15.1433   41.0474 H   0  0  0  0  0  0  0  0  0  0  0  0
    2.2867   14.0341   41.1130 C   0  0  0  0  0  0  0  0  0  0  0  0
    2.1270   13.9860   42.6353 C   0  0  0  0  0  0  0  0  0  0  0  0
    3.3547   15.0131   40.6662 C   0  0  0  0  0  0  0  0  0  0  0  0
    4.4257   14.5769   39.8691 C   0  0  0  0  0  0  0  0  0  0  0  0
    5.4518   15.4463   39.4324 C   0  0  0  0  0  0  0  0  0  0  0  0
    5.3796   16.7952   39.7704 C   0  0  0  0  0  0  0  0  0  0  0  0
    4.2992   17.2602   40.5380 C   0  0  0  0  0  0  0  0  0  0  0  0
    3.2972   16.3838   40.9647 C   0  0  0  0  0  0  0  0  0  0  0  0
   -4.1471   15.5535   40.2705 N   0  0  0  0  0  0  0  0  0  0  0  0
   -5.0745   16.6431   39.8656 C   0  0  0  0  0  0  0  0  0  0  0  0
   -4.4201   14.8370   41.6580 S   0  0  0  0  0  0  0  0  0  0  0  0
   -5.2221   15.6444   42.4682 O   0  0  0  0  0  0  0  0  0  0  0  0
   -2.9806   14.8348   42.5139 C   0  0  0  0  0  0  0  0  0  0  0  0
   -4.9274   13.5387   41.4646 O   0  0  0  0  0  0  0  0  0  0  0  0
   -0.4352   17.7407   33.3582 C   0  0  0  0  0  0  0  0  0  0  0  0
    0.4982   17.7735   34.4441 O   0  0  0  0  0  0  0  0  0  0  0  0
    0.7384   16.8668   34.6915 H   0  0  0  0  0  0  0  0  0  0  0  0
    0.2039   17.0260   32.1959 C   0  0  0  0  0  0  0  0  0  0  0  0
    1.4764   17.7203   31.7847 C   0  0  0  0  0  0  0  0  0  0  0  0
    1.5619   17.8802   30.2863 C   0  0  0  0  0  0  0  0  0  0  0  0
    2.2532   17.1054   29.6719 O   0  0  0  0  0  0  0  0  0  0  0  0
    0.8780   18.8606   29.7019 N   0  0  0  0  0  0  0  0  0  0  0  0
    0.2865   19.4461   30.2279 H   0  0  0  0  0  0  0  0  0  0  0  0
    1.0249   19.0452   28.2733 C   0  0  0  0  0  0  0  0  0  0  0  0
    2.1202   20.0399   28.0194 C   0  0  0  0  0  0  0  0  0  0  0  0
    1.8612   21.2417   27.9284 O   0  0  0  0  0  0  0  0  0  0  0  0
    3.3445   19.5478   27.8594 N   0  0  0  0  0  0  0  0  0  0  0  0
    3.4492   18.5727   27.9463 H   0  0  0  0  0  0  0  0  0  0  0  0
    4.5497   20.3210   27.5664 C   0  0  0  0  0  0  0  0  0  0  0  0
    4.9651   20.0076   26.1665 C   0  0  0  0  0  0  0  0  0  0  0  0
    5.3905   18.7261   25.8569 C   0  0  0  0  0  0  0  0  0  0  0  0
    5.7832   18.4387   24.5569 C   0  0  0  0  0  0  0  0  0  0  0  0
    4.9255   21.0184   25.1911 C   0  0  0  0  0  0  0  0  0  0  0  0
    5.3047   20.7394   23.8806 C   0  0  0  0  0  0  0  0  0  0  0  0
    5.7323   19.4435   23.5762 C   0  0  0  0  0  0  0  0  0  0  0  0
   -0.1154   19.8055   27.5654 C   0  0  0  0  0  0  0  0  0  0  0  0
   -0.3101   19.3287   26.1325 C   0  0  0  0  0  0  0  0  0  0  0  0
   -1.3938   20.1468   28.3237 C   0  0  0  0  0  0  0  0  0  0  0  0
    2.4644   16.7877   32.2045 O   0  0  0  0  0  0  0  0  0  0  0  0
    3.6310   17.3949   32.7439 C   0  0  0  0  0  0  0  0  0  0  0  0
    4.7818   16.5259   32.2479 C   0  0  0  0  0  0  0  0  0  0  0  0
    5.9806   17.1188   32.6893 O   0  0  0  0  0  0  0  0  0  0  0  0
    5.7892   18.3129   33.4860 C   0  0  0  0  0  0  0  0  0  0  0  0
   -2.8702   17.9820   33.7938 C   0  0  0  0  0  0  0  0  0  0  0  0
   -2.8731   19.0328   32.8406 O   0  0  0  0  0  0  0  0  0  0  0  0
   -2.1599   20.2154   32.8809 C   0  0  0  0  0  0  0  0  0  0  0  0
   -1.8443   20.8007   31.6621 C   0  0  0  0  0  0  0  0  0  0  0  0
   -1.1183   21.9823   31.6393 C   0  0  0  0  0  0  0  0  0  0  0  0
   -0.8359   22.5134   30.4580 F   0  0  0  0  0  0  0  0  0  0  0  0
   -0.6798   22.6130   32.8105 C   0  0  0  0  0  0  0  0  0  0  0  0
   -1.0029   22.0357   34.0159 C   0  0  0  0  0  0  0  0  0  0  0  0
   -0.5926   22.6133   35.1502 F   0  0  0  0  0  0  0  0  0  0  0  0
   -1.7535   20.8498   34.0683 C   0  0  0  0  0  0  0  0  0  0  0  0
 12 13  2  0  0  0
 13 14  1  0  0  0
 13  6  1  0  0  0
 14 16  1  0  0  0
 16 18  1  0  0  0
 16 17  1  0  0  0
 18 19  2  0  0  0
 18 23  1  0  0  0
 19 20  1  0  0  0
 20 21  2  0  0  0
 21 22  1  0  0  0
 22 23  2  0  0  0
  6  7  2  0  0  0
  6 10  1  0  0  0
  7  8  1  0  0  0
  8 24  1  0  0  0
  8  9  2  0  0  0
 24 26  1  0  0  0
 24 25  1  0  0  0
 26 27  2  0  0  0
 26 28  1  0  0  0
 26 29  2  0  0  0
  9 11  1  0  0  0
 10 11  2  0  0  0
 11  2  1  0  0  0
  2  3  2  0  0  0
  2  4  1  0  0  0
  4  1  1  0  0  0
  1 59  1  0  0  0
  1 30  1  0  0  0
 59 60  1  0  0  0
 60 61  1  0  0  0
 61 62  2  0  0  0
 61 68  1  0  0  0
 62 63  1  0  0  0
 63 64  1  0  0  0
 63 65  2  0  0  0
 65 66  1  0  0  0
 66 67  1  0  0  0
 66 68  2  0  0  0
 30 31  1  0  0  0
 30 33  1  0  0  0
 33 34  1  0  0  0
 34 54  1  0  0  0
 34 35  1  0  0  0
 54 55  1  0  0  0
 55 56  1  0  0  0
 56 57  1  0  0  0
 57 58  1  0  0  0
 35 36  2  0  0  0
 35 37  1  0  0  0
 37 39  1  0  0  0
 39 51  1  0  0  0
 39 40  1  0  0  0
 51 52  1  0  0  0
 51 53  1  0  0  0
 40 41  2  0  0  0
 40 42  1  0  0  0
 42 44  1  0  0  0
 44 45  1  0  0  0
 45 46  2  0  0  0
 45 48  1  0  0  0
 46 47  1  0  0  0
 47 50  2  0  0  0
 48 49  2  0  0  0
 49 50  1  0  0  0
 14 15  1  0  0  0
  4  5  1  0  0  0
 31 32  1  0  0  0
 37 38  1  0  0  0
 42 43  1  0  0  0
M  END
> <minimizedAffinity>
-10.05024

$$$$
3I25_MV7_A_531


 68 71  0  0  0  0  0  0  0  0999 V2000
    5.1884   16.6228   29.7320 C   0  0  0  0  0  0  0  0  0  0  0  0
    5.7772   17.7750   27.6178 C   0  0  0  0  0  0  0  0  0  0  0  0
    6.6814   17.0035   27.3445 O   0  0  0  0  0  0  0  0  0  0  0  0
    5.0256   17.6496   28.7046 N   0  0  0  0  0  0  0  0  0  0  0  0
    4.2988   18.3020   28.8290 H   0  0  0  0  0  0  0  0  0  0  0  0
    4.6643   21.1363   26.4509 C   0  0  0  0  0  0  0  0  0  0  0  0
    5.1035   21.1811   25.1362 C   0  0  0  0  0  0  0  0  0  0  0  0
    5.7503   20.0751   24.5756 C   0  0  0  0  0  0  0  0  0  0  0  0
    5.9879   18.9684   25.4025 C   0  0  0  0  0  0  0  0  0  0  0  0
    4.8816   20.0320   27.2660 C   0  0  0  0  0  0  0  0  0  0  0  0
    5.5266   18.9348   26.7182 C   0  0  0  0  0  0  0  0  0  0  0  0
    2.7798   22.1296   27.3487 O   0  0  0  0  0  0  0  0  0  0  0  0
    3.9117   22.2946   27.0075 C   0  0  0  0  0  0  0  0  0  0  0  0
    4.5283   23.4592   27.1479 N   0  0  0  0  0  0  0  0  0  0  0  0
    5.4588   23.5238   26.8328 H   0  0  0  0  0  0  0  0  0  0  0  0
    3.9310   24.6480   27.7333 C   0  0  0  0  0  0  0  0  0  0  0  0
    4.4674   25.8548   26.9580 C   0  0  0  0  0  0  0  0  0  0  0  0
    4.2859   24.6927   29.2066 C   0  0  0  0  0  0  0  0  0  0  0  0
    5.4529   24.0654   29.6727 C   0  0  0  0  0  0  0  0  0  0  0  0
    5.8256   24.0701   31.0367 C   0  0  0  0  0  0  0  0  0  0  0  0
    5.0283   24.7558   31.9494 C   0  0  0  0  0  0  0  0  0  0  0  0
    3.8748   25.4193   31.5002 C   0  0  0  0  0  0  0  0  0  0  0  0
    3.5203   25.3987   30.1482 C   0  0  0  0  0  0  0  0  0  0  0  0
    6.2166   20.0474   23.2396 N   0  0  0  0  0  0  0  0  0  0  0  0
    7.2806   21.0193   22.8732 C   0  0  0  0  0  0  0  0  0  0  0  0
    5.6598   19.1040   22.0937 S   0  0  0  0  0  0  0  0  0  0  0  0
    6.6334   18.1756   21.7178 O   0  0  0  0  0  0  0  0  0  0  0  0
    5.5279   20.0275   20.7028 C   0  0  0  0  0  0  0  0  0  0  0  0
    4.4327   18.5254   22.4678 O   0  0  0  0  0  0  0  0  0  0  0  0
    3.8446   16.2050   30.3358 C   0  0  0  0  0  0  0  0  0  0  0  0
    4.0574   15.3297   31.4494 O   0  0  0  0  0  0  0  0  0  0  0  0
    4.5816   15.7877   32.1250 H   0  0  0  0  0  0  0  0  0  0  0  0
    3.1235   17.4354   30.8221 C   0  0  0  0  0  0  0  0  0  0  0  0
    1.6714   17.3884   30.4224 C   0  0  0  0  0  0  0  0  0  0  0  0
    1.3781   18.3362   29.2850 C   0  0  0  0  0  0  0  0  0  0  0  0
    2.3048   18.9233   28.7828 O   0  0  0  0  0  0  0  0  0  0  0  0
    0.1198   18.4887   28.8801 N   0  0  0  0  0  0  0  0  0  0  0  0
   -0.6067   17.9588   29.2810 H   0  0  0  0  0  0  0  0  0  0  0  0
   -0.1548   19.4531   27.8356 C   0  0  0  0  0  0  0  0  0  0  0  0
   -1.1375   20.4643   28.3505 C   0  0  0  0  0  0  0  0  0  0  0  0
   -1.8849   21.0592   27.5712 O   0  0  0  0  0  0  0  0  0  0  0  0
   -1.1171   20.7005   29.6584 N   0  0  0  0  0  0  0  0  0  0  0  0
   -0.4808   20.1772   30.1972 H   0  0  0  0  0  0  0  0  0  0  0  0
   -1.9525   21.6657   30.3701 C   0  0  0  0  0  0  0  0  0  0  0  0
   -1.6117   21.5827   31.8219 C   0  0  0  0  0  0  0  0  0  0  0  0
   -2.2851   20.6769   32.6252 C   0  0  0  0  0  0  0  0  0  0  0  0
   -1.9721   20.6064   33.9756 C   0  0  0  0  0  0  0  0  0  0  0  0
   -0.6216   22.4292   32.3489 C   0  0  0  0  0  0  0  0  0  0  0  0
   -0.2894   22.3592   33.6994 C   0  0  0  0  0  0  0  0  0  0  0  0
   -0.9734   21.4421   34.5032 C   0  0  0  0  0  0  0  0  0  0  0  0
   -0.9870   18.9429   26.6413 C   0  0  0  0  0  0  0  0  0  0  0  0
   -0.1606   18.8712   25.3644 C   0  0  0  0  0  0  0  0  0  0  0  0
   -1.9938   17.8141   26.8365 C   0  0  0  0  0  0  0  0  0  0  0  0
    1.0315   17.8690   31.5978 O   0  0  0  0  0  0  0  0  0  0  0  0
    1.3185   17.1013   32.7593 C   0  0  0  0  0  0  0  0  0  0  0  0
    0.1776   17.4165   33.7208 C   0  0  0  0  0  0  0  0  0  0  0  0
   -0.5779   16.2389   33.8818 O   0  0  0  0  0  0  0  0  0  0  0  0
   -0.8246   15.8812   35.2633 C   0  0  0  0  0  0  0  0  0  0  0  0
    5.9959   17.3498   30.8245 C   0  0  0  0  0  0  0  0  0  0  0  0
    7.3278   17.7392   30.5293 O   0  0  0  0  0  0  0  0  0  0  0  0
    7.8370   19.0209   30.4447 C   0  0  0  0  0  0  0  0  0  0  0  0
    7.6098   19.8600   31.5271 C   0  0  0  0  0  0  0  0  0  0  0  0
    8.0860   21.1623   31.4936 C   0  0  0  0  0  0  0  0  0  0  0  0
    7.8516   21.9350   32.5449 F   0  0  0  0  0  0  0  0  0  0  0  0
    8.7898   21.6729   30.3955 C   0  0  0  0  0  0  0  0  0  0  0  0
    9.0215   20.8358   29.3297 C   0  0  0  0  0  0  0  0  0  0  0  0
    9.6862   21.2984   28.2653 F   0  0  0  0  0  0  0  0  0  0  0  0
    8.5672   19.5069   29.3456 C   0  0  0  0  0  0  0  0  0  0  0  0
 12 13  2  0  0  0
 13 14  1  0  0  0
 13  6  1  0  0  0
 14 16  1  0  0  0
 16 18  1  0  0  0
 16 17  1  0  0  0
 18 19  2  0  0  0
 18 23  1  0  0  0
 19 20  1  0  0  0
 20 21  2  0  0  0
 21 22  1  0  0  0
 22 23  2  0  0  0
  6  7  2  0  0  0
  6 10  1  0  0  0
  7  8  1  0  0  0
  8 24  1  0  0  0
  8  9  2  0  0  0
 24 26  1  0  0  0
 24 25  1  0  0  0
 26 27  2  0  0  0
 26 28  1  0  0  0
 26 29  2  0  0  0
  9 11  1  0  0  0
 10 11  2  0  0  0
 11  2  1  0  0  0
  2  3  2  0  0  0
  2  4  1  0  0  0
  4  1  1  0  0  0
  1 59  1  0  0  0
  1 30  1  0  0  0
 59 60  1  0  0  0
 60 61  1  0  0  0
 61 62  2  0  0  0
 61 68  1  0  0  0
 62 63  1  0  0  0
 63 64  1  0  0  0
 63 65  2  0  0  0
 65 66  1  0  0  0
 66 67  1  0  0  0
 66 68  2  0  0  0
 30 31  1  0  0  0
 30 33  1  0  0  0
 33 34  1  0  0  0
 34 54  1  0  0  0
 34 35  1  0  0  0
 54 55  1  0  0  0
 55 56  1  0  0  0
 56 57  1  0  0  0
 57 58  1  0  0  0
 35 36  2  0  0  0
 35 37  1  0  0  0
 37 39  1  0  0  0
 39 51  1  0  0  0
 39 40  1  0  0  0
 51 52  1  0  0  0
 51 53  1  0  0  0
 40 41  2  0  0  0
 40 42  1  0  0  0
 42 44  1  0  0  0
 44 45  1  0  0  0
 45 46  2  0  0  0
 45 48  1  0  0  0
 46 47  1  0  0  0
 47 50  2  0  0  0
 48 49  2  0  0  0
 49 50  1  0  0  0
 14 15  1  0  0  0
  4  5  1  0  0  0
 31 32  1  0  0  0
 37 38  1  0  0  0
 42 43  1  0  0  0
M  END
> <minimizedAffinity>
-9.92760

$$$$
3I25_MV7_A_531


 68 71  0  0  0  0  0  0  0  0999 V2000
   -1.3342   14.3584   36.8150 C   0  0  0  0  0  0  0  0  0  0  0  0
   -0.1807   13.2595   38.7140 C   0  0  0  0  0  0  0  0  0  0  0  0
   -0.5857   12.1443   38.4312 O   0  0  0  0  0  0  0  0  0  0  0  0
   -0.4732   14.3369   37.9959 N   0  0  0  0  0  0  0  0  0  0  0  0
   -0.0776   15.1917   38.2823 H   0  0  0  0  0  0  0  0  0  0  0  0
    1.0690   12.8089   42.1973 C   0  0  0  0  0  0  0  0  0  0  0  0
    2.1891   13.6252   42.2443 C   0  0  0  0  0  0  0  0  0  0  0  0
    2.5460   14.3899   41.1292 C   0  0  0  0  0  0  0  0  0  0  0  0
    1.7764   14.2484   39.9661 C   0  0  0  0  0  0  0  0  0  0  0  0
    0.2935   12.6827   41.0511 C   0  0  0  0  0  0  0  0  0  0  0  0
    0.6447   13.4337   39.9409 C   0  0  0  0  0  0  0  0  0  0  0  0
    1.3295   12.1644   44.4020 O   0  0  0  0  0  0  0  0  0  0  0  0
    0.6618   12.0595   43.4182 C   0  0  0  0  0  0  0  0  0  0  0  0
   -0.4475   11.3350   43.3923 N   0  0  0  0  0  0  0  0  0  0  0  0
   -0.9405   11.2854   42.5416 H   0  0  0  0  0  0  0  0  0  0  0  0
   -0.9896   10.6084   44.5285 C   0  0  0  0  0  0  0  0  0  0  0  0
   -1.1804    9.1540   44.0886 C   0  0  0  0  0  0  0  0  0  0  0  0
   -2.2875   11.2683   44.9507 C   0  0  0  0  0  0  0  0  0  0  0  0
   -2.2841   12.2722   45.9331 C   0  0  0  0  0  0  0  0  0  0  0  0
   -3.4666   12.9136   46.3687 C   0  0  0  0  0  0  0  0  0  0  0  0
   -4.6775   12.5674   45.7748 C   0  0  0  0  0  0  0  0  0  0  0  0
   -4.7000   11.5904   44.7660 C   0  0  0  0  0  0  0  0  0  0  0  0
   -3.5207   10.9639   44.3526 C   0  0  0  0  0  0  0  0  0  0  0  0
    3.6695   15.2504   41.1092 N   0  0  0  0  0  0  0  0  0  0  0  0
    3.4165   16.6999   41.3238 C   0  0  0  0  0  0  0  0  0  0  0  0
    5.1629   14.8017   40.8240 S   0  0  0  0  0  0  0  0  0  0  0  0
    5.6798   14.1174   41.9266 O   0  0  0  0  0  0  0  0  0  0  0  0
    6.1098   16.1830   40.8175 C   0  0  0  0  0  0  0  0  0  0  0  0
    5.2534   14.0876   39.6146 O   0  0  0  0  0  0  0  0  0  0  0  0
   -0.7120   15.1666   35.6728 C   0  0  0  0  0  0  0  0  0  0  0  0
   -0.7766   14.4209   34.4516 O   0  0  0  0  0  0  0  0  0  0  0  0
   -1.7032   14.2294   34.2383 H   0  0  0  0  0  0  0  0  0  0  0  0
   -1.4905   16.4447   35.4977 C   0  0  0  0  0  0  0  0  0  0  0  0
   -1.4030   16.9247   34.0721 C   0  0  0  0  0  0  0  0  0  0  0  0
   -0.0001   17.3528   33.7160 C   0  0  0  0  0  0  0  0  0  0  0  0
    0.5452   18.1585   34.4295 O   0  0  0  0  0  0  0  0  0  0  0  0
    0.5799   16.8309   32.6381 N   0  0  0  0  0  0  0  0  0  0  0  0
    0.1239   16.1407   32.1044 H   0  0  0  0  0  0  0  0  0  0  0  0
    1.8981   17.3030   32.2696 C   0  0  0  0  0  0  0  0  0  0  0  0
    1.9466   17.5051   30.7829 C   0  0  0  0  0  0  0  0  0  0  0  0
    2.4132   16.6302   30.0504 O   0  0  0  0  0  0  0  0  0  0  0  0
    1.5071   18.6739   30.3273 N   0  0  0  0  0  0  0  0  0  0  0  0
    1.1569   19.3097   30.9923 H   0  0  0  0  0  0  0  0  0  0  0  0
    1.4960   19.1019   28.9299 C   0  0  0  0  0  0  0  0  0  0  0  0
    0.1673   19.7253   28.6531 C   0  0  0  0  0  0  0  0  0  0  0  0
   -0.4467   19.4977   27.4322 C   0  0  0  0  0  0  0  0  0  0  0  0
   -1.6781   20.0839   27.1740 C   0  0  0  0  0  0  0  0  0  0  0  0
   -0.4323   20.5373   29.6307 C   0  0  0  0  0  0  0  0  0  0  0  0
   -1.6734   21.1206   29.3887 C   0  0  0  0  0  0  0  0  0  0  0  0
   -2.2866   20.8858   28.1543 C   0  0  0  0  0  0  0  0  0  0  0  0
    3.0430   16.2751   32.3777 C   0  0  0  0  0  0  0  0  0  0  0  0
    4.3820   16.9454   32.6544 C   0  0  0  0  0  0  0  0  0  0  0  0
    2.8139   14.9464   33.0905 C   0  0  0  0  0  0  0  0  0  0  0  0
   -2.2407   18.0733   34.1009 O   0  0  0  0  0  0  0  0  0  0  0  0
   -2.3816   18.7097   32.8376 C   0  0  0  0  0  0  0  0  0  0  0  0
   -3.0170   20.0591   33.1549 C   0  0  0  0  0  0  0  0  0  0  0  0
   -2.0230   21.0436   32.9930 O   0  0  0  0  0  0  0  0  0  0  0  0
   -1.1924   21.2405   34.1630 C   0  0  0  0  0  0  0  0  0  0  0  0
   -2.5821   15.1152   37.3091 C   0  0  0  0  0  0  0  0  0  0  0  0
   -2.5838   15.6143   38.6371 O   0  0  0  0  0  0  0  0  0  0  0  0
   -3.3559   15.1893   39.7012 C   0  0  0  0  0  0  0  0  0  0  0  0
   -4.7204   15.0652   39.4774 C   0  0  0  0  0  0  0  0  0  0  0  0
   -5.5479   14.6549   40.5123 C   0  0  0  0  0  0  0  0  0  0  0  0
   -6.8452   14.5464   40.2626 F   0  0  0  0  0  0  0  0  0  0  0  0
   -5.0568   14.3636   41.7913 C   0  0  0  0  0  0  0  0  0  0  0  0
   -3.7036   14.4780   42.0063 C   0  0  0  0  0  0  0  0  0  0  0  0
   -3.2078   14.2114   43.2194 F   0  0  0  0  0  0  0  0  0  0  0  0
   -2.8408   14.8728   40.9709 C   0  0  0  0  0  0  0  0  0  0  0  0
 12 13  2  0  0  0
 13 14  1  0  0  0
 13  6  1  0  0  0
 14 16  1  0  0  0
 16 18  1  0  0  0
 16 17  1  0  0  0
 18 19  2  0  0  0
 18 23  1  0  0  0
 19 20  1  0  0  0
 20 21  2  0  0  0
 21 22  1  0  0  0
 22 23  2  0  0  0
  6  7  2  0  0  0
  6 10  1  0  0  0
  7  8  1  0  0  0
  8 24  1  0  0  0
  8  9  2  0  0  0
 24 26  1  0  0  0
 24 25  1  0  0  0
 26 27  2  0  0  0
 26 28  1  0  0  0
 26 29  2  0  0  0
  9 11  1  0  0  0
 10 11  2  0  0  0
 11  2  1  0  0  0
  2  3  2  0  0  0
  2  4  1  0  0  0
  4  1  1  0  0  0
  1 59  1  0  0  0
  1 30  1  0  0  0
 59 60  1  0  0  0
 60 61  1  0  0  0
 61 62  2  0  0  0
 61 68  1  0  0  0
 62 63  1  0  0  0
 63 64  1  0  0  0
 63 65  2  0  0  0
 65 66  1  0  0  0
 66 67  1  0  0  0
 66 68  2  0  0  0
 30 31  1  0  0  0
 30 33  1  0  0  0
 33 34  1  0  0  0
 34 54  1  0  0  0
 34 35  1  0  0  0
 54 55  1  0  0  0
 55 56  1  0  0  0
 56 57  1  0  0  0
 57 58  1  0  0  0
 35 36  2  0  0  0
 35 37  1  0  0  0
 37 39  1  0  0  0
 39 51  1  0  0  0
 39 40  1  0  0  0
 51 52  1  0  0  0
 51 53  1  0  0  0
 40 41  2  0  0  0
 40 42  1  0  0  0
 42 44  1  0  0  0
 44 45  1  0  0  0
 45 46  2  0  0  0
 45 48  1  0  0  0
 46 47  1  0  0  0
 47 50  2  0  0  0
 48 49  2  0  0  0
 49 50  1  0  0  0
 14 15  1  0  0  0
  4  5  1  0  0  0
 31 32  1  0  0  0
 37 38  1  0  0  0
 42 43  1  0  0  0
M  END
> <minimizedAffinity>
-9.92074

$$$$
3I25_MV7_A_531


 68 71  0  0  0  0  0  0  0  0999 V2000
   -1.0945   16.6561   33.4515 C   0  0  0  0  0  0  0  0  0  0  0  0
   -2.0711   15.3508   35.3188 C   0  0  0  0  0  0  0  0  0  0  0  0
   -3.0872   15.0664   34.7071 O   0  0  0  0  0  0  0  0  0  0  0  0
   -1.0899   16.0729   34.7917 N   0  0  0  0  0  0  0  0  0  0  0  0
   -0.2936   16.2283   35.3494 H   0  0  0  0  0  0  0  0  0  0  0  0
   -2.9472   14.6305   38.8702 C   0  0  0  0  0  0  0  0  0  0  0  0
   -1.8057   14.0170   39.3641 C   0  0  0  0  0  0  0  0  0  0  0  0
   -0.6847   13.8584   38.5432 C   0  0  0  0  0  0  0  0  0  0  0  0
   -0.7862   14.2786   37.2098 C   0  0  0  0  0  0  0  0  0  0  0  0
   -3.0423   15.0655   37.5538 C   0  0  0  0  0  0  0  0  0  0  0  0
   -1.9368   14.9067   36.7337 C   0  0  0  0  0  0  0  0  0  0  0  0
   -5.1312   15.2459   39.3122 O   0  0  0  0  0  0  0  0  0  0  0  0
   -4.1040   14.8578   39.7802 C   0  0  0  0  0  0  0  0  0  0  0  0
   -3.9754   14.5838   41.0703 N   0  0  0  0  0  0  0  0  0  0  0  0
   -3.0943   14.2791   41.3866 H   0  0  0  0  0  0  0  0  0  0  0  0
   -5.0405   14.7005   42.0526 C   0  0  0  0  0  0  0  0  0  0  0  0
   -5.2250   16.1918   42.3478 C   0  0  0  0  0  0  0  0  0  0  0  0
   -4.6542   13.9027   43.2825 C   0  0  0  0  0  0  0  0  0  0  0  0
   -3.3094   13.5737   43.5190 C   0  0  0  0  0  0  0  0  0  0  0  0
   -2.8965   12.8251   44.6453 C   0  0  0  0  0  0  0  0  0  0  0  0
   -3.8522   12.4317   45.5785 C   0  0  0  0  0  0  0  0  0  0  0  0
   -5.1985   12.7793   45.3800 C   0  0  0  0  0  0  0  0  0  0  0  0
   -5.5876   13.5155   44.2572 C   0  0  0  0  0  0  0  0  0  0  0  0
    0.5155   13.2505   38.9826 N   0  0  0  0  0  0  0  0  0  0  0  0
    0.6825   11.7999   38.7015 C   0  0  0  0  0  0  0  0  0  0  0  0
    1.6672   13.9767   39.7945 S   0  0  0  0  0  0  0  0  0  0  0  0
    2.9183   13.5439   39.3485 O   0  0  0  0  0  0  0  0  0  0  0  0
    1.6427   13.3680   41.3545 C   0  0  0  0  0  0  0  0  0  0  0  0
    1.5021   15.3740   39.7647 O   0  0  0  0  0  0  0  0  0  0  0  0
    0.1208   17.5586   33.2203 C   0  0  0  0  0  0  0  0  0  0  0  0
    0.5307   18.1563   34.4556 O   0  0  0  0  0  0  0  0  0  0  0  0
    0.7666   17.4605   35.0890 H   0  0  0  0  0  0  0  0  0  0  0  0
    1.2567   16.7226   32.6902 C   0  0  0  0  0  0  0  0  0  0  0  0
    1.7570   17.2804   31.3829 C   0  0  0  0  0  0  0  0  0  0  0  0
    3.2647   17.3387   31.3453 C   0  0  0  0  0  0  0  0  0  0  0  0
    3.8561   17.4016   32.3951 O   0  0  0  0  0  0  0  0  0  0  0  0
    3.8822   17.3184   30.1668 N   0  0  0  0  0  0  0  0  0  0  0  0
    3.3710   17.2192   29.3313 H   0  0  0  0  0  0  0  0  0  0  0  0
    5.3243   17.4456   30.1434 C   0  0  0  0  0  0  0  0  0  0  0  0
    5.7510   17.9186   28.7842 C   0  0  0  0  0  0  0  0  0  0  0  0
    5.9228   17.1105   27.8691 O   0  0  0  0  0  0  0  0  0  0  0  0
    5.9679   19.2231   28.6498 N   0  0  0  0  0  0  0  0  0  0  0  0
    5.8069   19.7868   29.4408 H   0  0  0  0  0  0  0  0  0  0  0  0
    6.4234   19.8977   27.4359 C   0  0  0  0  0  0  0  0  0  0  0  0
    5.4296   20.9619   27.1037 C   0  0  0  0  0  0  0  0  0  0  0  0
    5.8611   22.1204   26.4786 C   0  0  0  0  0  0  0  0  0  0  0  0
    4.9371   23.1115   26.1773 C   0  0  0  0  0  0  0  0  0  0  0  0
    4.0778   20.7738   27.4379 C   0  0  0  0  0  0  0  0  0  0  0  0
    3.1391   21.7550   27.1294 C   0  0  0  0  0  0  0  0  0  0  0  0
    3.5825   22.9211   26.4982 C   0  0  0  0  0  0  0  0  0  0  0  0
    6.1234   16.1264   30.1655 C   0  0  0  0  0  0  0  0  0  0  0  0
    7.4713   16.2919   30.8544 C   0  0  0  0  0  0  0  0  0  0  0  0
    5.4103   14.8039   30.4266 C   0  0  0  0  0  0  0  0  0  0  0  0
    1.2465   18.6071   31.4194 O   0  0  0  0  0  0  0  0  0  0  0  0
    0.3418   18.9006   30.3629 C   0  0  0  0  0  0  0  0  0  0  0  0
    1.2215   19.0107   29.1222 C   0  0  0  0  0  0  0  0  0  0  0  0
    0.6341   18.2204   28.1153 O   0  0  0  0  0  0  0  0  0  0  0  0
   -0.3512   18.9198   27.3169 C   0  0  0  0  0  0  0  0  0  0  0  0
   -2.3526   17.5456   33.4644 C   0  0  0  0  0  0  0  0  0  0  0  0
   -2.2507   18.8463   34.0216 O   0  0  0  0  0  0  0  0  0  0  0  0
   -1.9417   20.0253   33.3707 C   0  0  0  0  0  0  0  0  0  0  0  0
   -1.2249   20.9714   34.0909 C   0  0  0  0  0  0  0  0  0  0  0  0
   -0.8969   22.1797   33.4940 C   0  0  0  0  0  0  0  0  0  0  0  0
   -0.2112   23.0590   34.2108 F   0  0  0  0  0  0  0  0  0  0  0  0
   -1.2701   22.4901   32.1801 C   0  0  0  0  0  0  0  0  0  0  0  0
   -1.9711   21.5466   31.4668 C   0  0  0  0  0  0  0  0  0  0  0  0
   -2.3451   21.8181   30.2117 F   0  0  0  0  0  0  0  0  0  0  0  0
   -2.2995   20.3074   32.0403 C   0  0  0  0  0  0  0  0  0  0  0  0
 12 13  2  0  0  0
 13 14  1  0  0  0
 13  6  1  0  0  0
 14 16  1  0  0  0
 16 18  1  0  0  0
 16 17  1  0  0  0
 18 19  2  0  0  0
 18 23  1  0  0  0
 19 20  1  0  0  0
 20 21  2  0  0  0
 21 22  1  0  0  0
 22 23  2  0  0  0
  6  7  2  0  0  0
  6 10  1  0  0  0
  7  8  1  0  0  0
  8 24  1  0  0  0
  8  9  2  0  0  0
 24 26  1  0  0  0
 24 25  1  0  0  0
 26 27  2  0  0  0
 26 28  1  0  0  0
 26 29  2  0  0  0
  9 11  1  0  0  0
 10 11  2  0  0  0
 11  2  1  0  0  0
  2  3  2  0  0  0
  2  4  1  0  0  0
  4  1  1  0  0  0
  1 59  1  0  0  0
  1 30  1  0  0  0
 59 60  1  0  0  0
 60 61  1  0  0  0
 61 62  2  0  0  0
 61 68  1  0  0  0
 62 63  1  0  0  0
 63 64  1  0  0  0
 63 65  2  0  0  0
 65 66  1  0  0  0
 66 67  1  0  0  0
 66 68  2  0  0  0
 30 31  1  0  0  0
 30 33  1  0  0  0
 33 34  1  0  0  0
 34 54  1  0  0  0
 34 35  1  0  0  0
 54 55  1  0  0  0
 55 56  1  0  0  0
 56 57  1  0  0  0
 57 58  1  0  0  0
 35 36  2  0  0  0
 35 37  1  0  0  0
 37 39  1  0  0  0
 39 51  1  0  0  0
 39 40  1  0  0  0
 51 52  1  0  0  0
 51 53  1  0  0  0
 40 41  2  0  0  0
 40 42  1  0  0  0
 42 44  1  0  0  0
 44 45  1  0  0  0
 45 46  2  0  0  0
 45 48  1  0  0  0
 46 47  1  0  0  0
 47 50  2  0  0  0
 48 49  2  0  0  0
 49 50  1  0  0  0
 14 15  1  0  0  0
  4  5  1  0  0  0
 31 32  1  0  0  0
 37 38  1  0  0  0
 42 43  1  0  0  0
M  END
> <minimizedAffinity>
-9.57972

$$$$
3I25_MV7_A_531


 68 71  0  0  0  0  0  0  0  0999 V2000
   -1.5549   13.8951   37.3013 C   0  0  0  0  0  0  0  0  0  0  0  0
    0.1596   13.5640   39.0607 C   0  0  0  0  0  0  0  0  0  0  0  0
   -0.3283   12.5223   39.4659 O   0  0  0  0  0  0  0  0  0  0  0  0
   -0.3466   14.2501   38.0433 N   0  0  0  0  0  0  0  0  0  0  0  0
    0.1310   15.0649   37.7657 H   0  0  0  0  0  0  0  0  0  0  0  0
    3.7108   14.4270   39.7972 C   0  0  0  0  0  0  0  0  0  0  0  0
    3.6218   15.1981   40.9465 C   0  0  0  0  0  0  0  0  0  0  0  0
    2.3777   15.4243   41.5437 C   0  0  0  0  0  0  0  0  0  0  0  0
    1.2426   14.9034   40.9071 C   0  0  0  0  0  0  0  0  0  0  0  0
    2.5882   13.8933   39.1760 C   0  0  0  0  0  0  0  0  0  0  0  0
    1.3519   14.1181   39.7597 C   0  0  0  0  0  0  0  0  0  0  0  0
    5.1238   13.3737   38.3012 O   0  0  0  0  0  0  0  0  0  0  0  0
    5.0513   14.1349   39.2178 C   0  0  0  0  0  0  0  0  0  0  0  0
    6.1156   14.7565   39.7046 N   0  0  0  0  0  0  0  0  0  0  0  0
    5.9807   15.3613   40.4696 H   0  0  0  0  0  0  0  0  0  0  0  0
    7.4676   14.6106   39.1912 C   0  0  0  0  0  0  0  0  0  0  0  0
    8.4200   14.7004   40.3872 C   0  0  0  0  0  0  0  0  0  0  0  0
    7.7146   15.6963   38.1623 C   0  0  0  0  0  0  0  0  0  0  0  0
    8.2164   15.3668   36.8925 C   0  0  0  0  0  0  0  0  0  0  0  0
    8.4722   16.3409   35.8999 C   0  0  0  0  0  0  0  0  0  0  0  0
    8.1790   17.6742   36.1746 C   0  0  0  0  0  0  0  0  0  0  0  0
    7.6443   18.0223   37.4258 C   0  0  0  0  0  0  0  0  0  0  0  0
    7.4033   17.0452   38.3960 C   0  0  0  0  0  0  0  0  0  0  0  0
    2.2134   16.1928   42.7208 N   0  0  0  0  0  0  0  0  0  0  0  0
    2.5087   17.6471   42.6270 C   0  0  0  0  0  0  0  0  0  0  0  0
    1.7938   15.6203   44.1383 S   0  0  0  0  0  0  0  0  0  0  0  0
    2.4218   16.3431   45.1554 O   0  0  0  0  0  0  0  0  0  0  0  0
    2.5140   14.1177   44.3063 C   0  0  0  0  0  0  0  0  0  0  0  0
    0.3934   15.5573   44.2630 O   0  0  0  0  0  0  0  0  0  0  0  0
   -1.4522   14.2904   35.8255 C   0  0  0  0  0  0  0  0  0  0  0  0
   -2.7554   14.3155   35.2320 O   0  0  0  0  0  0  0  0  0  0  0  0
   -3.3100   14.9614   35.6968 H   0  0  0  0  0  0  0  0  0  0  0  0
   -0.8531   15.6695   35.7293 C   0  0  0  0  0  0  0  0  0  0  0  0
   -1.0127   16.2180   34.3350 C   0  0  0  0  0  0  0  0  0  0  0  0
    0.2187   16.9688   33.8898 C   0  0  0  0  0  0  0  0  0  0  0  0
    0.5860   17.9030   34.5592 O   0  0  0  0  0  0  0  0  0  0  0  0
    0.8494   16.5770   32.7856 N   0  0  0  0  0  0  0  0  0  0  0  0
    0.5498   15.7816   32.2889 H   0  0  0  0  0  0  0  0  0  0  0  0
    1.9873   17.3493   32.3326 C   0  0  0  0  0  0  0  0  0  0  0  0
    1.9196   17.4890   30.8395 C   0  0  0  0  0  0  0  0  0  0  0  0
    2.3730   16.6047   30.1100 O   0  0  0  0  0  0  0  0  0  0  0  0
    1.3942   18.6167   30.3713 N   0  0  0  0  0  0  0  0  0  0  0  0
    1.0631   19.2646   31.0345 H   0  0  0  0  0  0  0  0  0  0  0  0
    1.2628   18.9832   28.9626 C   0  0  0  0  0  0  0  0  0  0  0  0
   -0.0011   19.7640   28.8092 C   0  0  0  0  0  0  0  0  0  0  0  0
   -0.6502   19.7687   27.5853 C   0  0  0  0  0  0  0  0  0  0  0  0
   -1.8207   20.5009   27.4426 C   0  0  0  0  0  0  0  0  0  0  0  0
   -0.5048   20.4861   29.9044 C   0  0  0  0  0  0  0  0  0  0  0  0
   -1.6850   21.2142   29.7776 C   0  0  0  0  0  0  0  0  0  0  0  0
   -2.3342   21.2134   28.5393 C   0  0  0  0  0  0  0  0  0  0  0  0
    3.3595   16.6497   32.4145 C   0  0  0  0  0  0  0  0  0  0  0  0
    4.4473   17.5922   32.9116 C   0  0  0  0  0  0  0  0  0  0  0  0
    3.4571   15.2121   32.9144 C   0  0  0  0  0  0  0  0  0  0  0  0
   -2.0781   17.1438   34.5077 O   0  0  0  0  0  0  0  0  0  0  0  0
   -2.7145   17.5159   33.2923 C   0  0  0  0  0  0  0  0  0  0  0  0
   -3.1848   18.9475   33.5265 C   0  0  0  0  0  0  0  0  0  0  0  0
   -2.0507   19.7184   33.8477 O   0  0  0  0  0  0  0  0  0  0  0  0
   -2.1636   21.1145   33.4796 C   0  0  0  0  0  0  0  0  0  0  0  0
   -2.6358   14.7765   37.9562 C   0  0  0  0  0  0  0  0  0  0  0  0
   -3.0726   14.4444   39.2645 O   0  0  0  0  0  0  0  0  0  0  0  0
   -4.0675   15.0525   40.0057 C   0  0  0  0  0  0  0  0  0  0  0  0
   -5.3712   14.6401   39.7654 C   0  0  0  0  0  0  0  0  0  0  0  0
   -6.4133   15.2241   40.4702 C   0  0  0  0  0  0  0  0  0  0  0  0
   -7.6450   14.8051   40.2157 F   0  0  0  0  0  0  0  0  0  0  0  0
   -6.2012   16.2300   41.4215 C   0  0  0  0  0  0  0  0  0  0  0  0
   -4.9078   16.6286   41.6640 C   0  0  0  0  0  0  0  0  0  0  0  0
   -4.6762   17.5911   42.5632 F   0  0  0  0  0  0  0  0  0  0  0  0
   -3.8324   16.0405   40.9784 C   0  0  0  0  0  0  0  0  0  0  0  0
 12 13  2  0  0  0
 13 14  1  0  0  0
 13  6  1  0  0  0
 14 16  1  0  0  0
 16 18  1  0  0  0
 16 17  1  0  0  0
 18 19  2  0  0  0
 18 23  1  0  0  0
 19 20  1  0  0  0
 20 21  2  0  0  0
 21 22  1  0  0  0
 22 23  2  0  0  0
  6  7  2  0  0  0
  6 10  1  0  0  0
  7  8  1  0  0  0
  8 24  1  0  0  0
  8  9  2  0  0  0
 24 26  1  0  0  0
 24 25  1  0  0  0
 26 27  2  0  0  0
 26 28  1  0  0  0
 26 29  2  0  0  0
  9 11  1  0  0  0
 10 11  2  0  0  0
 11  2  1  0  0  0
  2  3  2  0  0  0
  2  4  1  0  0  0
  4  1  1  0  0  0
  1 59  1  0  0  0
  1 30  1  0  0  0
 59 60  1  0  0  0
 60 61  1  0  0  0
 61 62  2  0  0  0
 61 68  1  0  0  0
 62 63  1  0  0  0
 63 64  1  0  0  0
 63 65  2  0  0  0
 65 66  1  0  0  0
 66 67  1  0  0  0
 66 68  2  0  0  0
 30 31  1  0  0  0
 30 33  1  0  0  0
 33 34  1  0  0  0
 34 54  1  0  0  0
 34 35  1  0  0  0
 54 55  1  0  0  0
 55 56  1  0  0  0
 56 57  1  0  0  0
 57 58  1  0  0  0
 35 36  2  0  0  0
 35 37  1  0  0  0
 37 39  1  0  0  0
 39 51  1  0  0  0
 39 40  1  0  0  0
 51 52  1  0  0  0
 51 53  1  0  0  0
 40 41  2  0  0  0
 40 42  1  0  0  0
 42 44  1  0  0  0
 44 45  1  0  0  0
 45 46  2  0  0  0
 45 48  1  0  0  0
 46 47  1  0  0  0
 47 50  2  0  0  0
 48 49  2  0  0  0
 49 50  1  0  0  0
 14 15  1  0  0  0
  4  5  1  0  0  0
 31 32  1  0  0  0
 37 38  1  0  0  0
 42 43  1  0  0  0
M  END
> <minimizedAffinity>
-9.33611

$$$$
