3I25_MV7_A_531
  RCSB PDB12061709003D
Coordinates from PDB:3I25:A:531 Model:1 without hydrogens
 63 66  0  0  0  0            999 V2000
    1.9640   19.6660   28.1170   O 0  0  0  0  0  0  0  0  0  0  0  0
    1.1050   19.1480   28.7640   C 0  0  0  0  0  0  0  0  0  0  0  0
   -0.1700   19.1880   28.4050   N 0  0  0  0  0  0  0  0  0  0  0  0
   -0.6730   19.8340   27.2040   C 0  0  0  0  0  0  0  0  0  0  0  0
   -0.9300   18.7710   26.1540   C 0  0  0  0  0  0  0  0  0  0  0  0
   -0.2570   18.8160   24.9220   C 0  0  0  0  0  0  0  0  0  0  0  0
   -0.4660   17.8550   23.9060   C 0  0  0  0  0  0  0  0  0  0  0  0
   -1.3420   16.8000   24.1480   C 0  0  0  0  0  0  0  0  0  0  0  0
   -2.0000   16.7160   25.3860   C 0  0  0  0  0  0  0  0  0  0  0  0
   -1.7840   17.6790   26.3760   C 0  0  0  0  0  0  0  0  0  0  0  0
   -1.9410   20.5980   27.5960   C 0  0  0  0  0  0  0  0  0  0  0  0
    1.4920   18.3930   29.9880   C 0  0  0  0  0  0  0  0  0  0  0  0
    2.7160   17.7420   30.0250   C 0  0  0  0  0  0  0  0  0  0  0  0
    3.0660   16.9710   31.1380   C 0  0  0  0  0  0  0  0  0  0  0  0
    4.2930   16.2730   31.2400   N 0  0  0  0  0  0  0  0  0  0  0  0
    5.0780   15.6170   30.0290   S 0  0  0  0  0  0  0  0  0  0  0  0
    5.8330   14.5300   30.4760   O 0  0  0  0  0  0  0  0  0  0  0  0
    6.2800   16.6890   29.5700   C 0  0  0  0  0  0  0  0  0  0  0  0
    4.2050   15.3090   28.9690   O 0  0  0  0  0  0  0  0  0  0  0  0
    4.9180   16.1950   32.5870   C 0  0  0  0  0  0  0  0  0  0  0  0
    2.1730   16.9390   32.2180   C 0  0  0  0  0  0  0  0  0  0  0  0
    0.5970   18.3460   31.0500   C 0  0  0  0  0  0  0  0  0  0  0  0
    0.9400   17.5880   32.1580   C 0  0  0  0  0  0  0  0  0  0  0  0
   -0.0190   17.5770   33.2970   C 0  0  0  0  0  0  0  0  0  0  0  0
    0.4030   17.7810   34.4230   O 0  0  0  0  0  0  0  0  0  0  0  0
   -1.3050   17.3810   33.0330   N 0  0  0  0  0  0  0  0  0  0  0  0
   -2.3860   17.4200   34.0160   C 0  0  0  0  0  0  0  0  0  0  0  0
   -3.5490   18.0530   33.2280   C 0  0  0  0  0  0  0  0  0  0  0  0
   -3.2690   19.1660   32.3940   O 0  0  0  0  0  0  0  0  0  0  0  0
   -2.4180   20.2240   32.6500   C 0  0  0  0  0  0  0  0  0  0  0  0
   -1.9850   20.9610   31.5560   C 0  0  0  0  0  0  0  0  0  0  0  0
   -1.1190   22.0270   31.7500   C 0  0  0  0  0  0  0  0  0  0  0  0
   -0.7270   22.7090   30.6830   F 0  0  0  0  0  0  0  0  0  0  0  0
   -0.6530   22.3900   33.0200   C 0  0  0  0  0  0  0  0  0  0  0  0
   -1.0920   21.6640   34.1020   C 0  0  0  0  0  0  0  0  0  0  0  0
   -0.6590   21.9850   35.3260   F 0  0  0  0  0  0  0  0  0  0  0  0
   -1.9840   20.5920   33.9360   C 0  0  0  0  0  0  0  0  0  0  0  0
   -2.8150   16.0140   34.4450   C 0  0  0  0  0  0  0  0  0  0  0  0
   -3.2920   15.2790   33.3120   O 0  0  0  0  0  0  0  0  0  0  0  0
   -1.6230   15.2930   35.0190   C 0  0  0  0  0  0  0  0  0  0  0  0
   -2.0500   14.3690   36.1300   C 0  0  0  0  0  0  0  0  0  0  0  0
   -0.9580   13.4600   36.1870   O 0  0  0  0  0  0  0  0  0  0  0  0
   -1.2740   12.2260   36.8180   C 0  0  0  0  0  0  0  0  0  0  0  0
    0.0130   11.4120   36.7380   C 0  0  0  0  0  0  0  0  0  0  0  0
    0.3250   10.9840   38.0430   O 0  0  0  0  0  0  0  0  0  0  0  0
    0.7040   12.0560   38.9400   C 0  0  0  0  0  0  0  0  0  0  0  0
   -2.1490   15.0960   37.4490   C 0  0  0  0  0  0  0  0  0  0  0  0
   -1.1780   15.6960   37.8400   O 0  0  0  0  0  0  0  0  0  0  0  0
   -3.2930   15.0500   38.1270   N 0  0  0  0  0  0  0  0  0  0  0  0
   -3.3510   15.6930   39.4230   C 0  0  0  0  0  0  0  0  0  0  0  0
   -4.6600   15.5050   40.2170   C 0  0  0  0  0  0  0  0  0  0  0  0
   -5.3540   16.8330   40.4880   C 0  0  0  0  0  0  0  0  0  0  0  0
   -5.5840   14.3330   39.9030   C 0  0  0  0  0  0  0  0  0  0  0  0
   -2.4350   14.9710   40.3680   C 0  0  0  0  0  0  0  0  0  0  0  0
   -2.3000   13.7480   40.2920   O 0  0  0  0  0  0  0  0  0  0  0  0
   -1.8320   15.7110   41.2930   N 0  0  0  0  0  0  0  0  0  0  0  0
   -0.9330   15.2190   42.3350   C 0  0  0  0  0  0  0  0  0  0  0  0
    0.3550   15.9660   42.2180   C 0  0  0  0  0  0  0  0  0  0  0  0
    1.1960   15.7030   41.1490   C 0  0  0  0  0  0  0  0  0  0  0  0
    2.3960   16.3930   41.0460   C 0  0  0  0  0  0  0  0  0  0  0  0
    0.6950   16.9150   43.1970   C 0  0  0  0  0  0  0  0  0  0  0  0
    1.8900   17.6230   43.0980   C 0  0  0  0  0  0  0  0  0  0  0  0
    2.7330   17.3520   42.0160   C 0  0  0  0  0  0  0  0  0  0  0  0
  1  2  2  0  0  0  0
  2  3  1  0  0  0  0
  2 12  1  0  0  0  0
  3  4  1  0  0  0  0
  4  5  1  0  0  0  0
  4 11  1  0  0  0  0
  5  6  2  0  0  0  0
  5 10  1  0  0  0  0
  6  7  1  0  0  0  0
  7  8  2  0  0  0  0
  8  9  1  0  0  0  0
  9 10  2  0  0  0  0
 12 13  2  0  0  0  0
 12 22  1  0  0  0  0
 13 14  1  0  0  0  0
 14 15  1  0  0  0  0
 14 21  2  0  0  0  0
 15 16  1  0  0  0  0
 15 20  1  0  0  0  0
 16 17  2  0  0  0  0
 16 18  1  0  0  0  0
 16 19  2  0  0  0  0
 21 23  1  0  0  0  0
 22 23  2  0  0  0  0
 23 24  1  0  0  0  0
 24 25  2  0  0  0  0
 24 26  1  0  0  0  0
 26 27  1  0  0  0  0
 27 28  1  0  0  0  0
 27 38  1  0  0  0  0
 28 29  1  0  0  0  0
 29 30  1  0  0  0  0
 30 31  2  0  0  0  0
 30 37  1  0  0  0  0
 31 32  1  0  0  0  0
 32 33  1  0  0  0  0
 32 34  2  0  0  0  0
 34 35  1  0  0  0  0
 35 36  1  0  0  0  0
 35 37  2  0  0  0  0
 38 39  1  0  0  0  0
 38 40  1  0  0  0  0
 40 41  1  0  0  0  0
 41 42  1  0  0  0  0
 41 47  1  0  0  0  0
 42 43  1  0  0  0  0
 43 44  1  0  0  0  0
 44 45  1  0  0  0  0
 45 46  1  0  0  0  0
 47 48  2  0  0  0  0
 47 49  1  0  0  0  0
 49 50  1  0  0  0  0
 50 51  1  0  0  0  0
 50 54  1  0  0  0  0
 51 52  1  0  0  0  0
 51 53  1  0  0  0  0
 54 55  2  0  0  0  0
 54 56  1  0  0  0  0
 56 57  1  0  0  0  0
 57 58  1  0  0  0  0
 58 59  2  0  0  0  0
 58 61  1  0  0  0  0
 59 60  1  0  0  0  0
 60 63  2  0  0  0  0
 61 62  2  0  0  0  0
 62 63  1  0  0  0  0
A    1
O10
A    2
C37
A    3
N5
A    4
C38
A    5
C40
A    6
C43
A    7
C44
A    8
C45
A    9
C42
A   10
C41
A   11
C39
A   12
C36
A   13
C34
A   14
C31
A   15
N4
A   16
S
A   17
O9
A   18
C33
A   19
O8
A   20
C32
A   21
C30
A   22
C35
A   23
C29
A   24
C28
A   25
O7
A   26
N3
A   27
C20
A   28
C21
A   29
O6
A   30
C22
A   31
C27
A   32
C26
A   33
F2
A   34
C25
A   35
C24
A   36
F1
A   37
C23
A   38
C19
A   39
O5
A   40
C18
A   41
C14
A   42
O3
A   43
C15
A   44
C16
A   45
O4
A   46
C17
A   47
C13
A   48
O2
A   49
N2
A   50
C9
A   51
C10
A   52
C12
A   53
C11
A   54
C1
A   55
O1
A   56
N1
A   57
C2
A   58
C3
A   59
C4
A   60
C5
A   61
C8
A   62
C7
A   63
C6
M  END
>  <InstanceId>
3I25_MV7_A_531

>  <ChemCompId>
MV7

>  <PdbId>
3I25

>  <ChainId>
A

>  <ResidueNumber>
531

>  <InsertionCode>


>  <Model>
1

>  <AltIds>


>  <MissingHeavyAtoms>
0

>  <ObservedFormula>
C45 N5 O10 S F2

>  <Name>
N-[(2S,3S,5R)-1-(3,5-difluorophenoxy)-3-hydroxy-5-(2-methoxyethoxy)-6-[[(2S)-3-methyl-1-oxo-1-(phenylmethylamino)butan-2-yl]amino]-6-oxo-hexan-2-yl]-5-(methyl-methylsulfonyl-amino)-N'-[(1R)-1-phenylethyl]benzene-1,3-dicarboxamide

>  <SystematicName>
N1-[(2S,3S,5R)-1-(3,5-difluorophenoxy)-3-hydroxy-5-(2-methoxyethoxy)-6-[[(2S)-3-methyl-1-oxo-1-(phenylmethylamino)butan-2-yl]amino]-6-oxo-hexan-2-yl]-5-[methyl(methylsulfonyl)amino]-N3-[(1R)-1-phenylethyl]benzene-1,3-dicarboxamide

>  <Synonyms>
N-[(1S,2S,4R)-4-((S)-1-Benzylcarbamoyl-2-methyl-propylcarbamoyl)-1-(3,5-difluoro-phenoxymethyl)-2-hydroxy-4-(2-methoxy-ethoxy)-butyl]-5-(methanesulfonyl-methyl-amino)-N'-((R)-1-phenyl-ethyl)-isophthalamide

>  <Type>
NON-POLYMER

>  <Formula>
C45 H55 F2 N5 O10 S

>  <MolecularWeight>
896.008

>  <ModifiedDate>
2011-06-04

>  <Parent>


>  <OneLetterCode>


>  <SubcomponentList>


>  <AmbiguousFlag>
N

>  <InChI>
InChI=1S/C45H55F2N5O10S/c1-28(2)41(45(57)48-26-30-13-9-7-10-14-30)51-44(56)40(61-18-17-60-5)25-39(53)38(27-62-37-23-34(46)22-35(47)24-37)50-43(55)33-19-32(20-36(21-33)52(4)63(6,58)59)42(54)49-29(3)31-15-11-8-12-16-31/h7-16,19-24,28-29,38-41,53H,17-18,25-27H2,1-6H3,(H,48,57)(H,49,54)(H,50,55)(H,51,56)/t29-,38+,39+,40-,41+/m1/s1

>  <InChIKey>
RSTFVOGBJGGSOD-NDKACYJFSA-N

>  <SMILES>
C[C@H](c1ccccc1)NC(=O)c2cc(cc(c2)N(C)S(=O)(=O)C)C(=O)N[C@@H](COc3cc(cc(c3)F)F)[C@H](C[C@H](C(=O)N[C@@H](C(C)C)C(=O)NCc4ccccc4)OCCOC)O

$$$$
