1UW6_NCT_A_1208


 12 13  0  0  0  0  0  0  0  0999 V2000
   80.6602   68.7677   -9.6399 N   0  0  0  0  0  0  0  0  0  0  0  0
   81.9043   68.5673  -10.1956 C   0  0  0  0  0  0  0  0  0  0  0  0
   83.0871   69.0887   -9.6312 C   0  0  0  0  0  0  0  0  0  0  0  0
   82.9398   69.8940   -8.4798 C   0  0  0  0  0  0  0  0  0  0  0  0
   81.6508   70.1665   -7.9522 C   0  0  0  0  0  0  0  0  0  0  0  0
   80.5318   69.5548   -8.5424 C   0  0  0  0  0  0  0  0  0  0  0  0
   84.7367   69.3443  -11.5720 N   0  0  0  0  0  0  0  0  0  0  0  0
   84.4599   68.8381  -10.1807 C   0  0  0  0  0  0  0  0  0  0  0  0
   85.5654   69.3944   -9.2849 C   0  0  0  0  0  0  0  0  0  0  0  0
   86.6959   69.7323  -10.2391 C   0  0  0  0  0  0  0  0  0  0  0  0
   86.1109   69.8576  -11.6435 C   0  0  0  0  0  0  0  0  0  0  0  0
   84.7065   68.2832  -12.5806 C   0  0  0  0  0  0  0  0  0  0  0  0
  1  2  2  0  0  0
  1  6  1  0  0  0
  2  3  1  0  0  0
  3  4  2  0  0  0
  3  8  1  0  0  0
  4  5  1  0  0  0
  5  6  2  0  0  0
  7  8  1  0  0  0
  7 11  1  0  0  0
  7 12  1  0  0  0
  8  9  1  0  0  0
  9 10  1  0  0  0
 10 11  1  0  0  0
M  END
> <minimizedAffinity>
-6.53280

$$$$
1UW6_NCT_A_1208


 12 13  0  0  0  0  0  0  0  0999 V2000
   85.0374   68.4003  -11.4551 N   0  0  0  0  0  0  0  0  0  0  0  0
   83.7736   68.6888  -10.9900 C   0  0  0  0  0  0  0  0  0  0  0  0
   83.5412   69.3389   -9.7601 C   0  0  0  0  0  0  0  0  0  0  0  0
   84.6773   69.6372   -8.9750 C   0  0  0  0  0  0  0  0  0  0  0  0
   85.9745   69.2689   -9.4171 C   0  0  0  0  0  0  0  0  0  0  0  0
   86.1186   68.6794  -10.6846 C   0  0  0  0  0  0  0  0  0  0  0  0
   81.1172   68.6527   -9.3059 N   0  0  0  0  0  0  0  0  0  0  0  0
   82.1806   69.7181   -9.2558 C   0  0  0  0  0  0  0  0  0  0  0  0
   82.2073   70.2423   -7.8211 C   0  0  0  0  0  0  0  0  0  0  0  0
   80.8501   69.8700   -7.2535 C   0  0  0  0  0  0  0  0  0  0  0  0
   80.2660   68.7519   -8.1131 C   0  0  0  0  0  0  0  0  0  0  0  0
   80.1826   68.8327  -10.4187 C   0  0  0  0  0  0  0  0  0  0  0  0
  1  2  2  0  0  0
  1  6  1  0  0  0
  2  3  1  0  0  0
  3  4  2  0  0  0
  3  8  1  0  0  0
  4  5  1  0  0  0
  5  6  2  0  0  0
  7  8  1  0  0  0
  7 11  1  0  0  0
  7 12  1  0  0  0
  8  9  1  0  0  0
  9 10  1  0  0  0
 10 11  1  0  0  0
M  END
> <minimizedAffinity>
-6.05485

$$$$
1UW6_NCT_A_1208


 12 13  0  0  0  0  0  0  0  0999 V2000
   86.0851   69.9386  -10.4195 N   0  0  0  0  0  0  0  0  0  0  0  0
   84.9268   69.6905   -9.7171 C   0  0  0  0  0  0  0  0  0  0  0  0
   83.7888   69.0985  -10.3035 C   0  0  0  0  0  0  0  0  0  0  0  0
   83.8606   68.8170  -11.6860 C   0  0  0  0  0  0  0  0  0  0  0  0
   85.0251   69.1453  -12.4278 C   0  0  0  0  0  0  0  0  0  0  0  0
   86.1354   69.6766  -11.7497 C   0  0  0  0  0  0  0  0  0  0  0  0
   81.7703   69.9172   -8.9586 N   0  0  0  0  0  0  0  0  0  0  0  0
   82.5359   68.7630   -9.5505 C   0  0  0  0  0  0  0  0  0  0  0  0
   81.5405   67.9611  -10.3873 C   0  0  0  0  0  0  0  0  0  0  0  0
   80.1805   68.3449   -9.8341 C   0  0  0  0  0  0  0  0  0  0  0  0
   80.3286   69.6655   -9.0828 C   0  0  0  0  0  0  0  0  0  0  0  0
   81.9779   70.0585   -7.5160 C   0  0  0  0  0  0  0  0  0  0  0  0
  1  2  2  0  0  0
  1  6  1  0  0  0
  2  3  1  0  0  0
  3  4  2  0  0  0
  3  8  1  0  0  0
  4  5  1  0  0  0
  5  6  2  0  0  0
  7  8  1  0  0  0
  7 11  1  0  0  0
  7 12  1  0  0  0
  8  9  1  0  0  0
  9 10  1  0  0  0
 10 11  1  0  0  0
M  END
> <minimizedAffinity>
-6.03903

$$$$
1UW6_NCT_A_1208


 12 13  0  0  0  0  0  0  0  0999 V2000
   81.7728   69.9446   -7.3161 N   0  0  0  0  0  0  0  0  0  0  0  0
   82.8750   69.9719   -8.1414 C   0  0  0  0  0  0  0  0  0  0  0  0
   82.9009   69.3434   -9.4038 C   0  0  0  0  0  0  0  0  0  0  0  0
   81.7479   68.6163   -9.7749 C   0  0  0  0  0  0  0  0  0  0  0  0
   80.6415   68.5214   -8.8912 C   0  0  0  0  0  0  0  0  0  0  0  0
   80.6775   69.2308   -7.6786 C   0  0  0  0  0  0  0  0  0  0  0  0
   85.2801   68.5955   -9.9812 N   0  0  0  0  0  0  0  0  0  0  0  0
   84.0645   69.4057  -10.3480 C   0  0  0  0  0  0  0  0  0  0  0  0
   83.6893   69.0097  -11.7750 C   0  0  0  0  0  0  0  0  0  0  0  0
   84.9620   68.4207  -12.3548 C   0  0  0  0  0  0  0  0  0  0  0  0
   85.8700   68.0176  -11.1957 C   0  0  0  0  0  0  0  0  0  0  0  0
   86.3601   69.4104   -9.4212 C   0  0  0  0  0  0  0  0  0  0  0  0
  1  2  2  0  0  0
  1  6  1  0  0  0
  2  3  1  0  0  0
  3  4  2  0  0  0
  3  8  1  0  0  0
  4  5  1  0  0  0
  5  6  2  0  0  0
  7  8  1  0  0  0
  7 11  1  0  0  0
  7 12  1  0  0  0
  8  9  1  0  0  0
  9 10  1  0  0  0
 10 11  1  0  0  0
M  END
> <minimizedAffinity>
-5.80904

$$$$
1UW6_NCT_A_1208


 12 13  0  0  0  0  0  0  0  0999 V2000
   85.4971   68.8510   -9.5750 N   0  0  0  0  0  0  0  0  0  0  0  0
   84.2301   69.2007   -9.1637 C   0  0  0  0  0  0  0  0  0  0  0  0
   83.1215   69.2214  -10.0355 C   0  0  0  0  0  0  0  0  0  0  0  0
   83.3752   68.9209  -11.3924 C   0  0  0  0  0  0  0  0  0  0  0  0
   84.6943   68.6380  -11.8325 C   0  0  0  0  0  0  0  0  0  0  0  0
   85.7292   68.5787  -10.8837 C   0  0  0  0  0  0  0  0  0  0  0  0
   80.8051   68.3717   -9.3534 N   0  0  0  0  0  0  0  0  0  0  0  0
   81.7211   69.5407   -9.6040 C   0  0  0  0  0  0  0  0  0  0  0  0
   81.6736   70.4105   -8.3489 C   0  0  0  0  0  0  0  0  0  0  0  0
   80.3737   70.0256   -7.6669 C   0  0  0  0  0  0  0  0  0  0  0  0
   79.9432   68.6615   -8.2000 C   0  0  0  0  0  0  0  0  0  0  0  0
   79.8597   68.1440  -10.4482 C   0  0  0  0  0  0  0  0  0  0  0  0
  1  2  2  0  0  0
  1  6  1  0  0  0
  2  3  1  0  0  0
  3  4  2  0  0  0
  3  8  1  0  0  0
  4  5  1  0  0  0
  5  6  2  0  0  0
  7  8  1  0  0  0
  7 11  1  0  0  0
  7 12  1  0  0  0
  8  9  1  0  0  0
  9 10  1  0  0  0
 10 11  1  0  0  0
M  END
> <minimizedAffinity>
-5.20962

$$$$
1UW6_NCT_A_1208


 12 13  0  0  0  0  0  0  0  0999 V2000
   86.4702   67.9701  -10.5620 N   0  0  0  0  0  0  0  0  0  0  0  0
   85.2218   68.2096  -10.0320 C   0  0  0  0  0  0  0  0  0  0  0  0
   84.5728   69.4575  -10.1374 C   0  0  0  0  0  0  0  0  0  0  0  0
   85.2922   70.4959  -10.7699 C   0  0  0  0  0  0  0  0  0  0  0  0
   86.6102   70.2719  -11.2461 C   0  0  0  0  0  0  0  0  0  0  0  0
   87.1556   68.9801  -11.1542 C   0  0  0  0  0  0  0  0  0  0  0  0
   82.1683   68.6413   -9.8133 N   0  0  0  0  0  0  0  0  0  0  0  0
   83.1910   69.7303   -9.6221 C   0  0  0  0  0  0  0  0  0  0  0  0
   83.1746   70.0900   -8.1374 C   0  0  0  0  0  0  0  0  0  0  0  0
   81.8226   69.6096   -7.6433 C   0  0  0  0  0  0  0  0  0  0  0  0
   81.2943   68.5760   -8.6347 C   0  0  0  0  0  0  0  0  0  0  0  0
   81.2464   68.9133  -10.9180 C   0  0  0  0  0  0  0  0  0  0  0  0
  1  2  2  0  0  0
  1  6  1  0  0  0
  2  3  1  0  0  0
  3  4  2  0  0  0
  3  8  1  0  0  0
  4  5  1  0  0  0
  5  6  2  0  0  0
  7  8  1  0  0  0
  7 11  1  0  0  0
  7 12  1  0  0  0
  8  9  1  0  0  0
  9 10  1  0  0  0
 10 11  1  0  0  0
M  END
> <minimizedAffinity>
-4.92128

$$$$
