1UW6_NCT_A_1208
  RCSB PDB12061704163D
Coordinates from PDB:1UW6:A:1208 Model:1 without hydrogens
 12 13  0  0  0  0            999 V2000
   81.7260   69.9810   -7.9430   N 0  0  0  0  0  0  0  0  0  0  0  0
   82.9260   69.9090   -8.6150   C 0  0  0  0  0  0  0  0  0  0  0  0
   83.0690   69.2560   -9.8570   C 0  0  0  0  0  0  0  0  0  0  0  0
   81.9220   68.6110  -10.3710   C 0  0  0  0  0  0  0  0  0  0  0  0
   80.7050   68.6170   -9.6410   C 0  0  0  0  0  0  0  0  0  0  0  0
   80.6360   69.3450   -8.4410   C 0  0  0  0  0  0  0  0  0  0  0  0
   84.7730   70.4880  -11.3170   N 0  0  0  0  0  0  0  0  0  0  0  0
   84.3480   69.2120  -10.6390   C 0  0  0  0  0  0  0  0  0  0  0  0
   85.5370   68.7450   -9.8010   C 0  0  0  0  0  0  0  0  0  0  0  0
   86.7370   69.4340  -10.4240   C 0  0  0  0  0  0  0  0  0  0  0  0
   86.2330   70.6250  -11.2350   C 0  0  0  0  0  0  0  0  0  0  0  0
   84.5020   70.4860  -12.7560   C 0  0  0  0  0  0  0  0  0  0  0  0
  1  2  2  0  0  0  0
  1  6  1  0  0  0  0
  2  3  1  0  0  0  0
  3  4  2  0  0  0  0
  3  8  1  0  0  0  0
  4  5  1  0  0  0  0
  5  6  2  0  0  0  0
  7  8  1  0  0  0  0
  7 11  1  0  0  0  0
  7 12  1  0  0  0  0
  8  9  1  0  0  0  0
  9 10  1  0  0  0  0
 10 11  1  0  0  0  0
A    1
N1
A    2
C1
A    3
C2
A    4
C3
A    5
C4
A    6
C5
A    7
N2
A    8
C6
A    9
C7
A   10
C8
A   11
C9
A   12
C10
M  END
>  <InstanceId>
1UW6_NCT_A_1208

>  <ChemCompId>
NCT

>  <PdbId>
1UW6

>  <ChainId>
A

>  <ResidueNumber>
1208

>  <InsertionCode>


>  <Model>
1

>  <AltIds>


>  <MissingHeavyAtoms>
0

>  <ObservedFormula>
C10 N2

>  <Name>
(S)-3-(1-METHYLPYRROLIDIN-2-YL)PYRIDINE

>  <SystematicName>
3-[(1R,2S)-1-methylpyrrolidin-2-yl]pyridine

>  <Synonyms>
(S)-(-)-NICOTINE, 3-[(2S)-1-METHYL-2-PYRROLIDINYL] PYRIDINE

>  <Type>
NON-POLYMER

>  <Formula>
C10 H14 N2

>  <MolecularWeight>
162.232

>  <ModifiedDate>
2011-06-04

>  <Parent>


>  <OneLetterCode>


>  <SubcomponentList>


>  <AmbiguousFlag>
N

>  <InChI>
InChI=1S/C10H14N2/c1-12-7-3-5-10(12)9-4-2-6-11-8-9/h2,4,6,8,10H,3,5,7H2,1H3/t10-/m0/s1

>  <InChIKey>
SNICXCGAKADSCV-JTQLQIEISA-N

>  <SMILES>
C[N@@]1CCC[C@H]1c2cccnc2

$$$$
