6DH2_A60_A_102


 44 47  0  0  0  0  0  0  0  0999 V2000
  122.7930   55.5884   18.2452 C   0  0  0  0  0  0  0  0  0  0  0  0
  123.1658   54.7088   19.2477 O   0  0  0  0  0  0  0  0  0  0  0  0
  123.4704   53.8774   18.8516 H   0  0  0  0  0  0  0  0  0  0  0  0
  121.6294   54.9802   17.4009 C   0  0  0  0  0  0  0  0  0  0  0  0
  120.8243   56.0963   16.8032 N   0  0  0  0  0  0  0  0  0  0  0  0
  120.4476   55.9357   15.1462 S   0  0  0  0  0  0  0  0  0  0  0  0
  121.5145   56.4327   14.3006 O   0  0  0  0  0  0  0  0  0  0  0  0
  119.2984   56.7350   14.7877 O   0  0  0  0  0  0  0  0  0  0  0  0
  119.7234   49.7609   14.2842 N   0  0  0  0  0  0  0  0  0  0  0  0
  119.8584   51.1760   14.4951 C   0  0  0  0  0  0  0  0  0  0  0  0
  118.7901   51.9545   15.3010 C   0  0  0  0  0  0  0  0  0  0  0  0
  118.9499   53.4521   15.5154 C   0  0  0  0  0  0  0  0  0  0  0  0
  120.1768   54.1542   14.9085 C   0  0  0  0  0  0  0  0  0  0  0  0
  121.2368   53.3930   14.1265 C   0  0  0  0  0  0  0  0  0  0  0  0
  121.0642   51.8905   13.9154 C   0  0  0  0  0  0  0  0  0  0  0  0
  118.9475   49.2801   14.6529 H   0  0  0  0  0  0  0  0  0  0  0  0
  120.4069   49.2723   13.7710 H   0  0  0  0  0  0  0  0  0  0  0  0
  119.7581   56.6884   17.6135 C   0  0  0  0  0  0  0  0  0  0  0  0
  120.2732   58.0079   18.3423 C   0  0  0  0  0  0  0  0  0  0  0  0
  119.3803   58.2641   19.6015 C   0  0  0  0  0  0  0  0  0  0  0  0
  117.8779   57.9816   19.3485 C   0  0  0  0  0  0  0  0  0  0  0  0
  120.2821   59.1741   17.3272 C   0  0  0  0  0  0  0  0  0  0  0  0
  120.1086   60.5385   18.0590 C   0  0  0  0  0  0  0  0  0  0  0  0
  123.9829   55.8764   17.3413 C   0  0  0  0  0  0  0  0  0  0  0  0
  124.6358   57.0585   17.9120 N   0  0  0  0  0  0  0  0  0  0  0  0
  124.6762   58.3479   17.1882 C   0  0  0  0  0  0  0  0  0  0  0  0
  124.1999   58.4778   16.1053 O   0  0  0  0  0  0  0  0  0  0  0  0
  125.0578   56.9925   18.7990 H   0  0  0  0  0  0  0  0  0  0  0  0
  125.3212   59.3937   17.9103 O   0  0  0  0  0  0  0  0  0  0  0  0
  126.2174   59.0497   19.0653 C   0  0  0  0  0  0  0  0  0  0  0  0
  127.3847   59.4506   18.7590 C   0  0  0  0  0  0  0  0  0  0  0  0
  127.2756   61.0808   18.9296 O   0  0  0  0  0  0  0  0  0  0  0  0
  126.4963   61.2870   19.9522 C   0  0  0  0  0  0  0  0  0  0  0  0
  125.3166   62.2674   19.6047 O   0  0  0  0  0  0  0  0  0  0  0  0
  124.2220   61.5429   19.5003 C   0  0  0  0  0  0  0  0  0  0  0  0
  124.4954   60.1856   20.3462 C   0  0  0  0  0  0  0  0  0  0  0  0
  125.8248   59.9412   20.2800 C   0  0  0  0  0  0  0  0  0  0  0  0
  124.9918   54.7520   17.3467 C   0  0  0  0  0  0  0  0  0  0  0  0
  125.1247   54.8733   14.6802 C   0  0  0  0  0  0  0  0  0  0  0  0
  125.0918   54.1781   13.3035 C   0  0  0  0  0  0  0  0  0  0  0  0
  124.8785   52.6468   13.2129 C   0  0  0  0  0  0  0  0  0  0  0  0
  124.6971   51.8238   14.4949 C   0  0  0  0  0  0  0  0  0  0  0  0
  124.7336   52.5188   15.8703 C   0  0  0  0  0  0  0  0  0  0  0  0
  124.9495   54.0455   15.9624 C   0  0  0  0  0  0  0  0  0  0  0  0
  9 10  1  0  0  0
 10 11  2  0  0  0
 10 15  1  0  0  0
 11 12  1  0  0  0
 12 13  2  0  0  0
 13 14  1  0  0  0
 13  6  1  0  0  0
 14 15  2  0  0  0
  6  7  2  0  0  0
  6  8  2  0  0  0
  6  5  1  0  0  0
  5 18  1  0  0  0
  5  4  1  0  0  0
 18 19  1  0  0  0
 19 20  1  0  0  0
 19 22  1  0  0  0
 20 21  1  0  0  0
 22 23  1  0  0  0
  4  1  1  0  0  0
  1  2  1  0  0  0
  1 24  1  0  0  0
 24 25  1  0  0  0
 24 38  1  0  0  0
 25 26  1  0  0  0
 26 27  2  0  0  0
 26 29  1  0  0  0
 29 30  1  0  0  0
 30 31  1  0  0  0
 30 37  1  0  0  0
 31 32  1  0  0  0
 32 33  1  0  0  0
 33 34  1  0  0  0
 33 37  1  0  0  0
 34 35  1  0  0  0
 35 36  1  0  0  0
 36 37  1  0  0  0
 38 44  1  0  0  0
 39 40  2  0  0  0
 39 44  1  0  0  0
 40 41  1  0  0  0
 41 42  2  0  0  0
 42 43  1  0  0  0
 43 44  2  0  0  0
  9 16  1  0  0  0
  9 17  1  0  0  0
  2  3  1  0  0  0
 25 28  1  0  0  0
M  END
> <minimizedAffinity>
-9.73742

$$$$
6DH2_A60_A_102


 44 47  0  0  0  0  0  0  0  0999 V2000
  122.8291   55.7277   18.7857 C   0  0  0  0  0  0  0  0  0  0  0  0
  122.7378   54.3480   18.8613 O   0  0  0  0  0  0  0  0  0  0  0  0
  122.4960   53.9919   17.9921 H   0  0  0  0  0  0  0  0  0  0  0  0
  121.4557   56.3354   18.3601 C   0  0  0  0  0  0  0  0  0  0  0  0
  121.6714   57.7392   17.8764 N   0  0  0  0  0  0  0  0  0  0  0  0
  121.1734   58.0579   16.2752 S   0  0  0  0  0  0  0  0  0  0  0  0
  122.2723   58.5200   15.4512 O   0  0  0  0  0  0  0  0  0  0  0  0
  120.2079   59.1321   16.2281 O   0  0  0  0  0  0  0  0  0  0  0  0
  119.0714   52.5160   14.2101 N   0  0  0  0  0  0  0  0  0  0  0  0
  119.5211   53.7934   14.6910 C   0  0  0  0  0  0  0  0  0  0  0  0
  118.5444   54.7429   15.4268 C   0  0  0  0  0  0  0  0  0  0  0  0
  119.0381   56.0909   15.9301 C   0  0  0  0  0  0  0  0  0  0  0  0
  120.5064   56.4756   15.6794 C   0  0  0  0  0  0  0  0  0  0  0  0
  121.4746   55.5421   14.9684 C   0  0  0  0  0  0  0  0  0  0  0  0
  120.9669   54.1927   14.4653 C   0  0  0  0  0  0  0  0  0  0  0  0
  118.1365   52.2397   14.3474 H   0  0  0  0  0  0  0  0  0  0  0  0
  119.6982   51.9173   13.7434 H   0  0  0  0  0  0  0  0  0  0  0  0
  121.4335   58.8368   18.8160 C   0  0  0  0  0  0  0  0  0  0  0  0
  120.3738   58.4072   19.9251 C   0  0  0  0  0  0  0  0  0  0  0  0
  118.9535   58.8787   19.4681 C   0  0  0  0  0  0  0  0  0  0  0  0
  118.0236   57.7055   19.0681 C   0  0  0  0  0  0  0  0  0  0  0  0
  120.8173   58.9749   21.2932 C   0  0  0  0  0  0  0  0  0  0  0  0
  121.0020   60.5197   21.2112 C   0  0  0  0  0  0  0  0  0  0  0  0
  123.8962   56.1206   17.7745 C   0  0  0  0  0  0  0  0  0  0  0  0
  124.5125   57.3409   18.3041 N   0  0  0  0  0  0  0  0  0  0  0  0
  125.1201   58.3530   17.4127 C   0  0  0  0  0  0  0  0  0  0  0  0
  125.1538   58.2132   16.2313 O   0  0  0  0  0  0  0  0  0  0  0  0
  124.5221   57.4905   19.2771 H   0  0  0  0  0  0  0  0  0  0  0  0
  125.6391   59.4885   18.1002 O   0  0  0  0  0  0  0  0  0  0  0  0
  126.5566   59.2865   19.2719 C   0  0  0  0  0  0  0  0  0  0  0  0
  127.6868   59.7680   18.9432 C   0  0  0  0  0  0  0  0  0  0  0  0
  127.4385   61.3898   19.0232 O   0  0  0  0  0  0  0  0  0  0  0  0
  126.6403   61.5850   20.0333 C   0  0  0  0  0  0  0  0  0  0  0  0
  125.3829   62.4406   19.6326 O   0  0  0  0  0  0  0  0  0  0  0  0
  124.3544   61.6207   19.5693 C   0  0  0  0  0  0  0  0  0  0  0  0
  124.7388   60.3405   20.4889 C   0  0  0  0  0  0  0  0  0  0  0  0
  126.0845   60.2071   20.4356 C   0  0  0  0  0  0  0  0  0  0  0  0
  124.9825   55.0777   17.6535 C   0  0  0  0  0  0  0  0  0  0  0  0
  124.3418   52.9381   16.1859 C   0  0  0  0  0  0  0  0  0  0  0  0
  124.1993   52.2476   14.8138 C   0  0  0  0  0  0  0  0  0  0  0  0
  124.5707   53.0118   13.5189 C   0  0  0  0  0  0  0  0  0  0  0  0
  125.0834   54.4552   13.6043 C   0  0  0  0  0  0  0  0  0  0  0  0
  125.2223   55.1454   14.9755 C   0  0  0  0  0  0  0  0  0  0  0  0
  124.8491   54.3858   16.2676 C   0  0  0  0  0  0  0  0  0  0  0  0
  9 10  1  0  0  0
 10 11  2  0  0  0
 10 15  1  0  0  0
 11 12  1  0  0  0
 12 13  2  0  0  0
 13 14  1  0  0  0
 13  6  1  0  0  0
 14 15  2  0  0  0
  6  7  2  0  0  0
  6  8  2  0  0  0
  6  5  1  0  0  0
  5 18  1  0  0  0
  5  4  1  0  0  0
 18 19  1  0  0  0
 19 20  1  0  0  0
 19 22  1  0  0  0
 20 21  1  0  0  0
 22 23  1  0  0  0
  4  1  1  0  0  0
  1  2  1  0  0  0
  1 24  1  0  0  0
 24 25  1  0  0  0
 24 38  1  0  0  0
 25 26  1  0  0  0
 26 27  2  0  0  0
 26 29  1  0  0  0
 29 30  1  0  0  0
 30 31  1  0  0  0
 30 37  1  0  0  0
 31 32  1  0  0  0
 32 33  1  0  0  0
 33 34  1  0  0  0
 33 37  1  0  0  0
 34 35  1  0  0  0
 35 36  1  0  0  0
 36 37  1  0  0  0
 38 44  1  0  0  0
 39 40  2  0  0  0
 39 44  1  0  0  0
 40 41  1  0  0  0
 41 42  2  0  0  0
 42 43  1  0  0  0
 43 44  2  0  0  0
  9 16  1  0  0  0
  9 17  1  0  0  0
  2  3  1  0  0  0
 25 28  1  0  0  0
M  END
> <minimizedAffinity>
-9.20998

$$$$
6DH2_A60_A_102


 44 47  0  0  0  0  0  0  0  0999 V2000
  122.8092   57.3637   15.5616 C   0  0  0  0  0  0  0  0  0  0  0  0
  122.8342   58.4546   14.7090 O   0  0  0  0  0  0  0  0  0  0  0  0
  121.9505   58.8524   14.6670 H   0  0  0  0  0  0  0  0  0  0  0  0
  121.8026   56.2927   15.0359 C   0  0  0  0  0  0  0  0  0  0  0  0
  122.1986   54.9471   15.5684 N   0  0  0  0  0  0  0  0  0  0  0  0
  121.0927   54.2199   16.6461 S   0  0  0  0  0  0  0  0  0  0  0  0
  120.5342   55.1817   17.5751 O   0  0  0  0  0  0  0  0  0  0  0  0
  121.7427   53.2398   17.4857 O   0  0  0  0  0  0  0  0  0  0  0  0
  116.7171   51.5435   13.0285 N   0  0  0  0  0  0  0  0  0  0  0  0
  117.7065   52.1865   13.8487 C   0  0  0  0  0  0  0  0  0  0  0  0
  117.6400   53.7114   14.1081 C   0  0  0  0  0  0  0  0  0  0  0  0
  118.6953   54.3751   14.9799 C   0  0  0  0  0  0  0  0  0  0  0  0
  119.8133   53.5010   15.5737 C   0  0  0  0  0  0  0  0  0  0  0  0
  119.8773   52.0001   15.3332 C   0  0  0  0  0  0  0  0  0  0  0  0
  118.8140   51.3455   14.4542 C   0  0  0  0  0  0  0  0  0  0  0  0
  115.9908   52.0731   12.6270 H   0  0  0  0  0  0  0  0  0  0  0  0
  116.7655   50.5734   12.8682 H   0  0  0  0  0  0  0  0  0  0  0  0
  122.8618   54.0124   14.6570 C   0  0  0  0  0  0  0  0  0  0  0  0
  124.4437   54.1862   14.7273 C   0  0  0  0  0  0  0  0  0  0  0  0
  125.1098   53.0370   13.9000 C   0  0  0  0  0  0  0  0  0  0  0  0
  124.8017   51.6265   14.4625 C   0  0  0  0  0  0  0  0  0  0  0  0
  124.8809   54.2319   16.2096 C   0  0  0  0  0  0  0  0  0  0  0  0
  126.4178   54.4616   16.3205 C   0  0  0  0  0  0  0  0  0  0  0  0
  122.3985   57.8081   16.9578 C   0  0  0  0  0  0  0  0  0  0  0  0
  123.4059   58.7891   17.3728 N   0  0  0  0  0  0  0  0  0  0  0  0
  124.6891   58.3739   17.9804 C   0  0  0  0  0  0  0  0  0  0  0  0
  124.9520   57.2300   18.1774 O   0  0  0  0  0  0  0  0  0  0  0  0
  123.2238   59.7480   17.2438 H   0  0  0  0  0  0  0  0  0  0  0  0
  125.5587   59.4602   18.2882 O   0  0  0  0  0  0  0  0  0  0  0  0
  126.4519   59.3727   19.4924 C   0  0  0  0  0  0  0  0  0  0  0  0
  127.5742   59.8673   19.1565 C   0  0  0  0  0  0  0  0  0  0  0  0
  127.2725   61.4815   19.1143 O   0  0  0  0  0  0  0  0  0  0  0  0
  126.4428   61.7208   20.0889 C   0  0  0  0  0  0  0  0  0  0  0  0
  125.1695   62.5032   19.5988 O   0  0  0  0  0  0  0  0  0  0  0  0
  124.1696   61.6468   19.5704 C   0  0  0  0  0  0  0  0  0  0  0  0
  124.5709   60.4486   20.5882 C   0  0  0  0  0  0  0  0  0  0  0  0
  125.9210   60.3570   20.5759 C   0  0  0  0  0  0  0  0  0  0  0  0
  121.0566   58.5021   16.9666 C   0  0  0  0  0  0  0  0  0  0  0  0
  120.9556   58.2815   19.6281 C   0  0  0  0  0  0  0  0  0  0  0  0
  120.7551   58.9175   21.0192 C   0  0  0  0  0  0  0  0  0  0  0  0
  120.4393   60.4287   21.1428 C   0  0  0  0  0  0  0  0  0  0  0  0
  120.3234   61.2905   19.8788 C   0  0  0  0  0  0  0  0  0  0  0  0
  120.5271   60.6548   18.4894 C   0  0  0  0  0  0  0  0  0  0  0  0
  120.8455   59.1485   18.3648 C   0  0  0  0  0  0  0  0  0  0  0  0
  9 10  1  0  0  0
 10 11  2  0  0  0
 10 15  1  0  0  0
 11 12  1  0  0  0
 12 13  2  0  0  0
 13 14  1  0  0  0
 13  6  1  0  0  0
 14 15  2  0  0  0
  6  7  2  0  0  0
  6  8  2  0  0  0
  6  5  1  0  0  0
  5 18  1  0  0  0
  5  4  1  0  0  0
 18 19  1  0  0  0
 19 20  1  0  0  0
 19 22  1  0  0  0
 20 21  1  0  0  0
 22 23  1  0  0  0
  4  1  1  0  0  0
  1  2  1  0  0  0
  1 24  1  0  0  0
 24 25  1  0  0  0
 24 38  1  0  0  0
 25 26  1  0  0  0
 26 27  2  0  0  0
 26 29  1  0  0  0
 29 30  1  0  0  0
 30 31  1  0  0  0
 30 37  1  0  0  0
 31 32  1  0  0  0
 32 33  1  0  0  0
 33 34  1  0  0  0
 33 37  1  0  0  0
 34 35  1  0  0  0
 35 36  1  0  0  0
 36 37  1  0  0  0
 38 44  1  0  0  0
 39 40  2  0  0  0
 39 44  1  0  0  0
 40 41  1  0  0  0
 41 42  2  0  0  0
 42 43  1  0  0  0
 43 44  2  0  0  0
  9 16  1  0  0  0
  9 17  1  0  0  0
  2  3  1  0  0  0
 25 28  1  0  0  0
M  END
> <minimizedAffinity>
-9.04495

$$$$
6DH2_A60_A_102


 44 47  0  0  0  0  0  0  0  0999 V2000
  122.7396   55.4379   17.7906 C   0  0  0  0  0  0  0  0  0  0  0  0
  123.0694   54.8272   18.9889 O   0  0  0  0  0  0  0  0  0  0  0  0
  123.6089   54.0405   18.8131 H   0  0  0  0  0  0  0  0  0  0  0  0
  121.9186   54.4577   16.8951 C   0  0  0  0  0  0  0  0  0  0  0  0
  120.5323   55.0032   16.7173 N   0  0  0  0  0  0  0  0  0  0  0  0
  120.4305   56.5664   16.0393 S   0  0  0  0  0  0  0  0  0  0  0  0
  119.2698   56.7076   15.1831 O   0  0  0  0  0  0  0  0  0  0  0  0
  121.5551   56.8392   15.1739 O   0  0  0  0  0  0  0  0  0  0  0  0
  120.1699   60.5882   20.8510 N   0  0  0  0  0  0  0  0  0  0  0  0
  120.2183   59.6430   19.7697 C   0  0  0  0  0  0  0  0  0  0  0  0
  119.6363   58.2192   19.9455 C   0  0  0  0  0  0  0  0  0  0  0  0
  119.6952   57.2320   18.7896 C   0  0  0  0  0  0  0  0  0  0  0  0
  120.3482   57.6824   17.4715 C   0  0  0  0  0  0  0  0  0  0  0  0
  120.9106   59.0840   17.2879 C   0  0  0  0  0  0  0  0  0  0  0  0
  120.8483   60.0654   18.4561 C   0  0  0  0  0  0  0  0  0  0  0  0
  119.7649   60.3320   21.7110 H   0  0  0  0  0  0  0  0  0  0  0  0
  120.5417   61.4920   20.7318 H   0  0  0  0  0  0  0  0  0  0  0  0
  119.4795   54.0832   16.2823 C   0  0  0  0  0  0  0  0  0  0  0  0
  120.1002   52.8655   15.4642 C   0  0  0  0  0  0  0  0  0  0  0  0
  120.4859   53.3696   14.0339 C   0  0  0  0  0  0  0  0  0  0  0  0
  121.2995   52.3302   13.2224 C   0  0  0  0  0  0  0  0  0  0  0  0
  119.0959   51.6900   15.4695 C   0  0  0  0  0  0  0  0  0  0  0  0
  117.9464   51.9473   14.4498 C   0  0  0  0  0  0  0  0  0  0  0  0
  124.0059   55.8584   17.0589 C   0  0  0  0  0  0  0  0  0  0  0  0
  124.5072   57.0327   17.7794 N   0  0  0  0  0  0  0  0  0  0  0  0
  124.5748   58.3649   17.1398 C   0  0  0  0  0  0  0  0  0  0  0  0
  124.2454   58.5385   16.0095 O   0  0  0  0  0  0  0  0  0  0  0  0
  124.8063   56.9322   18.7119 H   0  0  0  0  0  0  0  0  0  0  0  0
  125.0550   59.3936   18.0014 O   0  0  0  0  0  0  0  0  0  0  0  0
  125.9688   59.0374   19.1387 C   0  0  0  0  0  0  0  0  0  0  0  0
  127.1430   59.3789   18.7898 C   0  0  0  0  0  0  0  0  0  0  0  0
  127.1101   61.0159   18.9231 O   0  0  0  0  0  0  0  0  0  0  0  0
  126.3709   61.2803   19.9618 C   0  0  0  0  0  0  0  0  0  0  0  0
  125.2254   62.3036   19.6236 O   0  0  0  0  0  0  0  0  0  0  0  0
  124.0977   61.6261   19.5681 C   0  0  0  0  0  0  0  0  0  0  0  0
  124.3362   60.2782   20.4393 C   0  0  0  0  0  0  0  0  0  0  0  0
  125.6512   59.9737   20.3416 C   0  0  0  0  0  0  0  0  0  0  0  0
  125.0796   54.7971   17.1156 C   0  0  0  0  0  0  0  0  0  0  0  0
  124.8121   52.4601   15.8470 C   0  0  0  0  0  0  0  0  0  0  0  0
  124.7579   51.6431   14.5395 C   0  0  0  0  0  0  0  0  0  0  0  0
  124.9308   52.3530   13.1739 C   0  0  0  0  0  0  0  0  0  0  0  0
  125.1591   53.8692   13.1248 C   0  0  0  0  0  0  0  0  0  0  0  0
  125.2098   54.6852   14.4316 C   0  0  0  0  0  0  0  0  0  0  0  0
  125.0341   53.9792   15.7941 C   0  0  0  0  0  0  0  0  0  0  0  0
  9 10  1  0  0  0
 10 11  2  0  0  0
 10 15  1  0  0  0
 11 12  1  0  0  0
 12 13  2  0  0  0
 13 14  1  0  0  0
 13  6  1  0  0  0
 14 15  2  0  0  0
  6  7  2  0  0  0
  6  8  2  0  0  0
  6  5  1  0  0  0
  5 18  1  0  0  0
  5  4  1  0  0  0
 18 19  1  0  0  0
 19 20  1  0  0  0
 19 22  1  0  0  0
 20 21  1  0  0  0
 22 23  1  0  0  0
  4  1  1  0  0  0
  1  2  1  0  0  0
  1 24  1  0  0  0
 24 25  1  0  0  0
 24 38  1  0  0  0
 25 26  1  0  0  0
 26 27  2  0  0  0
 26 29  1  0  0  0
 29 30  1  0  0  0
 30 31  1  0  0  0
 30 37  1  0  0  0
 31 32  1  0  0  0
 32 33  1  0  0  0
 33 34  1  0  0  0
 33 37  1  0  0  0
 34 35  1  0  0  0
 35 36  1  0  0  0
 36 37  1  0  0  0
 38 44  1  0  0  0
 39 40  2  0  0  0
 39 44  1  0  0  0
 40 41  1  0  0  0
 41 42  2  0  0  0
 42 43  1  0  0  0
 43 44  2  0  0  0
  9 16  1  0  0  0
  9 17  1  0  0  0
  2  3  1  0  0  0
 25 28  1  0  0  0
M  END
> <minimizedAffinity>
-9.02634

$$$$
6DH2_A60_A_102


 44 47  0  0  0  0  0  0  0  0999 V2000
  123.6558   58.7724   17.4722 C   0  0  0  0  0  0  0  0  0  0  0  0
  124.9398   58.3053   17.2468 O   0  0  0  0  0  0  0  0  0  0  0  0
  125.0326   57.4180   17.6276 H   0  0  0  0  0  0  0  0  0  0  0  0
  123.3742   58.8537   19.0055 C   0  0  0  0  0  0  0  0  0  0  0  0
  123.7912   60.2045   19.5079 N   0  0  0  0  0  0  0  0  0  0  0  0
  122.5259   61.2311   20.0163 S   0  0  0  0  0  0  0  0  0  0  0  0
  122.5393   62.4946   19.3068 O   0  0  0  0  0  0  0  0  0  0  0  0
  122.6697   61.5947   21.4075 O   0  0  0  0  0  0  0  0  0  0  0  0
  117.3064   58.0246   18.6484 N   0  0  0  0  0  0  0  0  0  0  0  0
  118.5017   58.7446   18.9921 C   0  0  0  0  0  0  0  0  0  0  0  0
  119.2487   58.4394   20.3134 C   0  0  0  0  0  0  0  0  0  0  0  0
  120.5132   59.2106   20.6605 C   0  0  0  0  0  0  0  0  0  0  0  0
  121.0084   60.2885   19.6809 C   0  0  0  0  0  0  0  0  0  0  0  0
  120.2863   60.5845   18.3750 C   0  0  0  0  0  0  0  0  0  0  0  0
  119.0165   59.8059   18.0386 C   0  0  0  0  0  0  0  0  0  0  0  0
  116.9572   57.3323   19.2549 H   0  0  0  0  0  0  0  0  0  0  0  0
  116.8368   58.2238   17.8064 H   0  0  0  0  0  0  0  0  0  0  0  0
  125.0079   60.2939   20.3176 C   0  0  0  0  0  0  0  0  0  0  0  0
  125.9781   61.4232   19.7511 C   0  0  0  0  0  0  0  0  0  0  0  0
  127.2429   60.7343   19.1392 C   0  0  0  0  0  0  0  0  0  0  0  0
  127.3599   59.2356   19.5149 C   0  0  0  0  0  0  0  0  0  0  0  0
  126.2928   62.4311   20.8805 C   0  0  0  0  0  0  0  0  0  0  0  0
  125.8985   61.8404   22.2672 C   0  0  0  0  0  0  0  0  0  0  0  0
  122.6450   57.8431   16.8163 C   0  0  0  0  0  0  0  0  0  0  0  0
  123.4307   56.7470   16.2414 N   0  0  0  0  0  0  0  0  0  0  0  0
  123.2756   56.3394   14.8279 C   0  0  0  0  0  0  0  0  0  0  0  0
  122.4946   56.8677   14.1019 O   0  0  0  0  0  0  0  0  0  0  0  0
  124.0776   56.2703   16.8102 H   0  0  0  0  0  0  0  0  0  0  0  0
  124.1450   55.2805   14.4352 O   0  0  0  0  0  0  0  0  0  0  0  0
  123.6772   53.8584   14.5544 C   0  0  0  0  0  0  0  0  0  0  0  0
  124.0046   53.2702   13.4756 C   0  0  0  0  0  0  0  0  0  0  0  0
  125.6277   53.0743   13.6357 O   0  0  0  0  0  0  0  0  0  0  0  0
  125.8398   52.8207   14.8951 C   0  0  0  0  0  0  0  0  0  0  0  0
  126.9219   53.7795   15.5142 O   0  0  0  0  0  0  0  0  0  0  0  0
  126.2875   54.6510   16.2705 C   0  0  0  0  0  0  0  0  0  0  0  0
  124.8726   53.9619   16.6655 C   0  0  0  0  0  0  0  0  0  0  0  0
  124.5332   53.1445   15.6417 C   0  0  0  0  0  0  0  0  0  0  0  0
  121.6872   57.2404   17.8171 C   0  0  0  0  0  0  0  0  0  0  0  0
  119.6307   56.5857   16.2409 C   0  0  0  0  0  0  0  0  0  0  0  0
  118.7851   55.5194   15.5143 C   0  0  0  0  0  0  0  0  0  0  0  0
  119.1472   54.0195   15.6475 C   0  0  0  0  0  0  0  0  0  0  0  0
  120.3464   53.5967   16.5059 C   0  0  0  0  0  0  0  0  0  0  0  0
  121.1928   54.6630   17.2289 C   0  0  0  0  0  0  0  0  0  0  0  0
  120.8349   56.1596   17.0942 C   0  0  0  0  0  0  0  0  0  0  0  0
  9 10  1  0  0  0
 10 11  2  0  0  0
 10 15  1  0  0  0
 11 12  1  0  0  0
 12 13  2  0  0  0
 13 14  1  0  0  0
 13  6  1  0  0  0
 14 15  2  0  0  0
  6  7  2  0  0  0
  6  8  2  0  0  0
  6  5  1  0  0  0
  5 18  1  0  0  0
  5  4  1  0  0  0
 18 19  1  0  0  0
 19 20  1  0  0  0
 19 22  1  0  0  0
 20 21  1  0  0  0
 22 23  1  0  0  0
  4  1  1  0  0  0
  1  2  1  0  0  0
  1 24  1  0  0  0
 24 25  1  0  0  0
 24 38  1  0  0  0
 25 26  1  0  0  0
 26 27  2  0  0  0
 26 29  1  0  0  0
 29 30  1  0  0  0
 30 31  1  0  0  0
 30 37  1  0  0  0
 31 32  1  0  0  0
 32 33  1  0  0  0
 33 34  1  0  0  0
 33 37  1  0  0  0
 34 35  1  0  0  0
 35 36  1  0  0  0
 36 37  1  0  0  0
 38 44  1  0  0  0
 39 40  2  0  0  0
 39 44  1  0  0  0
 40 41  1  0  0  0
 41 42  2  0  0  0
 42 43  1  0  0  0
 43 44  2  0  0  0
  9 16  1  0  0  0
  9 17  1  0  0  0
  2  3  1  0  0  0
 25 28  1  0  0  0
M  END
> <minimizedAffinity>
-8.87247

$$$$
6DH2_A60_A_102


 44 47  0  0  0  0  0  0  0  0999 V2000
  122.3696   56.7630   15.0942 C   0  0  0  0  0  0  0  0  0  0  0  0
  122.7668   57.1716   13.8321 O   0  0  0  0  0  0  0  0  0  0  0  0
  123.7355   57.1716   13.7823 H   0  0  0  0  0  0  0  0  0  0  0  0
  122.9265   57.7406   16.1764 C   0  0  0  0  0  0  0  0  0  0  0  0
  121.9446   57.8280   17.3074 N   0  0  0  0  0  0  0  0  0  0  0  0
  122.5662   57.4829   18.8591 S   0  0  0  0  0  0  0  0  0  0  0  0
  123.0288   56.1133   18.9618 O   0  0  0  0  0  0  0  0  0  0  0  0
  121.5435   57.5974   19.8735 O   0  0  0  0  0  0  0  0  0  0  0  0
  127.1290   61.6989   19.7549 N   0  0  0  0  0  0  0  0  0  0  0  0
  126.1071   60.7122   19.5372 C   0  0  0  0  0  0  0  0  0  0  0  0
  126.4832   59.2792   19.0878 C   0  0  0  0  0  0  0  0  0  0  0  0
  125.3882   58.2473   18.8632 C   0  0  0  0  0  0  0  0  0  0  0  0
  123.9252   58.6692   19.0824 C   0  0  0  0  0  0  0  0  0  0  0  0
  123.5496   60.0718   19.5363 C   0  0  0  0  0  0  0  0  0  0  0  0
  124.6571   61.0999   19.7559 C   0  0  0  0  0  0  0  0  0  0  0  0
  128.0756   61.4656   19.6180 H   0  0  0  0  0  0  0  0  0  0  0  0
  126.8825   62.6081   20.0410 H   0  0  0  0  0  0  0  0  0  0  0  0
  120.9510   58.9032   17.2769 C   0  0  0  0  0  0  0  0  0  0  0  0
  119.4749   58.3043   17.2789 C   0  0  0  0  0  0  0  0  0  0  0  0
  118.6952   58.9015   18.4972 C   0  0  0  0  0  0  0  0  0  0  0  0
  118.0468   57.8169   19.3940 C   0  0  0  0  0  0  0  0  0  0  0  0
  119.5569   56.7604   17.2775 C   0  0  0  0  0  0  0  0  0  0  0  0
  118.7609   56.1708   16.0750 C   0  0  0  0  0  0  0  0  0  0  0  0
  122.8802   55.3557   15.3666 C   0  0  0  0  0  0  0  0  0  0  0  0
  122.0451   54.4676   14.5523 N   0  0  0  0  0  0  0  0  0  0  0  0
  121.0737   53.5365   15.1669 C   0  0  0  0  0  0  0  0  0  0  0  0
  120.9414   53.4525   16.3467 O   0  0  0  0  0  0  0  0  0  0  0  0
  122.1329   54.4915   13.5720 H   0  0  0  0  0  0  0  0  0  0  0  0
  120.3258   52.7772   14.2208 O   0  0  0  0  0  0  0  0  0  0  0  0
  118.8922   52.4388   14.5135 C   0  0  0  0  0  0  0  0  0  0  0  0
  118.1843   53.0585   13.6579 C   0  0  0  0  0  0  0  0  0  0  0  0
  118.4279   52.1984   12.2797 O   0  0  0  0  0  0  0  0  0  0  0  0
  118.5091   50.9500   12.6409 C   0  0  0  0  0  0  0  0  0  0  0  0
  119.8119   50.2620   12.0905 O   0  0  0  0  0  0  0  0  0  0  0  0
  120.6441   50.1309   13.1026 C   0  0  0  0  0  0  0  0  0  0  0  0
  119.7327   50.1618   14.4446 C   0  0  0  0  0  0  0  0  0  0  0  0
  118.6577   50.9376   14.1730 C   0  0  0  0  0  0  0  0  0  0  0  0
  124.3117   55.1694   14.9212 C   0  0  0  0  0  0  0  0  0  0  0  0
  124.4436   52.5590   15.4786 C   0  0  0  0  0  0  0  0  0  0  0  0
  124.6155   51.0969   15.0175 C   0  0  0  0  0  0  0  0  0  0  0  0
  124.8421   50.7778   13.5190 C   0  0  0  0  0  0  0  0  0  0  0  0
  124.8983   51.9191   12.4952 C   0  0  0  0  0  0  0  0  0  0  0  0
  124.7231   53.3794   12.9564 C   0  0  0  0  0  0  0  0  0  0  0  0
  124.4937   53.6989   14.4501 C   0  0  0  0  0  0  0  0  0  0  0  0
  9 10  1  0  0  0
 10 11  2  0  0  0
 10 15  1  0  0  0
 11 12  1  0  0  0
 12 13  2  0  0  0
 13 14  1  0  0  0
 13  6  1  0  0  0
 14 15  2  0  0  0
  6  7  2  0  0  0
  6  8  2  0  0  0
  6  5  1  0  0  0
  5 18  1  0  0  0
  5  4  1  0  0  0
 18 19  1  0  0  0
 19 20  1  0  0  0
 19 22  1  0  0  0
 20 21  1  0  0  0
 22 23  1  0  0  0
  4  1  1  0  0  0
  1  2  1  0  0  0
  1 24  1  0  0  0
 24 25  1  0  0  0
 24 38  1  0  0  0
 25 26  1  0  0  0
 26 27  2  0  0  0
 26 29  1  0  0  0
 29 30  1  0  0  0
 30 31  1  0  0  0
 30 37  1  0  0  0
 31 32  1  0  0  0
 32 33  1  0  0  0
 33 34  1  0  0  0
 33 37  1  0  0  0
 34 35  1  0  0  0
 35 36  1  0  0  0
 36 37  1  0  0  0
 38 44  1  0  0  0
 39 40  2  0  0  0
 39 44  1  0  0  0
 40 41  1  0  0  0
 41 42  2  0  0  0
 42 43  1  0  0  0
 43 44  2  0  0  0
  9 16  1  0  0  0
  9 17  1  0  0  0
  2  3  1  0  0  0
 25 28  1  0  0  0
M  END
> <minimizedAffinity>
-8.81725

$$$$
6DH2_A60_A_102


 44 47  0  0  0  0  0  0  0  0999 V2000
  124.0131   57.2343   17.8271 C   0  0  0  0  0  0  0  0  0  0  0  0
  124.7789   56.1132   18.0996 O   0  0  0  0  0  0  0  0  0  0  0  0
  124.2572   55.4845   18.6225 H   0  0  0  0  0  0  0  0  0  0  0  0
  123.5808   57.9271   19.1575 C   0  0  0  0  0  0  0  0  0  0  0  0
  123.5421   59.4118   18.9449 N   0  0  0  0  0  0  0  0  0  0  0  0
  122.3808   60.2634   19.8614 S   0  0  0  0  0  0  0  0  0  0  0  0
  122.3863   61.6799   19.5554 O   0  0  0  0  0  0  0  0  0  0  0  0
  122.6734   60.1965   21.2749 O   0  0  0  0  0  0  0  0  0  0  0  0
  116.9370   57.6480   18.1526 N   0  0  0  0  0  0  0  0  0  0  0  0
  118.1815   58.2305   18.5733 C   0  0  0  0  0  0  0  0  0  0  0  0
  118.8614   57.7666   19.8845 C   0  0  0  0  0  0  0  0  0  0  0  0
  120.1793   58.3936   20.3138 C   0  0  0  0  0  0  0  0  0  0  0  0
  120.7955   59.4884   19.4259 C   0  0  0  0  0  0  0  0  0  0  0  0
  120.1392   59.9398   18.1298 C   0  0  0  0  0  0  0  0  0  0  0  0
  118.8151   59.3052   17.7105 C   0  0  0  0  0  0  0  0  0  0  0  0
  116.5108   56.9492   18.6996 H   0  0  0  0  0  0  0  0  0  0  0  0
  116.5106   57.9477   17.3174 H   0  0  0  0  0  0  0  0  0  0  0  0
  124.8133   60.1171   18.7700 C   0  0  0  0  0  0  0  0  0  0  0  0
  125.6348   60.1412   20.1346 C   0  0  0  0  0  0  0  0  0  0  0  0
  125.9952   61.6255   20.4746 C   0  0  0  0  0  0  0  0  0  0  0  0
  125.7808   61.9757   21.9686 C   0  0  0  0  0  0  0  0  0  0  0  0
  126.8609   59.2086   20.0019 C   0  0  0  0  0  0  0  0  0  0  0  0
  127.8104   59.7098   18.8729 C   0  0  0  0  0  0  0  0  0  0  0  0
  122.7769   56.8357   17.0343 C   0  0  0  0  0  0  0  0  0  0  0  0
  123.2037   55.7369   16.1626 N   0  0  0  0  0  0  0  0  0  0  0  0
  123.1449   55.8481   14.6887 C   0  0  0  0  0  0  0  0  0  0  0  0
  122.7311   56.8234   14.1465 O   0  0  0  0  0  0  0  0  0  0  0  0
  123.5377   54.9044   16.5682 H   0  0  0  0  0  0  0  0  0  0  0  0
  123.6324   54.6970   14.0044 O   0  0  0  0  0  0  0  0  0  0  0  0
  125.1138   54.4759   13.8941 C   0  0  0  0  0  0  0  0  0  0  0  0
  125.5912   54.5804   15.0681 C   0  0  0  0  0  0  0  0  0  0  0  0
  125.1240   53.1789   15.7865 O   0  0  0  0  0  0  0  0  0  0  0  0
  125.1962   52.2590   14.8678 C   0  0  0  0  0  0  0  0  0  0  0  0
  123.8535   51.4502   14.7383 O   0  0  0  0  0  0  0  0  0  0  0  0
  123.2565   51.8547   13.6365 C   0  0  0  0  0  0  0  0  0  0  0  0
  124.4200   52.4815   12.6952 C   0  0  0  0  0  0  0  0  0  0  0  0
  125.3662   52.9853   13.5214 C   0  0  0  0  0  0  0  0  0  0  0  0
  121.6723   56.3104   17.9211 C   0  0  0  0  0  0  0  0  0  0  0  0
  120.9415   53.8984   17.0320 C   0  0  0  0  0  0  0  0  0  0  0  0
  120.0073   53.0076   16.1873 C   0  0  0  0  0  0  0  0  0  0  0  0
  118.8602   53.6465   15.3659 C   0  0  0  0  0  0  0  0  0  0  0  0
  118.6574   55.1670   15.3918 C   0  0  0  0  0  0  0  0  0  0  0  0
  119.5894   56.0560   16.2387 C   0  0  0  0  0  0  0  0  0  0  0  0
  120.7317   55.4199   17.0612 C   0  0  0  0  0  0  0  0  0  0  0  0
  9 10  1  0  0  0
 10 11  2  0  0  0
 10 15  1  0  0  0
 11 12  1  0  0  0
 12 13  2  0  0  0
 13 14  1  0  0  0
 13  6  1  0  0  0
 14 15  2  0  0  0
  6  7  2  0  0  0
  6  8  2  0  0  0
  6  5  1  0  0  0
  5 18  1  0  0  0
  5  4  1  0  0  0
 18 19  1  0  0  0
 19 20  1  0  0  0
 19 22  1  0  0  0
 20 21  1  0  0  0
 22 23  1  0  0  0
  4  1  1  0  0  0
  1  2  1  0  0  0
  1 24  1  0  0  0
 24 25  1  0  0  0
 24 38  1  0  0  0
 25 26  1  0  0  0
 26 27  2  0  0  0
 26 29  1  0  0  0
 29 30  1  0  0  0
 30 31  1  0  0  0
 30 37  1  0  0  0
 31 32  1  0  0  0
 32 33  1  0  0  0
 33 34  1  0  0  0
 33 37  1  0  0  0
 34 35  1  0  0  0
 35 36  1  0  0  0
 36 37  1  0  0  0
 38 44  1  0  0  0
 39 40  2  0  0  0
 39 44  1  0  0  0
 40 41  1  0  0  0
 41 42  2  0  0  0
 42 43  1  0  0  0
 43 44  2  0  0  0
  9 16  1  0  0  0
  9 17  1  0  0  0
  2  3  1  0  0  0
 25 28  1  0  0  0
M  END
> <minimizedAffinity>
-8.63960

$$$$
6DH2_A60_A_102


 44 47  0  0  0  0  0  0  0  0999 V2000
  120.9652   58.0691   16.9236 C   0  0  0  0  0  0  0  0  0  0  0  0
  121.7672   58.8619   16.1199 O   0  0  0  0  0  0  0  0  0  0  0  0
  122.5894   58.3890   15.9169 H   0  0  0  0  0  0  0  0  0  0  0  0
  121.6992   57.7436   18.2623 C   0  0  0  0  0  0  0  0  0  0  0  0
  121.7012   58.9686   19.1287 N   0  0  0  0  0  0  0  0  0  0  0  0
  120.1900   59.4188   19.7820 S   0  0  0  0  0  0  0  0  0  0  0  0
  119.2958   58.2848   19.9027 O   0  0  0  0  0  0  0  0  0  0  0  0
  119.4935   60.3390   18.9123 O   0  0  0  0  0  0  0  0  0  0  0  0
  121.4708   62.0809   25.3199 N   0  0  0  0  0  0  0  0  0  0  0  0
  121.1850   61.4413   24.0652 C   0  0  0  0  0  0  0  0  0  0  0  0
  121.1545   59.8970   23.9608 C   0  0  0  0  0  0  0  0  0  0  0  0
  120.8491   59.2370   22.6246 C   0  0  0  0  0  0  0  0  0  0  0  0
  120.5876   60.1362   21.4040 C   0  0  0  0  0  0  0  0  0  0  0  0
  120.6033   61.6542   21.5025 C   0  0  0  0  0  0  0  0  0  0  0  0
  120.9139   62.3054   22.8484 C   0  0  0  0  0  0  0  0  0  0  0  0
  121.6493   61.5365   26.1205 H   0  0  0  0  0  0  0  0  0  0  0  0
  121.4881   63.0635   25.3789 H   0  0  0  0  0  0  0  0  0  0  0  0
  122.8375   59.1749   20.0289 C   0  0  0  0  0  0  0  0  0  0  0  0
  124.0695   59.8084   19.2426 C   0  0  0  0  0  0  0  0  0  0  0  0
  125.1977   58.7300   19.1296 C   0  0  0  0  0  0  0  0  0  0  0  0
  126.6052   59.2864   19.4617 C   0  0  0  0  0  0  0  0  0  0  0  0
  124.5082   61.1084   19.9552 C   0  0  0  0  0  0  0  0  0  0  0  0
  123.6689   62.3199   19.4500 C   0  0  0  0  0  0  0  0  0  0  0  0
  120.6267   56.7742   16.1994 C   0  0  0  0  0  0  0  0  0  0  0  0
  121.9038   56.0775   16.0178 N   0  0  0  0  0  0  0  0  0  0  0  0
  122.6507   56.1461   14.7429 C   0  0  0  0  0  0  0  0  0  0  0  0
  122.2402   56.7513   13.8040 O   0  0  0  0  0  0  0  0  0  0  0  0
  122.2735   55.5508   16.7630 H   0  0  0  0  0  0  0  0  0  0  0  0
  123.8868   55.4368   14.7606 O   0  0  0  0  0  0  0  0  0  0  0  0
  123.9099   54.0049   15.2130 C   0  0  0  0  0  0  0  0  0  0  0  0
  124.5045   53.3407   14.3062 C   0  0  0  0  0  0  0  0  0  0  0  0
  126.0806   53.7542   14.5142 O   0  0  0  0  0  0  0  0  0  0  0  0
  126.2572   53.8753   15.7986 C   0  0  0  0  0  0  0  0  0  0  0  0
  126.9025   55.2591   16.1757 O   0  0  0  0  0  0  0  0  0  0  0  0
  125.9527   56.0049   16.7008 C   0  0  0  0  0  0  0  0  0  0  0  0
  124.8192   54.9784   17.2432 C   0  0  0  0  0  0  0  0  0  0  0  0
  124.8589   53.8885   16.4419 C   0  0  0  0  0  0  0  0  0  0  0  0
  119.7309   55.8762   17.0199 C   0  0  0  0  0  0  0  0  0  0  0  0
  118.3161   54.8001   15.0242 C   0  0  0  0  0  0  0  0  0  0  0  0
  117.9329   53.5832   14.1569 C   0  0  0  0  0  0  0  0  0  0  0  0
  118.5810   52.2029   14.4280 C   0  0  0  0  0  0  0  0  0  0  0  0
  119.6021   52.0482   15.5626 C   0  0  0  0  0  0  0  0  0  0  0  0
  119.9868   53.2654   16.4265 C   0  0  0  0  0  0  0  0  0  0  0  0
  119.3439   54.6434   16.1552 C   0  0  0  0  0  0  0  0  0  0  0  0
  9 10  1  0  0  0
 10 11  2  0  0  0
 10 15  1  0  0  0
 11 12  1  0  0  0
 12 13  2  0  0  0
 13 14  1  0  0  0
 13  6  1  0  0  0
 14 15  2  0  0  0
  6  7  2  0  0  0
  6  8  2  0  0  0
  6  5  1  0  0  0
  5 18  1  0  0  0
  5  4  1  0  0  0
 18 19  1  0  0  0
 19 20  1  0  0  0
 19 22  1  0  0  0
 20 21  1  0  0  0
 22 23  1  0  0  0
  4  1  1  0  0  0
  1  2  1  0  0  0
  1 24  1  0  0  0
 24 25  1  0  0  0
 24 38  1  0  0  0
 25 26  1  0  0  0
 26 27  2  0  0  0
 26 29  1  0  0  0
 29 30  1  0  0  0
 30 31  1  0  0  0
 30 37  1  0  0  0
 31 32  1  0  0  0
 32 33  1  0  0  0
 33 34  1  0  0  0
 33 37  1  0  0  0
 34 35  1  0  0  0
 35 36  1  0  0  0
 36 37  1  0  0  0
 38 44  1  0  0  0
 39 40  2  0  0  0
 39 44  1  0  0  0
 40 41  1  0  0  0
 41 42  2  0  0  0
 42 43  1  0  0  0
 43 44  2  0  0  0
  9 16  1  0  0  0
  9 17  1  0  0  0
  2  3  1  0  0  0
 25 28  1  0  0  0
M  END
> <minimizedAffinity>
-8.38050

$$$$
6DH2_A60_A_102


 44 47  0  0  0  0  0  0  0  0999 V2000
  123.4650   58.4135   18.0380 C   0  0  0  0  0  0  0  0  0  0  0  0
  124.2790   59.3560   17.4325 O   0  0  0  0  0  0  0  0  0  0  0  0
  125.1830   59.2692   17.7731 H   0  0  0  0  0  0  0  0  0  0  0  0
  123.4413   58.6357   19.5829 C   0  0  0  0  0  0  0  0  0  0  0  0
  123.8021   60.0621   19.8769 N   0  0  0  0  0  0  0  0  0  0  0  0
  122.4931   61.1065   20.2071 S   0  0  0  0  0  0  0  0  0  0  0  0
  122.5714   62.3296   19.4338 O   0  0  0  0  0  0  0  0  0  0  0  0
  122.5045   61.5462   21.5836 O   0  0  0  0  0  0  0  0  0  0  0  0
  117.4141   57.8194   18.5352 N   0  0  0  0  0  0  0  0  0  0  0  0
  118.5769   58.5562   18.9477 C   0  0  0  0  0  0  0  0  0  0  0  0
  119.3013   58.2030   20.2697 C   0  0  0  0  0  0  0  0  0  0  0  0
  120.5315   58.9930   20.6901 C   0  0  0  0  0  0  0  0  0  0  0  0
  121.0153   60.1371   19.7826 C   0  0  0  0  0  0  0  0  0  0  0  0
  120.3158   60.4810   18.4761 C   0  0  0  0  0  0  0  0  0  0  0  0
  119.0802   59.6829   18.0658 C   0  0  0  0  0  0  0  0  0  0  0  0
  117.0728   57.0847   19.0947 H   0  0  0  0  0  0  0  0  0  0  0  0
  116.9588   58.0493   17.6931 H   0  0  0  0  0  0  0  0  0  0  0  0
  125.0008   60.3195   20.6775 C   0  0  0  0  0  0  0  0  0  0  0  0
  126.2286   60.7103   19.7408 C   0  0  0  0  0  0  0  0  0  0  0  0
  127.2280   59.5069   19.6990 C   0  0  0  0  0  0  0  0  0  0  0  0
  127.6910   59.1514   18.2638 C   0  0  0  0  0  0  0  0  0  0  0  0
  126.8516   62.0305   20.2503 C   0  0  0  0  0  0  0  0  0  0  0  0
  126.1235   62.5183   21.5384 C   0  0  0  0  0  0  0  0  0  0  0  0
  123.9780   57.0140   17.7316 C   0  0  0  0  0  0  0  0  0  0  0  0
  122.8342   56.2875   17.1718 N   0  0  0  0  0  0  0  0  0  0  0  0
  122.2392   55.1242   17.8652 C   0  0  0  0  0  0  0  0  0  0  0  0
  122.6732   54.7149   18.8950 O   0  0  0  0  0  0  0  0  0  0  0  0
  122.4527   56.5812   16.3130 H   0  0  0  0  0  0  0  0  0  0  0  0
  121.1142   54.5658   17.1916 O   0  0  0  0  0  0  0  0  0  0  0  0
  121.3252   53.7763   15.9316 C   0  0  0  0  0  0  0  0  0  0  0  0
  120.7432   52.6575   16.0950 C   0  0  0  0  0  0  0  0  0  0  0  0
  119.1521   53.0410   15.9547 O   0  0  0  0  0  0  0  0  0  0  0  0
  119.0809   53.9632   15.0382 C   0  0  0  0  0  0  0  0  0  0  0  0
  118.2940   55.2299   15.5381 O   0  0  0  0  0  0  0  0  0  0  0  0
  119.1800   56.1760   15.7700 C   0  0  0  0  0  0  0  0  0  0  0  0
  120.4862   55.7999   14.8840 C   0  0  0  0  0  0  0  0  0  0  0  0
  120.5185   54.4508   14.7831 C   0  0  0  0  0  0  0  0  0  0  0  0
  125.0691   57.0198   16.6867 C   0  0  0  0  0  0  0  0  0  0  0  0
  125.9251   54.4889   16.7525 C   0  0  0  0  0  0  0  0  0  0  0  0
  125.9968   53.0814   16.1251 C   0  0  0  0  0  0  0  0  0  0  0  0
  125.2845   52.7948   14.7800 C   0  0  0  0  0  0  0  0  0  0  0  0
  124.5105   53.9142   14.0719 C   0  0  0  0  0  0  0  0  0  0  0  0
  124.4366   55.3194   14.7012 C   0  0  0  0  0  0  0  0  0  0  0  0
  125.1436   55.6059   16.0444 C   0  0  0  0  0  0  0  0  0  0  0  0
  9 10  1  0  0  0
 10 11  2  0  0  0
 10 15  1  0  0  0
 11 12  1  0  0  0
 12 13  2  0  0  0
 13 14  1  0  0  0
 13  6  1  0  0  0
 14 15  2  0  0  0
  6  7  2  0  0  0
  6  8  2  0  0  0
  6  5  1  0  0  0
  5 18  1  0  0  0
  5  4  1  0  0  0
 18 19  1  0  0  0
 19 20  1  0  0  0
 19 22  1  0  0  0
 20 21  1  0  0  0
 22 23  1  0  0  0
  4  1  1  0  0  0
  1  2  1  0  0  0
  1 24  1  0  0  0
 24 25  1  0  0  0
 24 38  1  0  0  0
 25 26  1  0  0  0
 26 27  2  0  0  0
 26 29  1  0  0  0
 29 30  1  0  0  0
 30 31  1  0  0  0
 30 37  1  0  0  0
 31 32  1  0  0  0
 32 33  1  0  0  0
 33 34  1  0  0  0
 33 37  1  0  0  0
 34 35  1  0  0  0
 35 36  1  0  0  0
 36 37  1  0  0  0
 38 44  1  0  0  0
 39 40  2  0  0  0
 39 44  1  0  0  0
 40 41  1  0  0  0
 41 42  2  0  0  0
 42 43  1  0  0  0
 43 44  2  0  0  0
  9 16  1  0  0  0
  9 17  1  0  0  0
  2  3  1  0  0  0
 25 28  1  0  0  0
M  END
> <minimizedAffinity>
-8.37650

$$$$
6DH2_A60_A_102


 44 47  0  0  0  0  0  0  0  0999 V2000
  119.3927   56.4431   16.8721 C   0  0  0  0  0  0  0  0  0  0  0  0
  118.1470   56.6989   17.4201 O   0  0  0  0  0  0  0  0  0  0  0  0
  117.6388   57.2645   16.8179 H   0  0  0  0  0  0  0  0  0  0  0  0
  120.1728   57.7788   16.6617 C   0  0  0  0  0  0  0  0  0  0  0  0
  120.6893   58.2568   17.9868 N   0  0  0  0  0  0  0  0  0  0  0  0
  119.7284   59.4220   18.7820 S   0  0  0  0  0  0  0  0  0  0  0  0
  118.5393   58.8331   19.3645 O   0  0  0  0  0  0  0  0  0  0  0  0
  119.2269   60.4116   17.8561 O   0  0  0  0  0  0  0  0  0  0  0  0
  123.4197   61.7120   23.3126 N   0  0  0  0  0  0  0  0  0  0  0  0
  122.5928   61.2046   22.2525 C   0  0  0  0  0  0  0  0  0  0  0  0
  122.9721   61.4560   20.7727 C   0  0  0  0  0  0  0  0  0  0  0  0
  122.0855   60.9104   19.6635 C   0  0  0  0  0  0  0  0  0  0  0  0
  120.8205   60.1263   20.0529 C   0  0  0  0  0  0  0  0  0  0  0  0
  120.4489   59.8646   21.5047 C   0  0  0  0  0  0  0  0  0  0  0  0
  121.3450   60.4196   22.6096 C   0  0  0  0  0  0  0  0  0  0  0  0
  124.2335   62.2237   23.1001 H   0  0  0  0  0  0  0  0  0  0  0  0
  123.1725   61.5479   24.2513 H   0  0  0  0  0  0  0  0  0  0  0  0
  121.3165   57.2776   18.8767 C   0  0  0  0  0  0  0  0  0  0  0  0
  122.9039   57.3919   18.8079 C   0  0  0  0  0  0  0  0  0  0  0  0
  123.2904   58.2244   17.5406 C   0  0  0  0  0  0  0  0  0  0  0  0
  124.8142   58.4790   17.4226 C   0  0  0  0  0  0  0  0  0  0  0  0
  123.5138   55.9715   18.8401 C   0  0  0  0  0  0  0  0  0  0  0  0
  122.5106   54.9314   18.2578 C   0  0  0  0  0  0  0  0  0  0  0  0
  119.2337   55.7294   15.5375 C   0  0  0  0  0  0  0  0  0  0  0  0
  120.4078   54.8606   15.4116 N   0  0  0  0  0  0  0  0  0  0  0  0
  121.5717   55.2442   14.5830 C   0  0  0  0  0  0  0  0  0  0  0  0
  121.5987   56.2625   13.9676 O   0  0  0  0  0  0  0  0  0  0  0  0
  120.4221   54.0004   15.8903 H   0  0  0  0  0  0  0  0  0  0  0  0
  122.6337   54.2941   14.6067 O   0  0  0  0  0  0  0  0  0  0  0  0
  124.0338   54.7440   14.3021 C   0  0  0  0  0  0  0  0  0  0  0  0
  124.5783   55.0347   15.4139 C   0  0  0  0  0  0  0  0  0  0  0  0
  124.8673   53.5627   16.0835 O   0  0  0  0  0  0  0  0  0  0  0  0
  125.2003   52.7763   15.1005 C   0  0  0  0  0  0  0  0  0  0  0  0
  124.3347   51.4634   15.0784 O   0  0  0  0  0  0  0  0  0  0  0  0
  123.4739   51.5774   14.0884 C   0  0  0  0  0  0  0  0  0  0  0  0
  124.1087   52.6593   13.0592 C   0  0  0  0  0  0  0  0  0  0  0  0
  124.8499   53.5176   13.7977 C   0  0  0  0  0  0  0  0  0  0  0  0
  118.0083   54.8466   15.5023 C   0  0  0  0  0  0  0  0  0  0  0  0
  119.0227   52.4027   15.8778 C   0  0  0  0  0  0  0  0  0  0  0  0
  119.4245   51.0190   15.3267 C   0  0  0  0  0  0  0  0  0  0  0  0
  119.2224   50.6934   13.8261 C   0  0  0  0  0  0  0  0  0  0  0  0
  118.6248   51.7508   12.8889 C   0  0  0  0  0  0  0  0  0  0  0  0
  118.2204   53.1320   13.4411 C   0  0  0  0  0  0  0  0  0  0  0  0
  118.4182   53.4570   14.9381 C   0  0  0  0  0  0  0  0  0  0  0  0
  9 10  1  0  0  0
 10 11  2  0  0  0
 10 15  1  0  0  0
 11 12  1  0  0  0
 12 13  2  0  0  0
 13 14  1  0  0  0
 13  6  1  0  0  0
 14 15  2  0  0  0
  6  7  2  0  0  0
  6  8  2  0  0  0
  6  5  1  0  0  0
  5 18  1  0  0  0
  5  4  1  0  0  0
 18 19  1  0  0  0
 19 20  1  0  0  0
 19 22  1  0  0  0
 20 21  1  0  0  0
 22 23  1  0  0  0
  4  1  1  0  0  0
  1  2  1  0  0  0
  1 24  1  0  0  0
 24 25  1  0  0  0
 24 38  1  0  0  0
 25 26  1  0  0  0
 26 27  2  0  0  0
 26 29  1  0  0  0
 29 30  1  0  0  0
 30 31  1  0  0  0
 30 37  1  0  0  0
 31 32  1  0  0  0
 32 33  1  0  0  0
 33 34  1  0  0  0
 33 37  1  0  0  0
 34 35  1  0  0  0
 35 36  1  0  0  0
 36 37  1  0  0  0
 38 44  1  0  0  0
 39 40  2  0  0  0
 39 44  1  0  0  0
 40 41  1  0  0  0
 41 42  2  0  0  0
 42 43  1  0  0  0
 43 44  2  0  0  0
  9 16  1  0  0  0
  9 17  1  0  0  0
  2  3  1  0  0  0
 25 28  1  0  0  0
M  END
> <minimizedAffinity>
-8.36287

$$$$
