4IPI_LMR_A_402
  RCSB PDB12061713033D
Coordinates from PDB:4IPI:A:402 Model:1 without hydrogens
  9  8  0  0  0  0            999 V2000
   95.6610  -20.8910   53.0380   C 0  0  0  0  0  0  0  0  0  0  0  0
   94.6900  -20.1080   52.8650   O 0  0  0  0  0  0  0  0  0  0  0  0
   95.7550  -21.5130   54.1160   O 0  0  0  0  0  0  0  0  0  0  0  0
   96.7200  -21.0920   51.9920   C 0  0  0  0  0  0  0  0  0  0  0  0
   96.5730  -20.1780   50.9280   O 0  0  0  0  0  0  0  0  0  0  0  0
   98.1110  -20.9690   52.6210   C 0  0  0  0  0  0  0  0  0  0  0  0
   98.2670  -19.6880   53.4070   C 0  0  0  0  0  0  0  0  0  0  0  0
   99.3170  -19.4570   54.0610   O 0  0  0  0  0  0  0  0  0  0  0  0
   97.3480  -18.8430   53.4240   O 0  0  0  0  0  0  0  0  0  0  0  0
  1  2  2  0  0  0  0
  1  3  1  0  0  0  0
  1  4  1  0  0  0  0
  4  5  1  0  0  0  0
  4  6  1  0  0  0  0
  6  7  1  0  0  0  0
  7  8  1  0  0  0  0
  7  9  2  0  0  0  0
A    1
C1
A    2
O1A
A    3
O1B
A    4
C2
A    5
O2
A    6
C3
A    7
C4
A    8
O4A
A    9
O4B
M  END
>  <InstanceId>
4IPI_LMR_A_402

>  <ChemCompId>
LMR

>  <PdbId>
4IPI

>  <ChainId>
A

>  <ResidueNumber>
402

>  <InsertionCode>


>  <Model>
1

>  <AltIds>


>  <MissingHeavyAtoms>
0

>  <ObservedFormula>
C4 O5

>  <Name>
(2S)-2-hydroxybutanedioic acid

>  <SystematicName>
(2S)-2-hydroxybutanedioic acid

>  <Synonyms>
L-Malate

>  <Type>
NON-POLYMER

>  <Formula>
C4 H6 O5

>  <MolecularWeight>
134.087

>  <ModifiedDate>
2011-06-04

>  <Parent>


>  <OneLetterCode>


>  <SubcomponentList>


>  <AmbiguousFlag>
N

>  <InChI>
InChI=1S/C4H6O5/c5-2(4(8)9)1-3(6)7/h2,5H,1H2,(H,6,7)(H,8,9)/t2-/m0/s1

>  <InChIKey>
BJEPYKJPYRNKOW-REOHCLBHSA-N

>  <SMILES>
C([C@@H](C(=O)O)O)C(=O)O

$$$$
