4DER_AGI_A_201


 23 25  0  0  0  0  0  0  0  0999 V2000
   23.3338   43.4849   36.9590 C   0  0  0  0  0  0  0  0  0  0  0  0
   22.0300   43.1693   37.0556 O   0  0  0  0  0  0  0  0  0  0  0  0
   24.1781   43.4617   38.0474 C   0  0  0  0  0  0  0  0  0  0  0  0
   23.7176   43.0774   39.2691 C   0  0  0  0  0  0  0  0  0  0  0  0
   24.4819   43.0405   40.2308 O   0  0  0  0  0  0  0  0  0  0  0  0
   22.3839   42.8011   39.3799 C   0  0  0  0  0  0  0  0  0  0  0  0
   21.5709   42.8688   38.2740 C   0  0  0  0  0  0  0  0  0  0  0  0
   20.2292   42.6166   38.3777 C   0  0  0  0  0  0  0  0  0  0  0  0
   19.7228   42.2964   39.6144 C   0  0  0  0  0  0  0  0  0  0  0  0
   18.4260   42.0367   39.6867 O   0  0  0  0  0  0  0  0  0  0  0  0
   20.5382   42.2281   40.7326 C   0  0  0  0  0  0  0  0  0  0  0  0
   21.8756   42.4862   40.6082 C   0  0  0  0  0  0  0  0  0  0  0  0
   22.7231   42.4394   41.6495 O   0  0  0  0  0  0  0  0  0  0  0  0
   17.8941   42.0892   38.9170 H   0  0  0  0  0  0  0  0  0  0  0  0
   23.6330   42.6231   41.5216 H   0  0  0  0  0  0  0  0  0  0  0  0
   25.1715   43.5456   35.4607 C   0  0  0  0  0  0  0  0  0  0  0  0
   25.6694   43.8882   34.2511 C   0  0  0  0  0  0  0  0  0  0  0  0
   24.8304   44.4995   33.3446 C   0  0  0  0  0  0  0  0  0  0  0  0
   25.3121   44.8344   32.1553 O   0  0  0  0  0  0  0  0  0  0  0  0
   23.5109   44.7791   33.6198 C   0  0  0  0  0  0  0  0  0  0  0  0
   23.0232   44.4393   34.8331 C   0  0  0  0  0  0  0  0  0  0  0  0
   23.8512   43.8257   35.7513 C   0  0  0  0  0  0  0  0  0  0  0  0
   26.2072   44.6544   31.9447 H   0  0  0  0  0  0  0  0  0  0  0  0
 16 17  2  0  0  0
 16 22  1  0  0  0
 17 18  1  0  0  0
 18 19  1  0  0  0
 18 20  2  0  0  0
 20 21  1  0  0  0
 21 22  2  0  0  0
 22  1  1  0  0  0
  1  2  1  0  0  0
  1  3  2  0  0  0
  2  7  1  0  0  0
  3  4  1  0  0  0
  4  5  2  0  0  0
  4  6  1  0  0  0
  6  7  2  0  0  0
  6 12  1  0  0  0
  7  8  1  0  0  0
  8  9  2  0  0  0
  9 10  1  0  0  0
  9 11  1  0  0  0
 11 12  2  0  0  0
 12 13  1  0  0  0
 19 23  1  0  0  0
 10 14  1  0  0  0
 13 15  1  0  0  0
M  END
> <minimizedAffinity>
-8.80526

$$$$
4DER_AGI_A_201


 23 25  0  0  0  0  0  0  0  0999 V2000
   19.8343   41.6323   36.9303 C   0  0  0  0  0  0  0  0  0  0  0  0
   21.1395   41.9405   37.0330 O   0  0  0  0  0  0  0  0  0  0  0  0
   18.9852   41.6598   38.0148 C   0  0  0  0  0  0  0  0  0  0  0  0
   19.4423   42.0408   39.2388 C   0  0  0  0  0  0  0  0  0  0  0  0
   18.6738   42.0816   40.1970 O   0  0  0  0  0  0  0  0  0  0  0  0
   20.7770   42.3094   39.3559 C   0  0  0  0  0  0  0  0  0  0  0  0
   21.5947   42.2377   38.2538 C   0  0  0  0  0  0  0  0  0  0  0  0
   22.9374   42.4822   38.3637 C   0  0  0  0  0  0  0  0  0  0  0  0
   23.4398   42.7989   39.6029 C   0  0  0  0  0  0  0  0  0  0  0  0
   24.7378   43.0511   39.6813 O   0  0  0  0  0  0  0  0  0  0  0  0
   22.6197   42.8712   40.7174 C   0  0  0  0  0  0  0  0  0  0  0  0
   21.2815   42.6208   40.5867 C   0  0  0  0  0  0  0  0  0  0  0  0
   20.4294   42.6719   41.6241 O   0  0  0  0  0  0  0  0  0  0  0  0
   25.2729   42.9960   38.9141 H   0  0  0  0  0  0  0  0  0  0  0  0
   19.5191   42.4934   41.4919 H   0  0  0  0  0  0  0  0  0  0  0  0
   17.9922   41.5452   35.4387 C   0  0  0  0  0  0  0  0  0  0  0  0
   17.4980   41.2067   34.2265 C   0  0  0  0  0  0  0  0  0  0  0  0
   18.3485   40.6299   33.3081 C   0  0  0  0  0  0  0  0  0  0  0  0
   17.8703   40.2992   32.1162 O   0  0  0  0  0  0  0  0  0  0  0  0
   19.6759   40.3806   33.5740 C   0  0  0  0  0  0  0  0  0  0  0  0
   20.1601   40.7159   34.7900 C   0  0  0  0  0  0  0  0  0  0  0  0
   19.3206   41.2952   35.7200 C   0  0  0  0  0  0  0  0  0  0  0  0
   16.9700   40.4590   31.9117 H   0  0  0  0  0  0  0  0  0  0  0  0
 16 17  2  0  0  0
 16 22  1  0  0  0
 17 18  1  0  0  0
 18 19  1  0  0  0
 18 20  2  0  0  0
 20 21  1  0  0  0
 21 22  2  0  0  0
 22  1  1  0  0  0
  1  2  1  0  0  0
  1  3  2  0  0  0
  2  7  1  0  0  0
  3  4  1  0  0  0
  4  5  2  0  0  0
  4  6  1  0  0  0
  6  7  2  0  0  0
  6 12  1  0  0  0
  7  8  1  0  0  0
  8  9  2  0  0  0
  9 10  1  0  0  0
  9 11  1  0  0  0
 11 12  2  0  0  0
 12 13  1  0  0  0
 19 23  1  0  0  0
 10 14  1  0  0  0
 13 15  1  0  0  0
M  END
> <minimizedAffinity>
-8.77573

$$$$
4DER_AGI_A_201


 23 25  0  0  0  0  0  0  0  0999 V2000
   22.6748   43.0770   39.0989 C   0  0  0  0  0  0  0  0  0  0  0  0
   22.5815   41.7865   39.4658 O   0  0  0  0  0  0  0  0  0  0  0  0
   22.4115   44.1100   39.9716 C   0  0  0  0  0  0  0  0  0  0  0  0
   22.0771   43.8514   41.2652 C   0  0  0  0  0  0  0  0  0  0  0  0
   21.8630   44.7790   42.0424 O   0  0  0  0  0  0  0  0  0  0  0  0
   21.9362   42.5415   41.6284 C   0  0  0  0  0  0  0  0  0  0  0  0
   22.1769   41.5426   40.7158 C   0  0  0  0  0  0  0  0  0  0  0  0
   22.0166   40.2276   41.0619 C   0  0  0  0  0  0  0  0  0  0  0  0
   21.6091   39.9387   42.3421 C   0  0  0  0  0  0  0  0  0  0  0  0
   21.4805   38.6593   42.6600 O   0  0  0  0  0  0  0  0  0  0  0  0
   21.3639   40.9423   43.2654 C   0  0  0  0  0  0  0  0  0  0  0  0
   21.5275   42.2498   42.8988 C   0  0  0  0  0  0  0  0  0  0  0  0
   21.3064   43.2723   43.7417 O   0  0  0  0  0  0  0  0  0  0  0  0
   21.6517   37.9977   42.0189 H   0  0  0  0  0  0  0  0  0  0  0  0
   21.4302   44.1544   43.4509 H   0  0  0  0  0  0  0  0  0  0  0  0
   24.3581   43.7587   37.5733 C   0  0  0  0  0  0  0  0  0  0  0  0
   24.7200   44.0591   36.3055 C   0  0  0  0  0  0  0  0  0  0  0  0
   23.7685   43.9713   35.3124 C   0  0  0  0  0  0  0  0  0  0  0  0
   24.1184   44.2611   34.0666 O   0  0  0  0  0  0  0  0  0  0  0  0
   22.4669   43.5955   35.5570 C   0  0  0  0  0  0  0  0  0  0  0  0
   22.1121   43.3034   36.8275 C   0  0  0  0  0  0  0  0  0  0  0  0
   23.0543   43.3860   37.8328 C   0  0  0  0  0  0  0  0  0  0  0  0
   24.9986   44.5193   33.8752 H   0  0  0  0  0  0  0  0  0  0  0  0
 16 17  2  0  0  0
 16 22  1  0  0  0
 17 18  1  0  0  0
 18 19  1  0  0  0
 18 20  2  0  0  0
 20 21  1  0  0  0
 21 22  2  0  0  0
 22  1  1  0  0  0
  1  2  1  0  0  0
  1  3  2  0  0  0
  2  7  1  0  0  0
  3  4  1  0  0  0
  4  5  2  0  0  0
  4  6  1  0  0  0
  6  7  2  0  0  0
  6 12  1  0  0  0
  7  8  1  0  0  0
  8  9  2  0  0  0
  9 10  1  0  0  0
  9 11  1  0  0  0
 11 12  2  0  0  0
 12 13  1  0  0  0
 19 23  1  0  0  0
 10 14  1  0  0  0
 13 15  1  0  0  0
M  END
> <minimizedAffinity>
-8.67356

$$$$
4DER_AGI_A_201


 23 25  0  0  0  0  0  0  0  0999 V2000
   20.4504   42.0484   39.0990 C   0  0  0  0  0  0  0  0  0  0  0  0
   20.5407   43.3385   39.4681 O   0  0  0  0  0  0  0  0  0  0  0  0
   20.7250   41.0147   39.9673 C   0  0  0  0  0  0  0  0  0  0  0  0
   21.0681   41.2719   41.2589 C   0  0  0  0  0  0  0  0  0  0  0  0
   21.2923   40.3436   42.0324 O   0  0  0  0  0  0  0  0  0  0  0  0
   21.2058   42.5816   41.6240 C   0  0  0  0  0  0  0  0  0  0  0  0
   20.9537   43.5814   40.7156 C   0  0  0  0  0  0  0  0  0  0  0  0
   21.1106   44.8963   41.0634 C   0  0  0  0  0  0  0  0  0  0  0  0
   21.5266   45.1843   42.3411 C   0  0  0  0  0  0  0  0  0  0  0  0
   21.6519   46.4635   42.6610 O   0  0  0  0  0  0  0  0  0  0  0  0
   21.7834   44.1797   43.2602 C   0  0  0  0  0  0  0  0  0  0  0  0
   21.6229   42.8723   42.8920 C   0  0  0  0  0  0  0  0  0  0  0  0
   21.8550   41.8489   43.7308 O   0  0  0  0  0  0  0  0  0  0  0  0
   21.4728   47.1257   42.0227 H   0  0  0  0  0  0  0  0  0  0  0  0
   21.7329   40.9669   43.4389 H   0  0  0  0  0  0  0  0  0  0  0  0
   18.7704   41.3199   37.5914 C   0  0  0  0  0  0  0  0  0  0  0  0
   18.3998   41.0214   36.3258 C   0  0  0  0  0  0  0  0  0  0  0  0
   19.3308   41.1591   35.3189 C   0  0  0  0  0  0  0  0  0  0  0  0
   18.9721   40.8714   34.0751 O   0  0  0  0  0  0  0  0  0  0  0  0
   20.6204   41.5829   35.5477 C   0  0  0  0  0  0  0  0  0  0  0  0
   20.9843   41.8729   36.8162 C   0  0  0  0  0  0  0  0  0  0  0  0
   20.0626   41.7405   37.8351 C   0  0  0  0  0  0  0  0  0  0  0  0
   18.0998   40.5810   33.8943 H   0  0  0  0  0  0  0  0  0  0  0  0
 16 17  2  0  0  0
 16 22  1  0  0  0
 17 18  1  0  0  0
 18 19  1  0  0  0
 18 20  2  0  0  0
 20 21  1  0  0  0
 21 22  2  0  0  0
 22  1  1  0  0  0
  1  2  1  0  0  0
  1  3  2  0  0  0
  2  7  1  0  0  0
  3  4  1  0  0  0
  4  5  2  0  0  0
  4  6  1  0  0  0
  6  7  2  0  0  0
  6 12  1  0  0  0
  7  8  1  0  0  0
  8  9  2  0  0  0
  9 10  1  0  0  0
  9 11  1  0  0  0
 11 12  2  0  0  0
 12 13  1  0  0  0
 19 23  1  0  0  0
 10 14  1  0  0  0
 13 15  1  0  0  0
M  END
> <minimizedAffinity>
-8.67102

$$$$
4DER_AGI_A_201


 23 25  0  0  0  0  0  0  0  0999 V2000
   22.0725   42.6838   40.5779 C   0  0  0  0  0  0  0  0  0  0  0  0
   21.1163   42.2718   39.7266 O   0  0  0  0  0  0  0  0  0  0  0  0
   23.2747   43.1954   40.1410 C   0  0  0  0  0  0  0  0  0  0  0  0
   23.5217   43.3348   38.8099 C   0  0  0  0  0  0  0  0  0  0  0  0
   24.5889   43.8104   38.4289 O   0  0  0  0  0  0  0  0  0  0  0  0
   22.5714   42.8743   37.9425 C   0  0  0  0  0  0  0  0  0  0  0  0
   21.3996   42.3406   38.4224 C   0  0  0  0  0  0  0  0  0  0  0  0
   20.4504   41.8551   37.5634 C   0  0  0  0  0  0  0  0  0  0  0  0
   20.7041   41.9167   36.2142 C   0  0  0  0  0  0  0  0  0  0  0  0
   19.7630   41.4597   35.4018 O   0  0  0  0  0  0  0  0  0  0  0  0
   21.8847   42.4527   35.7255 C   0  0  0  0  0  0  0  0  0  0  0  0
   22.8212   42.9299   36.6006 C   0  0  0  0  0  0  0  0  0  0  0  0
   23.9871   43.4612   36.1966 O   0  0  0  0  0  0  0  0  0  0  0  0
   18.9726   41.1015   35.7551 H   0  0  0  0  0  0  0  0  0  0  0  0
   24.6021   43.7770   36.8290 H   0  0  0  0  0  0  0  0  0  0  0  0
   21.5950   41.3924   42.5093 C   0  0  0  0  0  0  0  0  0  0  0  0
   21.3823   41.3385   43.8435 C   0  0  0  0  0  0  0  0  0  0  0  0
   21.4411   42.5106   44.5660 C   0  0  0  0  0  0  0  0  0  0  0  0
   21.2370   42.4635   45.8755 O   0  0  0  0  0  0  0  0  0  0  0  0
   21.7026   43.7319   43.9870 C   0  0  0  0  0  0  0  0  0  0  0  0
   21.9075   43.7778   42.6523 C   0  0  0  0  0  0  0  0  0  0  0  0
   21.8525   42.6119   41.9155 C   0  0  0  0  0  0  0  0  0  0  0  0
   21.0573   41.6438   46.2924 H   0  0  0  0  0  0  0  0  0  0  0  0
 16 17  2  0  0  0
 16 22  1  0  0  0
 17 18  1  0  0  0
 18 19  1  0  0  0
 18 20  2  0  0  0
 20 21  1  0  0  0
 21 22  2  0  0  0
 22  1  1  0  0  0
  1  2  1  0  0  0
  1  3  2  0  0  0
  2  7  1  0  0  0
  3  4  1  0  0  0
  4  5  2  0  0  0
  4  6  1  0  0  0
  6  7  2  0  0  0
  6 12  1  0  0  0
  7  8  1  0  0  0
  8  9  2  0  0  0
  9 10  1  0  0  0
  9 11  1  0  0  0
 11 12  2  0  0  0
 12 13  1  0  0  0
 19 23  1  0  0  0
 10 14  1  0  0  0
 13 15  1  0  0  0
M  END
> <minimizedAffinity>
-8.61833

$$$$
4DER_AGI_A_201


 23 25  0  0  0  0  0  0  0  0999 V2000
   21.4944   42.5431   40.4440 C   0  0  0  0  0  0  0  0  0  0  0  0
   22.5639   42.9607   39.7434 O   0  0  0  0  0  0  0  0  0  0  0  0
   20.3528   42.0737   39.8323 C   0  0  0  0  0  0  0  0  0  0  0  0
   20.2847   41.9834   38.4760 C   0  0  0  0  0  0  0  0  0  0  0  0
   19.2699   41.5451   37.9389 O   0  0  0  0  0  0  0  0  0  0  0  0
   21.3513   42.4502   37.7604 C   0  0  0  0  0  0  0  0  0  0  0  0
   22.4574   42.9410   38.4115 C   0  0  0  0  0  0  0  0  0  0  0  0
   23.5223   43.4324   37.7049 C   0  0  0  0  0  0  0  0  0  0  0  0
   23.4514   43.4208   36.3326 C   0  0  0  0  0  0  0  0  0  0  0  0
   24.5014   43.8823   35.6702 O   0  0  0  0  0  0  0  0  0  0  0  0
   22.3377   42.9281   35.6716 C   0  0  0  0  0  0  0  0  0  0  0  0
   21.2834   42.4441   36.3960 C   0  0  0  0  0  0  0  0  0  0  0  0
   20.1729   41.9531   35.8210 O   0  0  0  0  0  0  0  0  0  0  0  0
   25.2435   44.2107   36.1386 H   0  0  0  0  0  0  0  0  0  0  0  0
   19.4727   41.6309   36.3538 H   0  0  0  0  0  0  0  0  0  0  0  0
   21.6917   43.7649   42.4674 C   0  0  0  0  0  0  0  0  0  0  0  0
   21.7244   43.7702   43.8192 C   0  0  0  0  0  0  0  0  0  0  0  0
   21.5878   42.5708   44.4843 C   0  0  0  0  0  0  0  0  0  0  0  0
   21.6154   42.5702   45.8101 O   0  0  0  0  0  0  0  0  0  0  0  0
   21.4240   41.3699   43.8315 C   0  0  0  0  0  0  0  0  0  0  0  0
   21.3989   41.3728   42.4807 C   0  0  0  0  0  0  0  0  0  0  0  0
   21.5337   42.5663   41.8006 C   0  0  0  0  0  0  0  0  0  0  0  0
   21.7259   43.3751   46.2768 H   0  0  0  0  0  0  0  0  0  0  0  0
 16 17  2  0  0  0
 16 22  1  0  0  0
 17 18  1  0  0  0
 18 19  1  0  0  0
 18 20  2  0  0  0
 20 21  1  0  0  0
 21 22  2  0  0  0
 22  1  1  0  0  0
  1  2  1  0  0  0
  1  3  2  0  0  0
  2  7  1  0  0  0
  3  4  1  0  0  0
  4  5  2  0  0  0
  4  6  1  0  0  0
  6  7  2  0  0  0
  6 12  1  0  0  0
  7  8  1  0  0  0
  8  9  2  0  0  0
  9 10  1  0  0  0
  9 11  1  0  0  0
 11 12  2  0  0  0
 12 13  1  0  0  0
 19 23  1  0  0  0
 10 14  1  0  0  0
 13 15  1  0  0  0
M  END
> <minimizedAffinity>
-8.51349

$$$$
4DER_AGI_A_201


 23 25  0  0  0  0  0  0  0  0999 V2000
   20.3693   42.5233   39.1555 C   0  0  0  0  0  0  0  0  0  0  0  0
   20.7405   41.7295   40.1757 O   0  0  0  0  0  0  0  0  0  0  0  0
   20.3248   43.8954   39.2705 C   0  0  0  0  0  0  0  0  0  0  0  0
   20.6959   44.5024   40.4307 C   0  0  0  0  0  0  0  0  0  0  0  0
   20.6721   45.7280   40.5187 O   0  0  0  0  0  0  0  0  0  0  0  0
   21.0287   43.6969   41.4833 C   0  0  0  0  0  0  0  0  0  0  0  0
   21.0278   42.3308   41.3340 C   0  0  0  0  0  0  0  0  0  0  0  0
   21.3372   41.5134   42.3879 C   0  0  0  0  0  0  0  0  0  0  0  0
   21.6459   42.0972   43.5931 C   0  0  0  0  0  0  0  0  0  0  0  0
   21.9614   41.2874   44.5925 O   0  0  0  0  0  0  0  0  0  0  0  0
   21.6468   43.4740   43.7489 C   0  0  0  0  0  0  0  0  0  0  0  0
   21.3324   44.2729   42.6842 C   0  0  0  0  0  0  0  0  0  0  0  0
   21.3125   45.6138   42.7646 O   0  0  0  0  0  0  0  0  0  0  0  0
   21.9540   40.3593   44.4638 H   0  0  0  0  0  0  0  0  0  0  0  0
   21.0917   46.1251   42.0111 H   0  0  0  0  0  0  0  0  0  0  0  0
   18.8259   41.3254   37.8106 C   0  0  0  0  0  0  0  0  0  0  0  0
   18.5110   40.7807   36.6137 C   0  0  0  0  0  0  0  0  0  0  0  0
   19.4159   40.8969   35.5807 C   0  0  0  0  0  0  0  0  0  0  0  0
   19.1110   40.3679   34.4035 O   0  0  0  0  0  0  0  0  0  0  0  0
   20.6258   41.5391   35.7171 C   0  0  0  0  0  0  0  0  0  0  0  0
   20.9354   42.0748   36.9182 C   0  0  0  0  0  0  0  0  0  0  0  0
   20.0388   41.9672   37.9621 C   0  0  0  0  0  0  0  0  0  0  0  0
   18.2932   39.9258   34.2862 H   0  0  0  0  0  0  0  0  0  0  0  0
 16 17  2  0  0  0
 16 22  1  0  0  0
 17 18  1  0  0  0
 18 19  1  0  0  0
 18 20  2  0  0  0
 20 21  1  0  0  0
 21 22  2  0  0  0
 22  1  1  0  0  0
  1  2  1  0  0  0
  1  3  2  0  0  0
  2  7  1  0  0  0
  3  4  1  0  0  0
  4  5  2  0  0  0
  4  6  1  0  0  0
  6  7  2  0  0  0
  6 12  1  0  0  0
  7  8  1  0  0  0
  8  9  2  0  0  0
  9 10  1  0  0  0
  9 11  1  0  0  0
 11 12  2  0  0  0
 12 13  1  0  0  0
 19 23  1  0  0  0
 10 14  1  0  0  0
 13 15  1  0  0  0
M  END
> <minimizedAffinity>
-8.22392

$$$$
4DER_AGI_A_201


 23 25  0  0  0  0  0  0  0  0999 V2000
   22.7784   42.5900   39.1877 C   0  0  0  0  0  0  0  0  0  0  0  0
   22.4036   43.3796   40.2099 O   0  0  0  0  0  0  0  0  0  0  0  0
   22.8249   41.2175   39.2981 C   0  0  0  0  0  0  0  0  0  0  0  0
   22.4521   40.6059   40.4553 C   0  0  0  0  0  0  0  0  0  0  0  0
   22.4777   39.3801   40.5390 O   0  0  0  0  0  0  0  0  0  0  0  0
   22.1156   41.4072   41.5099 C   0  0  0  0  0  0  0  0  0  0  0  0
   22.1146   42.7738   41.3655 C   0  0  0  0  0  0  0  0  0  0  0  0
   21.8015   43.5870   42.4215 C   0  0  0  0  0  0  0  0  0  0  0  0
   21.4910   42.9985   43.6239 C   0  0  0  0  0  0  0  0  0  0  0  0
   21.1719   43.8043   44.6255 O   0  0  0  0  0  0  0  0  0  0  0  0
   21.4920   41.6211   43.7749 C   0  0  0  0  0  0  0  0  0  0  0  0
   21.8101   40.8265   42.7081 C   0  0  0  0  0  0  0  0  0  0  0  0
   21.8320   39.4854   42.7839 O   0  0  0  0  0  0  0  0  0  0  0  0
   21.1781   44.7328   44.5000 H   0  0  0  0  0  0  0  0  0  0  0  0
   22.0553   38.9771   42.0291 H   0  0  0  0  0  0  0  0  0  0  0  0
   24.3358   43.7681   37.8415 C   0  0  0  0  0  0  0  0  0  0  0  0
   24.6522   44.3179   36.6474 C   0  0  0  0  0  0  0  0  0  0  0  0
   23.7364   44.2313   35.6210 C   0  0  0  0  0  0  0  0  0  0  0  0
   24.0427   44.7655   34.4465 O   0  0  0  0  0  0  0  0  0  0  0  0
   22.5142   43.6138   35.7615 C   0  0  0  0  0  0  0  0  0  0  0  0
   22.2033   43.0728   36.9599 C   0  0  0  0  0  0  0  0  0  0  0  0
   23.1107   43.1508   37.9971 C   0  0  0  0  0  0  0  0  0  0  0  0
   24.8687   45.1912   34.3265 H   0  0  0  0  0  0  0  0  0  0  0  0
 16 17  2  0  0  0
 16 22  1  0  0  0
 17 18  1  0  0  0
 18 19  1  0  0  0
 18 20  2  0  0  0
 20 21  1  0  0  0
 21 22  2  0  0  0
 22  1  1  0  0  0
  1  2  1  0  0  0
  1  3  2  0  0  0
  2  7  1  0  0  0
  3  4  1  0  0  0
  4  5  2  0  0  0
  4  6  1  0  0  0
  6  7  2  0  0  0
  6 12  1  0  0  0
  7  8  1  0  0  0
  8  9  2  0  0  0
  9 10  1  0  0  0
  9 11  1  0  0  0
 11 12  2  0  0  0
 12 13  1  0  0  0
 19 23  1  0  0  0
 10 14  1  0  0  0
 13 15  1  0  0  0
M  END
> <minimizedAffinity>
-8.21976

$$$$
4DER_AGI_A_201


 23 25  0  0  0  0  0  0  0  0999 V2000
   20.6999   41.7977   36.9658 C   0  0  0  0  0  0  0  0  0  0  0  0
   20.3197   41.5924   38.2394 O   0  0  0  0  0  0  0  0  0  0  0  0
   21.9352   42.3145   36.6418 C   0  0  0  0  0  0  0  0  0  0  0  0
   22.8384   42.6052   37.6175 C   0  0  0  0  0  0  0  0  0  0  0  0
   23.9454   43.0474   37.3189 O   0  0  0  0  0  0  0  0  0  0  0  0
   22.4381   42.4414   38.9138 C   0  0  0  0  0  0  0  0  0  0  0  0
   21.1839   41.9538   39.1925 C   0  0  0  0  0  0  0  0  0  0  0  0
   20.7639   41.8073   40.4874 C   0  0  0  0  0  0  0  0  0  0  0  0
   21.6294   42.1616   41.4943 C   0  0  0  0  0  0  0  0  0  0  0  0
   21.2089   41.9922   42.7388 O   0  0  0  0  0  0  0  0  0  0  0  0
   22.8944   42.6550   41.2183 C   0  0  0  0  0  0  0  0  0  0  0  0
   23.2939   42.7960   39.9179 C   0  0  0  0  0  0  0  0  0  0  0  0
   24.5047   43.2687   39.5784 O   0  0  0  0  0  0  0  0  0  0  0  0
   20.3491   41.6570   42.9013 H   0  0  0  0  0  0  0  0  0  0  0  0
   24.7395   43.3499   38.6749 H   0  0  0  0  0  0  0  0  0  0  0  0
   18.4951   41.6813   36.0992 C   0  0  0  0  0  0  0  0  0  0  0  0
   17.6659   41.3587   35.0810 C   0  0  0  0  0  0  0  0  0  0  0  0
   18.2134   40.8423   33.9264 C   0  0  0  0  0  0  0  0  0  0  0  0
   17.4055   40.5275   32.9230 O   0  0  0  0  0  0  0  0  0  0  0  0
   19.5655   40.6377   33.7683 C   0  0  0  0  0  0  0  0  0  0  0  0
   20.3862   40.9566   34.7930 C   0  0  0  0  0  0  0  0  0  0  0  0
   19.8527   41.4756   35.9554 C   0  0  0  0  0  0  0  0  0  0  0  0
   16.4814   40.6577   33.0070 H   0  0  0  0  0  0  0  0  0  0  0  0
 16 17  2  0  0  0
 16 22  1  0  0  0
 17 18  1  0  0  0
 18 19  1  0  0  0
 18 20  2  0  0  0
 20 21  1  0  0  0
 21 22  2  0  0  0
 22  1  1  0  0  0
  1  2  1  0  0  0
  1  3  2  0  0  0
  2  7  1  0  0  0
  3  4  1  0  0  0
  4  5  2  0  0  0
  4  6  1  0  0  0
  6  7  2  0  0  0
  6 12  1  0  0  0
  7  8  1  0  0  0
  8  9  2  0  0  0
  9 10  1  0  0  0
  9 11  1  0  0  0
 11 12  2  0  0  0
 12 13  1  0  0  0
 19 23  1  0  0  0
 10 14  1  0  0  0
 13 15  1  0  0  0
M  END
> <minimizedAffinity>
-8.15487

$$$$
4DER_AGI_A_201


 23 25  0  0  0  0  0  0  0  0999 V2000
   22.5009   43.3371   36.8913 C   0  0  0  0  0  0  0  0  0  0  0  0
   22.8868   43.5041   38.1688 O   0  0  0  0  0  0  0  0  0  0  0  0
   21.2597   42.8411   36.5573 C   0  0  0  0  0  0  0  0  0  0  0  0
   20.3566   42.5328   37.5277 C   0  0  0  0  0  0  0  0  0  0  0  0
   19.2445   42.1095   37.2208 O   0  0  0  0  0  0  0  0  0  0  0  0
   20.7623   42.6574   38.8267 C   0  0  0  0  0  0  0  0  0  0  0  0
   22.0220   43.1253   39.1144 C   0  0  0  0  0  0  0  0  0  0  0  0
   22.4472   43.2325   40.4115 C   0  0  0  0  0  0  0  0  0  0  0  0
   21.5813   42.8594   41.4112 C   0  0  0  0  0  0  0  0  0  0  0  0
   22.0072   42.9909   42.6585 O   0  0  0  0  0  0  0  0  0  0  0  0
   20.3107   42.3858   41.1260 C   0  0  0  0  0  0  0  0  0  0  0  0
   19.9061   42.2839   39.8235 C   0  0  0  0  0  0  0  0  0  0  0  0
   18.6898   41.8323   39.4753 O   0  0  0  0  0  0  0  0  0  0  0  0
   22.8706   43.3133   42.8272 H   0  0  0  0  0  0  0  0  0  0  0  0
   18.4515   41.7779   38.5707 H   0  0  0  0  0  0  0  0  0  0  0  0
   24.6999   43.4238   36.0066 C   0  0  0  0  0  0  0  0  0  0  0  0
   25.5291   43.7665   34.9950 C   0  0  0  0  0  0  0  0  0  0  0  0
   24.9873   44.3521   33.8711 C   0  0  0  0  0  0  0  0  0  0  0  0
   25.7951   44.6870   32.8742 O   0  0  0  0  0  0  0  0  0  0  0  0
   23.6409   44.6060   33.7373 C   0  0  0  0  0  0  0  0  0  0  0  0
   22.8203   44.2664   34.7555 C   0  0  0  0  0  0  0  0  0  0  0  0
   23.3482   43.6784   35.8872 C   0  0  0  0  0  0  0  0  0  0  0  0
   26.7153   44.5241   32.9420 H   0  0  0  0  0  0  0  0  0  0  0  0
 16 17  2  0  0  0
 16 22  1  0  0  0
 17 18  1  0  0  0
 18 19  1  0  0  0
 18 20  2  0  0  0
 20 21  1  0  0  0
 21 22  2  0  0  0
 22  1  1  0  0  0
  1  2  1  0  0  0
  1  3  2  0  0  0
  2  7  1  0  0  0
  3  4  1  0  0  0
  4  5  2  0  0  0
  4  6  1  0  0  0
  6  7  2  0  0  0
  6 12  1  0  0  0
  7  8  1  0  0  0
  8  9  2  0  0  0
  9 10  1  0  0  0
  9 11  1  0  0  0
 11 12  2  0  0  0
 12 13  1  0  0  0
 19 23  1  0  0  0
 10 14  1  0  0  0
 13 15  1  0  0  0
M  END
> <minimizedAffinity>
-8.13154

$$$$
