3P3R_3M1_A_128


 22 23  0  0  0  0  0  0  0  0999 V2000
    0.2865   -2.2951  -10.6446 O   0  0  0  0  0  0  0  0  0  0  0  0
    0.1213    0.0888  -12.1226 O   0  0  0  0  0  0  0  0  0  0  0  0
   -0.3211   -1.0634   -8.6439 C   0  0  0  0  0  0  0  0  0  0  0  0
   -0.7107    1.2311   -8.7990 C   0  0  0  0  0  0  0  0  0  0  0  0
   -0.0422   -1.1345  -10.0417 C   0  0  0  0  0  0  0  0  0  0  0  0
   -0.1180    0.0235  -10.7831 C   0  0  0  0  0  0  0  0  0  0  0  0
   -0.6472    0.1728   -8.0958 C   0  0  0  0  0  0  0  0  0  0  0  0
   -0.4653    1.1613  -10.1064 C   0  0  0  0  0  0  0  0  0  0  0  0
    0.3391   -3.0850  -10.1433 H   0  0  0  0  0  0  0  0  0  0  0  0
    0.3596   -0.6850  -12.5942 H   0  0  0  0  0  0  0  0  0  0  0  0
    0.1745    3.2280  -10.0401 O   0  0  0  0  0  0  0  0  0  0  0  0
   -1.6320    2.6244  -11.3510 O   0  0  0  0  0  0  0  0  0  0  0  0
   -0.5749    2.3294  -10.5273 N   0  0  0  0  0  0  0  0  0  0  0  0
   -1.7506    1.5097   -6.4501 O   0  0  0  0  0  0  0  0  0  0  0  0
   -0.9608    0.5884   -6.6936 C   0  0  0  0  0  0  0  0  0  0  0  0
    1.0997    1.7592   -5.1939 F   0  0  0  0  0  0  0  0  0  0  0  0
    0.9860   -1.4611   -3.4947 C   0  0  0  0  0  0  0  0  0  0  0  0
    0.0534   -2.0635   -4.2947 C   0  0  0  0  0  0  0  0  0  0  0  0
    1.3495   -0.1691   -3.8268 C   0  0  0  0  0  0  0  0  0  0  0  0
   -0.5991   -1.4204   -5.3267 C   0  0  0  0  0  0  0  0  0  0  0  0
    0.7421    0.5166   -4.9010 C   0  0  0  0  0  0  0  0  0  0  0  0
   -0.2646   -0.1163   -5.6205 C   0  0  0  0  0  0  0  0  0  0  0  0
 14 15  2  0  0  0
 12 13  1  0  0  0
 16 21  1  0  0  0
 17 18  1  0  0  0
 18 20  2  0  0  0
 19 17  2  0  0  0
 19 21  1  0  0  0
  3  5  1  0  0  0
  4  8  2  0  0  0
 15  7  1  0  0  0
  5  1  1  0  0  0
  5  6  2  0  0  0
 21 22  2  0  0  0
  6  2  1  0  0  0
  7  3  2  0  0  0
  7  4  1  0  0  0
 22 20  1  0  0  0
 22 15  1  0  0  0
  8  6  1  0  0  0
  8 13  1  0  0  0
 13 11  2  0  0  0
  1  9  1  0  0  0
  2 10  1  0  0  0
M  CHG 1  12  -1
M  CHG 1  13   1
M  END
> <minimizedAffinity>
-8.01633

$$$$
3P3R_3M1_A_128


 22 23  0  0  0  0  0  0  0  0999 V2000
   -0.2848    2.2965  -10.6326 O   0  0  0  0  0  0  0  0  0  0  0  0
   -0.1229   -0.0858  -12.1135 O   0  0  0  0  0  0  0  0  0  0  0  0
    0.3229    1.0619   -8.6337 C   0  0  0  0  0  0  0  0  0  0  0  0
    0.7102   -1.2328   -8.7917 C   0  0  0  0  0  0  0  0  0  0  0  0
    0.0431    1.1349  -10.0312 C   0  0  0  0  0  0  0  0  0  0  0  0
    0.1174   -0.0223  -10.7740 C   0  0  0  0  0  0  0  0  0  0  0  0
    0.6481   -0.1753   -8.0873 C   0  0  0  0  0  0  0  0  0  0  0  0
    0.4639   -1.1613  -10.0989 C   0  0  0  0  0  0  0  0  0  0  0  0
   -0.3363    3.0859  -10.1304 H   0  0  0  0  0  0  0  0  0  0  0  0
   -0.3607    0.6888  -12.5840 H   0  0  0  0  0  0  0  0  0  0  0  0
   -0.1849   -3.2254  -10.0419 O   0  0  0  0  0  0  0  0  0  0  0  0
    1.6345   -2.6267  -11.3370 O   0  0  0  0  0  0  0  0  0  0  0  0
    0.5721   -2.3290  -10.5212 N   0  0  0  0  0  0  0  0  0  0  0  0
    1.7530   -1.5138   -6.4438 O   0  0  0  0  0  0  0  0  0  0  0  0
    0.9623   -0.5929   -6.6858 C   0  0  0  0  0  0  0  0  0  0  0  0
   -1.0886   -1.7724   -5.1796 F   0  0  0  0  0  0  0  0  0  0  0  0
   -0.9863    1.4499   -3.4837 C   0  0  0  0  0  0  0  0  0  0  0  0
   -0.0587    2.0562   -4.2867 C   0  0  0  0  0  0  0  0  0  0  0  0
   -1.3443    0.1558   -3.8137 C   0  0  0  0  0  0  0  0  0  0  0  0
    0.5942    1.4154   -5.3197 C   0  0  0  0  0  0  0  0  0  0  0  0
   -0.7364   -0.5278   -4.8888 C   0  0  0  0  0  0  0  0  0  0  0  0
    0.2653    0.1094   -5.6115 C   0  0  0  0  0  0  0  0  0  0  0  0
 14 15  2  0  0  0
 12 13  1  0  0  0
 16 21  1  0  0  0
 17 18  1  0  0  0
 18 20  2  0  0  0
 19 17  2  0  0  0
 19 21  1  0  0  0
  3  5  1  0  0  0
  4  8  2  0  0  0
 15  7  1  0  0  0
  5  1  1  0  0  0
  5  6  2  0  0  0
 21 22  2  0  0  0
  6  2  1  0  0  0
  7  3  2  0  0  0
  7  4  1  0  0  0
 22 20  1  0  0  0
 22 15  1  0  0  0
  8  6  1  0  0  0
  8 13  1  0  0  0
 13 11  2  0  0  0
  1  9  1  0  0  0
  2 10  1  0  0  0
M  CHG 1  12  -1
M  CHG 1  13   1
M  END
> <minimizedAffinity>
-8.01576

$$$$
3P3R_3M1_A_128


 22 23  0  0  0  0  0  0  0  0999 V2000
    1.7965   -1.9160   -3.4503 O   0  0  0  0  0  0  0  0  0  0  0  0
    0.1782   -0.1853   -1.9401 O   0  0  0  0  0  0  0  0  0  0  0  0
    0.8264   -1.0060   -5.4800 C   0  0  0  0  0  0  0  0  0  0  0  0
   -0.7976    0.6600   -5.3131 C   0  0  0  0  0  0  0  0  0  0  0  0
    0.9437   -1.0671   -4.0591 C   0  0  0  0  0  0  0  0  0  0  0  0
    0.1587   -0.2266   -3.3017 C   0  0  0  0  0  0  0  0  0  0  0  0
   -0.0809   -0.1073   -6.0315 C   0  0  0  0  0  0  0  0  0  0  0  0
   -0.6766    0.6132   -3.9873 C   0  0  0  0  0  0  0  0  0  0  0  0
    2.3322   -2.4894   -3.9624 H   0  0  0  0  0  0  0  0  0  0  0  0
    0.7468   -0.7565   -1.4622 H   0  0  0  0  0  0  0  0  0  0  0  0
   -1.1568    2.6567   -3.4594 O   0  0  0  0  0  0  0  0  0  0  0  0
   -2.6660    0.9655   -3.0031 O   0  0  0  0  0  0  0  0  0  0  0  0
   -1.5003    1.4401   -3.5497 N   0  0  0  0  0  0  0  0  0  0  0  0
   -1.1515    1.1619   -7.7509 O   0  0  0  0  0  0  0  0  0  0  0  0
   -0.4596    0.1809   -7.4495 C   0  0  0  0  0  0  0  0  0  0  0  0
   -1.5561   -2.3860   -7.7225 F   0  0  0  0  0  0  0  0  0  0  0  0
    0.8089   -2.5347  -10.4892 C   0  0  0  0  0  0  0  0  0  0  0  0
    1.4115   -1.3228  -10.2874 C   0  0  0  0  0  0  0  0  0  0  0  0
   -0.1826   -2.8933   -9.5948 C   0  0  0  0  0  0  0  0  0  0  0  0
    1.0133   -0.4221   -9.3208 C   0  0  0  0  0  0  0  0  0  0  0  0
   -0.5956   -2.0243   -8.5618 C   0  0  0  0  0  0  0  0  0  0  0  0
   -0.0084   -0.7685   -8.4635 C   0  0  0  0  0  0  0  0  0  0  0  0
 14 15  2  0  0  0
 12 13  1  0  0  0
 16 21  1  0  0  0
 17 18  1  0  0  0
 18 20  2  0  0  0
 19 17  2  0  0  0
 19 21  1  0  0  0
  3  5  1  0  0  0
  4  8  2  0  0  0
 15  7  1  0  0  0
  5  1  1  0  0  0
  5  6  2  0  0  0
 21 22  2  0  0  0
  6  2  1  0  0  0
  7  3  2  0  0  0
  7  4  1  0  0  0
 22 20  1  0  0  0
 22 15  1  0  0  0
  8  6  1  0  0  0
  8 13  1  0  0  0
 13 11  2  0  0  0
  1  9  1  0  0  0
  2 10  1  0  0  0
M  CHG 1  12  -1
M  CHG 1  13   1
M  END
> <minimizedAffinity>
-7.91336

$$$$
3P3R_3M1_A_128


 22 23  0  0  0  0  0  0  0  0999 V2000
   -1.8235    1.9049   -3.4684 O   0  0  0  0  0  0  0  0  0  0  0  0
   -0.1856    0.2004   -1.9496 O   0  0  0  0  0  0  0  0  0  0  0  0
   -0.8443    0.9944   -5.4936 C   0  0  0  0  0  0  0  0  0  0  0  0
    0.7979   -0.6526   -5.3183 C   0  0  0  0  0  0  0  0  0  0  0  0
   -0.9616    1.0621   -4.0729 C   0  0  0  0  0  0  0  0  0  0  0  0
   -0.1672    0.2344   -3.3113 C   0  0  0  0  0  0  0  0  0  0  0  0
    0.0726    0.1028   -6.0406 C   0  0  0  0  0  0  0  0  0  0  0  0
    0.6770   -0.6000   -3.9928 C   0  0  0  0  0  0  0  0  0  0  0  0
   -2.3656    2.4695   -3.9833 H   0  0  0  0  0  0  0  0  0  0  0  0
   -0.7602    0.7679   -1.4745 H   0  0  0  0  0  0  0  0  0  0  0  0
    1.1753   -2.6328   -3.4412 O   0  0  0  0  0  0  0  0  0  0  0  0
    2.6771   -0.9257   -3.0210 O   0  0  0  0  0  0  0  0  0  0  0  0
    1.5100   -1.4153   -3.5511 N   0  0  0  0  0  0  0  0  0  0  0  0
    1.1447   -1.1717   -7.7551 O   0  0  0  0  0  0  0  0  0  0  0  0
    0.4538   -0.1890   -7.4572 C   0  0  0  0  0  0  0  0  0  0  0  0
    1.4905    2.4078   -7.6748 F   0  0  0  0  0  0  0  0  0  0  0  0
   -0.8005    2.5245  -10.5046 C   0  0  0  0  0  0  0  0  0  0  0  0
   -1.3769    1.2956  -10.3313 C   0  0  0  0  0  0  0  0  0  0  0  0
    0.1564    2.8992   -9.5796 C   0  0  0  0  0  0  0  0  0  0  0  0
   -0.9821    0.3954   -9.3628 C   0  0  0  0  0  0  0  0  0  0  0  0
    0.5632    2.0304   -8.5439 C   0  0  0  0  0  0  0  0  0  0  0  0
    0.0063    0.7589   -8.4742 C   0  0  0  0  0  0  0  0  0  0  0  0
 14 15  2  0  0  0
 12 13  1  0  0  0
 16 21  1  0  0  0
 17 18  1  0  0  0
 18 20  2  0  0  0
 19 17  2  0  0  0
 19 21  1  0  0  0
  3  5  1  0  0  0
  4  8  2  0  0  0
 15  7  1  0  0  0
  5  1  1  0  0  0
  5  6  2  0  0  0
 21 22  2  0  0  0
  6  2  1  0  0  0
  7  3  2  0  0  0
  7  4  1  0  0  0
 22 20  1  0  0  0
 22 15  1  0  0  0
  8  6  1  0  0  0
  8 13  1  0  0  0
 13 11  2  0  0  0
  1  9  1  0  0  0
  2 10  1  0  0  0
M  CHG 1  12  -1
M  CHG 1  13   1
M  END
> <minimizedAffinity>
-7.90513

$$$$
3P3R_3M1_A_128


 22 23  0  0  0  0  0  0  0  0999 V2000
    0.0175   -2.0435  -10.9452 O   0  0  0  0  0  0  0  0  0  0  0  0
   -0.1333    0.7279  -11.3825 O   0  0  0  0  0  0  0  0  0  0  0  0
    0.4791   -1.6197   -8.6007 C   0  0  0  0  0  0  0  0  0  0  0  0
    0.5893    0.5849   -7.8469 C   0  0  0  0  0  0  0  0  0  0  0  0
    0.2036   -1.1766   -9.9290 C   0  0  0  0  0  0  0  0  0  0  0  0
    0.1258    0.1781  -10.1633 C   0  0  0  0  0  0  0  0  0  0  0  0
    0.6646   -0.6625   -7.6086 C   0  0  0  0  0  0  0  0  0  0  0  0
    0.3170    0.9974   -9.0838 C   0  0  0  0  0  0  0  0  0  0  0  0
    0.0697   -2.9660  -10.7895 H   0  0  0  0  0  0  0  0  0  0  0  0
   -0.2655    0.1749  -12.1272 H   0  0  0  0  0  0  0  0  0  0  0  0
    1.1553    2.8130   -8.2555 O   0  0  0  0  0  0  0  0  0  0  0  0
   -0.6834    2.9278   -9.6527 O   0  0  0  0  0  0  0  0  0  0  0  0
    0.3282    2.2426   -9.0282 N   0  0  0  0  0  0  0  0  0  0  0  0
    1.8453   -1.5803   -5.7438 O   0  0  0  0  0  0  0  0  0  0  0  0
    0.9882   -0.7869   -6.1535 C   0  0  0  0  0  0  0  0  0  0  0  0
   -1.2892   -1.7179   -4.8073 F   0  0  0  0  0  0  0  0  0  0  0  0
   -1.1746    1.6313   -3.3790 C   0  0  0  0  0  0  0  0  0  0  0  0
   -0.1263    2.1140   -4.1143 C   0  0  0  0  0  0  0  0  0  0  0  0
   -1.5743    0.3341   -3.6423 C   0  0  0  0  0  0  0  0  0  0  0  0
    0.5968    1.3507   -5.0080 C   0  0  0  0  0  0  0  0  0  0  0  0
   -0.8939   -0.4731   -4.5794 C   0  0  0  0  0  0  0  0  0  0  0  0
    0.2208    0.0436   -5.2291 C   0  0  0  0  0  0  0  0  0  0  0  0
 14 15  2  0  0  0
 12 13  1  0  0  0
 16 21  1  0  0  0
 17 18  1  0  0  0
 18 20  2  0  0  0
 19 17  2  0  0  0
 19 21  1  0  0  0
  3  5  1  0  0  0
  4  8  2  0  0  0
 15  7  1  0  0  0
  5  1  1  0  0  0
  5  6  2  0  0  0
 21 22  2  0  0  0
  6  2  1  0  0  0
  7  3  2  0  0  0
  7  4  1  0  0  0
 22 20  1  0  0  0
 22 15  1  0  0  0
  8  6  1  0  0  0
  8 13  1  0  0  0
 13 11  2  0  0  0
  1  9  1  0  0  0
  2 10  1  0  0  0
M  CHG 1  12  -1
M  CHG 1  13   1
M  END
> <minimizedAffinity>
-7.14847

$$$$
3P3R_3M1_A_128


 22 23  0  0  0  0  0  0  0  0999 V2000
   -0.0705    2.0394  -10.9678 O   0  0  0  0  0  0  0  0  0  0  0  0
    0.1689   -0.7303  -11.3757 O   0  0  0  0  0  0  0  0  0  0  0  0
   -0.5144    1.6262   -8.6181 C   0  0  0  0  0  0  0  0  0  0  0  0
   -0.5521   -0.5725   -7.8404 C   0  0  0  0  0  0  0  0  0  0  0  0
   -0.2269    1.1780   -9.9421 C   0  0  0  0  0  0  0  0  0  0  0  0
   -0.1058   -0.1760  -10.1619 C   0  0  0  0  0  0  0  0  0  0  0  0
   -0.6672    0.6743   -7.6153 C   0  0  0  0  0  0  0  0  0  0  0  0
   -0.2686   -0.9894   -9.0733 C   0  0  0  0  0  0  0  0  0  0  0  0
   -0.1523    2.9613  -10.8220 H   0  0  0  0  0  0  0  0  0  0  0  0
    0.2820   -0.1814  -12.1266 H   0  0  0  0  0  0  0  0  0  0  0  0
    0.5531   -2.8698   -9.7614 O   0  0  0  0  0  0  0  0  0  0  0  0
   -1.2034   -2.8635   -8.2579 O   0  0  0  0  0  0  0  0  0  0  0  0
   -0.2395   -2.2336   -9.0043 N   0  0  0  0  0  0  0  0  0  0  0  0
   -1.8504    1.5981   -5.7551 O   0  0  0  0  0  0  0  0  0  0  0  0
   -0.9923    0.8039   -6.1610 C   0  0  0  0  0  0  0  0  0  0  0  0
    1.2811    1.7429   -4.8135 F   0  0  0  0  0  0  0  0  0  0  0  0
    1.1699   -1.6023   -3.3756 C   0  0  0  0  0  0  0  0  0  0  0  0
    0.1238   -2.0890   -4.1114 C   0  0  0  0  0  0  0  0  0  0  0  0
    1.5677   -0.3052   -3.6419 C   0  0  0  0  0  0  0  0  0  0  0  0
   -0.5990   -1.3296   -5.0086 C   0  0  0  0  0  0  0  0  0  0  0  0
    0.8876    0.4981   -4.5827 C   0  0  0  0  0  0  0  0  0  0  0  0
   -0.2251   -0.0225   -5.2329 C   0  0  0  0  0  0  0  0  0  0  0  0
 14 15  2  0  0  0
 12 13  1  0  0  0
 16 21  1  0  0  0
 17 18  1  0  0  0
 18 20  2  0  0  0
 19 17  2  0  0  0
 19 21  1  0  0  0
  3  5  1  0  0  0
  4  8  2  0  0  0
 15  7  1  0  0  0
  5  1  1  0  0  0
  5  6  2  0  0  0
 21 22  2  0  0  0
  6  2  1  0  0  0
  7  3  2  0  0  0
  7  4  1  0  0  0
 22 20  1  0  0  0
 22 15  1  0  0  0
  8  6  1  0  0  0
  8 13  1  0  0  0
 13 11  2  0  0  0
  1  9  1  0  0  0
  2 10  1  0  0  0
M  CHG 1  12  -1
M  CHG 1  13   1
M  END
> <minimizedAffinity>
-7.05650

$$$$
3P3R_3M1_A_128


 22 23  0  0  0  0  0  0  0  0999 V2000
    1.8490   -1.4189   -2.6315 O   0  0  0  0  0  0  0  0  0  0  0  0
   -0.1499    0.3734   -1.8028 O   0  0  0  0  0  0  0  0  0  0  0  0
    1.0112   -1.2583   -4.9034 C   0  0  0  0  0  0  0  0  0  0  0  0
   -0.8275    0.1087   -5.3403 C   0  0  0  0  0  0  0  0  0  0  0  0
    0.9684   -0.9138   -3.5192 C   0  0  0  0  0  0  0  0  0  0  0  0
   -0.0042   -0.0367   -3.0937 C   0  0  0  0  0  0  0  0  0  0  0  0
    0.0636   -0.6992   -5.7545 C   0  0  0  0  0  0  0  0  0  0  0  0
   -0.8574    0.4418   -4.0509 C   0  0  0  0  0  0  0  0  0  0  0  0
    2.5122   -2.0159   -2.9174 H   0  0  0  0  0  0  0  0  0  0  0  0
    0.4295    0.0512   -1.1406 H   0  0  0  0  0  0  0  0  0  0  0  0
   -2.5896    1.0862   -2.9242 O   0  0  0  0  0  0  0  0  0  0  0  0
   -2.1428    2.0300   -4.9872 O   0  0  0  0  0  0  0  0  0  0  0  0
   -1.8290    1.2133   -3.9300 N   0  0  0  0  0  0  0  0  0  0  0  0
   -0.3957   -1.9817   -7.7187 O   0  0  0  0  0  0  0  0  0  0  0  0
   -0.1814   -0.8692   -7.2203 C   0  0  0  0  0  0  0  0  0  0  0  0
   -2.2376   -0.1268   -8.9771 F   0  0  0  0  0  0  0  0  0  0  0  0
   -0.0177    2.7041   -9.5501 C   0  0  0  0  0  0  0  0  0  0  0  0
    1.0265    2.2856   -8.7709 C   0  0  0  0  0  0  0  0  0  0  0  0
   -1.1116    1.8621   -9.6295 C   0  0  0  0  0  0  0  0  0  0  0  0
    0.9946    1.1420   -7.9992 C   0  0  0  0  0  0  0  0  0  0  0  0
   -1.1734    0.6594   -8.8930 C   0  0  0  0  0  0  0  0  0  0  0  0
   -0.1196    0.3327   -8.0477 C   0  0  0  0  0  0  0  0  0  0  0  0
 14 15  2  0  0  0
 12 13  1  0  0  0
 16 21  1  0  0  0
 17 18  1  0  0  0
 18 20  2  0  0  0
 19 17  2  0  0  0
 19 21  1  0  0  0
  3  5  1  0  0  0
  4  8  2  0  0  0
 15  7  1  0  0  0
  5  1  1  0  0  0
  5  6  2  0  0  0
 21 22  2  0  0  0
  6  2  1  0  0  0
  7  3  2  0  0  0
  7  4  1  0  0  0
 22 20  1  0  0  0
 22 15  1  0  0  0
  8  6  1  0  0  0
  8 13  1  0  0  0
 13 11  2  0  0  0
  1  9  1  0  0  0
  2 10  1  0  0  0
M  CHG 1  12  -1
M  CHG 1  13   1
M  END
> <minimizedAffinity>
-6.93249

$$$$
3P3R_3M1_A_128


 22 23  0  0  0  0  0  0  0  0999 V2000
   -1.9459    1.5069   -2.6790 O   0  0  0  0  0  0  0  0  0  0  0  0
    0.1437   -0.2160   -1.9307 O   0  0  0  0  0  0  0  0  0  0  0  0
   -1.2555    1.2919   -4.9955 C   0  0  0  0  0  0  0  0  0  0  0  0
    0.5815   -0.0496   -5.5117 C   0  0  0  0  0  0  0  0  0  0  0  0
   -1.1141    0.9924   -3.6074 C   0  0  0  0  0  0  0  0  0  0  0  0
   -0.0958    0.1498   -3.2209 C   0  0  0  0  0  0  0  0  0  0  0  0
   -0.3532    0.7260   -5.8902 C   0  0  0  0  0  0  0  0  0  0  0  0
    0.7036   -0.3409   -4.2177 C   0  0  0  0  0  0  0  0  0  0  0  0
   -2.6399    2.0806   -2.9382 H   0  0  0  0  0  0  0  0  0  0  0  0
   -0.3983    0.1149   -1.2417 H   0  0  0  0  0  0  0  0  0  0  0  0
    1.8465   -2.0033   -5.0019 O   0  0  0  0  0  0  0  0  0  0  0  0
    2.4773   -1.0109   -3.0111 O   0  0  0  0  0  0  0  0  0  0  0  0
    1.6984   -1.0877   -4.1382 N   0  0  0  0  0  0  0  0  0  0  0  0
   -0.2439    1.9560   -7.9369 O   0  0  0  0  0  0  0  0  0  0  0  0
   -0.2089    0.8545   -7.3735 C   0  0  0  0  0  0  0  0  0  0  0  0
    1.9679    0.3671   -9.0734 F   0  0  0  0  0  0  0  0  0  0  0  0
    0.2455   -2.8128   -9.5106 C   0  0  0  0  0  0  0  0  0  0  0  0
   -0.8649   -2.5302   -8.7623 C   0  0  0  0  0  0  0  0  0  0  0  0
    1.1895   -1.8094   -9.6269 C   0  0  0  0  0  0  0  0  0  0  0  0
   -1.0310   -1.3585   -8.0526 C   0  0  0  0  0  0  0  0  0  0  0  0
    1.0440   -0.5763   -8.9551 C   0  0  0  0  0  0  0  0  0  0  0  0
   -0.0620   -0.3823   -8.1361 C   0  0  0  0  0  0  0  0  0  0  0  0
 14 15  2  0  0  0
 12 13  1  0  0  0
 16 21  1  0  0  0
 17 18  1  0  0  0
 18 20  2  0  0  0
 19 17  2  0  0  0
 19 21  1  0  0  0
  3  5  1  0  0  0
  4  8  2  0  0  0
 15  7  1  0  0  0
  5  1  1  0  0  0
  5  6  2  0  0  0
 21 22  2  0  0  0
  6  2  1  0  0  0
  7  3  2  0  0  0
  7  4  1  0  0  0
 22 20  1  0  0  0
 22 15  1  0  0  0
  8  6  1  0  0  0
  8 13  1  0  0  0
 13 11  2  0  0  0
  1  9  1  0  0  0
  2 10  1  0  0  0
M  CHG 1  12  -1
M  CHG 1  13   1
M  END
> <minimizedAffinity>
-6.90414

$$$$
3P3R_3M1_A_128


 22 23  0  0  0  0  0  0  0  0999 V2000
   -2.0135    2.1378   -4.0505 O   0  0  0  0  0  0  0  0  0  0  0  0
   -0.5146    0.8437   -2.0572 O   0  0  0  0  0  0  0  0  0  0  0  0
   -0.7983    0.8859   -5.7372 C   0  0  0  0  0  0  0  0  0  0  0  0
    0.8510   -0.6196   -5.0634 C   0  0  0  0  0  0  0  0  0  0  0  0
   -1.0721    1.2301   -4.3796 C   0  0  0  0  0  0  0  0  0  0  0  0
   -0.3478    0.6064   -3.3882 C   0  0  0  0  0  0  0  0  0  0  0  0
    0.1926   -0.0558   -5.9946 C   0  0  0  0  0  0  0  0  0  0  0  0
    0.5843   -0.3092   -3.7957 C   0  0  0  0  0  0  0  0  0  0  0  0
   -2.5083    2.5642   -4.7223 H   0  0  0  0  0  0  0  0  0  0  0  0
   -1.1504    1.4688   -1.7688 H   0  0  0  0  0  0  0  0  0  0  0  0
    2.4742   -1.3527   -3.6398 O   0  0  0  0  0  0  0  0  0  0  0  0
    0.9548   -1.4582   -1.9001 O   0  0  0  0  0  0  0  0  0  0  0  0
    1.3817   -0.9828   -3.1145 N   0  0  0  0  0  0  0  0  0  0  0  0
    1.4776   -1.5958   -7.2949 O   0  0  0  0  0  0  0  0  0  0  0  0
    0.7332   -0.6071   -7.2757 C   0  0  0  0  0  0  0  0  0  0  0  0
   -0.4096   -1.8997   -9.4868 F   0  0  0  0  0  0  0  0  0  0  0  0
   -0.3986    1.4917  -10.8164 C   0  0  0  0  0  0  0  0  0  0  0  0
    0.2527    2.0994   -9.7776 C   0  0  0  0  0  0  0  0  0  0  0  0
   -0.5959    0.1271  -10.7143 C   0  0  0  0  0  0  0  0  0  0  0  0
    0.6184    1.4471   -8.6178 C   0  0  0  0  0  0  0  0  0  0  0  0
   -0.2002   -0.5930   -9.5663 C   0  0  0  0  0  0  0  0  0  0  0  0
    0.3748    0.0956   -8.5048 C   0  0  0  0  0  0  0  0  0  0  0  0
 14 15  2  0  0  0
 12 13  1  0  0  0
 16 21  1  0  0  0
 17 18  1  0  0  0
 18 20  2  0  0  0
 19 17  2  0  0  0
 19 21  1  0  0  0
  3  5  1  0  0  0
  4  8  2  0  0  0
 15  7  1  0  0  0
  5  1  1  0  0  0
  5  6  2  0  0  0
 21 22  2  0  0  0
  6  2  1  0  0  0
  7  3  2  0  0  0
  7  4  1  0  0  0
 22 20  1  0  0  0
 22 15  1  0  0  0
  8  6  1  0  0  0
  8 13  1  0  0  0
 13 11  2  0  0  0
  1  9  1  0  0  0
  2 10  1  0  0  0
M  CHG 1  12  -1
M  CHG 1  13   1
M  END
> <minimizedAffinity>
-6.74428

$$$$
3P3R_3M1_A_128


 22 23  0  0  0  0  0  0  0  0999 V2000
    0.2216   -0.1888   -2.7836 O   0  0  0  0  0  0  0  0  0  0  0  0
   -1.0456   -2.2208   -4.2532 O   0  0  0  0  0  0  0  0  0  0  0  0
    0.6676    0.9925   -4.8559 C   0  0  0  0  0  0  0  0  0  0  0  0
   -0.0401    0.0549   -6.8710 C   0  0  0  0  0  0  0  0  0  0  0  0
    0.1326   -0.1115   -4.1270 C   0  0  0  0  0  0  0  0  0  0  0  0
   -0.4924   -1.1175   -4.8297 C   0  0  0  0  0  0  0  0  0  0  0  0
    0.5405    0.9955   -6.2411 C   0  0  0  0  0  0  0  0  0  0  0  0
   -0.5528   -0.9678   -6.1888 C   0  0  0  0  0  0  0  0  0  0  0  0
    0.6461    0.4938   -2.3022 H   0  0  0  0  0  0  0  0  0  0  0  0
   -1.0091   -2.3319   -3.3235 H   0  0  0  0  0  0  0  0  0  0  0  0
   -1.0011   -1.3818   -8.2654 O   0  0  0  0  0  0  0  0  0  0  0  0
   -1.7372   -2.8287   -6.6191 O   0  0  0  0  0  0  0  0  0  0  0  0
   -1.0294   -1.7344   -7.0484 N   0  0  0  0  0  0  0  0  0  0  0  0
    1.7553    2.9084   -7.0016 O   0  0  0  0  0  0  0  0  0  0  0  0
    1.0042    1.9653   -7.2812 C   0  0  0  0  0  0  0  0  0  0  0  0
    2.0127    0.0027   -9.0124 F   0  0  0  0  0  0  0  0  0  0  0  0
   -0.5562    1.3619  -11.2086 C   0  0  0  0  0  0  0  0  0  0  0  0
   -0.9741    2.3838  -10.4000 C   0  0  0  0  0  0  0  0  0  0  0  0
    0.4766    0.5749  -10.7335 C   0  0  0  0  0  0  0  0  0  0  0  0
   -0.4952    2.5933   -9.1230 C   0  0  0  0  0  0  0  0  0  0  0  0
    1.0299    0.7772   -9.4506 C   0  0  0  0  0  0  0  0  0  0  0  0
    0.5013    1.7739   -8.6390 C   0  0  0  0  0  0  0  0  0  0  0  0
 14 15  2  0  0  0
 12 13  1  0  0  0
 16 21  1  0  0  0
 17 18  1  0  0  0
 18 20  2  0  0  0
 19 17  2  0  0  0
 19 21  1  0  0  0
  3  5  1  0  0  0
  4  8  2  0  0  0
 15  7  1  0  0  0
  5  1  1  0  0  0
  5  6  2  0  0  0
 21 22  2  0  0  0
  6  2  1  0  0  0
  7  3  2  0  0  0
  7  4  1  0  0  0
 22 20  1  0  0  0
 22 15  1  0  0  0
  8  6  1  0  0  0
  8 13  1  0  0  0
 13 11  2  0  0  0
  1  9  1  0  0  0
  2 10  1  0  0  0
M  CHG 1  12  -1
M  CHG 1  13   1
M  END
> <minimizedAffinity>
-6.50613

$$$$
