4Z93_4LD_A_501


 33 38  0  0  0  0  0  0  0  0999 V2000
   17.8507   -5.6849    8.7448 C   0  0  0  0  0  0  0  0  0  0  0  0
   18.7641   -4.7573    8.2626 C   0  0  0  0  0  0  0  0  0  0  0  0
   19.9840   -4.2055    8.7859 C   0  0  0  0  0  0  0  0  0  0  0  0
   20.6665   -4.2927    9.9972 C   0  0  0  0  0  0  0  0  0  0  0  0
   20.5398   -3.4123    7.7344 C   0  0  0  0  0  0  0  0  0  0  0  0
   16.6297   -5.4756    6.6157 C   0  0  0  0  0  0  0  0  0  0  0  0
   18.6183   -4.2269    6.9667 C   0  0  0  0  0  0  0  0  0  0  0  0
   16.7634   -6.0387    7.9029 C   0  0  0  0  0  0  0  0  0  0  0  0
   22.3974   -2.9762    9.0922 C   0  0  0  0  0  0  0  0  0  0  0  0
   21.7802   -2.7916    7.8508 C   0  0  0  0  0  0  0  0  0  0  0  0
   17.5813   -4.5597    6.1422 C   0  0  0  0  0  0  0  0  0  0  0  0
   21.8864   -3.6614   10.1381 N   0  0  0  0  0  0  0  0  0  0  0  0
   19.7020   -3.3983    6.6592 N   0  0  0  0  0  0  0  0  0  0  0  0
   19.8351   -2.8979    5.8218 H   0  0  0  0  0  0  0  0  0  0  0  0
   14.4146   -5.0941    5.4661 C   0  0  0  0  0  0  0  0  0  0  0  0
   15.2281   -7.1473    5.1774 C   0  0  0  0  0  0  0  0  0  0  0  0
   14.1012   -7.0406    4.4484 N   0  0  0  0  0  0  0  0  0  0  0  0
   13.5879   -5.7746    4.6216 O   0  0  0  0  0  0  0  0  0  0  0  0
   14.0477   -3.7232    5.8441 C   0  0  0  0  0  0  0  0  0  0  0  0
   15.4693   -5.8856    5.8271 C   0  0  0  0  0  0  0  0  0  0  0  0
   16.0350   -8.3835    5.2683 C   0  0  0  0  0  0  0  0  0  0  0  0
   20.6810   -6.1421   11.7276 C   0  0  0  0  0  0  0  0  0  0  0  0
   20.1618   -4.9675   11.1578 C   0  0  0  0  0  0  0  0  0  0  0  0
   19.8458   -6.4388   12.7791 N   0  0  0  0  0  0  0  0  0  0  0  0
   21.8610   -6.9732   11.3644 C   0  0  0  0  0  0  0  0  0  0  0  0
   19.0126   -4.6307   11.9506 C   0  0  0  0  0  0  0  0  0  0  0  0
   18.8260   -5.5485   12.9311 N   0  0  0  0  0  0  0  0  0  0  0  0
   19.9726   -7.2194   13.3654 H   0  0  0  0  0  0  0  0  0  0  0  0
   18.1024   -3.4768   11.7947 C   0  0  0  0  0  0  0  0  0  0  0  0
   17.0316   -3.2034   12.8411 C   0  0  0  0  0  0  0  0  0  0  0  0
   16.6310   -3.7487   11.5150 C   0  0  0  0  0  0  0  0  0  0  0  0
   16.0248   -7.8844    9.2806 C   0  0  0  0  0  0  0  0  0  0  0  0
   15.7576   -6.9197    8.2863 O   0  0  0  0  0  0  0  0  0  0  0  0
 17 18  1  0  0  0
 17 16  2  0  0  0
 18 15  1  0  0  0
 16 21  1  0  0  0
 16 20  1  0  0  0
 15 19  1  0  0  0
 15 20  2  0  0  0
 20  6  1  0  0  0
 11  6  2  0  0  0
 11  7  1  0  0  0
 13  7  1  0  0  0
 13  5  1  0  0  0
  6  8  1  0  0  0
  7  2  2  0  0  0
  5 10  2  0  0  0
  5  3  1  0  0  0
 10  9  1  0  0  0
  8 33  1  0  0  0
  8  1  2  0  0  0
  2  3  1  0  0  0
  2  1  1  0  0  0
 33 32  1  0  0  0
  3  4  2  0  0  0
  9 12  2  0  0  0
  4 12  1  0  0  0
  4 23  1  0  0  0
 23 22  2  0  0  0
 23 26  1  0  0  0
 25 22  1  0  0  0
 29 31  1  0  0  0
 29 26  1  0  0  0
 29 30  1  0  0  0
 22 24  1  0  0  0
 31 30  1  0  0  0
 26 27  2  0  0  0
 24 27  1  0  0  0
 24 28  1  0  0  0
 13 14  1  0  0  0
M  END
> <minimizedAffinity>
-9.02393

$$$$
4Z93_4LD_A_501


 33 38  0  0  0  0  0  0  0  0999 V2000
   20.1220   -3.7119    7.9830 C   0  0  0  0  0  0  0  0  0  0  0  0
   19.0859   -4.0753    7.1335 C   0  0  0  0  0  0  0  0  0  0  0  0
   17.8977   -4.8661    7.3040 C   0  0  0  0  0  0  0  0  0  0  0  0
   17.3753   -5.6540    8.3272 C   0  0  0  0  0  0  0  0  0  0  0  0
   17.1576   -4.7312    6.0884 C   0  0  0  0  0  0  0  0  0  0  0  0
   21.0570   -2.3671    6.1430 C   0  0  0  0  0  0  0  0  0  0  0  0
   19.0316   -3.5639    5.8230 C   0  0  0  0  0  0  0  0  0  0  0  0
   21.1249   -2.8485    7.4680 C   0  0  0  0  0  0  0  0  0  0  0  0
   15.4481   -6.0287    7.0256 C   0  0  0  0  0  0  0  0  0  0  0  0
   15.8945   -5.2924    5.9235 C   0  0  0  0  0  0  0  0  0  0  0  0
   19.9851   -2.7290    5.3132 C   0  0  0  0  0  0  0  0  0  0  0  0
   16.1346   -6.2393    8.1698 N   0  0  0  0  0  0  0  0  0  0  0  0
   17.8560   -3.9800    5.1904 N   0  0  0  0  0  0  0  0  0  0  0  0
   17.5834   -3.7697    4.2681 H   0  0  0  0  0  0  0  0  0  0  0  0
   23.3642   -1.9011    5.2301 C   0  0  0  0  0  0  0  0  0  0  0  0
   22.1396   -0.0667    5.5398 C   0  0  0  0  0  0  0  0  0  0  0  0
   23.3025    0.3014    4.9700 N   0  0  0  0  0  0  0  0  0  0  0  0
   24.0693   -0.8257    4.7760 O   0  0  0  0  0  0  0  0  0  0  0  0
   23.9996   -3.2240    5.1735 C   0  0  0  0  0  0  0  0  0  0  0  0
   22.1431   -1.4979    5.6943 C   0  0  0  0  0  0  0  0  0  0  0  0
   21.0781    0.8856    5.9322 C   0  0  0  0  0  0  0  0  0  0  0  0
   18.8426   -7.0946    9.8058 C   0  0  0  0  0  0  0  0  0  0  0  0
   18.0684   -5.9511    9.5472 C   0  0  0  0  0  0  0  0  0  0  0  0
   19.2577   -6.9678   11.1108 N   0  0  0  0  0  0  0  0  0  0  0  0
   19.2030   -8.2538    8.9448 C   0  0  0  0  0  0  0  0  0  0  0  0
   18.0877   -5.1899   10.7649 C   0  0  0  0  0  0  0  0  0  0  0  0
   18.8098   -5.8325   11.7158 N   0  0  0  0  0  0  0  0  0  0  0  0
   19.8241   -7.6335   11.5640 H   0  0  0  0  0  0  0  0  0  0  0  0
   17.4415   -3.8892   11.0386 C   0  0  0  0  0  0  0  0  0  0  0  0
   17.4776   -3.3001   12.4416 C   0  0  0  0  0  0  0  0  0  0  0  0
   16.2030   -3.8688   11.9235 C   0  0  0  0  0  0  0  0  0  0  0  0
   22.6603   -3.2300    9.2975 C   0  0  0  0  0  0  0  0  0  0  0  0
   22.2368   -2.4485    8.2018 O   0  0  0  0  0  0  0  0  0  0  0  0
 17 18  1  0  0  0
 17 16  2  0  0  0
 18 15  1  0  0  0
 16 21  1  0  0  0
 16 20  1  0  0  0
 15 19  1  0  0  0
 15 20  2  0  0  0
 20  6  1  0  0  0
 11  6  2  0  0  0
 11  7  1  0  0  0
 13  7  1  0  0  0
 13  5  1  0  0  0
  6  8  1  0  0  0
  7  2  2  0  0  0
  5 10  2  0  0  0
  5  3  1  0  0  0
 10  9  1  0  0  0
  8 33  1  0  0  0
  8  1  2  0  0  0
  2  3  1  0  0  0
  2  1  1  0  0  0
 33 32  1  0  0  0
  3  4  2  0  0  0
  9 12  2  0  0  0
  4 12  1  0  0  0
  4 23  1  0  0  0
 23 22  2  0  0  0
 23 26  1  0  0  0
 25 22  1  0  0  0
 29 31  1  0  0  0
 29 26  1  0  0  0
 29 30  1  0  0  0
 22 24  1  0  0  0
 31 30  1  0  0  0
 26 27  2  0  0  0
 24 27  1  0  0  0
 24 28  1  0  0  0
 13 14  1  0  0  0
M  END
> <minimizedAffinity>
-8.59391

$$$$
4Z93_4LD_A_501


 33 38  0  0  0  0  0  0  0  0999 V2000
   20.1388   -3.6960    7.9765 C   0  0  0  0  0  0  0  0  0  0  0  0
   19.1053   -4.0960    7.1404 C   0  0  0  0  0  0  0  0  0  0  0  0
   17.9329   -4.9050    7.3338 C   0  0  0  0  0  0  0  0  0  0  0  0
   17.4306   -5.6811    8.3759 C   0  0  0  0  0  0  0  0  0  0  0  0
   17.1841   -4.8089    6.1198 C   0  0  0  0  0  0  0  0  0  0  0  0
   21.0390   -2.3725    6.1041 C   0  0  0  0  0  0  0  0  0  0  0  0
   19.0346   -3.6128    5.8200 C   0  0  0  0  0  0  0  0  0  0  0  0
   21.1228   -2.8250    7.4383 C   0  0  0  0  0  0  0  0  0  0  0  0
   15.5040   -6.1182    7.0931 C   0  0  0  0  0  0  0  0  0  0  0  0
   15.9308   -5.3967    5.9736 C   0  0  0  0  0  0  0  0  0  0  0  0
   19.9697   -2.7711    5.2879 C   0  0  0  0  0  0  0  0  0  0  0  0
   16.2002   -6.2924    8.2374 N   0  0  0  0  0  0  0  0  0  0  0  0
   17.8637   -4.0636    5.2027 N   0  0  0  0  0  0  0  0  0  0  0  0
   17.5824   -3.8774    4.2778 H   0  0  0  0  0  0  0  0  0  0  0  0
   22.0465   -0.1310    5.5255 C   0  0  0  0  0  0  0  0  0  0  0  0
   23.4605   -1.8346    5.2823 C   0  0  0  0  0  0  0  0  0  0  0  0
   24.1350   -0.6961    5.0343 N   0  0  0  0  0  0  0  0  0  0  0  0
   23.2690    0.3645    5.1796 O   0  0  0  0  0  0  0  0  0  0  0  0
   20.9344    0.8137    5.6916 C   0  0  0  0  0  0  0  0  0  0  0  0
   22.1064   -1.4927    5.6315 C   0  0  0  0  0  0  0  0  0  0  0  0
   24.0591   -3.1835    5.1837 C   0  0  0  0  0  0  0  0  0  0  0  0
   18.9439   -7.0563    9.8702 C   0  0  0  0  0  0  0  0  0  0  0  0
   18.1355   -5.9401    9.5978 C   0  0  0  0  0  0  0  0  0  0  0  0
   19.3586   -6.8987   11.1720 N   0  0  0  0  0  0  0  0  0  0  0  0
   19.3363   -8.2165    9.0247 C   0  0  0  0  0  0  0  0  0  0  0  0
   18.1354   -5.1613   10.8045 C   0  0  0  0  0  0  0  0  0  0  0  0
   18.8788   -5.7687   11.7622 N   0  0  0  0  0  0  0  0  0  0  0  0
   19.9457   -7.5407   11.6328 H   0  0  0  0  0  0  0  0  0  0  0  0
   17.4516   -3.8766   11.0618 C   0  0  0  0  0  0  0  0  0  0  0  0
   17.5207   -3.2391   12.4422 C   0  0  0  0  0  0  0  0  0  0  0  0
   16.2491   -3.8715   11.9954 C   0  0  0  0  0  0  0  0  0  0  0  0
   22.7093   -3.1699    9.2311 C   0  0  0  0  0  0  0  0  0  0  0  0
   22.2309   -2.3895    8.1574 O   0  0  0  0  0  0  0  0  0  0  0  0
 17 18  1  0  0  0
 17 16  2  0  0  0
 18 15  1  0  0  0
 16 21  1  0  0  0
 16 20  1  0  0  0
 15 19  1  0  0  0
 15 20  2  0  0  0
 20  6  1  0  0  0
 11  6  2  0  0  0
 11  7  1  0  0  0
 13  7  1  0  0  0
 13  5  1  0  0  0
  6  8  1  0  0  0
  7  2  2  0  0  0
  5 10  2  0  0  0
  5  3  1  0  0  0
 10  9  1  0  0  0
  8 33  1  0  0  0
  8  1  2  0  0  0
  2  3  1  0  0  0
  2  1  1  0  0  0
 33 32  1  0  0  0
  3  4  2  0  0  0
  9 12  2  0  0  0
  4 12  1  0  0  0
  4 23  1  0  0  0
 23 22  2  0  0  0
 23 26  1  0  0  0
 25 22  1  0  0  0
 29 31  1  0  0  0
 29 26  1  0  0  0
 29 30  1  0  0  0
 22 24  1  0  0  0
 31 30  1  0  0  0
 26 27  2  0  0  0
 24 27  1  0  0  0
 24 28  1  0  0  0
 13 14  1  0  0  0
M  END
> <minimizedAffinity>
-8.52983

$$$$
4Z93_4LD_A_501


 33 38  0  0  0  0  0  0  0  0999 V2000
   20.1311   -3.5248    8.0182 C   0  0  0  0  0  0  0  0  0  0  0  0
   19.1298   -3.9865    7.1746 C   0  0  0  0  0  0  0  0  0  0  0  0
   17.9573   -4.7926    7.3790 C   0  0  0  0  0  0  0  0  0  0  0  0
   17.4249   -5.5059    8.4506 C   0  0  0  0  0  0  0  0  0  0  0  0
   17.2502   -4.7805    6.1367 C   0  0  0  0  0  0  0  0  0  0  0  0
   21.0858   -2.3140    6.0971 C   0  0  0  0  0  0  0  0  0  0  0  0
   19.1013   -3.5886    5.8245 C   0  0  0  0  0  0  0  0  0  0  0  0
   21.1267   -2.6805    7.4595 C   0  0  0  0  0  0  0  0  0  0  0  0
   15.5469   -6.0413    7.1335 C   0  0  0  0  0  0  0  0  0  0  0  0
   16.0070   -5.3881    5.9856 C   0  0  0  0  0  0  0  0  0  0  0  0
   20.0481   -2.7735    5.2721 C   0  0  0  0  0  0  0  0  0  0  0  0
   16.2045   -6.1362    8.3096 N   0  0  0  0  0  0  0  0  0  0  0  0
   17.9556   -4.0884    5.1977 N   0  0  0  0  0  0  0  0  0  0  0  0
   17.7051   -3.9638    4.2538 H   0  0  0  0  0  0  0  0  0  0  0  0
   23.3854   -1.8686    5.1552 C   0  0  0  0  0  0  0  0  0  0  0  0
   22.1457   -0.0330    5.3889 C   0  0  0  0  0  0  0  0  0  0  0  0
   23.3032    0.3198    4.7987 N   0  0  0  0  0  0  0  0  0  0  0  0
   24.0792   -0.8082    4.6513 O   0  0  0  0  0  0  0  0  0  0  0  0
   24.0322   -3.1871    5.1541 C   0  0  0  0  0  0  0  0  0  0  0  0
   22.1625   -1.4560    5.6061 C   0  0  0  0  0  0  0  0  0  0  0  0
   21.0773    0.9264    5.7435 C   0  0  0  0  0  0  0  0  0  0  0  0
   17.9431   -4.8675   10.8462 C   0  0  0  0  0  0  0  0  0  0  0  0
   18.0891   -5.6805    9.7098 C   0  0  0  0  0  0  0  0  0  0  0  0
   18.8084   -5.3862   11.7808 N   0  0  0  0  0  0  0  0  0  0  0  0
   17.0811   -3.6817   11.1030 C   0  0  0  0  0  0  0  0  0  0  0  0
   19.0646   -6.6717   10.0686 C   0  0  0  0  0  0  0  0  0  0  0  0
   19.5039   -6.4695   11.3354 N   0  0  0  0  0  0  0  0  0  0  0  0
   18.9150   -5.0107   12.6846 H   0  0  0  0  0  0  0  0  0  0  0  0
   19.5810   -7.7845    9.2444 C   0  0  0  0  0  0  0  0  0  0  0  0
   18.6248   -8.8320    8.6923 C   0  0  0  0  0  0  0  0  0  0  0  0
   19.5296   -9.1937    9.8178 C   0  0  0  0  0  0  0  0  0  0  0  0
   22.9723   -3.0776    8.9715 C   0  0  0  0  0  0  0  0  0  0  0  0
   22.2062   -2.1900    8.1867 O   0  0  0  0  0  0  0  0  0  0  0  0
 17 18  1  0  0  0
 17 16  2  0  0  0
 18 15  1  0  0  0
 16 21  1  0  0  0
 16 20  1  0  0  0
 15 19  1  0  0  0
 15 20  2  0  0  0
 20  6  1  0  0  0
 11  6  2  0  0  0
 11  7  1  0  0  0
 13  7  1  0  0  0
 13  5  1  0  0  0
  6  8  1  0  0  0
  7  2  2  0  0  0
  5 10  2  0  0  0
  5  3  1  0  0  0
 10  9  1  0  0  0
  8 33  1  0  0  0
  8  1  2  0  0  0
  2  3  1  0  0  0
  2  1  1  0  0  0
 33 32  1  0  0  0
  3  4  2  0  0  0
  9 12  2  0  0  0
  4 12  1  0  0  0
  4 23  1  0  0  0
 23 22  2  0  0  0
 23 26  1  0  0  0
 25 22  1  0  0  0
 29 31  1  0  0  0
 29 26  1  0  0  0
 29 30  1  0  0  0
 22 24  1  0  0  0
 31 30  1  0  0  0
 26 27  2  0  0  0
 24 27  1  0  0  0
 24 28  1  0  0  0
 13 14  1  0  0  0
M  END
> <minimizedAffinity>
-8.30697

$$$$
4Z93_4LD_A_501


 33 38  0  0  0  0  0  0  0  0999 V2000
   17.7780   -5.8531    8.8241 C   0  0  0  0  0  0  0  0  0  0  0  0
   18.7104   -4.9133    8.4059 C   0  0  0  0  0  0  0  0  0  0  0  0
   19.9218   -4.3969    8.9822 C   0  0  0  0  0  0  0  0  0  0  0  0
   20.5741   -4.5446   10.2042 C   0  0  0  0  0  0  0  0  0  0  0  0
   20.5093   -3.5627    7.9810 C   0  0  0  0  0  0  0  0  0  0  0  0
   16.6105   -5.5373    6.6781 C   0  0  0  0  0  0  0  0  0  0  0  0
   18.6002   -4.3242    7.1320 C   0  0  0  0  0  0  0  0  0  0  0  0
   16.7084   -6.1587    7.9415 C   0  0  0  0  0  0  0  0  0  0  0  0
   22.3371   -3.2051    9.4006 C   0  0  0  0  0  0  0  0  0  0  0  0
   21.7516   -2.9593    8.1545 C   0  0  0  0  0  0  0  0  0  0  0  0
   17.5807   -4.6101    6.2690 C   0  0  0  0  0  0  0  0  0  0  0  0
   21.7954   -3.9316   10.4023 N   0  0  0  0  0  0  0  0  0  0  0  0
   19.6978   -3.4927    6.8879 N   0  0  0  0  0  0  0  0  0  0  0  0
   19.8552   -2.9566    6.0773 H   0  0  0  0  0  0  0  0  0  0  0  0
   14.4426   -5.0757    5.4694 C   0  0  0  0  0  0  0  0  0  0  0  0
   15.2154   -7.1413    5.1587 C   0  0  0  0  0  0  0  0  0  0  0  0
   14.1150   -6.9905    4.3977 N   0  0  0  0  0  0  0  0  0  0  0  0
   13.6270   -5.7165    4.5841 O   0  0  0  0  0  0  0  0  0  0  0  0
   14.0969   -3.7049    5.8675 C   0  0  0  0  0  0  0  0  0  0  0  0
   15.4661   -5.9008    5.8446 C   0  0  0  0  0  0  0  0  0  0  0  0
   15.9892   -8.3988    5.2459 C   0  0  0  0  0  0  0  0  0  0  0  0
   19.0205   -4.8233   12.1850 C   0  0  0  0  0  0  0  0  0  0  0  0
   20.0361   -5.2660   11.3210 C   0  0  0  0  0  0  0  0  0  0  0  0
   18.8803   -5.8177   13.1246 N   0  0  0  0  0  0  0  0  0  0  0  0
   18.2062   -3.5776   12.1889 C   0  0  0  0  0  0  0  0  0  0  0  0
   20.4369   -6.5500   11.8244 C   0  0  0  0  0  0  0  0  0  0  0  0
   19.7281   -6.8671   12.9360 N   0  0  0  0  0  0  0  0  0  0  0  0
   18.2299   -5.7752   13.8624 H   0  0  0  0  0  0  0  0  0  0  0  0
   21.4646   -7.4630   11.2816 C   0  0  0  0  0  0  0  0  0  0  0  0
   21.0856   -8.5028   10.2368 C   0  0  0  0  0  0  0  0  0  0  0  0
   21.3744   -8.9423   11.6295 C   0  0  0  0  0  0  0  0  0  0  0  0
   15.8814   -7.9812    9.2998 C   0  0  0  0  0  0  0  0  0  0  0  0
   15.6865   -7.0466    8.2609 O   0  0  0  0  0  0  0  0  0  0  0  0
 17 18  1  0  0  0
 17 16  2  0  0  0
 18 15  1  0  0  0
 16 21  1  0  0  0
 16 20  1  0  0  0
 15 19  1  0  0  0
 15 20  2  0  0  0
 20  6  1  0  0  0
 11  6  2  0  0  0
 11  7  1  0  0  0
 13  7  1  0  0  0
 13  5  1  0  0  0
  6  8  1  0  0  0
  7  2  2  0  0  0
  5 10  2  0  0  0
  5  3  1  0  0  0
 10  9  1  0  0  0
  8 33  1  0  0  0
  8  1  2  0  0  0
  2  3  1  0  0  0
  2  1  1  0  0  0
 33 32  1  0  0  0
  3  4  2  0  0  0
  9 12  2  0  0  0
  4 12  1  0  0  0
  4 23  1  0  0  0
 23 22  2  0  0  0
 23 26  1  0  0  0
 25 22  1  0  0  0
 29 31  1  0  0  0
 29 26  1  0  0  0
 29 30  1  0  0  0
 22 24  1  0  0  0
 31 30  1  0  0  0
 26 27  2  0  0  0
 24 27  1  0  0  0
 24 28  1  0  0  0
 13 14  1  0  0  0
M  END
> <minimizedAffinity>
-7.86501

$$$$
4Z93_4LD_A_501


 33 38  0  0  0  0  0  0  0  0999 V2000
   17.7018   -5.0734   10.0782 C   0  0  0  0  0  0  0  0  0  0  0  0
   18.6706   -4.5555    9.2294 C   0  0  0  0  0  0  0  0  0  0  0  0
   18.7468   -4.3806    7.8047 C   0  0  0  0  0  0  0  0  0  0  0  0
   17.9512   -4.7476    6.7216 C   0  0  0  0  0  0  0  0  0  0  0  0
   19.9470   -3.6427    7.5626 C   0  0  0  0  0  0  0  0  0  0  0  0
   19.1483   -4.4640   11.9767 C   0  0  0  0  0  0  0  0  0  0  0  0
   19.8407   -3.9782    9.7583 C   0  0  0  0  0  0  0  0  0  0  0  0
   17.9568   -5.0297   11.4744 C   0  0  0  0  0  0  0  0  0  0  0  0
   19.4167   -3.5952    5.2820 C   0  0  0  0  0  0  0  0  0  0  0  0
   20.3050   -3.2067    6.2900 C   0  0  0  0  0  0  0  0  0  0  0  0
   20.0997   -3.9237   11.0984 C   0  0  0  0  0  0  0  0  0  0  0  0
   18.3058   -4.3451    5.4493 N   0  0  0  0  0  0  0  0  0  0  0  0
   20.6179   -3.4343    8.7308 N   0  0  0  0  0  0  0  0  0  0  0  0
   21.4877   -2.9846    8.8323 H   0  0  0  0  0  0  0  0  0  0  0  0
   20.0949   -5.3638   14.1373 C   0  0  0  0  0  0  0  0  0  0  0  0
   18.8567   -3.5312   14.4001 C   0  0  0  0  0  0  0  0  0  0  0  0
   19.3746   -3.8581   15.5990 N   0  0  0  0  0  0  0  0  0  0  0  0
   20.1408   -4.9923   15.4486 O   0  0  0  0  0  0  0  0  0  0  0  0
   20.8035   -6.5857   13.7350 C   0  0  0  0  0  0  0  0  0  0  0  0
   19.3325   -4.4790   13.4267 C   0  0  0  0  0  0  0  0  0  0  0  0
   17.9460   -2.3863   14.1819 C   0  0  0  0  0  0  0  0  0  0  0  0
   16.7521   -6.9178    7.2384 C   0  0  0  0  0  0  0  0  0  0  0  0
   16.7846   -5.5756    6.8248 C   0  0  0  0  0  0  0  0  0  0  0  0
   15.4369   -7.3036    7.1257 N   0  0  0  0  0  0  0  0  0  0  0  0
   17.8306   -7.8276    7.7117 C   0  0  0  0  0  0  0  0  0  0  0  0
   15.4279   -5.2428    6.4912 C   0  0  0  0  0  0  0  0  0  0  0  0
   14.6178   -6.3155    6.6692 N   0  0  0  0  0  0  0  0  0  0  0  0
   15.1180   -8.2068    7.3532 H   0  0  0  0  0  0  0  0  0  0  0  0
   14.8967   -3.9497    6.0114 C   0  0  0  0  0  0  0  0  0  0  0  0
   13.6880   -3.9178    5.0870 C   0  0  0  0  0  0  0  0  0  0  0  0
   15.0361   -3.6143    4.5331 C   0  0  0  0  0  0  0  0  0  0  0  0
   15.8857   -4.8775   12.7144 C   0  0  0  0  0  0  0  0  0  0  0  0
   17.0883   -5.5561   12.4249 O   0  0  0  0  0  0  0  0  0  0  0  0
 17 18  1  0  0  0
 17 16  2  0  0  0
 18 15  1  0  0  0
 16 21  1  0  0  0
 16 20  1  0  0  0
 15 19  1  0  0  0
 15 20  2  0  0  0
 20  6  1  0  0  0
 11  6  2  0  0  0
 11  7  1  0  0  0
 13  7  1  0  0  0
 13  5  1  0  0  0
  6  8  1  0  0  0
  7  2  2  0  0  0
  5 10  2  0  0  0
  5  3  1  0  0  0
 10  9  1  0  0  0
  8 33  1  0  0  0
  8  1  2  0  0  0
  2  3  1  0  0  0
  2  1  1  0  0  0
 33 32  1  0  0  0
  3  4  2  0  0  0
  9 12  2  0  0  0
  4 12  1  0  0  0
  4 23  1  0  0  0
 23 22  2  0  0  0
 23 26  1  0  0  0
 25 22  1  0  0  0
 29 31  1  0  0  0
 29 26  1  0  0  0
 29 30  1  0  0  0
 22 24  1  0  0  0
 31 30  1  0  0  0
 26 27  2  0  0  0
 24 27  1  0  0  0
 24 28  1  0  0  0
 13 14  1  0  0  0
M  END
> <minimizedAffinity>
-7.70882

$$$$
4Z93_4LD_A_501


 33 38  0  0  0  0  0  0  0  0999 V2000
   19.4205   -3.6860    6.3736 C   0  0  0  0  0  0  0  0  0  0  0  0
   19.9077   -3.9145    7.6533 C   0  0  0  0  0  0  0  0  0  0  0  0
   21.0966   -3.5018    8.3479 C   0  0  0  0  0  0  0  0  0  0  0  0
   22.2577   -2.8175    7.9956 C   0  0  0  0  0  0  0  0  0  0  0  0
   20.9348   -3.9397    9.6991 C   0  0  0  0  0  0  0  0  0  0  0  0
   17.3985   -4.9453    7.0009 C   0  0  0  0  0  0  0  0  0  0  0  0
   19.1320   -4.6226    8.5908 C   0  0  0  0  0  0  0  0  0  0  0  0
   18.1461   -4.2209    6.0479 C   0  0  0  0  0  0  0  0  0  0  0  0
   22.9671   -2.9093   10.2399 C   0  0  0  0  0  0  0  0  0  0  0  0
   21.8597   -3.6332   10.6932 C   0  0  0  0  0  0  0  0  0  0  0  0
   17.9026   -5.1398    8.2958 C   0  0  0  0  0  0  0  0  0  0  0  0
   23.1977   -2.5278    8.9648 N   0  0  0  0  0  0  0  0  0  0  0  0
   19.7739   -4.6415    9.8330 N   0  0  0  0  0  0  0  0  0  0  0  0
   19.4480   -5.0802   10.6520 H   0  0  0  0  0  0  0  0  0  0  0  0
   15.7463   -6.7914    6.5153 C   0  0  0  0  0  0  0  0  0  0  0  0
   14.9127   -4.7473    6.2200 C   0  0  0  0  0  0  0  0  0  0  0  0
   13.9194   -5.6338    6.0205 N   0  0  0  0  0  0  0  0  0  0  0  0
   14.4246   -6.9024    6.1983 O   0  0  0  0  0  0  0  0  0  0  0  0
   16.5216   -8.0239    6.7075 C   0  0  0  0  0  0  0  0  0  0  0  0
   16.1053   -5.4734    6.5706 C   0  0  0  0  0  0  0  0  0  0  0  0
   14.7508   -3.2842    6.0759 C   0  0  0  0  0  0  0  0  0  0  0  0
   23.5203   -3.0388    5.8113 C   0  0  0  0  0  0  0  0  0  0  0  0
   22.5827   -2.4215    6.6560 C   0  0  0  0  0  0  0  0  0  0  0  0
   23.5278   -2.2857    4.6606 N   0  0  0  0  0  0  0  0  0  0  0  0
   24.3777   -4.2399    6.0047 C   0  0  0  0  0  0  0  0  0  0  0  0
   22.0715   -1.3044    5.9120 C   0  0  0  0  0  0  0  0  0  0  0  0
   22.6696   -1.2284    4.6975 N   0  0  0  0  0  0  0  0  0  0  0  0
   24.0984   -2.4908    3.8850 H   0  0  0  0  0  0  0  0  0  0  0  0
   21.0471   -0.3233    6.3270 C   0  0  0  0  0  0  0  0  0  0  0  0
   20.4841    0.6652    5.3159 C   0  0  0  0  0  0  0  0  0  0  0  0
   21.4281    1.1502    6.3600 C   0  0  0  0  0  0  0  0  0  0  0  0
   17.8814   -2.9830    3.9869 C   0  0  0  0  0  0  0  0  0  0  0  0
   17.5684   -4.1013    4.7883 O   0  0  0  0  0  0  0  0  0  0  0  0
 17 18  1  0  0  0
 17 16  2  0  0  0
 18 15  1  0  0  0
 16 21  1  0  0  0
 16 20  1  0  0  0
 15 19  1  0  0  0
 15 20  2  0  0  0
 20  6  1  0  0  0
 11  6  2  0  0  0
 11  7  1  0  0  0
 13  7  1  0  0  0
 13  5  1  0  0  0
  6  8  1  0  0  0
  7  2  2  0  0  0
  5 10  2  0  0  0
  5  3  1  0  0  0
 10  9  1  0  0  0
  8 33  1  0  0  0
  8  1  2  0  0  0
  2  3  1  0  0  0
  2  1  1  0  0  0
 33 32  1  0  0  0
  3  4  2  0  0  0
  9 12  2  0  0  0
  4 12  1  0  0  0
  4 23  1  0  0  0
 23 22  2  0  0  0
 23 26  1  0  0  0
 25 22  1  0  0  0
 29 31  1  0  0  0
 29 26  1  0  0  0
 29 30  1  0  0  0
 22 24  1  0  0  0
 31 30  1  0  0  0
 26 27  2  0  0  0
 24 27  1  0  0  0
 24 28  1  0  0  0
 13 14  1  0  0  0
M  END
> <minimizedAffinity>
-7.47271

$$$$
4Z93_4LD_A_501


 33 38  0  0  0  0  0  0  0  0999 V2000
   20.6708   -3.5137    7.6759 C   0  0  0  0  0  0  0  0  0  0  0  0
   21.7135   -3.2236    8.5454 C   0  0  0  0  0  0  0  0  0  0  0  0
   22.8958   -2.4132    8.4372 C   0  0  0  0  0  0  0  0  0  0  0  0
   23.5123   -1.6996    7.4120 C   0  0  0  0  0  0  0  0  0  0  0  0
   23.4857   -2.4023    9.7393 C   0  0  0  0  0  0  0  0  0  0  0  0
   19.6239   -4.8147    9.4868 C   0  0  0  0  0  0  0  0  0  0  0  0
   21.6863   -3.7024    9.8690 C   0  0  0  0  0  0  0  0  0  0  0  0
   19.6155   -4.3305    8.1611 C   0  0  0  0  0  0  0  0  0  0  0  0
   25.1236   -0.9279    8.9471 C   0  0  0  0  0  0  0  0  0  0  0  0
   24.6089   -1.6361   10.0377 C   0  0  0  0  0  0  0  0  0  0  0  0
   20.6770   -4.4852   10.3534 C   0  0  0  0  0  0  0  0  0  0  0  0
   24.6424   -0.9547    7.6852 N   0  0  0  0  0  0  0  0  0  0  0  0
   22.7790   -3.2041   10.5855 N   0  0  0  0  0  0  0  0  0  0  0  0
   22.9972   -3.3966   11.5260 H   0  0  0  0  0  0  0  0  0  0  0  0
   17.3464   -5.2459   10.4873 C   0  0  0  0  0  0  0  0  0  0  0  0
   18.3223   -7.0732    9.6694 C   0  0  0  0  0  0  0  0  0  0  0  0
   17.0885   -7.4129   10.0875 N   0  0  0  0  0  0  0  0  0  0  0  0
   16.4763   -6.2901   10.5980 O   0  0  0  0  0  0  0  0  0  0  0  0
   16.9341   -3.9379   11.0129 C   0  0  0  0  0  0  0  0  0  0  0  0
   18.5047   -5.6628    9.8927 C   0  0  0  0  0  0  0  0  0  0  0  0
   19.2904   -8.0337    9.0967 C   0  0  0  0  0  0  0  0  0  0  0  0
   23.6217   -2.4990    5.0112 C   0  0  0  0  0  0  0  0  0  0  0  0
   23.0782   -1.7184    6.0451 C   0  0  0  0  0  0  0  0  0  0  0  0
   22.9257   -2.1433    3.8796 N   0  0  0  0  0  0  0  0  0  0  0  0
   24.7092   -3.5150    5.0134 C   0  0  0  0  0  0  0  0  0  0  0  0
   22.0482   -0.9286    5.4302 C   0  0  0  0  0  0  0  0  0  0  0  0
   21.9765   -1.1918    4.1020 N   0  0  0  0  0  0  0  0  0  0  0  0
   23.0969   -2.5382    2.9942 H   0  0  0  0  0  0  0  0  0  0  0  0
   21.1500    0.0567    6.0681 C   0  0  0  0  0  0  0  0  0  0  0  0
   20.3490    1.0256    5.2102 C   0  0  0  0  0  0  0  0  0  0  0  0
   21.5168    1.5316    5.9825 C   0  0  0  0  0  0  0  0  0  0  0  0
   18.2259   -4.0035    6.2086 C   0  0  0  0  0  0  0  0  0  0  0  0
   18.5385   -4.7303    7.3769 O   0  0  0  0  0  0  0  0  0  0  0  0
 17 18  1  0  0  0
 17 16  2  0  0  0
 18 15  1  0  0  0
 16 21  1  0  0  0
 16 20  1  0  0  0
 15 19  1  0  0  0
 15 20  2  0  0  0
 20  6  1  0  0  0
 11  6  2  0  0  0
 11  7  1  0  0  0
 13  7  1  0  0  0
 13  5  1  0  0  0
  6  8  1  0  0  0
  7  2  2  0  0  0
  5 10  2  0  0  0
  5  3  1  0  0  0
 10  9  1  0  0  0
  8 33  1  0  0  0
  8  1  2  0  0  0
  2  3  1  0  0  0
  2  1  1  0  0  0
 33 32  1  0  0  0
  3  4  2  0  0  0
  9 12  2  0  0  0
  4 12  1  0  0  0
  4 23  1  0  0  0
 23 22  2  0  0  0
 23 26  1  0  0  0
 25 22  1  0  0  0
 29 31  1  0  0  0
 29 26  1  0  0  0
 29 30  1  0  0  0
 22 24  1  0  0  0
 31 30  1  0  0  0
 26 27  2  0  0  0
 24 27  1  0  0  0
 24 28  1  0  0  0
 13 14  1  0  0  0
M  END
> <minimizedAffinity>
-7.41322

$$$$
4Z93_4LD_A_501


 33 38  0  0  0  0  0  0  0  0999 V2000
   21.3442   -3.4508    8.9070 C   0  0  0  0  0  0  0  0  0  0  0  0
   20.9824   -2.7439    7.7683 C   0  0  0  0  0  0  0  0  0  0  0  0
   21.6852   -1.8383    6.9009 C   0  0  0  0  0  0  0  0  0  0  0  0
   22.9415   -1.2364    6.9119 C   0  0  0  0  0  0  0  0  0  0  0  0
   20.8001   -1.5716    5.8104 C   0  0  0  0  0  0  0  0  0  0  0  0
   19.0985   -4.4632    8.8991 C   0  0  0  0  0  0  0  0  0  0  0  0
   19.7082   -2.9238    7.1975 C   0  0  0  0  0  0  0  0  0  0  0  0
   20.3764   -4.3176    9.4802 C   0  0  0  0  0  0  0  0  0  0  0  0
   22.4758   -0.2752    4.8126 C   0  0  0  0  0  0  0  0  0  0  0  0
   21.1818   -0.7974    4.7184 C   0  0  0  0  0  0  0  0  0  0  0  0
   18.7672   -3.7568    7.7330 C   0  0  0  0  0  0  0  0  0  0  0  0
   23.3261   -0.4443    5.8484 N   0  0  0  0  0  0  0  0  0  0  0  0
   19.6039   -2.1946    6.0089 N   0  0  0  0  0  0  0  0  0  0  0  0
   18.8137   -2.1410    5.4242 H   0  0  0  0  0  0  0  0  0  0  0  0
   17.2386   -5.0153   10.5145 C   0  0  0  0  0  0  0  0  0  0  0  0
   17.9277   -6.7618    9.3163 C   0  0  0  0  0  0  0  0  0  0  0  0
   16.8829   -7.1590   10.0667 N   0  0  0  0  0  0  0  0  0  0  0  0
   16.4499   -6.0867   10.8141 O   0  0  0  0  0  0  0  0  0  0  0  0
   16.9995   -3.7541   11.2280 C   0  0  0  0  0  0  0  0  0  0  0  0
   18.1618   -5.3639    9.5684 C   0  0  0  0  0  0  0  0  0  0  0  0
   18.6796   -7.6590    8.4122 C   0  0  0  0  0  0  0  0  0  0  0  0
   24.1564   -0.3469    8.9485 C   0  0  0  0  0  0  0  0  0  0  0  0
   23.8737   -1.3411    7.9969 C   0  0  0  0  0  0  0  0  0  0  0  0
   25.1424   -0.8757    9.7481 N   0  0  0  0  0  0  0  0  0  0  0  0
   23.5870    1.0135    9.1485 C   0  0  0  0  0  0  0  0  0  0  0  0
   24.7415   -2.4394    8.3185 C   0  0  0  0  0  0  0  0  0  0  0  0
   25.5203   -2.1332    9.3854 N   0  0  0  0  0  0  0  0  0  0  0  0
   25.5372   -0.3920   10.5094 H   0  0  0  0  0  0  0  0  0  0  0  0
   24.8458   -3.7489    7.6413 C   0  0  0  0  0  0  0  0  0  0  0  0
   26.2058   -4.4085    7.4624 C   0  0  0  0  0  0  0  0  0  0  0  0
   25.5274   -3.8076    6.2813 C   0  0  0  0  0  0  0  0  0  0  0  0
   20.9560   -4.3639   11.8280 C   0  0  0  0  0  0  0  0  0  0  0  0
   20.5989   -5.0448   10.6449 O   0  0  0  0  0  0  0  0  0  0  0  0
 17 18  1  0  0  0
 17 16  2  0  0  0
 18 15  1  0  0  0
 16 21  1  0  0  0
 16 20  1  0  0  0
 15 19  1  0  0  0
 15 20  2  0  0  0
 20  6  1  0  0  0
 11  6  2  0  0  0
 11  7  1  0  0  0
 13  7  1  0  0  0
 13  5  1  0  0  0
  6  8  1  0  0  0
  7  2  2  0  0  0
  5 10  2  0  0  0
  5  3  1  0  0  0
 10  9  1  0  0  0
  8 33  1  0  0  0
  8  1  2  0  0  0
  2  3  1  0  0  0
  2  1  1  0  0  0
 33 32  1  0  0  0
  3  4  2  0  0  0
  9 12  2  0  0  0
  4 12  1  0  0  0
  4 23  1  0  0  0
 23 22  2  0  0  0
 23 26  1  0  0  0
 25 22  1  0  0  0
 29 31  1  0  0  0
 29 26  1  0  0  0
 29 30  1  0  0  0
 22 24  1  0  0  0
 31 30  1  0  0  0
 26 27  2  0  0  0
 24 27  1  0  0  0
 24 28  1  0  0  0
 13 14  1  0  0  0
M  END
> <minimizedAffinity>
-7.27351

$$$$
4Z93_4LD_A_501


 33 38  0  0  0  0  0  0  0  0999 V2000
   20.4789   -3.9080    8.0074 C   0  0  0  0  0  0  0  0  0  0  0  0
   21.1256   -3.8986    9.2358 C   0  0  0  0  0  0  0  0  0  0  0  0
   20.9318   -4.6239   10.4617 C   0  0  0  0  0  0  0  0  0  0  0  0
   19.9794   -5.5230   10.9361 C   0  0  0  0  0  0  0  0  0  0  0  0
   22.0299   -4.2701   11.3058 C   0  0  0  0  0  0  0  0  0  0  0  0
   22.1423   -2.2778    7.2052 C   0  0  0  0  0  0  0  0  0  0  0  0
   22.2768   -3.1105    9.4245 C   0  0  0  0  0  0  0  0  0  0  0  0
   20.9986   -3.0741    6.9822 C   0  0  0  0  0  0  0  0  0  0  0  0
   21.2328   -5.7737   12.9146 C   0  0  0  0  0  0  0  0  0  0  0  0
   22.2247   -4.8564   12.5532 C   0  0  0  0  0  0  0  0  0  0  0  0
   22.7927   -2.3065    8.4481 C   0  0  0  0  0  0  0  0  0  0  0  0
   20.1439   -6.0943   12.1823 N   0  0  0  0  0  0  0  0  0  0  0  0
   22.8139   -3.3366   10.6957 N   0  0  0  0  0  0  0  0  0  0  0  0
   23.6102   -2.9024   11.0787 H   0  0  0  0  0  0  0  0  0  0  0  0
   22.1954   -0.1567    5.8370 C   0  0  0  0  0  0  0  0  0  0  0  0
   23.6132   -1.7172    5.1195 C   0  0  0  0  0  0  0  0  0  0  0  0
   23.7989   -0.6124    4.3729 N   0  0  0  0  0  0  0  0  0  0  0  0
   22.9248    0.3592    4.8067 O   0  0  0  0  0  0  0  0  0  0  0  0
   21.1528    0.6835    6.4406 C   0  0  0  0  0  0  0  0  0  0  0  0
   22.5947   -1.4379    6.0977 C   0  0  0  0  0  0  0  0  0  0  0  0
   24.3518   -2.9822    4.9145 C   0  0  0  0  0  0  0  0  0  0  0  0
   18.5863   -7.0239    9.4457 C   0  0  0  0  0  0  0  0  0  0  0  0
   18.7821   -5.8740   10.2287 C   0  0  0  0  0  0  0  0  0  0  0  0
   17.3178   -6.9028    8.9285 N   0  0  0  0  0  0  0  0  0  0  0  0
   19.4758   -8.1824    9.1599 C   0  0  0  0  0  0  0  0  0  0  0  0
   17.5611   -5.1250   10.1243 C   0  0  0  0  0  0  0  0  0  0  0  0
   16.6800   -5.7627    9.3147 N   0  0  0  0  0  0  0  0  0  0  0  0
   16.9099   -7.5752    8.3363 H   0  0  0  0  0  0  0  0  0  0  0  0
   17.2233   -3.8362   10.7641 C   0  0  0  0  0  0  0  0  0  0  0  0
   17.7605   -3.5091   12.1500 C   0  0  0  0  0  0  0  0  0  0  0  0
   16.3207   -3.8519   11.9899 C   0  0  0  0  0  0  0  0  0  0  0  0
   19.1824   -3.5960    5.4725 C   0  0  0  0  0  0  0  0  0  0  0  0
   20.4158   -2.9589    5.7245 O   0  0  0  0  0  0  0  0  0  0  0  0
 17 18  1  0  0  0
 17 16  2  0  0  0
 18 15  1  0  0  0
 16 21  1  0  0  0
 16 20  1  0  0  0
 15 19  1  0  0  0
 15 20  2  0  0  0
 20  6  1  0  0  0
 11  6  2  0  0  0
 11  7  1  0  0  0
 13  7  1  0  0  0
 13  5  1  0  0  0
  6  8  1  0  0  0
  7  2  2  0  0  0
  5 10  2  0  0  0
  5  3  1  0  0  0
 10  9  1  0  0  0
  8 33  1  0  0  0
  8  1  2  0  0  0
  2  3  1  0  0  0
  2  1  1  0  0  0
 33 32  1  0  0  0
  3  4  2  0  0  0
  9 12  2  0  0  0
  4 12  1  0  0  0
  4 23  1  0  0  0
 23 22  2  0  0  0
 23 26  1  0  0  0
 25 22  1  0  0  0
 29 31  1  0  0  0
 29 26  1  0  0  0
 29 30  1  0  0  0
 22 24  1  0  0  0
 31 30  1  0  0  0
 26 27  2  0  0  0
 24 27  1  0  0  0
 24 28  1  0  0  0
 13 14  1  0  0  0
M  END
> <minimizedAffinity>
-7.18784

$$$$
