4JFS_16Z_A_501


 19 20  0  0  0  0  0  0  0  0999 V2000
  -16.3517   11.7147   32.0165 C   0  0  0  0  0  0  0  0  0  0  0  0
  -14.9216   11.2022   31.8524 C   0  0  0  0  0  0  0  0  0  0  0  0
  -14.2845   11.9305   30.7882 O   0  0  0  0  0  0  0  0  0  0  0  0
  -15.1997    9.6934   31.5680 C   0  0  0  0  0  0  0  0  0  0  0  0
  -15.7073    9.4601   30.1851 O   0  0  0  0  0  0  0  0  0  0  0  0
  -16.2045    9.4007   32.6345 C   0  0  0  0  0  0  0  0  0  0  0  0
  -16.7441    7.9923   32.4964 C   0  0  0  0  0  0  0  0  0  0  0  0
  -17.1305   10.4784   32.3410 N   0  0  0  0  0  0  0  0  0  0  0  0
  -18.2008   10.5820   33.3384 C   0  0  0  0  0  0  0  0  0  0  0  0
  -14.8290   11.8752   29.9874 H   0  0  0  0  0  0  0  0  0  0  0  0
  -16.5034    9.9945   30.0385 H   0  0  0  0  0  0  0  0  0  0  0  0
  -16.7794   14.8693   34.8269 C   0  0  0  0  0  0  0  0  0  0  0  0
  -15.7357   13.9413   34.9275 C   0  0  0  0  0  0  0  0  0  0  0  0
  -15.6072   12.9145   34.0038 C   0  0  0  0  0  0  0  0  0  0  0  0
  -17.7218   14.7523   33.7939 C   0  0  0  0  0  0  0  0  0  0  0  0
  -17.5869   13.7132   32.8737 C   0  0  0  0  0  0  0  0  0  0  0  0
  -16.5370   12.7768   32.9657 C   0  0  0  0  0  0  0  0  0  0  0  0
  -15.7884   15.9159   36.8276 C   0  0  0  0  0  0  0  0  0  0  0  0
  -16.8250   15.8594   35.7719 O   0  0  0  0  0  0  0  0  0  0  0  0
  5  4  1  0  0  0
  3  2  1  0  0  0
  4  2  1  0  0  0
  4  6  1  0  0  0
  2  1  1  0  0  0
  1  8  1  0  0  0
  1 17  1  0  0  0
  8  6  1  0  0  0
  8  9  1  0  0  0
  7  6  1  0  0  0
 14 17  2  0  0  0
 14 13  1  0  0  0
 17 16  1  0  0  0
 13 12  2  0  0  0
 16 15  2  0  0  0
 12 15  1  0  0  0
 12 19  1  0  0  0
 19 18  1  0  0  0
  3 10  1  0  0  0
  5 11  1  0  0  0
M  END
> <minimizedAffinity>
-7.20775

$$$$
4JFS_16Z_A_501


 19 20  0  0  0  0  0  0  0  0999 V2000
  -15.8286   12.9901   33.2130 C   0  0  0  0  0  0  0  0  0  0  0  0
  -17.0743   13.2273   34.0655 C   0  0  0  0  0  0  0  0  0  0  0  0
  -18.1336   13.7084   33.2198 O   0  0  0  0  0  0  0  0  0  0  0  0
  -16.5121   14.2546   35.0967 C   0  0  0  0  0  0  0  0  0  0  0  0
  -16.3493   15.6165   34.5106 O   0  0  0  0  0  0  0  0  0  0  0  0
  -15.2195   13.5954   35.4537 C   0  0  0  0  0  0  0  0  0  0  0  0
  -14.4002   14.4760   36.3740 C   0  0  0  0  0  0  0  0  0  0  0  0
  -14.7068   13.4139   34.1086 N   0  0  0  0  0  0  0  0  0  0  0  0
  -13.4713   12.6240   34.0840 C   0  0  0  0  0  0  0  0  0  0  0  0
  -17.8262   14.4852   32.7268 H   0  0  0  0  0  0  0  0  0  0  0  0
  -15.7818   15.5649   33.7257 H   0  0  0  0  0  0  0  0  0  0  0  0
  -15.4771    9.0515   31.6650 C   0  0  0  0  0  0  0  0  0  0  0  0
  -16.2383    9.3186   32.8094 C   0  0  0  0  0  0  0  0  0  0  0  0
  -16.3447   10.6094   33.3061 C   0  0  0  0  0  0  0  0  0  0  0  0
  -14.7943   10.0942   31.0205 C   0  0  0  0  0  0  0  0  0  0  0  0
  -14.9032   11.3874   31.5310 C   0  0  0  0  0  0  0  0  0  0  0  0
  -15.6704   11.6655   32.6805 C   0  0  0  0  0  0  0  0  0  0  0  0
  -16.4713    6.7951   31.6867 C   0  0  0  0  0  0  0  0  0  0  0  0
  -15.4364    7.7523   31.2339 O   0  0  0  0  0  0  0  0  0  0  0  0
  5  4  1  0  0  0
  3  2  1  0  0  0
  4  2  1  0  0  0
  4  6  1  0  0  0
  2  1  1  0  0  0
  1  8  1  0  0  0
  1 17  1  0  0  0
  8  6  1  0  0  0
  8  9  1  0  0  0
  7  6  1  0  0  0
 14 17  2  0  0  0
 14 13  1  0  0  0
 17 16  1  0  0  0
 13 12  2  0  0  0
 16 15  2  0  0  0
 12 15  1  0  0  0
 12 19  1  0  0  0
 19 18  1  0  0  0
  3 10  1  0  0  0
  5 11  1  0  0  0
M  END
> <minimizedAffinity>
-6.27968

$$$$
4JFS_16Z_A_501


 19 20  0  0  0  0  0  0  0  0999 V2000
  -17.8904   12.7391   33.8434 C   0  0  0  0  0  0  0  0  0  0  0  0
  -17.0637   12.9985   32.5848 C   0  0  0  0  0  0  0  0  0  0  0  0
  -17.8020   12.5392   31.4390 O   0  0  0  0  0  0  0  0  0  0  0  0
  -15.7751   12.1884   32.9286 C   0  0  0  0  0  0  0  0  0  0  0  0
  -15.9767   10.7167   32.7944 O   0  0  0  0  0  0  0  0  0  0  0  0
  -15.5438   12.6377   34.3348 C   0  0  0  0  0  0  0  0  0  0  0  0
  -14.3887   11.8835   34.9597 C   0  0  0  0  0  0  0  0  0  0  0  0
  -16.8645   12.3463   34.8600 N   0  0  0  0  0  0  0  0  0  0  0  0
  -17.0380   12.8293   36.2339 C   0  0  0  0  0  0  0  0  0  0  0  0
  -18.0601   11.6135   31.5705 H   0  0  0  0  0  0  0  0  0  0  0  0
  -16.7209   10.4401   33.3517 H   0  0  0  0  0  0  0  0  0  0  0  0
  -20.3756   15.9778   35.0126 C   0  0  0  0  0  0  0  0  0  0  0  0
  -19.1123   16.1960   34.4494 C   0  0  0  0  0  0  0  0  0  0  0  0
  -18.3092   15.1297   34.0724 C   0  0  0  0  0  0  0  0  0  0  0  0
  -20.8316   14.6672   35.2199 C   0  0  0  0  0  0  0  0  0  0  0  0
  -20.0143   13.6021   34.8426 C   0  0  0  0  0  0  0  0  0  0  0  0
  -18.7427   13.8130   34.2716 C   0  0  0  0  0  0  0  0  0  0  0  0
  -20.5937   18.4340   35.0132 C   0  0  0  0  0  0  0  0  0  0  0  0
  -21.1091   17.0858   35.3436 O   0  0  0  0  0  0  0  0  0  0  0  0
  5  4  1  0  0  0
  3  2  1  0  0  0
  4  2  1  0  0  0
  4  6  1  0  0  0
  2  1  1  0  0  0
  1  8  1  0  0  0
  1 17  1  0  0  0
  8  6  1  0  0  0
  8  9  1  0  0  0
  7  6  1  0  0  0
 14 17  2  0  0  0
 14 13  1  0  0  0
 17 16  1  0  0  0
 13 12  2  0  0  0
 16 15  2  0  0  0
 12 15  1  0  0  0
 12 19  1  0  0  0
 19 18  1  0  0  0
  3 10  1  0  0  0
  5 11  1  0  0  0
M  END
> <minimizedAffinity>
-6.14667

$$$$
4JFS_16Z_A_501


 19 20  0  0  0  0  0  0  0  0999 V2000
  -16.2719   13.7610   33.8988 C   0  0  0  0  0  0  0  0  0  0  0  0
  -15.4517   12.9875   34.9301 C   0  0  0  0  0  0  0  0  0  0  0  0
  -14.6873   13.9210   35.7132 O   0  0  0  0  0  0  0  0  0  0  0  0
  -14.6251   12.0597   33.9863 C   0  0  0  0  0  0  0  0  0  0  0  0
  -13.5257   12.7902   33.2919 O   0  0  0  0  0  0  0  0  0  0  0  0
  -15.7033   11.5827   33.0685 C   0  0  0  0  0  0  0  0  0  0  0  0
  -15.1269   10.7387   31.9507 C   0  0  0  0  0  0  0  0  0  0  0  0
  -16.2351   12.8786   32.6904 N   0  0  0  0  0  0  0  0  0  0  0  0
  -17.4542   12.7677   31.8826 C   0  0  0  0  0  0  0  0  0  0  0  0
  -14.1659   14.4873   35.1231 H   0  0  0  0  0  0  0  0  0  0  0  0
  -13.8953   13.5428   32.8040 H   0  0  0  0  0  0  0  0  0  0  0  0
  -20.2054   14.9355   34.9855 C   0  0  0  0  0  0  0  0  0  0  0  0
  -19.2884   15.8566   34.4645 C   0  0  0  0  0  0  0  0  0  0  0  0
  -18.0060   15.4610   34.1141 C   0  0  0  0  0  0  0  0  0  0  0  0
  -19.8219   13.5995   35.1774 C   0  0  0  0  0  0  0  0  0  0  0  0
  -18.5285   13.2131   34.8272 C   0  0  0  0  0  0  0  0  0  0  0  0
  -17.6003   14.1333   34.2987 C   0  0  0  0  0  0  0  0  0  0  0  0
  -21.6452   16.8444   35.5884 C   0  0  0  0  0  0  0  0  0  0  0  0
  -21.4543   15.4063   35.2922 O   0  0  0  0  0  0  0  0  0  0  0  0
  5  4  1  0  0  0
  3  2  1  0  0  0
  4  2  1  0  0  0
  4  6  1  0  0  0
  2  1  1  0  0  0
  1  8  1  0  0  0
  1 17  1  0  0  0
  8  6  1  0  0  0
  8  9  1  0  0  0
  7  6  1  0  0  0
 14 17  2  0  0  0
 14 13  1  0  0  0
 17 16  1  0  0  0
 13 12  2  0  0  0
 16 15  2  0  0  0
 12 15  1  0  0  0
 12 19  1  0  0  0
 19 18  1  0  0  0
  3 10  1  0  0  0
  5 11  1  0  0  0
M  END
> <minimizedAffinity>
-6.04208

$$$$
4JFS_16Z_A_501


 19 20  0  0  0  0  0  0  0  0999 V2000
  -16.6840   11.7237   34.1655 C   0  0  0  0  0  0  0  0  0  0  0  0
  -17.8031   11.1799   33.2786 C   0  0  0  0  0  0  0  0  0  0  0  0
  -18.8518   10.6621   34.1158 O   0  0  0  0  0  0  0  0  0  0  0  0
  -17.0107   10.1194   32.4527 C   0  0  0  0  0  0  0  0  0  0  0  0
  -16.7050    8.8940   33.2462 O   0  0  0  0  0  0  0  0  0  0  0  0
  -15.8004   10.9154   32.0861 C   0  0  0  0  0  0  0  0  0  0  0  0
  -14.7854   10.0537   31.3643 C   0  0  0  0  0  0  0  0  0  0  0  0
  -15.4388   11.3592   33.4192 N   0  0  0  0  0  0  0  0  0  0  0  0
  -14.3371   12.3272   33.4057 C   0  0  0  0  0  0  0  0  0  0  0  0
  -18.4799   10.0185   34.7391 H   0  0  0  0  0  0  0  0  0  0  0  0
  -16.2217    9.1415   34.0500 H   0  0  0  0  0  0  0  0  0  0  0  0
  -17.0371   15.8478   35.1139 C   0  0  0  0  0  0  0  0  0  0  0  0
  -17.5625   15.3266   33.9252 C   0  0  0  0  0  0  0  0  0  0  0  0
  -17.4399   13.9777   33.6262 C   0  0  0  0  0  0  0  0  0  0  0  0
  -16.3591   15.0047   36.0074 C   0  0  0  0  0  0  0  0  0  0  0  0
  -16.2364   13.6512   35.6947 C   0  0  0  0  0  0  0  0  0  0  0  0
  -16.7656   13.1177   34.5019 C   0  0  0  0  0  0  0  0  0  0  0  0
  -16.2198   18.1560   34.8233 C   0  0  0  0  0  0  0  0  0  0  0  0
  -17.2142   17.1871   35.3379 O   0  0  0  0  0  0  0  0  0  0  0  0
  5  4  1  0  0  0
  3  2  1  0  0  0
  4  2  1  0  0  0
  4  6  1  0  0  0
  2  1  1  0  0  0
  1  8  1  0  0  0
  1 17  1  0  0  0
  8  6  1  0  0  0
  8  9  1  0  0  0
  7  6  1  0  0  0
 14 17  2  0  0  0
 14 13  1  0  0  0
 17 16  1  0  0  0
 13 12  2  0  0  0
 16 15  2  0  0  0
 12 15  1  0  0  0
 12 19  1  0  0  0
 19 18  1  0  0  0
  3 10  1  0  0  0
  5 11  1  0  0  0
M  END
> <minimizedAffinity>
-5.81781

$$$$
4JFS_16Z_A_501


 19 20  0  0  0  0  0  0  0  0999 V2000
  -15.8050   12.3124   34.7921 C   0  0  0  0  0  0  0  0  0  0  0  0
  -14.4544   12.6767   35.4069 C   0  0  0  0  0  0  0  0  0  0  0  0
  -14.1998   11.8056   36.5228 O   0  0  0  0  0  0  0  0  0  0  0  0
  -14.7073   14.1749   35.7619 C   0  0  0  0  0  0  0  0  0  0  0  0
  -15.5779   14.3351   36.9623 O   0  0  0  0  0  0  0  0  0  0  0  0
  -15.3398   14.6474   34.4932 C   0  0  0  0  0  0  0  0  0  0  0  0
  -15.8065   16.0823   34.6242 C   0  0  0  0  0  0  0  0  0  0  0  0
  -16.3771   13.6376   34.3961 N   0  0  0  0  0  0  0  0  0  0  0  0
  -17.1170   13.7171   33.1323 C   0  0  0  0  0  0  0  0  0  0  0  0
  -14.9483   11.8420   37.1388 H   0  0  0  0  0  0  0  0  0  0  0  0
  -16.4143   13.8650   36.8201 H   0  0  0  0  0  0  0  0  0  0  0  0
  -15.8336    9.4959   31.6143 C   0  0  0  0  0  0  0  0  0  0  0  0
  -16.8510    9.5185   32.5761 C   0  0  0  0  0  0  0  0  0  0  0  0
  -16.8300   10.4428   33.6101 C   0  0  0  0  0  0  0  0  0  0  0  0
  -14.7665   10.4026   31.7039 C   0  0  0  0  0  0  0  0  0  0  0  0
  -14.7519   11.3242   32.7504 C   0  0  0  0  0  0  0  0  0  0  0  0
  -15.7740   11.3561   33.7208 C   0  0  0  0  0  0  0  0  0  0  0  0
  -16.4506    7.2074   30.9343 C   0  0  0  0  0  0  0  0  0  0  0  0
  -15.9383    8.5604   30.6196 O   0  0  0  0  0  0  0  0  0  0  0  0
  5  4  1  0  0  0
  3  2  1  0  0  0
  4  2  1  0  0  0
  4  6  1  0  0  0
  2  1  1  0  0  0
  1  8  1  0  0  0
  1 17  1  0  0  0
  8  6  1  0  0  0
  8  9  1  0  0  0
  7  6  1  0  0  0
 14 17  2  0  0  0
 14 13  1  0  0  0
 17 16  1  0  0  0
 13 12  2  0  0  0
 16 15  2  0  0  0
 12 15  1  0  0  0
 12 19  1  0  0  0
 19 18  1  0  0  0
  3 10  1  0  0  0
  5 11  1  0  0  0
M  END
> <minimizedAffinity>
-5.71305

$$$$
4JFS_16Z_A_501


 19 20  0  0  0  0  0  0  0  0999 V2000
  -15.9341   13.6500   33.4605 C   0  0  0  0  0  0  0  0  0  0  0  0
  -15.6268   12.2016   33.0828 C   0  0  0  0  0  0  0  0  0  0  0  0
  -14.6786   12.1929   32.0013 O   0  0  0  0  0  0  0  0  0  0  0  0
  -17.0608   11.6979   32.7296 C   0  0  0  0  0  0  0  0  0  0  0  0
  -17.5315   12.2046   31.4082 O   0  0  0  0  0  0  0  0  0  0  0  0
  -17.8289   12.2417   33.8902 C   0  0  0  0  0  0  0  0  0  0  0  0
  -19.3128   11.9896   33.7217 C   0  0  0  0  0  0  0  0  0  0  0  0
  -17.3934   13.6222   33.7919 N   0  0  0  0  0  0  0  0  0  0  0  0
  -17.8580   14.4358   34.9203 C   0  0  0  0  0  0  0  0  0  0  0  0
  -15.0137   12.7391   31.2731 H   0  0  0  0  0  0  0  0  0  0  0  0
  -17.4912   13.1738   31.4005 H   0  0  0  0  0  0  0  0  0  0  0  0
  -13.4584   15.2305   36.5273 C   0  0  0  0  0  0  0  0  0  0  0  0
  -13.8127   13.8761   36.5034 C   0  0  0  0  0  0  0  0  0  0  0  0
  -14.6229   13.3718   35.4968 C   0  0  0  0  0  0  0  0  0  0  0  0
  -13.9426   16.0974   35.5359 C   0  0  0  0  0  0  0  0  0  0  0  0
  -14.7610   15.5816   34.5314 C   0  0  0  0  0  0  0  0  0  0  0  0
  -15.1196   14.2186   34.4980 C   0  0  0  0  0  0  0  0  0  0  0  0
  -11.3677   16.3269   37.2394 C   0  0  0  0  0  0  0  0  0  0  0  0
  -12.6440   15.6428   37.5481 O   0  0  0  0  0  0  0  0  0  0  0  0
  5  4  1  0  0  0
  3  2  1  0  0  0
  4  2  1  0  0  0
  4  6  1  0  0  0
  2  1  1  0  0  0
  1  8  1  0  0  0
  1 17  1  0  0  0
  8  6  1  0  0  0
  8  9  1  0  0  0
  7  6  1  0  0  0
 14 17  2  0  0  0
 14 13  1  0  0  0
 17 16  1  0  0  0
 13 12  2  0  0  0
 16 15  2  0  0  0
 12 15  1  0  0  0
 12 19  1  0  0  0
 19 18  1  0  0  0
  3 10  1  0  0  0
  5 11  1  0  0  0
M  END
> <minimizedAffinity>
-5.68921

$$$$
4JFS_16Z_A_501


 19 20  0  0  0  0  0  0  0  0999 V2000
  -15.8506   12.5492   35.3862 C   0  0  0  0  0  0  0  0  0  0  0  0
  -15.3294   12.0903   34.0252 C   0  0  0  0  0  0  0  0  0  0  0  0
  -15.2738   10.6531   34.0076 O   0  0  0  0  0  0  0  0  0  0  0  0
  -13.9512   12.8212   33.9961 C   0  0  0  0  0  0  0  0  0  0  0  0
  -12.9433   12.1686   34.8809 O   0  0  0  0  0  0  0  0  0  0  0  0
  -14.3609   14.1832   34.4541 C   0  0  0  0  0  0  0  0  0  0  0  0
  -13.1527   15.0785   34.6349 C   0  0  0  0  0  0  0  0  0  0  0  0
  -15.0585   13.7885   35.6635 N   0  0  0  0  0  0  0  0  0  0  0  0
  -15.7455   14.9147   36.3045 C   0  0  0  0  0  0  0  0  0  0  0  0
  -14.7563   10.3402   34.7660 H   0  0  0  0  0  0  0  0  0  0  0  0
  -13.2914   12.1177   35.7849 H   0  0  0  0  0  0  0  0  0  0  0  0
  -20.0614   13.0652   35.5742 C   0  0  0  0  0  0  0  0  0  0  0  0
  -19.3530   13.2879   34.3871 C   0  0  0  0  0  0  0  0  0  0  0  0
  -17.9774   13.1170   34.3385 C   0  0  0  0  0  0  0  0  0  0  0  0
  -19.3748   12.6848   36.7372 C   0  0  0  0  0  0  0  0  0  0  0  0
  -17.9911   12.5211   36.6792 C   0  0  0  0  0  0  0  0  0  0  0  0
  -17.2707   12.7397   35.4873 C   0  0  0  0  0  0  0  0  0  0  0  0
  -22.2675   12.2559   34.8269 C   0  0  0  0  0  0  0  0  0  0  0  0
  -21.4186   13.2433   35.5316 O   0  0  0  0  0  0  0  0  0  0  0  0
  5  4  1  0  0  0
  3  2  1  0  0  0
  4  2  1  0  0  0
  4  6  1  0  0  0
  2  1  1  0  0  0
  1  8  1  0  0  0
  1 17  1  0  0  0
  8  6  1  0  0  0
  8  9  1  0  0  0
  7  6  1  0  0  0
 14 17  2  0  0  0
 14 13  1  0  0  0
 17 16  1  0  0  0
 13 12  2  0  0  0
 16 15  2  0  0  0
 12 15  1  0  0  0
 12 19  1  0  0  0
 19 18  1  0  0  0
  3 10  1  0  0  0
  5 11  1  0  0  0
M  END
> <minimizedAffinity>
-5.56356

$$$$
4JFS_16Z_A_501


 19 20  0  0  0  0  0  0  0  0999 V2000
  -16.2111   12.3944   32.9572 C   0  0  0  0  0  0  0  0  0  0  0  0
  -14.8139   11.8572   33.2641 C   0  0  0  0  0  0  0  0  0  0  0  0
  -13.8382   12.8220   32.8330 O   0  0  0  0  0  0  0  0  0  0  0  0
  -14.8477   10.5220   32.4574 C   0  0  0  0  0  0  0  0  0  0  0  0
  -14.7119   10.7423   30.9885 O   0  0  0  0  0  0  0  0  0  0  0  0
  -16.1857    9.9967   32.8653 C   0  0  0  0  0  0  0  0  0  0  0  0
  -16.5243    8.7318   32.1042 C   0  0  0  0  0  0  0  0  0  0  0  0
  -16.9715   11.1733   32.5438 N   0  0  0  0  0  0  0  0  0  0  0  0
  -18.3657   11.0503   32.9821 C   0  0  0  0  0  0  0  0  0  0  0  0
  -13.9916   13.0427   31.9009 H   0  0  0  0  0  0  0  0  0  0  0  0
  -15.4061   11.3489   30.6870 H   0  0  0  0  0  0  0  0  0  0  0  0
  -18.1852   14.6129   35.9925 C   0  0  0  0  0  0  0  0  0  0  0  0
  -18.2769   14.9818   34.6448 C   0  0  0  0  0  0  0  0  0  0  0  0
  -17.6266   14.2496   33.6625 C   0  0  0  0  0  0  0  0  0  0  0  0
  -17.4109   13.5028   36.3623 C   0  0  0  0  0  0  0  0  0  0  0  0
  -16.7565   12.7767   35.3677 C   0  0  0  0  0  0  0  0  0  0  0  0
  -16.8464   13.1391   34.0083 C   0  0  0  0  0  0  0  0  0  0  0  0
  -19.8482   16.3836   36.4161 C   0  0  0  0  0  0  0  0  0  0  0  0
  -18.8692   15.3818   36.8960 O   0  0  0  0  0  0  0  0  0  0  0  0
  5  4  1  0  0  0
  3  2  1  0  0  0
  4  2  1  0  0  0
  4  6  1  0  0  0
  2  1  1  0  0  0
  1  8  1  0  0  0
  1 17  1  0  0  0
  8  6  1  0  0  0
  8  9  1  0  0  0
  7  6  1  0  0  0
 14 17  2  0  0  0
 14 13  1  0  0  0
 17 16  1  0  0  0
 13 12  2  0  0  0
 16 15  2  0  0  0
 12 15  1  0  0  0
 12 19  1  0  0  0
 19 18  1  0  0  0
  3 10  1  0  0  0
  5 11  1  0  0  0
M  END
> <minimizedAffinity>
-5.56140

$$$$
4JFS_16Z_A_501


 19 20  0  0  0  0  0  0  0  0999 V2000
  -14.7096   13.6020   34.0443 C   0  0  0  0  0  0  0  0  0  0  0  0
  -14.2310   12.2807   34.6442 C   0  0  0  0  0  0  0  0  0  0  0  0
  -12.8036   12.1894   34.4921 O   0  0  0  0  0  0  0  0  0  0  0  0
  -15.0677   11.2729   33.7962 C   0  0  0  0  0  0  0  0  0  0  0  0
  -14.5397   11.1218   32.4095 O   0  0  0  0  0  0  0  0  0  0  0  0
  -16.4124   11.9214   33.8601 C   0  0  0  0  0  0  0  0  0  0  0  0
  -17.4089   11.1854   32.9887 C   0  0  0  0  0  0  0  0  0  0  0  0
  -16.0198   13.2453   33.4149 N   0  0  0  0  0  0  0  0  0  0  0  0
  -17.1160   14.2148   33.5122 C   0  0  0  0  0  0  0  0  0  0  0  0
  -12.5688   12.3197   33.5600 H   0  0  0  0  0  0  0  0  0  0  0  0
  -14.5032   11.9912   31.9809 H   0  0  0  0  0  0  0  0  0  0  0  0
  -14.9056   16.8191   36.8092 C   0  0  0  0  0  0  0  0  0  0  0  0
  -15.2330   15.5118   37.1891 C   0  0  0  0  0  0  0  0  0  0  0  0
  -15.1660   14.4694   36.2765 C   0  0  0  0  0  0  0  0  0  0  0  0
  -14.5247   17.0879   35.4858 C   0  0  0  0  0  0  0  0  0  0  0  0
  -14.4659   16.0338   34.5746 C   0  0  0  0  0  0  0  0  0  0  0  0
  -14.7904   14.7142   34.9497 C   0  0  0  0  0  0  0  0  0  0  0  0
  -14.4859   19.1511   37.4919 C   0  0  0  0  0  0  0  0  0  0  0  0
  -14.9850   17.7863   37.7754 O   0  0  0  0  0  0  0  0  0  0  0  0
  5  4  1  0  0  0
  3  2  1  0  0  0
  4  2  1  0  0  0
  4  6  1  0  0  0
  2  1  1  0  0  0
  1  8  1  0  0  0
  1 17  1  0  0  0
  8  6  1  0  0  0
  8  9  1  0  0  0
  7  6  1  0  0  0
 14 17  2  0  0  0
 14 13  1  0  0  0
 17 16  1  0  0  0
 13 12  2  0  0  0
 16 15  2  0  0  0
 12 15  1  0  0  0
 12 19  1  0  0  0
 19 18  1  0  0  0
  3 10  1  0  0  0
  5 11  1  0  0  0
M  END
> <minimizedAffinity>
-5.54313

$$$$
