4JFS_16Z_A_501
  RCSB PDB12061713093D
Coordinates from PDB:4JFS:A:501 Model:1 without hydrogens
 17 18  0  0  0  0            999 V2000
  -17.7470   15.0060   37.0180   C 0  0  0  0  0  0  0  0  0  0  0  0
  -17.9860   15.1510   35.5640   O 0  0  0  0  0  0  0  0  0  0  0  0
  -17.5100   14.2020   34.6990   C 0  0  0  0  0  0  0  0  0  0  0  0
  -17.9980   14.2350   33.3870   C 0  0  0  0  0  0  0  0  0  0  0  0
  -17.5790   13.3020   32.4500   C 0  0  0  0  0  0  0  0  0  0  0  0
  -16.5700   13.2290   35.0710   C 0  0  0  0  0  0  0  0  0  0  0  0
  -16.1510   12.2990   34.1200   C 0  0  0  0  0  0  0  0  0  0  0  0
  -16.6400   12.3230   32.7980   C 0  0  0  0  0  0  0  0  0  0  0  0
  -16.2530   11.3610   31.8040   C 0  0  0  0  0  0  0  0  0  0  0  0
  -14.7770   10.9660   31.7900   C 0  0  0  0  0  0  0  0  0  0  0  0
  -14.0730   11.8250   30.8760   O 0  0  0  0  0  0  0  0  0  0  0  0
  -14.8950    9.4710   31.3590   C 0  0  0  0  0  0  0  0  0  0  0  0
  -15.2060    9.3210   29.9080   O 0  0  0  0  0  0  0  0  0  0  0  0
  -15.9980    9.0190   32.2600   C 0  0  0  0  0  0  0  0  0  0  0  0
  -16.4010    7.5930   31.9470   C 0  0  0  0  0  0  0  0  0  0  0  0
  -16.9640   10.0500   31.9300   N 0  0  0  0  0  0  0  0  0  0  0  0
  -18.1550    9.9930   32.7840   C 0  0  0  0  0  0  0  0  0  0  0  0
 13 12  1  0  0  0  0
 11 10  1  0  0  0  0
 12 10  1  0  0  0  0
 12 14  1  0  0  0  0
 10  9  1  0  0  0  0
  9 16  1  0  0  0  0
  9  8  1  0  0  0  0
 16 14  1  0  0  0  0
 16 17  1  0  0  0  0
 15 14  1  0  0  0  0
  5  8  2  0  0  0  0
  5  4  1  0  0  0  0
  8  7  1  0  0  0  0
  4  3  2  0  0  0  0
  7  6  2  0  0  0  0
  3  6  1  0  0  0  0
  3  2  1  0  0  0  0
  2  1  1  0  0  0  0
A    1
CAQ
A    2
OAP
A    3
CAM
A    4
CAN
A    5
CAO
A    6
CAL
A    7
CAK
A    8
CAJ
A    9
CAE
A   10
CAG
A   11
OAD
A   12
CAA
A   13
OAC
A   14
CAF
A   15
CAB
A   16
NAH
A   17
CAI
M  END
>  <InstanceId>
4JFS_16Z_A_501

>  <ChemCompId>
16Z

>  <PdbId>
4JFS

>  <ChainId>
A

>  <ResidueNumber>
501

>  <InsertionCode>


>  <Model>
1

>  <AltIds>


>  <MissingHeavyAtoms>
0

>  <ObservedFormula>
C13 N O3

>  <Name>
(2S,3S,4R,5S)-2-(4-methoxyphenyl)-1,5-dimethylpyrrolidine-3,4-diol

>  <SystematicName>
(2S,3S,4R,5S)-2-(4-methoxyphenyl)-1,5-dimethyl-pyrrolidine-3,4-diol

>  <Synonyms>
4-epi-(+)-Codonopsinine

>  <Type>
NON-POLYMER

>  <Formula>
C13 H19 N O3

>  <MolecularWeight>
237.295

>  <ModifiedDate>
2013-09-13

>  <Parent>


>  <OneLetterCode>


>  <SubcomponentList>


>  <AmbiguousFlag>
N

>  <InChI>
InChI=1S/C13H19NO3/c1-8-12(15)13(16)11(14(8)2)9-4-6-10(17-3)7-5-9/h4-8,11-13,15-16H,1-3H3/t8-,11-,12+,13-/m0/s1

>  <InChIKey>
GJZNAEFHIYPPEM-KNDHEWATSA-N

>  <SMILES>
C[C@H]1[C@H]([C@H]([C@@H](N1C)c2ccc(cc2)OC)O)O

$$$$
