5NW2_9B8_C_301
  RCSB PDB12061719143D
Coordinates from PDB:5NW2:C:301 Model:1 without hydrogens
 36 39  0  0  0  0            999 V2000
   10.6230   57.0060   97.9340   C 0  0  0  0  0  0  0  0  0  0  0  0
   10.3430   58.3720   97.5480   O 0  0  0  0  0  0  0  0  0  0  0  0
    9.9810   57.9640   96.2120   C 0  0  0  0  0  0  0  0  0  0  0  0
   10.3360   56.5460   96.4970   C 0  0  0  0  0  0  0  0  0  0  0  0
   11.6230   56.1470   95.7720   C 0  0  0  0  0  0  0  0  0  0  0  0
   12.6420   56.8250   95.9050   O 0  0  0  0  0  0  0  0  0  0  0  0
   11.6220   55.0110   95.0790   N 0  0  0  0  0  0  0  0  0  0  0  0
   12.5640   54.2390   94.2560   C 0  0  0  0  0  0  0  0  0  0  0  0
   12.6410   52.7630   94.7300   C 0  0  0  0  0  0  0  0  0  0  0  0
   13.6080   51.9770   93.8270   C 0  0  0  0  0  0  0  0  0  0  0  0
   11.2730   52.0700   94.7170   C 0  0  0  0  0  0  0  0  0  0  0  0
   13.2050   52.7810   96.1580   C 0  0  0  0  0  0  0  0  0  0  0  0
   12.1680   54.4630   92.7700   C 0  0  0  0  0  0  0  0  0  0  0  0
   11.0100   54.3110   92.4230   O 0  0  0  0  0  0  0  0  0  0  0  0
   13.1290   54.8710   91.9030   N 0  0  0  0  0  0  0  0  0  0  0  0
   14.5740   55.1910   92.1520   C 0  0  0  0  0  0  0  0  0  0  0  0
   14.9850   56.0650   90.9720   C 0  0  0  0  0  0  0  0  0  0  0  0
   14.6380   57.4520   91.1930   O 0  0  0  0  0  0  0  0  0  0  0  0
   14.1730   55.5010   89.8230   C 0  0  0  0  0  0  0  0  0  0  0  0
   12.8200   55.0680   90.4360   C 0  0  0  0  0  0  0  0  0  0  0  0
   12.3870   53.8750   89.7860   C 0  0  0  0  0  0  0  0  0  0  0  0
   12.8180   52.7830   90.1250   O 0  0  0  0  0  0  0  0  0  0  0  0
   11.5360   54.0140   88.7550   N 0  0  0  0  0  0  0  0  0  0  0  0
   11.0600   52.8870   87.9190   C 0  0  0  0  0  0  0  0  0  0  0  0
   11.9050   52.6690   86.7570   C 0  0  0  0  0  0  0  0  0  0  0  0
   11.8260   51.4780   86.0470   C 0  0  0  0  0  0  0  0  0  0  0  0
   12.6210   51.2260   84.9140   C 0  0  0  0  0  0  0  0  0  0  0  0
   12.8280   53.6090   86.2850   C 0  0  0  0  0  0  0  0  0  0  0  0
   13.6270   53.3650   85.1450   C 0  0  0  0  0  0  0  0  0  0  0  0
   13.5440   52.1710   84.4320   C 0  0  0  0  0  0  0  0  0  0  0  0
   14.3180   51.9470   83.3340   C 0  0  0  0  0  0  0  0  0  0  0  0
   15.9540   52.3920   83.1170   S 0  0  0  0  0  0  0  0  0  0  0  0
   16.1140   51.7690   81.5980   C 0  0  0  0  0  0  0  0  0  0  0  0
   14.9380   51.2460   81.2470   N 0  0  0  0  0  0  0  0  0  0  0  0
   13.9600   51.3490   82.1740   C 0  0  0  0  0  0  0  0  0  0  0  0
   12.5710   50.7600   81.8640   C 0  0  0  0  0  0  0  0  0  0  0  0
 34 33  2  0  0  0  0
 34 35  1  0  0  0  0
 33 32  1  0  0  0  0
 36 35  1  0  0  0  0
 35 31  2  0  0  0  0
 32 31  1  0  0  0  0
 31 30  1  0  0  0  0
 30 27  2  0  0  0  0
 30 29  1  0  0  0  0
 27 26  1  0  0  0  0
 29 28  2  0  0  0  0
 26 25  2  0  0  0  0
 28 25  1  0  0  0  0
 25 24  1  0  0  0  0
 24 23  1  0  0  0  0
 23 21  1  0  0  0  0
 21 22  2  0  0  0  0
 21 20  1  0  0  0  0
 19 20  1  0  0  0  0
 19 17  1  0  0  0  0
 20 15  1  0  0  0  0
 17 18  1  0  0  0  0
 17 16  1  0  0  0  0
 15 16  1  0  0  0  0
 15 13  1  0  0  0  0
 14 13  2  0  0  0  0
 13  8  1  0  0  0  0
 10  9  1  0  0  0  0
  8  9  1  0  0  0  0
  8  7  1  0  0  0  0
 11  9  1  0  0  0  0
  9 12  1  0  0  0  0
  7  5  1  0  0  0  0
  5  6  2  0  0  0  0
  5  4  1  0  0  0  0
  3  4  1  0  0  0  0
  3  2  1  0  0  0  0
  4  1  1  0  0  0  0
  2  1  1  0  0  0  0
A    1
CAO
A    2
OAV
A    3
CAP
A    4
CBF
A    5
CAY
A    6
OAF
A    7
NAU
A    8
CBH
A    9
CBJ
A   10
CAD
A   11
CAB
A   12
CAC
A   13
CAZ
A   14
OAG
A   15
N
A   16
CD2
A   17
CG
A   18
OD1
A   19
CB
A   20
CA
A   21
C
A   22
O
A   23
NAT
A   24
CAN
A   25
CBA
A   26
CAI
A   27
CAK
A   28
CAJ
A   29
CAL
A   30
CBC
A   31
CBD
A   32
SAW
A   33
CAM
A   34
NAS
A   35
CBB
A   36
CAA
M  END
>  <InstanceId>
5NW2_9B8_C_301

>  <ChemCompId>
9B8

>  <PdbId>
5NW2

>  <ChainId>
C

>  <ResidueNumber>
301

>  <InsertionCode>


>  <Model>
1

>  <AltIds>


>  <MissingHeavyAtoms>
0

>  <ObservedFormula>
C26 N4 O5 S

>  <Name>
(2~{S},4~{R})-1-[(2~{S})-3,3-dimethyl-2-(oxetan-3-ylcarbonylamino)butanoyl]-~{N}-[[4-(4-methyl-1,3-thiazol-5-yl)phenyl]methyl]-4-oxidanyl-pyrrolidine-2-carboxamide

>  <SystematicName>
(2~{S},4~{R})-1-[(2~{S})-3,3-dimethyl-2-(oxetan-3-ylcarbonylamino)butanoyl]-~{N}-[[4-(4-methyl-1,3-thiazol-5-yl)phenyl]methyl]-4-oxidanyl-pyrrolidine-2-carboxamide

>  <Synonyms>


>  <Type>
NON-POLYMER

>  <Formula>
C26 H34 N4 O5 S

>  <MolecularWeight>
514.637

>  <ModifiedDate>
2017-09-15

>  <Parent>


>  <OneLetterCode>


>  <SubcomponentList>


>  <AmbiguousFlag>
N

>  <InChI>
InChI=1S/C26H34N4O5S/c1-15-21(36-14-28-15)17-7-5-16(6-8-17)10-27-24(33)20-9-19(31)11-30(20)25(34)22(26(2,3)4)29-23(32)18-12-35-13-18/h5-8,14,18-20,22,31H,9-13H2,1-4H3,(H,27,33)(H,29,32)/t19-,20+,22-/m1/s1

>  <InChIKey>
NKBZEWGYKXYCGU-RZUBCFFCSA-N

>  <SMILES>
Cc1c(scn1)c2ccc(cc2)CNC(=O)[C@@H]3C[C@H](CN3C(=O)[C@H](C(C)(C)C)NC(=O)C4COC4)O

$$$$
