2JGS_BTN_A_1001
  RCSB PDB12061706033D
Coordinates from PDB:2JGS:A:1001 Model:1 without hydrogens
 16 17  0  0  0  0            999 V2000
   40.9760    9.8220   50.3020   C 0  0  0  0  0  0  0  0  0  0  0  0
   41.4350    8.9490   49.5410   O 0  0  0  0  0  0  0  0  0  0  0  0
   41.3020    9.7760   51.5150   O 0  0  0  0  0  0  0  0  0  0  0  0
   40.0800   10.9260   49.7680   C 0  0  0  0  0  0  0  0  0  0  0  0
   39.4860   11.7220   50.9350   C 0  0  0  0  0  0  0  0  0  0  0  0
   38.2060   11.0440   51.4210   C 0  0  0  0  0  0  0  0  0  0  0  0
   37.3790   12.0510   52.1780   C 0  0  0  0  0  0  0  0  0  0  0  0
   36.1640   11.3440   52.7510   C 0  0  0  0  0  0  0  0  0  0  0  0
   34.9530   11.1700   51.5790   S 0  0  0  0  0  0  0  0  0  0  0  0
   33.7920   10.8470   52.9300   C 0  0  0  0  0  0  0  0  0  0  0  0
   34.1860   11.6800   54.1370   C 0  0  0  0  0  0  0  0  0  0  0  0
   33.5500   12.9830   54.1100   N 0  0  0  0  0  0  0  0  0  0  0  0
   34.4400   13.9700   53.9950   C 0  0  0  0  0  0  0  0  0  0  0  0
   34.1050   15.3200   53.9810   O 0  0  0  0  0  0  0  0  0  0  0  0
   35.6780   13.5110   53.9260   N 0  0  0  0  0  0  0  0  0  0  0  0
   35.6590   12.0600   54.0010   C 0  0  0  0  0  0  0  0  0  0  0  0
  1  2  2  0  0  0  0
  1  3  1  0  0  0  0
  1  4  1  0  0  0  0
  4  5  1  0  0  0  0
  5  6  1  0  0  0  0
  6  7  1  0  0  0  0
  7  8  1  0  0  0  0
  8  9  1  0  0  0  0
  8 16  1  0  0  0  0
  9 10  1  0  0  0  0
 10 11  1  0  0  0  0
 11 12  1  0  0  0  0
 11 16  1  0  0  0  0
 12 13  1  0  0  0  0
 13 14  2  0  0  0  0
 13 15  1  0  0  0  0
 15 16  1  0  0  0  0
A    1
C11
A    2
O11
A    3
O12
A    4
C10
A    5
C9
A    6
C8
A    7
C7
A    8
C2
A    9
S1
A   10
C6
A   11
C5
A   12
N1
A   13
C3
A   14
O3
A   15
N2
A   16
C4
M  END
>  <InstanceId>
2JGS_BTN_A_1001

>  <ChemCompId>
BTN

>  <PdbId>
2JGS

>  <ChainId>
A

>  <ResidueNumber>
1001

>  <InsertionCode>


>  <Model>
1

>  <AltIds>


>  <MissingHeavyAtoms>
0

>  <ObservedFormula>
C10 N2 O3 S

>  <Name>
BIOTIN

>  <SystematicName>
5-[(3aS,4S,6aR)-2-oxidanylidene-1,3,3a,4,6,6a-hexahydrothieno[3,4-d]imidazol-4-yl]pentanoic acid

>  <Synonyms>


>  <Type>
NON-POLYMER

>  <Formula>
C10 H16 N2 O3 S

>  <MolecularWeight>
244.311

>  <ModifiedDate>
2014-04-29

>  <Parent>


>  <OneLetterCode>


>  <SubcomponentList>


>  <AmbiguousFlag>
N

>  <InChI>
InChI=1S/C10H16N2O3S/c13-8(14)4-2-1-3-7-9-6(5-16-7)11-10(15)12-9/h6-7,9H,1-5H2,(H,13,14)(H2,11,12,15)/t6-,7-,9-/m0/s1

>  <InChIKey>
YBJHBAHKTGYVGT-ZKWXMUAHSA-N

>  <SMILES>
C1[C@H]2[C@@H]([C@@H](S1)CCCCC(=O)O)NC(=O)N2

$$$$
