2JGS_BTN_A_1001


 19 20  0  0  0  0  0  0  0  0999 V2000
   36.2896   11.1498   52.5949 C   0  0  0  0  0  0  0  0  0  0  0  0
   35.1850   11.1504   51.3103 S   0  0  0  0  0  0  0  0  0  0  0  0
   33.8916   10.7643   52.5167 C   0  0  0  0  0  0  0  0  0  0  0  0
   34.2094   11.4587   53.8292 C   0  0  0  0  0  0  0  0  0  0  0  0
   33.6368   12.7903   53.8745 N   0  0  0  0  0  0  0  0  0  0  0  0
   34.5764   13.7353   53.9348 C   0  0  0  0  0  0  0  0  0  0  0  0
   34.3041   15.0965   54.0239 O   0  0  0  0  0  0  0  0  0  0  0  0
   35.7940   13.2200   53.9295 N   0  0  0  0  0  0  0  0  0  0  0  0
   35.7040   11.7714   53.8602 C   0  0  0  0  0  0  0  0  0  0  0  0
   32.6698   12.9749   53.8622 H   0  0  0  0  0  0  0  0  0  0  0  0
   36.6309   13.7371   53.9668 H   0  0  0  0  0  0  0  0  0  0  0  0
   37.5822   11.8421   52.2022 C   0  0  0  0  0  0  0  0  0  0  0  0
   38.3015   10.9789   51.1979 C   0  0  0  0  0  0  0  0  0  0  0  0
   39.5399   11.7246   50.7034 C   0  0  0  0  0  0  0  0  0  0  0  0
   40.2807   10.8668   49.6720 C   0  0  0  0  0  0  0  0  0  0  0  0
   41.2932    9.9786   50.3740 C   0  0  0  0  0  0  0  0  0  0  0  0
   41.8262   10.3388   51.4408 O   0  0  0  0  0  0  0  0  0  0  0  0
   41.5974    8.8483   49.9162 O   0  0  0  0  0  0  0  0  0  0  0  0
   41.2137    8.5482   49.1158 H   0  0  0  0  0  0  0  0  0  0  0  0
 16 17  2  0  0  0
 16 18  1  0  0  0
 16 15  1  0  0  0
 15 14  1  0  0  0
 14 13  1  0  0  0
 13 12  1  0  0  0
 12  1  1  0  0  0
  1  2  1  0  0  0
  1  9  1  0  0  0
  2  3  1  0  0  0
  3  4  1  0  0  0
  4  5  1  0  0  0
  4  9  1  0  0  0
  5  6  1  0  0  0
  6  7  2  0  0  0
  6  8  1  0  0  0
  8  9  1  0  0  0
 18 19  1  0  0  0
  5 10  1  0  0  0
  8 11  1  0  0  0
M  END
> <minimizedAffinity>
-7.62441

$$$$
2JGS_BTN_A_1001


 19 20  0  0  0  0  0  0  0  0999 V2000
   39.4710   11.3880   51.6300 C   0  0  0  0  0  0  0  0  0  0  0  0
   38.4797   10.6064   50.5001 S   0  0  0  0  0  0  0  0  0  0  0  0
   39.9792   10.2087   49.5669 C   0  0  0  0  0  0  0  0  0  0  0  0
   41.1210    9.9632   50.5374 C   0  0  0  0  0  0  0  0  0  0  0  0
   41.1863    8.5701   50.9349 N   0  0  0  0  0  0  0  0  0  0  0  0
   40.9501    8.4118   52.2382 C   0  0  0  0  0  0  0  0  0  0  0  0
   40.9862    7.1837   52.8904 O   0  0  0  0  0  0  0  0  0  0  0  0
   40.7074    9.5647   52.8381 N   0  0  0  0  0  0  0  0  0  0  0  0
   40.7810   10.6400   51.8636 C   0  0  0  0  0  0  0  0  0  0  0  0
   41.3816    7.8293   50.3165 H   0  0  0  0  0  0  0  0  0  0  0  0
   40.5080    9.6771   53.7956 H   0  0  0  0  0  0  0  0  0  0  0  0
   38.7352   11.6094   52.9391 C   0  0  0  0  0  0  0  0  0  0  0  0
   37.2739   11.8203   52.6372 C   0  0  0  0  0  0  0  0  0  0  0  0
   36.5359   12.1048   53.9443 C   0  0  0  0  0  0  0  0  0  0  0  0
   35.0360   12.2533   53.6679 C   0  0  0  0  0  0  0  0  0  0  0  0
   34.7648   13.5951   53.0101 C   0  0  0  0  0  0  0  0  0  0  0  0
   34.4258   13.6618   51.8132 O   0  0  0  0  0  0  0  0  0  0  0  0
   34.8453   14.6681   53.6597 O   0  0  0  0  0  0  0  0  0  0  0  0
   35.0976   14.6518   54.5619 H   0  0  0  0  0  0  0  0  0  0  0  0
 16 17  2  0  0  0
 16 18  1  0  0  0
 16 15  1  0  0  0
 15 14  1  0  0  0
 14 13  1  0  0  0
 13 12  1  0  0  0
 12  1  1  0  0  0
  1  2  1  0  0  0
  1  9  1  0  0  0
  2  3  1  0  0  0
  3  4  1  0  0  0
  4  5  1  0  0  0
  4  9  1  0  0  0
  5  6  1  0  0  0
  6  7  2  0  0  0
  6  8  1  0  0  0
  8  9  1  0  0  0
 18 19  1  0  0  0
  5 10  1  0  0  0
  8 11  1  0  0  0
M  END
> <minimizedAffinity>
-6.58347

$$$$
2JGS_BTN_A_1001


 19 20  0  0  0  0  0  0  0  0999 V2000
   40.9787    9.3270   51.3152 C   0  0  0  0  0  0  0  0  0  0  0  0
   42.5504    9.8234   50.9231 S   0  0  0  0  0  0  0  0  0  0  0  0
   43.1539    8.6385   52.1517 C   0  0  0  0  0  0  0  0  0  0  0  0
   42.2446    7.4224   52.1615 C   0  0  0  0  0  0  0  0  0  0  0  0
   42.6883    6.4233   51.2087 N   0  0  0  0  0  0  0  0  0  0  0  0
   41.7966    6.2319   50.2351 C   0  0  0  0  0  0  0  0  0  0  0  0
   41.9529    5.3045   49.2102 O   0  0  0  0  0  0  0  0  0  0  0  0
   40.7360    7.0079   50.3795 N   0  0  0  0  0  0  0  0  0  0  0  0
   40.8947    7.8245   51.5709 C   0  0  0  0  0  0  0  0  0  0  0  0
   43.5455    5.9434   51.2727 H   0  0  0  0  0  0  0  0  0  0  0  0
   39.9598    7.0292   49.7742 H   0  0  0  0  0  0  0  0  0  0  0  0
   39.9910    9.7477   50.2419 C   0  0  0  0  0  0  0  0  0  0  0  0
   40.0153   11.2505   50.1315 C   0  0  0  0  0  0  0  0  0  0  0  0
   39.2497   11.8445   51.3128 C   0  0  0  0  0  0  0  0  0  0  0  0
   37.8639   11.1973   51.4070 C   0  0  0  0  0  0  0  0  0  0  0  0
   37.0273   11.9226   52.4466 C   0  0  0  0  0  0  0  0  0  0  0  0
   35.8175   12.1452   52.2496 O   0  0  0  0  0  0  0  0  0  0  0  0
   37.5227   12.2901   53.5418 O   0  0  0  0  0  0  0  0  0  0  0  0
   38.4297   12.1373   53.7205 H   0  0  0  0  0  0  0  0  0  0  0  0
 16 17  2  0  0  0
 16 18  1  0  0  0
 16 15  1  0  0  0
 15 14  1  0  0  0
 14 13  1  0  0  0
 13 12  1  0  0  0
 12  1  1  0  0  0
  1  2  1  0  0  0
  1  9  1  0  0  0
  2  3  1  0  0  0
  3  4  1  0  0  0
  4  5  1  0  0  0
  4  9  1  0  0  0
  5  6  1  0  0  0
  6  7  2  0  0  0
  6  8  1  0  0  0
  8  9  1  0  0  0
 18 19  1  0  0  0
  5 10  1  0  0  0
  8 11  1  0  0  0
M  END
> <minimizedAffinity>
-6.57017

$$$$
2JGS_BTN_A_1001


 19 20  0  0  0  0  0  0  0  0999 V2000
   39.8685   10.6416   51.6403 C   0  0  0  0  0  0  0  0  0  0  0  0
   40.2348   10.7752   49.9916 S   0  0  0  0  0  0  0  0  0  0  0  0
   41.9669   10.4770   50.4258 C   0  0  0  0  0  0  0  0  0  0  0  0
   42.0292    9.5122   51.5967 C   0  0  0  0  0  0  0  0  0  0  0  0
   42.0676    8.1347   51.1448 N   0  0  0  0  0  0  0  0  0  0  0  0
   40.9849    7.4547   51.5253 C   0  0  0  0  0  0  0  0  0  0  0  0
   40.7816    6.1050   51.2572 O   0  0  0  0  0  0  0  0  0  0  0  0
   40.1449    8.2106   52.2117 N   0  0  0  0  0  0  0  0  0  0  0  0
   40.6887    9.5530   52.3275 C   0  0  0  0  0  0  0  0  0  0  0  0
   42.8050    7.7476   50.6198 H   0  0  0  0  0  0  0  0  0  0  0  0
   39.2851    7.9106   52.5859 H   0  0  0  0  0  0  0  0  0  0  0  0
   38.3828   10.4119   51.8513 C   0  0  0  0  0  0  0  0  0  0  0  0
   37.6782   11.7423   51.7822 C   0  0  0  0  0  0  0  0  0  0  0  0
   36.6633   11.8229   52.9214 C   0  0  0  0  0  0  0  0  0  0  0  0
   35.2948   12.2302   52.3648 C   0  0  0  0  0  0  0  0  0  0  0  0
   34.2736   11.1477   52.6680 C   0  0  0  0  0  0  0  0  0  0  0  0
   34.5670    9.9428   52.5491 O   0  0  0  0  0  0  0  0  0  0  0  0
   33.1194   11.4352   53.0742 O   0  0  0  0  0  0  0  0  0  0  0  0
   32.8679   12.3322   53.1743 H   0  0  0  0  0  0  0  0  0  0  0  0
 16 17  2  0  0  0
 16 18  1  0  0  0
 16 15  1  0  0  0
 15 14  1  0  0  0
 14 13  1  0  0  0
 13 12  1  0  0  0
 12  1  1  0  0  0
  1  2  1  0  0  0
  1  9  1  0  0  0
  2  3  1  0  0  0
  3  4  1  0  0  0
  4  5  1  0  0  0
  4  9  1  0  0  0
  5  6  1  0  0  0
  6  7  2  0  0  0
  6  8  1  0  0  0
  8  9  1  0  0  0
 18 19  1  0  0  0
  5 10  1  0  0  0
  8 11  1  0  0  0
M  END
> <minimizedAffinity>
-6.05254

$$$$
2JGS_BTN_A_1001


 19 20  0  0  0  0  0  0  0  0999 V2000
   37.4552   10.6614   52.0398 C   0  0  0  0  0  0  0  0  0  0  0  0
   37.6900   12.3382   52.0978 S   0  0  0  0  0  0  0  0  0  0  0  0
   39.2966   12.0144   52.8668 C   0  0  0  0  0  0  0  0  0  0  0  0
   39.8800   10.7382   52.2863 C   0  0  0  0  0  0  0  0  0  0  0  0
   40.6754   11.0105   51.1047 N   0  0  0  0  0  0  0  0  0  0  0  0
   40.1491   10.4572   50.0109 C   0  0  0  0  0  0  0  0  0  0  0  0
   40.7275   10.5315   48.7480 O   0  0  0  0  0  0  0  0  0  0  0  0
   39.0296    9.8066   50.2783 N   0  0  0  0  0  0  0  0  0  0  0  0
   38.7393    9.9101   51.6983 C   0  0  0  0  0  0  0  0  0  0  0  0
   41.5050   11.5407   51.1093 H   0  0  0  0  0  0  0  0  0  0  0  0
   38.4787    9.3269   49.6183 H   0  0  0  0  0  0  0  0  0  0  0  0
   36.3445   10.3001   51.0701 C   0  0  0  0  0  0  0  0  0  0  0  0
   35.1387   11.1468   51.3865 C   0  0  0  0  0  0  0  0  0  0  0  0
   34.3571   10.4878   52.5219 C   0  0  0  0  0  0  0  0  0  0  0  0
   33.5644   11.5524   53.2879 C   0  0  0  0  0  0  0  0  0  0  0  0
   34.1262   11.7009   54.6912 C   0  0  0  0  0  0  0  0  0  0  0  0
   35.2541   12.1958   54.8776 O   0  0  0  0  0  0  0  0  0  0  0  0
   33.4597   11.3580   55.7002 O   0  0  0  0  0  0  0  0  0  0  0  0
   32.6078   10.9827   55.5936 H   0  0  0  0  0  0  0  0  0  0  0  0
 16 17  2  0  0  0
 16 18  1  0  0  0
 16 15  1  0  0  0
 15 14  1  0  0  0
 14 13  1  0  0  0
 13 12  1  0  0  0
 12  1  1  0  0  0
  1  2  1  0  0  0
  1  9  1  0  0  0
  2  3  1  0  0  0
  3  4  1  0  0  0
  4  5  1  0  0  0
  4  9  1  0  0  0
  5  6  1  0  0  0
  6  7  2  0  0  0
  6  8  1  0  0  0
  8  9  1  0  0  0
 18 19  1  0  0  0
  5 10  1  0  0  0
  8 11  1  0  0  0
M  END
> <minimizedAffinity>
-6.04390

$$$$
2JGS_BTN_A_1001


 19 20  0  0  0  0  0  0  0  0999 V2000
   35.4225   11.6749   51.7532 C   0  0  0  0  0  0  0  0  0  0  0  0
   36.3777   12.9036   52.4226 S   0  0  0  0  0  0  0  0  0  0  0  0
   34.8681   13.8893   52.5865 C   0  0  0  0  0  0  0  0  0  0  0  0
   33.7017   12.9684   52.8987 C   0  0  0  0  0  0  0  0  0  0  0  0
   33.5466   12.7784   54.3280 N   0  0  0  0  0  0  0  0  0  0  0  0
   33.7569   11.5113   54.6883 C   0  0  0  0  0  0  0  0  0  0  0  0
   33.6379   11.0451   55.9934 O   0  0  0  0  0  0  0  0  0  0  0  0
   34.0624   10.7491   53.6521 N   0  0  0  0  0  0  0  0  0  0  0  0
   34.0665   11.5567   52.4441 C   0  0  0  0  0  0  0  0  0  0  0  0
   33.3138   13.4987   54.9574 H   0  0  0  0  0  0  0  0  0  0  0  0
   34.2568    9.7848   53.6926 H   0  0  0  0  0  0  0  0  0  0  0  0
   36.1546   10.3452   51.7706 C   0  0  0  0  0  0  0  0  0  0  0  0
   37.6054   10.6017   52.0874 C   0  0  0  0  0  0  0  0  0  0  0  0
   38.4382   10.3397   50.8336 C   0  0  0  0  0  0  0  0  0  0  0  0
   39.7827    9.7191   51.2279 C   0  0  0  0  0  0  0  0  0  0  0  0
   40.7562    9.8208   50.0665 C   0  0  0  0  0  0  0  0  0  0  0  0
   41.6639    8.9802   49.9197 O   0  0  0  0  0  0  0  0  0  0  0  0
   40.6552   10.7339   49.2088 O   0  0  0  0  0  0  0  0  0  0  0  0
   39.9829   11.3815   49.2909 H   0  0  0  0  0  0  0  0  0  0  0  0
 16 17  2  0  0  0
 16 18  1  0  0  0
 16 15  1  0  0  0
 15 14  1  0  0  0
 14 13  1  0  0  0
 13 12  1  0  0  0
 12  1  1  0  0  0
  1  2  1  0  0  0
  1  9  1  0  0  0
  2  3  1  0  0  0
  3  4  1  0  0  0
  4  5  1  0  0  0
  4  9  1  0  0  0
  5  6  1  0  0  0
  6  7  2  0  0  0
  6  8  1  0  0  0
  8  9  1  0  0  0
 18 19  1  0  0  0
  5 10  1  0  0  0
  8 11  1  0  0  0
M  END
> <minimizedAffinity>
-6.00295

$$$$
2JGS_BTN_A_1001


 19 20  0  0  0  0  0  0  0  0999 V2000
   41.8534    8.1831   51.8799 C   0  0  0  0  0  0  0  0  0  0  0  0
   43.0608    9.3669   51.9850 S   0  0  0  0  0  0  0  0  0  0  0  0
   44.2430    8.0313   52.2949 C   0  0  0  0  0  0  0  0  0  0  0  0
   43.8286    6.8038   51.5027 C   0  0  0  0  0  0  0  0  0  0  0  0
   44.4172    6.8068   50.1774 N   0  0  0  0  0  0  0  0  0  0  0  0
   43.4916    6.8942   49.2208 C   0  0  0  0  0  0  0  0  0  0  0  0
   43.7778    6.8812   47.8596 O   0  0  0  0  0  0  0  0  0  0  0  0
   42.2703    6.9646   49.7225 N   0  0  0  0  0  0  0  0  0  0  0  0
   42.3419    6.9213   51.1732 C   0  0  0  0  0  0  0  0  0  0  0  0
   45.3848    6.7511   50.0042 H   0  0  0  0  0  0  0  0  0  0  0  0
   41.4418    7.0354   49.1955 H   0  0  0  0  0  0  0  0  0  0  0  0
   40.6094    8.7322   51.2050 C   0  0  0  0  0  0  0  0  0  0  0  0
   40.3963   10.1485   51.6736 C   0  0  0  0  0  0  0  0  0  0  0  0
   39.6989   10.9354   50.5651 C   0  0  0  0  0  0  0  0  0  0  0  0
   39.0432   12.1881   51.1562 C   0  0  0  0  0  0  0  0  0  0  0  0
   37.7267   11.8165   51.8161 C   0  0  0  0  0  0  0  0  0  0  0  0
   37.2846   12.4781   52.7746 O   0  0  0  0  0  0  0  0  0  0  0  0
   37.0354   10.8543   51.3964 O   0  0  0  0  0  0  0  0  0  0  0  0
   37.3402   10.3371   50.6770 H   0  0  0  0  0  0  0  0  0  0  0  0
 16 17  2  0  0  0
 16 18  1  0  0  0
 16 15  1  0  0  0
 15 14  1  0  0  0
 14 13  1  0  0  0
 13 12  1  0  0  0
 12  1  1  0  0  0
  1  2  1  0  0  0
  1  9  1  0  0  0
  2  3  1  0  0  0
  3  4  1  0  0  0
  4  5  1  0  0  0
  4  9  1  0  0  0
  5  6  1  0  0  0
  6  7  2  0  0  0
  6  8  1  0  0  0
  8  9  1  0  0  0
 18 19  1  0  0  0
  5 10  1  0  0  0
  8 11  1  0  0  0
M  END
> <minimizedAffinity>
-5.89398

$$$$
2JGS_BTN_A_1001


 19 20  0  0  0  0  0  0  0  0999 V2000
   36.8651   12.4548   52.7662 C   0  0  0  0  0  0  0  0  0  0  0  0
   36.2149   12.1827   54.3068 S   0  0  0  0  0  0  0  0  0  0  0  0
   34.6356   12.7975   53.6703 C   0  0  0  0  0  0  0  0  0  0  0  0
   34.4906   12.3889   52.2149 C   0  0  0  0  0  0  0  0  0  0  0  0
   33.8569   11.0903   52.0914 N   0  0  0  0  0  0  0  0  0  0  0  0
   34.6758   10.1850   51.5536 C   0  0  0  0  0  0  0  0  0  0  0  0
   34.3119    8.8688   51.2890 O   0  0  0  0  0  0  0  0  0  0  0  0
   35.8625   10.6978   51.2761 N   0  0  0  0  0  0  0  0  0  0  0  0
   35.8816   12.1008   51.6538 C   0  0  0  0  0  0  0  0  0  0  0  0
   32.9325   10.8996   52.3713 H   0  0  0  0  0  0  0  0  0  0  0  0
   36.6156   10.2058   50.8762 H   0  0  0  0  0  0  0  0  0  0  0  0
   38.1739   11.7069   52.5874 C   0  0  0  0  0  0  0  0  0  0  0  0
   38.9898   12.4144   51.5363 C   0  0  0  0  0  0  0  0  0  0  0  0
   39.4614   11.3901   50.5054 C   0  0  0  0  0  0  0  0  0  0  0  0
   39.5079    9.9984   51.1453 C   0  0  0  0  0  0  0  0  0  0  0  0
   40.5776    9.1577   50.4703 C   0  0  0  0  0  0  0  0  0  0  0  0
   41.4786    9.6928   49.7967 O   0  0  0  0  0  0  0  0  0  0  0  0
   40.6008    7.9074   50.5967 O   0  0  0  0  0  0  0  0  0  0  0  0
   39.9372    7.4747   51.0971 H   0  0  0  0  0  0  0  0  0  0  0  0
 16 17  2  0  0  0
 16 18  1  0  0  0
 16 15  1  0  0  0
 15 14  1  0  0  0
 14 13  1  0  0  0
 13 12  1  0  0  0
 12  1  1  0  0  0
  1  2  1  0  0  0
  1  9  1  0  0  0
  2  3  1  0  0  0
  3  4  1  0  0  0
  4  5  1  0  0  0
  4  9  1  0  0  0
  5  6  1  0  0  0
  6  7  2  0  0  0
  6  8  1  0  0  0
  8  9  1  0  0  0
 18 19  1  0  0  0
  5 10  1  0  0  0
  8 11  1  0  0  0
M  END
> <minimizedAffinity>
-5.80092

$$$$
2JGS_BTN_A_1001


 19 20  0  0  0  0  0  0  0  0999 V2000
   41.2845    9.0303   50.6556 C   0  0  0  0  0  0  0  0  0  0  0  0
   41.0516    7.4370   51.1823 S   0  0  0  0  0  0  0  0  0  0  0  0
   42.5909    7.0069   50.3320 C   0  0  0  0  0  0  0  0  0  0  0  0
   43.5566    8.1750   50.4261 C   0  0  0  0  0  0  0  0  0  0  0  0
   44.3748    8.0892   51.6203 N   0  0  0  0  0  0  0  0  0  0  0  0
   44.1411    9.1002   52.4586 C   0  0  0  0  0  0  0  0  0  0  0  0
   44.8139    9.2822   53.6624 O   0  0  0  0  0  0  0  0  0  0  0  0
   43.2156    9.9217   51.9932 N   0  0  0  0  0  0  0  0  0  0  0  0
   42.7531    9.4444   50.7011 C   0  0  0  0  0  0  0  0  0  0  0  0
   45.0254    7.3704   51.7919 H   0  0  0  0  0  0  0  0  0  0  0  0
   42.8905   10.7305   52.4508 H   0  0  0  0  0  0  0  0  0  0  0  0
   40.4263    9.9977   51.4505 C   0  0  0  0  0  0  0  0  0  0  0  0
   39.9959   11.1170   50.5377 C   0  0  0  0  0  0  0  0  0  0  0  0
   38.8360   11.8675   51.1900 C   0  0  0  0  0  0  0  0  0  0  0  0
   37.8081   10.8642   51.7242 C   0  0  0  0  0  0  0  0  0  0  0  0
   36.5242   11.5888   52.0893 C   0  0  0  0  0  0  0  0  0  0  0  0
   36.5566   12.7032   52.6450 O   0  0  0  0  0  0  0  0  0  0  0  0
   35.3990   11.1003   51.8151 O   0  0  0  0  0  0  0  0  0  0  0  0
   35.3407   10.2638   51.3970 H   0  0  0  0  0  0  0  0  0  0  0  0
 16 17  2  0  0  0
 16 18  1  0  0  0
 16 15  1  0  0  0
 15 14  1  0  0  0
 14 13  1  0  0  0
 13 12  1  0  0  0
 12  1  1  0  0  0
  1  2  1  0  0  0
  1  9  1  0  0  0
  2  3  1  0  0  0
  3  4  1  0  0  0
  4  5  1  0  0  0
  4  9  1  0  0  0
  5  6  1  0  0  0
  6  7  2  0  0  0
  6  8  1  0  0  0
  8  9  1  0  0  0
 18 19  1  0  0  0
  5 10  1  0  0  0
  8 11  1  0  0  0
M  END
> <minimizedAffinity>
-5.64864

$$$$
