1GJC_130_B_251


 30 33  0  0  0  0  0  0  0  0999 V2000
    8.4551    0.6069   24.8107 C   0  0  0  0  0  0  0  0  0  0  0  0
    8.9122    0.4855   23.4722 C   0  0  0  0  0  0  0  0  0  0  0  0
    9.2924    1.5909   22.6897 C   0  0  0  0  0  0  0  0  0  0  0  0
    9.1983    2.8075   23.2923 C   0  0  0  0  0  0  0  0  0  0  0  0
    8.7721    2.9733   24.5506 C   0  0  0  0  0  0  0  0  0  0  0  0
    8.3889    1.9159   25.3573 C   0  0  0  0  0  0  0  0  0  0  0  0
    9.4592    3.9874   22.8348 N   0  0  0  0  0  0  0  0  0  0  0  0
    8.7486    4.2457   24.9229 N   0  0  0  0  0  0  0  0  0  0  0  0
    9.1890    4.8115   23.7999 C   0  0  0  0  0  0  0  0  0  0  0  0
    9.7945    4.2147   21.9375 H   0  0  0  0  0  0  0  0  0  0  0  0
    9.4029    6.2102   23.6733 C   0  0  0  0  0  0  0  0  0  0  0  0
    8.3638    7.1262   23.8831 C   0  0  0  0  0  0  0  0  0  0  0  0
    8.5550    8.4957   23.7681 C   0  0  0  0  0  0  0  0  0  0  0  0
    9.7947    8.9873   23.4356 C   0  0  0  0  0  0  0  0  0  0  0  0
   10.8840    8.1431   23.2077 C   0  0  0  0  0  0  0  0  0  0  0  0
   10.6701    6.7561   23.3318 C   0  0  0  0  0  0  0  0  0  0  0  0
   11.7497    5.9267   23.1062 O   0  0  0  0  0  0  0  0  0  0  0  0
   11.6500    4.9978   23.1785 H   0  0  0  0  0  0  0  0  0  0  0  0
   12.1124    8.7144   22.8848 C   0  0  0  0  0  0  0  0  0  0  0  0
   12.9823    9.1531   23.8796 C   0  0  0  0  0  0  0  0  0  0  0  0
   14.1898    9.7646   23.5811 C   0  0  0  0  0  0  0  0  0  0  0  0
   14.5580    9.9495   22.2587 C   0  0  0  0  0  0  0  0  0  0  0  0
   13.7167    9.5185   21.2433 C   0  0  0  0  0  0  0  0  0  0  0  0
   12.5061    8.9053   21.5514 C   0  0  0  0  0  0  0  0  0  0  0  0
    8.0938   -0.5292   25.5588 C   0  0  0  0  0  0  0  0  0  0  0  0
    8.0369   -0.4723   26.8672 N   0  0  0  0  0  0  0  0  0  0  0  0
    7.8147   -1.6519   24.9451 N   0  0  0  0  0  0  0  0  0  0  0  0
    8.2459    0.3695   27.3328 H   0  0  0  0  0  0  0  0  0  0  0  0
    7.7853   -1.2715   27.3842 H   0  0  0  0  0  0  0  0  0  0  0  0
    7.8560   -1.6994   23.9626 H   0  0  0  0  0  0  0  0  0  0  0  0
  1  2  1  0  0  0
  1  6  2  0  0  0
  1 25  1  0  0  0
  2  3  2  0  0  0
  3  4  1  0  0  0
  4  5  2  0  0  0
  4  7  1  0  0  0
  5  6  1  0  0  0
  5  8  1  0  0  0
 25 26  1  0  0  0
 25 27  2  0  0  0
  7  9  1  0  0  0
  8  9  2  0  0  0
  9 11  1  0  0  0
 11 12  2  0  0  0
 11 16  1  0  0  0
 12 13  1  0  0  0
 13 14  2  0  0  0
 14 15  1  0  0  0
 15 16  2  0  0  0
 15 19  1  0  0  0
 16 17  1  0  0  0
 19 20  2  0  0  0
 19 24  1  0  0  0
 20 21  1  0  0  0
 21 22  2  0  0  0
 22 23  1  0  0  0
 23 24  2  0  0  0
 26 28  1  0  0  0
 26 29  1  0  0  0
 27 30  1  0  0  0
  7 10  1  0  0  0
 17 18  1  0  0  0
M  END
> <minimizedAffinity>
-9.24052

$$$$
1GJC_130_B_251


 30 33  0  0  0  0  0  0  0  0999 V2000
   14.4679    9.4198   22.3771 C   0  0  0  0  0  0  0  0  0  0  0  0
   13.8401    9.4447   21.1042 C   0  0  0  0  0  0  0  0  0  0  0  0
   12.6062    8.8203   20.8467 C   0  0  0  0  0  0  0  0  0  0  0  0
   12.0325    8.1781   21.9004 C   0  0  0  0  0  0  0  0  0  0  0  0
   12.5856    8.1255   23.1185 C   0  0  0  0  0  0  0  0  0  0  0  0
   13.7965    8.7252   23.4180 C   0  0  0  0  0  0  0  0  0  0  0  0
   10.9263    7.5139   21.9707 N   0  0  0  0  0  0  0  0  0  0  0  0
   11.8578    7.4345   23.9852 N   0  0  0  0  0  0  0  0  0  0  0  0
   10.8439    7.0875   23.1934 C   0  0  0  0  0  0  0  0  0  0  0  0
   10.2786    7.3624   21.2450 H   0  0  0  0  0  0  0  0  0  0  0  0
    9.7215    6.3499   23.6560 C   0  0  0  0  0  0  0  0  0  0  0  0
    8.5114    6.9851   23.9646 C   0  0  0  0  0  0  0  0  0  0  0  0
    7.4035    6.2807   24.4135 C   0  0  0  0  0  0  0  0  0  0  0  0
    7.4775    4.9172   24.5697 C   0  0  0  0  0  0  0  0  0  0  0  0
    8.6464    4.2066   24.2864 C   0  0  0  0  0  0  0  0  0  0  0  0
    9.7594    4.9395   23.8294 C   0  0  0  0  0  0  0  0  0  0  0  0
   10.9114    4.2327   23.5506 O   0  0  0  0  0  0  0  0  0  0  0  0
   11.6743    4.6823   23.2443 H   0  0  0  0  0  0  0  0  0  0  0  0
    8.6432    2.8246   24.4589 C   0  0  0  0  0  0  0  0  0  0  0  0
    9.0624    1.9743   23.4391 C   0  0  0  0  0  0  0  0  0  0  0  0
    9.0261    0.5951   23.5724 C   0  0  0  0  0  0  0  0  0  0  0  0
    8.5646    0.0305   24.7499 C   0  0  0  0  0  0  0  0  0  0  0  0
    8.1450    0.8497   25.7879 C   0  0  0  0  0  0  0  0  0  0  0  0
    8.1847    2.2335   25.6462 C   0  0  0  0  0  0  0  0  0  0  0  0
   15.6994   10.0669   22.5904 C   0  0  0  0  0  0  0  0  0  0  0  0
   16.7987    9.3692   22.7429 N   0  0  0  0  0  0  0  0  0  0  0  0
   15.7486   11.3746   22.6397 N   0  0  0  0  0  0  0  0  0  0  0  0
   16.7666    8.3859   22.7067 H   0  0  0  0  0  0  0  0  0  0  0  0
   17.6563    9.8285   22.8937 H   0  0  0  0  0  0  0  0  0  0  0  0
   14.9256   11.9028   22.5257 H   0  0  0  0  0  0  0  0  0  0  0  0
  1  2  1  0  0  0
  1  6  2  0  0  0
  1 25  1  0  0  0
  2  3  2  0  0  0
  3  4  1  0  0  0
  4  5  2  0  0  0
  4  7  1  0  0  0
  5  6  1  0  0  0
  5  8  1  0  0  0
 25 26  1  0  0  0
 25 27  2  0  0  0
  7  9  1  0  0  0
  8  9  2  0  0  0
  9 11  1  0  0  0
 11 12  2  0  0  0
 11 16  1  0  0  0
 12 13  1  0  0  0
 13 14  2  0  0  0
 14 15  1  0  0  0
 15 16  2  0  0  0
 15 19  1  0  0  0
 16 17  1  0  0  0
 19 20  2  0  0  0
 19 24  1  0  0  0
 20 21  1  0  0  0
 21 22  2  0  0  0
 22 23  1  0  0  0
 23 24  2  0  0  0
 26 28  1  0  0  0
 26 29  1  0  0  0
 27 30  1  0  0  0
  7 10  1  0  0  0
 17 18  1  0  0  0
M  END
> <minimizedAffinity>
-9.09663

$$$$
1GJC_130_B_251


 30 33  0  0  0  0  0  0  0  0999 V2000
    8.5462    1.4579   24.4177 C   0  0  0  0  0  0  0  0  0  0  0  0
    8.0939    2.0496   25.6261 C   0  0  0  0  0  0  0  0  0  0  0  0
    8.1215    3.4370   25.8565 C   0  0  0  0  0  0  0  0  0  0  0  0
    8.6133    4.1993   24.8422 C   0  0  0  0  0  0  0  0  0  0  0  0
    9.0528    3.6883   23.6853 C   0  0  0  0  0  0  0  0  0  0  0  0
    9.0439    2.3310   23.4145 C   0  0  0  0  0  0  0  0  0  0  0  0
    8.7737    5.4790   24.7625 N   0  0  0  0  0  0  0  0  0  0  0  0
    9.5004    4.6155   22.8498 N   0  0  0  0  0  0  0  0  0  0  0  0
    9.2934    5.7008   23.5944 C   0  0  0  0  0  0  0  0  0  0  0  0
    8.5479    6.1487   25.4478 H   0  0  0  0  0  0  0  0  0  0  0  0
    9.5674    7.0163   23.1334 C   0  0  0  0  0  0  0  0  0  0  0  0
    8.5370    7.9420   22.9229 C   0  0  0  0  0  0  0  0  0  0  0  0
    8.7859    9.2322   22.4772 C   0  0  0  0  0  0  0  0  0  0  0  0
   10.0768    9.6315   22.2258 C   0  0  0  0  0  0  0  0  0  0  0  0
   11.1618    8.7707   22.4078 C   0  0  0  0  0  0  0  0  0  0  0  0
   10.8885    7.4659   22.8633 C   0  0  0  0  0  0  0  0  0  0  0  0
   11.9640    6.6198   23.0419 O   0  0  0  0  0  0  0  0  0  0  0  0
   11.8257    5.7435   23.3436 H   0  0  0  0  0  0  0  0  0  0  0  0
   12.4425    9.2493   22.1424 C   0  0  0  0  0  0  0  0  0  0  0  0
   13.3004    9.6126   23.1771 C   0  0  0  0  0  0  0  0  0  0  0  0
   14.5623   10.1325   22.9357 C   0  0  0  0  0  0  0  0  0  0  0  0
   14.9989   10.2991   21.6318 C   0  0  0  0  0  0  0  0  0  0  0  0
   14.1710    9.9415   20.5777 C   0  0  0  0  0  0  0  0  0  0  0  0
   12.9054    9.4200   20.8286 C   0  0  0  0  0  0  0  0  0  0  0  0
    8.4910    0.0642   24.2283 C   0  0  0  0  0  0  0  0  0  0  0  0
    8.5735   -0.4460   23.0236 N   0  0  0  0  0  0  0  0  0  0  0  0
    8.3538   -0.7289   25.2612 N   0  0  0  0  0  0  0  0  0  0  0  0
    8.6767    0.1464   22.2441 H   0  0  0  0  0  0  0  0  0  0  0  0
    8.5323   -1.4217   22.8984 H   0  0  0  0  0  0  0  0  0  0  0  0
    8.2914   -0.3502   26.1678 H   0  0  0  0  0  0  0  0  0  0  0  0
  1  2  1  0  0  0
  1  6  2  0  0  0
  1 25  1  0  0  0
  2  3  2  0  0  0
  3  4  1  0  0  0
  4  5  2  0  0  0
  4  7  1  0  0  0
  5  6  1  0  0  0
  5  8  1  0  0  0
 25 26  1  0  0  0
 25 27  2  0  0  0
  7  9  1  0  0  0
  8  9  2  0  0  0
  9 11  1  0  0  0
 11 12  2  0  0  0
 11 16  1  0  0  0
 12 13  1  0  0  0
 13 14  2  0  0  0
 14 15  1  0  0  0
 15 16  2  0  0  0
 15 19  1  0  0  0
 16 17  1  0  0  0
 19 20  2  0  0  0
 19 24  1  0  0  0
 20 21  1  0  0  0
 21 22  2  0  0  0
 22 23  1  0  0  0
 23 24  2  0  0  0
 26 28  1  0  0  0
 26 29  1  0  0  0
 27 30  1  0  0  0
  7 10  1  0  0  0
 17 18  1  0  0  0
M  END
> <minimizedAffinity>
-8.78735

$$$$
1GJC_130_B_251


 30 33  0  0  0  0  0  0  0  0999 V2000
   14.1447    9.2875   22.0772 C   0  0  0  0  0  0  0  0  0  0  0  0
   13.1085    9.8027   21.2550 C   0  0  0  0  0  0  0  0  0  0  0  0
   11.8037    9.2773   21.2484 C   0  0  0  0  0  0  0  0  0  0  0  0
   11.5796    8.2290   22.0867 C   0  0  0  0  0  0  0  0  0  0  0  0
   12.5239    7.7074   22.8797 C   0  0  0  0  0  0  0  0  0  0  0  0
   13.8198    8.1919   22.9201 C   0  0  0  0  0  0  0  0  0  0  0  0
   10.5065    7.5388   22.2911 N   0  0  0  0  0  0  0  0  0  0  0  0
   12.0845    6.6840   23.5993 N   0  0  0  0  0  0  0  0  0  0  0  0
   10.8223    6.6425   23.1746 C   0  0  0  0  0  0  0  0  0  0  0  0
    9.6289    7.6668   21.8638 H   0  0  0  0  0  0  0  0  0  0  0  0
    9.8669    5.7229   23.6841 C   0  0  0  0  0  0  0  0  0  0  0  0
   10.1348    4.3486   23.7321 C   0  0  0  0  0  0  0  0  0  0  0  0
    9.2157    3.4362   24.2301 C   0  0  0  0  0  0  0  0  0  0  0  0
    7.9980    3.8753   24.6921 C   0  0  0  0  0  0  0  0  0  0  0  0
    7.6502    5.2282   24.6781 C   0  0  0  0  0  0  0  0  0  0  0  0
    8.5979    6.1389   24.1710 C   0  0  0  0  0  0  0  0  0  0  0  0
    8.2495    7.4742   24.1600 O   0  0  0  0  0  0  0  0  0  0  0  0
    8.8512    8.1126   23.8310 H   0  0  0  0  0  0  0  0  0  0  0  0
    6.4022    5.5994   25.1723 C   0  0  0  0  0  0  0  0  0  0  0  0
    5.2820    5.6227   24.3456 C   0  0  0  0  0  0  0  0  0  0  0  0
    4.0396    6.0310   24.8046 C   0  0  0  0  0  0  0  0  0  0  0  0
    3.8906    6.4276   26.1233 C   0  0  0  0  0  0  0  0  0  0  0  0
    4.9855    6.4105   26.9751 C   0  0  0  0  0  0  0  0  0  0  0  0
    6.2295    5.9992   26.5064 C   0  0  0  0  0  0  0  0  0  0  0  0
   15.4340    9.8517   22.0568 C   0  0  0  0  0  0  0  0  0  0  0  0
   15.7248   10.8137   21.2150 N   0  0  0  0  0  0  0  0  0  0  0  0
   16.3509    9.4121   22.8819 N   0  0  0  0  0  0  0  0  0  0  0  0
   15.0386   11.1474   20.5928 H   0  0  0  0  0  0  0  0  0  0  0  0
   16.6292   11.2024   21.2050 H   0  0  0  0  0  0  0  0  0  0  0  0
   16.1372    8.6898   23.5159 H   0  0  0  0  0  0  0  0  0  0  0  0
  1  2  1  0  0  0
  1  6  2  0  0  0
  1 25  1  0  0  0
  2  3  2  0  0  0
  3  4  1  0  0  0
  4  5  2  0  0  0
  4  7  1  0  0  0
  5  6  1  0  0  0
  5  8  1  0  0  0
 25 26  1  0  0  0
 25 27  2  0  0  0
  7  9  1  0  0  0
  8  9  2  0  0  0
  9 11  1  0  0  0
 11 12  2  0  0  0
 11 16  1  0  0  0
 12 13  1  0  0  0
 13 14  2  0  0  0
 14 15  1  0  0  0
 15 16  2  0  0  0
 15 19  1  0  0  0
 16 17  1  0  0  0
 19 20  2  0  0  0
 19 24  1  0  0  0
 20 21  1  0  0  0
 21 22  2  0  0  0
 22 23  1  0  0  0
 23 24  2  0  0  0
 26 28  1  0  0  0
 26 29  1  0  0  0
 27 30  1  0  0  0
  7 10  1  0  0  0
 17 18  1  0  0  0
M  END
> <minimizedAffinity>
-7.87460

$$$$
1GJC_130_B_251


 30 33  0  0  0  0  0  0  0  0999 V2000
    8.5620    1.4691   24.3897 C   0  0  0  0  0  0  0  0  0  0  0  0
    8.1065    2.0665   25.5941 C   0  0  0  0  0  0  0  0  0  0  0  0
    8.1433    3.4541   25.8222 C   0  0  0  0  0  0  0  0  0  0  0  0
    8.6474    4.2108   24.8096 C   0  0  0  0  0  0  0  0  0  0  0  0
    9.0903    3.6943   23.6565 C   0  0  0  0  0  0  0  0  0  0  0  0
    9.0728    2.3366   23.3881 C   0  0  0  0  0  0  0  0  0  0  0  0
    8.8181    5.4890   24.7286 N   0  0  0  0  0  0  0  0  0  0  0  0
    9.5503    4.6165   22.8222 N   0  0  0  0  0  0  0  0  0  0  0  0
    9.3468    5.7047   23.5635 C   0  0  0  0  0  0  0  0  0  0  0  0
    8.5929    6.1617   25.4113 H   0  0  0  0  0  0  0  0  0  0  0  0
    9.6338    7.0172   23.1019 C   0  0  0  0  0  0  0  0  0  0  0  0
   10.9382    7.3988   22.7615 C   0  0  0  0  0  0  0  0  0  0  0  0
   11.2366    8.6747   22.3050 C   0  0  0  0  0  0  0  0  0  0  0  0
   10.2352    9.6076   22.1794 C   0  0  0  0  0  0  0  0  0  0  0  0
    8.9083    9.3100   22.4992 C   0  0  0  0  0  0  0  0  0  0  0  0
    8.6253    8.0086   22.9586 C   0  0  0  0  0  0  0  0  0  0  0  0
    7.3129    7.7197   23.2725 O   0  0  0  0  0  0  0  0  0  0  0  0
    7.0821    6.8658   23.5815 H   0  0  0  0  0  0  0  0  0  0  0  0
    7.9459   10.3035   22.3368 C   0  0  0  0  0  0  0  0  0  0  0  0
    7.3699   10.5466   21.0926 C   0  0  0  0  0  0  0  0  0  0  0  0
    6.4433   11.5589   20.8982 C   0  0  0  0  0  0  0  0  0  0  0  0
    6.0662   12.3592   21.9639 C   0  0  0  0  0  0  0  0  0  0  0  0
    6.6167   12.1397   23.2182 C   0  0  0  0  0  0  0  0  0  0  0  0
    7.5465   11.1212   23.4051 C   0  0  0  0  0  0  0  0  0  0  0  0
    8.4974    0.0756   24.2024 C   0  0  0  0  0  0  0  0  0  0  0  0
    8.3773   -0.7278   25.2313 N   0  0  0  0  0  0  0  0  0  0  0  0
    8.5602   -0.4231   22.9932 N   0  0  0  0  0  0  0  0  0  0  0  0
    8.3297   -0.3574   26.1422 H   0  0  0  0  0  0  0  0  0  0  0  0
    8.3346   -1.7017   25.0930 H   0  0  0  0  0  0  0  0  0  0  0  0
    8.6504    0.1764   22.2175 H   0  0  0  0  0  0  0  0  0  0  0  0
  1  2  1  0  0  0
  1  6  2  0  0  0
  1 25  1  0  0  0
  2  3  2  0  0  0
  3  4  1  0  0  0
  4  5  2  0  0  0
  4  7  1  0  0  0
  5  6  1  0  0  0
  5  8  1  0  0  0
 25 26  1  0  0  0
 25 27  2  0  0  0
  7  9  1  0  0  0
  8  9  2  0  0  0
  9 11  1  0  0  0
 11 12  2  0  0  0
 11 16  1  0  0  0
 12 13  1  0  0  0
 13 14  2  0  0  0
 14 15  1  0  0  0
 15 16  2  0  0  0
 15 19  1  0  0  0
 16 17  1  0  0  0
 19 20  2  0  0  0
 19 24  1  0  0  0
 20 21  1  0  0  0
 21 22  2  0  0  0
 22 23  1  0  0  0
 23 24  2  0  0  0
 26 28  1  0  0  0
 26 29  1  0  0  0
 27 30  1  0  0  0
  7 10  1  0  0  0
 17 18  1  0  0  0
M  END
> <minimizedAffinity>
-7.86362

$$$$
1GJC_130_B_251


 30 33  0  0  0  0  0  0  0  0999 V2000
    8.5610    2.1564   24.4627 C   0  0  0  0  0  0  0  0  0  0  0  0
    7.9557    2.7607   25.5956 C   0  0  0  0  0  0  0  0  0  0  0  0
    7.8256    4.1536   25.7425 C   0  0  0  0  0  0  0  0  0  0  0  0
    8.3189    4.9085   24.7233 C   0  0  0  0  0  0  0  0  0  0  0  0
    8.8991    4.3857   23.6358 C   0  0  0  0  0  0  0  0  0  0  0  0
    9.0481    3.0226   23.4482 C   0  0  0  0  0  0  0  0  0  0  0  0
    8.3563    6.1919   24.5781 N   0  0  0  0  0  0  0  0  0  0  0  0
    9.3176    5.3091   22.7812 N   0  0  0  0  0  0  0  0  0  0  0  0
    8.9436    6.4047   23.4408 C   0  0  0  0  0  0  0  0  0  0  0  0
    8.0099    6.8696   25.2025 H   0  0  0  0  0  0  0  0  0  0  0  0
    9.1208    7.7154   22.9224 C   0  0  0  0  0  0  0  0  0  0  0  0
   10.3846    8.3193   22.8899 C   0  0  0  0  0  0  0  0  0  0  0  0
   10.5775    9.5967   22.3835 C   0  0  0  0  0  0  0  0  0  0  0  0
    9.5069   10.3082   21.8972 C   0  0  0  0  0  0  0  0  0  0  0  0
    8.2133    9.7809   21.8944 C   0  0  0  0  0  0  0  0  0  0  0  0
    8.0386    8.4817   22.4105 C   0  0  0  0  0  0  0  0  0  0  0  0
    6.7589    7.9653   22.4048 O   0  0  0  0  0  0  0  0  0  0  0  0
    6.5995    7.1046   22.7391 H   0  0  0  0  0  0  0  0  0  0  0  0
    7.1796   10.5570   21.3759 C   0  0  0  0  0  0  0  0  0  0  0  0
    6.0353   10.8191   22.1247 C   0  0  0  0  0  0  0  0  0  0  0  0
    4.9755   11.5514   21.6132 C   0  0  0  0  0  0  0  0  0  0  0  0
    5.0427   12.0469   20.3215 C   0  0  0  0  0  0  0  0  0  0  0  0
    6.1712   11.8088   19.5507 C   0  0  0  0  0  0  0  0  0  0  0  0
    7.2311   11.0726   20.0717 C   0  0  0  0  0  0  0  0  0  0  0  0
    8.6610    0.7566   24.3549 C   0  0  0  0  0  0  0  0  0  0  0  0
    8.8558    0.1926   23.1876 N   0  0  0  0  0  0  0  0  0  0  0  0
    8.5566    0.0113   25.4266 N   0  0  0  0  0  0  0  0  0  0  0  0
    8.9349    0.7489   22.3792 H   0  0  0  0  0  0  0  0  0  0  0  0
    8.9229   -0.7872   23.1194 H   0  0  0  0  0  0  0  0  0  0  0  0
    8.4103    0.4305   26.3053 H   0  0  0  0  0  0  0  0  0  0  0  0
  1  2  1  0  0  0
  1  6  2  0  0  0
  1 25  1  0  0  0
  2  3  2  0  0  0
  3  4  1  0  0  0
  4  5  2  0  0  0
  4  7  1  0  0  0
  5  6  1  0  0  0
  5  8  1  0  0  0
 25 26  1  0  0  0
 25 27  2  0  0  0
  7  9  1  0  0  0
  8  9  2  0  0  0
  9 11  1  0  0  0
 11 12  2  0  0  0
 11 16  1  0  0  0
 12 13  1  0  0  0
 13 14  2  0  0  0
 14 15  1  0  0  0
 15 16  2  0  0  0
 15 19  1  0  0  0
 16 17  1  0  0  0
 19 20  2  0  0  0
 19 24  1  0  0  0
 20 21  1  0  0  0
 21 22  2  0  0  0
 22 23  1  0  0  0
 23 24  2  0  0  0
 26 28  1  0  0  0
 26 29  1  0  0  0
 27 30  1  0  0  0
  7 10  1  0  0  0
 17 18  1  0  0  0
M  END
> <minimizedAffinity>
-7.68703

$$$$
1GJC_130_B_251


 30 33  0  0  0  0  0  0  0  0999 V2000
    8.9428    2.9172   24.3879 C   0  0  0  0  0  0  0  0  0  0  0  0
    7.8290    3.6515   24.8730 C   0  0  0  0  0  0  0  0  0  0  0  0
    7.7497    5.0544   24.8078 C   0  0  0  0  0  0  0  0  0  0  0  0
    8.8158    5.6856   24.2446 C   0  0  0  0  0  0  0  0  0  0  0  0
    9.8889    5.0377   23.7744 C   0  0  0  0  0  0  0  0  0  0  0  0
   10.0101    3.6596   23.8166 C   0  0  0  0  0  0  0  0  0  0  0  0
    9.0365    6.9449   24.0578 N   0  0  0  0  0  0  0  0  0  0  0  0
   10.8102    5.8555   23.2837 N   0  0  0  0  0  0  0  0  0  0  0  0
   10.2045    7.0228   23.4983 C   0  0  0  0  0  0  0  0  0  0  0  0
    8.4403    7.6925   24.2922 H   0  0  0  0  0  0  0  0  0  0  0  0
   10.7631    8.2664   23.0989 C   0  0  0  0  0  0  0  0  0  0  0  0
   10.0025    9.2141   22.4014 C   0  0  0  0  0  0  0  0  0  0  0  0
   10.5297   10.4355   22.0071 C   0  0  0  0  0  0  0  0  0  0  0  0
   11.8377   10.7415   22.2979 C   0  0  0  0  0  0  0  0  0  0  0  0
   12.6654    9.8525   22.9878 C   0  0  0  0  0  0  0  0  0  0  0  0
   12.1108    8.6188   23.3818 C   0  0  0  0  0  0  0  0  0  0  0  0
   12.9325    7.7445   24.0636 O   0  0  0  0  0  0  0  0  0  0  0  0
   12.6026    6.9133   24.3435 H   0  0  0  0  0  0  0  0  0  0  0  0
   13.9771   10.2361   23.2557 C   0  0  0  0  0  0  0  0  0  0  0  0
   15.0039    9.9527   22.3589 C   0  0  0  0  0  0  0  0  0  0  0  0
   16.3228   10.2855   22.6246 C   0  0  0  0  0  0  0  0  0  0  0  0
   16.6451   10.9221   23.8118 C   0  0  0  0  0  0  0  0  0  0  0  0
   15.6449   11.2242   24.7244 C   0  0  0  0  0  0  0  0  0  0  0  0
   14.3230   10.8868   24.4500 C   0  0  0  0  0  0  0  0  0  0  0  0
    8.9742    1.5123   24.4664 C   0  0  0  0  0  0  0  0  0  0  0  0
    8.0827    0.8668   25.1784 N   0  0  0  0  0  0  0  0  0  0  0  0
    9.9012    0.8443   23.8265 N   0  0  0  0  0  0  0  0  0  0  0  0
    7.3839    1.3648   25.6612 H   0  0  0  0  0  0  0  0  0  0  0  0
    8.1118   -0.1159   25.2304 H   0  0  0  0  0  0  0  0  0  0  0  0
   10.5729    1.3248   23.2905 H   0  0  0  0  0  0  0  0  0  0  0  0
  1  2  1  0  0  0
  1  6  2  0  0  0
  1 25  1  0  0  0
  2  3  2  0  0  0
  3  4  1  0  0  0
  4  5  2  0  0  0
  4  7  1  0  0  0
  5  6  1  0  0  0
  5  8  1  0  0  0
 25 26  1  0  0  0
 25 27  2  0  0  0
  7  9  1  0  0  0
  8  9  2  0  0  0
  9 11  1  0  0  0
 11 12  2  0  0  0
 11 16  1  0  0  0
 12 13  1  0  0  0
 13 14  2  0  0  0
 14 15  1  0  0  0
 15 16  2  0  0  0
 15 19  1  0  0  0
 16 17  1  0  0  0
 19 20  2  0  0  0
 19 24  1  0  0  0
 20 21  1  0  0  0
 21 22  2  0  0  0
 22 23  1  0  0  0
 23 24  2  0  0  0
 26 28  1  0  0  0
 26 29  1  0  0  0
 27 30  1  0  0  0
  7 10  1  0  0  0
 17 18  1  0  0  0
M  END
> <minimizedAffinity>
-7.54921

$$$$
1GJC_130_B_251


 30 33  0  0  0  0  0  0  0  0999 V2000
    8.3198    3.6695   25.2698 C   0  0  0  0  0  0  0  0  0  0  0  0
    8.9537    3.1295   24.1202 C   0  0  0  0  0  0  0  0  0  0  0  0
    9.4767    3.9289   23.0876 C   0  0  0  0  0  0  0  0  0  0  0  0
    9.3421    5.2734   23.2491 C   0  0  0  0  0  0  0  0  0  0  0  0
    8.7514    5.8301   24.3139 C   0  0  0  0  0  0  0  0  0  0  0  0
    8.2237    5.0839   25.3533 C   0  0  0  0  0  0  0  0  0  0  0  0
    9.7046    6.2464   22.4802 N   0  0  0  0  0  0  0  0  0  0  0  0
    8.7204    7.1542   24.2520 N   0  0  0  0  0  0  0  0  0  0  0  0
    9.3317    7.3339   23.0818 C   0  0  0  0  0  0  0  0  0  0  0  0
   10.1688    6.1769   21.6147 H   0  0  0  0  0  0  0  0  0  0  0  0
    9.6094    8.6200   22.5461 C   0  0  0  0  0  0  0  0  0  0  0  0
    8.6080    9.5938   22.4379 C   0  0  0  0  0  0  0  0  0  0  0  0
    8.8615   10.8564   21.9213 C   0  0  0  0  0  0  0  0  0  0  0  0
   10.1274   11.1788   21.4942 C   0  0  0  0  0  0  0  0  0  0  0  0
   11.1825   10.2660   21.5650 C   0  0  0  0  0  0  0  0  0  0  0  0
   10.9054    8.9903   22.0948 C   0  0  0  0  0  0  0  0  0  0  0  0
   11.9513    8.0926   22.1630 O   0  0  0  0  0  0  0  0  0  0  0  0
   11.8094    7.2335   22.5090 H   0  0  0  0  0  0  0  0  0  0  0  0
   12.4405   10.6676   21.1226 C   0  0  0  0  0  0  0  0  0  0  0  0
   12.8691   10.3846   19.8285 C   0  0  0  0  0  0  0  0  0  0  0  0
   14.1331   10.7355   19.3809 C   0  0  0  0  0  0  0  0  0  0  0  0
   15.0066   11.3903   20.2333 C   0  0  0  0  0  0  0  0  0  0  0  0
   14.6087   11.6925   21.5274 C   0  0  0  0  0  0  0  0  0  0  0  0
   13.3378   11.3369   21.9691 C   0  0  0  0  0  0  0  0  0  0  0  0
    7.8191    2.8302   26.2827 C   0  0  0  0  0  0  0  0  0  0  0  0
    7.4350    3.3318   27.4313 N   0  0  0  0  0  0  0  0  0  0  0  0
    7.7381    1.5392   26.0785 N   0  0  0  0  0  0  0  0  0  0  0  0
    7.4941    4.3017   27.5893 H   0  0  0  0  0  0  0  0  0  0  0  0
    7.0876    2.7386   28.1360 H   0  0  0  0  0  0  0  0  0  0  0  0
    8.0254    1.1581   25.2174 H   0  0  0  0  0  0  0  0  0  0  0  0
  1  2  1  0  0  0
  1  6  2  0  0  0
  1 25  1  0  0  0
  2  3  2  0  0  0
  3  4  1  0  0  0
  4  5  2  0  0  0
  4  7  1  0  0  0
  5  6  1  0  0  0
  5  8  1  0  0  0
 25 26  1  0  0  0
 25 27  2  0  0  0
  7  9  1  0  0  0
  8  9  2  0  0  0
  9 11  1  0  0  0
 11 12  2  0  0  0
 11 16  1  0  0  0
 12 13  1  0  0  0
 13 14  2  0  0  0
 14 15  1  0  0  0
 15 16  2  0  0  0
 15 19  1  0  0  0
 16 17  1  0  0  0
 19 20  2  0  0  0
 19 24  1  0  0  0
 20 21  1  0  0  0
 21 22  2  0  0  0
 22 23  1  0  0  0
 23 24  2  0  0  0
 26 28  1  0  0  0
 26 29  1  0  0  0
 27 30  1  0  0  0
  7 10  1  0  0  0
 17 18  1  0  0  0
M  END
> <minimizedAffinity>
-7.40854

$$$$
1GJC_130_B_251


 30 33  0  0  0  0  0  0  0  0999 V2000
    8.7763    3.9225   24.4036 C   0  0  0  0  0  0  0  0  0  0  0  0
    7.9508    5.0207   24.7608 C   0  0  0  0  0  0  0  0  0  0  0  0
    8.3413    6.3607   24.5862 C   0  0  0  0  0  0  0  0  0  0  0  0
    9.5751    6.5559   24.0464 C   0  0  0  0  0  0  0  0  0  0  0  0
   10.3903    5.5537   23.6949 C   0  0  0  0  0  0  0  0  0  0  0  0
   10.0484    4.2212   23.8474 C   0  0  0  0  0  0  0  0  0  0  0  0
   10.2055    7.6520   23.7806 N   0  0  0  0  0  0  0  0  0  0  0  0
   11.5466    5.9783   23.2041 N   0  0  0  0  0  0  0  0  0  0  0  0
   11.3529    7.2936   23.2921 C   0  0  0  0  0  0  0  0  0  0  0  0
    9.8815    8.5712   23.9202 H   0  0  0  0  0  0  0  0  0  0  0  0
   12.3044    8.2455   22.8373 C   0  0  0  0  0  0  0  0  0  0  0  0
   13.6738    8.0781   23.0817 C   0  0  0  0  0  0  0  0  0  0  0  0
   14.6177    8.9949   22.6417 C   0  0  0  0  0  0  0  0  0  0  0  0
   14.2155   10.1097   21.9457 C   0  0  0  0  0  0  0  0  0  0  0  0
   12.8697   10.3536   21.6614 C   0  0  0  0  0  0  0  0  0  0  0  0
   11.9270    9.4098   22.1144 C   0  0  0  0  0  0  0  0  0  0  0  0
   10.5991    9.6552   21.8304 O   0  0  0  0  0  0  0  0  0  0  0  0
    9.9402    9.0523   22.1138 H   0  0  0  0  0  0  0  0  0  0  0  0
   12.5387   11.4996   20.9425 C   0  0  0  0  0  0  0  0  0  0  0  0
   12.6391   11.5284   19.5540 C   0  0  0  0  0  0  0  0  0  0  0  0
   12.3576   12.6709   18.8215 C   0  0  0  0  0  0  0  0  0  0  0  0
   11.9603   13.8257   19.4751 C   0  0  0  0  0  0  0  0  0  0  0  0
   11.8445   13.8289   20.8576 C   0  0  0  0  0  0  0  0  0  0  0  0
   12.1289   12.6776   21.5857 C   0  0  0  0  0  0  0  0  0  0  0  0
    8.3395    2.5973   24.5885 C   0  0  0  0  0  0  0  0  0  0  0  0
    7.7081    2.2530   25.6845 N   0  0  0  0  0  0  0  0  0  0  0  0
    8.5668    1.7008   23.6614 N   0  0  0  0  0  0  0  0  0  0  0  0
    7.5350    2.9236   26.3842 H   0  0  0  0  0  0  0  0  0  0  0  0
    7.4071    1.3239   25.8080 H   0  0  0  0  0  0  0  0  0  0  0  0
    9.0406    1.9548   22.8366 H   0  0  0  0  0  0  0  0  0  0  0  0
  1  2  1  0  0  0
  1  6  2  0  0  0
  1 25  1  0  0  0
  2  3  2  0  0  0
  3  4  1  0  0  0
  4  5  2  0  0  0
  4  7  1  0  0  0
  5  6  1  0  0  0
  5  8  1  0  0  0
 25 26  1  0  0  0
 25 27  2  0  0  0
  7  9  1  0  0  0
  8  9  2  0  0  0
  9 11  1  0  0  0
 11 12  2  0  0  0
 11 16  1  0  0  0
 12 13  1  0  0  0
 13 14  2  0  0  0
 14 15  1  0  0  0
 15 16  2  0  0  0
 15 19  1  0  0  0
 16 17  1  0  0  0
 19 20  2  0  0  0
 19 24  1  0  0  0
 20 21  1  0  0  0
 21 22  2  0  0  0
 22 23  1  0  0  0
 23 24  2  0  0  0
 26 28  1  0  0  0
 26 29  1  0  0  0
 27 30  1  0  0  0
  7 10  1  0  0  0
 17 18  1  0  0  0
M  END
> <minimizedAffinity>
-7.15617

$$$$
1GJC_130_B_251


 30 33  0  0  0  0  0  0  0  0999 V2000
    6.5471   11.1273   20.8831 C   0  0  0  0  0  0  0  0  0  0  0  0
    5.2338   11.1536   21.4213 C   0  0  0  0  0  0  0  0  0  0  0  0
    4.7955   10.2594   22.4148 C   0  0  0  0  0  0  0  0  0  0  0  0
    5.7121    9.3493   22.8432 C   0  0  0  0  0  0  0  0  0  0  0  0
    6.9612    9.2839   22.3657 C   0  0  0  0  0  0  0  0  0  0  0  0
    7.4361   10.1426   21.3896 C   0  0  0  0  0  0  0  0  0  0  0  0
    5.6051    8.4074   23.7212 N   0  0  0  0  0  0  0  0  0  0  0  0
    7.6733    8.3110   22.9177 N   0  0  0  0  0  0  0  0  0  0  0  0
    6.7583    7.8131   23.7485 C   0  0  0  0  0  0  0  0  0  0  0  0
    4.8111    8.1860   24.2595 H   0  0  0  0  0  0  0  0  0  0  0  0
    7.0295    6.7437   24.6433 C   0  0  0  0  0  0  0  0  0  0  0  0
    6.8288    6.8819   26.0230 C   0  0  0  0  0  0  0  0  0  0  0  0
    7.0841    5.8472   26.9115 C   0  0  0  0  0  0  0  0  0  0  0  0
    7.5520    4.6430   26.4424 C   0  0  0  0  0  0  0  0  0  0  0  0
    7.7811    4.4222   25.0822 C   0  0  0  0  0  0  0  0  0  0  0  0
    7.5134    5.4842   24.1960 C   0  0  0  0  0  0  0  0  0  0  0  0
    7.7408    5.2606   22.8534 O   0  0  0  0  0  0  0  0  0  0  0  0
    7.5756    5.9409   22.2306 H   0  0  0  0  0  0  0  0  0  0  0  0
    8.2460    3.1725   24.6801 C   0  0  0  0  0  0  0  0  0  0  0  0
    8.0033    2.0366   25.4479 C   0  0  0  0  0  0  0  0  0  0  0  0
    8.4938    0.7906   25.0902 C   0  0  0  0  0  0  0  0  0  0  0  0
    9.2469    0.6541   23.9359 C   0  0  0  0  0  0  0  0  0  0  0  0
    9.5021    1.7650   23.1451 C   0  0  0  0  0  0  0  0  0  0  0  0
    9.0059    3.0126   23.5111 C   0  0  0  0  0  0  0  0  0  0  0  0
    6.9440   12.0486   19.8958 C   0  0  0  0  0  0  0  0  0  0  0  0
    7.9066   11.7500   19.0574 N   0  0  0  0  0  0  0  0  0  0  0  0
    6.3505   13.2130   19.8146 N   0  0  0  0  0  0  0  0  0  0  0  0
    8.3556   10.8757   19.1147 H   0  0  0  0  0  0  0  0  0  0  0  0
    8.1803   12.3999   18.3705 H   0  0  0  0  0  0  0  0  0  0  0  0
    5.6271   13.4417   20.4421 H   0  0  0  0  0  0  0  0  0  0  0  0
  1  2  1  0  0  0
  1  6  2  0  0  0
  1 25  1  0  0  0
  2  3  2  0  0  0
  3  4  1  0  0  0
  4  5  2  0  0  0
  4  7  1  0  0  0
  5  6  1  0  0  0
  5  8  1  0  0  0
 25 26  1  0  0  0
 25 27  2  0  0  0
  7  9  1  0  0  0
  8  9  2  0  0  0
  9 11  1  0  0  0
 11 12  2  0  0  0
 11 16  1  0  0  0
 12 13  1  0  0  0
 13 14  2  0  0  0
 14 15  1  0  0  0
 15 16  2  0  0  0
 15 19  1  0  0  0
 16 17  1  0  0  0
 19 20  2  0  0  0
 19 24  1  0  0  0
 20 21  1  0  0  0
 21 22  2  0  0  0
 22 23  1  0  0  0
 23 24  2  0  0  0
 26 28  1  0  0  0
 26 29  1  0  0  0
 27 30  1  0  0  0
  7 10  1  0  0  0
 17 18  1  0  0  0
M  END
> <minimizedAffinity>
-7.07357

$$$$
