5CST_CDP_A_304


 32 33  0  0  0  0  0  0  0  0999 V2000
  -17.3254  -15.2596    6.4117 C   0  0  0  0  0  0  0  0  0  0  0  0
  -16.0781  -15.1197    5.7289 O   0  0  0  0  0  0  0  0  0  0  0  0
  -18.2223  -16.0604    5.4826 C   0  0  0  0  0  0  0  0  0  0  0  0
  -19.5984  -15.9881    5.8717 O   0  0  0  0  0  0  0  0  0  0  0  0
  -17.8710  -15.3755    4.1917 C   0  0  0  0  0  0  0  0  0  0  0  0
  -18.5477  -14.1052    4.1019 O   0  0  0  0  0  0  0  0  0  0  0  0
  -16.3539  -15.1476    4.3334 C   0  0  0  0  0  0  0  0  0  0  0  0
  -19.8680  -15.0585    5.9351 H   0  0  0  0  0  0  0  0  0  0  0  0
  -18.3233  -13.5640    4.8750 H   0  0  0  0  0  0  0  0  0  0  0  0
  -15.5028  -16.1759    3.6479 N   0  0  0  0  0  0  0  0  0  0  0  0
  -15.3656  -16.1307    2.2362 C   0  0  0  0  0  0  0  0  0  0  0  0
  -15.9609  -15.2802    1.5188 O   0  0  0  0  0  0  0  0  0  0  0  0
  -14.5863  -17.0659    1.6300 N   0  0  0  0  0  0  0  0  0  0  0  0
  -13.9811  -18.0229    2.3386 C   0  0  0  0  0  0  0  0  0  0  0  0
  -13.2411  -18.8738    1.6757 N   0  0  0  0  0  0  0  0  0  0  0  0
  -14.1049  -18.1139    3.7238 C   0  0  0  0  0  0  0  0  0  0  0  0
  -14.8885  -17.1571    4.3495 C   0  0  0  0  0  0  0  0  0  0  0  0
  -13.1615  -18.7991    0.6973 H   0  0  0  0  0  0  0  0  0  0  0  0
  -12.7636  -19.5889    2.1552 H   0  0  0  0  0  0  0  0  0  0  0  0
  -17.1272  -15.9225    7.7558 C   0  0  0  0  0  0  0  0  0  0  0  0
  -17.9796  -17.0122    8.0118 O   0  0  0  0  0  0  0  0  0  0  0  0
  -18.1840  -17.2763    9.5972 P   0  0  0  0  0  0  0  0  0  0  0  0
  -17.6369  -16.0288   10.2600 O   0  0  0  0  0  0  0  0  0  0  0  0
  -17.5261  -18.5943    9.9596 O   0  0  0  0  0  0  0  0  0  0  0  0
  -17.6419  -18.7636   10.9076 H   0  0  0  0  0  0  0  0  0  0  0  0
  -19.8286  -17.4636    9.6424 O   0  0  0  0  0  0  0  0  0  0  0  0
  -20.1368  -15.2198    8.6387 O   0  0  0  0  0  0  0  0  0  0  0  0
  -20.9626  -16.4091    9.1138 P   0  0  0  0  0  0  0  0  0  0  0  0
  -21.7003  -17.0447    7.9972 O   0  0  0  0  0  0  0  0  0  0  0  0
  -21.8830  -16.0724   10.2706 O   0  0  0  0  0  0  0  0  0  0  0  0
  -20.7286  -14.5294    8.3012 H   0  0  0  0  0  0  0  0  0  0  0  0
  -22.5618  -15.4471    9.9723 H   0  0  0  0  0  0  0  0  0  0  0  0
 27 28  1  0  0  0
 28 29  2  0  0  0
 28 30  1  0  0  0
 28 26  1  0  0  0
 26 22  1  0  0  0
 22 23  2  0  0  0
 22 24  1  0  0  0
 22 21  1  0  0  0
 21 20  1  0  0  0
 20  1  1  0  0  0
  1  2  1  0  0  0
  1  3  1  0  0  0
  2  7  1  0  0  0
  3  4  1  0  0  0
  3  5  1  0  0  0
  5  6  1  0  0  0
  5  7  1  0  0  0
  7 10  1  0  0  0
 10 11  1  0  0  0
 10 17  1  0  0  0
 11 12  2  0  0  0
 11 13  1  0  0  0
 13 14  2  0  0  0
 14 15  1  0  0  0
 14 16  1  0  0  0
 16 17  2  0  0  0
 27 31  1  0  0  0
 30 32  1  0  0  0
 24 25  1  0  0  0
  4  8  1  0  0  0
  6  9  1  0  0  0
 15 18  1  0  0  0
 15 19  1  0  0  0
M  END
> <minimizedAffinity>
-9.00410

$$$$
5CST_CDP_A_304


 32 33  0  0  0  0  0  0  0  0999 V2000
  -19.5964  -15.5595    8.9673 C   0  0  0  0  0  0  0  0  0  0  0  0
  -18.5525  -14.9120    8.2376 O   0  0  0  0  0  0  0  0  0  0  0  0
  -20.2194  -16.5586    8.0066 C   0  0  0  0  0  0  0  0  0  0  0  0
  -21.4864  -17.0340    8.4746 O   0  0  0  0  0  0  0  0  0  0  0  0
  -20.2592  -15.6907    6.7803 C   0  0  0  0  0  0  0  0  0  0  0  0
  -21.3573  -14.7596    6.8646 O   0  0  0  0  0  0  0  0  0  0  0  0
  -18.9233  -14.9278    6.8641 C   0  0  0  0  0  0  0  0  0  0  0  0
  -22.0693  -16.2794    8.6524 H   0  0  0  0  0  0  0  0  0  0  0  0
  -21.2771  -14.2380    7.6785 H   0  0  0  0  0  0  0  0  0  0  0  0
  -17.8212  -15.5079    6.0269 N   0  0  0  0  0  0  0  0  0  0  0  0
  -17.6279  -15.0244    4.7068 C   0  0  0  0  0  0  0  0  0  0  0  0
  -18.3695  -14.1468    4.1850 O   0  0  0  0  0  0  0  0  0  0  0  0
  -16.6214  -15.5558    3.9624 N   0  0  0  0  0  0  0  0  0  0  0  0
  -15.8447  -16.5281    4.4477 C   0  0  0  0  0  0  0  0  0  0  0  0
  -14.8933  -16.9725    3.6677 N   0  0  0  0  0  0  0  0  0  0  0  0
  -16.0130  -17.0437    5.7316 C   0  0  0  0  0  0  0  0  0  0  0  0
  -17.0297  -16.4988    6.5000 C   0  0  0  0  0  0  0  0  0  0  0  0
  -14.7846  -16.6003    2.7628 H   0  0  0  0  0  0  0  0  0  0  0  0
  -14.2860  -17.6792    3.9856 H   0  0  0  0  0  0  0  0  0  0  0  0
  -19.0505  -16.2074   10.2193 C   0  0  0  0  0  0  0  0  0  0  0  0
  -17.6639  -16.0612   10.4073 O   0  0  0  0  0  0  0  0  0  0  0  0
  -17.3046  -14.8768   11.4529 P   0  0  0  0  0  0  0  0  0  0  0  0
  -18.1072  -15.2133   12.6928 O   0  0  0  0  0  0  0  0  0  0  0  0
  -17.5866  -13.5414   10.7908 O   0  0  0  0  0  0  0  0  0  0  0  0
  -17.3750  -12.8235   11.4078 H   0  0  0  0  0  0  0  0  0  0  0  0
  -15.6662  -15.0878   11.5663 O   0  0  0  0  0  0  0  0  0  0  0  0
  -15.2607  -15.1032    9.1224 O   0  0  0  0  0  0  0  0  0  0  0  0
  -14.6554  -15.6509   10.4092 P   0  0  0  0  0  0  0  0  0  0  0  0
  -13.3068  -15.0918   10.6614 O   0  0  0  0  0  0  0  0  0  0  0  0
  -14.6517  -17.1658   10.4693 O   0  0  0  0  0  0  0  0  0  0  0  0
  -14.7238  -15.3872    8.3661 H   0  0  0  0  0  0  0  0  0  0  0  0
  -14.0559  -17.5150    9.7881 H   0  0  0  0  0  0  0  0  0  0  0  0
 27 28  1  0  0  0
 28 29  2  0  0  0
 28 30  1  0  0  0
 28 26  1  0  0  0
 26 22  1  0  0  0
 22 23  2  0  0  0
 22 24  1  0  0  0
 22 21  1  0  0  0
 21 20  1  0  0  0
 20  1  1  0  0  0
  1  2  1  0  0  0
  1  3  1  0  0  0
  2  7  1  0  0  0
  3  4  1  0  0  0
  3  5  1  0  0  0
  5  6  1  0  0  0
  5  7  1  0  0  0
  7 10  1  0  0  0
 10 11  1  0  0  0
 10 17  1  0  0  0
 11 12  2  0  0  0
 11 13  1  0  0  0
 13 14  2  0  0  0
 14 15  1  0  0  0
 14 16  1  0  0  0
 16 17  2  0  0  0
 27 31  1  0  0  0
 30 32  1  0  0  0
 24 25  1  0  0  0
  4  8  1  0  0  0
  6  9  1  0  0  0
 15 18  1  0  0  0
 15 19  1  0  0  0
M  END
> <minimizedAffinity>
-8.25914

$$$$
5CST_CDP_A_304


 32 33  0  0  0  0  0  0  0  0999 V2000
  -17.4840  -15.8290    6.6498 C   0  0  0  0  0  0  0  0  0  0  0  0
  -16.1776  -15.6489    6.0998 O   0  0  0  0  0  0  0  0  0  0  0  0
  -18.3420  -16.3706    5.5185 C   0  0  0  0  0  0  0  0  0  0  0  0
  -19.7400  -16.2774    5.8139 O   0  0  0  0  0  0  0  0  0  0  0  0
  -17.8455  -15.4767    4.4171 C   0  0  0  0  0  0  0  0  0  0  0  0
  -18.4408  -14.1682    4.5313 O   0  0  0  0  0  0  0  0  0  0  0  0
  -16.3355  -15.3881    4.7101 C   0  0  0  0  0  0  0  0  0  0  0  0
  -19.9622  -15.3606    6.0400 H   0  0  0  0  0  0  0  0  0  0  0  0
  -18.2531  -13.8031    5.4102 H   0  0  0  0  0  0  0  0  0  0  0  0
  -15.4876  -16.3230    3.8983 N   0  0  0  0  0  0  0  0  0  0  0  0
  -15.3922  -16.1288    2.4958 C   0  0  0  0  0  0  0  0  0  0  0  0
  -16.0221  -15.2202    1.8874 O   0  0  0  0  0  0  0  0  0  0  0  0
  -14.6153  -16.9806    1.7745 N   0  0  0  0  0  0  0  0  0  0  0  0
  -13.9739  -17.9939    2.3628 C   0  0  0  0  0  0  0  0  0  0  0  0
  -13.2394  -18.7567    1.5950 N   0  0  0  0  0  0  0  0  0  0  0  0
  -14.0560  -18.2307    3.7338 C   0  0  0  0  0  0  0  0  0  0  0  0
  -14.8370  -17.3594    4.4769 C   0  0  0  0  0  0  0  0  0  0  0  0
  -13.1894  -18.5794    0.6279 H   0  0  0  0  0  0  0  0  0  0  0  0
  -12.7364  -19.5083    1.9842 H   0  0  0  0  0  0  0  0  0  0  0  0
  -17.4372  -16.7506    7.8472 C   0  0  0  0  0  0  0  0  0  0  0  0
  -18.6504  -17.3970    8.1467 O   0  0  0  0  0  0  0  0  0  0  0  0
  -19.3839  -16.7620    9.4444 P   0  0  0  0  0  0  0  0  0  0  0  0
  -19.9886  -17.9547   10.1560 O   0  0  0  0  0  0  0  0  0  0  0  0
  -20.3393  -15.6784    8.9814 O   0  0  0  0  0  0  0  0  0  0  0  0
  -20.7850  -15.2902    9.7505 H   0  0  0  0  0  0  0  0  0  0  0  0
  -18.0833  -16.0541   10.1854 O   0  0  0  0  0  0  0  0  0  0  0  0
  -18.8995  -14.8301   12.1785 O   0  0  0  0  0  0  0  0  0  0  0  0
  -18.0395  -14.6034   10.9411 P   0  0  0  0  0  0  0  0  0  0  0  0
  -16.6319  -14.3105   11.2984 O   0  0  0  0  0  0  0  0  0  0  0  0
  -18.6071  -13.5554   10.0039 O   0  0  0  0  0  0  0  0  0  0  0  0
  -18.9360  -14.0136   12.7009 H   0  0  0  0  0  0  0  0  0  0  0  0
  -18.5878  -12.6885   10.4386 H   0  0  0  0  0  0  0  0  0  0  0  0
 27 28  1  0  0  0
 28 29  2  0  0  0
 28 30  1  0  0  0
 28 26  1  0  0  0
 26 22  1  0  0  0
 22 23  2  0  0  0
 22 24  1  0  0  0
 22 21  1  0  0  0
 21 20  1  0  0  0
 20  1  1  0  0  0
  1  2  1  0  0  0
  1  3  1  0  0  0
  2  7  1  0  0  0
  3  4  1  0  0  0
  3  5  1  0  0  0
  5  6  1  0  0  0
  5  7  1  0  0  0
  7 10  1  0  0  0
 10 11  1  0  0  0
 10 17  1  0  0  0
 11 12  2  0  0  0
 11 13  1  0  0  0
 13 14  2  0  0  0
 14 15  1  0  0  0
 14 16  1  0  0  0
 16 17  2  0  0  0
 27 31  1  0  0  0
 30 32  1  0  0  0
 24 25  1  0  0  0
  4  8  1  0  0  0
  6  9  1  0  0  0
 15 18  1  0  0  0
 15 19  1  0  0  0
M  END
> <minimizedAffinity>
-8.19899

$$$$
5CST_CDP_A_304


 32 33  0  0  0  0  0  0  0  0999 V2000
  -17.5787  -15.5585    6.6165 C   0  0  0  0  0  0  0  0  0  0  0  0
  -16.2732  -15.4033    6.0571 O   0  0  0  0  0  0  0  0  0  0  0  0
  -18.4325  -16.1723    5.5195 C   0  0  0  0  0  0  0  0  0  0  0  0
  -19.8312  -16.0704    5.8084 O   0  0  0  0  0  0  0  0  0  0  0  0
  -17.9410  -15.3427    4.3667 C   0  0  0  0  0  0  0  0  0  0  0  0
  -18.5447  -14.0335    4.4023 O   0  0  0  0  0  0  0  0  0  0  0  0
  -16.4318  -15.2272    4.6542 C   0  0  0  0  0  0  0  0  0  0  0  0
  -20.0595  -15.1433    5.9792 H   0  0  0  0  0  0  0  0  0  0  0  0
  -18.3599  -13.6154    5.2578 H   0  0  0  0  0  0  0  0  0  0  0  0
  -15.5775  -16.2034    3.9000 N   0  0  0  0  0  0  0  0  0  0  0  0
  -15.4550  -16.0719    2.4924 C   0  0  0  0  0  0  0  0  0  0  0  0
  -16.0658  -15.1861    1.8331 O   0  0  0  0  0  0  0  0  0  0  0  0
  -14.6726  -16.9607    1.8236 N   0  0  0  0  0  0  0  0  0  0  0  0
  -14.0508  -17.9522    2.4675 C   0  0  0  0  0  0  0  0  0  0  0  0
  -13.3090  -18.7538    1.7476 N   0  0  0  0  0  0  0  0  0  0  0  0
  -14.1597  -18.1277    3.8458 C   0  0  0  0  0  0  0  0  0  0  0  0
  -14.9464  -17.2185    4.5354 C   0  0  0  0  0  0  0  0  0  0  0  0
  -13.2401  -18.6196    0.7747 H   0  0  0  0  0  0  0  0  0  0  0  0
  -12.8197  -19.4914    2.1786 H   0  0  0  0  0  0  0  0  0  0  0  0
  -17.5268  -16.4065    7.8669 C   0  0  0  0  0  0  0  0  0  0  0  0
  -18.2655  -17.6023    7.8045 O   0  0  0  0  0  0  0  0  0  0  0  0
  -19.3311  -17.7332    9.0179 P   0  0  0  0  0  0  0  0  0  0  0  0
  -20.4293  -16.7524    8.6616 O   0  0  0  0  0  0  0  0  0  0  0  0
  -18.6043  -17.5070   10.3301 O   0  0  0  0  0  0  0  0  0  0  0  0
  -19.2327  -17.5829   11.0651 H   0  0  0  0  0  0  0  0  0  0  0  0
  -19.7160  -19.3380    8.8837 O   0  0  0  0  0  0  0  0  0  0  0  0
  -19.0051  -21.7086    8.7755 O   0  0  0  0  0  0  0  0  0  0  0  0
  -19.1400  -20.5758    9.7858 P   0  0  0  0  0  0  0  0  0  0  0  0
  -17.8249  -20.1736   10.3366 O   0  0  0  0  0  0  0  0  0  0  0  0
  -20.1387  -20.8741   10.8869 O   0  0  0  0  0  0  0  0  0  0  0  0
  -18.6648  -22.5002    9.2210 H   0  0  0  0  0  0  0  0  0  0  0  0
  -19.8107  -21.6070   11.4311 H   0  0  0  0  0  0  0  0  0  0  0  0
 27 28  1  0  0  0
 28 29  2  0  0  0
 28 30  1  0  0  0
 28 26  1  0  0  0
 26 22  1  0  0  0
 22 23  2  0  0  0
 22 24  1  0  0  0
 22 21  1  0  0  0
 21 20  1  0  0  0
 20  1  1  0  0  0
  1  2  1  0  0  0
  1  3  1  0  0  0
  2  7  1  0  0  0
  3  4  1  0  0  0
  3  5  1  0  0  0
  5  6  1  0  0  0
  5  7  1  0  0  0
  7 10  1  0  0  0
 10 11  1  0  0  0
 10 17  1  0  0  0
 11 12  2  0  0  0
 11 13  1  0  0  0
 13 14  2  0  0  0
 14 15  1  0  0  0
 14 16  1  0  0  0
 16 17  2  0  0  0
 27 31  1  0  0  0
 30 32  1  0  0  0
 24 25  1  0  0  0
  4  8  1  0  0  0
  6  9  1  0  0  0
 15 18  1  0  0  0
 15 19  1  0  0  0
M  END
> <minimizedAffinity>
-7.92375

$$$$
5CST_CDP_A_304


 32 33  0  0  0  0  0  0  0  0999 V2000
  -17.4125  -15.1490    6.3381 C   0  0  0  0  0  0  0  0  0  0  0  0
  -16.1451  -15.0372    5.6881 O   0  0  0  0  0  0  0  0  0  0  0  0
  -18.2964  -15.9477    5.3947 C   0  0  0  0  0  0  0  0  0  0  0  0
  -19.6812  -15.8491    5.7451 O   0  0  0  0  0  0  0  0  0  0  0  0
  -17.8993  -15.2848    4.1056 C   0  0  0  0  0  0  0  0  0  0  0  0
  -18.5531  -14.0055    3.9816 O   0  0  0  0  0  0  0  0  0  0  0  0
  -16.3832  -15.0786    4.2860 C   0  0  0  0  0  0  0  0  0  0  0  0
  -19.9378  -14.9147    5.7895 H   0  0  0  0  0  0  0  0  0  0  0  0
  -18.3413  -13.4580    4.7539 H   0  0  0  0  0  0  0  0  0  0  0  0
  -15.5301  -16.1287    3.6369 N   0  0  0  0  0  0  0  0  0  0  0  0
  -15.3813  -16.1238    2.2256 C   0  0  0  0  0  0  0  0  0  0  0  0
  -15.9678  -15.2920    1.4796 O   0  0  0  0  0  0  0  0  0  0  0  0
  -14.6004  -17.0782    1.6525 N   0  0  0  0  0  0  0  0  0  0  0  0
  -14.0043  -18.0168    2.3928 C   0  0  0  0  0  0  0  0  0  0  0  0
  -13.2618  -18.8885    1.7603 N   0  0  0  0  0  0  0  0  0  0  0  0
  -14.1397  -18.0683    3.7790 C   0  0  0  0  0  0  0  0  0  0  0  0
  -14.9250  -17.0916    4.3709 C   0  0  0  0  0  0  0  0  0  0  0  0
  -13.1741  -18.8417    0.7808 H   0  0  0  0  0  0  0  0  0  0  0  0
  -12.7908  -19.5913    2.2637 H   0  0  0  0  0  0  0  0  0  0  0  0
  -17.2615  -15.7977    7.6952 C   0  0  0  0  0  0  0  0  0  0  0  0
  -15.9354  -16.0679    8.0799 O   0  0  0  0  0  0  0  0  0  0  0  0
  -15.7389  -16.0261    9.6877 P   0  0  0  0  0  0  0  0  0  0  0  0
  -14.9883  -14.7350    9.9415 O   0  0  0  0  0  0  0  0  0  0  0  0
  -15.0665  -17.3124   10.1290 O   0  0  0  0  0  0  0  0  0  0  0  0
  -14.9433  -17.2992   11.0911 H   0  0  0  0  0  0  0  0  0  0  0  0
  -17.3237  -16.0537   10.1666 O   0  0  0  0  0  0  0  0  0  0  0  0
  -19.5272  -14.9651   10.4775 O   0  0  0  0  0  0  0  0  0  0  0  0
  -18.1144  -14.9237   11.0472 P   0  0  0  0  0  0  0  0  0  0  0  0
  -18.0845  -15.3409   12.4684 O   0  0  0  0  0  0  0  0  0  0  0  0
  -17.4277  -13.5875   10.8431 O   0  0  0  0  0  0  0  0  0  0  0  0
  -20.0822  -14.3194   10.9422 H   0  0  0  0  0  0  0  0  0  0  0  0
  -17.8859  -12.9063   11.3598 H   0  0  0  0  0  0  0  0  0  0  0  0
 27 28  1  0  0  0
 28 29  2  0  0  0
 28 30  1  0  0  0
 28 26  1  0  0  0
 26 22  1  0  0  0
 22 23  2  0  0  0
 22 24  1  0  0  0
 22 21  1  0  0  0
 21 20  1  0  0  0
 20  1  1  0  0  0
  1  2  1  0  0  0
  1  3  1  0  0  0
  2  7  1  0  0  0
  3  4  1  0  0  0
  3  5  1  0  0  0
  5  6  1  0  0  0
  5  7  1  0  0  0
  7 10  1  0  0  0
 10 11  1  0  0  0
 10 17  1  0  0  0
 11 12  2  0  0  0
 11 13  1  0  0  0
 13 14  2  0  0  0
 14 15  1  0  0  0
 14 16  1  0  0  0
 16 17  2  0  0  0
 27 31  1  0  0  0
 30 32  1  0  0  0
 24 25  1  0  0  0
  4  8  1  0  0  0
  6  9  1  0  0  0
 15 18  1  0  0  0
 15 19  1  0  0  0
M  END
> <minimizedAffinity>
-7.86524

$$$$
5CST_CDP_A_304


 32 33  0  0  0  0  0  0  0  0999 V2000
  -18.4294  -15.7776    8.2759 C   0  0  0  0  0  0  0  0  0  0  0  0
  -17.7107  -15.0661    7.2666 O   0  0  0  0  0  0  0  0  0  0  0  0
  -19.0044  -17.0063    7.5911 C   0  0  0  0  0  0  0  0  0  0  0  0
  -20.0246  -17.6307    8.3782 O   0  0  0  0  0  0  0  0  0  0  0  0
  -19.4676  -16.3539    6.3189 C   0  0  0  0  0  0  0  0  0  0  0  0
  -20.6987  -15.6382    6.5460 O   0  0  0  0  0  0  0  0  0  0  0  0
  -18.3332  -15.3551    6.0203 C   0  0  0  0  0  0  0  0  0  0  0  0
  -20.7070  -16.9779    8.5997 H   0  0  0  0  0  0  0  0  0  0  0  0
  -20.5717  -14.9949    7.2607 H   0  0  0  0  0  0  0  0  0  0  0  0
  -17.3207  -15.8416    5.0252 N   0  0  0  0  0  0  0  0  0  0  0  0
  -17.4950  -15.5292    3.6520 C   0  0  0  0  0  0  0  0  0  0  0  0
  -18.4906  -14.8863    3.2185 O   0  0  0  0  0  0  0  0  0  0  0  0
  -16.5661  -15.9722    2.7631 N   0  0  0  0  0  0  0  0  0  0  0  0
  -15.5243  -16.7062    3.1634 C   0  0  0  0  0  0  0  0  0  0  0  0
  -14.6732  -17.0798    2.2430 N   0  0  0  0  0  0  0  0  0  0  0  0
  -15.3264  -17.0507    4.4993 C   0  0  0  0  0  0  0  0  0  0  0  0
  -16.2632  -16.5928    5.4123 C   0  0  0  0  0  0  0  0  0  0  0  0
  -14.8239  -16.8303    1.3027 H   0  0  0  0  0  0  0  0  0  0  0  0
  -13.8818  -17.6106    2.4906 H   0  0  0  0  0  0  0  0  0  0  0  0
  -17.5232  -16.1196    9.4365 C   0  0  0  0  0  0  0  0  0  0  0  0
  -17.3646  -15.0952   10.3878 O   0  0  0  0  0  0  0  0  0  0  0  0
  -15.8067  -14.7927   10.7147 P   0  0  0  0  0  0  0  0  0  0  0  0
  -15.0833  -15.1057    9.4211 O   0  0  0  0  0  0  0  0  0  0  0  0
  -15.4032  -15.5903   11.9404 O   0  0  0  0  0  0  0  0  0  0  0  0
  -14.4712  -15.4173   12.1463 H   0  0  0  0  0  0  0  0  0  0  0  0
  -15.9097  -13.1913   11.1227 O   0  0  0  0  0  0  0  0  0  0  0  0
  -15.6119  -10.9851   12.2096 O   0  0  0  0  0  0  0  0  0  0  0  0
  -15.1250  -12.4235   12.3361 P   0  0  0  0  0  0  0  0  0  0  0  0
  -15.5468  -13.0338   13.6185 O   0  0  0  0  0  0  0  0  0  0  0  0
  -13.6326  -12.5701   12.1124 O   0  0  0  0  0  0  0  0  0  0  0  0
  -15.1963  -10.4414   12.8970 H   0  0  0  0  0  0  0  0  0  0  0  0
  -13.1531  -12.1193   12.8250 H   0  0  0  0  0  0  0  0  0  0  0  0
 27 28  1  0  0  0
 28 29  2  0  0  0
 28 30  1  0  0  0
 28 26  1  0  0  0
 26 22  1  0  0  0
 22 23  2  0  0  0
 22 24  1  0  0  0
 22 21  1  0  0  0
 21 20  1  0  0  0
 20  1  1  0  0  0
  1  2  1  0  0  0
  1  3  1  0  0  0
  2  7  1  0  0  0
  3  4  1  0  0  0
  3  5  1  0  0  0
  5  6  1  0  0  0
  5  7  1  0  0  0
  7 10  1  0  0  0
 10 11  1  0  0  0
 10 17  1  0  0  0
 11 12  2  0  0  0
 11 13  1  0  0  0
 13 14  2  0  0  0
 14 15  1  0  0  0
 14 16  1  0  0  0
 16 17  2  0  0  0
 27 31  1  0  0  0
 30 32  1  0  0  0
 24 25  1  0  0  0
  4  8  1  0  0  0
  6  9  1  0  0  0
 15 18  1  0  0  0
 15 19  1  0  0  0
M  END
> <minimizedAffinity>
-7.65264

$$$$
5CST_CDP_A_304


 32 33  0  0  0  0  0  0  0  0999 V2000
  -17.3417  -15.0813    6.3489 C   0  0  0  0  0  0  0  0  0  0  0  0
  -16.0926  -14.9734    5.6638 O   0  0  0  0  0  0  0  0  0  0  0  0
  -18.2402  -15.9144    5.4500 C   0  0  0  0  0  0  0  0  0  0  0  0
  -19.6167  -15.8213    5.8330 O   0  0  0  0  0  0  0  0  0  0  0  0
  -17.8835  -15.2820    4.1340 C   0  0  0  0  0  0  0  0  0  0  0  0
  -18.5547  -14.0135    3.9930 O   0  0  0  0  0  0  0  0  0  0  0  0
  -16.3658  -15.0548    4.2699 C   0  0  0  0  0  0  0  0  0  0  0  0
  -19.8826  -14.8888    5.8593 H   0  0  0  0  0  0  0  0  0  0  0  0
  -18.3297  -13.4433    4.7448 H   0  0  0  0  0  0  0  0  0  0  0  0
  -15.5175  -16.1127    3.6270 N   0  0  0  0  0  0  0  0  0  0  0  0
  -15.3640  -16.1135    2.2163 C   0  0  0  0  0  0  0  0  0  0  0  0
  -15.9424  -15.2802    1.4655 O   0  0  0  0  0  0  0  0  0  0  0  0
  -14.5875  -17.0750    1.6489 N   0  0  0  0  0  0  0  0  0  0  0  0
  -14.0002  -18.0151    2.3943 C   0  0  0  0  0  0  0  0  0  0  0  0
  -13.2614  -18.8937    1.7671 N   0  0  0  0  0  0  0  0  0  0  0  0
  -14.1405  -18.0611    3.7801 C   0  0  0  0  0  0  0  0  0  0  0  0
  -14.9213  -17.0772    4.3662 C   0  0  0  0  0  0  0  0  0  0  0  0
  -13.1701  -18.8508    0.7878 H   0  0  0  0  0  0  0  0  0  0  0  0
  -12.7968  -19.5980    2.2744 H   0  0  0  0  0  0  0  0  0  0  0  0
  -17.1490  -15.6919    7.7183 C   0  0  0  0  0  0  0  0  0  0  0  0
  -17.5543  -17.0344    7.8323 O   0  0  0  0  0  0  0  0  0  0  0  0
  -16.7863  -17.8111    9.0290 P   0  0  0  0  0  0  0  0  0  0  0  0
  -15.6330  -18.5135    8.3423 O   0  0  0  0  0  0  0  0  0  0  0  0
  -17.7865  -18.6844    9.7626 O   0  0  0  0  0  0  0  0  0  0  0  0
  -17.3380  -19.1552   10.4824 H   0  0  0  0  0  0  0  0  0  0  0  0
  -16.3866  -16.5236    9.9903 O   0  0  0  0  0  0  0  0  0  0  0  0
  -14.2800  -17.6172   10.6996 O   0  0  0  0  0  0  0  0  0  0  0  0
  -14.9614  -16.2550   10.7479 P   0  0  0  0  0  0  0  0  0  0  0  0
  -14.2105  -15.2393    9.9738 O   0  0  0  0  0  0  0  0  0  0  0  0
  -15.2484  -15.7813   12.1593 O   0  0  0  0  0  0  0  0  0  0  0  0
  -13.4131  -17.5606   11.1310 H   0  0  0  0  0  0  0  0  0  0  0  0
  -14.4117  -15.6176   12.6219 H   0  0  0  0  0  0  0  0  0  0  0  0
 27 28  1  0  0  0
 28 29  2  0  0  0
 28 30  1  0  0  0
 28 26  1  0  0  0
 26 22  1  0  0  0
 22 23  2  0  0  0
 22 24  1  0  0  0
 22 21  1  0  0  0
 21 20  1  0  0  0
 20  1  1  0  0  0
  1  2  1  0  0  0
  1  3  1  0  0  0
  2  7  1  0  0  0
  3  4  1  0  0  0
  3  5  1  0  0  0
  5  6  1  0  0  0
  5  7  1  0  0  0
  7 10  1  0  0  0
 10 11  1  0  0  0
 10 17  1  0  0  0
 11 12  2  0  0  0
 11 13  1  0  0  0
 13 14  2  0  0  0
 14 15  1  0  0  0
 14 16  1  0  0  0
 16 17  2  0  0  0
 27 31  1  0  0  0
 30 32  1  0  0  0
 24 25  1  0  0  0
  4  8  1  0  0  0
  6  9  1  0  0  0
 15 18  1  0  0  0
 15 19  1  0  0  0
M  END
> <minimizedAffinity>
-7.54110

$$$$
5CST_CDP_A_304


 32 33  0  0  0  0  0  0  0  0999 V2000
  -19.4832  -16.1260    8.8554 C   0  0  0  0  0  0  0  0  0  0  0  0
  -18.3976  -15.4128    8.2601 O   0  0  0  0  0  0  0  0  0  0  0  0
  -20.1791  -16.8532    7.7169 C   0  0  0  0  0  0  0  0  0  0  0  0
  -21.4755  -17.3277    8.0967 O   0  0  0  0  0  0  0  0  0  0  0  0
  -20.1600  -15.7445    6.7023 C   0  0  0  0  0  0  0  0  0  0  0  0
  -21.1882  -14.7785    7.0010 O   0  0  0  0  0  0  0  0  0  0  0  0
  -18.7726  -15.1115    6.9211 C   0  0  0  0  0  0  0  0  0  0  0  0
  -22.0023  -16.5892    8.4402 H   0  0  0  0  0  0  0  0  0  0  0  0
  -21.0684  -14.4479    7.9050 H   0  0  0  0  0  0  0  0  0  0  0  0
  -17.7174  -15.5761    5.9606 N   0  0  0  0  0  0  0  0  0  0  0  0
  -17.6288  -14.9663    4.6823 C   0  0  0  0  0  0  0  0  0  0  0  0
  -18.4268  -14.0678    4.2971 O   0  0  0  0  0  0  0  0  0  0  0  0
  -16.6637  -15.3942    3.8251 N   0  0  0  0  0  0  0  0  0  0  0  0
  -15.8309  -16.3824    4.1628 C   0  0  0  0  0  0  0  0  0  0  0  0
  -14.9253  -16.7222    3.2821 N   0  0  0  0  0  0  0  0  0  0  0  0
  -15.8962  -17.0201    5.4003 C   0  0  0  0  0  0  0  0  0  0  0  0
  -16.8702  -16.5813    6.2834 C   0  0  0  0  0  0  0  0  0  0  0  0
  -14.8894  -16.2642    2.4113 H   0  0  0  0  0  0  0  0  0  0  0  0
  -14.2798  -17.4358    3.4900 H   0  0  0  0  0  0  0  0  0  0  0  0
  -18.9815  -17.0608    9.9324 C   0  0  0  0  0  0  0  0  0  0  0  0
  -19.8571  -18.1119   10.2613 O   0  0  0  0  0  0  0  0  0  0  0  0
  -19.1586  -19.2215   11.2132 P   0  0  0  0  0  0  0  0  0  0  0  0
  -19.4166  -18.7253   12.6211 O   0  0  0  0  0  0  0  0  0  0  0  0
  -17.7096  -19.3801   10.7931 O   0  0  0  0  0  0  0  0  0  0  0  0
  -17.2803  -20.0427   11.3565 H   0  0  0  0  0  0  0  0  0  0  0  0
  -20.0058  -20.5660   10.7480 O   0  0  0  0  0  0  0  0  0  0  0  0
  -20.4533  -20.2112    8.3375 O   0  0  0  0  0  0  0  0  0  0  0  0
  -19.9748  -21.3026    9.2872 P   0  0  0  0  0  0  0  0  0  0  0  0
  -18.5776  -21.7037    9.0012 O   0  0  0  0  0  0  0  0  0  0  0  0
  -20.9014  -22.5018    9.3333 O   0  0  0  0  0  0  0  0  0  0  0  0
  -20.4698  -20.5559    7.4309 H   0  0  0  0  0  0  0  0  0  0  0  0
  -20.8937  -22.9496    8.4729 H   0  0  0  0  0  0  0  0  0  0  0  0
 27 28  1  0  0  0
 28 29  2  0  0  0
 28 30  1  0  0  0
 28 26  1  0  0  0
 26 22  1  0  0  0
 22 23  2  0  0  0
 22 24  1  0  0  0
 22 21  1  0  0  0
 21 20  1  0  0  0
 20  1  1  0  0  0
  1  2  1  0  0  0
  1  3  1  0  0  0
  2  7  1  0  0  0
  3  4  1  0  0  0
  3  5  1  0  0  0
  5  6  1  0  0  0
  5  7  1  0  0  0
  7 10  1  0  0  0
 10 11  1  0  0  0
 10 17  1  0  0  0
 11 12  2  0  0  0
 11 13  1  0  0  0
 13 14  2  0  0  0
 14 15  1  0  0  0
 14 16  1  0  0  0
 16 17  2  0  0  0
 27 31  1  0  0  0
 30 32  1  0  0  0
 24 25  1  0  0  0
  4  8  1  0  0  0
  6  9  1  0  0  0
 15 18  1  0  0  0
 15 19  1  0  0  0
M  END
> <minimizedAffinity>
-7.46790

$$$$
5CST_CDP_A_304


 32 33  0  0  0  0  0  0  0  0999 V2000
  -16.9594  -15.5763    9.8827 C   0  0  0  0  0  0  0  0  0  0  0  0
  -17.7840  -15.1772    8.7863 O   0  0  0  0  0  0  0  0  0  0  0  0
  -16.2542  -16.8454    9.4342 C   0  0  0  0  0  0  0  0  0  0  0  0
  -15.6650  -17.5485   10.5336 O   0  0  0  0  0  0  0  0  0  0  0  0
  -17.4208  -17.5247    8.7735 C   0  0  0  0  0  0  0  0  0  0  0  0
  -18.2900  -18.1018    9.7690 O   0  0  0  0  0  0  0  0  0  0  0  0
  -18.1380  -16.3555    8.0719 C   0  0  0  0  0  0  0  0  0  0  0  0
  -16.3413  -17.7200   11.2075 H   0  0  0  0  0  0  0  0  0  0  0  0
  -18.5729  -17.4124   10.3899 H   0  0  0  0  0  0  0  0  0  0  0  0
  -17.8100  -16.2077    6.6150 N   0  0  0  0  0  0  0  0  0  0  0  0
  -18.6672  -15.4365    5.7878 C   0  0  0  0  0  0  0  0  0  0  0  0
  -19.7230  -14.8936    6.2157 O   0  0  0  0  0  0  0  0  0  0  0  0
  -18.3535  -15.3069    4.4709 N   0  0  0  0  0  0  0  0  0  0  0  0
  -17.2784  -15.9097    3.9561 C   0  0  0  0  0  0  0  0  0  0  0  0
  -17.0455  -15.7215    2.6828 N   0  0  0  0  0  0  0  0  0  0  0  0
  -16.4216  -16.6908    4.7296 C   0  0  0  0  0  0  0  0  0  0  0  0
  -16.7289  -16.8178    6.0751 C   0  0  0  0  0  0  0  0  0  0  0  0
  -17.6581  -15.1676    2.1469 H   0  0  0  0  0  0  0  0  0  0  0  0
  -16.2575  -16.1337    2.2603 H   0  0  0  0  0  0  0  0  0  0  0  0
  -15.9998  -14.4706   10.2596 C   0  0  0  0  0  0  0  0  0  0  0  0
  -15.6260  -14.4455   11.6158 O   0  0  0  0  0  0  0  0  0  0  0  0
  -14.0181  -14.4074   11.8119 P   0  0  0  0  0  0  0  0  0  0  0  0
  -13.4785  -15.2207   10.6533 O   0  0  0  0  0  0  0  0  0  0  0  0
  -13.6869  -14.8951   13.2096 O   0  0  0  0  0  0  0  0  0  0  0  0
  -12.7258  -14.8768   13.3392 H   0  0  0  0  0  0  0  0  0  0  0  0
  -13.7632  -12.7731   11.7359 O   0  0  0  0  0  0  0  0  0  0  0  0
  -15.0298  -12.2132   13.7899 O   0  0  0  0  0  0  0  0  0  0  0  0
  -14.6477  -11.5961   12.4500 P   0  0  0  0  0  0  0  0  0  0  0  0
  -13.7814  -10.4066   12.6219 O   0  0  0  0  0  0  0  0  0  0  0  0
  -15.8444  -11.2926   11.5699 O   0  0  0  0  0  0  0  0  0  0  0  0
  -15.5649  -11.5818   14.2957 H   0  0  0  0  0  0  0  0  0  0  0  0
  -16.3793  -10.5955   11.9807 H   0  0  0  0  0  0  0  0  0  0  0  0
 27 28  1  0  0  0
 28 29  2  0  0  0
 28 30  1  0  0  0
 28 26  1  0  0  0
 26 22  1  0  0  0
 22 23  2  0  0  0
 22 24  1  0  0  0
 22 21  1  0  0  0
 21 20  1  0  0  0
 20  1  1  0  0  0
  1  2  1  0  0  0
  1  3  1  0  0  0
  2  7  1  0  0  0
  3  4  1  0  0  0
  3  5  1  0  0  0
  5  6  1  0  0  0
  5  7  1  0  0  0
  7 10  1  0  0  0
 10 11  1  0  0  0
 10 17  1  0  0  0
 11 12  2  0  0  0
 11 13  1  0  0  0
 13 14  2  0  0  0
 14 15  1  0  0  0
 14 16  1  0  0  0
 16 17  2  0  0  0
 27 31  1  0  0  0
 30 32  1  0  0  0
 24 25  1  0  0  0
  4  8  1  0  0  0
  6  9  1  0  0  0
 15 18  1  0  0  0
 15 19  1  0  0  0
M  END
> <minimizedAffinity>
-7.44788

$$$$
5CST_CDP_A_304


 32 33  0  0  0  0  0  0  0  0999 V2000
  -18.5460  -15.9140    8.3082 C   0  0  0  0  0  0  0  0  0  0  0  0
  -17.7549  -15.1927    7.3621 O   0  0  0  0  0  0  0  0  0  0  0  0
  -19.1521  -17.0789    7.5435 C   0  0  0  0  0  0  0  0  0  0  0  0
  -20.2313  -17.6879    8.2610 O   0  0  0  0  0  0  0  0  0  0  0  0
  -19.5332  -16.3450    6.2886 C   0  0  0  0  0  0  0  0  0  0  0  0
  -20.7365  -15.5802    6.5049 O   0  0  0  0  0  0  0  0  0  0  0  0
  -18.3412  -15.3912    6.0811 C   0  0  0  0  0  0  0  0  0  0  0  0
  -20.8896  -17.0129    8.4890 H   0  0  0  0  0  0  0  0  0  0  0  0
  -20.6066  -14.9784    7.2545 H   0  0  0  0  0  0  0  0  0  0  0  0
  -17.3152  -15.8804    5.1014 N   0  0  0  0  0  0  0  0  0  0  0  0
  -17.4575  -15.5509    3.7284 C   0  0  0  0  0  0  0  0  0  0  0  0
  -18.4356  -14.8902    3.2821 O   0  0  0  0  0  0  0  0  0  0  0  0
  -16.5165  -15.9965    2.8536 N   0  0  0  0  0  0  0  0  0  0  0  0
  -15.4927  -16.7485    3.2667 C   0  0  0  0  0  0  0  0  0  0  0  0
  -14.6280  -17.1235    2.3596 N   0  0  0  0  0  0  0  0  0  0  0  0
  -15.3265  -17.1100    4.6025 C   0  0  0  0  0  0  0  0  0  0  0  0
  -16.2757  -16.6496    5.5014 C   0  0  0  0  0  0  0  0  0  0  0  0
  -14.7564  -16.8618    1.4192 H   0  0  0  0  0  0  0  0  0  0  0  0
  -13.8489  -17.6673    2.6173 H   0  0  0  0  0  0  0  0  0  0  0  0
  -17.7033  -16.3551    9.4833 C   0  0  0  0  0  0  0  0  0  0  0  0
  -17.5428  -15.3898   10.4943 O   0  0  0  0  0  0  0  0  0  0  0  0
  -16.0214  -14.8402   10.5864 P   0  0  0  0  0  0  0  0  0  0  0  0
  -16.1644  -13.4209   11.0962 O   0  0  0  0  0  0  0  0  0  0  0  0
  -15.3554  -15.0235    9.2358 O   0  0  0  0  0  0  0  0  0  0  0  0
  -14.4428  -14.6977    9.2784 H   0  0  0  0  0  0  0  0  0  0  0  0
  -15.3890  -15.9372   11.6533 O   0  0  0  0  0  0  0  0  0  0  0  0
  -13.5632  -16.4484   13.2477 O   0  0  0  0  0  0  0  0  0  0  0  0
  -13.8376  -16.4485   11.7487 P   0  0  0  0  0  0  0  0  0  0  0  0
  -13.7649  -17.8140   11.1787 O   0  0  0  0  0  0  0  0  0  0  0  0
  -12.9626  -15.4763   10.9820 O   0  0  0  0  0  0  0  0  0  0  0  0
  -12.6530  -16.7419   13.4098 H   0  0  0  0  0  0  0  0  0  0  0  0
  -12.0383  -15.7665   11.0294 H   0  0  0  0  0  0  0  0  0  0  0  0
 27 28  1  0  0  0
 28 29  2  0  0  0
 28 30  1  0  0  0
 28 26  1  0  0  0
 26 22  1  0  0  0
 22 23  2  0  0  0
 22 24  1  0  0  0
 22 21  1  0  0  0
 21 20  1  0  0  0
 20  1  1  0  0  0
  1  2  1  0  0  0
  1  3  1  0  0  0
  2  7  1  0  0  0
  3  4  1  0  0  0
  3  5  1  0  0  0
  5  6  1  0  0  0
  5  7  1  0  0  0
  7 10  1  0  0  0
 10 11  1  0  0  0
 10 17  1  0  0  0
 11 12  2  0  0  0
 11 13  1  0  0  0
 13 14  2  0  0  0
 14 15  1  0  0  0
 14 16  1  0  0  0
 16 17  2  0  0  0
 27 31  1  0  0  0
 30 32  1  0  0  0
 24 25  1  0  0  0
  4  8  1  0  0  0
  6  9  1  0  0  0
 15 18  1  0  0  0
 15 19  1  0  0  0
M  END
> <minimizedAffinity>
-7.32329

$$$$
