1UWF_DEG_A_1159
  RCSB PDB12061704163D
Coordinates from PDB:1UWF:A:1159 Model:1 without hydrogens
 16 16  0  0  0  0            999 V2000
    9.6880   14.7890   40.6340   C 0  0  0  0  0  0  0  0  0  0  0  0
    9.6030   14.0160   41.9330   C 0  0  0  0  0  0  0  0  0  0  0  0
    9.0430   15.4140   38.1340   C 0  0  0  0  0  0  0  0  0  0  0  0
    8.8570   14.5640   39.3790   C 0  0  0  0  0  0  0  0  0  0  0  0
    7.2140   14.8730   34.8130   C 0  0  0  0  0  0  0  0  0  0  0  0
    7.4110   15.3800   33.5040   O 0  0  0  0  0  0  0  0  0  0  0  0
    7.3680   13.2960   34.7580   C 0  0  0  0  0  0  0  0  0  0  0  0
    6.3800   12.7570   33.8740   O 0  0  0  0  0  0  0  0  0  0  0  0
    8.7660   12.9250   34.2330   C 0  0  0  0  0  0  0  0  0  0  0  0
    8.9190   11.4860   34.1850   O 0  0  0  0  0  0  0  0  0  0  0  0
    9.8510   13.5190   35.1970   C 0  0  0  0  0  0  0  0  0  0  0  0
    9.6810   15.0020   35.2810   O 0  0  0  0  0  0  0  0  0  0  0  0
   11.2620   13.2090   34.7100   C 0  0  0  0  0  0  0  0  0  0  0  0
   11.5150   13.7850   33.4460   O 0  0  0  0  0  0  0  0  0  0  0  0
    8.1120   14.9640   37.1100   O 0  0  0  0  0  0  0  0  0  0  0  0
    8.3350   15.4590   35.7760   C 0  0  0  0  0  0  0  0  0  0  0  0
  1  2  1  0  0  0  0
  1  4  1  0  0  0  0
  3  4  1  0  0  0  0
  3 15  1  0  0  0  0
  5  6  1  0  0  0  0
  5  7  1  0  0  0  0
  5 16  1  0  0  0  0
  7  8  1  0  0  0  0
  7  9  1  0  0  0  0
  9 10  1  0  0  0  0
  9 11  1  0  0  0  0
 11 12  1  0  0  0  0
 11 13  1  0  0  0  0
 12 16  1  0  0  0  0
 13 14  1  0  0  0  0
 15 16  1  0  0  0  0
A    1
C3'
A    2
C4'
A    3
C1'
A    4
C2'
A    5
C2
A    6
O2
A    7
C3
A    8
O3
A    9
C4
A   10
O4
A   11
C5
A   12
O5
A   13
C6
A   14
O6
A   15
O1
A   16
C1
M  END
>  <InstanceId>
1UWF_DEG_A_1159

>  <ChemCompId>
DEG

>  <PdbId>
1UWF

>  <ChainId>
A

>  <ResidueNumber>
1159

>  <InsertionCode>


>  <Model>
1

>  <AltIds>


>  <MissingHeavyAtoms>
0

>  <ObservedFormula>
C10 O6

>  <Name>
BUTYL ALPHA-D-MANNOPYRANOSIDE

>  <SystematicName>
(2S,3S,4S,5S,6R)-2-butoxy-6-(hydroxymethyl)oxane-3,4,5-triol

>  <Synonyms>
BUTYL-A-D-MANNOSE

>  <Type>
NON-POLYMER

>  <Formula>
C10 H20 O6

>  <MolecularWeight>
236.262

>  <ModifiedDate>
2011-06-04

>  <Parent>


>  <OneLetterCode>


>  <SubcomponentList>


>  <AmbiguousFlag>
N

>  <InChI>
InChI=1S/C10H20O6/c1-2-3-4-15-10-9(14)8(13)7(12)6(5-11)16-10/h6-14H,2-5H2,1H3/t6-,7-,8+,9+,10+/m1/s1

>  <InChIKey>
BZANQLIRVMZFOS-ZJDVBMNYSA-N

>  <SMILES>
CCCCO[C@@H]1[C@H]([C@H]([C@@H]([C@H](O1)CO)O)O)O

$$$$
