2QI1_MZ4_A_200


 44 47  0  0  0  0  0  0  0  0999 V2000
   19.9696   29.5922   15.3884 C   0  0  0  0  0  0  0  0  0  0  0  0
   20.0146   28.4682   16.2776 O   0  0  0  0  0  0  0  0  0  0  0  0
   19.1435   28.0423   16.3047 H   0  0  0  0  0  0  0  0  0  0  0  0
   18.9195   30.5996   15.9167 C   0  0  0  0  0  0  0  0  0  0  0  0
   19.1787   31.9235   15.3116 N   0  0  0  0  0  0  0  0  0  0  0  0
   17.1717   31.5548   13.8820 O   0  0  0  0  0  0  0  0  0  0  0  0
   17.9174   32.5941   14.5321 S   0  0  0  0  0  0  0  0  0  0  0  0
   18.4789   33.4664   13.5383 O   0  0  0  0  0  0  0  0  0  0  0  0
   16.9434   33.4532   15.5143 C   0  0  0  0  0  0  0  0  0  0  0  0
   15.9479   32.8340   16.2795 C   0  0  0  0  0  0  0  0  0  0  0  0
   15.1251   33.5861   17.1227 C   0  0  0  0  0  0  0  0  0  0  0  0
   15.2813   34.9664   17.2271 C   0  0  0  0  0  0  0  0  0  0  0  0
   16.2714   35.6018   16.4746 C   0  0  0  0  0  0  0  0  0  0  0  0
   17.0875   34.8403   15.6279 C   0  0  0  0  0  0  0  0  0  0  0  0
   16.4664   36.9619   16.5415 O   0  0  0  0  0  0  0  0  0  0  0  0
   16.2494   37.7300   17.7224 C   0  0  0  0  0  0  0  0  0  0  0  0
   19.9440   32.8174   16.2224 C   0  0  0  0  0  0  0  0  0  0  0  0
   21.4135   32.7914   15.7547 C   0  0  0  0  0  0  0  0  0  0  0  0
   21.8604   32.5756   14.1415 S   0  0  0  0  0  0  0  0  0  0  0  0
   23.4637   32.6623   14.5962 C   0  0  0  0  0  0  0  0  0  0  0  0
   23.6851   32.8780   15.9150 C   0  0  0  0  0  0  0  0  0  0  0  0
   22.4490   32.9291   16.6219 C   0  0  0  0  0  0  0  0  0  0  0  0
   19.6589   29.1681   13.9416 C   0  0  0  0  0  0  0  0  0  0  0  0
   20.7167   28.2721   13.4550 N   0  0  0  0  0  0  0  0  0  0  0  0
   21.5201   28.6289   12.4217 C   0  0  0  0  0  0  0  0  0  0  0  0
   21.4644   29.6939   11.8200 O   0  0  0  0  0  0  0  0  0  0  0  0
   20.8449   27.3967   13.8867 H   0  0  0  0  0  0  0  0  0  0  0  0
   22.5557   27.6394   11.9286 C   0  0  0  0  0  0  0  0  0  0  0  0
   23.8840   27.7181   12.3323 C   0  0  0  0  0  0  0  0  0  0  0  0
   24.7886   26.7717   11.8811 C   0  0  0  0  0  0  0  0  0  0  0  0
   22.1378   26.6223   11.0850 C   0  0  0  0  0  0  0  0  0  0  0  0
   23.0394   25.6840   10.6232 C   0  0  0  0  0  0  0  0  0  0  0  0
   22.6374   24.6878    9.7752 O   0  0  0  0  0  0  0  0  0  0  0  0
   24.3629   25.7565   11.0330 C   0  0  0  0  0  0  0  0  0  0  0  0
   25.2495   24.8319   10.5635 O   0  0  0  0  0  0  0  0  0  0  0  0
   21.7433   24.6399    9.4991 H   0  0  0  0  0  0  0  0  0  0  0  0
   26.1472   24.8660   10.8299 H   0  0  0  0  0  0  0  0  0  0  0  0
   18.3395   28.3813   13.7864 C   0  0  0  0  0  0  0  0  0  0  0  0
   18.1627   27.8838   12.3346 C   0  0  0  0  0  0  0  0  0  0  0  0
   18.3444   26.5343   12.0045 C   0  0  0  0  0  0  0  0  0  0  0  0
   18.1942   26.0804   10.6921 C   0  0  0  0  0  0  0  0  0  0  0  0
   17.8538   26.9806    9.6874 C   0  0  0  0  0  0  0  0  0  0  0  0
   17.6728   28.3231   10.0077 C   0  0  0  0  0  0  0  0  0  0  0  0
   17.8232   28.7691   11.3176 C   0  0  0  0  0  0  0  0  0  0  0  0
  6  7  2  0  0  0
  7  8  2  0  0  0
  7  5  1  0  0  0
  7  9  1  0  0  0
  9 14  2  0  0  0
  9 10  1  0  0  0
 10 11  2  0  0  0
 11 12  1  0  0  0
 12 13  2  0  0  0
 13 14  1  0  0  0
 13 15  1  0  0  0
 15 16  1  0  0  0
  5 17  1  0  0  0
  5  4  1  0  0  0
 17 18  1  0  0  0
 18 19  1  0  0  0
 18 22  2  0  0  0
 19 20  1  0  0  0
 20 21  2  0  0  0
 21 22  1  0  0  0
  4  1  1  0  0  0
  1 23  1  0  0  0
  1  2  1  0  0  0
 23 24  1  0  0  0
 23 38  1  0  0  0
 38 39  1  0  0  0
 39 44  2  0  0  0
 39 40  1  0  0  0
 40 41  2  0  0  0
 41 42  1  0  0  0
 42 43  2  0  0  0
 43 44  1  0  0  0
 24 25  1  0  0  0
 25 26  2  0  0  0
 25 28  1  0  0  0
 28 31  1  0  0  0
 28 29  2  0  0  0
 29 30  1  0  0  0
 30 34  2  0  0  0
 31 32  2  0  0  0
 32 33  1  0  0  0
 32 34  1  0  0  0
 34 35  1  0  0  0
  2  3  1  0  0  0
 24 27  1  0  0  0
 33 36  1  0  0  0
 35 37  1  0  0  0
M  END
> <minimizedAffinity>
-10.79027

$$$$
2QI1_MZ4_A_200


 44 47  0  0  0  0  0  0  0  0999 V2000
   21.2418   28.1654   13.0002 C   0  0  0  0  0  0  0  0  0  0  0  0
   21.6129   26.8160   12.6879 O   0  0  0  0  0  0  0  0  0  0  0  0
   21.9779   26.7806   11.7899 H   0  0  0  0  0  0  0  0  0  0  0  0
   20.1663   28.6297   11.9881 C   0  0  0  0  0  0  0  0  0  0  0  0
   18.8700   28.7521   12.6888 N   0  0  0  0  0  0  0  0  0  0  0  0
   16.8762   30.1882   12.2769 O   0  0  0  0  0  0  0  0  0  0  0  0
   18.2366   30.2504   12.7291 S   0  0  0  0  0  0  0  0  0  0  0  0
   19.0070   31.0358   11.8052 O   0  0  0  0  0  0  0  0  0  0  0  0
   18.3063   30.9337   14.2055 C   0  0  0  0  0  0  0  0  0  0  0  0
   18.8779   30.2639   15.2939 C   0  0  0  0  0  0  0  0  0  0  0  0
   18.9356   30.8682   16.5529 C   0  0  0  0  0  0  0  0  0  0  0  0
   18.4334   32.1523   16.7521 C   0  0  0  0  0  0  0  0  0  0  0  0
   17.8628   32.8380   15.6776 C   0  0  0  0  0  0  0  0  0  0  0  0
   17.8043   32.2218   14.4207 C   0  0  0  0  0  0  0  0  0  0  0  0
   17.3526   34.1074   15.8215 O   0  0  0  0  0  0  0  0  0  0  0  0
   16.5175   34.7336   14.8509 C   0  0  0  0  0  0  0  0  0  0  0  0
   17.9354   27.6484   12.3380 C   0  0  0  0  0  0  0  0  0  0  0  0
   18.2150   27.2662   10.8702 C   0  0  0  0  0  0  0  0  0  0  0  0
   19.1109   25.9053   10.4299 S   0  0  0  0  0  0  0  0  0  0  0  0
   18.9033   26.3139    8.8253 C   0  0  0  0  0  0  0  0  0  0  0  0
   18.1585   27.4221    8.5973 C   0  0  0  0  0  0  0  0  0  0  0  0
   17.7642   28.0152    9.8314 C   0  0  0  0  0  0  0  0  0  0  0  0
   22.4568   29.1105   12.9978 C   0  0  0  0  0  0  0  0  0  0  0  0
   22.3572   30.0406   14.1307 N   0  0  0  0  0  0  0  0  0  0  0  0
   21.9888   31.3335   13.9489 C   0  0  0  0  0  0  0  0  0  0  0  0
   21.6970   31.8390   12.8725 O   0  0  0  0  0  0  0  0  0  0  0  0
   22.5617   29.7196   15.0387 H   0  0  0  0  0  0  0  0  0  0  0  0
   21.9589   32.2582   15.1483 C   0  0  0  0  0  0  0  0  0  0  0  0
   22.5735   31.9119   16.3466 C   0  0  0  0  0  0  0  0  0  0  0  0
   22.5482   32.8035   17.4059 C   0  0  0  0  0  0  0  0  0  0  0  0
   21.3287   33.4850   15.0119 C   0  0  0  0  0  0  0  0  0  0  0  0
   21.2906   34.3715   16.0698 C   0  0  0  0  0  0  0  0  0  0  0  0
   20.6541   35.5770   15.9479 O   0  0  0  0  0  0  0  0  0  0  0  0
   21.9118   34.0305   17.2626 C   0  0  0  0  0  0  0  0  0  0  0  0
   21.8602   34.9076   18.3064 O   0  0  0  0  0  0  0  0  0  0  0  0
   20.2350   35.8061   15.1418 H   0  0  0  0  0  0  0  0  0  0  0  0
   22.2742   34.6934   19.1192 H   0  0  0  0  0  0  0  0  0  0  0  0
   23.8131   28.3918   13.1640 C   0  0  0  0  0  0  0  0  0  0  0  0
   24.2013   27.6425   11.8701 C   0  0  0  0  0  0  0  0  0  0  0  0
   24.9406   26.4532   11.9162 C   0  0  0  0  0  0  0  0  0  0  0  0
   25.3017   25.7760   10.7491 C   0  0  0  0  0  0  0  0  0  0  0  0
   24.9199   26.2852    9.5120 C   0  0  0  0  0  0  0  0  0  0  0  0
   24.1862   27.4669    9.4584 C   0  0  0  0  0  0  0  0  0  0  0  0
   23.8288   28.1367   10.6249 C   0  0  0  0  0  0  0  0  0  0  0  0
  6  7  2  0  0  0
  7  8  2  0  0  0
  7  5  1  0  0  0
  7  9  1  0  0  0
  9 14  2  0  0  0
  9 10  1  0  0  0
 10 11  2  0  0  0
 11 12  1  0  0  0
 12 13  2  0  0  0
 13 14  1  0  0  0
 13 15  1  0  0  0
 15 16  1  0  0  0
  5 17  1  0  0  0
  5  4  1  0  0  0
 17 18  1  0  0  0
 18 19  1  0  0  0
 18 22  2  0  0  0
 19 20  1  0  0  0
 20 21  2  0  0  0
 21 22  1  0  0  0
  4  1  1  0  0  0
  1 23  1  0  0  0
  1  2  1  0  0  0
 23 24  1  0  0  0
 23 38  1  0  0  0
 38 39  1  0  0  0
 39 44  2  0  0  0
 39 40  1  0  0  0
 40 41  2  0  0  0
 41 42  1  0  0  0
 42 43  2  0  0  0
 43 44  1  0  0  0
 24 25  1  0  0  0
 25 26  2  0  0  0
 25 28  1  0  0  0
 28 31  1  0  0  0
 28 29  2  0  0  0
 29 30  1  0  0  0
 30 34  2  0  0  0
 31 32  2  0  0  0
 32 33  1  0  0  0
 32 34  1  0  0  0
 34 35  1  0  0  0
  2  3  1  0  0  0
 24 27  1  0  0  0
 33 36  1  0  0  0
 35 37  1  0  0  0
M  END
> <minimizedAffinity>
-9.77798

$$$$
2QI1_MZ4_A_200


 44 47  0  0  0  0  0  0  0  0999 V2000
   19.9014   29.5733   15.2602 C   0  0  0  0  0  0  0  0  0  0  0  0
   19.9229   28.4072   16.0944 O   0  0  0  0  0  0  0  0  0  0  0  0
   19.0421   28.0011   16.1054 H   0  0  0  0  0  0  0  0  0  0  0  0
   18.8774   30.5786   15.8411 C   0  0  0  0  0  0  0  0  0  0  0  0
   19.4994   31.9189   15.8948 N   0  0  0  0  0  0  0  0  0  0  0  0
   17.1606   32.6775   16.2970 O   0  0  0  0  0  0  0  0  0  0  0  0
   18.4598   33.1701   15.9390 S   0  0  0  0  0  0  0  0  0  0  0  0
   18.4140   33.6999   14.6044 O   0  0  0  0  0  0  0  0  0  0  0  0
   18.9180   34.3448   16.9693 C   0  0  0  0  0  0  0  0  0  0  0  0
   18.2520   34.5523   18.1831 C   0  0  0  0  0  0  0  0  0  0  0  0
   18.6631   35.5610   19.0589 C   0  0  0  0  0  0  0  0  0  0  0  0
   19.7483   36.3775   18.7484 C   0  0  0  0  0  0  0  0  0  0  0  0
   20.4278   36.1835   17.5438 C   0  0  0  0  0  0  0  0  0  0  0  0
   20.0048   35.1735   16.6698 C   0  0  0  0  0  0  0  0  0  0  0  0
   21.5051   36.9624   17.1901 O   0  0  0  0  0  0  0  0  0  0  0  0
   22.4882   37.4126   18.1188 C   0  0  0  0  0  0  0  0  0  0  0  0
   20.6384   31.9717   16.8511 C   0  0  0  0  0  0  0  0  0  0  0  0
   21.8999   32.3214   16.0355 C   0  0  0  0  0  0  0  0  0  0  0  0
   21.9191   32.3695   14.3485 S   0  0  0  0  0  0  0  0  0  0  0  0
   23.5386   32.7685   14.3993 C   0  0  0  0  0  0  0  0  0  0  0  0
   24.0684   32.8989   15.6391 C   0  0  0  0  0  0  0  0  0  0  0  0
   23.0879   32.6026   16.6295 C   0  0  0  0  0  0  0  0  0  0  0  0
   19.5754   29.2263   13.7963 C   0  0  0  0  0  0  0  0  0  0  0  0
   20.5476   28.2447   13.2965 N   0  0  0  0  0  0  0  0  0  0  0  0
   21.4077   28.5544   12.2943 C   0  0  0  0  0  0  0  0  0  0  0  0
   21.4756   29.6409   11.7336 O   0  0  0  0  0  0  0  0  0  0  0  0
   20.5752   27.3454   13.6963 H   0  0  0  0  0  0  0  0  0  0  0  0
   22.3484   27.4823   11.7840 C   0  0  0  0  0  0  0  0  0  0  0  0
   21.9383   26.5470   10.8403 C   0  0  0  0  0  0  0  0  0  0  0  0
   22.8429   25.6054   10.3789 C   0  0  0  0  0  0  0  0  0  0  0  0
   23.6507   27.4763   12.2577 C   0  0  0  0  0  0  0  0  0  0  0  0
   24.5522   26.5314   11.8093 C   0  0  0  0  0  0  0  0  0  0  0  0
   25.8347   26.5082   12.2866 O   0  0  0  0  0  0  0  0  0  0  0  0
   24.1462   25.6037   10.8608 C   0  0  0  0  0  0  0  0  0  0  0  0
   25.0401   24.6668   10.4310 O   0  0  0  0  0  0  0  0  0  0  0  0
   26.1076   27.1352   12.9272 H   0  0  0  0  0  0  0  0  0  0  0  0
   24.7828   24.0328    9.7909 H   0  0  0  0  0  0  0  0  0  0  0  0
   18.1875   28.5799   13.5971 C   0  0  0  0  0  0  0  0  0  0  0  0
   18.0832   27.9175   12.2055 C   0  0  0  0  0  0  0  0  0  0  0  0
   17.8231   28.6792   11.0587 C   0  0  0  0  0  0  0  0  0  0  0  0
   17.7193   28.0845    9.7991 C   0  0  0  0  0  0  0  0  0  0  0  0
   17.8797   26.7083    9.6727 C   0  0  0  0  0  0  0  0  0  0  0  0
   18.1372   25.9449   10.8078 C   0  0  0  0  0  0  0  0  0  0  0  0
   18.2402   26.5436   12.0601 C   0  0  0  0  0  0  0  0  0  0  0  0
  6  7  2  0  0  0
  7  8  2  0  0  0
  7  5  1  0  0  0
  7  9  1  0  0  0
  9 14  2  0  0  0
  9 10  1  0  0  0
 10 11  2  0  0  0
 11 12  1  0  0  0
 12 13  2  0  0  0
 13 14  1  0  0  0
 13 15  1  0  0  0
 15 16  1  0  0  0
  5 17  1  0  0  0
  5  4  1  0  0  0
 17 18  1  0  0  0
 18 19  1  0  0  0
 18 22  2  0  0  0
 19 20  1  0  0  0
 20 21  2  0  0  0
 21 22  1  0  0  0
  4  1  1  0  0  0
  1 23  1  0  0  0
  1  2  1  0  0  0
 23 24  1  0  0  0
 23 38  1  0  0  0
 38 39  1  0  0  0
 39 44  2  0  0  0
 39 40  1  0  0  0
 40 41  2  0  0  0
 41 42  1  0  0  0
 42 43  2  0  0  0
 43 44  1  0  0  0
 24 25  1  0  0  0
 25 26  2  0  0  0
 25 28  1  0  0  0
 28 31  1  0  0  0
 28 29  2  0  0  0
 29 30  1  0  0  0
 30 34  2  0  0  0
 31 32  2  0  0  0
 32 33  1  0  0  0
 32 34  1  0  0  0
 34 35  1  0  0  0
  2  3  1  0  0  0
 24 27  1  0  0  0
 33 36  1  0  0  0
 35 37  1  0  0  0
M  END
> <minimizedAffinity>
-9.72194

$$$$
2QI1_MZ4_A_200


 44 47  0  0  0  0  0  0  0  0999 V2000
   19.3704   29.6240   12.3189 C   0  0  0  0  0  0  0  0  0  0  0  0
   18.0541   29.9957   11.8885 O   0  0  0  0  0  0  0  0  0  0  0  0
   17.4434   29.9516   12.6409 H   0  0  0  0  0  0  0  0  0  0  0  0
   19.3233   28.1744   12.8601 C   0  0  0  0  0  0  0  0  0  0  0  0
   20.1617   27.3137   11.9985 N   0  0  0  0  0  0  0  0  0  0  0  0
   18.1605   25.8297   11.9932 O   0  0  0  0  0  0  0  0  0  0  0  0
   19.3886   26.0690   11.2907 S   0  0  0  0  0  0  0  0  0  0  0  0
   20.2484   24.9276   11.4382 O   0  0  0  0  0  0  0  0  0  0  0  0
   19.0910   26.3183    9.7093 C   0  0  0  0  0  0  0  0  0  0  0  0
   18.1993   27.3091    9.2813 C   0  0  0  0  0  0  0  0  0  0  0  0
   17.9609   27.5140    7.9194 C   0  0  0  0  0  0  0  0  0  0  0  0
   18.6098   26.7434    6.9573 C   0  0  0  0  0  0  0  0  0  0  0  0
   19.5058   25.7527    7.3645 C   0  0  0  0  0  0  0  0  0  0  0  0
   19.7340   25.5509    8.7321 C   0  0  0  0  0  0  0  0  0  0  0  0
   20.1720   24.9648    6.4547 O   0  0  0  0  0  0  0  0  0  0  0  0
   21.5861   24.9924    6.2777 C   0  0  0  0  0  0  0  0  0  0  0  0
   21.0727   28.1066   11.1289 C   0  0  0  0  0  0  0  0  0  0  0  0
   22.5028   27.5831   11.3730 C   0  0  0  0  0  0  0  0  0  0  0  0
   23.2585   26.4672   10.3570 S   0  0  0  0  0  0  0  0  0  0  0  0
   24.6007   26.5059   11.3477 C   0  0  0  0  0  0  0  0  0  0  0  0
   24.5215   27.3499   12.4042 C   0  0  0  0  0  0  0  0  0  0  0  0
   23.2449   27.9816   12.4378 C   0  0  0  0  0  0  0  0  0  0  0  0
   19.9258   30.5970   13.3744 C   0  0  0  0  0  0  0  0  0  0  0  0
   18.8299   31.0692   14.2314 N   0  0  0  0  0  0  0  0  0  0  0  0
   18.6553   32.3903   14.4857 C   0  0  0  0  0  0  0  0  0  0  0  0
   19.3503   33.2929   14.0366 O   0  0  0  0  0  0  0  0  0  0  0  0
   18.2107   30.4148   14.6285 H   0  0  0  0  0  0  0  0  0  0  0  0
   17.5415   32.8110   15.4223 C   0  0  0  0  0  0  0  0  0  0  0  0
   16.2303   32.3931   15.2238 C   0  0  0  0  0  0  0  0  0  0  0  0
   15.2510   32.7764   16.1248 C   0  0  0  0  0  0  0  0  0  0  0  0
   17.8685   33.6014   16.5128 C   0  0  0  0  0  0  0  0  0  0  0  0
   16.8927   33.9958   17.4065 C   0  0  0  0  0  0  0  0  0  0  0  0
   17.2053   34.7916   18.4753 O   0  0  0  0  0  0  0  0  0  0  0  0
   15.5859   33.5715   17.2141 C   0  0  0  0  0  0  0  0  0  0  0  0
   14.6259   33.9745   18.0958 O   0  0  0  0  0  0  0  0  0  0  0  0
   18.0883   35.0775   18.6041 H   0  0  0  0  0  0  0  0  0  0  0  0
   13.7382   33.6974   17.9809 H   0  0  0  0  0  0  0  0  0  0  0  0
   20.9616   29.9651   14.3293 C   0  0  0  0  0  0  0  0  0  0  0  0
   21.8533   31.0510   14.9710 C   0  0  0  0  0  0  0  0  0  0  0  0
   22.8969   31.6488   14.2522 C   0  0  0  0  0  0  0  0  0  0  0  0
   23.7117   32.6251   14.8301 C   0  0  0  0  0  0  0  0  0  0  0  0
   23.4861   33.0194   16.1451 C   0  0  0  0  0  0  0  0  0  0  0  0
   22.4518   32.4291   16.8658 C   0  0  0  0  0  0  0  0  0  0  0  0
   21.6428   31.4573   16.2840 C   0  0  0  0  0  0  0  0  0  0  0  0
  6  7  2  0  0  0
  7  8  2  0  0  0
  7  5  1  0  0  0
  7  9  1  0  0  0
  9 14  2  0  0  0
  9 10  1  0  0  0
 10 11  2  0  0  0
 11 12  1  0  0  0
 12 13  2  0  0  0
 13 14  1  0  0  0
 13 15  1  0  0  0
 15 16  1  0  0  0
  5 17  1  0  0  0
  5  4  1  0  0  0
 17 18  1  0  0  0
 18 19  1  0  0  0
 18 22  2  0  0  0
 19 20  1  0  0  0
 20 21  2  0  0  0
 21 22  1  0  0  0
  4  1  1  0  0  0
  1 23  1  0  0  0
  1  2  1  0  0  0
 23 24  1  0  0  0
 23 38  1  0  0  0
 38 39  1  0  0  0
 39 44  2  0  0  0
 39 40  1  0  0  0
 40 41  2  0  0  0
 41 42  1  0  0  0
 42 43  2  0  0  0
 43 44  1  0  0  0
 24 25  1  0  0  0
 25 26  2  0  0  0
 25 28  1  0  0  0
 28 31  1  0  0  0
 28 29  2  0  0  0
 29 30  1  0  0  0
 30 34  2  0  0  0
 31 32  2  0  0  0
 32 33  1  0  0  0
 32 34  1  0  0  0
 34 35  1  0  0  0
  2  3  1  0  0  0
 24 27  1  0  0  0
 33 36  1  0  0  0
 35 37  1  0  0  0
M  END
> <minimizedAffinity>
-9.63078

$$$$
2QI1_MZ4_A_200


 44 47  0  0  0  0  0  0  0  0999 V2000
   19.9865   29.6001   15.4185 C   0  0  0  0  0  0  0  0  0  0  0  0
   20.2055   28.4401   16.2325 O   0  0  0  0  0  0  0  0  0  0  0  0
   19.3919   27.9134   16.2704 H   0  0  0  0  0  0  0  0  0  0  0  0
   18.8550   30.4442   16.0540 C   0  0  0  0  0  0  0  0  0  0  0  0
   19.0985   31.8723   15.7579 N   0  0  0  0  0  0  0  0  0  0  0  0
   21.2934   32.4087   14.7082 O   0  0  0  0  0  0  0  0  0  0  0  0
   20.6284   32.3805   15.9794 S   0  0  0  0  0  0  0  0  0  0  0  0
   21.2578   31.4011   16.8212 O   0  0  0  0  0  0  0  0  0  0  0  0
   20.7190   33.8416   16.6925 C   0  0  0  0  0  0  0  0  0  0  0  0
   21.9519   34.4489   16.9593 C   0  0  0  0  0  0  0  0  0  0  0  0
   22.0109   35.7068   17.5658 C   0  0  0  0  0  0  0  0  0  0  0  0
   20.8460   36.3879   17.9117 C   0  0  0  0  0  0  0  0  0  0  0  0
   19.6065   35.8000   17.6502 C   0  0  0  0  0  0  0  0  0  0  0  0
   19.5575   34.5364   17.0470 C   0  0  0  0  0  0  0  0  0  0  0  0
   18.4271   36.4306   17.9722 O   0  0  0  0  0  0  0  0  0  0  0  0
   17.3584   35.7921   18.6662 C   0  0  0  0  0  0  0  0  0  0  0  0
   18.4332   32.3065   14.4996 C   0  0  0  0  0  0  0  0  0  0  0  0
   17.2917   33.2644   14.8970 C   0  0  0  0  0  0  0  0  0  0  0  0
   16.0342   32.8165   15.9298 S   0  0  0  0  0  0  0  0  0  0  0  0
   15.3730   34.3381   15.7502 C   0  0  0  0  0  0  0  0  0  0  0  0
   16.0747   35.1900   14.9649 C   0  0  0  0  0  0  0  0  0  0  0  0
   17.2199   34.5357   14.4259 C   0  0  0  0  0  0  0  0  0  0  0  0
   19.6546   29.2259   13.9627 C   0  0  0  0  0  0  0  0  0  0  0  0
   20.6723   28.2986   13.4502 N   0  0  0  0  0  0  0  0  0  0  0  0
   21.5947   28.6999   12.5400 C   0  0  0  0  0  0  0  0  0  0  0  0
   21.6856   29.8309   12.0795 O   0  0  0  0  0  0  0  0  0  0  0  0
   20.6852   27.3687   13.7732 H   0  0  0  0  0  0  0  0  0  0  0  0
   22.5830   27.6831   12.0071 C   0  0  0  0  0  0  0  0  0  0  0  0
   23.9301   27.7331   12.3482 C   0  0  0  0  0  0  0  0  0  0  0  0
   24.7906   26.7627   11.8628 C   0  0  0  0  0  0  0  0  0  0  0  0
   22.1029   26.6705   11.1917 C   0  0  0  0  0  0  0  0  0  0  0  0
   22.9599   25.7082   10.6958 C   0  0  0  0  0  0  0  0  0  0  0  0
   22.4959   24.7161    9.8751 O   0  0  0  0  0  0  0  0  0  0  0  0
   24.3024   25.7522   11.0433 C   0  0  0  0  0  0  0  0  0  0  0  0
   25.1445   24.8039   10.5404 O   0  0  0  0  0  0  0  0  0  0  0  0
   21.5891   24.6874    9.6412 H   0  0  0  0  0  0  0  0  0  0  0  0
   26.0541   24.8186   10.7647 H   0  0  0  0  0  0  0  0  0  0  0  0
   18.3027   28.4998   13.7925 C   0  0  0  0  0  0  0  0  0  0  0  0
   18.1506   27.9488   12.3574 C   0  0  0  0  0  0  0  0  0  0  0  0
   18.3375   26.5880   12.0807 C   0  0  0  0  0  0  0  0  0  0  0  0
   18.2096   26.0856   10.7837 C   0  0  0  0  0  0  0  0  0  0  0  0
   17.8868   26.9479    9.7406 C   0  0  0  0  0  0  0  0  0  0  0  0
   17.7008   28.3012   10.0077 C   0  0  0  0  0  0  0  0  0  0  0  0
   17.8289   28.7956   11.3025 C   0  0  0  0  0  0  0  0  0  0  0  0
  6  7  2  0  0  0
  7  8  2  0  0  0
  7  5  1  0  0  0
  7  9  1  0  0  0
  9 14  2  0  0  0
  9 10  1  0  0  0
 10 11  2  0  0  0
 11 12  1  0  0  0
 12 13  2  0  0  0
 13 14  1  0  0  0
 13 15  1  0  0  0
 15 16  1  0  0  0
  5 17  1  0  0  0
  5  4  1  0  0  0
 17 18  1  0  0  0
 18 19  1  0  0  0
 18 22  2  0  0  0
 19 20  1  0  0  0
 20 21  2  0  0  0
 21 22  1  0  0  0
  4  1  1  0  0  0
  1 23  1  0  0  0
  1  2  1  0  0  0
 23 24  1  0  0  0
 23 38  1  0  0  0
 38 39  1  0  0  0
 39 44  2  0  0  0
 39 40  1  0  0  0
 40 41  2  0  0  0
 41 42  1  0  0  0
 42 43  2  0  0  0
 43 44  1  0  0  0
 24 25  1  0  0  0
 25 26  2  0  0  0
 25 28  1  0  0  0
 28 31  1  0  0  0
 28 29  2  0  0  0
 29 30  1  0  0  0
 30 34  2  0  0  0
 31 32  2  0  0  0
 32 33  1  0  0  0
 32 34  1  0  0  0
 34 35  1  0  0  0
  2  3  1  0  0  0
 24 27  1  0  0  0
 33 36  1  0  0  0
 35 37  1  0  0  0
M  END
> <minimizedAffinity>
-9.54856

$$$$
2QI1_MZ4_A_200


 44 47  0  0  0  0  0  0  0  0999 V2000
   19.4064   26.0864   11.3794 C   0  0  0  0  0  0  0  0  0  0  0  0
   18.8274   25.0153   12.1368 O   0  0  0  0  0  0  0  0  0  0  0  0
   18.5817   25.3383   13.0178 H   0  0  0  0  0  0  0  0  0  0  0  0
   20.6726   26.5860   12.1168 C   0  0  0  0  0  0  0  0  0  0  0  0
   21.8108   26.5791   11.1730 N   0  0  0  0  0  0  0  0  0  0  0  0
   23.6051   28.0113   10.2053 O   0  0  0  0  0  0  0  0  0  0  0  0
   22.9511   27.7075   11.4458 S   0  0  0  0  0  0  0  0  0  0  0  0
   23.8980   27.1104   12.3462 O   0  0  0  0  0  0  0  0  0  0  0  0
   22.3562   29.0679   12.1143 C   0  0  0  0  0  0  0  0  0  0  0  0
   21.4638   29.8932   11.4197 C   0  0  0  0  0  0  0  0  0  0  0  0
   20.9574   31.0538   12.0115 C   0  0  0  0  0  0  0  0  0  0  0  0
   21.3225   31.4119   13.3073 C   0  0  0  0  0  0  0  0  0  0  0  0
   22.2088   30.5994   14.0178 C   0  0  0  0  0  0  0  0  0  0  0  0
   22.7154   29.4410   13.4140 C   0  0  0  0  0  0  0  0  0  0  0  0
   22.6008   30.9084   15.2996 O   0  0  0  0  0  0  0  0  0  0  0  0
   22.8782   32.2359   15.7382 C   0  0  0  0  0  0  0  0  0  0  0  0
   22.2981   25.2016   10.8906 C   0  0  0  0  0  0  0  0  0  0  0  0
   22.3714   25.0516    9.3574 C   0  0  0  0  0  0  0  0  0  0  0  0
   23.8150   24.7681    8.5300 S   0  0  0  0  0  0  0  0  0  0  0  0
   22.9686   24.7809    7.0919 C   0  0  0  0  0  0  0  0  0  0  0  0
   21.6308   24.9608    7.2041 C   0  0  0  0  0  0  0  0  0  0  0  0
   21.2705   25.1521    8.5693 C   0  0  0  0  0  0  0  0  0  0  0  0
   18.4055   27.2327   11.1477 C   0  0  0  0  0  0  0  0  0  0  0  0
   18.6586   28.3083   12.1160 N   0  0  0  0  0  0  0  0  0  0  0  0
   18.0525   28.3188   13.3296 C   0  0  0  0  0  0  0  0  0  0  0  0
   17.2766   27.4641   13.7380 O   0  0  0  0  0  0  0  0  0  0  0  0
   19.2794   29.0349   11.8797 H   0  0  0  0  0  0  0  0  0  0  0  0
   18.3101   29.4840   14.2626 C   0  0  0  0  0  0  0  0  0  0  0  0
   17.6811   30.7109   14.0817 C   0  0  0  0  0  0  0  0  0  0  0  0
   17.9227   31.7374   14.9792 C   0  0  0  0  0  0  0  0  0  0  0  0
   19.1690   29.2869   15.3323 C   0  0  0  0  0  0  0  0  0  0  0  0
   19.4219   30.3118   16.2223 C   0  0  0  0  0  0  0  0  0  0  0  0
   20.2832   30.1299   17.2703 O   0  0  0  0  0  0  0  0  0  0  0  0
   18.7874   31.5333   16.0476 C   0  0  0  0  0  0  0  0  0  0  0  0
   19.0511   32.5440   16.9252 O   0  0  0  0  0  0  0  0  0  0  0  0
   20.7111   29.3045   17.3872 H   0  0  0  0  0  0  0  0  0  0  0  0
   18.6315   33.3754   16.8222 H   0  0  0  0  0  0  0  0  0  0  0  0
   18.5129   27.8895    9.7546 C   0  0  0  0  0  0  0  0  0  0  0  0
   17.9350   26.9622    8.6626 C   0  0  0  0  0  0  0  0  0  0  0  0
   17.0229   25.9479    8.9825 C   0  0  0  0  0  0  0  0  0  0  0  0
   16.5037   25.1010    8.0005 C   0  0  0  0  0  0  0  0  0  0  0  0
   16.8932   25.2644    6.6749 C   0  0  0  0  0  0  0  0  0  0  0  0
   17.7999   26.2692    6.3498 C   0  0  0  0  0  0  0  0  0  0  0  0
   18.3131   27.1104    7.3328 C   0  0  0  0  0  0  0  0  0  0  0  0
  6  7  2  0  0  0
  7  8  2  0  0  0
  7  5  1  0  0  0
  7  9  1  0  0  0
  9 14  2  0  0  0
  9 10  1  0  0  0
 10 11  2  0  0  0
 11 12  1  0  0  0
 12 13  2  0  0  0
 13 14  1  0  0  0
 13 15  1  0  0  0
 15 16  1  0  0  0
  5 17  1  0  0  0
  5  4  1  0  0  0
 17 18  1  0  0  0
 18 19  1  0  0  0
 18 22  2  0  0  0
 19 20  1  0  0  0
 20 21  2  0  0  0
 21 22  1  0  0  0
  4  1  1  0  0  0
  1 23  1  0  0  0
  1  2  1  0  0  0
 23 24  1  0  0  0
 23 38  1  0  0  0
 38 39  1  0  0  0
 39 44  2  0  0  0
 39 40  1  0  0  0
 40 41  2  0  0  0
 41 42  1  0  0  0
 42 43  2  0  0  0
 43 44  1  0  0  0
 24 25  1  0  0  0
 25 26  2  0  0  0
 25 28  1  0  0  0
 28 31  1  0  0  0
 28 29  2  0  0  0
 29 30  1  0  0  0
 30 34  2  0  0  0
 31 32  2  0  0  0
 32 33  1  0  0  0
 32 34  1  0  0  0
 34 35  1  0  0  0
  2  3  1  0  0  0
 24 27  1  0  0  0
 33 36  1  0  0  0
 35 37  1  0  0  0
M  END
> <minimizedAffinity>
-9.53751

$$$$
2QI1_MZ4_A_200


 44 47  0  0  0  0  0  0  0  0999 V2000
   20.3559   28.2934   12.6750 C   0  0  0  0  0  0  0  0  0  0  0  0
   19.0964   27.6523   12.9172 O   0  0  0  0  0  0  0  0  0  0  0  0
   18.5369   27.7302   12.1286 H   0  0  0  0  0  0  0  0  0  0  0  0
   20.0994   29.7895   12.3708 C   0  0  0  0  0  0  0  0  0  0  0  0
   19.6767   30.4659   13.6158 N   0  0  0  0  0  0  0  0  0  0  0  0
   17.7075   29.4554   14.7598 O   0  0  0  0  0  0  0  0  0  0  0  0
   18.0703   30.5211   13.8700 S   0  0  0  0  0  0  0  0  0  0  0  0
   17.4547   30.3000   12.5909 O   0  0  0  0  0  0  0  0  0  0  0  0
   17.5675   31.9489   14.4701 C   0  0  0  0  0  0  0  0  0  0  0  0
   18.0696   33.1624   13.9852 C   0  0  0  0  0  0  0  0  0  0  0  0
   17.6216   34.3792   14.5072 C   0  0  0  0  0  0  0  0  0  0  0  0
   16.6609   34.4129   15.5154 C   0  0  0  0  0  0  0  0  0  0  0  0
   16.1453   33.2128   16.0096 C   0  0  0  0  0  0  0  0  0  0  0  0
   16.6046   31.9980   15.4840 C   0  0  0  0  0  0  0  0  0  0  0  0
   15.1954   33.1915   17.0043 O   0  0  0  0  0  0  0  0  0  0  0  0
   14.9921   34.2646   17.9202 C   0  0  0  0  0  0  0  0  0  0  0  0
   20.5173   30.0760   14.7803 C   0  0  0  0  0  0  0  0  0  0  0  0
   21.4474   31.2672   15.0878 C   0  0  0  0  0  0  0  0  0  0  0  0
   21.0806   32.4458   16.2389 S   0  0  0  0  0  0  0  0  0  0  0  0
   22.5101   33.2228   15.8679 C   0  0  0  0  0  0  0  0  0  0  0  0
   23.2763   32.6174   14.9292 C   0  0  0  0  0  0  0  0  0  0  0  0
   22.6243   31.4504   14.4362 C   0  0  0  0  0  0  0  0  0  0  0  0
   21.1349   27.6163   11.5329 C   0  0  0  0  0  0  0  0  0  0  0  0
   20.2227   27.3349   10.4161 N   0  0  0  0  0  0  0  0  0  0  0  0
   19.6621   26.1098   10.2577 C   0  0  0  0  0  0  0  0  0  0  0  0
   19.8346   25.1535   11.0027 O   0  0  0  0  0  0  0  0  0  0  0  0
   20.0144   28.0487    9.7708 H   0  0  0  0  0  0  0  0  0  0  0  0
   18.7743   25.8648    9.0550 C   0  0  0  0  0  0  0  0  0  0  0  0
   17.3880   25.8913    9.1595 C   0  0  0  0  0  0  0  0  0  0  0  0
   16.6171   25.6939    8.0261 C   0  0  0  0  0  0  0  0  0  0  0  0
   19.3814   25.6460    7.8285 C   0  0  0  0  0  0  0  0  0  0  0  0
   18.6162   25.4365    6.6985 C   0  0  0  0  0  0  0  0  0  0  0  0
   19.2091   25.2016    5.4875 O   0  0  0  0  0  0  0  0  0  0  0  0
   17.2330   25.4722    6.8003 C   0  0  0  0  0  0  0  0  0  0  0  0
   16.4842   25.2535    5.6810 O   0  0  0  0  0  0  0  0  0  0  0  0
   20.1433   25.1778    5.4200 H   0  0  0  0  0  0  0  0  0  0  0  0
   15.5488   25.2740    5.7317 H   0  0  0  0  0  0  0  0  0  0  0  0
   22.2657   28.4853   10.9412 C   0  0  0  0  0  0  0  0  0  0  0  0
   23.5716   27.6715   10.8051 C   0  0  0  0  0  0  0  0  0  0  0  0
   23.9136   27.0479    9.5979 C   0  0  0  0  0  0  0  0  0  0  0  0
   25.0889   26.3038    9.4716 C   0  0  0  0  0  0  0  0  0  0  0  0
   25.9440   26.1777   10.5618 C   0  0  0  0  0  0  0  0  0  0  0  0
   25.6102   26.7935   11.7647 C   0  0  0  0  0  0  0  0  0  0  0  0
   24.4379   27.5344   11.8840 C   0  0  0  0  0  0  0  0  0  0  0  0
  6  7  2  0  0  0
  7  8  2  0  0  0
  7  5  1  0  0  0
  7  9  1  0  0  0
  9 14  2  0  0  0
  9 10  1  0  0  0
 10 11  2  0  0  0
 11 12  1  0  0  0
 12 13  2  0  0  0
 13 14  1  0  0  0
 13 15  1  0  0  0
 15 16  1  0  0  0
  5 17  1  0  0  0
  5  4  1  0  0  0
 17 18  1  0  0  0
 18 19  1  0  0  0
 18 22  2  0  0  0
 19 20  1  0  0  0
 20 21  2  0  0  0
 21 22  1  0  0  0
  4  1  1  0  0  0
  1 23  1  0  0  0
  1  2  1  0  0  0
 23 24  1  0  0  0
 23 38  1  0  0  0
 38 39  1  0  0  0
 39 44  2  0  0  0
 39 40  1  0  0  0
 40 41  2  0  0  0
 41 42  1  0  0  0
 42 43  2  0  0  0
 43 44  1  0  0  0
 24 25  1  0  0  0
 25 26  2  0  0  0
 25 28  1  0  0  0
 28 31  1  0  0  0
 28 29  2  0  0  0
 29 30  1  0  0  0
 30 34  2  0  0  0
 31 32  2  0  0  0
 32 33  1  0  0  0
 32 34  1  0  0  0
 34 35  1  0  0  0
  2  3  1  0  0  0
 24 27  1  0  0  0
 33 36  1  0  0  0
 35 37  1  0  0  0
M  END
> <minimizedAffinity>
-9.37409

$$$$
2QI1_MZ4_A_200


 44 47  0  0  0  0  0  0  0  0999 V2000
   19.7327   28.3542   12.5700 C   0  0  0  0  0  0  0  0  0  0  0  0
   18.8392   27.3620   13.0929 O   0  0  0  0  0  0  0  0  0  0  0  0
   18.2632   27.0390   12.3825 H   0  0  0  0  0  0  0  0  0  0  0  0
   18.8946   29.5297   12.0112 C   0  0  0  0  0  0  0  0  0  0  0  0
   18.9017   30.6334   12.9950 N   0  0  0  0  0  0  0  0  0  0  0  0
   19.2237   33.0709   12.5920 O   0  0  0  0  0  0  0  0  0  0  0  0
   19.9514   31.8378   12.6860 S   0  0  0  0  0  0  0  0  0  0  0  0
   20.5409   31.5378   11.4107 O   0  0  0  0  0  0  0  0  0  0  0  0
   21.1265   31.9638   13.8062 C   0  0  0  0  0  0  0  0  0  0  0  0
   22.1229   30.9884   13.9322 C   0  0  0  0  0  0  0  0  0  0  0  0
   23.1282   31.1160   14.8949 C   0  0  0  0  0  0  0  0  0  0  0  0
   23.1664   32.2188   15.7452 C   0  0  0  0  0  0  0  0  0  0  0  0
   22.1833   33.2042   15.6323 C   0  0  0  0  0  0  0  0  0  0  0  0
   21.1764   33.0647   14.6681 C   0  0  0  0  0  0  0  0  0  0  0  0
   22.1760   34.3122   16.4475 O   0  0  0  0  0  0  0  0  0  0  0  0
   21.1946   34.5397   17.4559 C   0  0  0  0  0  0  0  0  0  0  0  0
   17.5266   31.0407   13.3922 C   0  0  0  0  0  0  0  0  0  0  0  0
   17.6480   31.8116   14.7225 C   0  0  0  0  0  0  0  0  0  0  0  0
   18.4434   31.1900   16.0752 S   0  0  0  0  0  0  0  0  0  0  0  0
   18.0618   32.5819   16.9129 C   0  0  0  0  0  0  0  0  0  0  0  0
   17.3818   33.5183   16.2089 C   0  0  0  0  0  0  0  0  0  0  0  0
   17.1064   33.0447   14.8936 C   0  0  0  0  0  0  0  0  0  0  0  0
   20.6691   27.7743   11.4946 C   0  0  0  0  0  0  0  0  0  0  0  0
   19.9278   27.6065   10.2372 N   0  0  0  0  0  0  0  0  0  0  0  0
   19.2820   26.4484    9.9509 C   0  0  0  0  0  0  0  0  0  0  0  0
   19.2351   25.4675   10.6823 O   0  0  0  0  0  0  0  0  0  0  0  0
   19.8993   28.3483    9.5905 H   0  0  0  0  0  0  0  0  0  0  0  0
   18.5824   26.3156    8.6139 C   0  0  0  0  0  0  0  0  0  0  0  0
   17.9024   25.1545    8.2633 C   0  0  0  0  0  0  0  0  0  0  0  0
   17.2500   25.0910    7.0435 C   0  0  0  0  0  0  0  0  0  0  0  0
   18.6058   27.4019    7.7536 C   0  0  0  0  0  0  0  0  0  0  0  0
   17.9668   27.3380    6.5312 C   0  0  0  0  0  0  0  0  0  0  0  0
   18.0014   28.4002    5.6689 O   0  0  0  0  0  0  0  0  0  0  0  0
   17.2804   26.1831    6.1847 C   0  0  0  0  0  0  0  0  0  0  0  0
   16.6608   26.1242    4.9706 O   0  0  0  0  0  0  0  0  0  0  0  0
   18.4654   29.1796    5.9040 H   0  0  0  0  0  0  0  0  0  0  0  0
   16.1928   25.3520    4.7205 H   0  0  0  0  0  0  0  0  0  0  0  0
   21.8724   28.6797   11.1537 C   0  0  0  0  0  0  0  0  0  0  0  0
   23.1886   27.8712   11.1587 C   0  0  0  0  0  0  0  0  0  0  0  0
   23.7073   27.3250    9.9773 C   0  0  0  0  0  0  0  0  0  0  0  0
   24.8925   26.5858    9.9772 C   0  0  0  0  0  0  0  0  0  0  0  0
   25.5793   26.3868   11.1707 C   0  0  0  0  0  0  0  0  0  0  0  0
   25.0695   26.9256   12.3485 C   0  0  0  0  0  0  0  0  0  0  0  0
   23.8883   27.6619   12.3419 C   0  0  0  0  0  0  0  0  0  0  0  0
  6  7  2  0  0  0
  7  8  2  0  0  0
  7  5  1  0  0  0
  7  9  1  0  0  0
  9 14  2  0  0  0
  9 10  1  0  0  0
 10 11  2  0  0  0
 11 12  1  0  0  0
 12 13  2  0  0  0
 13 14  1  0  0  0
 13 15  1  0  0  0
 15 16  1  0  0  0
  5 17  1  0  0  0
  5  4  1  0  0  0
 17 18  1  0  0  0
 18 19  1  0  0  0
 18 22  2  0  0  0
 19 20  1  0  0  0
 20 21  2  0  0  0
 21 22  1  0  0  0
  4  1  1  0  0  0
  1 23  1  0  0  0
  1  2  1  0  0  0
 23 24  1  0  0  0
 23 38  1  0  0  0
 38 39  1  0  0  0
 39 44  2  0  0  0
 39 40  1  0  0  0
 40 41  2  0  0  0
 41 42  1  0  0  0
 42 43  2  0  0  0
 43 44  1  0  0  0
 24 25  1  0  0  0
 25 26  2  0  0  0
 25 28  1  0  0  0
 28 31  1  0  0  0
 28 29  2  0  0  0
 29 30  1  0  0  0
 30 34  2  0  0  0
 31 32  2  0  0  0
 32 33  1  0  0  0
 32 34  1  0  0  0
 34 35  1  0  0  0
  2  3  1  0  0  0
 24 27  1  0  0  0
 33 36  1  0  0  0
 35 37  1  0  0  0
M  END
> <minimizedAffinity>
-9.04187

$$$$
2QI1_MZ4_A_200


 44 47  0  0  0  0  0  0  0  0999 V2000
   18.0280   31.1431   14.1778 C   0  0  0  0  0  0  0  0  0  0  0  0
   16.9659   30.9988   13.2253 O   0  0  0  0  0  0  0  0  0  0  0  0
   16.3280   30.3437   13.5491 H   0  0  0  0  0  0  0  0  0  0  0  0
   18.7333   29.7750   14.3437 C   0  0  0  0  0  0  0  0  0  0  0  0
   19.6397   29.5609   13.1953 N   0  0  0  0  0  0  0  0  0  0  0  0
   18.5246   29.1312   11.0091 O   0  0  0  0  0  0  0  0  0  0  0  0
   19.1441   28.4529   12.1114 S   0  0  0  0  0  0  0  0  0  0  0  0
   18.1627   27.6468   12.7830 O   0  0  0  0  0  0  0  0  0  0  0  0
   20.3503   27.4986   11.5767 C   0  0  0  0  0  0  0  0  0  0  0  0
   21.5919   27.4602   12.2223 C   0  0  0  0  0  0  0  0  0  0  0  0
   22.6140   26.6299   11.7537 C   0  0  0  0  0  0  0  0  0  0  0  0
   22.4189   25.8167   10.6395 C   0  0  0  0  0  0  0  0  0  0  0  0
   21.1858   25.8384    9.9843 C   0  0  0  0  0  0  0  0  0  0  0  0
   20.1692   26.6781   10.4580 C   0  0  0  0  0  0  0  0  0  0  0  0
   20.9422   25.0550    8.8800 O   0  0  0  0  0  0  0  0  0  0  0  0
   21.9488   24.6851    7.9412 C   0  0  0  0  0  0  0  0  0  0  0  0
   20.1576   30.8415   12.6419 C   0  0  0  0  0  0  0  0  0  0  0  0
   21.3523   31.2654   13.5203 C   0  0  0  0  0  0  0  0  0  0  0  0
   22.2614   30.1690   14.4258 S   0  0  0  0  0  0  0  0  0  0  0  0
   23.1946   31.4353   14.9829 C   0  0  0  0  0  0  0  0  0  0  0  0
   22.8726   32.6565   14.4934 C   0  0  0  0  0  0  0  0  0  0  0  0
   21.7426   32.5611   13.6307 C   0  0  0  0  0  0  0  0  0  0  0  0
   17.5193   31.6772   15.5289 C   0  0  0  0  0  0  0  0  0  0  0  0
   18.3086   32.8530   15.9203 N   0  0  0  0  0  0  0  0  0  0  0  0
   19.4864   32.7212   16.5804 C   0  0  0  0  0  0  0  0  0  0  0  0
   20.0043   31.6567   16.8934 O   0  0  0  0  0  0  0  0  0  0  0  0
   17.9766   33.7531   15.6995 H   0  0  0  0  0  0  0  0  0  0  0  0
   20.2266   33.9722   17.0068 C   0  0  0  0  0  0  0  0  0  0  0  0
   21.5710   33.9345   17.3601 C   0  0  0  0  0  0  0  0  0  0  0  0
   22.2144   35.1092   17.7120 C   0  0  0  0  0  0  0  0  0  0  0  0
   19.5356   35.1735   17.0030 C   0  0  0  0  0  0  0  0  0  0  0  0
   20.1704   36.3450   17.3651 C   0  0  0  0  0  0  0  0  0  0  0  0
   19.4893   37.5320   17.3813 O   0  0  0  0  0  0  0  0  0  0  0  0
   21.5142   36.3095   17.7087 C   0  0  0  0  0  0  0  0  0  0  0  0
   22.1311   37.4698   18.0756 O   0  0  0  0  0  0  0  0  0  0  0  0
   18.5818   37.5546   17.1491 H   0  0  0  0  0  0  0  0  0  0  0  0
   23.0381   37.4640   18.3108 H   0  0  0  0  0  0  0  0  0  0  0  0
   16.0492   32.1486   15.5057 C   0  0  0  0  0  0  0  0  0  0  0  0
   15.9090   33.5464   16.1481 C   0  0  0  0  0  0  0  0  0  0  0  0
   15.4704   33.6948   17.4705 C   0  0  0  0  0  0  0  0  0  0  0  0
   15.3336   34.9566   18.0537 C   0  0  0  0  0  0  0  0  0  0  0  0
   15.6406   36.0938   17.3133 C   0  0  0  0  0  0  0  0  0  0  0  0
   16.0759   35.9542   15.9985 C   0  0  0  0  0  0  0  0  0  0  0  0
   16.2109   34.6940   15.4233 C   0  0  0  0  0  0  0  0  0  0  0  0
  6  7  2  0  0  0
  7  8  2  0  0  0
  7  5  1  0  0  0
  7  9  1  0  0  0
  9 14  2  0  0  0
  9 10  1  0  0  0
 10 11  2  0  0  0
 11 12  1  0  0  0
 12 13  2  0  0  0
 13 14  1  0  0  0
 13 15  1  0  0  0
 15 16  1  0  0  0
  5 17  1  0  0  0
  5  4  1  0  0  0
 17 18  1  0  0  0
 18 19  1  0  0  0
 18 22  2  0  0  0
 19 20  1  0  0  0
 20 21  2  0  0  0
 21 22  1  0  0  0
  4  1  1  0  0  0
  1 23  1  0  0  0
  1  2  1  0  0  0
 23 24  1  0  0  0
 23 38  1  0  0  0
 38 39  1  0  0  0
 39 44  2  0  0  0
 39 40  1  0  0  0
 40 41  2  0  0  0
 41 42  1  0  0  0
 42 43  2  0  0  0
 43 44  1  0  0  0
 24 25  1  0  0  0
 25 26  2  0  0  0
 25 28  1  0  0  0
 28 31  1  0  0  0
 28 29  2  0  0  0
 29 30  1  0  0  0
 30 34  2  0  0  0
 31 32  2  0  0  0
 32 33  1  0  0  0
 32 34  1  0  0  0
 34 35  1  0  0  0
  2  3  1  0  0  0
 24 27  1  0  0  0
 33 36  1  0  0  0
 35 37  1  0  0  0
M  END
> <minimizedAffinity>
-8.86721

$$$$
2QI1_MZ4_A_200


 44 47  0  0  0  0  0  0  0  0999 V2000
   20.0939   28.8130   13.6682 C   0  0  0  0  0  0  0  0  0  0  0  0
   18.9061   28.0450   13.9039 O   0  0  0  0  0  0  0  0  0  0  0  0
   18.3962   27.9775   13.0815 H   0  0  0  0  0  0  0  0  0  0  0  0
   19.6824   30.2297   13.1991 C   0  0  0  0  0  0  0  0  0  0  0  0
   19.7671   31.1580   14.3468 N   0  0  0  0  0  0  0  0  0  0  0  0
   17.5639   30.8309   15.4630 O   0  0  0  0  0  0  0  0  0  0  0  0
   18.3584   31.8297   14.8074 S   0  0  0  0  0  0  0  0  0  0  0  0
   17.6981   32.2426   13.6001 O   0  0  0  0  0  0  0  0  0  0  0  0
   18.5545   33.1194   15.7819 C   0  0  0  0  0  0  0  0  0  0  0  0
   19.6501   33.9799   15.6431 C   0  0  0  0  0  0  0  0  0  0  0  0
   19.7990   35.0864   16.4840 C   0  0  0  0  0  0  0  0  0  0  0  0
   18.8582   35.3627   17.4735 C   0  0  0  0  0  0  0  0  0  0  0  0
   17.7564   34.5181   17.6251 C   0  0  0  0  0  0  0  0  0  0  0  0
   17.6187   33.4083   16.7811 C   0  0  0  0  0  0  0  0  0  0  0  0
   16.7995   34.7468   18.5864 O   0  0  0  0  0  0  0  0  0  0  0  0
   15.4034   34.8115   18.3061 C   0  0  0  0  0  0  0  0  0  0  0  0
   20.6340   30.6288   15.4345 C   0  0  0  0  0  0  0  0  0  0  0  0
   21.8866   31.5266   15.4940 C   0  0  0  0  0  0  0  0  0  0  0  0
   22.4580   32.2126   16.9263 S   0  0  0  0  0  0  0  0  0  0  0  0
   23.6877   32.9389   16.0630 C   0  0  0  0  0  0  0  0  0  0  0  0
   23.7098   32.6650   14.7367 C   0  0  0  0  0  0  0  0  0  0  0  0
   22.6070   31.8341   14.3850 C   0  0  0  0  0  0  0  0  0  0  0  0
   21.0237   28.1338   12.6465 C   0  0  0  0  0  0  0  0  0  0  0  0
   20.3076   27.9516   11.3767 N   0  0  0  0  0  0  0  0  0  0  0  0
   20.0145   26.7135   10.9061 C   0  0  0  0  0  0  0  0  0  0  0  0
   20.2879   25.6615   11.4701 O   0  0  0  0  0  0  0  0  0  0  0  0
   20.0355   28.7427   10.8576 H   0  0  0  0  0  0  0  0  0  0  0  0
   19.3244   26.5888    9.5634 C   0  0  0  0  0  0  0  0  0  0  0  0
   18.4296   27.5543    9.1154 C   0  0  0  0  0  0  0  0  0  0  0  0
   17.8476   27.4143    7.8666 C   0  0  0  0  0  0  0  0  0  0  0  0
   19.6351   25.4972    8.7680 C   0  0  0  0  0  0  0  0  0  0  0  0
   19.0475   25.3478    7.5275 C   0  0  0  0  0  0  0  0  0  0  0  0
   19.3356   24.2628    6.7446 O   0  0  0  0  0  0  0  0  0  0  0  0
   18.1617   26.3155    7.0761 C   0  0  0  0  0  0  0  0  0  0  0  0
   17.5773   26.1548    5.8538 O   0  0  0  0  0  0  0  0  0  0  0  0
   19.9340   23.6099    7.0506 H   0  0  0  0  0  0  0  0  0  0  0  0
   16.9766   26.7987    5.5333 H   0  0  0  0  0  0  0  0  0  0  0  0
   22.2854   28.9542   12.3019 C   0  0  0  0  0  0  0  0  0  0  0  0
   23.3641   28.0587   11.6531 C   0  0  0  0  0  0  0  0  0  0  0  0
   24.2837   27.3495   12.4370 C   0  0  0  0  0  0  0  0  0  0  0  0
   25.2665   26.5451   11.8557 C   0  0  0  0  0  0  0  0  0  0  0  0
   25.3376   26.4385   10.4703 C   0  0  0  0  0  0  0  0  0  0  0  0
   24.4280   27.1410    9.6850 C   0  0  0  0  0  0  0  0  0  0  0  0
   23.4505   27.9404   10.2704 C   0  0  0  0  0  0  0  0  0  0  0  0
  6  7  2  0  0  0
  7  8  2  0  0  0
  7  5  1  0  0  0
  7  9  1  0  0  0
  9 14  2  0  0  0
  9 10  1  0  0  0
 10 11  2  0  0  0
 11 12  1  0  0  0
 12 13  2  0  0  0
 13 14  1  0  0  0
 13 15  1  0  0  0
 15 16  1  0  0  0
  5 17  1  0  0  0
  5  4  1  0  0  0
 17 18  1  0  0  0
 18 19  1  0  0  0
 18 22  2  0  0  0
 19 20  1  0  0  0
 20 21  2  0  0  0
 21 22  1  0  0  0
  4  1  1  0  0  0
  1 23  1  0  0  0
  1  2  1  0  0  0
 23 24  1  0  0  0
 23 38  1  0  0  0
 38 39  1  0  0  0
 39 44  2  0  0  0
 39 40  1  0  0  0
 40 41  2  0  0  0
 41 42  1  0  0  0
 42 43  2  0  0  0
 43 44  1  0  0  0
 24 25  1  0  0  0
 25 26  2  0  0  0
 25 28  1  0  0  0
 28 31  1  0  0  0
 28 29  2  0  0  0
 29 30  1  0  0  0
 30 34  2  0  0  0
 31 32  2  0  0  0
 32 33  1  0  0  0
 32 34  1  0  0  0
 34 35  1  0  0  0
  2  3  1  0  0  0
 24 27  1  0  0  0
 33 36  1  0  0  0
 35 37  1  0  0  0
M  END
> <minimizedAffinity>
-8.80524

$$$$
