3I4Y_35C_A_1


 12 12  0  0  0  0  0  0  0  0999 V2000
    2.5705   -2.5195   18.5982 C   0  0  0  0  0  0  0  0  0  0  0  0
    3.3360   -1.6661   19.3705 C   0  0  0  0  0  0  0  0  0  0  0  0
    2.7723   -0.9502   20.4168 C   0  0  0  0  0  0  0  0  0  0  0  0
    1.4270   -1.0868   20.6957 C   0  0  0  0  0  0  0  0  0  0  0  0
    0.6753   -1.9433   19.9098 C   0  0  0  0  0  0  0  0  0  0  0  0
    1.2228   -2.6607   18.8617 C   0  0  0  0  0  0  0  0  0  0  0  0
    3.1288   -3.2211   17.5787 O   0  0  0  0  0  0  0  0  0  0  0  0
    4.6544   -1.5140   19.0857 O   0  0  0  0  0  0  0  0  0  0  0  0
    3.7552    0.1684   21.4109 Cl  0  0  0  0  0  0  0  0  0  0  0  0
   -1.0586   -2.1151   20.2593 Cl  0  0  0  0  0  0  0  0  0  0  0  0
    4.0428   -3.1310   17.3933 H   0  0  0  0  0  0  0  0  0  0  0  0
    5.0399   -1.9953   18.3802 H   0  0  0  0  0  0  0  0  0  0  0  0
  7  1  1  0  0  0
  1  2  2  0  0  0
  1  6  1  0  0  0
  8  2  1  0  0  0
  2  3  1  0  0  0
  3  9  1  0  0  0
  3  4  2  0  0  0
  5  4  1  0  0  0
  6  5  2  0  0  0
  5 10  1  0  0  0
  7 11  1  0  0  0
  8 12  1  0  0  0
M  END
> <minimizedAffinity>
-5.37115

$$$$
3I4Y_35C_A_1


 12 12  0  0  0  0  0  0  0  0999 V2000
    3.0023   -2.0921   18.9080 C   0  0  0  0  0  0  0  0  0  0  0  0
    3.2996   -1.1195   19.8441 C   0  0  0  0  0  0  0  0  0  0  0  0
    2.5297   -0.9705   20.9887 C   0  0  0  0  0  0  0  0  0  0  0  0
    1.4485   -1.8023   21.2018 C   0  0  0  0  0  0  0  0  0  0  0  0
    1.1638   -2.7684   20.2522 C   0  0  0  0  0  0  0  0  0  0  0  0
    1.9202   -2.9263   19.1050 C   0  0  0  0  0  0  0  0  0  0  0  0
    3.7622   -2.2361   17.7922 O   0  0  0  0  0  0  0  0  0  0  0  0
    4.3494   -0.2868   19.6274 O   0  0  0  0  0  0  0  0  0  0  0  0
    2.9004    0.2973   22.1974 Cl  0  0  0  0  0  0  0  0  0  0  0  0
   -0.2325   -3.8351   20.5178 Cl  0  0  0  0  0  0  0  0  0  0  0  0
    4.4984   -1.6740   17.6509 H   0  0  0  0  0  0  0  0  0  0  0  0
    4.8724   -0.3833   18.8560 H   0  0  0  0  0  0  0  0  0  0  0  0
  7  1  1  0  0  0
  1  2  2  0  0  0
  1  6  1  0  0  0
  8  2  1  0  0  0
  2  3  1  0  0  0
  3  9  1  0  0  0
  3  4  2  0  0  0
  5  4  1  0  0  0
  6  5  2  0  0  0
  5 10  1  0  0  0
  7 11  1  0  0  0
  8 12  1  0  0  0
M  END
> <minimizedAffinity>
-4.64764

$$$$
3I4Y_35C_A_1


 12 12  0  0  0  0  0  0  0  0999 V2000
    4.0079   -0.5498   19.9346 C   0  0  0  0  0  0  0  0  0  0  0  0
    3.2093   -0.6282   21.0601 C   0  0  0  0  0  0  0  0  0  0  0  0
    2.1963   -1.5718   21.1529 C   0  0  0  0  0  0  0  0  0  0  0  0
    1.9767   -2.4482   20.1089 C   0  0  0  0  0  0  0  0  0  0  0  0
    2.7841   -2.3530   18.9885 C   0  0  0  0  0  0  0  0  0  0  0  0
    3.7952   -1.4154   18.8805 C   0  0  0  0  0  0  0  0  0  0  0  0
    5.0007    0.3725   19.8515 O   0  0  0  0  0  0  0  0  0  0  0  0
    3.4093    0.2454   22.0795 O   0  0  0  0  0  0  0  0  0  0  0  0
    1.1486   -1.6684   22.6016 Cl  0  0  0  0  0  0  0  0  0  0  0  0
    2.4989   -3.4728   17.6383 Cl  0  0  0  0  0  0  0  0  0  0  0  0
    5.1516    0.9638   20.5626 H   0  0  0  0  0  0  0  0  0  0  0  0
    4.0920    0.8845   22.0216 H   0  0  0  0  0  0  0  0  0  0  0  0
  7  1  1  0  0  0
  1  2  2  0  0  0
  1  6  1  0  0  0
  8  2  1  0  0  0
  2  3  1  0  0  0
  3  9  1  0  0  0
  3  4  2  0  0  0
  5  4  1  0  0  0
  6  5  2  0  0  0
  5 10  1  0  0  0
  7 11  1  0  0  0
  8 12  1  0  0  0
M  END
> <minimizedAffinity>
-4.62294

$$$$
3I4Y_35C_A_1


 12 12  0  0  0  0  0  0  0  0999 V2000
    2.9447   -0.8754   20.4247 C   0  0  0  0  0  0  0  0  0  0  0  0
    3.2952   -1.7585   19.4207 C   0  0  0  0  0  0  0  0  0  0  0  0
    2.3314   -2.5009   18.7537 C   0  0  0  0  0  0  0  0  0  0  0  0
    1.0005   -2.3610   19.0932 C   0  0  0  0  0  0  0  0  0  0  0  0
    0.6683   -1.4745   20.1032 C   0  0  0  0  0  0  0  0  0  0  0  0
    1.6184   -0.7305   20.7790 C   0  0  0  0  0  0  0  0  0  0  0  0
    3.8918   -0.1481   21.0706 O   0  0  0  0  0  0  0  0  0  0  0  0
    4.6047   -1.9134   19.0988 O   0  0  0  0  0  0  0  0  0  0  0  0
    2.7805   -3.6576   17.4630 Cl  0  0  0  0  0  0  0  0  0  0  0  0
   -1.0427   -1.2982   20.5499 Cl  0  0  0  0  0  0  0  0  0  0  0  0
    4.7943   -0.2406   20.8362 H   0  0  0  0  0  0  0  0  0  0  0  0
    5.2594   -1.4144   19.5463 H   0  0  0  0  0  0  0  0  0  0  0  0
  7  1  1  0  0  0
  1  2  2  0  0  0
  1  6  1  0  0  0
  8  2  1  0  0  0
  2  3  1  0  0  0
  3  9  1  0  0  0
  3  4  2  0  0  0
  5  4  1  0  0  0
  6  5  2  0  0  0
  5 10  1  0  0  0
  7 11  1  0  0  0
  8 12  1  0  0  0
M  END
> <minimizedAffinity>
-4.59638

$$$$
3I4Y_35C_A_1


 12 12  0  0  0  0  0  0  0  0999 V2000
    1.3965   -1.6646   20.5085 C   0  0  0  0  0  0  0  0  0  0  0  0
    2.4951   -0.8669   20.7681 C   0  0  0  0  0  0  0  0  0  0  0  0
    3.6329   -0.9386   19.9773 C   0  0  0  0  0  0  0  0  0  0  0  0
    3.6755   -1.8182   18.9139 C   0  0  0  0  0  0  0  0  0  0  0  0
    2.5673   -2.6114   18.6709 C   0  0  0  0  0  0  0  0  0  0  0  0
    1.4278   -2.5533   19.4526 C   0  0  0  0  0  0  0  0  0  0  0  0
    0.2842   -1.5866   21.2830 O   0  0  0  0  0  0  0  0  0  0  0  0
    2.4641   -0.0161   21.8252 O   0  0  0  0  0  0  0  0  0  0  0  0
    5.0649    0.0809   20.3177 Cl  0  0  0  0  0  0  0  0  0  0  0  0
    2.6212   -3.7518   17.3089 Cl  0  0  0  0  0  0  0  0  0  0  0  0
    0.2548   -0.9860   22.0016 H   0  0  0  0  0  0  0  0  0  0  0  0
    1.6981    0.0361   22.3624 H   0  0  0  0  0  0  0  0  0  0  0  0
  7  1  1  0  0  0
  1  2  2  0  0  0
  1  6  1  0  0  0
  8  2  1  0  0  0
  2  3  1  0  0  0
  3  9  1  0  0  0
  3  4  2  0  0  0
  5  4  1  0  0  0
  6  5  2  0  0  0
  5 10  1  0  0  0
  7 11  1  0  0  0
  8 12  1  0  0  0
M  END
> <minimizedAffinity>
-4.36322

$$$$
3I4Y_35C_A_1


 12 12  0  0  0  0  0  0  0  0999 V2000
    3.4241   -2.1243   19.4590 C   0  0  0  0  0  0  0  0  0  0  0  0
    2.0965   -2.4823   19.3170 C   0  0  0  0  0  0  0  0  0  0  0  0
    1.0973   -1.8077   20.0036 C   0  0  0  0  0  0  0  0  0  0  0  0
    1.4268   -0.7627   20.8436 C   0  0  0  0  0  0  0  0  0  0  0  0
    2.7615   -0.4202   20.9760 C   0  0  0  0  0  0  0  0  0  0  0  0
    3.7685   -1.0857   20.3006 C   0  0  0  0  0  0  0  0  0  0  0  0
    4.3970   -2.7850   18.7808 O   0  0  0  0  0  0  0  0  0  0  0  0
    1.7713   -3.5225   18.5079 O   0  0  0  0  0  0  0  0  0  0  0  0
   -0.6225   -2.2766   19.8357 Cl  0  0  0  0  0  0  0  0  0  0  0  0
    3.1912    0.9182   22.0634 Cl  0  0  0  0  0  0  0  0  0  0  0  0
    4.1716   -3.4911   18.2076 H   0  0  0  0  0  0  0  0  0  0  0  0
    2.4424   -3.9813   18.0420 H   0  0  0  0  0  0  0  0  0  0  0  0
  7  1  1  0  0  0
  1  2  2  0  0  0
  1  6  1  0  0  0
  8  2  1  0  0  0
  2  3  1  0  0  0
  3  9  1  0  0  0
  3  4  2  0  0  0
  5  4  1  0  0  0
  6  5  2  0  0  0
  5 10  1  0  0  0
  7 11  1  0  0  0
  8 12  1  0  0  0
M  END
> <minimizedAffinity>
-4.10982

$$$$
3I4Y_35C_A_1


 12 12  0  0  0  0  0  0  0  0999 V2000
    1.9983   -1.5581   21.1371 C   0  0  0  0  0  0  0  0  0  0  0  0
    1.8200   -2.4328   20.0817 C   0  0  0  0  0  0  0  0  0  0  0  0
    2.7091   -2.4581   19.0168 C   0  0  0  0  0  0  0  0  0  0  0  0
    3.7898   -1.5990   19.0042 C   0  0  0  0  0  0  0  0  0  0  0  0
    3.9507   -0.7278   20.0680 C   0  0  0  0  0  0  0  0  0  0  0  0
    3.0708   -0.6890   21.1344 C   0  0  0  0  0  0  0  0  0  0  0  0
    1.1277   -1.5413   22.1787 O   0  0  0  0  0  0  0  0  0  0  0  0
    0.7471   -3.2642   20.0812 O   0  0  0  0  0  0  0  0  0  0  0  0
    2.4750   -3.5779   17.6395 Cl  0  0  0  0  0  0  0  0  0  0  0  0
    5.3352    0.3863   20.0515 Cl  0  0  0  0  0  0  0  0  0  0  0  0
    0.3971   -2.1280   22.1881 H   0  0  0  0  0  0  0  0  0  0  0  0
    0.1438   -3.2510   20.7980 H   0  0  0  0  0  0  0  0  0  0  0  0
  7  1  1  0  0  0
  1  2  2  0  0  0
  1  6  1  0  0  0
  8  2  1  0  0  0
  2  3  1  0  0  0
  3  9  1  0  0  0
  3  4  2  0  0  0
  5  4  1  0  0  0
  6  5  2  0  0  0
  5 10  1  0  0  0
  7 11  1  0  0  0
  8 12  1  0  0  0
M  END
> <minimizedAffinity>
-3.77823

$$$$
3I4Y_35C_A_1


 12 12  0  0  0  0  0  0  0  0999 V2000
    0.8778   -1.9501   20.0027 C   0  0  0  0  0  0  0  0  0  0  0  0
    1.9264   -2.6393   19.4229 C   0  0  0  0  0  0  0  0  0  0  0  0
    3.2388   -2.2271   19.6035 C   0  0  0  0  0  0  0  0  0  0  0  0
    3.5087   -1.1123   20.3720 C   0  0  0  0  0  0  0  0  0  0  0  0
    2.4460   -0.4327   20.9422 C   0  0  0  0  0  0  0  0  0  0  0  0
    1.1326   -0.8299   20.7681 C   0  0  0  0  0  0  0  0  0  0  0  0
   -0.4041   -2.3610   19.8264 O   0  0  0  0  0  0  0  0  0  0  0  0
    1.6629   -3.7235   18.6500 O   0  0  0  0  0  0  0  0  0  0  0  0
    4.6002   -3.1064   18.8425 Cl  0  0  0  0  0  0  0  0  0  0  0  0
    2.7880    1.0083   21.9244 Cl  0  0  0  0  0  0  0  0  0  0  0  0
   -0.5856   -3.1204   19.3083 H   0  0  0  0  0  0  0  0  0  0  0  0
    0.7782   -4.0058   18.5249 H   0  0  0  0  0  0  0  0  0  0  0  0
  7  1  1  0  0  0
  1  2  2  0  0  0
  1  6  1  0  0  0
  8  2  1  0  0  0
  2  3  1  0  0  0
  3  9  1  0  0  0
  3  4  2  0  0  0
  5  4  1  0  0  0
  6  5  2  0  0  0
  5 10  1  0  0  0
  7 11  1  0  0  0
  8 12  1  0  0  0
M  END
> <minimizedAffinity>
-3.01045

$$$$
3I4Y_35C_A_1


 12 12  0  0  0  0  0  0  0  0999 V2000
    2.5715   -2.4991   18.9858 C   0  0  0  0  0  0  0  0  0  0  0  0
    1.7957   -2.5091   20.1298 C   0  0  0  0  0  0  0  0  0  0  0  0
    2.0773   -1.6611   21.1913 C   0  0  0  0  0  0  0  0  0  0  0  0
    3.1472   -0.7922   21.1107 C   0  0  0  0  0  0  0  0  0  0  0  0
    3.9148   -0.7982   19.9587 C   0  0  0  0  0  0  0  0  0  0  0  0
    3.6482   -1.6402   18.8942 C   0  0  0  0  0  0  0  0  0  0  0  0
    2.2882   -3.3279   17.9484 O   0  0  0  0  0  0  0  0  0  0  0  0
    0.7557   -3.3766   20.2204 O   0  0  0  0  0  0  0  0  0  0  0  0
    1.0856   -1.6801   22.6820 Cl  0  0  0  0  0  0  0  0  0  0  0  0
    5.2987    0.3119   19.8543 Cl  0  0  0  0  0  0  0  0  0  0  0  0
    1.5591   -3.9139   18.0026 H   0  0  0  0  0  0  0  0  0  0  0  0
    0.5615   -3.9514   19.5064 H   0  0  0  0  0  0  0  0  0  0  0  0
  7  1  1  0  0  0
  1  2  2  0  0  0
  1  6  1  0  0  0
  8  2  1  0  0  0
  2  3  1  0  0  0
  3  9  1  0  0  0
  3  4  2  0  0  0
  5  4  1  0  0  0
  6  5  2  0  0  0
  5 10  1  0  0  0
  7 11  1  0  0  0
  8 12  1  0  0  0
M  END
> <minimizedAffinity>
-2.99302

$$$$
3I4Y_35C_A_1


 12 12  0  0  0  0  0  0  0  0999 V2000
    2.1289   -2.3394   19.5630 C   0  0  0  0  0  0  0  0  0  0  0  0
    3.2025   -1.5175   19.2753 C   0  0  0  0  0  0  0  0  0  0  0  0
    3.7427   -0.6829   20.2430 C   0  0  0  0  0  0  0  0  0  0  0  0
    3.2043   -0.6673   21.5143 C   0  0  0  0  0  0  0  0  0  0  0  0
    2.1275   -1.4946   21.7834 C   0  0  0  0  0  0  0  0  0  0  0  0
    1.5765   -2.3292   20.8280 C   0  0  0  0  0  0  0  0  0  0  0  0
    1.6077   -3.1575   18.6131 O   0  0  0  0  0  0  0  0  0  0  0  0
    3.7208   -1.5154   18.0208 O   0  0  0  0  0  0  0  0  0  0  0  0
    5.1233    0.3952   19.8724 Cl  0  0  0  0  0  0  0  0  0  0  0  0
    1.4253   -1.4710   23.4158 Cl  0  0  0  0  0  0  0  0  0  0  0  0
    1.9768   -3.1705   17.7520 H   0  0  0  0  0  0  0  0  0  0  0  0
    3.3595   -2.0772   17.3636 H   0  0  0  0  0  0  0  0  0  0  0  0
  7  1  1  0  0  0
  1  2  2  0  0  0
  1  6  1  0  0  0
  8  2  1  0  0  0
  2  3  1  0  0  0
  3  9  1  0  0  0
  3  4  2  0  0  0
  5  4  1  0  0  0
  6  5  2  0  0  0
  5 10  1  0  0  0
  7 11  1  0  0  0
  8 12  1  0  0  0
M  END
> <minimizedAffinity>
-2.71627

$$$$
