3RZ5_RZ5_A_262
  RCSB PDB12061710383D
Coordinates from PDB:3RZ5:A:262 Model:1 without hydrogens
 18 18  0  0  0  0            999 V2000
   15.0430    0.9770   16.8780   S 0  0  0  0  0  0  0  0  0  0  0  0
   18.5540    5.7500   13.5970   N 0  0  0  0  0  0  0  0  0  0  0  0
   16.4660    6.6910   13.5840   O 0  0  0  0  0  0  0  0  0  0  0  0
   16.6720    4.5790   14.6460   C 0  0  0  0  0  0  0  0  0  0  0  0
   17.0120    2.4570   15.7980   C 0  0  0  0  0  0  0  0  0  0  0  0
   17.5260    3.5630   15.0850   C 0  0  0  0  0  0  0  0  0  0  0  0
   15.6270    2.3040   16.0670   C 0  0  0  0  0  0  0  0  0  0  0  0
   15.2980    4.4290   14.8710   C 0  0  0  0  0  0  0  0  0  0  0  0
   14.7700    3.3550   15.5940   C 0  0  0  0  0  0  0  0  0  0  0  0
   17.2340    5.7470   13.8940   C 0  0  0  0  0  0  0  0  0  0  0  0
   19.2410    6.8540   12.8650   C 0  0  0  0  0  0  0  0  0  0  0  0
   13.5900    1.0140   16.7640   O 0  0  0  0  0  0  0  0  0  0  0  0
   19.6380    7.8610   13.9610   C 0  0  0  0  0  0  0  0  0  0  0  0
   15.5900    1.0310   18.2070   O 0  0  0  0  0  0  0  0  0  0  0  0
   19.9940    9.1990   13.3810   C 0  0  0  0  0  0  0  0  0  0  0  0
   15.6350   -0.3410   16.2120   N 0  0  0  0  0  0  0  0  0  0  0  0
   19.9990   10.2340   14.4950   C 0  0  0  0  0  0  0  0  0  0  0  0
   19.3390   11.4780   13.9350   C 0  0  0  0  0  0  0  0  0  0  0  0
  7  1  1  0  0  0  0
 16  1  1  0  0  0  0
 12  1  2  0  0  0  0
  1 14  2  0  0  0  0
 11  2  1  0  0  0  0
  2 10  1  0  0  0  0
  3 10  2  0  0  0  0
 10  4  1  0  0  0  0
  4  8  2  0  0  0  0
  4  6  1  0  0  0  0
  6  5  2  0  0  0  0
  5  7  1  0  0  0  0
  9  7  2  0  0  0  0
  8  9  1  0  0  0  0
 11 13  1  0  0  0  0
 15 13  1  0  0  0  0
 15 17  1  0  0  0  0
 18 17  1  0  0  0  0
A    1
S
A    2
N'
A    3
O'
A    4
C1
A    5
C2
A    6
C3
A    7
C4
A    8
C5
A    9
C6
A   10
C7
A   11
C1'
A   12
O1S
A   13
C2'
A   14
O2S
A   15
C3'
A   16
N3S
A   17
C4'
A   18
C5'
M  END
>  <InstanceId>
3RZ5_RZ5_A_262

>  <ChemCompId>
RZ5

>  <PdbId>
3RZ5

>  <ChainId>
A

>  <ResidueNumber>
262

>  <InsertionCode>


>  <Model>
1

>  <AltIds>


>  <MissingHeavyAtoms>
0

>  <ObservedFormula>
C12 N2 O3 S

>  <Name>
N-pentyl-4-sulfamoylbenzamide

>  <SystematicName>
N-pentyl-4-sulfamoyl-benzamide

>  <Synonyms>


>  <Type>
NON-POLYMER

>  <Formula>
C12 H18 N2 O3 S

>  <MolecularWeight>
270.348

>  <ModifiedDate>
2011-08-05

>  <Parent>


>  <OneLetterCode>


>  <SubcomponentList>


>  <AmbiguousFlag>
N

>  <InChI>
InChI=1S/C12H18N2O3S/c1-2-3-4-9-14-12(15)10-5-7-11(8-6-10)18(13,16)17/h5-8H,2-4,9H2,1H3,(H,14,15)(H2,13,16,17)

>  <InChIKey>
KESWXTXQYSIIJQ-UHFFFAOYSA-N

>  <SMILES>
CCCCCNC(=O)c1ccc(cc1)S(=O)(=O)N

$$$$
