5OM7_DM2_A_501


 46 50  0  0  0  0  0  0  0  0999 V2000
  -22.7706    6.2255    2.1615 C   0  0  0  0  0  0  0  0  0  0  0  0
  -23.0403    7.4971    2.6345 C   0  0  0  0  0  0  0  0  0  0  0  0
  -22.0022    8.3631    2.9149 C   0  0  0  0  0  0  0  0  0  0  0  0
  -20.6761    7.9397    2.7280 C   0  0  0  0  0  0  0  0  0  0  0  0
  -20.3894    6.6566    2.2848 C   0  0  0  0  0  0  0  0  0  0  0  0
  -19.0020    6.1852    2.0513 C   0  0  0  0  0  0  0  0  0  0  0  0
  -18.0184    6.8752    2.2814 O   0  0  0  0  0  0  0  0  0  0  0  0
  -18.8255    4.8193    1.5152 C   0  0  0  0  0  0  0  0  0  0  0  0
  -17.5219    4.3326    1.2760 C   0  0  0  0  0  0  0  0  0  0  0  0
  -16.4630    5.1476    1.5543 O   0  0  0  0  0  0  0  0  0  0  0  0
  -17.3027    3.0361    0.7799 C   0  0  0  0  0  0  0  0  0  0  0  0
  -15.8707    2.5676    0.5047 C   0  0  0  0  0  0  0  0  0  0  0  0
  -15.8581    1.2609   -0.3944 C   0  0  0  0  0  0  0  0  0  0  0  0
  -16.9022    0.2574    0.1421 C   0  0  0  0  0  0  0  0  0  0  0  0
  -16.6189    0.0062    1.5062 O   0  0  0  0  0  0  0  0  0  0  0  0
  -18.2987    0.8529   -0.0629 C   0  0  0  0  0  0  0  0  0  0  0  0
  -18.4029    2.2237    0.4781 C   0  0  0  0  0  0  0  0  0  0  0  0
  -19.7055    2.7113    0.7123 C   0  0  0  0  0  0  0  0  0  0  0  0
  -20.7649    1.8471    0.4082 O   0  0  0  0  0  0  0  0  0  0  0  0
  -19.9156    4.0035    1.2233 C   0  0  0  0  0  0  0  0  0  0  0  0
  -21.2782    4.5017    1.4353 C   0  0  0  0  0  0  0  0  0  0  0  0
  -22.2340    3.7914    1.1800 O   0  0  0  0  0  0  0  0  0  0  0  0
  -21.4773    5.8345    1.9590 C   0  0  0  0  0  0  0  0  0  0  0  0
  -16.6111    6.0117    1.8850 H   0  0  0  0  0  0  0  0  0  0  0  0
  -15.7280   -0.3688    1.5876 H   0  0  0  0  0  0  0  0  0  0  0  0
  -20.5890    0.9917    0.0687 H   0  0  0  0  0  0  0  0  0  0  0  0
  -19.6162    8.7557    3.0044 O   0  0  0  0  0  0  0  0  0  0  0  0
  -19.8551   10.1169    2.6040 C   0  0  0  0  0  0  0  0  0  0  0  0
  -16.8413   -1.0765   -0.5895 C   0  0  0  0  0  0  0  0  0  0  0  0
  -16.8515   -1.1629   -1.7923 O   0  0  0  0  0  0  0  0  0  0  0  0
  -16.7988   -2.2966    0.2953 C   0  0  0  0  0  0  0  0  0  0  0  0
  -18.1390   -2.6482    0.4876 O   0  0  0  0  0  0  0  0  0  0  0  0
  -18.6153   -1.9022    0.8845 H   0  0  0  0  0  0  0  0  0  0  0  0
  -15.0494    2.4810    1.6740 O   0  0  0  0  0  0  0  0  0  0  0  0
  -13.7478    1.9832    1.4198 C   0  0  0  0  0  0  0  0  0  0  0  0
  -12.7188    3.0399    1.8848 C   0  0  0  0  0  0  0  0  0  0  0  0
  -12.7076    3.1213    3.4099 C   0  0  0  0  0  0  0  0  0  0  0  0
  -11.6274    3.9991    3.8366 N   0  0  0  0  0  0  0  0  0  0  0  0
  -12.4930    1.6903    4.0048 C   0  0  0  0  0  0  0  0  0  0  0  0
  -11.3026    1.1583    3.4491 O   0  0  0  0  0  0  0  0  0  0  0  0
  -13.6868    0.8825    3.5456 C   0  0  0  0  0  0  0  0  0  0  0  0
  -13.5966    0.7494    2.1286 O   0  0  0  0  0  0  0  0  0  0  0  0
  -13.7572   -0.4963    4.1614 C   0  0  0  0  0  0  0  0  0  0  0  0
  -10.7369    3.6280    3.5055 H   0  0  0  0  0  0  0  0  0  0  0  0
  -11.6156    4.0533    4.8551 H   0  0  0  0  0  0  0  0  0  0  0  0
  -11.3694    1.1584    2.4814 H   0  0  0  0  0  0  0  0  0  0  0  0
  1  2  2  0  0  0
  1 23  1  0  0  0
  2  3  1  0  0  0
  3  4  2  0  0  0
  4 27  1  0  0  0
  4  5  1  0  0  0
 27 28  1  0  0  0
  5  6  1  0  0  0
  5 23  2  0  0  0
  6  7  2  0  0  0
  6  8  1  0  0  0
  8  9  2  0  0  0
  8 20  1  0  0  0
  9 10  1  0  0  0
  9 11  1  0  0  0
 11 12  1  0  0  0
 11 17  2  0  0  0
 12 34  1  0  0  0
 12 13  1  0  0  0
 34 35  1  0  0  0
 13 14  1  0  0  0
 14 15  1  0  0  0
 14 29  1  0  0  0
 14 16  1  0  0  0
 29 30  2  0  0  0
 29 31  1  0  0  0
 31 32  1  0  0  0
 16 17  1  0  0  0
 17 18  1  0  0  0
 18 19  1  0  0  0
 18 20  2  0  0  0
 20 21  1  0  0  0
 21 22  2  0  0  0
 21 23  1  0  0  0
 35 36  1  0  0  0
 35 42  1  0  0  0
 36 37  1  0  0  0
 37 38  1  0  0  0
 37 39  1  0  0  0
 39 40  1  0  0  0
 39 41  1  0  0  0
 41 42  1  0  0  0
 41 43  1  0  0  0
 10 24  1  0  0  0
 15 25  1  0  0  0
 32 33  1  0  0  0
 19 26  1  0  0  0
 38 44  1  0  0  0
 38 45  1  0  0  0
 40 46  1  0  0  0
M  END
> <minimizedAffinity>
-13.85781

$$$$
5OM7_DM2_A_501


 46 50  0  0  0  0  0  0  0  0999 V2000
  -22.0682    4.1518    1.3859 C   0  0  0  0  0  0  0  0  0  0  0  0
  -22.7035    5.3099    1.7967 C   0  0  0  0  0  0  0  0  0  0  0  0
  -21.9583    6.4188    2.1450 C   0  0  0  0  0  0  0  0  0  0  0  0
  -20.5562    6.3574    2.0904 C   0  0  0  0  0  0  0  0  0  0  0  0
  -19.9044    5.1927    1.7111 C   0  0  0  0  0  0  0  0  0  0  0  0
  -18.4265    5.1009    1.6169 C   0  0  0  0  0  0  0  0  0  0  0  0
  -17.6830    6.0255    1.9151 O   0  0  0  0  0  0  0  0  0  0  0  0
  -17.8501    3.8272    1.1375 C   0  0  0  0  0  0  0  0  0  0  0  0
  -16.4482    3.6985    1.0306 C   0  0  0  0  0  0  0  0  0  0  0  0
  -15.6696    4.7637    1.3801 O   0  0  0  0  0  0  0  0  0  0  0  0
  -15.8527    2.5031    0.5929 C   0  0  0  0  0  0  0  0  0  0  0  0
  -14.3288    2.4255    0.4611 C   0  0  0  0  0  0  0  0  0  0  0  0
  -13.8911    1.1646   -0.3960 C   0  0  0  0  0  0  0  0  0  0  0  0
  -14.6833   -0.0756    0.0723 C   0  0  0  0  0  0  0  0  0  0  0  0
  -14.4741   -0.2388    1.4630 O   0  0  0  0  0  0  0  0  0  0  0  0
  -16.1609    0.1321   -0.2743 C   0  0  0  0  0  0  0  0  0  0  0  0
  -16.6694    1.4295    0.2163 C   0  0  0  0  0  0  0  0  0  0  0  0
  -18.0702    1.5593    0.3183 C   0  0  0  0  0  0  0  0  0  0  0  0
  -18.8341    0.4465   -0.0555 O   0  0  0  0  0  0  0  0  0  0  0  0
  -18.6573    2.7530    0.7718 C   0  0  0  0  0  0  0  0  0  0  0  0
  -20.1163    2.8772    0.8460 C   0  0  0  0  0  0  0  0  0  0  0  0
  -20.8253    1.9401    0.5257 O   0  0  0  0  0  0  0  0  0  0  0  0
  -20.7046    4.1130    1.3119 C   0  0  0  0  0  0  0  0  0  0  0  0
  -16.0684    5.5599    1.6716 H   0  0  0  0  0  0  0  0  0  0  0  0
  -13.5281   -0.3668    1.6349 H   0  0  0  0  0  0  0  0  0  0  0  0
  -18.4100   -0.3341   -0.3535 H   0  0  0  0  0  0  0  0  0  0  0  0
  -19.7767    7.4238    2.4379 O   0  0  0  0  0  0  0  0  0  0  0  0
  -20.5115    8.4241    3.1655 C   0  0  0  0  0  0  0  0  0  0  0  0
  -14.2079   -1.3494   -0.6130 C   0  0  0  0  0  0  0  0  0  0  0  0
  -14.9667   -2.1660   -1.0729 O   0  0  0  0  0  0  0  0  0  0  0  0
  -12.7130   -1.5420   -0.6521 C   0  0  0  0  0  0  0  0  0  0  0  0
  -12.3783   -2.0177    0.6201 O   0  0  0  0  0  0  0  0  0  0  0  0
  -12.6658   -1.3783    1.2904 H   0  0  0  0  0  0  0  0  0  0  0  0
  -13.6274    2.5615    1.7016 O   0  0  0  0  0  0  0  0  0  0  0  0
  -12.2541    2.2241    1.6190 C   0  0  0  0  0  0  0  0  0  0  0  0
  -11.4226    3.4223    2.1334 C   0  0  0  0  0  0  0  0  0  0  0  0
  -11.5970    3.5683    3.6437 C   0  0  0  0  0  0  0  0  0  0  0  0
  -10.6887    4.5942    4.1356 N   0  0  0  0  0  0  0  0  0  0  0  0
  -11.2788    2.2027    4.3378 C   0  0  0  0  0  0  0  0  0  0  0  0
   -9.9763    1.8045    3.9457 O   0  0  0  0  0  0  0  0  0  0  0  0
  -12.3040    1.2304    3.7972 C   0  0  0  0  0  0  0  0  0  0  0  0
  -12.0356    1.0506    2.4082 O   0  0  0  0  0  0  0  0  0  0  0  0
  -12.2755   -0.1191    4.4780 C   0  0  0  0  0  0  0  0  0  0  0  0
   -9.7273    4.3265    3.9248 H   0  0  0  0  0  0  0  0  0  0  0  0
  -10.8010    4.6922    5.1447 H   0  0  0  0  0  0  0  0  0  0  0  0
   -9.9307    1.7555    2.9780 H   0  0  0  0  0  0  0  0  0  0  0  0
  1  2  2  0  0  0
  1 23  1  0  0  0
  2  3  1  0  0  0
  3  4  2  0  0  0
  4 27  1  0  0  0
  4  5  1  0  0  0
 27 28  1  0  0  0
  5  6  1  0  0  0
  5 23  2  0  0  0
  6  7  2  0  0  0
  6  8  1  0  0  0
  8  9  2  0  0  0
  8 20  1  0  0  0
  9 10  1  0  0  0
  9 11  1  0  0  0
 11 12  1  0  0  0
 11 17  2  0  0  0
 12 34  1  0  0  0
 12 13  1  0  0  0
 34 35  1  0  0  0
 13 14  1  0  0  0
 14 15  1  0  0  0
 14 29  1  0  0  0
 14 16  1  0  0  0
 29 30  2  0  0  0
 29 31  1  0  0  0
 31 32  1  0  0  0
 16 17  1  0  0  0
 17 18  1  0  0  0
 18 19  1  0  0  0
 18 20  2  0  0  0
 20 21  1  0  0  0
 21 22  2  0  0  0
 21 23  1  0  0  0
 35 36  1  0  0  0
 35 42  1  0  0  0
 36 37  1  0  0  0
 37 38  1  0  0  0
 37 39  1  0  0  0
 39 40  1  0  0  0
 39 41  1  0  0  0
 41 42  1  0  0  0
 41 43  1  0  0  0
 10 24  1  0  0  0
 15 25  1  0  0  0
 32 33  1  0  0  0
 19 26  1  0  0  0
 38 44  1  0  0  0
 38 45  1  0  0  0
 40 46  1  0  0  0
M  END
> <minimizedAffinity>
-11.22979

$$$$
