4M2U_ETS_A_302


 22 23  0  0  0  0  0  0  0  0999 V2000
   15.9506    3.1690   15.3644 S   0  0  0  0  0  0  0  0  0  0  0  0
   16.0405    1.5013   15.7037 C   0  0  0  0  0  0  0  0  0  0  0  0
   16.7136    0.7177   14.6719 C   0  0  0  0  0  0  0  0  0  0  0  0
   17.1072    1.7181   13.6981 C   0  0  0  0  0  0  0  0  0  0  0  0
   17.8279    1.1908   12.4713 C   0  0  0  0  0  0  0  0  0  0  0  0
   18.4831    2.2792   11.6384 C   0  0  0  0  0  0  0  0  0  0  0  0
   17.5719    3.4264   11.3245 C   0  0  0  0  0  0  0  0  0  0  0  0
   17.2308    4.2697   12.8757 S   0  0  0  0  0  0  0  0  0  0  0  0
   16.7592    2.9989   13.9558 C   0  0  0  0  0  0  0  0  0  0  0  0
   18.2596    4.3323   10.3456 C   0  0  0  0  0  0  0  0  0  0  0  0
   18.4202    4.8279   13.4558 O   0  0  0  0  0  0  0  0  0  0  0  0
   16.1807    5.2500   12.7328 O   0  0  0  0  0  0  0  0  0  0  0  0
   15.3377    0.9224   17.2137 S   0  0  0  0  0  0  0  0  0  0  0  0
   15.5652   -0.5180   17.3080 O   0  0  0  0  0  0  0  0  0  0  0  0
   16.0031    1.6779   18.2701 O   0  0  0  0  0  0  0  0  0  0  0  0
   13.7290    1.1075   17.1094 N   0  0  0  0  0  0  0  0  0  0  0  0
   13.3703    0.5383   16.3428 H   0  0  0  0  0  0  0  0  0  0  0  0
   13.5101    2.0885   16.9358 H   0  0  0  0  0  0  0  0  0  0  0  0
   16.8059    0.5049   11.6910 N   0  0  0  0  0  0  0  0  0  0  0  0
   16.3386    1.1968   11.1050 H   0  0  0  0  0  0  0  0  0  0  0  0
   17.2933   -0.5495   10.8351 C   0  0  0  0  0  0  0  0  0  0  0  0
   18.2242   -1.5640   11.4453 C   0  0  0  0  0  0  0  0  0  0  0  0
  1  2  1  0  0  0
  1  9  1  0  0  0
  2  3  2  0  0  0
  2 13  1  0  0  0
  3  4  1  0  0  0
  4  5  1  0  0  0
  4  9  2  0  0  0
  5  6  1  0  0  0
  5 19  1  0  0  0
  6  7  1  0  0  0
  7  8  1  0  0  0
  7 10  1  0  0  0
  8  9  1  0  0  0
  8 11  2  0  0  0
  8 12  2  0  0  0
 13 14  2  0  0  0
 13 15  2  0  0  0
 13 16  1  0  0  0
 19 21  1  0  0  0
 21 22  1  0  0  0
 16 17  1  0  0  0
 16 18  1  0  0  0
 19 20  1  0  0  0
M  END
> <minimizedAffinity>
-6.96715

$$$$
4M2U_ETS_A_302


 22 23  0  0  0  0  0  0  0  0999 V2000
   18.2219    2.5080   11.7471 S   0  0  0  0  0  0  0  0  0  0  0  0
   17.6659    0.9664   12.2149 C   0  0  0  0  0  0  0  0  0  0  0  0
   16.8308    0.9711   13.4125 C   0  0  0  0  0  0  0  0  0  0  0  0
   16.7552    2.3775   13.7599 C   0  0  0  0  0  0  0  0  0  0  0  0
   15.9504    2.7028   15.0044 C   0  0  0  0  0  0  0  0  0  0  0  0
   15.6440    4.1827   15.1585 C   0  0  0  0  0  0  0  0  0  0  0  0
   16.8446    5.0649   15.0000 C   0  0  0  0  0  0  0  0  0  0  0  0
   17.3631    4.9473   13.2821 S   0  0  0  0  0  0  0  0  0  0  0  0
   17.4361    3.2431   12.9756 C   0  0  0  0  0  0  0  0  0  0  0  0
   16.4604    6.4692   15.3637 C   0  0  0  0  0  0  0  0  0  0  0  0
   16.3588    5.4436   12.3834 O   0  0  0  0  0  0  0  0  0  0  0  0
   18.6465    5.5722   13.0660 O   0  0  0  0  0  0  0  0  0  0  0  0
   18.1405   -0.4200   11.2341 S   0  0  0  0  0  0  0  0  0  0  0  0
   19.5895   -0.5819   11.3318 O   0  0  0  0  0  0  0  0  0  0  0  0
   17.3993   -1.5545   11.7754 O   0  0  0  0  0  0  0  0  0  0  0  0
   17.8432   -0.0487    9.6827 N   0  0  0  0  0  0  0  0  0  0  0  0
   18.4108    0.7538    9.4103 H   0  0  0  0  0  0  0  0  0  0  0  0
   16.8554    0.1800    9.5710 H   0  0  0  0  0  0  0  0  0  0  0  0
   16.7641    2.2374   16.1203 N   0  0  0  0  0  0  0  0  0  0  0  0
   17.2739    3.0376   16.4948 H   0  0  0  0  0  0  0  0  0  0  0  0
   16.0291    1.6294   17.2029 C   0  0  0  0  0  0  0  0  0  0  0  0
   14.6639    1.0761   16.8900 C   0  0  0  0  0  0  0  0  0  0  0  0
  1  2  1  0  0  0
  1  9  1  0  0  0
  2  3  2  0  0  0
  2 13  1  0  0  0
  3  4  1  0  0  0
  4  5  1  0  0  0
  4  9  2  0  0  0
  5  6  1  0  0  0
  5 19  1  0  0  0
  6  7  1  0  0  0
  7  8  1  0  0  0
  7 10  1  0  0  0
  8  9  1  0  0  0
  8 11  2  0  0  0
  8 12  2  0  0  0
 13 14  2  0  0  0
 13 15  2  0  0  0
 13 16  1  0  0  0
 19 21  1  0  0  0
 21 22  1  0  0  0
 16 17  1  0  0  0
 16 18  1  0  0  0
 19 20  1  0  0  0
M  END
> <minimizedAffinity>
-6.93676

$$$$
4M2U_ETS_A_302


 22 23  0  0  0  0  0  0  0  0999 V2000
   16.7502    1.1153   14.7039 S   0  0  0  0  0  0  0  0  0  0  0  0
   15.8357    1.9779   15.8547 C   0  0  0  0  0  0  0  0  0  0  0  0
   15.7354    3.4094   15.5858 C   0  0  0  0  0  0  0  0  0  0  0  0
   16.4703    3.5674   14.3451 C   0  0  0  0  0  0  0  0  0  0  0  0
   16.5595    4.9852   13.8121 C   0  0  0  0  0  0  0  0  0  0  0  0
   17.0630    5.0643   12.3810 C   0  0  0  0  0  0  0  0  0  0  0  0
   18.3144    4.2766   12.1397 C   0  0  0  0  0  0  0  0  0  0  0  0
   17.8856    2.5386   12.3103 S   0  0  0  0  0  0  0  0  0  0  0  0
   17.0323    2.4570   13.8166 C   0  0  0  0  0  0  0  0  0  0  0  0
   18.8185    4.5859   10.7604 C   0  0  0  0  0  0  0  0  0  0  0  0
   16.9322    2.1215   11.3204 O   0  0  0  0  0  0  0  0  0  0  0  0
   19.0582    1.6967   12.3283 O   0  0  0  0  0  0  0  0  0  0  0  0
   15.1311    1.0789   17.1979 S   0  0  0  0  0  0  0  0  0  0  0  0
   13.7102    0.8752   16.9240 O   0  0  0  0  0  0  0  0  0  0  0  0
   15.8848   -0.1685   17.2723 O   0  0  0  0  0  0  0  0  0  0  0  0
   15.1938    2.0294   18.5116 N   0  0  0  0  0  0  0  0  0  0  0  0
   14.6358    2.8681   18.3513 H   0  0  0  0  0  0  0  0  0  0  0  0
   16.1618    2.2947   18.6934 H   0  0  0  0  0  0  0  0  0  0  0  0
   17.4781    5.6752   14.7088 N   0  0  0  0  0  0  0  0  0  0  0  0
   18.3448    5.1387   14.7472 H   0  0  0  0  0  0  0  0  0  0  0  0
   17.8063    7.0276   14.3276 C   0  0  0  0  0  0  0  0  0  0  0  0
   18.3393    7.9408   15.4000 C   0  0  0  0  0  0  0  0  0  0  0  0
  1  2  1  0  0  0
  1  9  1  0  0  0
  2  3  2  0  0  0
  2 13  1  0  0  0
  3  4  1  0  0  0
  4  5  1  0  0  0
  4  9  2  0  0  0
  5  6  1  0  0  0
  5 19  1  0  0  0
  6  7  1  0  0  0
  7  8  1  0  0  0
  7 10  1  0  0  0
  8  9  1  0  0  0
  8 11  2  0  0  0
  8 12  2  0  0  0
 13 14  2  0  0  0
 13 15  2  0  0  0
 13 16  1  0  0  0
 19 21  1  0  0  0
 21 22  1  0  0  0
 16 17  1  0  0  0
 16 18  1  0  0  0
 19 20  1  0  0  0
M  END
> <minimizedAffinity>
-6.56929

$$$$
4M2U_ETS_A_302


 22 23  0  0  0  0  0  0  0  0999 V2000
   18.8326    5.1997   12.2144 S   0  0  0  0  0  0  0  0  0  0  0  0
   18.4188    5.9488   13.6883 C   0  0  0  0  0  0  0  0  0  0  0  0
   17.7213    5.0746   14.6269 C   0  0  0  0  0  0  0  0  0  0  0  0
   17.6661    3.8072   13.9232 C   0  0  0  0  0  0  0  0  0  0  0  0
   16.9639    2.6800   14.6572 C   0  0  0  0  0  0  0  0  0  0  0  0
   17.1920    1.3146   14.0317 C   0  0  0  0  0  0  0  0  0  0  0  0
   16.9478    1.2820   12.5538 C   0  0  0  0  0  0  0  0  0  0  0  0
   18.2268    2.2855   11.7850 S   0  0  0  0  0  0  0  0  0  0  0  0
   18.2003    3.7683   12.6818 C   0  0  0  0  0  0  0  0  0  0  0  0
   17.0121   -0.1429   12.0875 C   0  0  0  0  0  0  0  0  0  0  0  0
   19.5384    1.7427   12.0036 O   0  0  0  0  0  0  0  0  0  0  0  0
   17.9574    2.5167   10.3857 O   0  0  0  0  0  0  0  0  0  0  0  0
   18.8651    7.6396   13.9141 S   0  0  0  0  0  0  0  0  0  0  0  0
   20.3231    7.7337   13.9423 O   0  0  0  0  0  0  0  0  0  0  0  0
   18.2663    8.3556   12.7924 O   0  0  0  0  0  0  0  0  0  0  0  0
   18.3670    8.0857   15.3926 N   0  0  0  0  0  0  0  0  0  0  0  0
   18.8464    7.5244   16.0966 H   0  0  0  0  0  0  0  0  0  0  0  0
   17.3603    7.9411   15.4703 H   0  0  0  0  0  0  0  0  0  0  0  0
   15.5475    3.0215   14.6201 N   0  0  0  0  0  0  0  0  0  0  0  0
   15.0565    2.2790   14.1221 H   0  0  0  0  0  0  0  0  0  0  0  0
   14.9223    3.1834   15.9104 C   0  0  0  0  0  0  0  0  0  0  0  0
   14.5495    1.9331   16.6624 C   0  0  0  0  0  0  0  0  0  0  0  0
  1  2  1  0  0  0
  1  9  1  0  0  0
  2  3  2  0  0  0
  2 13  1  0  0  0
  3  4  1  0  0  0
  4  5  1  0  0  0
  4  9  2  0  0  0
  5  6  1  0  0  0
  5 19  1  0  0  0
  6  7  1  0  0  0
  7  8  1  0  0  0
  7 10  1  0  0  0
  8  9  1  0  0  0
  8 11  2  0  0  0
  8 12  2  0  0  0
 13 14  2  0  0  0
 13 15  2  0  0  0
 13 16  1  0  0  0
 19 21  1  0  0  0
 21 22  1  0  0  0
 16 17  1  0  0  0
 16 18  1  0  0  0
 19 20  1  0  0  0
M  END
> <minimizedAffinity>
-6.17799

$$$$
4M2U_ETS_A_302


 22 23  0  0  0  0  0  0  0  0999 V2000
   18.6449    5.1227   11.2678 S   0  0  0  0  0  0  0  0  0  0  0  0
   18.9849    3.4553   11.1749 C   0  0  0  0  0  0  0  0  0  0  0  0
   18.3141    2.6518   12.1928 C   0  0  0  0  0  0  0  0  0  0  0  0
   17.5352    3.6296   12.9287 C   0  0  0  0  0  0  0  0  0  0  0  0
   16.7262    3.0832   14.0904 C   0  0  0  0  0  0  0  0  0  0  0  0
   15.7047    4.0675   14.6338 C   0  0  0  0  0  0  0  0  0  0  0  0
   16.2688    5.4274   14.9116 C   0  0  0  0  0  0  0  0  0  0  0  0
   16.7074    6.1514   13.3250 S   0  0  0  0  0  0  0  0  0  0  0  0
   17.6397    4.9199   12.5389 C   0  0  0  0  0  0  0  0  0  0  0  0
   15.2278    6.2440   15.6198 C   0  0  0  0  0  0  0  0  0  0  0  0
   15.5578    6.3399   12.4851 O   0  0  0  0  0  0  0  0  0  0  0  0
   17.4732    7.3649   13.4834 O   0  0  0  0  0  0  0  0  0  0  0  0
   20.0703    2.8992    9.9015 S   0  0  0  0  0  0  0  0  0  0  0  0
   21.4473    3.1207   10.3375 O   0  0  0  0  0  0  0  0  0  0  0  0
   19.7517    1.4889    9.7038 O   0  0  0  0  0  0  0  0  0  0  0  0
   19.8552    3.8659    8.6161 N   0  0  0  0  0  0  0  0  0  0  0  0
   20.1063    4.8228    8.8645 H   0  0  0  0  0  0  0  0  0  0  0  0
   18.8775    3.8350    8.3272 H   0  0  0  0  0  0  0  0  0  0  0  0
   17.7053    2.7535   15.1184 N   0  0  0  0  0  0  0  0  0  0  0  0
   18.0048    3.6229   15.5598 H   0  0  0  0  0  0  0  0  0  0  0  0
   17.2318    1.8668   16.1536 C   0  0  0  0  0  0  0  0  0  0  0  0
   16.8025    0.4840   15.7398 C   0  0  0  0  0  0  0  0  0  0  0  0
  1  2  1  0  0  0
  1  9  1  0  0  0
  2  3  2  0  0  0
  2 13  1  0  0  0
  3  4  1  0  0  0
  4  5  1  0  0  0
  4  9  2  0  0  0
  5  6  1  0  0  0
  5 19  1  0  0  0
  6  7  1  0  0  0
  7  8  1  0  0  0
  7 10  1  0  0  0
  8  9  1  0  0  0
  8 11  2  0  0  0
  8 12  2  0  0  0
 13 14  2  0  0  0
 13 15  2  0  0  0
 13 16  1  0  0  0
 19 21  1  0  0  0
 21 22  1  0  0  0
 16 17  1  0  0  0
 16 18  1  0  0  0
 19 20  1  0  0  0
M  END
> <minimizedAffinity>
-5.96734

$$$$
4M2U_ETS_A_302


 22 23  0  0  0  0  0  0  0  0999 V2000
   17.0604    1.0355   13.4408 S   0  0  0  0  0  0  0  0  0  0  0  0
   17.6117    1.0091   11.8284 C   0  0  0  0  0  0  0  0  0  0  0  0
   17.8096    2.3322   11.2435 C   0  0  0  0  0  0  0  0  0  0  0  0
   17.4728    3.2307   12.3314 C   0  0  0  0  0  0  0  0  0  0  0  0
   17.5665    4.7111   12.0118 C   0  0  0  0  0  0  0  0  0  0  0  0
   17.5054    5.6017   13.2409 C   0  0  0  0  0  0  0  0  0  0  0  0
   16.3668    5.2802   14.1602 C   0  0  0  0  0  0  0  0  0  0  0  0
   16.6987    3.6595   14.8650 S   0  0  0  0  0  0  0  0  0  0  0  0
   17.0722    2.6677   13.4936 C   0  0  0  0  0  0  0  0  0  0  0  0
   16.2938    6.3375   15.2226 C   0  0  0  0  0  0  0  0  0  0  0  0
   17.8932    3.6555   15.6624 O   0  0  0  0  0  0  0  0  0  0  0  0
   15.5586    3.1453   15.5862 O   0  0  0  0  0  0  0  0  0  0  0  0
   17.8775   -0.5592   11.0676 S   0  0  0  0  0  0  0  0  0  0  0  0
   19.2696   -0.9480   11.2825 O   0  0  0  0  0  0  0  0  0  0  0  0
   16.9250   -1.4669   11.6988 O   0  0  0  0  0  0  0  0  0  0  0  0
   17.7189   -0.3607    9.4649 N   0  0  0  0  0  0  0  0  0  0  0  0
   18.4304    0.2893    9.1308 H   0  0  0  0  0  0  0  0  0  0  0  0
   16.7927    0.0136    9.2586 H   0  0  0  0  0  0  0  0  0  0  0  0
   16.4370    4.9862   11.1329 N   0  0  0  0  0  0  0  0  0  0  0  0
   15.7186    5.4599   11.6806 H   0  0  0  0  0  0  0  0  0  0  0  0
   16.7390    5.8082    9.9861 C   0  0  0  0  0  0  0  0  0  0  0  0
   17.9928    5.4897    9.2151 C   0  0  0  0  0  0  0  0  0  0  0  0
  1  2  1  0  0  0
  1  9  1  0  0  0
  2  3  2  0  0  0
  2 13  1  0  0  0
  3  4  1  0  0  0
  4  5  1  0  0  0
  4  9  2  0  0  0
  5  6  1  0  0  0
  5 19  1  0  0  0
  6  7  1  0  0  0
  7  8  1  0  0  0
  7 10  1  0  0  0
  8  9  1  0  0  0
  8 11  2  0  0  0
  8 12  2  0  0  0
 13 14  2  0  0  0
 13 15  2  0  0  0
 13 16  1  0  0  0
 19 21  1  0  0  0
 21 22  1  0  0  0
 16 17  1  0  0  0
 16 18  1  0  0  0
 19 20  1  0  0  0
M  END
> <minimizedAffinity>
-5.94280

$$$$
4M2U_ETS_A_302


 22 23  0  0  0  0  0  0  0  0999 V2000
   16.9018    1.9974   12.5725 S   0  0  0  0  0  0  0  0  0  0  0  0
   18.1901    1.2695   11.7269 C   0  0  0  0  0  0  0  0  0  0  0  0
   19.3693    2.1193   11.5889 C   0  0  0  0  0  0  0  0  0  0  0  0
   18.9921    3.3291   12.2949 C   0  0  0  0  0  0  0  0  0  0  0  0
   20.0334    4.4328   12.3067 C   0  0  0  0  0  0  0  0  0  0  0  0
   19.7283    5.5434   13.2972 C   0  0  0  0  0  0  0  0  0  0  0  0
   18.3293    6.0702   13.1976 C   0  0  0  0  0  0  0  0  0  0  0  0
   17.2293    4.7523   13.7333 S   0  0  0  0  0  0  0  0  0  0  0  0
   17.7502    3.3693   12.8279 C   0  0  0  0  0  0  0  0  0  0  0  0
   18.2075    7.2799   14.0772 C   0  0  0  0  0  0  0  0  0  0  0  0
   17.4454    4.3988   15.1085 O   0  0  0  0  0  0  0  0  0  0  0  0
   15.8465    5.0645   13.4603 O   0  0  0  0  0  0  0  0  0  0  0  0
   17.9686   -0.3759   11.1329 S   0  0  0  0  0  0  0  0  0  0  0  0
   19.2130   -1.1138   11.3387 O   0  0  0  0  0  0  0  0  0  0  0  0
   16.8479   -0.9190   11.8934 O   0  0  0  0  0  0  0  0  0  0  0  0
   17.7666   -0.2945    9.5249 N   0  0  0  0  0  0  0  0  0  0  0  0
   18.6051    0.0975    9.0963 H   0  0  0  0  0  0  0  0  0  0  0  0
   16.9661    0.3009    9.3125 H   0  0  0  0  0  0  0  0  0  0  0  0
   20.0500    4.9593   10.9479 N   0  0  0  0  0  0  0  0  0  0  0  0
   19.6256    5.8867   10.9633 H   0  0  0  0  0  0  0  0  0  0  0  0
   21.3590    5.0768   10.3523 C   0  0  0  0  0  0  0  0  0  0  0  0
   22.4785    4.2859   10.9760 C   0  0  0  0  0  0  0  0  0  0  0  0
  1  2  1  0  0  0
  1  9  1  0  0  0
  2  3  2  0  0  0
  2 13  1  0  0  0
  3  4  1  0  0  0
  4  5  1  0  0  0
  4  9  2  0  0  0
  5  6  1  0  0  0
  5 19  1  0  0  0
  6  7  1  0  0  0
  7  8  1  0  0  0
  7 10  1  0  0  0
  8  9  1  0  0  0
  8 11  2  0  0  0
  8 12  2  0  0  0
 13 14  2  0  0  0
 13 15  2  0  0  0
 13 16  1  0  0  0
 19 21  1  0  0  0
 21 22  1  0  0  0
 16 17  1  0  0  0
 16 18  1  0  0  0
 19 20  1  0  0  0
M  END
> <minimizedAffinity>
-5.88268

$$$$
4M2U_ETS_A_302


 22 23  0  0  0  0  0  0  0  0999 V2000
   19.5683    3.2077   11.2406 S   0  0  0  0  0  0  0  0  0  0  0  0
   20.7333    4.3731   11.6755 C   0  0  0  0  0  0  0  0  0  0  0  0
   20.3890    5.1462   12.8652 C   0  0  0  0  0  0  0  0  0  0  0  0
   19.1201    4.5762   13.2768 C   0  0  0  0  0  0  0  0  0  0  0  0
   18.4875    5.2033   14.5052 C   0  0  0  0  0  0  0  0  0  0  0  0
   17.3353    4.3932   15.0742 C   0  0  0  0  0  0  0  0  0  0  0  0
   16.3231    3.9848   14.0478 C   0  0  0  0  0  0  0  0  0  0  0  0
   17.1277    2.8080   12.9517 S   0  0  0  0  0  0  0  0  0  0  0  0
   18.6127    3.5849   12.5101 C   0  0  0  0  0  0  0  0  0  0  0  0
   15.1487    3.3683   14.7498 C   0  0  0  0  0  0  0  0  0  0  0  0
   17.5249    1.6143   13.6446 O   0  0  0  0  0  0  0  0  0  0  0  0
   16.3220    2.5220   11.7884 O   0  0  0  0  0  0  0  0  0  0  0  0
   22.1804    4.5126   10.6778 S   0  0  0  0  0  0  0  0  0  0  0  0
   22.2010    3.3976    9.7335 O   0  0  0  0  0  0  0  0  0  0  0  0
   22.0821    5.8142   10.0254 O   0  0  0  0  0  0  0  0  0  0  0  0
   23.4659    4.2944   11.6438 N   0  0  0  0  0  0  0  0  0  0  0  0
   23.4346    3.3570   12.0448 H   0  0  0  0  0  0  0  0  0  0  0  0
   23.4489    4.9856   12.3937 H   0  0  0  0  0  0  0  0  0  0  0  0
   18.0170    6.5119   14.0689 N   0  0  0  0  0  0  0  0  0  0  0  0
   17.0244    6.4330   13.8478 H   0  0  0  0  0  0  0  0  0  0  0  0
   18.1771    7.5733   15.0331 C   0  0  0  0  0  0  0  0  0  0  0  0
   19.5022    8.2881   15.0645 C   0  0  0  0  0  0  0  0  0  0  0  0
  1  2  1  0  0  0
  1  9  1  0  0  0
  2  3  2  0  0  0
  2 13  1  0  0  0
  3  4  1  0  0  0
  4  5  1  0  0  0
  4  9  2  0  0  0
  5  6  1  0  0  0
  5 19  1  0  0  0
  6  7  1  0  0  0
  7  8  1  0  0  0
  7 10  1  0  0  0
  8  9  1  0  0  0
  8 11  2  0  0  0
  8 12  2  0  0  0
 13 14  2  0  0  0
 13 15  2  0  0  0
 13 16  1  0  0  0
 19 21  1  0  0  0
 21 22  1  0  0  0
 16 17  1  0  0  0
 16 18  1  0  0  0
 19 20  1  0  0  0
M  END
> <minimizedAffinity>
-5.80251

$$$$
4M2U_ETS_A_302


 22 23  0  0  0  0  0  0  0  0999 V2000
   17.0486    5.7997   11.6758 S   0  0  0  0  0  0  0  0  0  0  0  0
   17.4080    4.9619   10.2359 C   0  0  0  0  0  0  0  0  0  0  0  0
   17.5617    3.5200   10.4069 C   0  0  0  0  0  0  0  0  0  0  0  0
   17.3033    3.3231   11.8206 C   0  0  0  0  0  0  0  0  0  0  0  0
   17.4118    1.8922   12.3137 C   0  0  0  0  0  0  0  0  0  0  0  0
   16.8442    1.6866   13.7077 C   0  0  0  0  0  0  0  0  0  0  0  0
   17.3397    2.6826   14.7114 C   0  0  0  0  0  0  0  0  0  0  0  0
   16.6656    4.2830   14.2443 S   0  0  0  0  0  0  0  0  0  0  0  0
   17.0375    4.4251   12.5575 C   0  0  0  0  0  0  0  0  0  0  0  0
   16.8710    2.2650   16.0744 C   0  0  0  0  0  0  0  0  0  0  0  0
   15.2311    4.3012   14.3111 O   0  0  0  0  0  0  0  0  0  0  0  0
   17.2615    5.3572   15.0026 O   0  0  0  0  0  0  0  0  0  0  0  0
   17.5478    5.8941    8.7459 S   0  0  0  0  0  0  0  0  0  0  0  0
   18.9138    6.4031    8.6446 O   0  0  0  0  0  0  0  0  0  0  0  0
   17.1996    4.9698    7.6717 O   0  0  0  0  0  0  0  0  0  0  0  0
   16.6008    7.2034    8.8951 N   0  0  0  0  0  0  0  0  0  0  0  0
   16.9324    7.7762    9.6712 H   0  0  0  0  0  0  0  0  0  0  0  0
   15.6407    6.9098    9.0752 H   0  0  0  0  0  0  0  0  0  0  0  0
   18.8371    1.5884   12.2996 N   0  0  0  0  0  0  0  0  0  0  0  0
   19.1069    1.2954   13.2386 H   0  0  0  0  0  0  0  0  0  0  0  0
   19.2337    0.5524   11.3770 C   0  0  0  0  0  0  0  0  0  0  0  0
   18.1743   -0.4189   10.9272 C   0  0  0  0  0  0  0  0  0  0  0  0
  1  2  1  0  0  0
  1  9  1  0  0  0
  2  3  2  0  0  0
  2 13  1  0  0  0
  3  4  1  0  0  0
  4  5  1  0  0  0
  4  9  2  0  0  0
  5  6  1  0  0  0
  5 19  1  0  0  0
  6  7  1  0  0  0
  7  8  1  0  0  0
  7 10  1  0  0  0
  8  9  1  0  0  0
  8 11  2  0  0  0
  8 12  2  0  0  0
 13 14  2  0  0  0
 13 15  2  0  0  0
 13 16  1  0  0  0
 19 21  1  0  0  0
 21 22  1  0  0  0
 16 17  1  0  0  0
 16 18  1  0  0  0
 19 20  1  0  0  0
M  END
> <minimizedAffinity>
-5.72472

$$$$
4M2U_ETS_A_302


 22 23  0  0  0  0  0  0  0  0999 V2000
   18.0137    4.4180    9.8135 S   0  0  0  0  0  0  0  0  0  0  0  0
   18.4958    3.7495   11.3053 C   0  0  0  0  0  0  0  0  0  0  0  0
   17.9447    4.4334   12.4716 C   0  0  0  0  0  0  0  0  0  0  0  0
   17.1155    5.4709   11.8882 C   0  0  0  0  0  0  0  0  0  0  0  0
   16.4106    6.3802   12.8774 C   0  0  0  0  0  0  0  0  0  0  0  0
   15.3308    7.2420   12.2456 C   0  0  0  0  0  0  0  0  0  0  0  0
   15.7840    7.9675   11.0155 C   0  0  0  0  0  0  0  0  0  0  0  0
   16.0859    6.7252    9.7509 S   0  0  0  0  0  0  0  0  0  0  0  0
   17.0879    5.5510   10.5389 C   0  0  0  0  0  0  0  0  0  0  0  0
   14.7071    8.9261   10.5989 C   0  0  0  0  0  0  0  0  0  0  0  0
   14.8879    6.0152    9.3994 O   0  0  0  0  0  0  0  0  0  0  0  0
   16.7473    7.2857    8.5965 O   0  0  0  0  0  0  0  0  0  0  0  0
   19.5686    2.3505   11.2800 S   0  0  0  0  0  0  0  0  0  0  0  0
   18.9439    1.2740   12.0458 O   0  0  0  0  0  0  0  0  0  0  0  0
   19.7487    2.0207    9.8700 O   0  0  0  0  0  0  0  0  0  0  0  0
   20.9133    2.7479   12.0968 N   0  0  0  0  0  0  0  0  0  0  0  0
   20.6730    2.9579   13.0656 H   0  0  0  0  0  0  0  0  0  0  0  0
   21.3420    3.5678   11.6675 H   0  0  0  0  0  0  0  0  0  0  0  0
   17.4596    7.2195   13.4422 N   0  0  0  0  0  0  0  0  0  0  0  0
   17.2352    8.1915   13.2295 H   0  0  0  0  0  0  0  0  0  0  0  0
   17.6351    7.1035   14.8697 C   0  0  0  0  0  0  0  0  0  0  0  0
   16.5211    6.4643   15.6560 C   0  0  0  0  0  0  0  0  0  0  0  0
  1  2  1  0  0  0
  1  9  1  0  0  0
  2  3  2  0  0  0
  2 13  1  0  0  0
  3  4  1  0  0  0
  4  5  1  0  0  0
  4  9  2  0  0  0
  5  6  1  0  0  0
  5 19  1  0  0  0
  6  7  1  0  0  0
  7  8  1  0  0  0
  7 10  1  0  0  0
  8  9  1  0  0  0
  8 11  2  0  0  0
  8 12  2  0  0  0
 13 14  2  0  0  0
 13 15  2  0  0  0
 13 16  1  0  0  0
 19 21  1  0  0  0
 21 22  1  0  0  0
 16 17  1  0  0  0
 16 18  1  0  0  0
 19 20  1  0  0  0
M  END
> <minimizedAffinity>
-5.69630

$$$$
