5M28_MLR_A_401


 45 47  0  0  0  0  0  0  0  0999 V2000
   12.1031   12.1658   34.9207 C   0  0  0  0  0  0  0  0  0  0  0  0
   13.0576   11.0285   34.5941 C   0  0  0  0  0  0  0  0  0  0  0  0
   14.3885   11.1793   35.3205 C   0  0  0  0  0  0  0  0  0  0  0  0
   14.9575   12.5828   35.1529 C   0  0  0  0  0  0  0  0  0  0  0  0
   13.9225   13.6499   35.4804 C   0  0  0  0  0  0  0  0  0  0  0  0
   12.4458    9.7987   34.9578 O   0  0  0  0  0  0  0  0  0  0  0  0
   15.3095   10.2261   34.7944 O   0  0  0  0  0  0  0  0  0  0  0  0
   12.7286   13.4217   34.7087 O   0  0  0  0  0  0  0  0  0  0  0  0
   12.2667    9.7961   35.9111 H   0  0  0  0  0  0  0  0  0  0  0  0
   15.4421   10.3929   33.8480 H   0  0  0  0  0  0  0  0  0  0  0  0
   14.4291   15.0320   35.1228 C   0  0  0  0  0  0  0  0  0  0  0  0
   14.9981   15.7239   36.2263 O   0  0  0  0  0  0  0  0  0  0  0  0
   14.3222   15.8541   36.9097 H   0  0  0  0  0  0  0  0  0  0  0  0
   11.6472   12.0165   36.2417 O   0  0  0  0  0  0  0  0  0  0  0  0
    8.0545   12.1160   38.3147 C   0  0  0  0  0  0  0  0  0  0  0  0
    8.1587   11.1028   37.1898 C   0  0  0  0  0  0  0  0  0  0  0  0
    9.6178   10.8873   36.8258 C   0  0  0  0  0  0  0  0  0  0  0  0
   10.2446   12.2239   36.4595 C   0  0  0  0  0  0  0  0  0  0  0  0
   10.0623   13.2291   37.5862 C   0  0  0  0  0  0  0  0  0  0  0  0
    8.6379   11.6133   39.4696 O   0  0  0  0  0  0  0  0  0  0  0  0
    7.5120    9.8770   37.5308 O   0  0  0  0  0  0  0  0  0  0  0  0
    9.6726   10.0000   35.7236 O   0  0  0  0  0  0  0  0  0  0  0  0
    8.6609   13.3392   37.8979 O   0  0  0  0  0  0  0  0  0  0  0  0
    9.5745   11.4240   39.3027 H   0  0  0  0  0  0  0  0  0  0  0  0
    7.9430    9.4895   38.3086 H   0  0  0  0  0  0  0  0  0  0  0  0
    9.1830   10.3804   34.9776 H   0  0  0  0  0  0  0  0  0  0  0  0
   10.5348   14.6086   37.2032 C   0  0  0  0  0  0  0  0  0  0  0  0
   10.3234   14.8566   35.8304 O   0  0  0  0  0  0  0  0  0  0  0  0
   10.8231   14.2125   35.3048 H   0  0  0  0  0  0  0  0  0  0  0  0
   16.0574   12.7331   36.0647 O   0  0  0  0  0  0  0  0  0  0  0  0
   17.3186   13.0225   35.5044 C   0  0  0  0  0  0  0  0  0  0  0  0
   18.3346   11.9780   35.9542 C   0  0  0  0  0  0  0  0  0  0  0  0
   18.6039   12.0862   37.4512 C   0  0  0  0  0  0  0  0  0  0  0  0
   19.0447   13.5091   37.7537 C   0  0  0  0  0  0  0  0  0  0  0  0
   17.9761   14.4860   37.2872 C   0  0  0  0  0  0  0  0  0  0  0  0
   17.8421   10.6934   35.6007 O   0  0  0  0  0  0  0  0  0  0  0  0
   19.5951   11.1513   37.8722 O   0  0  0  0  0  0  0  0  0  0  0  0
   19.2533   13.6597   39.1654 O   0  0  0  0  0  0  0  0  0  0  0  0
   17.7470   14.3204   35.8758 O   0  0  0  0  0  0  0  0  0  0  0  0
   16.9930   10.5395   36.0436 H   0  0  0  0  0  0  0  0  0  0  0  0
   20.4261   11.3282   37.4041 H   0  0  0  0  0  0  0  0  0  0  0  0
   18.4254   13.4753   39.6361 H   0  0  0  0  0  0  0  0  0  0  0  0
   18.3932   15.9219   37.4815 C   0  0  0  0  0  0  0  0  0  0  0  0
   17.7854   16.7883   36.5440 O   0  0  0  0  0  0  0  0  0  0  0  0
   18.0544   16.5344   35.6473 H   0  0  0  0  0  0  0  0  0  0  0  0
 15 16  1  0  0  0
 15 20  1  0  0  0
 15 23  1  0  0  0
 16 17  1  0  0  0
 16 21  1  0  0  0
 17 18  1  0  0  0
 17 22  1  0  0  0
 18 19  1  0  0  0
 18 14  1  0  0  0
 19 27  1  0  0  0
 19 23  1  0  0  0
 27 28  1  0  0  0
 14  1  1  0  0  0
  1  2  1  0  0  0
  1  8  1  0  0  0
  2  3  1  0  0  0
  2  6  1  0  0  0
  3  4  1  0  0  0
  3  7  1  0  0  0
  4  5  1  0  0  0
  4 30  1  0  0  0
  5 11  1  0  0  0
  5  8  1  0  0  0
 11 12  1  0  0  0
 30 31  1  0  0  0
 31 32  1  0  0  0
 31 39  1  0  0  0
 32 33  1  0  0  0
 32 36  1  0  0  0
 33 34  1  0  0  0
 33 37  1  0  0  0
 34 35  1  0  0  0
 34 38  1  0  0  0
 35 43  1  0  0  0
 35 39  1  0  0  0
 43 44  1  0  0  0
 20 24  1  0  0  0
 21 25  1  0  0  0
 22 26  1  0  0  0
 28 29  1  0  0  0
  6  9  1  0  0  0
  7 10  1  0  0  0
 12 13  1  0  0  0
 36 40  1  0  0  0
 37 41  1  0  0  0
 38 42  1  0  0  0
 44 45  1  0  0  0
M  END
> <minimizedAffinity>
-9.81442

$$$$
5M28_MLR_A_401


 45 47  0  0  0  0  0  0  0  0999 V2000
   11.6785   11.4756   36.5790 C   0  0  0  0  0  0  0  0  0  0  0  0
   10.8901   10.1758   36.5950 C   0  0  0  0  0  0  0  0  0  0  0  0
    9.3871   10.4249   36.6193 C   0  0  0  0  0  0  0  0  0  0  0  0
    9.0084   11.4359   37.6946 C   0  0  0  0  0  0  0  0  0  0  0  0
    9.8661   12.6907   37.6110 C   0  0  0  0  0  0  0  0  0  0  0  0
   11.2351    9.4170   35.4442 O   0  0  0  0  0  0  0  0  0  0  0  0
    8.7209    9.1895   36.8715 O   0  0  0  0  0  0  0  0  0  0  0  0
   11.2596   12.3289   37.6325 O   0  0  0  0  0  0  0  0  0  0  0  0
   11.0030    9.9168   34.6459 H   0  0  0  0  0  0  0  0  0  0  0  0
    9.0003    8.8414   37.7326 H   0  0  0  0  0  0  0  0  0  0  0  0
    9.6218   13.6009   38.7969 C   0  0  0  0  0  0  0  0  0  0  0  0
    8.6744   14.6266   38.5312 O   0  0  0  0  0  0  0  0  0  0  0  0
    9.0056   15.1961   37.8192 H   0  0  0  0  0  0  0  0  0  0  0  0
   11.5387   12.0811   35.3184 O   0  0  0  0  0  0  0  0  0  0  0  0
   15.1360   14.1390   35.5150 C   0  0  0  0  0  0  0  0  0  0  0  0
   13.9018   14.9628   35.1970 C   0  0  0  0  0  0  0  0  0  0  0  0
   12.6530   14.1849   35.5762 C   0  0  0  0  0  0  0  0  0  0  0  0
   12.6577   12.8476   34.8515 C   0  0  0  0  0  0  0  0  0  0  0  0
   13.9386   12.0822   35.1454 C   0  0  0  0  0  0  0  0  0  0  0  0
   15.2425   13.9424   36.8850 O   0  0  0  0  0  0  0  0  0  0  0  0
   13.9462   16.2371   35.8384 O   0  0  0  0  0  0  0  0  0  0  0  0
   11.5232   14.9478   35.1933 O   0  0  0  0  0  0  0  0  0  0  0  0
   15.0691   12.9047   34.8010 O   0  0  0  0  0  0  0  0  0  0  0  0
   14.4582   13.4704   37.2059 H   0  0  0  0  0  0  0  0  0  0  0  0
   13.9709   16.1143   36.8003 H   0  0  0  0  0  0  0  0  0  0  0  0
   11.5518   15.1107   34.2375 H   0  0  0  0  0  0  0  0  0  0  0  0
   14.0506   10.8205   34.3277 C   0  0  0  0  0  0  0  0  0  0  0  0
   13.0274   10.7487   33.3589 O   0  0  0  0  0  0  0  0  0  0  0  0
   12.1638   10.7434   33.8006 H   0  0  0  0  0  0  0  0  0  0  0  0
    7.6386   11.8171   37.4898 O   0  0  0  0  0  0  0  0  0  0  0  0
    6.7673   11.6910   38.5912 C   0  0  0  0  0  0  0  0  0  0  0  0
    5.6400   10.7230   38.2487 C   0  0  0  0  0  0  0  0  0  0  0  0
    4.7302   11.3023   37.1708 C   0  0  0  0  0  0  0  0  0  0  0  0
    4.2248   12.6532   37.6504 C   0  0  0  0  0  0  0  0  0  0  0  0
    5.4056   13.5614   37.9588 C   0  0  0  0  0  0  0  0  0  0  0  0
    6.2168    9.4902   37.8423 O   0  0  0  0  0  0  0  0  0  0  0  0
    3.6397   10.4293   36.8834 O   0  0  0  0  0  0  0  0  0  0  0  0
    3.4083   13.2516   36.6334 O   0  0  0  0  0  0  0  0  0  0  0  0
    6.2401   12.9524   38.9612 O   0  0  0  0  0  0  0  0  0  0  0  0
    6.7746    9.6358   37.0622 H   0  0  0  0  0  0  0  0  0  0  0  0
    3.1098   10.2991   37.6854 H   0  0  0  0  0  0  0  0  0  0  0  0
    3.9342   13.3754   35.8278 H   0  0  0  0  0  0  0  0  0  0  0  0
    4.9701   14.8903   38.5224 C   0  0  0  0  0  0  0  0  0  0  0  0
    3.6707   14.8374   39.0774 O   0  0  0  0  0  0  0  0  0  0  0  0
    3.0331   14.6007   38.3857 H   0  0  0  0  0  0  0  0  0  0  0  0
 15 16  1  0  0  0
 15 20  1  0  0  0
 15 23  1  0  0  0
 16 17  1  0  0  0
 16 21  1  0  0  0
 17 18  1  0  0  0
 17 22  1  0  0  0
 18 19  1  0  0  0
 18 14  1  0  0  0
 19 27  1  0  0  0
 19 23  1  0  0  0
 27 28  1  0  0  0
 14  1  1  0  0  0
  1  2  1  0  0  0
  1  8  1  0  0  0
  2  3  1  0  0  0
  2  6  1  0  0  0
  3  4  1  0  0  0
  3  7  1  0  0  0
  4  5  1  0  0  0
  4 30  1  0  0  0
  5 11  1  0  0  0
  5  8  1  0  0  0
 11 12  1  0  0  0
 30 31  1  0  0  0
 31 32  1  0  0  0
 31 39  1  0  0  0
 32 33  1  0  0  0
 32 36  1  0  0  0
 33 34  1  0  0  0
 33 37  1  0  0  0
 34 35  1  0  0  0
 34 38  1  0  0  0
 35 43  1  0  0  0
 35 39  1  0  0  0
 43 44  1  0  0  0
 20 24  1  0  0  0
 21 25  1  0  0  0
 22 26  1  0  0  0
 28 29  1  0  0  0
  6  9  1  0  0  0
  7 10  1  0  0  0
 12 13  1  0  0  0
 36 40  1  0  0  0
 37 41  1  0  0  0
 38 42  1  0  0  0
 44 45  1  0  0  0
M  END
> <minimizedAffinity>
-9.14708

$$$$
5M28_MLR_A_401


 45 47  0  0  0  0  0  0  0  0999 V2000
   13.6065   12.4244   35.1033 C   0  0  0  0  0  0  0  0  0  0  0  0
   14.9125   11.6488   35.0395 C   0  0  0  0  0  0  0  0  0  0  0  0
   15.8378   12.0008   36.1978 C   0  0  0  0  0  0  0  0  0  0  0  0
   15.9772   13.5095   36.3592 C   0  0  0  0  0  0  0  0  0  0  0  0
   14.6198   14.1977   36.3897 C   0  0  0  0  0  0  0  0  0  0  0  0
   14.6205   10.2583   35.0602 O   0  0  0  0  0  0  0  0  0  0  0  0
   17.1202   11.4277   35.9515 O   0  0  0  0  0  0  0  0  0  0  0  0
   13.8554   13.8156   35.2309 O   0  0  0  0  0  0  0  0  0  0  0  0
   14.1620   10.0365   35.8858 H   0  0  0  0  0  0  0  0  0  0  0  0
   17.4849   11.7923   35.1300 H   0  0  0  0  0  0  0  0  0  0  0  0
   14.7689   15.7046   36.3503 C   0  0  0  0  0  0  0  0  0  0  0  0
   15.9604   16.1339   35.7049 O   0  0  0  0  0  0  0  0  0  0  0  0
   16.7301   15.8005   36.1919 H   0  0  0  0  0  0  0  0  0  0  0  0
   12.8282   11.9254   36.1619 O   0  0  0  0  0  0  0  0  0  0  0  0
    8.8875   10.8479   36.8857 C   0  0  0  0  0  0  0  0  0  0  0  0
    9.6725    9.9511   35.9463 C   0  0  0  0  0  0  0  0  0  0  0  0
   11.1604   10.2077   36.1145 C   0  0  0  0  0  0  0  0  0  0  0  0
   11.4435   11.6830   35.8762 C   0  0  0  0  0  0  0  0  0  0  0  0
   10.5909   12.5480   36.7916 C   0  0  0  0  0  0  0  0  0  0  0  0
    9.1581   10.5148   38.2059 O   0  0  0  0  0  0  0  0  0  0  0  0
    9.3472    8.5757   36.1454 O   0  0  0  0  0  0  0  0  0  0  0  0
   11.8559    9.4147   35.1698 O   0  0  0  0  0  0  0  0  0  0  0  0
    9.2040   12.2106   36.6021 O   0  0  0  0  0  0  0  0  0  0  0  0
   10.1054   10.6290   38.3805 H   0  0  0  0  0  0  0  0  0  0  0  0
    9.5780    8.3167   37.0513 H   0  0  0  0  0  0  0  0  0  0  0  0
   11.5642    9.6479   34.2746 H   0  0  0  0  0  0  0  0  0  0  0  0
   10.7298   14.0170   36.4821 C   0  0  0  0  0  0  0  0  0  0  0  0
    9.4692   14.6490   36.4347 O   0  0  0  0  0  0  0  0  0  0  0  0
    8.9313   14.2454   35.7356 H   0  0  0  0  0  0  0  0  0  0  0  0
   16.6369   13.7681   37.6090 O   0  0  0  0  0  0  0  0  0  0  0  0
   17.9926   14.1512   37.5502 C   0  0  0  0  0  0  0  0  0  0  0  0
   18.7499   13.5501   38.7294 C   0  0  0  0  0  0  0  0  0  0  0  0
   18.2884   14.1646   40.0463 C   0  0  0  0  0  0  0  0  0  0  0  0
   18.4466   15.6732   39.9486 C   0  0  0  0  0  0  0  0  0  0  0  0
   17.6547   16.1949   38.7591 C   0  0  0  0  0  0  0  0  0  0  0  0
   18.5607   12.1424   38.7119 O   0  0  0  0  0  0  0  0  0  0  0  0
   19.0301   13.6506   41.1506 O   0  0  0  0  0  0  0  0  0  0  0  0
   17.9681   16.2875   41.1539 O   0  0  0  0  0  0  0  0  0  0  0  0
   18.1160   15.5622   37.5513 O   0  0  0  0  0  0  0  0  0  0  0  0
   17.6149   11.9422   38.7910 H   0  0  0  0  0  0  0  0  0  0  0  0
   19.9700   13.8604   41.0346 H   0  0  0  0  0  0  0  0  0  0  0  0
   17.0302   16.0724   41.2762 H   0  0  0  0  0  0  0  0  0  0  0  0
   17.8412   17.6774   38.5568 C   0  0  0  0  0  0  0  0  0  0  0  0
   17.6816   18.0582   37.2045 O   0  0  0  0  0  0  0  0  0  0  0  0
   18.3505   17.6122   36.6619 H   0  0  0  0  0  0  0  0  0  0  0  0
 15 16  1  0  0  0
 15 20  1  0  0  0
 15 23  1  0  0  0
 16 17  1  0  0  0
 16 21  1  0  0  0
 17 18  1  0  0  0
 17 22  1  0  0  0
 18 19  1  0  0  0
 18 14  1  0  0  0
 19 27  1  0  0  0
 19 23  1  0  0  0
 27 28  1  0  0  0
 14  1  1  0  0  0
  1  2  1  0  0  0
  1  8  1  0  0  0
  2  3  1  0  0  0
  2  6  1  0  0  0
  3  4  1  0  0  0
  3  7  1  0  0  0
  4  5  1  0  0  0
  4 30  1  0  0  0
  5 11  1  0  0  0
  5  8  1  0  0  0
 11 12  1  0  0  0
 30 31  1  0  0  0
 31 32  1  0  0  0
 31 39  1  0  0  0
 32 33  1  0  0  0
 32 36  1  0  0  0
 33 34  1  0  0  0
 33 37  1  0  0  0
 34 35  1  0  0  0
 34 38  1  0  0  0
 35 43  1  0  0  0
 35 39  1  0  0  0
 43 44  1  0  0  0
 20 24  1  0  0  0
 21 25  1  0  0  0
 22 26  1  0  0  0
 28 29  1  0  0  0
  6  9  1  0  0  0
  7 10  1  0  0  0
 12 13  1  0  0  0
 36 40  1  0  0  0
 37 41  1  0  0  0
 38 42  1  0  0  0
 44 45  1  0  0  0
M  END
> <minimizedAffinity>
-8.96780

$$$$
5M28_MLR_A_401


 45 47  0  0  0  0  0  0  0  0999 V2000
   15.9240   13.7971   35.5604 C   0  0  0  0  0  0  0  0  0  0  0  0
   14.6589   14.5774   35.2413 C   0  0  0  0  0  0  0  0  0  0  0  0
   13.4035   13.7608   35.5220 C   0  0  0  0  0  0  0  0  0  0  0  0
   13.4930   12.3723   34.9008 C   0  0  0  0  0  0  0  0  0  0  0  0
   14.8016   11.6818   35.2583 C   0  0  0  0  0  0  0  0  0  0  0  0
   14.6457   15.7661   36.0198 O   0  0  0  0  0  0  0  0  0  0  0  0
   12.2771   14.4510   34.9849 O   0  0  0  0  0  0  0  0  0  0  0  0
   15.9102   12.5338   34.9145 O   0  0  0  0  0  0  0  0  0  0  0  0
   14.6447   15.5355   36.9620 H   0  0  0  0  0  0  0  0  0  0  0  0
   12.3854   14.5497   34.0261 H   0  0  0  0  0  0  0  0  0  0  0  0
   14.9704   10.3925   34.4812 C   0  0  0  0  0  0  0  0  0  0  0  0
   14.0062   10.2286   33.4498 O   0  0  0  0  0  0  0  0  0  0  0  0
   13.1187   10.1930   33.8396 H   0  0  0  0  0  0  0  0  0  0  0  0
   16.0500   13.6785   36.9552 O   0  0  0  0  0  0  0  0  0  0  0  0
   18.9236   14.3033   39.8820 C   0  0  0  0  0  0  0  0  0  0  0  0
   18.4895   15.5222   39.0889 C   0  0  0  0  0  0  0  0  0  0  0  0
   17.1735   15.2358   38.3858 C   0  0  0  0  0  0  0  0  0  0  0  0
   17.3326   14.0028   37.5096 C   0  0  0  0  0  0  0  0  0  0  0  0
   17.8299   12.8222   38.3293 C   0  0  0  0  0  0  0  0  0  0  0  0
   18.0216   14.0505   40.9064 O   0  0  0  0  0  0  0  0  0  0  0  0
   18.4050   16.6807   39.9182 O   0  0  0  0  0  0  0  0  0  0  0  0
   16.8404   16.3618   37.5944 O   0  0  0  0  0  0  0  0  0  0  0  0
   19.0516   13.1918   38.9955 O   0  0  0  0  0  0  0  0  0  0  0  0
   17.1431   13.8843   40.5300 H   0  0  0  0  0  0  0  0  0  0  0  0
   17.7408   16.5354   40.6100 H   0  0  0  0  0  0  0  0  0  0  0  0
   17.5475   16.5253   36.9508 H   0  0  0  0  0  0  0  0  0  0  0  0
   18.1452   11.6233   37.4713 C   0  0  0  0  0  0  0  0  0  0  0  0
   18.7312   10.5910   38.2340 O   0  0  0  0  0  0  0  0  0  0  0  0
   19.5616   10.9076   38.6227 H   0  0  0  0  0  0  0  0  0  0  0  0
   12.4134   11.5785   35.4186 O   0  0  0  0  0  0  0  0  0  0  0  0
   12.2525   11.5522   36.8192 C   0  0  0  0  0  0  0  0  0  0  0  0
   11.7474   10.1809   37.2546 C   0  0  0  0  0  0  0  0  0  0  0  0
   10.3284    9.9361   36.7530 C   0  0  0  0  0  0  0  0  0  0  0  0
    9.4476   11.0739   37.2429 C   0  0  0  0  0  0  0  0  0  0  0  0
   10.0103   12.4017   36.7587 C   0  0  0  0  0  0  0  0  0  0  0  0
   12.6518    9.1972   36.7727 O   0  0  0  0  0  0  0  0  0  0  0  0
    9.8251    8.6797   37.2026 O   0  0  0  0  0  0  0  0  0  0  0  0
    8.1144   10.9027   36.7408 O   0  0  0  0  0  0  0  0  0  0  0  0
   11.3568   12.5653   37.2406 O   0  0  0  0  0  0  0  0  0  0  0  0
   12.6920    9.2416   35.8045 H   0  0  0  0  0  0  0  0  0  0  0  0
    9.8071    8.6670   38.1724 H   0  0  0  0  0  0  0  0  0  0  0  0
    8.1311   10.9071   35.7709 H   0  0  0  0  0  0  0  0  0  0  0  0
    9.2277   13.5779   37.2853 C   0  0  0  0  0  0  0  0  0  0  0  0
    9.4084   14.7381   36.4976 O   0  0  0  0  0  0  0  0  0  0  0  0
   10.3441   14.9934   36.5079 H   0  0  0  0  0  0  0  0  0  0  0  0
 15 16  1  0  0  0
 15 20  1  0  0  0
 15 23  1  0  0  0
 16 17  1  0  0  0
 16 21  1  0  0  0
 17 18  1  0  0  0
 17 22  1  0  0  0
 18 19  1  0  0  0
 18 14  1  0  0  0
 19 27  1  0  0  0
 19 23  1  0  0  0
 27 28  1  0  0  0
 14  1  1  0  0  0
  1  2  1  0  0  0
  1  8  1  0  0  0
  2  3  1  0  0  0
  2  6  1  0  0  0
  3  4  1  0  0  0
  3  7  1  0  0  0
  4  5  1  0  0  0
  4 30  1  0  0  0
  5 11  1  0  0  0
  5  8  1  0  0  0
 11 12  1  0  0  0
 30 31  1  0  0  0
 31 32  1  0  0  0
 31 39  1  0  0  0
 32 33  1  0  0  0
 32 36  1  0  0  0
 33 34  1  0  0  0
 33 37  1  0  0  0
 34 35  1  0  0  0
 34 38  1  0  0  0
 35 43  1  0  0  0
 35 39  1  0  0  0
 43 44  1  0  0  0
 20 24  1  0  0  0
 21 25  1  0  0  0
 22 26  1  0  0  0
 28 29  1  0  0  0
  6  9  1  0  0  0
  7 10  1  0  0  0
 12 13  1  0  0  0
 36 40  1  0  0  0
 37 41  1  0  0  0
 38 42  1  0  0  0
 44 45  1  0  0  0
M  END
> <minimizedAffinity>
-8.81084

$$$$
5M28_MLR_A_401


 45 47  0  0  0  0  0  0  0  0999 V2000
    8.4644   11.7383   37.3130 C   0  0  0  0  0  0  0  0  0  0  0  0
    8.9463   10.5536   36.4911 C   0  0  0  0  0  0  0  0  0  0  0  0
   10.4561   10.5822   36.2868 C   0  0  0  0  0  0  0  0  0  0  0  0
   10.9261   11.9497   35.8062 C   0  0  0  0  0  0  0  0  0  0  0  0
   10.3745   13.0698   36.6768 C   0  0  0  0  0  0  0  0  0  0  0  0
    8.5716    9.3539   37.1540 O   0  0  0  0  0  0  0  0  0  0  0  0
   10.8079    9.5919   35.3229 O   0  0  0  0  0  0  0  0  0  0  0  0
    8.9418   12.9565   36.7640 O   0  0  0  0  0  0  0  0  0  0  0  0
    8.9912    9.3229   38.0281 H   0  0  0  0  0  0  0  0  0  0  0  0
   10.3684    9.7895   34.4811 H   0  0  0  0  0  0  0  0  0  0  0  0
   10.6805   14.4282   36.0803 C   0  0  0  0  0  0  0  0  0  0  0  0
   11.8407   15.0353   36.6330 O   0  0  0  0  0  0  0  0  0  0  0  0
   11.7075   15.1827   37.5825 H   0  0  0  0  0  0  0  0  0  0  0  0
    8.8672   11.5642   38.6482 O   0  0  0  0  0  0  0  0  0  0  0  0
    7.3027   13.3804   42.0346 C   0  0  0  0  0  0  0  0  0  0  0  0
    6.6593   13.7492   40.7106 C   0  0  0  0  0  0  0  0  0  0  0  0
    7.0278   12.7198   39.6558 C   0  0  0  0  0  0  0  0  0  0  0  0
    8.5426   12.6264   39.5559 C   0  0  0  0  0  0  0  0  0  0  0  0
    9.1524   12.3193   40.9149 C   0  0  0  0  0  0  0  0  0  0  0  0
    6.7787   12.1849   42.5069 O   0  0  0  0  0  0  0  0  0  0  0  0
    5.2449   13.8909   40.8400 O   0  0  0  0  0  0  0  0  0  0  0  0
    6.4783   13.1371   38.4192 O   0  0  0  0  0  0  0  0  0  0  0  0
    8.7181   13.3129   41.8621 O   0  0  0  0  0  0  0  0  0  0  0  0
    6.9536   11.4791   41.8649 H   0  0  0  0  0  0  0  0  0  0  0  0
    4.8599   13.0465   41.1224 H   0  0  0  0  0  0  0  0  0  0  0  0
    6.8303   14.0106   38.1872 H   0  0  0  0  0  0  0  0  0  0  0  0
   10.6590   12.3684   40.8895 C   0  0  0  0  0  0  0  0  0  0  0  0
   11.1963   11.2116   40.2862 O   0  0  0  0  0  0  0  0  0  0  0  0
   10.9309   10.4290   40.7941 H   0  0  0  0  0  0  0  0  0  0  0  0
   12.3599   11.9856   35.8880 O   0  0  0  0  0  0  0  0  0  0  0  0
   13.0644   12.2099   34.6872 C   0  0  0  0  0  0  0  0  0  0  0  0
   14.1249   11.1300   34.5022 C   0  0  0  0  0  0  0  0  0  0  0  0
   15.2195   11.2520   35.5567 C   0  0  0  0  0  0  0  0  0  0  0  0
   15.7901   12.6592   35.4895 C   0  0  0  0  0  0  0  0  0  0  0  0
   14.6753   13.6738   35.6944 C   0  0  0  0  0  0  0  0  0  0  0  0
   13.4861    9.8622   34.5525 O   0  0  0  0  0  0  0  0  0  0  0  0
   16.2461   10.2820   35.3583 O   0  0  0  0  0  0  0  0  0  0  0  0
   16.7868   12.8248   36.5085 O   0  0  0  0  0  0  0  0  0  0  0  0
   13.6618   13.4941   34.6882 O   0  0  0  0  0  0  0  0  0  0  0  0
   13.0513    9.7532   35.4127 H   0  0  0  0  0  0  0  0  0  0  0  0
   16.6521   10.4144   34.4874 H   0  0  0  0  0  0  0  0  0  0  0  0
   16.3846   12.6849   37.3800 H   0  0  0  0  0  0  0  0  0  0  0  0
   15.1639   15.0932   35.5526 C   0  0  0  0  0  0  0  0  0  0  0  0
   14.1844   15.9437   34.9901 O   0  0  0  0  0  0  0  0  0  0  0  0
   13.9584   15.6320   34.0998 H   0  0  0  0  0  0  0  0  0  0  0  0
 15 16  1  0  0  0
 15 20  1  0  0  0
 15 23  1  0  0  0
 16 17  1  0  0  0
 16 21  1  0  0  0
 17 18  1  0  0  0
 17 22  1  0  0  0
 18 19  1  0  0  0
 18 14  1  0  0  0
 19 27  1  0  0  0
 19 23  1  0  0  0
 27 28  1  0  0  0
 14  1  1  0  0  0
  1  2  1  0  0  0
  1  8  1  0  0  0
  2  3  1  0  0  0
  2  6  1  0  0  0
  3  4  1  0  0  0
  3  7  1  0  0  0
  4  5  1  0  0  0
  4 30  1  0  0  0
  5 11  1  0  0  0
  5  8  1  0  0  0
 11 12  1  0  0  0
 30 31  1  0  0  0
 31 32  1  0  0  0
 31 39  1  0  0  0
 32 33  1  0  0  0
 32 36  1  0  0  0
 33 34  1  0  0  0
 33 37  1  0  0  0
 34 35  1  0  0  0
 34 38  1  0  0  0
 35 43  1  0  0  0
 35 39  1  0  0  0
 43 44  1  0  0  0
 20 24  1  0  0  0
 21 25  1  0  0  0
 22 26  1  0  0  0
 28 29  1  0  0  0
  6  9  1  0  0  0
  7 10  1  0  0  0
 12 13  1  0  0  0
 36 40  1  0  0  0
 37 41  1  0  0  0
 38 42  1  0  0  0
 44 45  1  0  0  0
M  END
> <minimizedAffinity>
-8.68659

$$$$
5M28_MLR_A_401


 45 47  0  0  0  0  0  0  0  0999 V2000
   10.8489   11.5882   36.1874 C   0  0  0  0  0  0  0  0  0  0  0  0
   11.6368   10.7442   35.1983 C   0  0  0  0  0  0  0  0  0  0  0  0
   13.1311   10.7705   35.4952 C   0  0  0  0  0  0  0  0  0  0  0  0
   13.6343   12.1956   35.6895 C   0  0  0  0  0  0  0  0  0  0  0  0
   12.7695   12.9654   36.6777 C   0  0  0  0  0  0  0  0  0  0  0  0
   11.1572    9.4077   35.2532 O   0  0  0  0  0  0  0  0  0  0  0  0
   13.8261   10.1643   34.4075 O   0  0  0  0  0  0  0  0  0  0  0  0
   11.3898   12.8973   36.2717 O   0  0  0  0  0  0  0  0  0  0  0  0
   11.2898    9.0530   36.1462 H   0  0  0  0  0  0  0  0  0  0  0  0
   13.6537   10.6646   33.5946 H   0  0  0  0  0  0  0  0  0  0  0  0
   13.1529   14.4305   36.7154 C   0  0  0  0  0  0  0  0  0  0  0  0
   13.6287   14.9182   35.4680 O   0  0  0  0  0  0  0  0  0  0  0  0
   14.4327   14.4365   35.2179 H   0  0  0  0  0  0  0  0  0  0  0  0
   10.8338   10.9391   37.4339 O   0  0  0  0  0  0  0  0  0  0  0  0
    7.2825   12.6665   38.7062 C   0  0  0  0  0  0  0  0  0  0  0  0
    8.4561   12.7482   39.6648 C   0  0  0  0  0  0  0  0  0  0  0  0
    9.7502   12.4754   38.9172 C   0  0  0  0  0  0  0  0  0  0  0  0
    9.6563   11.1202   38.2329 C   0  0  0  0  0  0  0  0  0  0  0  0
    8.4327   11.0575   37.3319 C   0  0  0  0  0  0  0  0  0  0  0  0
    7.3649   13.6775   37.7586 O   0  0  0  0  0  0  0  0  0  0  0  0
    8.4906   14.0049   40.3407 O   0  0  0  0  0  0  0  0  0  0  0  0
   10.8121   12.4806   39.8540 O   0  0  0  0  0  0  0  0  0  0  0  0
    7.2601   11.3714   38.1062 O   0  0  0  0  0  0  0  0  0  0  0  0
    8.1889   13.5828   37.2556 H   0  0  0  0  0  0  0  0  0  0  0  0
    8.5979   14.7180   39.6920 H   0  0  0  0  0  0  0  0  0  0  0  0
   10.6524   11.8011   40.5275 H   0  0  0  0  0  0  0  0  0  0  0  0
    8.2191    9.6817   36.7533 C   0  0  0  0  0  0  0  0  0  0  0  0
    7.2306    8.9753   37.4705 O   0  0  0  0  0  0  0  0  0  0  0  0
    7.5124    8.8716   38.3929 H   0  0  0  0  0  0  0  0  0  0  0  0
   14.9683   12.1324   36.2186 O   0  0  0  0  0  0  0  0  0  0  0  0
   16.0183   12.5050   35.3544 C   0  0  0  0  0  0  0  0  0  0  0  0
   17.2344   11.6211   35.6094 C   0  0  0  0  0  0  0  0  0  0  0  0
   17.8276   11.8913   36.9879 C   0  0  0  0  0  0  0  0  0  0  0  0
   18.1432   13.3749   37.0875 C   0  0  0  0  0  0  0  0  0  0  0  0
   16.8809   14.1849   36.8331 C   0  0  0  0  0  0  0  0  0  0  0  0
   16.8397   10.2643   35.4644 O   0  0  0  0  0  0  0  0  0  0  0  0
   18.9994   11.1106   37.2143 O   0  0  0  0  0  0  0  0  0  0  0  0
   18.6527   13.6730   38.3954 O   0  0  0  0  0  0  0  0  0  0  0  0
   16.3536   13.8697   35.5313 O   0  0  0  0  0  0  0  0  0  0  0  0
   16.1428   10.0597   36.1074 H   0  0  0  0  0  0  0  0  0  0  0  0
   19.6700   11.3337   36.5499 H   0  0  0  0  0  0  0  0  0  0  0  0
   17.9866   13.4431   39.0620 H   0  0  0  0  0  0  0  0  0  0  0  0
   17.1469   15.6690   36.8328 C   0  0  0  0  0  0  0  0  0  0  0  0
   16.0448   16.4112   36.3493 O   0  0  0  0  0  0  0  0  0  0  0  0
   15.8611   16.1564   35.4316 H   0  0  0  0  0  0  0  0  0  0  0  0
 15 16  1  0  0  0
 15 20  1  0  0  0
 15 23  1  0  0  0
 16 17  1  0  0  0
 16 21  1  0  0  0
 17 18  1  0  0  0
 17 22  1  0  0  0
 18 19  1  0  0  0
 18 14  1  0  0  0
 19 27  1  0  0  0
 19 23  1  0  0  0
 27 28  1  0  0  0
 14  1  1  0  0  0
  1  2  1  0  0  0
  1  8  1  0  0  0
  2  3  1  0  0  0
  2  6  1  0  0  0
  3  4  1  0  0  0
  3  7  1  0  0  0
  4  5  1  0  0  0
  4 30  1  0  0  0
  5 11  1  0  0  0
  5  8  1  0  0  0
 11 12  1  0  0  0
 30 31  1  0  0  0
 31 32  1  0  0  0
 31 39  1  0  0  0
 32 33  1  0  0  0
 32 36  1  0  0  0
 33 34  1  0  0  0
 33 37  1  0  0  0
 34 35  1  0  0  0
 34 38  1  0  0  0
 35 43  1  0  0  0
 35 39  1  0  0  0
 43 44  1  0  0  0
 20 24  1  0  0  0
 21 25  1  0  0  0
 22 26  1  0  0  0
 28 29  1  0  0  0
  6  9  1  0  0  0
  7 10  1  0  0  0
 12 13  1  0  0  0
 36 40  1  0  0  0
 37 41  1  0  0  0
 38 42  1  0  0  0
 44 45  1  0  0  0
M  END
> <minimizedAffinity>
-8.31396

$$$$
5M28_MLR_A_401


 45 47  0  0  0  0  0  0  0  0999 V2000
   10.5112   11.4582   35.8566 C   0  0  0  0  0  0  0  0  0  0  0  0
   11.3321   10.1788   35.8373 C   0  0  0  0  0  0  0  0  0  0  0  0
   12.7481   10.4061   36.3521 C   0  0  0  0  0  0  0  0  0  0  0  0
   13.3959   11.6122   35.6831 C   0  0  0  0  0  0  0  0  0  0  0  0
   12.4902   12.8346   35.7335 C   0  0  0  0  0  0  0  0  0  0  0  0
   10.6784    9.2034   36.6375 O   0  0  0  0  0  0  0  0  0  0  0  0
   13.5256    9.2403   36.0877 O   0  0  0  0  0  0  0  0  0  0  0  0
   11.1986   12.5049   35.1893 O   0  0  0  0  0  0  0  0  0  0  0  0
   10.6154    9.5239   37.5509 H   0  0  0  0  0  0  0  0  0  0  0  0
   13.5557    9.0818   35.1312 H   0  0  0  0  0  0  0  0  0  0  0  0
   13.0518   13.9669   34.8984 C   0  0  0  0  0  0  0  0  0  0  0  0
   12.2341   15.1295   34.9071 O   0  0  0  0  0  0  0  0  0  0  0  0
   11.3677   14.9183   34.5253 H   0  0  0  0  0  0  0  0  0  0  0  0
   10.2073   11.7879   37.1886 O   0  0  0  0  0  0  0  0  0  0  0  0
    6.9336   13.1295   39.3559 C   0  0  0  0  0  0  0  0  0  0  0  0
    6.6965   11.9474   38.4343 C   0  0  0  0  0  0  0  0  0  0  0  0
    8.0255   11.3162   38.0557 C   0  0  0  0  0  0  0  0  0  0  0  0
    8.9184   12.3724   37.4227 C   0  0  0  0  0  0  0  0  0  0  0  0
    9.0782   13.5666   38.3508 C   0  0  0  0  0  0  0  0  0  0  0  0
    7.4777   12.6996   40.5584 O   0  0  0  0  0  0  0  0  0  0  0  0
    5.8085   10.9975   39.0228 O   0  0  0  0  0  0  0  0  0  0  0  0
    7.7726   10.2703   37.1352 O   0  0  0  0  0  0  0  0  0  0  0  0
    7.7755   14.0741   38.6951 O   0  0  0  0  0  0  0  0  0  0  0  0
    8.3244   12.2571   40.3903 H   0  0  0  0  0  0  0  0  0  0  0  0
    6.2002   10.6519   39.8401 H   0  0  0  0  0  0  0  0  0  0  0  0
    7.3253   10.6293   36.3529 H   0  0  0  0  0  0  0  0  0  0  0  0
    9.8307   14.6994   37.7000 C   0  0  0  0  0  0  0  0  0  0  0  0
    9.5527   14.7683   36.3184 O   0  0  0  0  0  0  0  0  0  0  0  0
    9.8281   13.9419   35.8916 H   0  0  0  0  0  0  0  0  0  0  0  0
   14.6055   11.9234   36.3930 O   0  0  0  0  0  0  0  0  0  0  0  0
   15.7599   12.1592   35.6184 C   0  0  0  0  0  0  0  0  0  0  0  0
   16.8269   11.1230   35.9545 C   0  0  0  0  0  0  0  0  0  0  0  0
   17.3395   11.3078   37.3786 C   0  0  0  0  0  0  0  0  0  0  0  0
   17.8363   12.7370   37.5237 C   0  0  0  0  0  0  0  0  0  0  0  0
   16.7140   13.7060   37.1836 C   0  0  0  0  0  0  0  0  0  0  0  0
   16.2720    9.8299   35.7597 O   0  0  0  0  0  0  0  0  0  0  0  0
   18.3784   10.3798   37.6842 O   0  0  0  0  0  0  0  0  0  0  0  0
   18.2754   12.9607   38.8714 O   0  0  0  0  0  0  0  0  0  0  0  0
   16.2546   13.4676   35.8404 O   0  0  0  0  0  0  0  0  0  0  0  0
   15.5059    9.7156   36.3437 H   0  0  0  0  0  0  0  0  0  0  0  0
   19.1226   10.5161   37.0772 H   0  0  0  0  0  0  0  0  0  0  0  0
   17.5346   12.8170   39.4808 H   0  0  0  0  0  0  0  0  0  0  0  0
   17.1697   15.1426   37.2253 C   0  0  0  0  0  0  0  0  0  0  0  0
   17.2036   15.6564   38.5421 O   0  0  0  0  0  0  0  0  0  0  0  0
   16.3114   15.6314   38.9220 H   0  0  0  0  0  0  0  0  0  0  0  0
 15 16  1  0  0  0
 15 20  1  0  0  0
 15 23  1  0  0  0
 16 17  1  0  0  0
 16 21  1  0  0  0
 17 18  1  0  0  0
 17 22  1  0  0  0
 18 19  1  0  0  0
 18 14  1  0  0  0
 19 27  1  0  0  0
 19 23  1  0  0  0
 27 28  1  0  0  0
 14  1  1  0  0  0
  1  2  1  0  0  0
  1  8  1  0  0  0
  2  3  1  0  0  0
  2  6  1  0  0  0
  3  4  1  0  0  0
  3  7  1  0  0  0
  4  5  1  0  0  0
  4 30  1  0  0  0
  5 11  1  0  0  0
  5  8  1  0  0  0
 11 12  1  0  0  0
 30 31  1  0  0  0
 31 32  1  0  0  0
 31 39  1  0  0  0
 32 33  1  0  0  0
 32 36  1  0  0  0
 33 34  1  0  0  0
 33 37  1  0  0  0
 34 35  1  0  0  0
 34 38  1  0  0  0
 35 43  1  0  0  0
 35 39  1  0  0  0
 43 44  1  0  0  0
 20 24  1  0  0  0
 21 25  1  0  0  0
 22 26  1  0  0  0
 28 29  1  0  0  0
  6  9  1  0  0  0
  7 10  1  0  0  0
 12 13  1  0  0  0
 36 40  1  0  0  0
 37 41  1  0  0  0
 38 42  1  0  0  0
 44 45  1  0  0  0
M  END
> <minimizedAffinity>
-8.07128

$$$$
5M28_MLR_A_401


 45 47  0  0  0  0  0  0  0  0999 V2000
   16.4507   14.6864   36.3433 C   0  0  0  0  0  0  0  0  0  0  0  0
   15.4172   15.7789   36.1209 C   0  0  0  0  0  0  0  0  0  0  0  0
   14.0244   15.3379   36.5538 C   0  0  0  0  0  0  0  0  0  0  0  0
   13.6701   13.9719   35.9791 C   0  0  0  0  0  0  0  0  0  0  0  0
   14.7734   12.9542   36.2319 C   0  0  0  0  0  0  0  0  0  0  0  0
   15.8070   16.9333   36.8520 O   0  0  0  0  0  0  0  0  0  0  0  0
   13.0765   16.3040   36.1045 O   0  0  0  0  0  0  0  0  0  0  0  0
   16.0286   13.4687   35.7494 O   0  0  0  0  0  0  0  0  0  0  0  0
   15.8424   16.7205   37.7977 H   0  0  0  0  0  0  0  0  0  0  0  0
   13.1066   16.3606   35.1366 H   0  0  0  0  0  0  0  0  0  0  0  0
   14.5055   11.6606   35.4907 C   0  0  0  0  0  0  0  0  0  0  0  0
   13.7825   10.7110   36.2625 O   0  0  0  0  0  0  0  0  0  0  0  0
   14.3008   10.4693   37.0460 H   0  0  0  0  0  0  0  0  0  0  0  0
   16.6851   14.5508   37.7224 O   0  0  0  0  0  0  0  0  0  0  0  0
   19.9410   14.5922   40.2937 C   0  0  0  0  0  0  0  0  0  0  0  0
   19.3208   15.9378   39.9657 C   0  0  0  0  0  0  0  0  0  0  0  0
   17.9293   15.7358   39.3904 C   0  0  0  0  0  0  0  0  0  0  0  0
   18.0184   14.8284   38.1730 C   0  0  0  0  0  0  0  0  0  0  0  0
   18.7029   13.5178   38.5292 C   0  0  0  0  0  0  0  0  0  0  0  0
   19.2256   13.9675   41.3061 O   0  0  0  0  0  0  0  0  0  0  0  0
   19.3020   16.7952   41.1066 O   0  0  0  0  0  0  0  0  0  0  0  0
   17.4141   17.0026   39.0228 O   0  0  0  0  0  0  0  0  0  0  0  0
   19.9911   13.8004   39.1071 O   0  0  0  0  0  0  0  0  0  0  0  0
   18.3099   13.8297   41.0173 H   0  0  0  0  0  0  0  0  0  0  0  0
   18.7632   16.3921   41.8052 H   0  0  0  0  0  0  0  0  0  0  0  0
   18.0017   17.4134   38.3695 H   0  0  0  0  0  0  0  0  0  0  0  0
   18.9471   12.6532   37.3185 C   0  0  0  0  0  0  0  0  0  0  0  0
   19.4162   11.3758   37.6909 O   0  0  0  0  0  0  0  0  0  0  0  0
   20.2558   11.4662   38.1683 H   0  0  0  0  0  0  0  0  0  0  0  0
   12.4765   13.5071   36.6297 O   0  0  0  0  0  0  0  0  0  0  0  0
   11.3067   13.4348   35.8458 C   0  0  0  0  0  0  0  0  0  0  0  0
   10.1586   14.1322   36.5674 C   0  0  0  0  0  0  0  0  0  0  0  0
    9.7612   13.3706   37.8272 C   0  0  0  0  0  0  0  0  0  0  0  0
    9.4309   11.9399   37.4339 C   0  0  0  0  0  0  0  0  0  0  0  0
   10.6265   11.3128   36.7329 C   0  0  0  0  0  0  0  0  0  0  0  0
   10.5580   15.4631   36.8623 O   0  0  0  0  0  0  0  0  0  0  0  0
    8.6507   13.9831   38.4793 O   0  0  0  0  0  0  0  0  0  0  0  0
    9.1059   11.1799   38.6069 O   0  0  0  0  0  0  0  0  0  0  0  0
   10.9704   12.0871   35.5692 O   0  0  0  0  0  0  0  0  0  0  0  0
   11.3433   15.4463   37.4315 H   0  0  0  0  0  0  0  0  0  0  0  0
    7.8879   13.9909   37.8801 H   0  0  0  0  0  0  0  0  0  0  0  0
    9.8646   11.1776   39.2112 H   0  0  0  0  0  0  0  0  0  0  0  0
   10.3310    9.9188   36.2402 C   0  0  0  0  0  0  0  0  0  0  0  0
   11.2821    9.4715   35.2944 O   0  0  0  0  0  0  0  0  0  0  0  0
   11.2664   10.0548   34.5195 H   0  0  0  0  0  0  0  0  0  0  0  0
 15 16  1  0  0  0
 15 20  1  0  0  0
 15 23  1  0  0  0
 16 17  1  0  0  0
 16 21  1  0  0  0
 17 18  1  0  0  0
 17 22  1  0  0  0
 18 19  1  0  0  0
 18 14  1  0  0  0
 19 27  1  0  0  0
 19 23  1  0  0  0
 27 28  1  0  0  0
 14  1  1  0  0  0
  1  2  1  0  0  0
  1  8  1  0  0  0
  2  3  1  0  0  0
  2  6  1  0  0  0
  3  4  1  0  0  0
  3  7  1  0  0  0
  4  5  1  0  0  0
  4 30  1  0  0  0
  5 11  1  0  0  0
  5  8  1  0  0  0
 11 12  1  0  0  0
 30 31  1  0  0  0
 31 32  1  0  0  0
 31 39  1  0  0  0
 32 33  1  0  0  0
 32 36  1  0  0  0
 33 34  1  0  0  0
 33 37  1  0  0  0
 34 35  1  0  0  0
 34 38  1  0  0  0
 35 43  1  0  0  0
 35 39  1  0  0  0
 43 44  1  0  0  0
 20 24  1  0  0  0
 21 25  1  0  0  0
 22 26  1  0  0  0
 28 29  1  0  0  0
  6  9  1  0  0  0
  7 10  1  0  0  0
 12 13  1  0  0  0
 36 40  1  0  0  0
 37 41  1  0  0  0
 38 42  1  0  0  0
 44 45  1  0  0  0
M  END
> <minimizedAffinity>
-8.06385

$$$$
5M28_MLR_A_401


 45 47  0  0  0  0  0  0  0  0999 V2000
   14.8188   13.0543   35.0385 C   0  0  0  0  0  0  0  0  0  0  0  0
   13.8722   14.2222   34.8118 C   0  0  0  0  0  0  0  0  0  0  0  0
   12.5962   14.0852   35.6334 C   0  0  0  0  0  0  0  0  0  0  0  0
   11.9801   12.7004   35.4765 C   0  0  0  0  0  0  0  0  0  0  0  0
   13.0087   11.6008   35.6996 C   0  0  0  0  0  0  0  0  0  0  0  0
   14.5414   15.4273   35.1568 O   0  0  0  0  0  0  0  0  0  0  0  0
   11.6633   15.0732   35.2009 O   0  0  0  0  0  0  0  0  0  0  0  0
   14.1468   11.8196   34.8451 O   0  0  0  0  0  0  0  0  0  0  0  0
   14.7915   15.4014   36.0936 H   0  0  0  0  0  0  0  0  0  0  0  0
   11.4557   14.9336   34.2638 H   0  0  0  0  0  0  0  0  0  0  0  0
   12.4411   10.2408   35.3491 C   0  0  0  0  0  0  0  0  0  0  0  0
   11.0694   10.2837   34.9790 O   0  0  0  0  0  0  0  0  0  0  0  0
   10.5431   10.6101   35.7255 H   0  0  0  0  0  0  0  0  0  0  0  0
   15.3765   13.1591   36.3243 O   0  0  0  0  0  0  0  0  0  0  0  0
   19.1015   12.8884   38.1313 C   0  0  0  0  0  0  0  0  0  0  0  0
   18.8925   14.0549   37.1835 C   0  0  0  0  0  0  0  0  0  0  0  0
   17.4065   14.2657   36.9477 C   0  0  0  0  0  0  0  0  0  0  0  0
   16.7960   12.9762   36.4205 C   0  0  0  0  0  0  0  0  0  0  0  0
   17.0827   11.8204   37.3666 C   0  0  0  0  0  0  0  0  0  0  0  0
   18.5824   13.1878   39.3835 O   0  0  0  0  0  0  0  0  0  0  0  0
   19.5245   15.2396   37.6675 O   0  0  0  0  0  0  0  0  0  0  0  0
   17.2521   15.3064   35.9999 O   0  0  0  0  0  0  0  0  0  0  0  0
   18.5044   11.7194   37.5704 O   0  0  0  0  0  0  0  0  0  0  0  0
   17.6316   13.3635   39.3058 H   0  0  0  0  0  0  0  0  0  0  0  0
   19.1355   15.4880   38.5207 H   0  0  0  0  0  0  0  0  0  0  0  0
   17.7014   15.0623   35.1756 H   0  0  0  0  0  0  0  0  0  0  0  0
   16.6261   10.4971   36.8068 C   0  0  0  0  0  0  0  0  0  0  0  0
   16.9042   10.4046   35.4266 O   0  0  0  0  0  0  0  0  0  0  0  0
   16.4327   11.1082   34.9539 H   0  0  0  0  0  0  0  0  0  0  0  0
   10.9483   12.5536   36.4653 O   0  0  0  0  0  0  0  0  0  0  0  0
   11.3622   12.3875   37.8029 C   0  0  0  0  0  0  0  0  0  0  0  0
   10.3083   11.6010   38.5749 C   0  0  0  0  0  0  0  0  0  0  0  0
    9.0232   12.4082   38.7232 C   0  0  0  0  0  0  0  0  0  0  0  0
    9.3682   13.7358   39.3780 C   0  0  0  0  0  0  0  0  0  0  0  0
   10.4130   14.4617   38.5440 C   0  0  0  0  0  0  0  0  0  0  0  0
   10.0819   10.3727   37.8983 O   0  0  0  0  0  0  0  0  0  0  0  0
    8.0504   11.7044   39.4928 O   0  0  0  0  0  0  0  0  0  0  0  0
    8.1869   14.5438   39.4819 O   0  0  0  0  0  0  0  0  0  0  0  0
   11.5902   13.6431   38.4174 O   0  0  0  0  0  0  0  0  0  0  0  0
    9.7659   10.5524   36.9990 H   0  0  0  0  0  0  0  0  0  0  0  0
    8.4021   11.5340   40.3806 H   0  0  0  0  0  0  0  0  0  0  0  0
    7.8290   14.7088   38.5956 H   0  0  0  0  0  0  0  0  0  0  0  0
   10.8614   15.7493   39.1877 C   0  0  0  0  0  0  0  0  0  0  0  0
   10.6035   15.7721   40.5777 O   0  0  0  0  0  0  0  0  0  0  0  0
    9.6486   15.6969   40.7306 H   0  0  0  0  0  0  0  0  0  0  0  0
 15 16  1  0  0  0
 15 20  1  0  0  0
 15 23  1  0  0  0
 16 17  1  0  0  0
 16 21  1  0  0  0
 17 18  1  0  0  0
 17 22  1  0  0  0
 18 19  1  0  0  0
 18 14  1  0  0  0
 19 27  1  0  0  0
 19 23  1  0  0  0
 27 28  1  0  0  0
 14  1  1  0  0  0
  1  2  1  0  0  0
  1  8  1  0  0  0
  2  3  1  0  0  0
  2  6  1  0  0  0
  3  4  1  0  0  0
  3  7  1  0  0  0
  4  5  1  0  0  0
  4 30  1  0  0  0
  5 11  1  0  0  0
  5  8  1  0  0  0
 11 12  1  0  0  0
 30 31  1  0  0  0
 31 32  1  0  0  0
 31 39  1  0  0  0
 32 33  1  0  0  0
 32 36  1  0  0  0
 33 34  1  0  0  0
 33 37  1  0  0  0
 34 35  1  0  0  0
 34 38  1  0  0  0
 35 43  1  0  0  0
 35 39  1  0  0  0
 43 44  1  0  0  0
 20 24  1  0  0  0
 21 25  1  0  0  0
 22 26  1  0  0  0
 28 29  1  0  0  0
  6  9  1  0  0  0
  7 10  1  0  0  0
 12 13  1  0  0  0
 36 40  1  0  0  0
 37 41  1  0  0  0
 38 42  1  0  0  0
 44 45  1  0  0  0
M  END
> <minimizedAffinity>
-7.91892

$$$$
5M28_MLR_A_401


 45 47  0  0  0  0  0  0  0  0999 V2000
   12.5492   12.6638   34.9926 C   0  0  0  0  0  0  0  0  0  0  0  0
   12.0028   14.0519   35.2852 C   0  0  0  0  0  0  0  0  0  0  0  0
   11.2597   14.0998   36.6146 C   0  0  0  0  0  0  0  0  0  0  0  0
   10.2546   12.9605   36.7310 C   0  0  0  0  0  0  0  0  0  0  0  0
   10.8889   11.6175   36.3978 C   0  0  0  0  0  0  0  0  0  0  0  0
   13.0832   14.9748   35.3026 O   0  0  0  0  0  0  0  0  0  0  0  0
   10.5779   15.3483   36.7149 O   0  0  0  0  0  0  0  0  0  0  0  0
   11.5259   11.6876   35.1085 O   0  0  0  0  0  0  0  0  0  0  0  0
   13.7081   14.7279   36.0022 H   0  0  0  0  0  0  0  0  0  0  0  0
    9.9389   15.4269   35.9894 H   0  0  0  0  0  0  0  0  0  0  0  0
    9.8448   10.5226   36.3220 C   0  0  0  0  0  0  0  0  0  0  0  0
    9.4625   10.0226   37.5964 O   0  0  0  0  0  0  0  0  0  0  0  0
   10.2335    9.6287   38.0338 H   0  0  0  0  0  0  0  0  0  0  0  0
   13.6291   12.4051   35.8540 O   0  0  0  0  0  0  0  0  0  0  0  0
   17.5643   11.1377   35.5043 C   0  0  0  0  0  0  0  0  0  0  0  0
   17.3281   12.6355   35.4448 C   0  0  0  0  0  0  0  0  0  0  0  0
   15.9534   12.9616   36.0034 C   0  0  0  0  0  0  0  0  0  0  0  0
   14.9017   12.1797   35.2315 C   0  0  0  0  0  0  0  0  0  0  0  0
   15.2101   10.6908   35.2616 C   0  0  0  0  0  0  0  0  0  0  0  0
   17.6069   10.7100   36.8242 O   0  0  0  0  0  0  0  0  0  0  0  0
   18.3586   13.3531   36.1235 O   0  0  0  0  0  0  0  0  0  0  0  0
   15.7358   14.3534   35.8591 O   0  0  0  0  0  0  0  0  0  0  0  0
   16.5424   10.4749   34.7600 O   0  0  0  0  0  0  0  0  0  0  0  0
   16.7629   10.9127   37.2572 H   0  0  0  0  0  0  0  0  0  0  0  0
   18.3665   13.0994   37.0597 H   0  0  0  0  0  0  0  0  0  0  0  0
   15.7936   14.5941   34.9212 H   0  0  0  0  0  0  0  0  0  0  0  0
   14.2779    9.8963   34.3826 C   0  0  0  0  0  0  0  0  0  0  0  0
   13.2368    9.3158   35.1376 O   0  0  0  0  0  0  0  0  0  0  0  0
   13.6134    8.7122   35.7970 H   0  0  0  0  0  0  0  0  0  0  0  0
    9.7892   12.9096   38.0891 O   0  0  0  0  0  0  0  0  0  0  0  0
   10.7043   13.2847   39.0941 C   0  0  0  0  0  0  0  0  0  0  0  0
   10.5006   12.4129   40.3285 C   0  0  0  0  0  0  0  0  0  0  0  0
    9.1535   12.6982   40.9834 C   0  0  0  0  0  0  0  0  0  0  0  0
    9.0790   14.1850   41.2903 C   0  0  0  0  0  0  0  0  0  0  0  0
    9.2794   14.9825   40.0105 C   0  0  0  0  0  0  0  0  0  0  0  0
   10.6176   11.0518   39.9393 O   0  0  0  0  0  0  0  0  0  0  0  0
    8.9770   11.9289   42.1712 O   0  0  0  0  0  0  0  0  0  0  0  0
    7.7986   14.4969   41.8580 O   0  0  0  0  0  0  0  0  0  0  0  0
   10.5527   14.6534   39.4255 O   0  0  0  0  0  0  0  0  0  0  0  0
    9.9412   10.8461   39.2752 H   0  0  0  0  0  0  0  0  0  0  0  0
    9.6737   12.1528   42.8079 H   0  0  0  0  0  0  0  0  0  0  0  0
    7.0998   14.2663   41.2260 H   0  0  0  0  0  0  0  0  0  0  0  0
    9.3024   16.4687   40.2632 C   0  0  0  0  0  0  0  0  0  0  0  0
    9.6130   16.7793   41.6072 O   0  0  0  0  0  0  0  0  0  0  0  0
    8.9355   16.4035   42.1908 H   0  0  0  0  0  0  0  0  0  0  0  0
 15 16  1  0  0  0
 15 20  1  0  0  0
 15 23  1  0  0  0
 16 17  1  0  0  0
 16 21  1  0  0  0
 17 18  1  0  0  0
 17 22  1  0  0  0
 18 19  1  0  0  0
 18 14  1  0  0  0
 19 27  1  0  0  0
 19 23  1  0  0  0
 27 28  1  0  0  0
 14  1  1  0  0  0
  1  2  1  0  0  0
  1  8  1  0  0  0
  2  3  1  0  0  0
  2  6  1  0  0  0
  3  4  1  0  0  0
  3  7  1  0  0  0
  4  5  1  0  0  0
  4 30  1  0  0  0
  5 11  1  0  0  0
  5  8  1  0  0  0
 11 12  1  0  0  0
 30 31  1  0  0  0
 31 32  1  0  0  0
 31 39  1  0  0  0
 32 33  1  0  0  0
 32 36  1  0  0  0
 33 34  1  0  0  0
 33 37  1  0  0  0
 34 35  1  0  0  0
 34 38  1  0  0  0
 35 43  1  0  0  0
 35 39  1  0  0  0
 43 44  1  0  0  0
 20 24  1  0  0  0
 21 25  1  0  0  0
 22 26  1  0  0  0
 28 29  1  0  0  0
  6  9  1  0  0  0
  7 10  1  0  0  0
 12 13  1  0  0  0
 36 40  1  0  0  0
 37 41  1  0  0  0
 38 42  1  0  0  0
 44 45  1  0  0  0
M  END
> <minimizedAffinity>
-7.76703

$$$$
