5M28_MLR_A_401
  RCSB PDB12061718573D
Coordinates from PDB:5M28:A:401 Model:1 without hydrogens
 34 36  0  0  0  0            999 V2000
    7.9580   12.3370   38.6780   C 0  0  0  0  0  0  0  0  0  0  0  0
    7.9680   11.2730   37.5960   C 0  0  0  0  0  0  0  0  0  0  0  0
    9.3960   11.0050   37.1520   C 0  0  0  0  0  0  0  0  0  0  0  0
   10.0280   12.3080   36.6870   C 0  0  0  0  0  0  0  0  0  0  0  0
    9.9400   13.3660   37.7760   C 0  0  0  0  0  0  0  0  0  0  0  0
   10.4180   14.7150   37.3020   C 0  0  0  0  0  0  0  0  0  0  0  0
    8.6020   11.8710   39.8160   O 0  0  0  0  0  0  0  0  0  0  0  0
    7.3170   10.0800   38.0320   O 0  0  0  0  0  0  0  0  0  0  0  0
    9.3610   10.0690   36.0900   O 0  0  0  0  0  0  0  0  0  0  0  0
   11.4090   12.0560   36.3920   O 0  0  0  0  0  0  0  0  0  0  0  0
    8.5640   13.5250   38.1690   O 0  0  0  0  0  0  0  0  0  0  0  0
   10.4590   15.6430   38.3640   O 0  0  0  0  0  0  0  0  0  0  0  0
   11.8090   12.2520   35.0590   C 0  0  0  0  0  0  0  0  0  0  0  0
   12.6260   11.0530   34.6050   C 0  0  0  0  0  0  0  0  0  0  0  0
   14.0010   11.0230   35.2610   C 0  0  0  0  0  0  0  0  0  0  0  0
   14.6990   12.3730   35.1510   C 0  0  0  0  0  0  0  0  0  0  0  0
   13.7950   13.5100   35.6060   C 0  0  0  0  0  0  0  0  0  0  0  0
   14.4190   14.8580   35.3090   C 0  0  0  0  0  0  0  0  0  0  0  0
   11.9130    9.8660   34.9240   O 0  0  0  0  0  0  0  0  0  0  0  0
   14.7930   10.0240   34.6220   O 0  0  0  0  0  0  0  0  0  0  0  0
   15.8540   12.3520   36.0050   O 0  0  0  0  0  0  0  0  0  0  0  0
   12.5460   13.4530   34.8920   O 0  0  0  0  0  0  0  0  0  0  0  0
   13.6830   15.9480   35.8480   O 0  0  0  0  0  0  0  0  0  0  0  0
   17.1120   12.2400   35.3780   C 0  0  0  0  0  0  0  0  0  0  0  0
   17.9240   11.1350   36.0450   C 0  0  0  0  0  0  0  0  0  0  0  0
   18.2980   11.5170   37.4730   C 0  0  0  0  0  0  0  0  0  0  0  0
   19.0310   12.8480   37.4330   C 0  0  0  0  0  0  0  0  0  0  0  0
   18.1530   13.8960   36.7660   C 0  0  0  0  0  0  0  0  0  0  0  0
   18.8590   15.2200   36.6180   C 0  0  0  0  0  0  0  0  0  0  0  0
   17.1650    9.9350   36.0040   O 0  0  0  0  0  0  0  0  0  0  0  0
   19.1060   10.5150   38.0870   O 0  0  0  0  0  0  0  0  0  0  0  0
   19.3490   13.2640   38.7690   O 0  0  0  0  0  0  0  0  0  0  0  0
   17.8120   13.4700   35.4340   O 0  0  0  0  0  0  0  0  0  0  0  0
   17.9840   16.2510   36.2050   O 0  0  0  0  0  0  0  0  0  0  0  0
  1  2  1  0  0  0  0
  1  7  1  0  0  0  0
  1 11  1  0  0  0  0
  2  3  1  0  0  0  0
  2  8  1  0  0  0  0
  3  4  1  0  0  0  0
  3  9  1  0  0  0  0
  4  5  1  0  0  0  0
  4 10  1  0  0  0  0
  5  6  1  0  0  0  0
  5 11  1  0  0  0  0
  6 12  1  0  0  0  0
 10 13  1  0  0  0  0
 13 14  1  0  0  0  0
 13 22  1  0  0  0  0
 14 15  1  0  0  0  0
 14 19  1  0  0  0  0
 15 16  1  0  0  0  0
 15 20  1  0  0  0  0
 16 17  1  0  0  0  0
 16 21  1  0  0  0  0
 17 18  1  0  0  0  0
 17 22  1  0  0  0  0
 18 23  1  0  0  0  0
 21 24  1  0  0  0  0
 24 25  1  0  0  0  0
 24 33  1  0  0  0  0
 25 26  1  0  0  0  0
 25 30  1  0  0  0  0
 26 27  1  0  0  0  0
 26 31  1  0  0  0  0
 27 28  1  0  0  0  0
 27 32  1  0  0  0  0
 28 29  1  0  0  0  0
 28 33  1  0  0  0  0
 29 34  1  0  0  0  0
A    1
C1A
A    2
C2A
A    3
C3A
A    4
C4A
A    5
C5A
A    6
C6A
A    7
O1X
A    8
O2A
A    9
O3A
A   10
O4A
A   11
O5A
A   12
O6A
A   13
C1B
A   14
C2B
A   15
C3B
A   16
C4B
A   17
C5B
A   18
C6B
A   19
O2B
A   20
O3B
A   21
O4B
A   22
O5B
A   23
O6B
A   24
C1C
A   25
C2C
A   26
C3C
A   27
C4C
A   28
C5C
A   29
C6C
A   30
O2C
A   31
O3C
A   32
O4C
A   33
O5C
A   34
O6C
M  END
>  <InstanceId>
5M28_MLR_A_401

>  <ChemCompId>
MLR

>  <PdbId>
5M28

>  <ChainId>
A

>  <ResidueNumber>
401

>  <InsertionCode>


>  <Model>
1

>  <AltIds>


>  <MissingHeavyAtoms>
0

>  <ObservedFormula>
C18 O16

>  <Name>
MALTOTRIOSE

>  <SystematicName>
(2S,3R,4R,5S,6R)-5-[(2R,3R,4R,5S,6R)-3,4-dihydroxy-6-(hydroxymethyl)-5-[(2R,3R,4S,5S,6R)-3,4,5-trihydroxy-6-(hydroxymethyl)oxan-2-yl]oxy-oxan-2-yl]oxy-6-(hydroxymethyl)oxane-2,3,4-triol

>  <Synonyms>
AMYLOTRIOSE

>  <Type>
NON-POLYMER

>  <Formula>
C18 H32 O16

>  <MolecularWeight>
504.437

>  <ModifiedDate>
2011-06-04

>  <Parent>


>  <OneLetterCode>


>  <SubcomponentList>


>  <AmbiguousFlag>
N

>  <InChI>
InChI=1S/C18H32O16/c19-1-4-7(22)8(23)12(27)17(31-4)34-15-6(3-21)32-18(13(28)10(15)25)33-14-5(2-20)30-16(29)11(26)9(14)24/h4-29H,1-3H2/t4-,5-,6-,7-,8+,9-,10-,11-,12-,13-,14-,15-,16+,17-,18-/m1/s1

>  <InChIKey>
FYGDTMLNYKFZSV-PXXRMHSHSA-N

>  <SMILES>
C([C@@H]1[C@H]([C@@H]([C@H]([C@H](O1)O[C@@H]2[C@H](O[C@@H]([C@@H]([C@H]2O)O)O[C@@H]3[C@H](O[C@@H]([C@@H]([C@H]3O)O)O)CO)CO)O)O)O)O

$$$$
