2E27_AB0_H_6001
  RCSB PDB12061705243D
Coordinates from PDB:2E27:H:6001 Model:1 without hydrogens
 24 26  0  0  0  0            999 V2000
   -2.2050   -2.9410   18.9140   C 0  0  0  0  0  0  0  0  0  0  0  0
   -1.0870   -3.6720   19.4260   O 0  0  0  0  0  0  0  0  0  0  0  0
   -1.3900   -4.1940   20.7280   C 0  0  0  0  0  0  0  0  0  0  0  0
   -1.5150   -3.1340   21.6890   O 0  0  0  0  0  0  0  0  0  0  0  0
   -0.2330   -2.6080   22.0680   C 0  0  0  0  0  0  0  0  0  0  0  0
    0.1340   -1.3940   21.2070   C 0  0  0  0  0  0  0  0  0  0  0  0
    1.4110   -0.7280   21.7300   C 0  0  0  0  0  0  0  0  0  0  0  0
    1.6520    0.4950   21.0170   O 0  0  0  0  0  0  0  0  0  0  0  0
    2.8510    1.1860   21.4090   C 0  0  0  0  0  0  0  0  0  0  0  0
    2.8700    2.3690   20.4330   C 0  0  0  0  0  0  0  0  0  0  0  0
    3.7270    3.4360   20.6800   C 0  0  0  0  0  0  0  0  0  0  0  0
    4.5240    3.7730   21.7690   C 0  0  0  0  0  0  0  0  0  0  0  0
    4.7330    3.1130   22.9740   C 0  0  0  0  0  0  0  0  0  0  0  0
    4.1480    1.8520   23.3380   O 0  0  0  0  0  0  0  0  0  0  0  0
    2.8170    1.5470   22.8920   C 0  0  0  0  0  0  0  0  0  0  0  0
    2.4630    0.2960   23.7020   C 0  0  0  0  0  0  0  0  0  0  0  0
    2.2950    0.6460   25.0780   O 0  0  0  0  0  0  0  0  0  0  0  0
    1.1870   -0.3740   23.1920   C 0  0  0  0  0  0  0  0  0  0  0  0
    0.9310   -1.5780   23.9310   O 0  0  0  0  0  0  0  0  0  0  0  0
   -0.3150   -2.1620   23.5210   C 0  0  0  0  0  0  0  0  0  0  0  0
   -0.6360   -3.3540   24.4250   C 0  0  0  0  0  0  0  0  0  0  0  0
   -0.7520   -2.9070   25.8830   C 0  0  0  0  0  0  0  0  0  0  0  0
   -1.4540   -1.9430   26.1840   O 0  0  0  0  0  0  0  0  0  0  0  0
   -0.1350   -3.5040   26.7660   O 0  0  0  0  0  0  0  0  0  0  0  0
  1  2  1  0  0  0  0
  2  3  1  0  0  0  0
  3  4  1  0  0  0  0
  4  5  1  0  0  0  0
  5  6  1  0  0  0  0
  5 20  1  0  0  0  0
  6  7  1  0  0  0  0
  7  8  1  0  0  0  0
  7 18  1  0  0  0  0
  8  9  1  0  0  0  0
  9 10  1  0  0  0  0
  9 15  1  0  0  0  0
 10 11  1  0  0  0  0
 11 12  2  0  0  0  0
 12 13  1  0  0  0  0
 13 14  1  0  0  0  0
 14 15  1  0  0  0  0
 15 16  1  0  0  0  0
 16 18  1  0  0  0  0
 16 17  1  0  0  0  0
 18 19  1  0  0  0  0
 19 20  1  0  0  0  0
 20 21  1  0  0  0  0
 21 22  1  0  0  0  0
 22 23  1  0  0  0  0
 22 24  2  0  0  0  0
A    1
C22
A    2
O21
A    3
C20
A    4
O17
A    5
C14
A    6
C15
A    7
C10
A    8
O11
A    9
C05
A   10
C06
A   11
C07
A   12
C01
A   13
C02
A   14
O03
A   15
C04
A   16
C08
A   17
O16
A   18
C09
A   19
O12
A   20
C13
A   21
C18
A   22
C19
A   23
O23
A   24
O24
M  END
>  <InstanceId>
2E27_AB0_H_6001

>  <ChemCompId>
AB0

>  <PdbId>
2E27

>  <ChainId>
H

>  <ResidueNumber>
6001

>  <InsertionCode>


>  <Model>
1

>  <AltIds>


>  <MissingHeavyAtoms>
0

>  <ObservedFormula>
C16 O8

>  <Name>
3,7:6,10:9,14-TRIANHYDRO-2,5,11,12,13-PENTADEOXY-4-O-(METHOXYMETHYL)-L-ARABINO-L-ALLO-TETRADEC-12-ENONIC ACID

>  <SystematicName>


>  <Synonyms>
CIGUATOXIN ABC RING FRAGMENT

>  <Type>
NON-POLYMER

>  <Formula>
C16 H24 O8

>  <MolecularWeight>
344.357

>  <ModifiedDate>
2011-06-04

>  <Parent>


>  <OneLetterCode>


>  <SubcomponentList>


>  <AmbiguousFlag>


>  <InChI>
InChI=1S/C16H24O8/c1-20-8-22-10-6-12-16(24-11(10)7-13(17)18)14(19)15-9(23-12)4-2-3-5-21-15/h2-3,9-12,14-16,19H,4-8H2,1H3,(H,17,18)/t9-,10-,11+,12+,14+,15-,16+/m0/s1

>  <InChIKey>
BUTGPEQQPCQQSZ-RQHZCWAZSA-N

>  <SMILES>
COCO[C@H]1C[C@@H]2[C@H]([C@@H]([C@@H]3[C@@H](O2)CC=CCO3)O)O[C@@H]1CC(=O)O

$$$$
