1HXB_ROC_A_100


 55 59  0  0  0  0  0  0  0  0999 V2000
   19.4755   -1.2839   10.8580 C   0  0  0  0  0  0  0  0  0  0  0  0
   18.5894   -1.3489    8.6127 C   0  0  0  0  0  0  0  0  0  0  0  0
   17.6048   -0.7056    8.9969 O   0  0  0  0  0  0  0  0  0  0  0  0
   19.5481   -1.7046    9.4682 N   0  0  0  0  0  0  0  0  0  0  0  0
   20.3054   -2.2522    9.1588 H   0  0  0  0  0  0  0  0  0  0  0  0
   18.8063   -1.8150    7.1823 C   0  0  0  0  0  0  0  0  0  0  0  0
   18.8886   -4.2282    6.7637 C   0  0  0  0  0  0  0  0  0  0  0  0
   20.1207   -4.2633    6.6827 O   0  0  0  0  0  0  0  0  0  0  0  0
   18.1926   -3.1012    6.9316 N   0  0  0  0  0  0  0  0  0  0  0  0
   17.2104   -3.1478    6.8822 H   0  0  0  0  0  0  0  0  0  0  0  0
   16.7791   -5.2173    7.1724 N   0  0  0  0  0  0  0  0  0  0  0  0
   18.0403   -5.3373    6.6810 C   0  0  0  0  0  0  0  0  0  0  0  0
   18.4672   -6.5740    6.1836 C   0  0  0  0  0  0  0  0  0  0  0  0
   17.5894   -7.6590    6.2180 C   0  0  0  0  0  0  0  0  0  0  0  0
   15.4092   -8.5533    6.7966 C   0  0  0  0  0  0  0  0  0  0  0  0
   14.1328   -8.3443    7.3349 C   0  0  0  0  0  0  0  0  0  0  0  0
   13.7484   -7.0871    7.8153 C   0  0  0  0  0  0  0  0  0  0  0  0
   14.6411   -6.0213    7.7618 C   0  0  0  0  0  0  0  0  0  0  0  0
   16.3048   -7.4867    6.7419 C   0  0  0  0  0  0  0  0  0  0  0  0
   15.9082   -6.2311    7.2242 C   0  0  0  0  0  0  0  0  0  0  0  0
   18.2538   -0.7929    6.2355 C   0  0  0  0  0  0  0  0  0  0  0  0
   19.2812   -0.5964    5.1479 C   0  0  0  0  0  0  0  0  0  0  0  0
   19.7549   -1.5270    4.5149 O   0  0  0  0  0  0  0  0  0  0  0  0
   19.6590    0.6008    4.7787 N   0  0  0  0  0  0  0  0  0  0  0  0
   19.3127    1.3932    5.2493 H   0  0  0  0  0  0  0  0  0  0  0  0
   20.2895    0.7091    4.0305 H   0  0  0  0  0  0  0  0  0  0  0  0
   20.5081   -0.1534   11.0477 C   0  0  0  0  0  0  0  0  0  0  0  0
   21.7919   -0.7248   10.8301 O   0  0  0  0  0  0  0  0  0  0  0  0
   21.9579   -1.4101   11.4962 H   0  0  0  0  0  0  0  0  0  0  0  0
   20.4836    0.5701   12.3989 C   0  0  0  0  0  0  0  0  0  0  0  0
   19.4864    1.6372   12.4448 N   0  0  0  0  0  0  0  0  0  0  0  0
   19.0936    2.0106   13.8140 C   0  0  0  0  0  0  0  0  0  0  0  0
   18.0934    3.1612   13.7867 C   0  0  0  0  0  0  0  0  0  0  0  0
   18.6806    4.3665   13.0941 C   0  0  0  0  0  0  0  0  0  0  0  0
   17.6330    5.4617   13.0378 C   0  0  0  0  0  0  0  0  0  0  0  0
   16.5298    5.1752   12.0284 C   0  0  0  0  0  0  0  0  0  0  0  0
   17.1048    4.9570   10.6420 C   0  0  0  0  0  0  0  0  0  0  0  0
   17.9816    3.7270   10.7200 C   0  0  0  0  0  0  0  0  0  0  0  0
   19.1590    3.9785   11.6475 C   0  0  0  0  0  0  0  0  0  0  0  0
   20.0750    2.7686   11.7374 C   0  0  0  0  0  0  0  0  0  0  0  0
   18.4766    0.9226   14.6826 C   0  0  0  0  0  0  0  0  0  0  0  0
   17.5660    0.2288   14.2289 O   0  0  0  0  0  0  0  0  0  0  0  0
   19.0186    0.8506   15.8993 N   0  0  0  0  0  0  0  0  0  0  0  0
   19.7131    1.5114   16.1234 H   0  0  0  0  0  0  0  0  0  0  0  0
   18.6705   -0.1196   16.9199 C   0  0  0  0  0  0  0  0  0  0  0  0
   19.3755    0.3291   18.1732 C   0  0  0  0  0  0  0  0  0  0  0  0
   17.1933   -0.0953   17.2114 C   0  0  0  0  0  0  0  0  0  0  0  0
   19.1409   -1.5302   16.5597 C   0  0  0  0  0  0  0  0  0  0  0  0
   19.7465   -2.5027   11.7546 C   0  0  0  0  0  0  0  0  0  0  0  0
   18.8840   -3.6819   11.3747 C   0  0  0  0  0  0  0  0  0  0  0  0
   17.5418   -3.7006   11.7383 C   0  0  0  0  0  0  0  0  0  0  0  0
   19.4413   -4.7139   10.6210 C   0  0  0  0  0  0  0  0  0  0  0  0
   16.7478   -4.7712   11.3406 C   0  0  0  0  0  0  0  0  0  0  0  0
   18.6394   -5.7699   10.2333 C   0  0  0  0  0  0  0  0  0  0  0  0
   17.2944   -5.7978   10.5894 C   0  0  0  0  0  0  0  0  0  0  0  0
  8  7  2  0  0  0
  7 12  1  0  0  0
 11 12  2  0  0  0
 11 20  1  0  0  0
 12 13  1  0  0  0
 13 14  2  0  0  0
 14 19  1  0  0  0
 19 15  2  0  0  0
 19 20  1  0  0  0
 15 16  1  0  0  0
 16 17  2  0  0  0
 17 18  1  0  0  0
 18 20  2  0  0  0
  9  6  1  0  0  0
  6  2  1  0  0  0
  6 21  1  0  0  0
  2  3  2  0  0  0
 21 22  1  0  0  0
 22 23  2  0  0  0
 22 24  1  0  0  0
 27 28  1  0  0  0
 27  1  1  0  0  0
  1  4  1  0  0  0
  1 49  1  0  0  0
 49 50  1  0  0  0
 50 51  2  0  0  0
 50 52  1  0  0  0
 51 53  1  0  0  0
 52 54  2  0  0  0
 53 55  2  0  0  0
 54 55  1  0  0  0
 31 30  1  0  0  0
 31 32  1  0  0  0
 31 40  1  0  0  0
 32 41  1  0  0  0
 32 33  1  0  0  0
 41 42  2  0  0  0
 33 34  1  0  0  0
 34 35  1  0  0  0
 34 39  1  0  0  0
 35 36  1  0  0  0
 36 37  1  0  0  0
 37 38  1  0  0  0
 38 39  1  0  0  0
 39 40  1  0  0  0
 43 45  1  0  0  0
 45 46  1  0  0  0
 45 47  1  0  0  0
 45 48  1  0  0  0
  7  9  1  0  0  0
  2  4  1  0  0  0
 27 30  1  0  0  0
 41 43  1  0  0  0
  9 10  1  0  0  0
 24 25  1  0  0  0
 24 26  1  0  0  0
 28 29  1  0  0  0
  4  5  1  0  0  0
 43 44  1  0  0  0
M  END
> <minimizedAffinity>
-11.91693

$$$$
1HXB_ROC_A_100


 55 59  0  0  0  0  0  0  0  0999 V2000
   19.5353   -1.4272   10.6293 C   0  0  0  0  0  0  0  0  0  0  0  0
   18.7244   -1.4566    8.3550 C   0  0  0  0  0  0  0  0  0  0  0  0
   17.6225   -1.0627    8.7568 O   0  0  0  0  0  0  0  0  0  0  0  0
   19.7186   -1.6920    9.2115 N   0  0  0  0  0  0  0  0  0  0  0  0
   20.5771   -2.0452    8.8839 H   0  0  0  0  0  0  0  0  0  0  0  0
   19.0590   -1.7329    6.8982 C   0  0  0  0  0  0  0  0  0  0  0  0
   18.4543   -4.0184    6.2530 C   0  0  0  0  0  0  0  0  0  0  0  0
   19.5479   -4.4947    6.5741 O   0  0  0  0  0  0  0  0  0  0  0  0
   18.1712   -2.7151    6.3143 N   0  0  0  0  0  0  0  0  0  0  0  0
   17.3134   -2.4061    5.9427 H   0  0  0  0  0  0  0  0  0  0  0  0
   16.8896   -4.4512    4.5326 N   0  0  0  0  0  0  0  0  0  0  0  0
   17.3636   -4.7494    5.7707 C   0  0  0  0  0  0  0  0  0  0  0  0
   16.7055   -5.7140    6.5425 C   0  0  0  0  0  0  0  0  0  0  0  0
   15.5680   -6.3364    6.0254 C   0  0  0  0  0  0  0  0  0  0  0  0
   13.9775   -6.5872    4.2101 C   0  0  0  0  0  0  0  0  0  0  0  0
   13.5493   -6.2077    2.9314 C   0  0  0  0  0  0  0  0  0  0  0  0
   14.2437   -5.2417    2.1941 C   0  0  0  0  0  0  0  0  0  0  0  0
   15.3789   -4.6427    2.7309 C   0  0  0  0  0  0  0  0  0  0  0  0
   15.1147   -5.9884    4.7496 C   0  0  0  0  0  0  0  0  0  0  0  0
   15.8038   -5.0233    4.0011 C   0  0  0  0  0  0  0  0  0  0  0  0
   18.9887   -0.4545    6.1192 C   0  0  0  0  0  0  0  0  0  0  0  0
   19.0174   -0.8254    4.6568 C   0  0  0  0  0  0  0  0  0  0  0  0
   19.8041   -1.6402    4.2004 O   0  0  0  0  0  0  0  0  0  0  0  0
   18.1401   -0.3404    3.8157 N   0  0  0  0  0  0  0  0  0  0  0  0
   17.4780    0.3208    4.1218 H   0  0  0  0  0  0  0  0  0  0  0  0
   18.1421   -0.6368    2.8769 H   0  0  0  0  0  0  0  0  0  0  0  0
   20.4595   -0.2479   10.9971 C   0  0  0  0  0  0  0  0  0  0  0  0
   21.7967   -0.7056   10.8404 O   0  0  0  0  0  0  0  0  0  0  0  0
   21.9637   -1.4339   11.4590 H   0  0  0  0  0  0  0  0  0  0  0  0
   20.2754    0.3494   12.3968 C   0  0  0  0  0  0  0  0  0  0  0  0
   19.3286    1.4623   12.4107 N   0  0  0  0  0  0  0  0  0  0  0  0
   18.9573    1.8958   13.7681 C   0  0  0  0  0  0  0  0  0  0  0  0
   18.0112    3.0900   13.7063 C   0  0  0  0  0  0  0  0  0  0  0  0
   18.6515    4.2447   12.9757 C   0  0  0  0  0  0  0  0  0  0  0  0
   17.6553    5.3849   12.8866 C   0  0  0  0  0  0  0  0  0  0  0  0
   16.5374    5.1185   11.8881 C   0  0  0  0  0  0  0  0  0  0  0  0
   17.0978    4.8310   10.5085 C   0  0  0  0  0  0  0  0  0  0  0  0
   17.9171    3.5648   10.6236 C   0  0  0  0  0  0  0  0  0  0  0  0
   19.1075    3.7904   11.5413 C   0  0  0  0  0  0  0  0  0  0  0  0
   19.9669    2.5427   11.6676 C   0  0  0  0  0  0  0  0  0  0  0  0
   18.2932    0.8650   14.6711 C   0  0  0  0  0  0  0  0  0  0  0  0
   17.2920    0.2677   14.2745 O   0  0  0  0  0  0  0  0  0  0  0  0
   18.9017    0.7290   15.8502 N   0  0  0  0  0  0  0  0  0  0  0  0
   19.6705    1.3167   16.0314 H   0  0  0  0  0  0  0  0  0  0  0  0
   18.5259   -0.2123   16.8879 C   0  0  0  0  0  0  0  0  0  0  0  0
   19.0003   -1.5609   16.4131 C   0  0  0  0  0  0  0  0  0  0  0  0
   19.2486    0.0817   18.1759 C   0  0  0  0  0  0  0  0  0  0  0  0
   17.0117   -0.2619   17.1013 C   0  0  0  0  0  0  0  0  0  0  0  0
   19.8557   -2.7098   11.4137 C   0  0  0  0  0  0  0  0  0  0  0  0
   18.8860   -3.8212   11.0923 C   0  0  0  0  0  0  0  0  0  0  0  0
   17.6030   -3.7939   11.6283 C   0  0  0  0  0  0  0  0  0  0  0  0
   19.2822   -4.8350   10.2213 C   0  0  0  0  0  0  0  0  0  0  0  0
   16.7050   -4.7995   11.2857 C   0  0  0  0  0  0  0  0  0  0  0  0
   18.3785   -5.8263    9.8904 C   0  0  0  0  0  0  0  0  0  0  0  0
   17.0912   -5.8076   10.4188 C   0  0  0  0  0  0  0  0  0  0  0  0
  8  7  2  0  0  0
  7 12  1  0  0  0
 11 12  2  0  0  0
 11 20  1  0  0  0
 12 13  1  0  0  0
 13 14  2  0  0  0
 14 19  1  0  0  0
 19 15  2  0  0  0
 19 20  1  0  0  0
 15 16  1  0  0  0
 16 17  2  0  0  0
 17 18  1  0  0  0
 18 20  2  0  0  0
  9  6  1  0  0  0
  6  2  1  0  0  0
  6 21  1  0  0  0
  2  3  2  0  0  0
 21 22  1  0  0  0
 22 23  2  0  0  0
 22 24  1  0  0  0
 27 28  1  0  0  0
 27  1  1  0  0  0
  1  4  1  0  0  0
  1 49  1  0  0  0
 49 50  1  0  0  0
 50 51  2  0  0  0
 50 52  1  0  0  0
 51 53  1  0  0  0
 52 54  2  0  0  0
 53 55  2  0  0  0
 54 55  1  0  0  0
 31 30  1  0  0  0
 31 32  1  0  0  0
 31 40  1  0  0  0
 32 41  1  0  0  0
 32 33  1  0  0  0
 41 42  2  0  0  0
 33 34  1  0  0  0
 34 35  1  0  0  0
 34 39  1  0  0  0
 35 36  1  0  0  0
 36 37  1  0  0  0
 37 38  1  0  0  0
 38 39  1  0  0  0
 39 40  1  0  0  0
 43 45  1  0  0  0
 45 46  1  0  0  0
 45 47  1  0  0  0
 45 48  1  0  0  0
  7  9  1  0  0  0
  2  4  1  0  0  0
 27 30  1  0  0  0
 41 43  1  0  0  0
  9 10  1  0  0  0
 24 25  1  0  0  0
 24 26  1  0  0  0
 28 29  1  0  0  0
  4  5  1  0  0  0
 43 44  1  0  0  0
M  END
> <minimizedAffinity>
-11.87150

$$$$
1HXB_ROC_A_100


 55 59  0  0  0  0  0  0  0  0999 V2000
   19.4611    1.3089   12.2759 C   0  0  0  0  0  0  0  0  0  0  0  0
   18.5983    1.2979   14.5311 C   0  0  0  0  0  0  0  0  0  0  0  0
   17.5424    0.8091   14.1106 O   0  0  0  0  0  0  0  0  0  0  0  0
   19.5891    1.6049   13.6936 N   0  0  0  0  0  0  0  0  0  0  0  0
   20.4077    2.0321   14.0352 H   0  0  0  0  0  0  0  0  0  0  0  0
   18.8752    1.6184   15.9910 C   0  0  0  0  0  0  0  0  0  0  0  0
   19.1644    3.9440   16.7078 C   0  0  0  0  0  0  0  0  0  0  0  0
   20.3859    3.8398   16.8597 O   0  0  0  0  0  0  0  0  0  0  0  0
   18.3745    2.9238   16.3645 N   0  0  0  0  0  0  0  0  0  0  0  0
   17.4005    3.0671   16.3654 H   0  0  0  0  0  0  0  0  0  0  0  0
   18.4498    6.0432   15.8845 N   0  0  0  0  0  0  0  0  0  0  0  0
   18.4249    5.1187   16.8802 C   0  0  0  0  0  0  0  0  0  0  0  0
   17.7301    5.4023   18.0617 C   0  0  0  0  0  0  0  0  0  0  0  0
   17.0907    6.6363   18.1934 C   0  0  0  0  0  0  0  0  0  0  0  0
   16.5311    8.8005   17.2494 C   0  0  0  0  0  0  0  0  0  0  0  0
   16.6211    9.7005   16.1797 C   0  0  0  0  0  0  0  0  0  0  0  0
   17.3228    9.3700   15.0146 C   0  0  0  0  0  0  0  0  0  0  0  0
   17.9445    8.1299   14.9073 C   0  0  0  0  0  0  0  0  0  0  0  0
   17.1530    7.5576   17.1438 C   0  0  0  0  0  0  0  0  0  0  0  0
   17.8515    7.2363   15.9710 C   0  0  0  0  0  0  0  0  0  0  0  0
   18.2541    0.5663   16.8590 C   0  0  0  0  0  0  0  0  0  0  0  0
   18.7290    0.8190   18.2689 C   0  0  0  0  0  0  0  0  0  0  0  0
   19.9077    0.9735   18.5480 O   0  0  0  0  0  0  0  0  0  0  0  0
   17.8816    0.9605   19.2559 N   0  0  0  0  0  0  0  0  0  0  0  0
   16.9166    0.8487   19.0961 H   0  0  0  0  0  0  0  0  0  0  0  0
   18.2091    1.1788   20.1583 H   0  0  0  0  0  0  0  0  0  0  0  0
   20.3884    0.1136   11.9732 C   0  0  0  0  0  0  0  0  0  0  0  0
   21.7172    0.5420   12.2432 O   0  0  0  0  0  0  0  0  0  0  0  0
   21.9490    1.2717   11.6476 H   0  0  0  0  0  0  0  0  0  0  0  0
   20.3076   -0.4681   10.5572 C   0  0  0  0  0  0  0  0  0  0  0  0
   19.4417   -1.6427   10.4829 N   0  0  0  0  0  0  0  0  0  0  0  0
   19.1265   -2.0492    9.1032 C   0  0  0  0  0  0  0  0  0  0  0  0
   18.2654   -3.3077    9.1016 C   0  0  0  0  0  0  0  0  0  0  0  0
   18.9717   -4.4420    9.8026 C   0  0  0  0  0  0  0  0  0  0  0  0
   18.0566   -5.6512    9.8292 C   0  0  0  0  0  0  0  0  0  0  0  0
   16.9046   -5.5010   10.8133 C   0  0  0  0  0  0  0  0  0  0  0  0
   17.4182   -5.2278   12.2139 C   0  0  0  0  0  0  0  0  0  0  0  0
   18.1487   -3.9044   12.1622 C   0  0  0  0  0  0  0  0  0  0  0  0
   19.3685   -4.0118   11.2619 C   0  0  0  0  0  0  0  0  0  0  0  0
   20.1404   -2.7036   11.1992 C   0  0  0  0  0  0  0  0  0  0  0  0
   18.4082   -1.0335    8.2248 C   0  0  0  0  0  0  0  0  0  0  0  0
   17.3954   -0.4754    8.6480 O   0  0  0  0  0  0  0  0  0  0  0  0
   18.9870   -0.8648    7.0350 N   0  0  0  0  0  0  0  0  0  0  0  0
   19.7717   -1.4236    6.8319 H   0  0  0  0  0  0  0  0  0  0  0  0
   18.5571    0.0728    6.0150 C   0  0  0  0  0  0  0  0  0  0  0  0
   18.8978    1.4418    6.5432 C   0  0  0  0  0  0  0  0  0  0  0  0
   19.3368   -0.1154    4.7406 C   0  0  0  0  0  0  0  0  0  0  0  0
   17.0506   -0.0034    5.7591 C   0  0  0  0  0  0  0  0  0  0  0  0
   19.8252    2.5702   11.4763 C   0  0  0  0  0  0  0  0  0  0  0  0
   18.7089    3.5862   11.4916 C   0  0  0  0  0  0  0  0  0  0  0  0
   18.4458    4.3047   12.6529 C   0  0  0  0  0  0  0  0  0  0  0  0
   17.9895    3.8199   10.3205 C   0  0  0  0  0  0  0  0  0  0  0  0
   17.4454    5.2712   12.6387 C   0  0  0  0  0  0  0  0  0  0  0  0
   16.9995    4.7835   10.3225 C   0  0  0  0  0  0  0  0  0  0  0  0
   16.7294    5.5103   11.4781 C   0  0  0  0  0  0  0  0  0  0  0  0
  8  7  2  0  0  0
  7 12  1  0  0  0
 11 12  2  0  0  0
 11 20  1  0  0  0
 12 13  1  0  0  0
 13 14  2  0  0  0
 14 19  1  0  0  0
 19 15  2  0  0  0
 19 20  1  0  0  0
 15 16  1  0  0  0
 16 17  2  0  0  0
 17 18  1  0  0  0
 18 20  2  0  0  0
  9  6  1  0  0  0
  6  2  1  0  0  0
  6 21  1  0  0  0
  2  3  2  0  0  0
 21 22  1  0  0  0
 22 23  2  0  0  0
 22 24  1  0  0  0
 27 28  1  0  0  0
 27  1  1  0  0  0
  1  4  1  0  0  0
  1 49  1  0  0  0
 49 50  1  0  0  0
 50 51  2  0  0  0
 50 52  1  0  0  0
 51 53  1  0  0  0
 52 54  2  0  0  0
 53 55  2  0  0  0
 54 55  1  0  0  0
 31 30  1  0  0  0
 31 32  1  0  0  0
 31 40  1  0  0  0
 32 41  1  0  0  0
 32 33  1  0  0  0
 41 42  2  0  0  0
 33 34  1  0  0  0
 34 35  1  0  0  0
 34 39  1  0  0  0
 35 36  1  0  0  0
 36 37  1  0  0  0
 37 38  1  0  0  0
 38 39  1  0  0  0
 39 40  1  0  0  0
 43 45  1  0  0  0
 45 46  1  0  0  0
 45 47  1  0  0  0
 45 48  1  0  0  0
  7  9  1  0  0  0
  2  4  1  0  0  0
 27 30  1  0  0  0
 41 43  1  0  0  0
  9 10  1  0  0  0
 24 25  1  0  0  0
 24 26  1  0  0  0
 28 29  1  0  0  0
  4  5  1  0  0  0
 43 44  1  0  0  0
M  END
> <minimizedAffinity>
-11.30754

$$$$
1HXB_ROC_A_100


 55 59  0  0  0  0  0  0  0  0999 V2000
   19.6352   -0.5122    9.4350 C   0  0  0  0  0  0  0  0  0  0  0  0
   19.0214   -2.8288    9.1402 C   0  0  0  0  0  0  0  0  0  0  0  0
   19.4321   -2.7755    7.9744 O   0  0  0  0  0  0  0  0  0  0  0  0
   19.0548   -1.7518    9.9252 N   0  0  0  0  0  0  0  0  0  0  0  0
   18.6864   -1.7958   10.8371 H   0  0  0  0  0  0  0  0  0  0  0  0
   18.4297   -4.0708    9.7866 C   0  0  0  0  0  0  0  0  0  0  0  0
   16.3417   -5.2620    9.3102 C   0  0  0  0  0  0  0  0  0  0  0  0
   15.9914   -5.3061   10.4940 O   0  0  0  0  0  0  0  0  0  0  0  0
   17.5086   -4.7551    8.9050 N   0  0  0  0  0  0  0  0  0  0  0  0
   17.7552   -4.8520    7.9569 H   0  0  0  0  0  0  0  0  0  0  0  0
   16.2108   -5.8394    7.0200 N   0  0  0  0  0  0  0  0  0  0  0  0
   15.5951   -5.7376    8.2272 C   0  0  0  0  0  0  0  0  0  0  0  0
   14.2314   -6.0365    8.3283 C   0  0  0  0  0  0  0  0  0  0  0  0
   13.5336   -6.4187    7.1813 C   0  0  0  0  0  0  0  0  0  0  0  0
   13.5384   -6.8712    4.7974 C   0  0  0  0  0  0  0  0  0  0  0  0
   14.2483   -6.9347    3.5914 C   0  0  0  0  0  0  0  0  0  0  0  0
   15.6139   -6.6321    3.5401 C   0  0  0  0  0  0  0  0  0  0  0  0
   16.2863   -6.2611    4.7003 C   0  0  0  0  0  0  0  0  0  0  0  0
   14.2103   -6.4999    5.9608 C   0  0  0  0  0  0  0  0  0  0  0  0
   15.5789   -6.2009    5.8981 C   0  0  0  0  0  0  0  0  0  0  0  0
   19.5357   -4.9988   10.1887 C   0  0  0  0  0  0  0  0  0  0  0  0
   19.9448   -5.7613    8.9525 C   0  0  0  0  0  0  0  0  0  0  0  0
   19.3895   -6.7904    8.6008 O   0  0  0  0  0  0  0  0  0  0  0  0
   20.8748   -5.3077    8.1515 N   0  0  0  0  0  0  0  0  0  0  0  0
   21.3602   -4.4818    8.3784 H   0  0  0  0  0  0  0  0  0  0  0  0
   21.0891   -5.7924    7.3218 H   0  0  0  0  0  0  0  0  0  0  0  0
   20.4107    0.1241   10.6071 C   0  0  0  0  0  0  0  0  0  0  0  0
   21.6523   -0.5625   10.7030 O   0  0  0  0  0  0  0  0  0  0  0  0
   21.4903   -1.4961   10.9102 H   0  0  0  0  0  0  0  0  0  0  0  0
   19.7080    0.1197   11.9695 C   0  0  0  0  0  0  0  0  0  0  0  0
   18.9517    1.3459   12.2135 N   0  0  0  0  0  0  0  0  0  0  0  0
   18.9130    1.7351   13.6331 C   0  0  0  0  0  0  0  0  0  0  0  0
   18.1546    3.0466   13.8059 C   0  0  0  0  0  0  0  0  0  0  0  0
   18.8031    4.1508   13.0076 C   0  0  0  0  0  0  0  0  0  0  0  0
   17.9832    5.4174   13.1615 C   0  0  0  0  0  0  0  0  0  0  0  0
   16.6685    5.3692   12.3952 C   0  0  0  0  0  0  0  0  0  0  0  0
   16.9077    5.1005   10.9219 C   0  0  0  0  0  0  0  0  0  0  0  0
   17.5427    3.7313   10.8237 C   0  0  0  0  0  0  0  0  0  0  0  0
   18.9063    3.7347   11.4949 C   0  0  0  0  0  0  0  0  0  0  0  0
   19.5852    2.3777   11.4004 C   0  0  0  0  0  0  0  0  0  0  0  0
   18.2921    0.7454   14.6098 C   0  0  0  0  0  0  0  0  0  0  0  0
   17.3210    0.0750   14.2577 O   0  0  0  0  0  0  0  0  0  0  0  0
   18.9006    0.7258   15.7966 N   0  0  0  0  0  0  0  0  0  0  0  0
   19.6409    1.3599   15.9343 H   0  0  0  0  0  0  0  0  0  0  0  0
   18.5630   -0.1516   16.9014 C   0  0  0  0  0  0  0  0  0  0  0  0
   19.3650    0.3395   18.0781 C   0  0  0  0  0  0  0  0  0  0  0  0
   17.1094   -0.0225   17.2731 C   0  0  0  0  0  0  0  0  0  0  0  0
   18.9346   -1.6080   16.6162 C   0  0  0  0  0  0  0  0  0  0  0  0
   18.5039    0.3838    8.9055 C   0  0  0  0  0  0  0  0  0  0  0  0
   18.3520    0.2698    7.4079 C   0  0  0  0  0  0  0  0  0  0  0  0
   19.3800    0.6990    6.5754 C   0  0  0  0  0  0  0  0  0  0  0  0
   17.1967   -0.3108    6.8865 C   0  0  0  0  0  0  0  0  0  0  0  0
   19.2459    0.5442    5.1995 C   0  0  0  0  0  0  0  0  0  0  0  0
   17.0789   -0.4580    5.5179 C   0  0  0  0  0  0  0  0  0  0  0  0
   18.1023   -0.0343    4.6756 C   0  0  0  0  0  0  0  0  0  0  0  0
  8  7  2  0  0  0
  7 12  1  0  0  0
 11 12  2  0  0  0
 11 20  1  0  0  0
 12 13  1  0  0  0
 13 14  2  0  0  0
 14 19  1  0  0  0
 19 15  2  0  0  0
 19 20  1  0  0  0
 15 16  1  0  0  0
 16 17  2  0  0  0
 17 18  1  0  0  0
 18 20  2  0  0  0
  9  6  1  0  0  0
  6  2  1  0  0  0
  6 21  1  0  0  0
  2  3  2  0  0  0
 21 22  1  0  0  0
 22 23  2  0  0  0
 22 24  1  0  0  0
 27 28  1  0  0  0
 27  1  1  0  0  0
  1  4  1  0  0  0
  1 49  1  0  0  0
 49 50  1  0  0  0
 50 51  2  0  0  0
 50 52  1  0  0  0
 51 53  1  0  0  0
 52 54  2  0  0  0
 53 55  2  0  0  0
 54 55  1  0  0  0
 31 30  1  0  0  0
 31 32  1  0  0  0
 31 40  1  0  0  0
 32 41  1  0  0  0
 32 33  1  0  0  0
 41 42  2  0  0  0
 33 34  1  0  0  0
 34 35  1  0  0  0
 34 39  1  0  0  0
 35 36  1  0  0  0
 36 37  1  0  0  0
 37 38  1  0  0  0
 38 39  1  0  0  0
 39 40  1  0  0  0
 43 45  1  0  0  0
 45 46  1  0  0  0
 45 47  1  0  0  0
 45 48  1  0  0  0
  7  9  1  0  0  0
  2  4  1  0  0  0
 27 30  1  0  0  0
 41 43  1  0  0  0
  9 10  1  0  0  0
 24 25  1  0  0  0
 24 26  1  0  0  0
 28 29  1  0  0  0
  4  5  1  0  0  0
 43 44  1  0  0  0
M  END
> <minimizedAffinity>
-10.91408

$$$$
1HXB_ROC_A_100


 55 59  0  0  0  0  0  0  0  0999 V2000
   19.4244    0.4465   13.7023 C   0  0  0  0  0  0  0  0  0  0  0  0
   18.7249    2.7524   13.8587 C   0  0  0  0  0  0  0  0  0  0  0  0
   19.3198    2.8457   14.9395 O   0  0  0  0  0  0  0  0  0  0  0  0
   18.6980    1.5980   13.1922 N   0  0  0  0  0  0  0  0  0  0  0  0
   18.1861    1.5253   12.3544 H   0  0  0  0  0  0  0  0  0  0  0  0
   17.9622    3.8886   13.1970 C   0  0  0  0  0  0  0  0  0  0  0  0
   16.6936    5.7746   14.1131 C   0  0  0  0  0  0  0  0  0  0  0  0
   15.7670    5.6609   13.3041 O   0  0  0  0  0  0  0  0  0  0  0  0
   17.7939    5.0188   14.0847 N   0  0  0  0  0  0  0  0  0  0  0  0
   18.5293    5.2422   14.7000 H   0  0  0  0  0  0  0  0  0  0  0  0
   17.1494    6.2670   16.3814 N   0  0  0  0  0  0  0  0  0  0  0  0
   16.7455    6.7020   15.1590 C   0  0  0  0  0  0  0  0  0  0  0  0
   16.3280    8.0293   15.0073 C   0  0  0  0  0  0  0  0  0  0  0  0
   16.3235    8.8708   16.1211 C   0  0  0  0  0  0  0  0  0  0  0  0
   16.7389    9.1874   18.4908 C   0  0  0  0  0  0  0  0  0  0  0  0
   17.1562    8.6517   19.7161 C   0  0  0  0  0  0  0  0  0  0  0  0
   17.5710    7.3188   19.8180 C   0  0  0  0  0  0  0  0  0  0  0  0
   17.5725    6.5045   18.6900 C   0  0  0  0  0  0  0  0  0  0  0  0
   16.7399    8.3732   17.3595 C   0  0  0  0  0  0  0  0  0  0  0  0
   17.1595    7.0400   17.4728 C   0  0  0  0  0  0  0  0  0  0  0  0
   18.6844    4.3178   11.9559 C   0  0  0  0  0  0  0  0  0  0  0  0
   17.7564    4.0632   10.7936 C   0  0  0  0  0  0  0  0  0  0  0  0
   17.1742    3.0012   10.6373 O   0  0  0  0  0  0  0  0  0  0  0  0
   17.4722    5.0063    9.9321 N   0  0  0  0  0  0  0  0  0  0  0  0
   17.9081    5.8861   10.0037 H   0  0  0  0  0  0  0  0  0  0  0  0
   16.8224    4.8360    9.2123 H   0  0  0  0  0  0  0  0  0  0  0  0
   20.1854   -0.1767   12.5138 C   0  0  0  0  0  0  0  0  0  0  0  0
   21.4126    0.5312   12.3912 O   0  0  0  0  0  0  0  0  0  0  0  0
   21.2300    1.4619   12.1875 H   0  0  0  0  0  0  0  0  0  0  0  0
   19.4536   -0.1851   11.1669 C   0  0  0  0  0  0  0  0  0  0  0  0
   18.9399   -1.5075   10.8169 N   0  0  0  0  0  0  0  0  0  0  0  0
   19.0706   -1.8242    9.3848 C   0  0  0  0  0  0  0  0  0  0  0  0
   18.5644   -3.2346    9.1023 C   0  0  0  0  0  0  0  0  0  0  0  0
   19.3350   -4.2526    9.9067 C   0  0  0  0  0  0  0  0  0  0  0  0
   18.7593   -5.6301    9.6398 C   0  0  0  0  0  0  0  0  0  0  0  0
   17.4047   -5.8445   10.3008 C   0  0  0  0  0  0  0  0  0  0  0  0
   17.4877   -5.6152   11.7976 C   0  0  0  0  0  0  0  0  0  0  0  0
   17.8681   -4.1651   11.9983 C   0  0  0  0  0  0  0  0  0  0  0  0
   19.2563   -3.9032   11.4377 C   0  0  0  0  0  0  0  0  0  0  0  0
   19.6821   -2.4575   11.6375 C   0  0  0  0  0  0  0  0  0  0  0  0
   18.3597   -0.9051    8.4006 C   0  0  0  0  0  0  0  0  0  0  0  0
   17.3055   -0.3618    8.7321 O   0  0  0  0  0  0  0  0  0  0  0  0
   18.9919   -0.7972    7.2311 N   0  0  0  0  0  0  0  0  0  0  0  0
   19.8072   -1.3352    7.1079 H   0  0  0  0  0  0  0  0  0  0  0  0
   18.5791    0.0463    6.1255 C   0  0  0  0  0  0  0  0  0  0  0  0
   18.8961    1.4584    6.5433 C   0  0  0  0  0  0  0  0  0  0  0  0
   19.3906   -0.2413    4.8901 C   0  0  0  0  0  0  0  0  0  0  0  0
   17.0798   -0.0664    5.8422 C   0  0  0  0  0  0  0  0  0  0  0  0
   18.4194   -0.5215   14.3472 C   0  0  0  0  0  0  0  0  0  0  0  0
   18.3615   -0.3538   15.8463 C   0  0  0  0  0  0  0  0  0  0  0  0
   19.3820   -0.8692   16.6382 C   0  0  0  0  0  0  0  0  0  0  0  0
   17.3036    0.3599   16.4077 C   0  0  0  0  0  0  0  0  0  0  0  0
   19.3394   -0.6660   18.0137 C   0  0  0  0  0  0  0  0  0  0  0  0
   17.2761    0.5536   17.7753 C   0  0  0  0  0  0  0  0  0  0  0  0
   18.2932    0.0445   18.5771 C   0  0  0  0  0  0  0  0  0  0  0  0
  8  7  2  0  0  0
  7 12  1  0  0  0
 11 12  2  0  0  0
 11 20  1  0  0  0
 12 13  1  0  0  0
 13 14  2  0  0  0
 14 19  1  0  0  0
 19 15  2  0  0  0
 19 20  1  0  0  0
 15 16  1  0  0  0
 16 17  2  0  0  0
 17 18  1  0  0  0
 18 20  2  0  0  0
  9  6  1  0  0  0
  6  2  1  0  0  0
  6 21  1  0  0  0
  2  3  2  0  0  0
 21 22  1  0  0  0
 22 23  2  0  0  0
 22 24  1  0  0  0
 27 28  1  0  0  0
 27  1  1  0  0  0
  1  4  1  0  0  0
  1 49  1  0  0  0
 49 50  1  0  0  0
 50 51  2  0  0  0
 50 52  1  0  0  0
 51 53  1  0  0  0
 52 54  2  0  0  0
 53 55  2  0  0  0
 54 55  1  0  0  0
 31 30  1  0  0  0
 31 32  1  0  0  0
 31 40  1  0  0  0
 32 41  1  0  0  0
 32 33  1  0  0  0
 41 42  2  0  0  0
 33 34  1  0  0  0
 34 35  1  0  0  0
 34 39  1  0  0  0
 35 36  1  0  0  0
 36 37  1  0  0  0
 37 38  1  0  0  0
 38 39  1  0  0  0
 39 40  1  0  0  0
 43 45  1  0  0  0
 45 46  1  0  0  0
 45 47  1  0  0  0
 45 48  1  0  0  0
  7  9  1  0  0  0
  2  4  1  0  0  0
 27 30  1  0  0  0
 41 43  1  0  0  0
  9 10  1  0  0  0
 24 25  1  0  0  0
 24 26  1  0  0  0
 28 29  1  0  0  0
  4  5  1  0  0  0
 43 44  1  0  0  0
M  END
> <minimizedAffinity>
-10.21614

$$$$
1HXB_ROC_A_100


 55 59  0  0  0  0  0  0  0  0999 V2000
   17.5421   -5.2496    9.2546 C   0  0  0  0  0  0  0  0  0  0  0  0
   18.0455   -3.3903   10.7108 C   0  0  0  0  0  0  0  0  0  0  0  0
   17.8105   -4.1102   11.6892 O   0  0  0  0  0  0  0  0  0  0  0  0
   17.9100   -3.8596    9.4703 N   0  0  0  0  0  0  0  0  0  0  0  0
   18.0592   -3.2649    8.7001 H   0  0  0  0  0  0  0  0  0  0  0  0
   18.4757   -1.9351   10.7984 C   0  0  0  0  0  0  0  0  0  0  0  0
   17.6619   -0.7947   12.8091 C   0  0  0  0  0  0  0  0  0  0  0  0
   16.6443   -0.3600   12.2600 O   0  0  0  0  0  0  0  0  0  0  0  0
   18.6056   -1.4891   12.1689 N   0  0  0  0  0  0  0  0  0  0  0  0
   19.4332   -1.7093   12.6547 H   0  0  0  0  0  0  0  0  0  0  0  0
   18.1000    0.6463   14.6331 N   0  0  0  0  0  0  0  0  0  0  0  0
   17.9902   -0.6221   14.1578 C   0  0  0  0  0  0  0  0  0  0  0  0
   18.2797   -1.6986   15.0041 C   0  0  0  0  0  0  0  0  0  0  0  0
   18.6886   -1.4413   16.3138 C   0  0  0  0  0  0  0  0  0  0  0  0
   19.2078    0.1697   18.0525 C   0  0  0  0  0  0  0  0  0  0  0  0
   19.3091    1.5079   18.4544 C   0  0  0  0  0  0  0  0  0  0  0  0
   19.0031    2.5518   17.5738 C   0  0  0  0  0  0  0  0  0  0  0  0
   18.5908    2.2664   16.2760 C   0  0  0  0  0  0  0  0  0  0  0  0
   18.7947   -0.1183   16.7528 C   0  0  0  0  0  0  0  0  0  0  0  0
   18.4887    0.9355   15.8797 C   0  0  0  0  0  0  0  0  0  0  0  0
   19.7777   -1.7557   10.0780 C   0  0  0  0  0  0  0  0  0  0  0  0
   20.3745   -0.4563   10.5598 C   0  0  0  0  0  0  0  0  0  0  0  0
   19.7485    0.5922   10.5672 O   0  0  0  0  0  0  0  0  0  0  0  0
   21.5796   -0.4094   11.0677 N   0  0  0  0  0  0  0  0  0  0  0  0
   22.1358   -1.2214   11.0914 H   0  0  0  0  0  0  0  0  0  0  0  0
   21.9300    0.4379   11.4262 H   0  0  0  0  0  0  0  0  0  0  0  0
   18.3835   -5.7662    8.0691 C   0  0  0  0  0  0  0  0  0  0  0  0
   19.4770   -6.4883    8.6213 O   0  0  0  0  0  0  0  0  0  0  0  0
   20.0253   -5.8892    9.1517 H   0  0  0  0  0  0  0  0  0  0  0  0
   18.9020   -4.7065    7.0903 C   0  0  0  0  0  0  0  0  0  0  0  0
   18.0505   -4.5693    5.9108 N   0  0  0  0  0  0  0  0  0  0  0  0
   18.6129   -3.6740    4.8859 C   0  0  0  0  0  0  0  0  0  0  0  0
   17.6996   -3.6198    3.6660 C   0  0  0  0  0  0  0  0  0  0  0  0
   17.5133   -4.9951    3.0735 C   0  0  0  0  0  0  0  0  0  0  0  0
   16.5533   -4.9018    1.9031 C   0  0  0  0  0  0  0  0  0  0  0  0
   15.1108   -4.6792    2.3361 C   0  0  0  0  0  0  0  0  0  0  0  0
   14.6507   -5.7750    3.2782 C   0  0  0  0  0  0  0  0  0  0  0  0
   15.5169   -5.6822    4.5146 C   0  0  0  0  0  0  0  0  0  0  0  0
   16.9651   -5.9842    4.1659 C   0  0  0  0  0  0  0  0  0  0  0  0
   17.8655   -5.9185    5.3890 C   0  0  0  0  0  0  0  0  0  0  0  0
   18.8774   -2.2303    5.2916 C   0  0  0  0  0  0  0  0  0  0  0  0
   19.8349   -1.6294    4.8032 O   0  0  0  0  0  0  0  0  0  0  0  0
   17.9991   -1.7647    6.1809 N   0  0  0  0  0  0  0  0  0  0  0  0
   17.3130   -2.3907    6.5074 H   0  0  0  0  0  0  0  0  0  0  0  0
   17.9700   -0.4132    6.7073 C   0  0  0  0  0  0  0  0  0  0  0  0
   17.3501    0.4363    5.6288 C   0  0  0  0  0  0  0  0  0  0  0  0
   17.0733   -0.3192    7.9134 C   0  0  0  0  0  0  0  0  0  0  0  0
   19.3718    0.1160    7.0166 C   0  0  0  0  0  0  0  0  0  0  0  0
   16.0288   -5.3222    8.9949 C   0  0  0  0  0  0  0  0  0  0  0  0
   15.6393   -6.6052    8.3014 C   0  0  0  0  0  0  0  0  0  0  0  0
   16.4946   -7.7009    8.3463 C   0  0  0  0  0  0  0  0  0  0  0  0
   14.4010   -6.6825    7.6655 C   0  0  0  0  0  0  0  0  0  0  0  0
   16.1015   -8.8912    7.7432 C   0  0  0  0  0  0  0  0  0  0  0  0
   14.0250   -7.8720    7.0717 C   0  0  0  0  0  0  0  0  0  0  0  0
   14.8718   -8.9755    7.1127 C   0  0  0  0  0  0  0  0  0  0  0  0
  8  7  2  0  0  0
  7 12  1  0  0  0
 11 12  2  0  0  0
 11 20  1  0  0  0
 12 13  1  0  0  0
 13 14  2  0  0  0
 14 19  1  0  0  0
 19 15  2  0  0  0
 19 20  1  0  0  0
 15 16  1  0  0  0
 16 17  2  0  0  0
 17 18  1  0  0  0
 18 20  2  0  0  0
  9  6  1  0  0  0
  6  2  1  0  0  0
  6 21  1  0  0  0
  2  3  2  0  0  0
 21 22  1  0  0  0
 22 23  2  0  0  0
 22 24  1  0  0  0
 27 28  1  0  0  0
 27  1  1  0  0  0
  1  4  1  0  0  0
  1 49  1  0  0  0
 49 50  1  0  0  0
 50 51  2  0  0  0
 50 52  1  0  0  0
 51 53  1  0  0  0
 52 54  2  0  0  0
 53 55  2  0  0  0
 54 55  1  0  0  0
 31 30  1  0  0  0
 31 32  1  0  0  0
 31 40  1  0  0  0
 32 41  1  0  0  0
 32 33  1  0  0  0
 41 42  2  0  0  0
 33 34  1  0  0  0
 34 35  1  0  0  0
 34 39  1  0  0  0
 35 36  1  0  0  0
 36 37  1  0  0  0
 37 38  1  0  0  0
 38 39  1  0  0  0
 39 40  1  0  0  0
 43 45  1  0  0  0
 45 46  1  0  0  0
 45 47  1  0  0  0
 45 48  1  0  0  0
  7  9  1  0  0  0
  2  4  1  0  0  0
 27 30  1  0  0  0
 41 43  1  0  0  0
  9 10  1  0  0  0
 24 25  1  0  0  0
 24 26  1  0  0  0
 28 29  1  0  0  0
  4  5  1  0  0  0
 43 44  1  0  0  0
M  END
> <minimizedAffinity>
-9.92784

$$$$
1HXB_ROC_A_100


 55 59  0  0  0  0  0  0  0  0999 V2000
   19.1128    0.6602   10.6045 C   0  0  0  0  0  0  0  0  0  0  0  0
   18.6349   -1.7060   10.5476 C   0  0  0  0  0  0  0  0  0  0  0  0
   19.2756   -1.7966    9.4931 O   0  0  0  0  0  0  0  0  0  0  0  0
   18.4770   -0.5277   11.1509 N   0  0  0  0  0  0  0  0  0  0  0  0
   17.9298   -0.4619   11.9667 H   0  0  0  0  0  0  0  0  0  0  0  0
   17.9559   -2.8746   11.2434 C   0  0  0  0  0  0  0  0  0  0  0  0
   16.6075   -4.7888   10.5201 C   0  0  0  0  0  0  0  0  0  0  0  0
   15.9579   -4.8426   11.5694 O   0  0  0  0  0  0  0  0  0  0  0  0
   17.6107   -3.9315   10.3172 N   0  0  0  0  0  0  0  0  0  0  0  0
   18.1436   -4.0232    9.4945 H   0  0  0  0  0  0  0  0  0  0  0  0
   15.1836   -5.6118    8.8200 N   0  0  0  0  0  0  0  0  0  0  0  0
   16.4108   -5.6083    9.4037 C   0  0  0  0  0  0  0  0  0  0  0  0
   17.4019   -6.4705    8.9208 C   0  0  0  0  0  0  0  0  0  0  0  0
   17.0999   -7.3244    7.8586 C   0  0  0  0  0  0  0  0  0  0  0  0
   15.4865   -8.1428    6.2414 C   0  0  0  0  0  0  0  0  0  0  0  0
   14.1914   -8.0916    5.7098 C   0  0  0  0  0  0  0  0  0  0  0  0
   13.2346   -7.2079    6.2223 C   0  0  0  0  0  0  0  0  0  0  0  0
   13.5651   -6.3626    7.2767 C   0  0  0  0  0  0  0  0  0  0  0  0
   15.8197   -7.2966    7.2977 C   0  0  0  0  0  0  0  0  0  0  0  0
   14.8537   -6.4139    7.8018 C   0  0  0  0  0  0  0  0  0  0  0  0
   18.8573   -3.4092   12.3147 C   0  0  0  0  0  0  0  0  0  0  0  0
   20.0580   -4.0081   11.6244 C   0  0  0  0  0  0  0  0  0  0  0  0
   20.0312   -5.1080   11.0946 O   0  0  0  0  0  0  0  0  0  0  0  0
   21.1731   -3.3355   11.4957 N   0  0  0  0  0  0  0  0  0  0  0  0
   21.2584   -2.4419   11.9000 H   0  0  0  0  0  0  0  0  0  0  0  0
   21.9267   -3.7231   10.9946 H   0  0  0  0  0  0  0  0  0  0  0  0
   19.6662    1.4707   11.7949 C   0  0  0  0  0  0  0  0  0  0  0  0
   21.0206    1.0749   11.9710 O   0  0  0  0  0  0  0  0  0  0  0  0
   21.0553    0.1321   12.1962 H   0  0  0  0  0  0  0  0  0  0  0  0
   18.9087    1.3352   13.1207 C   0  0  0  0  0  0  0  0  0  0  0  0
   18.4975    2.6272   13.6653 N   0  0  0  0  0  0  0  0  0  0  0  0
   19.0569    2.9032   14.9991 C   0  0  0  0  0  0  0  0  0  0  0  0
   18.6299    4.2855   15.4808 C   0  0  0  0  0  0  0  0  0  0  0  0
   19.0900    5.3545   14.5202 C   0  0  0  0  0  0  0  0  0  0  0  0
   18.5929    6.7020   15.0072 C   0  0  0  0  0  0  0  0  0  0  0  0
   17.0956    6.8897   14.8048 C   0  0  0  0  0  0  0  0  0  0  0  0
   16.7173    6.7106   13.3471 C   0  0  0  0  0  0  0  0  0  0  0  0
   17.0510    5.2816   12.9804 C   0  0  0  0  0  0  0  0  0  0  0  0
   18.5503    5.0508   13.0750 C   0  0  0  0  0  0  0  0  0  0  0  0
   18.9272    3.6279   12.6952 C   0  0  0  0  0  0  0  0  0  0  0  0
   18.7068    1.9294   16.1163 C   0  0  0  0  0  0  0  0  0  0  0  0
   18.3074    2.3651   17.1966 O   0  0  0  0  0  0  0  0  0  0  0  0
   18.8909    0.6525   15.7777 N   0  0  0  0  0  0  0  0  0  0  0  0
   19.2607    0.4719   14.8833 H   0  0  0  0  0  0  0  0  0  0  0  0
   18.5921   -0.4924   16.6167 C   0  0  0  0  0  0  0  0  0  0  0  0
   19.1343   -1.6925   15.8853 C   0  0  0  0  0  0  0  0  0  0  0  0
   19.3230   -0.4087   17.9306 C   0  0  0  0  0  0  0  0  0  0  0  0
   17.0881   -0.6747   16.8301 C   0  0  0  0  0  0  0  0  0  0  0  0
   18.0745    1.4369    9.7788 C   0  0  0  0  0  0  0  0  0  0  0  0
   18.1269    1.0637    8.3171 C   0  0  0  0  0  0  0  0  0  0  0  0
   19.1373    1.5755    7.5101 C   0  0  0  0  0  0  0  0  0  0  0  0
   17.1834    0.1703    7.8119 C   0  0  0  0  0  0  0  0  0  0  0  0
   19.2009    1.1856    6.1763 C   0  0  0  0  0  0  0  0  0  0  0  0
   17.2604   -0.2075    6.4852 C   0  0  0  0  0  0  0  0  0  0  0  0
   18.2687    0.2963    5.6691 C   0  0  0  0  0  0  0  0  0  0  0  0
  8  7  2  0  0  0
  7 12  1  0  0  0
 11 12  2  0  0  0
 11 20  1  0  0  0
 12 13  1  0  0  0
 13 14  2  0  0  0
 14 19  1  0  0  0
 19 15  2  0  0  0
 19 20  1  0  0  0
 15 16  1  0  0  0
 16 17  2  0  0  0
 17 18  1  0  0  0
 18 20  2  0  0  0
  9  6  1  0  0  0
  6  2  1  0  0  0
  6 21  1  0  0  0
  2  3  2  0  0  0
 21 22  1  0  0  0
 22 23  2  0  0  0
 22 24  1  0  0  0
 27 28  1  0  0  0
 27  1  1  0  0  0
  1  4  1  0  0  0
  1 49  1  0  0  0
 49 50  1  0  0  0
 50 51  2  0  0  0
 50 52  1  0  0  0
 51 53  1  0  0  0
 52 54  2  0  0  0
 53 55  2  0  0  0
 54 55  1  0  0  0
 31 30  1  0  0  0
 31 32  1  0  0  0
 31 40  1  0  0  0
 32 41  1  0  0  0
 32 33  1  0  0  0
 41 42  2  0  0  0
 33 34  1  0  0  0
 34 35  1  0  0  0
 34 39  1  0  0  0
 35 36  1  0  0  0
 36 37  1  0  0  0
 37 38  1  0  0  0
 38 39  1  0  0  0
 39 40  1  0  0  0
 43 45  1  0  0  0
 45 46  1  0  0  0
 45 47  1  0  0  0
 45 48  1  0  0  0
  7  9  1  0  0  0
  2  4  1  0  0  0
 27 30  1  0  0  0
 41 43  1  0  0  0
  9 10  1  0  0  0
 24 25  1  0  0  0
 24 26  1  0  0  0
 28 29  1  0  0  0
  4  5  1  0  0  0
 43 44  1  0  0  0
M  END
> <minimizedAffinity>
-9.88586

$$$$
1HXB_ROC_A_100


 55 59  0  0  0  0  0  0  0  0999 V2000
   19.0468   -3.9224    7.6416 C   0  0  0  0  0  0  0  0  0  0  0  0
   18.6225   -2.9514    9.8113 C   0  0  0  0  0  0  0  0  0  0  0  0
   17.4341   -3.2807    9.7115 O   0  0  0  0  0  0  0  0  0  0  0  0
   19.4846   -3.2010    8.8254 N   0  0  0  0  0  0  0  0  0  0  0  0
   20.4180   -2.8966    8.8991 H   0  0  0  0  0  0  0  0  0  0  0  0
   19.2163   -2.2296   11.0100 C   0  0  0  0  0  0  0  0  0  0  0  0
   19.7044    0.0272   10.1890 C   0  0  0  0  0  0  0  0  0  0  0  0
   20.7065   -0.3221    9.5567 O   0  0  0  0  0  0  0  0  0  0  0  0
   18.9879   -0.8019   10.9517 N   0  0  0  0  0  0  0  0  0  0  0  0
   18.2663   -0.4220   11.5034 H   0  0  0  0  0  0  0  0  0  0  0  0
   18.7518    1.8138   11.4121 N   0  0  0  0  0  0  0  0  0  0  0  0
   19.1771    1.3224   10.2186 C   0  0  0  0  0  0  0  0  0  0  0  0
   19.0058    2.0904    9.0610 C   0  0  0  0  0  0  0  0  0  0  0  0
   18.3881    3.3384    9.1598 C   0  0  0  0  0  0  0  0  0  0  0  0
   17.3331    5.0341   10.5381 C   0  0  0  0  0  0  0  0  0  0  0  0
   16.9113    5.4558   11.8056 C   0  0  0  0  0  0  0  0  0  0  0  0
   17.1096    4.6552   12.9364 C   0  0  0  0  0  0  0  0  0  0  0  0
   17.7349    3.4188   12.8101 C   0  0  0  0  0  0  0  0  0  0  0  0
   17.9599    3.7958   10.4095 C   0  0  0  0  0  0  0  0  0  0  0  0
   18.1553    3.0029   11.5495 C   0  0  0  0  0  0  0  0  0  0  0  0
   18.6291   -2.7892   12.2702 C   0  0  0  0  0  0  0  0  0  0  0  0
   18.8035   -1.7421   13.3426 C   0  0  0  0  0  0  0  0  0  0  0  0
   17.9124   -0.9690   13.6579 O   0  0  0  0  0  0  0  0  0  0  0  0
   19.9060   -1.6643   14.0431 N   0  0  0  0  0  0  0  0  0  0  0  0
   20.6622   -2.2605   13.8387 H   0  0  0  0  0  0  0  0  0  0  0  0
   19.9792   -1.0095   14.7747 H   0  0  0  0  0  0  0  0  0  0  0  0
   19.2947   -5.4226    7.9030 C   0  0  0  0  0  0  0  0  0  0  0  0
   20.6848   -5.5733    8.1619 O   0  0  0  0  0  0  0  0  0  0  0  0
   21.1903   -5.3086    7.3775 H   0  0  0  0  0  0  0  0  0  0  0  0
   18.8657   -6.3866    6.7910 C   0  0  0  0  0  0  0  0  0  0  0  0
   17.4155   -6.5511    6.7210 N   0  0  0  0  0  0  0  0  0  0  0  0
   16.9807   -7.4392    5.6300 C   0  0  0  0  0  0  0  0  0  0  0  0
   15.4651   -7.6057    5.6499 C   0  0  0  0  0  0  0  0  0  0  0  0
   15.0055   -8.1792    6.9678 C   0  0  0  0  0  0  0  0  0  0  0  0
   13.4916   -8.2709    6.9644 C   0  0  0  0  0  0  0  0  0  0  0  0
   12.8154   -6.9132    7.0963 C   0  0  0  0  0  0  0  0  0  0  0  0
   13.2734   -6.1975    8.3525 C   0  0  0  0  0  0  0  0  0  0  0  0
   14.7585   -5.9540    8.2013 C   0  0  0  0  0  0  0  0  0  0  0  0
   15.5060   -7.2765    8.1538 C   0  0  0  0  0  0  0  0  0  0  0  0
   17.0066   -7.0720    8.0204 C   0  0  0  0  0  0  0  0  0  0  0  0
   17.3517   -7.0315    4.2104 C   0  0  0  0  0  0  0  0  0  0  0  0
   18.2058   -7.6743    3.5991 O   0  0  0  0  0  0  0  0  0  0  0  0
   16.6778   -5.9654    3.7764 N   0  0  0  0  0  0  0  0  0  0  0  0
   16.0568   -5.5364    4.4086 H   0  0  0  0  0  0  0  0  0  0  0  0
   16.7830   -5.3851    2.4512 C   0  0  0  0  0  0  0  0  0  0  0  0
   16.2188   -6.4124    1.5050 C   0  0  0  0  0  0  0  0  0  0  0  0
   15.9257   -4.1532    2.3278 C   0  0  0  0  0  0  0  0  0  0  0  0
   18.2336   -5.0916    2.0631 C   0  0  0  0  0  0  0  0  0  0  0  0
   19.8214   -3.3877    6.4263 C   0  0  0  0  0  0  0  0  0  0  0  0
   19.1252   -2.2081    5.7918 C   0  0  0  0  0  0  0  0  0  0  0  0
   18.3389   -2.3977    4.6605 C   0  0  0  0  0  0  0  0  0  0  0  0
   19.2465   -0.9515    6.3833 C   0  0  0  0  0  0  0  0  0  0  0  0
   17.6654   -1.3099    4.1144 C   0  0  0  0  0  0  0  0  0  0  0  0
   18.5709    0.1187    5.8293 C   0  0  0  0  0  0  0  0  0  0  0  0
   17.7793   -0.0599    4.6988 C   0  0  0  0  0  0  0  0  0  0  0  0
  8  7  2  0  0  0
  7 12  1  0  0  0
 11 12  2  0  0  0
 11 20  1  0  0  0
 12 13  1  0  0  0
 13 14  2  0  0  0
 14 19  1  0  0  0
 19 15  2  0  0  0
 19 20  1  0  0  0
 15 16  1  0  0  0
 16 17  2  0  0  0
 17 18  1  0  0  0
 18 20  2  0  0  0
  9  6  1  0  0  0
  6  2  1  0  0  0
  6 21  1  0  0  0
  2  3  2  0  0  0
 21 22  1  0  0  0
 22 23  2  0  0  0
 22 24  1  0  0  0
 27 28  1  0  0  0
 27  1  1  0  0  0
  1  4  1  0  0  0
  1 49  1  0  0  0
 49 50  1  0  0  0
 50 51  2  0  0  0
 50 52  1  0  0  0
 51 53  1  0  0  0
 52 54  2  0  0  0
 53 55  2  0  0  0
 54 55  1  0  0  0
 31 30  1  0  0  0
 31 32  1  0  0  0
 31 40  1  0  0  0
 32 41  1  0  0  0
 32 33  1  0  0  0
 41 42  2  0  0  0
 33 34  1  0  0  0
 34 35  1  0  0  0
 34 39  1  0  0  0
 35 36  1  0  0  0
 36 37  1  0  0  0
 37 38  1  0  0  0
 38 39  1  0  0  0
 39 40  1  0  0  0
 43 45  1  0  0  0
 45 46  1  0  0  0
 45 47  1  0  0  0
 45 48  1  0  0  0
  7  9  1  0  0  0
  2  4  1  0  0  0
 27 30  1  0  0  0
 41 43  1  0  0  0
  9 10  1  0  0  0
 24 25  1  0  0  0
 24 26  1  0  0  0
 28 29  1  0  0  0
  4  5  1  0  0  0
 43 44  1  0  0  0
M  END
> <minimizedAffinity>
-9.80430

$$$$
1HXB_ROC_A_100


 55 59  0  0  0  0  0  0  0  0999 V2000
   18.6370    2.7563   13.1270 C   0  0  0  0  0  0  0  0  0  0  0  0
   19.1417    0.4455   13.6130 C   0  0  0  0  0  0  0  0  0  0  0  0
   20.3374    0.6741   13.3924 O   0  0  0  0  0  0  0  0  0  0  0  0
   18.2272    1.4061   13.4776 N   0  0  0  0  0  0  0  0  0  0  0  0
   17.2741    1.2012   13.6151 H   0  0  0  0  0  0  0  0  0  0  0  0
   18.5875   -0.9088   14.0245 C   0  0  0  0  0  0  0  0  0  0  0  0
   17.9646   -2.1728   12.0195 C   0  0  0  0  0  0  0  0  0  0  0  0
   16.8442   -1.6596   11.9344 O   0  0  0  0  0  0  0  0  0  0  0  0
   18.8180   -1.9192   13.0145 N   0  0  0  0  0  0  0  0  0  0  0  0
   19.6475   -2.4471   13.0636 H   0  0  0  0  0  0  0  0  0  0  0  0
   18.6517   -2.7070    9.8200 N   0  0  0  0  0  0  0  0  0  0  0  0
   18.5040   -3.0930   11.1146 C   0  0  0  0  0  0  0  0  0  0  0  0
   18.8219   -4.4065   11.4787 C   0  0  0  0  0  0  0  0  0  0  0  0
   19.2702   -5.2930   10.4979 C   0  0  0  0  0  0  0  0  0  0  0  0
   19.8345   -5.7144    8.1758 C   0  0  0  0  0  0  0  0  0  0  0  0
   19.9423   -5.2367    6.8633 C   0  0  0  0  0  0  0  0  0  0  0  0
   19.6182   -3.9121    6.5477 C   0  0  0  0  0  0  0  0  0  0  0  0
   19.1810   -3.0480    7.5466 C   0  0  0  0  0  0  0  0  0  0  0  0
   19.3969   -4.8501    9.1780 C   0  0  0  0  0  0  0  0  0  0  0  0
   19.0770   -3.5246    8.8507 C   0  0  0  0  0  0  0  0  0  0  0  0
   19.2122   -1.3306   15.3199 C   0  0  0  0  0  0  0  0  0  0  0  0
   18.5596   -0.5180   16.4110 C   0  0  0  0  0  0  0  0  0  0  0  0
   17.5091    0.0822   16.2451 O   0  0  0  0  0  0  0  0  0  0  0  0
   19.0573   -0.4811   17.6206 N   0  0  0  0  0  0  0  0  0  0  0  0
   19.9024   -0.9453   17.8195 H   0  0  0  0  0  0  0  0  0  0  0  0
   18.5867    0.0108   18.3318 H   0  0  0  0  0  0  0  0  0  0  0  0
   18.4950    3.6211   14.3967 C   0  0  0  0  0  0  0  0  0  0  0  0
   17.4302    3.0661   15.1585 O   0  0  0  0  0  0  0  0  0  0  0  0
   16.6054    3.1240   14.6512 H   0  0  0  0  0  0  0  0  0  0  0  0
   18.2507    5.1182   14.1759 C   0  0  0  0  0  0  0  0  0  0  0  0
   17.0514    5.5968   14.8598 N   0  0  0  0  0  0  0  0  0  0  0  0
   17.3421    6.3324   16.1018 C   0  0  0  0  0  0  0  0  0  0  0  0
   16.0518    6.8455   16.7320 C   0  0  0  0  0  0  0  0  0  0  0  0
   15.3137    7.7541   15.7798 C   0  0  0  0  0  0  0  0  0  0  0  0
   14.0121    8.1908   16.4241 C   0  0  0  0  0  0  0  0  0  0  0  0
   12.9740    7.0783   16.4760 C   0  0  0  0  0  0  0  0  0  0  0  0
   12.6910    6.5338   15.0891 C   0  0  0  0  0  0  0  0  0  0  0  0
   13.9821    5.9289   14.5841 C   0  0  0  0  0  0  0  0  0  0  0  0
   15.0406    7.0077   14.4232 C   0  0  0  0  0  0  0  0  0  0  0  0
   16.3497    6.4400   13.8988 C   0  0  0  0  0  0  0  0  0  0  0  0
   18.0890    5.5827   17.1968 C   0  0  0  0  0  0  0  0  0  0  0  0
   19.2266    5.9380   17.5066 O   0  0  0  0  0  0  0  0  0  0  0  0
   17.3891    4.5714   17.7131 N   0  0  0  0  0  0  0  0  0  0  0  0
   16.5042    4.3894   17.3219 H   0  0  0  0  0  0  0  0  0  0  0  0
   17.8223    3.7174   18.8027 C   0  0  0  0  0  0  0  0  0  0  0  0
   18.0132    4.6266   19.9885 C   0  0  0  0  0  0  0  0  0  0  0  0
   16.7518    2.7258   19.1745 C   0  0  0  0  0  0  0  0  0  0  0  0
   19.1456    3.0144   18.4939 C   0  0  0  0  0  0  0  0  0  0  0  0
   17.7616    3.2484   11.9632 C   0  0  0  0  0  0  0  0  0  0  0  0
   18.0380    2.4844   10.6909 C   0  0  0  0  0  0  0  0  0  0  0  0
   19.0095    2.9431    9.8079 C   0  0  0  0  0  0  0  0  0  0  0  0
   17.3431    1.3006   10.4471 C   0  0  0  0  0  0  0  0  0  0  0  0
   19.2867    2.2035    8.6629 C   0  0  0  0  0  0  0  0  0  0  0  0
   17.6303    0.5772    9.3057 C   0  0  0  0  0  0  0  0  0  0  0  0
   18.6022    1.0255    8.4163 C   0  0  0  0  0  0  0  0  0  0  0  0
  8  7  2  0  0  0
  7 12  1  0  0  0
 11 12  2  0  0  0
 11 20  1  0  0  0
 12 13  1  0  0  0
 13 14  2  0  0  0
 14 19  1  0  0  0
 19 15  2  0  0  0
 19 20  1  0  0  0
 15 16  1  0  0  0
 16 17  2  0  0  0
 17 18  1  0  0  0
 18 20  2  0  0  0
  9  6  1  0  0  0
  6  2  1  0  0  0
  6 21  1  0  0  0
  2  3  2  0  0  0
 21 22  1  0  0  0
 22 23  2  0  0  0
 22 24  1  0  0  0
 27 28  1  0  0  0
 27  1  1  0  0  0
  1  4  1  0  0  0
  1 49  1  0  0  0
 49 50  1  0  0  0
 50 51  2  0  0  0
 50 52  1  0  0  0
 51 53  1  0  0  0
 52 54  2  0  0  0
 53 55  2  0  0  0
 54 55  1  0  0  0
 31 30  1  0  0  0
 31 32  1  0  0  0
 31 40  1  0  0  0
 32 41  1  0  0  0
 32 33  1  0  0  0
 41 42  2  0  0  0
 33 34  1  0  0  0
 34 35  1  0  0  0
 34 39  1  0  0  0
 35 36  1  0  0  0
 36 37  1  0  0  0
 37 38  1  0  0  0
 38 39  1  0  0  0
 39 40  1  0  0  0
 43 45  1  0  0  0
 45 46  1  0  0  0
 45 47  1  0  0  0
 45 48  1  0  0  0
  7  9  1  0  0  0
  2  4  1  0  0  0
 27 30  1  0  0  0
 41 43  1  0  0  0
  9 10  1  0  0  0
 24 25  1  0  0  0
 24 26  1  0  0  0
 28 29  1  0  0  0
  4  5  1  0  0  0
 43 44  1  0  0  0
M  END
> <minimizedAffinity>
-9.62482

$$$$
1HXB_ROC_A_100


 55 59  0  0  0  0  0  0  0  0999 V2000
   18.1167   -5.5744    8.2299 C   0  0  0  0  0  0  0  0  0  0  0  0
   18.9316   -3.6509    7.0187 C   0  0  0  0  0  0  0  0  0  0  0  0
   19.9880   -4.2552    6.7962 O   0  0  0  0  0  0  0  0  0  0  0  0
   17.9637   -4.2130    7.7431 N   0  0  0  0  0  0  0  0  0  0  0  0
   17.1452   -3.7060    7.9486 H   0  0  0  0  0  0  0  0  0  0  0  0
   18.6293   -2.2421    6.5345 C   0  0  0  0  0  0  0  0  0  0  0  0
   17.9832   -0.3365    7.9333 C   0  0  0  0  0  0  0  0  0  0  0  0
   16.9012   -0.1682    7.3616 O   0  0  0  0  0  0  0  0  0  0  0  0
   18.8810   -1.2507    7.5581 N   0  0  0  0  0  0  0  0  0  0  0  0
   19.7602   -1.2504    8.0010 H   0  0  0  0  0  0  0  0  0  0  0  0
   17.9365    1.6442    9.2256 N   0  0  0  0  0  0  0  0  0  0  0  0
   18.4394    0.3964    9.0340 C   0  0  0  0  0  0  0  0  0  0  0  0
   19.4399   -0.0783    9.8900 C   0  0  0  0  0  0  0  0  0  0  0  0
   19.9070    0.7494   10.9126 C   0  0  0  0  0  0  0  0  0  0  0  0
   19.8153    2.8802   12.0698 C   0  0  0  0  0  0  0  0  0  0  0  0
   19.2519    4.1576   12.1852 C   0  0  0  0  0  0  0  0  0  0  0  0
   18.2486    4.5866   11.3086 C   0  0  0  0  0  0  0  0  0  0  0  0
   17.7966    3.7381   10.3030 C   0  0  0  0  0  0  0  0  0  0  0  0
   19.3636    2.0286   11.0630 C   0  0  0  0  0  0  0  0  0  0  0  0
   18.3565    2.4681   10.1918 C   0  0  0  0  0  0  0  0  0  0  0  0
   19.4564   -1.9437    5.3209 C   0  0  0  0  0  0  0  0  0  0  0  0
   18.6499   -1.0070    4.4553 C   0  0  0  0  0  0  0  0  0  0  0  0
   18.9781    0.1526    4.2581 O   0  0  0  0  0  0  0  0  0  0  0  0
   17.5906   -1.4220    3.8090 N   0  0  0  0  0  0  0  0  0  0  0  0
   17.2743   -2.3471    3.9249 H   0  0  0  0  0  0  0  0  0  0  0  0
   17.1099   -0.8092    3.2068 H   0  0  0  0  0  0  0  0  0  0  0  0
   17.3933   -6.5009    7.2305 C   0  0  0  0  0  0  0  0  0  0  0  0
   18.3934   -7.0685    6.3940 O   0  0  0  0  0  0  0  0  0  0  0  0
   18.8372   -6.3638    5.8967 H   0  0  0  0  0  0  0  0  0  0  0  0
   16.3024   -5.8533    6.3700 C   0  0  0  0  0  0  0  0  0  0  0  0
   15.0798   -6.6519    6.3213 N   0  0  0  0  0  0  0  0  0  0  0  0
   14.8319   -7.2601    5.0034 C   0  0  0  0  0  0  0  0  0  0  0  0
   13.5723   -8.1186    5.0407 C   0  0  0  0  0  0  0  0  0  0  0  0
   13.6978   -9.2110    6.0742 C   0  0  0  0  0  0  0  0  0  0  0  0
   12.4030   -9.9996    6.1176 C   0  0  0  0  0  0  0  0  0  0  0  0
   11.2652   -9.2348    6.7797 C   0  0  0  0  0  0  0  0  0  0  0  0
   11.6423   -8.8087    8.1856 C   0  0  0  0  0  0  0  0  0  0  0  0
   12.8140   -7.8609    8.0566 C   0  0  0  0  0  0  0  0  0  0  0  0
   14.0182   -8.5886    7.4820 C   0  0  0  0  0  0  0  0  0  0  0  0
   15.2237   -7.6713    7.3544 C   0  0  0  0  0  0  0  0  0  0  0  0
   14.6759   -6.3158    3.8189 C   0  0  0  0  0  0  0  0  0  0  0  0
   13.7274   -5.5310    3.7907 O   0  0  0  0  0  0  0  0  0  0  0  0
   15.6310   -6.4631    2.8996 N   0  0  0  0  0  0  0  0  0  0  0  0
   16.2980   -7.1711    3.0518 H   0  0  0  0  0  0  0  0  0  0  0  0
   15.7694   -5.6676    1.6945 C   0  0  0  0  0  0  0  0  0  0  0  0
   17.0045   -6.1806    1.0013 C   0  0  0  0  0  0  0  0  0  0  0  0
   14.6117   -5.8937    0.7584 C   0  0  0  0  0  0  0  0  0  0  0  0
   15.9506   -4.1800    2.0025 C   0  0  0  0  0  0  0  0  0  0  0  0
   17.5384   -5.6553    9.6518 C   0  0  0  0  0  0  0  0  0  0  0  0
   18.2157   -4.6849   10.5891 C   0  0  0  0  0  0  0  0  0  0  0  0
   19.5964   -4.7299   10.7493 C   0  0  0  0  0  0  0  0  0  0  0  0
   17.4447   -3.7256   11.2440 C   0  0  0  0  0  0  0  0  0  0  0  0
   20.2120   -3.7991   11.5797 C   0  0  0  0  0  0  0  0  0  0  0  0
   18.0711   -2.8078   12.0649 C   0  0  0  0  0  0  0  0  0  0  0  0
   19.4524   -2.8419   12.2306 C   0  0  0  0  0  0  0  0  0  0  0  0
  8  7  2  0  0  0
  7 12  1  0  0  0
 11 12  2  0  0  0
 11 20  1  0  0  0
 12 13  1  0  0  0
 13 14  2  0  0  0
 14 19  1  0  0  0
 19 15  2  0  0  0
 19 20  1  0  0  0
 15 16  1  0  0  0
 16 17  2  0  0  0
 17 18  1  0  0  0
 18 20  2  0  0  0
  9  6  1  0  0  0
  6  2  1  0  0  0
  6 21  1  0  0  0
  2  3  2  0  0  0
 21 22  1  0  0  0
 22 23  2  0  0  0
 22 24  1  0  0  0
 27 28  1  0  0  0
 27  1  1  0  0  0
  1  4  1  0  0  0
  1 49  1  0  0  0
 49 50  1  0  0  0
 50 51  2  0  0  0
 50 52  1  0  0  0
 51 53  1  0  0  0
 52 54  2  0  0  0
 53 55  2  0  0  0
 54 55  1  0  0  0
 31 30  1  0  0  0
 31 32  1  0  0  0
 31 40  1  0  0  0
 32 41  1  0  0  0
 32 33  1  0  0  0
 41 42  2  0  0  0
 33 34  1  0  0  0
 34 35  1  0  0  0
 34 39  1  0  0  0
 35 36  1  0  0  0
 36 37  1  0  0  0
 37 38  1  0  0  0
 38 39  1  0  0  0
 39 40  1  0  0  0
 43 45  1  0  0  0
 45 46  1  0  0  0
 45 47  1  0  0  0
 45 48  1  0  0  0
  7  9  1  0  0  0
  2  4  1  0  0  0
 27 30  1  0  0  0
 41 43  1  0  0  0
  9 10  1  0  0  0
 24 25  1  0  0  0
 24 26  1  0  0  0
 28 29  1  0  0  0
  4  5  1  0  0  0
 43 44  1  0  0  0
M  END
> <minimizedAffinity>
-9.58446

$$$$
