1HXB_ROC_A_100
  RCSB PDB12061702473D
Coordinates from PDB:1HXB:A:100 Model:1 without hydrogens
 49 53  0  0  0  0            999 V2000
   19.0260   -3.5990    6.5160   C 0  0  0  0  0  0  0  0  0  0  0  0
   20.1680   -3.4210    6.0800   O 0  0  0  0  0  0  0  0  0  0  0  0
   17.0310   -4.8170    6.8790   N 0  0  0  0  0  0  0  0  0  0  0  0
   18.3400   -4.8180    6.5140   C 0  0  0  0  0  0  0  0  0  0  0  0
   18.9700   -6.0340    6.2250   C 0  0  0  0  0  0  0  0  0  0  0  0
   18.2400   -7.2190    6.3330   C 0  0  0  0  0  0  0  0  0  0  0  0
   16.1460   -8.3330    6.8450   C 0  0  0  0  0  0  0  0  0  0  0  0
   14.8060   -8.2410    7.2430   C 0  0  0  0  0  0  0  0  0  0  0  0
   14.2170   -7.0010    7.5160   C 0  0  0  0  0  0  0  0  0  0  0  0
   14.9660   -5.8350    7.3930   C 0  0  0  0  0  0  0  0  0  0  0  0
   16.8980   -7.1660    6.7210   C 0  0  0  0  0  0  0  0  0  0  0  0
   16.2970   -5.9290    6.9950   C 0  0  0  0  0  0  0  0  0  0  0  0
   18.2790   -2.6270    7.0450   N 0  0  0  0  0  0  0  0  0  0  0  0
   18.7730   -1.2910    7.3000   C 0  0  0  0  0  0  0  0  0  0  0  0
   18.6260   -0.8980    8.7610   C 0  0  0  0  0  0  0  0  0  0  0  0
   17.7090   -0.1980    9.2080   O 0  0  0  0  0  0  0  0  0  0  0  0
   18.0410   -0.3040    6.4420   C 0  0  0  0  0  0  0  0  0  0  0  0
   18.4490   -0.5710    5.0140   C 0  0  0  0  0  0  0  0  0  0  0  0
   19.6160   -0.6910    4.6750   O 0  0  0  0  0  0  0  0  0  0  0  0
   17.5560   -0.7630    4.0770   N 0  0  0  0  0  0  0  0  0  0  0  0
   20.5870    0.0830   11.1880   C 0  0  0  0  0  0  0  0  0  0  0  0
   21.8770   -0.5100   11.1080   O 0  0  0  0  0  0  0  0  0  0  0  0
   19.5590   -1.0490   10.9830   C 0  0  0  0  0  0  0  0  0  0  0  0
   19.5670   -1.3870    9.5690   N 0  0  0  0  0  0  0  0  0  0  0  0
   19.8880   -2.3140   11.7920   C 0  0  0  0  0  0  0  0  0  0  0  0
   19.0890   -3.5050   11.3210   C 0  0  0  0  0  0  0  0  0  0  0  0
   17.7280   -3.5760   11.5980   C 0  0  0  0  0  0  0  0  0  0  0  0
   19.7250   -4.4940   10.5720   C 0  0  0  0  0  0  0  0  0  0  0  0
   16.9950   -4.6560   11.1170   C 0  0  0  0  0  0  0  0  0  0  0  0
   18.9830   -5.5600   10.1010   C 0  0  0  0  0  0  0  0  0  0  0  0
   17.6200   -5.6400   10.3700   C 0  0  0  0  0  0  0  0  0  0  0  0
   19.4210    1.9070   12.4190   N 0  0  0  0  0  0  0  0  0  0  0  0
   20.4640    0.8860   12.4880   C 0  0  0  0  0  0  0  0  0  0  0  0
   18.8880    2.2870   13.7380   C 0  0  0  0  0  0  0  0  0  0  0  0
   18.2420    1.1880   14.5710   C 0  0  0  0  0  0  0  0  0  0  0  0
   17.3660    0.4830   14.0690   O 0  0  0  0  0  0  0  0  0  0  0  0
   17.8450    3.3900   13.5940   C 0  0  0  0  0  0  0  0  0  0  0  0
   18.4400    4.6080   12.9310   C 0  0  0  0  0  0  0  0  0  0  0  0
   17.3550    5.6530   12.7550   C 0  0  0  0  0  0  0  0  0  0  0  0
   16.3630    5.2980   11.6560   C 0  0  0  0  0  0  0  0  0  0  0  0
   17.0720    5.0810   10.3330   C 0  0  0  0  0  0  0  0  0  0  0  0
   17.9910    3.8940   10.5180   C 0  0  0  0  0  0  0  0  0  0  0  0
   19.0660    4.2160   11.5430   C 0  0  0  0  0  0  0  0  0  0  0  0
   20.0220    3.0510   11.7430   C 0  0  0  0  0  0  0  0  0  0  0  0
   18.7210    1.1200   15.8140   N 0  0  0  0  0  0  0  0  0  0  0  0
   18.3340    0.1420   16.8130   C 0  0  0  0  0  0  0  0  0  0  0  0
   19.1540    0.4560   18.0370   C 0  0  0  0  0  0  0  0  0  0  0  0
   16.8870    0.3020   17.1980   C 0  0  0  0  0  0  0  0  0  0  0  0
   18.6330   -1.2900   16.3650   C 0  0  0  0  0  0  0  0  0  0  0  0
  2  1  2  0  0  0  0
  1  4  1  0  0  0  0
  3  4  2  0  0  0  0
  3 12  1  0  0  0  0
  4  5  1  0  0  0  0
  5  6  2  0  0  0  0
  6 11  1  0  0  0  0
 11  7  2  0  0  0  0
 11 12  1  0  0  0  0
  7  8  1  0  0  0  0
  8  9  2  0  0  0  0
  9 10  1  0  0  0  0
 10 12  2  0  0  0  0
 13 14  1  0  0  0  0
 14 15  1  0  0  0  0
 14 17  1  0  0  0  0
 15 16  2  0  0  0  0
 17 18  1  0  0  0  0
 18 19  2  0  0  0  0
 18 20  1  0  0  0  0
 21 22  1  0  0  0  0
 21 23  1  0  0  0  0
 23 24  1  0  0  0  0
 23 25  1  0  0  0  0
 25 26  1  0  0  0  0
 26 27  2  0  0  0  0
 26 28  1  0  0  0  0
 27 29  1  0  0  0  0
 28 30  2  0  0  0  0
 29 31  2  0  0  0  0
 30 31  1  0  0  0  0
 32 33  1  0  0  0  0
 32 34  1  0  0  0  0
 32 44  1  0  0  0  0
 34 35  1  0  0  0  0
 34 37  1  0  0  0  0
 35 36  2  0  0  0  0
 37 38  1  0  0  0  0
 38 39  1  0  0  0  0
 38 43  1  0  0  0  0
 39 40  1  0  0  0  0
 40 41  1  0  0  0  0
 41 42  1  0  0  0  0
 42 43  1  0  0  0  0
 43 44  1  0  0  0  0
 45 46  1  0  0  0  0
 46 47  1  0  0  0  0
 46 48  1  0  0  0  0
 46 49  1  0  0  0  0
  1 13  1  0  0  0  0
 15 24  1  0  0  0  0
 21 33  1  0  0  0  0
 35 45  1  0  0  0  0
A    1
C
A    2
O
A    3
N1
A    4
C2
A    5
C3
A    6
C4
A    7
C5
A    8
C6
A    9
C7
A   10
C8
A   11
C4A
A   12
C8A
A   13
N
A   14
CA
A   15
C1
A   16
O1
A   17
CB
A   18
CG
A   19
OD1
A   20
ND2
A   21
C9
A   22
O2
A   23
CA1
A   24
N2
A   25
CB1
A   26
CG1
A   27
CD1
A   28
CD2
A   29
CE1
A   30
CE2
A   31
CZ
A   32
N11
A   33
CM
A   34
C21
A   35
CC
A   36
O3
A   37
C31
A   38
C3A
A   39
C41
A   40
C51
A   41
C61
A   42
C71
A   43
C7A
A   44
C81
A   45
N3
A   46
CD
A   47
C11
A   48
C22
A   49
C32
M  END
>  <InstanceId>
1HXB_ROC_A_100

>  <ChemCompId>
ROC

>  <PdbId>
1HXB

>  <ChainId>
A

>  <ResidueNumber>
100

>  <InsertionCode>


>  <Model>
1

>  <AltIds>


>  <MissingHeavyAtoms>
0

>  <ObservedFormula>
C38 N6 O5

>  <Name>
(2S)-N-[(2S,3R)-4-[(2S,3S,4aS,8aS)-3-(tert-butylcarbamoyl)-3,4,4a,5,6,7,8,8a-octahydro-1H-isoquinolin-2-yl]-3-hydroxy-1-phenyl-butan-2-yl]-2-(quinolin-2-ylcarbonylamino)butanediamide

>  <SystematicName>
(2S)-N-[(2S,3R)-4-[(2S,3S,4aS,8aS)-3-(tert-butylcarbamoyl)-3,4,4a,5,6,7,8,8a-octahydro-1H-isoquinolin-2-yl]-3-hydroxy-1-phenyl-butan-2-yl]-2-(quinolin-2-ylcarbonylamino)butanediamide

>  <Synonyms>
Fortovase; SAQUINAVIR,RO 31-8959

>  <Type>
peptide-like

>  <Formula>
C38 H50 N6 O5

>  <MolecularWeight>
670.841

>  <ModifiedDate>
2011-11-17

>  <Parent>


>  <OneLetterCode>


>  <SubcomponentList>
QNC ASN HP0 NTB

>  <AmbiguousFlag>
N

>  <InChI>
InChI=1S/C38H50N6O5/c1-38(2,3)43-37(49)32-20-26-14-7-8-15-27(26)22-44(32)23-33(45)30(19-24-11-5-4-6-12-24)41-36(48)31(21-34(39)46)42-35(47)29-18-17-25-13-9-10-16-28(25)40-29/h4-6,9-13,16-18,26-27,30-33,45H,7-8,14-15,19-23H2,1-3H3,(H2,39,46)(H,41,48)(H,42,47)(H,43,49)/t26-,27+,30-,31-,32-,33+/m0/s1

>  <InChIKey>
QWAXKHKRTORLEM-UGJKXSETSA-N

>  <SMILES>
CC(C)(C)NC(=O)[C@@H]1C[C@@H]2CCCC[C@@H]2C[N@]1C[C@H]([C@H](Cc3ccccc3)NC(=O)[C@H](CC(=O)N)NC(=O)c4ccc5ccccc5n4)O

$$$$
