4HT2_V50_A_302


 25 26  0  0  0  0  0  0  0  0999 V2000
   -5.3150   16.2002   -1.9624 F   0  0  0  0  0  0  0  0  0  0  0  0
   -4.2857   16.0785   -1.1545 C   0  0  0  0  0  0  0  0  0  0  0  0
   -2.9329   16.2410   -1.5821 C   0  0  0  0  0  0  0  0  0  0  0  0
   -1.8856   16.0279   -0.6345 C   0  0  0  0  0  0  0  0  0  0  0  0
   -0.5927   16.2235   -0.9715 F   0  0  0  0  0  0  0  0  0  0  0  0
   -2.1723   15.7667    0.7270 C   0  0  0  0  0  0  0  0  0  0  0  0
   -1.1872   15.6738    1.6151 F   0  0  0  0  0  0  0  0  0  0  0  0
   -4.5011   15.7330    0.1641 C   0  0  0  0  0  0  0  0  0  0  0  0
   -5.7783   15.5175    0.4445 F   0  0  0  0  0  0  0  0  0  0  0  0
   -3.4846   15.5270    1.1093 C   0  0  0  0  0  0  0  0  0  0  0  0
   -2.3661   16.4113   -3.2581 S   0  0  0  0  0  0  0  0  0  0  0  0
   -1.7175   15.1288   -3.4815 O   0  0  0  0  0  0  0  0  0  0  0  0
   -3.6161   16.5513   -4.2142 N   0  0  0  0  0  0  0  0  0  0  0  0
   -1.6417   17.6669   -3.2719 O   0  0  0  0  0  0  0  0  0  0  0  0
   -4.0676   17.4518   -4.0541 H   0  0  0  0  0  0  0  0  0  0  0  0
   -4.2781   15.7998   -4.0206 H   0  0  0  0  0  0  0  0  0  0  0  0
   -3.9209   14.9240    2.6845 S   0  0  0  0  0  0  0  0  0  0  0  0
   -4.2968   13.2442    2.5354 C   0  0  0  0  0  0  0  0  0  0  0  0
   -5.5353   12.7571    2.6089 N   0  0  0  0  0  0  0  0  0  0  0  0
   -5.6292   11.4199    2.4337 C   0  0  0  0  0  0  0  0  0  0  0  0
   -7.0620   10.9288    2.4869 C   0  0  0  0  0  0  0  0  0  0  0  0
   -4.5731   10.5434    2.2477 C   0  0  0  0  0  0  0  0  0  0  0  0
   -3.3276   11.2135    2.2224 C   0  0  0  0  0  0  0  0  0  0  0  0
   -3.1560   12.5528    2.3587 N   0  0  0  0  0  0  0  0  0  0  0  0
   -2.0211   10.4344    2.0290 C   0  0  0  0  0  0  0  0  0  0  0  0
 21 20  1  0  0  0
 20 19  2  0  0  0
 20 22  1  0  0  0
 19 18  1  0  0  0
 22 23  2  0  0  0
 17 18  1  0  0  0
 17 10  1  0  0  0
 18 24  2  0  0  0
  7  6  1  0  0  0
 23 24  1  0  0  0
 23 25  1  0  0  0
  6 10  2  0  0  0
  6  4  1  0  0  0
 10  8  1  0  0  0
  9  8  1  0  0  0
  8  2  2  0  0  0
  4  5  1  0  0  0
  4  3  2  0  0  0
  2  3  1  0  0  0
  2  1  1  0  0  0
  3 11  1  0  0  0
 13 11  1  0  0  0
 14 11  2  0  0  0
 11 12  2  0  0  0
 13 15  1  0  0  0
 13 16  1  0  0  0
M  END
> <minimizedAffinity>
-0.09591

$$$$
4HT2_V50_A_302


 25 26  0  0  0  0  0  0  0  0999 V2000
    1.2870   10.8677   -1.7198 F   0  0  0  0  0  0  0  0  0  0  0  0
   -0.0194   10.7894   -1.6012 C   0  0  0  0  0  0  0  0  0  0  0  0
   -0.9155   10.9563   -2.7005 C   0  0  0  0  0  0  0  0  0  0  0  0
   -2.3210   10.9109   -2.4505 C   0  0  0  0  0  0  0  0  0  0  0  0
   -3.2106   11.0062   -3.4619 F   0  0  0  0  0  0  0  0  0  0  0  0
   -2.8262   10.6008   -1.1648 C   0  0  0  0  0  0  0  0  0  0  0  0
   -4.1343   10.4604   -0.9729 F   0  0  0  0  0  0  0  0  0  0  0  0
   -0.5716   10.5810   -0.3538 C   0  0  0  0  0  0  0  0  0  0  0  0
    0.3322   10.5272    0.6140 F   0  0  0  0  0  0  0  0  0  0  0  0
   -1.9492   10.5265   -0.0920 C   0  0  0  0  0  0  0  0  0  0  0  0
   -0.4910   11.5012   -4.3382 S   0  0  0  0  0  0  0  0  0  0  0  0
   -1.0722   12.8342   -4.3651 O   0  0  0  0  0  0  0  0  0  0  0  0
    1.0812   11.6016   -4.4578 N   0  0  0  0  0  0  0  0  0  0  0  0
   -0.9446   10.4327   -5.2067 O   0  0  0  0  0  0  0  0  0  0  0  0
    1.4842   10.6648   -4.4385 H   0  0  0  0  0  0  0  0  0  0  0  0
    1.4476   12.1455   -3.6766 H   0  0  0  0  0  0  0  0  0  0  0  0
   -2.4796   10.4319    1.5648 S   0  0  0  0  0  0  0  0  0  0  0  0
   -3.2747   11.9132    1.9634 C   0  0  0  0  0  0  0  0  0  0  0  0
   -4.5931   12.0208    2.1269 N   0  0  0  0  0  0  0  0  0  0  0  0
   -5.0223   13.2559    2.4703 C   0  0  0  0  0  0  0  0  0  0  0  0
   -6.5220   13.3091    2.6821 C   0  0  0  0  0  0  0  0  0  0  0  0
   -4.2347   14.3873    2.6044 C   0  0  0  0  0  0  0  0  0  0  0  0
   -2.8672   14.1107    2.3709 C   0  0  0  0  0  0  0  0  0  0  0  0
   -2.3573   12.8934    2.0544 N   0  0  0  0  0  0  0  0  0  0  0  0
   -1.8147   15.2219    2.4648 C   0  0  0  0  0  0  0  0  0  0  0  0
 21 20  1  0  0  0
 20 19  2  0  0  0
 20 22  1  0  0  0
 19 18  1  0  0  0
 22 23  2  0  0  0
 17 18  1  0  0  0
 17 10  1  0  0  0
 18 24  2  0  0  0
  7  6  1  0  0  0
 23 24  1  0  0  0
 23 25  1  0  0  0
  6 10  2  0  0  0
  6  4  1  0  0  0
 10  8  1  0  0  0
  9  8  1  0  0  0
  8  2  2  0  0  0
  4  5  1  0  0  0
  4  3  2  0  0  0
  2  3  1  0  0  0
  2  1  1  0  0  0
  3 11  1  0  0  0
 13 11  1  0  0  0
 14 11  2  0  0  0
 11 12  2  0  0  0
 13 15  1  0  0  0
 13 16  1  0  0  0
M  END
> <minimizedAffinity>
-0.09523

$$$$
4HT2_V50_A_302


 25 26  0  0  0  0  0  0  0  0999 V2000
   -4.3781   15.7245   -2.7249 F   0  0  0  0  0  0  0  0  0  0  0  0
   -4.8388   14.6375   -2.1478 C   0  0  0  0  0  0  0  0  0  0  0  0
   -5.9382   14.6424   -1.2363 C   0  0  0  0  0  0  0  0  0  0  0  0
   -6.3206   13.4124   -0.6191 C   0  0  0  0  0  0  0  0  0  0  0  0
   -7.3877   13.3508    0.2061 F   0  0  0  0  0  0  0  0  0  0  0  0
   -5.7011   12.1905   -0.9763 C   0  0  0  0  0  0  0  0  0  0  0  0
   -6.1389   11.0420   -0.4693 F   0  0  0  0  0  0  0  0  0  0  0  0
   -4.2140   13.4307   -2.3876 C   0  0  0  0  0  0  0  0  0  0  0  0
   -3.1530   13.5403   -3.1741 F   0  0  0  0  0  0  0  0  0  0  0  0
   -4.5813   12.2126   -1.7955 C   0  0  0  0  0  0  0  0  0  0  0  0
   -6.7351   16.0740   -0.5474 S   0  0  0  0  0  0  0  0  0  0  0  0
   -6.2854   16.0248    0.8350 O   0  0  0  0  0  0  0  0  0  0  0  0
   -6.1649   17.3700   -1.2485 N   0  0  0  0  0  0  0  0  0  0  0  0
   -8.1282   15.9311   -0.9221 O   0  0  0  0  0  0  0  0  0  0  0  0
   -6.4827   17.4002   -2.2173 H   0  0  0  0  0  0  0  0  0  0  0  0
   -5.1454   17.3484   -1.2257 H   0  0  0  0  0  0  0  0  0  0  0  0
   -3.5777   10.8156   -2.0717 S   0  0  0  0  0  0  0  0  0  0  0  0
   -2.2088   10.9172   -1.0222 C   0  0  0  0  0  0  0  0  0  0  0  0
   -0.9691   11.1560   -1.4495 N   0  0  0  0  0  0  0  0  0  0  0  0
   -0.0381   11.2326   -0.4723 C   0  0  0  0  0  0  0  0  0  0  0  0
    1.3429   11.5457   -1.0122 C   0  0  0  0  0  0  0  0  0  0  0  0
   -0.2550   11.0333    0.8811 C   0  0  0  0  0  0  0  0  0  0  0  0
   -1.6140   10.7624    1.1649 C   0  0  0  0  0  0  0  0  0  0  0  0
   -2.6092   10.7012    0.2441 N   0  0  0  0  0  0  0  0  0  0  0  0
   -2.0796   10.5076    2.6035 C   0  0  0  0  0  0  0  0  0  0  0  0
 21 20  1  0  0  0
 20 19  2  0  0  0
 20 22  1  0  0  0
 19 18  1  0  0  0
 22 23  2  0  0  0
 17 18  1  0  0  0
 17 10  1  0  0  0
 18 24  2  0  0  0
  7  6  1  0  0  0
 23 24  1  0  0  0
 23 25  1  0  0  0
  6 10  2  0  0  0
  6  4  1  0  0  0
 10  8  1  0  0  0
  9  8  1  0  0  0
  8  2  2  0  0  0
  4  5  1  0  0  0
  4  3  2  0  0  0
  2  3  1  0  0  0
  2  1  1  0  0  0
  3 11  1  0  0  0
 13 11  1  0  0  0
 14 11  2  0  0  0
 11 12  2  0  0  0
 13 15  1  0  0  0
 13 16  1  0  0  0
M  END
> <minimizedAffinity>
-0.07297

$$$$
4HT2_V50_A_302


 25 26  0  0  0  0  0  0  0  0999 V2000
   -8.9930   13.7658   -2.2464 F   0  0  0  0  0  0  0  0  0  0  0  0
   -8.5512   12.9989   -1.2751 C   0  0  0  0  0  0  0  0  0  0  0  0
   -9.0823   13.0320    0.0502 C   0  0  0  0  0  0  0  0  0  0  0  0
   -8.4886   12.1980    1.0462 C   0  0  0  0  0  0  0  0  0  0  0  0
   -8.9880   12.1488    2.2998 F   0  0  0  0  0  0  0  0  0  0  0  0
   -7.4666   11.2761    0.7147 C   0  0  0  0  0  0  0  0  0  0  0  0
   -6.9975   10.4351    1.6314 F   0  0  0  0  0  0  0  0  0  0  0  0
   -7.4934   12.1464   -1.5175 C   0  0  0  0  0  0  0  0  0  0  0  0
   -7.0118   12.2502   -2.7478 F   0  0  0  0  0  0  0  0  0  0  0  0
   -6.9032   11.3157   -0.5528 C   0  0  0  0  0  0  0  0  0  0  0  0
  -10.2418   14.2141    0.6962 S   0  0  0  0  0  0  0  0  0  0  0  0
   -9.4038   14.9840    1.6020 O   0  0  0  0  0  0  0  0  0  0  0  0
  -10.7461   15.1393   -0.4811 N   0  0  0  0  0  0  0  0  0  0  0  0
  -11.3602   13.4141    1.1553 O   0  0  0  0  0  0  0  0  0  0  0  0
  -11.3331   14.5953   -1.1135 H   0  0  0  0  0  0  0  0  0  0  0  0
   -9.9437   15.5060   -0.9930 H   0  0  0  0  0  0  0  0  0  0  0  0
   -5.4643   10.4320   -0.9817 S   0  0  0  0  0  0  0  0  0  0  0  0
   -4.1368   11.0997   -0.1001 C   0  0  0  0  0  0  0  0  0  0  0  0
   -3.5919   10.5146    0.9663 N   0  0  0  0  0  0  0  0  0  0  0  0
   -2.5394   11.1752    1.4988 C   0  0  0  0  0  0  0  0  0  0  0  0
   -1.9360   10.4443    2.6813 C   0  0  0  0  0  0  0  0  0  0  0  0
   -2.0389   12.3944    1.0730 C   0  0  0  0  0  0  0  0  0  0  0  0
   -2.7436   12.8935   -0.0474 C   0  0  0  0  0  0  0  0  0  0  0  0
   -3.7868   12.2742   -0.6558 N   0  0  0  0  0  0  0  0  0  0  0  0
   -2.3577   14.2342   -0.6837 C   0  0  0  0  0  0  0  0  0  0  0  0
 21 20  1  0  0  0
 20 19  2  0  0  0
 20 22  1  0  0  0
 19 18  1  0  0  0
 22 23  2  0  0  0
 17 18  1  0  0  0
 17 10  1  0  0  0
 18 24  2  0  0  0
  7  6  1  0  0  0
 23 24  1  0  0  0
 23 25  1  0  0  0
  6 10  2  0  0  0
  6  4  1  0  0  0
 10  8  1  0  0  0
  9  8  1  0  0  0
  8  2  2  0  0  0
  4  5  1  0  0  0
  4  3  2  0  0  0
  2  3  1  0  0  0
  2  1  1  0  0  0
  3 11  1  0  0  0
 13 11  1  0  0  0
 14 11  2  0  0  0
 11 12  2  0  0  0
 13 15  1  0  0  0
 13 16  1  0  0  0
M  END
> <minimizedAffinity>
-0.06927

$$$$
4HT2_V50_A_302


 25 26  0  0  0  0  0  0  0  0999 V2000
   -6.6616   14.9009   -3.4440 F   0  0  0  0  0  0  0  0  0  0  0  0
   -5.6113   14.1353   -3.2496 C   0  0  0  0  0  0  0  0  0  0  0  0
   -4.3017   14.4738   -3.7077 C   0  0  0  0  0  0  0  0  0  0  0  0
   -3.2405   13.5416   -3.4955 C   0  0  0  0  0  0  0  0  0  0  0  0
   -1.9735   13.8361   -3.8579 F   0  0  0  0  0  0  0  0  0  0  0  0
   -3.4473   12.3535   -2.7538 C   0  0  0  0  0  0  0  0  0  0  0  0
   -2.4262   11.5483   -2.4770 F   0  0  0  0  0  0  0  0  0  0  0  0
   -5.7709   12.9212   -2.6135 C   0  0  0  0  0  0  0  0  0  0  0  0
   -7.0322   12.6560   -2.3054 F   0  0  0  0  0  0  0  0  0  0  0  0
   -4.7383   11.9974   -2.3906 C   0  0  0  0  0  0  0  0  0  0  0  0
   -3.8721   15.8245   -4.7801 S   0  0  0  0  0  0  0  0  0  0  0  0
   -3.5357   15.1275   -6.0116 O   0  0  0  0  0  0  0  0  0  0  0  0
   -5.1480   16.7279   -5.0093 N   0  0  0  0  0  0  0  0  0  0  0  0
   -2.9014   16.5935   -4.0265 O   0  0  0  0  0  0  0  0  0  0  0  0
   -5.3800   17.2145   -4.1434 H   0  0  0  0  0  0  0  0  0  0  0  0
   -5.9336   16.1415   -5.2909 H   0  0  0  0  0  0  0  0  0  0  0  0
   -5.1440   10.4371   -1.7303 S   0  0  0  0  0  0  0  0  0  0  0  0
   -5.3893   10.6169   -0.0294 C   0  0  0  0  0  0  0  0  0  0  0  0
   -6.5918   10.6185    0.5453 N   0  0  0  0  0  0  0  0  0  0  0  0
   -6.5757   10.7367    1.8920 C   0  0  0  0  0  0  0  0  0  0  0  0
   -7.9661   10.6916    2.4933 C   0  0  0  0  0  0  0  0  0  0  0  0
   -5.4527   10.9070    2.6845 C   0  0  0  0  0  0  0  0  0  0  0  0
   -4.2620   10.9118    1.9208 C   0  0  0  0  0  0  0  0  0  0  0  0
   -4.1954   10.7667    0.5731 N   0  0  0  0  0  0  0  0  0  0  0  0
   -2.8970   11.0892    2.5966 C   0  0  0  0  0  0  0  0  0  0  0  0
 21 20  1  0  0  0
 20 19  2  0  0  0
 20 22  1  0  0  0
 19 18  1  0  0  0
 22 23  2  0  0  0
 17 18  1  0  0  0
 17 10  1  0  0  0
 18 24  2  0  0  0
  7  6  1  0  0  0
 23 24  1  0  0  0
 23 25  1  0  0  0
  6 10  2  0  0  0
  6  4  1  0  0  0
 10  8  1  0  0  0
  9  8  1  0  0  0
  8  2  2  0  0  0
  4  5  1  0  0  0
  4  3  2  0  0  0
  2  3  1  0  0  0
  2  1  1  0  0  0
  3 11  1  0  0  0
 13 11  1  0  0  0
 14 11  2  0  0  0
 11 12  2  0  0  0
 13 15  1  0  0  0
 13 16  1  0  0  0
M  END
> <minimizedAffinity>
-0.06276

$$$$
4HT2_V50_A_302


 25 26  0  0  0  0  0  0  0  0999 V2000
   -6.0693   11.5982   -1.2141 F   0  0  0  0  0  0  0  0  0  0  0  0
   -5.0313   12.3406   -0.9009 C   0  0  0  0  0  0  0  0  0  0  0  0
   -4.3563   12.2508    0.3544 C   0  0  0  0  0  0  0  0  0  0  0  0
   -3.2750   13.1468    0.6154 C   0  0  0  0  0  0  0  0  0  0  0  0
   -2.5670   13.0667    1.7624 F   0  0  0  0  0  0  0  0  0  0  0  0
   -2.8040   14.0355   -0.3810 C   0  0  0  0  0  0  0  0  0  0  0  0
   -1.7315   14.7886   -0.1567 F   0  0  0  0  0  0  0  0  0  0  0  0
   -4.5860   13.2894   -1.7985 C   0  0  0  0  0  0  0  0  0  0  0  0
   -5.3276   13.3586   -2.8946 F   0  0  0  0  0  0  0  0  0  0  0  0
   -3.5213   14.1723   -1.5610 C   0  0  0  0  0  0  0  0  0  0  0  0
   -4.8846   11.3238    1.7760 S   0  0  0  0  0  0  0  0  0  0  0  0
   -5.2941   12.3841    2.6835 O   0  0  0  0  0  0  0  0  0  0  0  0
   -6.1368   10.4442    1.3827 N   0  0  0  0  0  0  0  0  0  0  0  0
   -3.7769   10.4336    2.0626 O   0  0  0  0  0  0  0  0  0  0  0  0
   -5.8449    9.7024    0.7465 H   0  0  0  0  0  0  0  0  0  0  0  0
   -6.8338   11.0309    0.9240 H   0  0  0  0  0  0  0  0  0  0  0  0
   -3.2013   15.4253   -2.7283 S   0  0  0  0  0  0  0  0  0  0  0  0
   -4.4478   16.6149   -2.6000 C   0  0  0  0  0  0  0  0  0  0  0  0
   -5.3708   16.8191   -3.5396 N   0  0  0  0  0  0  0  0  0  0  0  0
   -6.2825   17.7714   -3.2404 C   0  0  0  0  0  0  0  0  0  0  0  0
   -7.3289   17.9316   -4.3249 C   0  0  0  0  0  0  0  0  0  0  0  0
   -6.2973   18.5604   -2.1022 C   0  0  0  0  0  0  0  0  0  0  0  0
   -5.2380   18.2387   -1.2216 C   0  0  0  0  0  0  0  0  0  0  0  0
   -4.3054   17.2766   -1.4370 N   0  0  0  0  0  0  0  0  0  0  0  0
   -5.0624   18.9915    0.1027 C   0  0  0  0  0  0  0  0  0  0  0  0
 21 20  1  0  0  0
 20 19  2  0  0  0
 20 22  1  0  0  0
 19 18  1  0  0  0
 22 23  2  0  0  0
 17 18  1  0  0  0
 17 10  1  0  0  0
 18 24  2  0  0  0
  7  6  1  0  0  0
 23 24  1  0  0  0
 23 25  1  0  0  0
  6 10  2  0  0  0
  6  4  1  0  0  0
 10  8  1  0  0  0
  9  8  1  0  0  0
  8  2  2  0  0  0
  4  5  1  0  0  0
  4  3  2  0  0  0
  2  3  1  0  0  0
  2  1  1  0  0  0
  3 11  1  0  0  0
 13 11  1  0  0  0
 14 11  2  0  0  0
 11 12  2  0  0  0
 13 15  1  0  0  0
 13 16  1  0  0  0
M  END
> <minimizedAffinity>
-0.06045

$$$$
4HT2_V50_A_302


 25 26  0  0  0  0  0  0  0  0999 V2000
   -0.9991   16.5970   -2.4924 F   0  0  0  0  0  0  0  0  0  0  0  0
   -1.3158   15.4148   -2.9708 C   0  0  0  0  0  0  0  0  0  0  0  0
   -2.4678   15.1831   -3.7825 C   0  0  0  0  0  0  0  0  0  0  0  0
   -2.7524   13.8474   -4.2009 C   0  0  0  0  0  0  0  0  0  0  0  0
   -3.7960   13.5814   -5.0154 F   0  0  0  0  0  0  0  0  0  0  0  0
   -1.8616   12.7850   -3.9142 C   0  0  0  0  0  0  0  0  0  0  0  0
   -2.0891   11.5682   -4.3994 F   0  0  0  0  0  0  0  0  0  0  0  0
   -0.5340   14.3250   -2.6464 C   0  0  0  0  0  0  0  0  0  0  0  0
    0.4579   14.6226   -1.8195 F   0  0  0  0  0  0  0  0  0  0  0  0
   -0.7952   13.0080   -3.0548 C   0  0  0  0  0  0  0  0  0  0  0  0
   -3.7764   16.3384   -4.1168 S   0  0  0  0  0  0  0  0  0  0  0  0
   -4.8884   15.7413   -3.3941 O   0  0  0  0  0  0  0  0  0  0  0  0
   -3.4097   17.7343   -3.4738 N   0  0  0  0  0  0  0  0  0  0  0  0
   -3.7710   16.4878   -5.5587 O   0  0  0  0  0  0  0  0  0  0  0  0
   -2.6298   18.1491   -3.9837 H   0  0  0  0  0  0  0  0  0  0  0  0
   -3.1450   17.6001   -2.4979 H   0  0  0  0  0  0  0  0  0  0  0  0
    0.1926   11.7248   -2.4123 S   0  0  0  0  0  0  0  0  0  0  0  0
   -0.4346   11.2831   -0.8641 C   0  0  0  0  0  0  0  0  0  0  0  0
   -1.7326   11.1072   -0.6180 N   0  0  0  0  0  0  0  0  0  0  0  0
   -2.0231   10.7296    0.6472 C   0  0  0  0  0  0  0  0  0  0  0  0
   -3.5070   10.5054    0.8577 C   0  0  0  0  0  0  0  0  0  0  0  0
   -1.1164   10.5730    1.6823 C   0  0  0  0  0  0  0  0  0  0  0  0
    0.2118   10.8235    1.2648 C   0  0  0  0  0  0  0  0  0  0  0  0
    0.5845   11.1743    0.0078 N   0  0  0  0  0  0  0  0  0  0  0  0
    1.3795   10.7095    2.2521 C   0  0  0  0  0  0  0  0  0  0  0  0
 21 20  1  0  0  0
 20 19  2  0  0  0
 20 22  1  0  0  0
 19 18  1  0  0  0
 22 23  2  0  0  0
 17 18  1  0  0  0
 17 10  1  0  0  0
 18 24  2  0  0  0
  7  6  1  0  0  0
 23 24  1  0  0  0
 23 25  1  0  0  0
  6 10  2  0  0  0
  6  4  1  0  0  0
 10  8  1  0  0  0
  9  8  1  0  0  0
  8  2  2  0  0  0
  4  5  1  0  0  0
  4  3  2  0  0  0
  2  3  1  0  0  0
  2  1  1  0  0  0
  3 11  1  0  0  0
 13 11  1  0  0  0
 14 11  2  0  0  0
 11 12  2  0  0  0
 13 15  1  0  0  0
 13 16  1  0  0  0
M  END
> <minimizedAffinity>
-0.05966

$$$$
4HT2_V50_A_302


 25 26  0  0  0  0  0  0  0  0999 V2000
   -0.2147   16.9085   -3.7963 F   0  0  0  0  0  0  0  0  0  0  0  0
   -0.7953   15.8364   -4.2868 C   0  0  0  0  0  0  0  0  0  0  0  0
   -2.0726   15.8620   -4.9250 C   0  0  0  0  0  0  0  0  0  0  0  0
   -2.6399   14.6290   -5.3698 C   0  0  0  0  0  0  0  0  0  0  0  0
   -3.8179   14.6035   -6.0294 F   0  0  0  0  0  0  0  0  0  0  0  0
   -1.9150   13.4161   -5.2826 C   0  0  0  0  0  0  0  0  0  0  0  0
   -2.4155   12.2961   -5.7953 F   0  0  0  0  0  0  0  0  0  0  0  0
   -0.1760   14.6112   -4.1473 C   0  0  0  0  0  0  0  0  0  0  0  0
    0.9588   14.6753   -3.4659 F   0  0  0  0  0  0  0  0  0  0  0  0
   -0.7158   13.3920   -4.5847 C   0  0  0  0  0  0  0  0  0  0  0  0
   -3.1955   17.2382   -4.9902 S   0  0  0  0  0  0  0  0  0  0  0  0
   -4.2837   16.7708   -4.1460 O   0  0  0  0  0  0  0  0  0  0  0  0
   -2.5084   18.4973   -4.3275 N   0  0  0  0  0  0  0  0  0  0  0  0
   -3.3628   17.5052   -6.4053 O   0  0  0  0  0  0  0  0  0  0  0  0
   -1.7462   18.8214   -4.9229 H   0  0  0  0  0  0  0  0  0  0  0  0
   -2.1391   18.2406   -3.4120 H   0  0  0  0  0  0  0  0  0  0  0  0
    0.1155   11.9171   -4.1737 S   0  0  0  0  0  0  0  0  0  0  0  0
   -0.1882   11.5713   -2.5083 C   0  0  0  0  0  0  0  0  0  0  0  0
    0.7365   11.6742   -1.5540 N   0  0  0  0  0  0  0  0  0  0  0  0
    0.2968   11.3938   -0.3068 C   0  0  0  0  0  0  0  0  0  0  0  0
    1.3786   11.5665    0.7404 C   0  0  0  0  0  0  0  0  0  0  0  0
   -0.9763   10.9689    0.0352 C   0  0  0  0  0  0  0  0  0  0  0  0
   -1.8264   10.8841   -1.0922 C   0  0  0  0  0  0  0  0  0  0  0  0
   -1.4678   11.1792   -2.3675 N   0  0  0  0  0  0  0  0  0  0  0  0
   -3.2839   10.4315   -0.9437 C   0  0  0  0  0  0  0  0  0  0  0  0
 21 20  1  0  0  0
 20 19  2  0  0  0
 20 22  1  0  0  0
 19 18  1  0  0  0
 22 23  2  0  0  0
 17 18  1  0  0  0
 17 10  1  0  0  0
 18 24  2  0  0  0
  7  6  1  0  0  0
 23 24  1  0  0  0
 23 25  1  0  0  0
  6 10  2  0  0  0
  6  4  1  0  0  0
 10  8  1  0  0  0
  9  8  1  0  0  0
  8  2  2  0  0  0
  4  5  1  0  0  0
  4  3  2  0  0  0
  2  3  1  0  0  0
  2  1  1  0  0  0
  3 11  1  0  0  0
 13 11  1  0  0  0
 14 11  2  0  0  0
 11 12  2  0  0  0
 13 15  1  0  0  0
 13 16  1  0  0  0
M  END
> <minimizedAffinity>
-0.05418

$$$$
4HT2_V50_A_302


 25 26  0  0  0  0  0  0  0  0999 V2000
   -5.2806   15.8078   -3.2986 F   0  0  0  0  0  0  0  0  0  0  0  0
   -6.1804   15.7359   -2.3435 C   0  0  0  0  0  0  0  0  0  0  0  0
   -7.5451   16.1156   -2.5251 C   0  0  0  0  0  0  0  0  0  0  0  0
   -8.4273   16.0545   -1.4035 C   0  0  0  0  0  0  0  0  0  0  0  0
   -9.7389   16.3479   -1.5337 F   0  0  0  0  0  0  0  0  0  0  0  0
   -7.9968   15.5288   -0.1614 C   0  0  0  0  0  0  0  0  0  0  0  0
   -8.8581   15.3828    0.8409 F   0  0  0  0  0  0  0  0  0  0  0  0
   -5.7962   15.3182   -1.0857 C   0  0  0  0  0  0  0  0  0  0  0  0
   -4.4972   15.0732   -0.9920 F   0  0  0  0  0  0  0  0  0  0  0  0
   -6.6512   15.2454    0.0247 C   0  0  0  0  0  0  0  0  0  0  0  0
   -8.2353   16.9370   -3.9422 S   0  0  0  0  0  0  0  0  0  0  0  0
   -8.5014   18.2651   -3.4123 O   0  0  0  0  0  0  0  0  0  0  0  0
   -7.1367   17.0241   -5.0745 N   0  0  0  0  0  0  0  0  0  0  0  0
   -9.2885   16.0519   -4.3993 O   0  0  0  0  0  0  0  0  0  0  0  0
   -6.9534   16.0908   -5.4429 H   0  0  0  0  0  0  0  0  0  0  0  0
   -6.2770   17.4108   -4.6850 H   0  0  0  0  0  0  0  0  0  0  0  0
   -5.9660   14.8656    1.5807 S   0  0  0  0  0  0  0  0  0  0  0  0
   -5.7057   13.1591    1.6550 C   0  0  0  0  0  0  0  0  0  0  0  0
   -4.5086   12.5898    1.5163 N   0  0  0  0  0  0  0  0  0  0  0  0
   -4.5039   11.2436    1.6398 C   0  0  0  0  0  0  0  0  0  0  0  0
   -3.1127   10.6559    1.5137 C   0  0  0  0  0  0  0  0  0  0  0  0
   -5.6124   10.4365    1.8350 C   0  0  0  0  0  0  0  0  0  0  0  0
   -6.8053   11.1906    1.9323 C   0  0  0  0  0  0  0  0  0  0  0  0
   -6.8858   12.5429    1.8508 N   0  0  0  0  0  0  0  0  0  0  0  0
   -8.1562   10.4978    2.1482 C   0  0  0  0  0  0  0  0  0  0  0  0
 21 20  1  0  0  0
 20 19  2  0  0  0
 20 22  1  0  0  0
 19 18  1  0  0  0
 22 23  2  0  0  0
 17 18  1  0  0  0
 17 10  1  0  0  0
 18 24  2  0  0  0
  7  6  1  0  0  0
 23 24  1  0  0  0
 23 25  1  0  0  0
  6 10  2  0  0  0
  6  4  1  0  0  0
 10  8  1  0  0  0
  9  8  1  0  0  0
  8  2  2  0  0  0
  4  5  1  0  0  0
  4  3  2  0  0  0
  2  3  1  0  0  0
  2  1  1  0  0  0
  3 11  1  0  0  0
 13 11  1  0  0  0
 14 11  2  0  0  0
 11 12  2  0  0  0
 13 15  1  0  0  0
 13 16  1  0  0  0
M  END
> <minimizedAffinity>
-0.05289

$$$$
4HT2_V50_A_302


 25 26  0  0  0  0  0  0  0  0999 V2000
   -4.1532   14.1712    1.2066 F   0  0  0  0  0  0  0  0  0  0  0  0
   -5.3291   14.0134    0.6415 C   0  0  0  0  0  0  0  0  0  0  0  0
   -6.1356   12.8495    0.8270 C   0  0  0  0  0  0  0  0  0  0  0  0
   -7.3718   12.7537    0.1181 C   0  0  0  0  0  0  0  0  0  0  0  0
   -8.1984   11.7017    0.3007 F   0  0  0  0  0  0  0  0  0  0  0  0
   -7.8489   13.8287   -0.6700 C   0  0  0  0  0  0  0  0  0  0  0  0
   -9.0488   13.7637   -1.2389 F   0  0  0  0  0  0  0  0  0  0  0  0
   -5.8033   14.9892   -0.2112 C   0  0  0  0  0  0  0  0  0  0  0  0
   -4.9487   15.9862   -0.3892 F   0  0  0  0  0  0  0  0  0  0  0  0
   -7.0182   14.9142   -0.9096 C   0  0  0  0  0  0  0  0  0  0  0  0
   -5.6506   11.3445    1.6387 S   0  0  0  0  0  0  0  0  0  0  0  0
   -5.5199   10.4319    0.5137 O   0  0  0  0  0  0  0  0  0  0  0  0
   -4.2412   11.5565    2.3207 N   0  0  0  0  0  0  0  0  0  0  0  0
   -6.6374   11.1602    2.6845 O   0  0  0  0  0  0  0  0  0  0  0  0
   -4.3378   12.1969    3.1088 H   0  0  0  0  0  0  0  0  0  0  0  0
   -3.5902   11.9497    1.6409 H   0  0  0  0  0  0  0  0  0  0  0  0
   -7.3846   16.1516   -2.0799 S   0  0  0  0  0  0  0  0  0  0  0  0
   -7.3491   15.4363   -3.6523 C   0  0  0  0  0  0  0  0  0  0  0  0
   -8.4384   15.2273   -4.3913 N   0  0  0  0  0  0  0  0  0  0  0  0
   -8.2022   14.6883   -5.6084 C   0  0  0  0  0  0  0  0  0  0  0  0
   -9.4706   14.5112   -6.4187 C   0  0  0  0  0  0  0  0  0  0  0  0
   -6.9693   14.2988   -6.1050 C   0  0  0  0  0  0  0  0  0  0  0  0
   -5.9233   14.5615   -5.1896 C   0  0  0  0  0  0  0  0  0  0  0  0
   -6.0773   15.1281   -3.9660 N   0  0  0  0  0  0  0  0  0  0  0  0
   -4.4717   14.2074   -5.5341 C   0  0  0  0  0  0  0  0  0  0  0  0
 21 20  1  0  0  0
 20 19  2  0  0  0
 20 22  1  0  0  0
 19 18  1  0  0  0
 22 23  2  0  0  0
 17 18  1  0  0  0
 17 10  1  0  0  0
 18 24  2  0  0  0
  7  6  1  0  0  0
 23 24  1  0  0  0
 23 25  1  0  0  0
  6 10  2  0  0  0
  6  4  1  0  0  0
 10  8  1  0  0  0
  9  8  1  0  0  0
  8  2  2  0  0  0
  4  5  1  0  0  0
  4  3  2  0  0  0
  2  3  1  0  0  0
  2  1  1  0  0  0
  3 11  1  0  0  0
 13 11  1  0  0  0
 14 11  2  0  0  0
 11 12  2  0  0  0
 13 15  1  0  0  0
 13 16  1  0  0  0
M  END
> <minimizedAffinity>
-0.05183

$$$$
