2UY3_H33_A_1311


 15 16  0  0  0  0  0  0  0  0999 V2000
   37.9909   20.4416   21.8393 N   0  0  0  0  0  0  0  0  0  0  0  0
   38.0572   20.2547   23.2309 C   0  0  0  0  0  0  0  0  0  0  0  0
   38.3050   21.3669   24.0745 C   0  0  0  0  0  0  0  0  0  0  0  0
   38.4825   22.6434   23.5380 C   0  0  0  0  0  0  0  0  0  0  0  0
   38.3966   22.8560   22.1442 N   0  0  0  0  0  0  0  0  0  0  0  0
   38.1581   21.7495   21.2864 C   0  0  0  0  0  0  0  0  0  0  0  0
   38.4156   21.5041   25.4140 N   0  0  0  0  0  0  0  0  0  0  0  0
   38.6594   22.7997   25.6837 C   0  0  0  0  0  0  0  0  0  0  0  0
   38.6868   23.4938   24.5592 N   0  0  0  0  0  0  0  0  0  0  0  0
   38.5717   24.2180   21.5659 C   0  0  0  0  0  0  0  0  0  0  0  0
   37.7386   19.2592   20.9732 C   0  0  0  0  0  0  0  0  0  0  0  0
   38.0944   21.9090   20.0670 O   0  0  0  0  0  0  0  0  0  0  0  0
   37.8976   19.1010   23.6529 O   0  0  0  0  0  0  0  0  0  0  0  0
   38.8766   23.4338   27.0640 Cl  0  0  0  0  0  0  0  0  0  0  0  0
   38.3322   20.7816   26.0776 H   0  0  0  0  0  0  0  0  0  0  0  0
  1  2  1  0  0  0
  2  3  1  0  0  0
  3  4  2  0  0  0
  4  5  1  0  0  0
  1  6  1  0  0  0
  5  6  1  0  0  0
  3  7  1  0  0  0
  7  8  1  0  0  0
  4  9  1  0  0  0
  8  9  2  0  0  0
  5 10  1  0  0  0
  1 11  1  0  0  0
  6 12  2  0  0  0
  2 13  2  0  0  0
  8 14  1  0  0  0
  7 15  1  0  0  0
M  END
> <minimizedAffinity>
-6.79084

$$$$
2UY3_H33_A_1311


 15 16  0  0  0  0  0  0  0  0999 V2000
   37.4077   22.3931   21.0661 N   0  0  0  0  0  0  0  0  0  0  0  0
   37.6161   23.4140   22.0095 C   0  0  0  0  0  0  0  0  0  0  0  0
   38.0025   23.0763   23.3311 C   0  0  0  0  0  0  0  0  0  0  0  0
   38.1787   21.7425   23.7037 C   0  0  0  0  0  0  0  0  0  0  0  0
   37.9967   20.7034   22.7644 N   0  0  0  0  0  0  0  0  0  0  0  0
   37.6006   21.0265   21.4394 C   0  0  0  0  0  0  0  0  0  0  0  0
   38.2766   23.8123   24.4304 N   0  0  0  0  0  0  0  0  0  0  0  0
   38.5948   22.9697   25.4302 C   0  0  0  0  0  0  0  0  0  0  0  0
   38.5517   21.7222   24.9954 N   0  0  0  0  0  0  0  0  0  0  0  0
   38.1962   19.2784   23.1517 C   0  0  0  0  0  0  0  0  0  0  0  0
   36.9943   22.7705   19.6881 C   0  0  0  0  0  0  0  0  0  0  0  0
   37.4215   20.1359   20.6079 O   0  0  0  0  0  0  0  0  0  0  0  0
   37.4409   24.5793   21.6271 O   0  0  0  0  0  0  0  0  0  0  0  0
   38.9641   23.3408   26.8725 Cl  0  0  0  0  0  0  0  0  0  0  0  0
   38.2484   24.7946   24.4897 H   0  0  0  0  0  0  0  0  0  0  0  0
  1  2  1  0  0  0
  2  3  1  0  0  0
  3  4  2  0  0  0
  4  5  1  0  0  0
  1  6  1  0  0  0
  5  6  1  0  0  0
  3  7  1  0  0  0
  7  8  1  0  0  0
  4  9  1  0  0  0
  8  9  2  0  0  0
  5 10  1  0  0  0
  1 11  1  0  0  0
  6 12  2  0  0  0
  2 13  2  0  0  0
  8 14  1  0  0  0
  7 15  1  0  0  0
M  END
> <minimizedAffinity>
-6.10419

$$$$
2UY3_H33_A_1311


 15 16  0  0  0  0  0  0  0  0999 V2000
   35.6174   22.5689   21.3418 N   0  0  0  0  0  0  0  0  0  0  0  0
   35.8541   23.3327   22.4978 C   0  0  0  0  0  0  0  0  0  0  0  0
   36.8549   22.9221   23.4142 C   0  0  0  0  0  0  0  0  0  0  0  0
   37.6068   21.7695   23.1798 C   0  0  0  0  0  0  0  0  0  0  0  0
   37.4002   21.0011   22.0127 N   0  0  0  0  0  0  0  0  0  0  0  0
   36.3947   21.3954   21.0905 C   0  0  0  0  0  0  0  0  0  0  0  0
   37.3082   23.4355   24.5788 N   0  0  0  0  0  0  0  0  0  0  0  0
   38.2829   22.6306   25.0402 C   0  0  0  0  0  0  0  0  0  0  0  0
   38.4776   21.6331   24.1952 N   0  0  0  0  0  0  0  0  0  0  0  0
   38.2085   19.7772   21.7496 C   0  0  0  0  0  0  0  0  0  0  0  0
   34.5568   23.0139   20.3990 C   0  0  0  0  0  0  0  0  0  0  0  0
   36.1870   20.7322   20.0739 O   0  0  0  0  0  0  0  0  0  0  0  0
   35.1551   24.3428   22.6589 O   0  0  0  0  0  0  0  0  0  0  0  0
   39.0842   22.7961   26.3383 Cl  0  0  0  0  0  0  0  0  0  0  0  0
   36.9820   24.2560   25.0142 H   0  0  0  0  0  0  0  0  0  0  0  0
  1  2  1  0  0  0
  2  3  1  0  0  0
  3  4  2  0  0  0
  4  5  1  0  0  0
  1  6  1  0  0  0
  5  6  1  0  0  0
  3  7  1  0  0  0
  7  8  1  0  0  0
  4  9  1  0  0  0
  8  9  2  0  0  0
  5 10  1  0  0  0
  1 11  1  0  0  0
  6 12  2  0  0  0
  2 13  2  0  0  0
  8 14  1  0  0  0
  7 15  1  0  0  0
M  END
> <minimizedAffinity>
-5.54373

$$$$
2UY3_H33_A_1311


 15 16  0  0  0  0  0  0  0  0999 V2000
   38.3539   23.1254   21.5377 N   0  0  0  0  0  0  0  0  0  0  0  0
   38.3016   21.9553   20.7606 C   0  0  0  0  0  0  0  0  0  0  0  0
   38.2857   20.6906   21.4013 C   0  0  0  0  0  0  0  0  0  0  0  0
   38.3204   20.5962   22.7937 C   0  0  0  0  0  0  0  0  0  0  0  0
   38.3497   21.7605   23.5929 N   0  0  0  0  0  0  0  0  0  0  0  0
   38.3754   23.0339   22.9644 C   0  0  0  0  0  0  0  0  0  0  0  0
   38.2327   19.4218   20.9403 N   0  0  0  0  0  0  0  0  0  0  0  0
   38.2450   18.5907   21.9987 C   0  0  0  0  0  0  0  0  0  0  0  0
   38.2834   19.2920   23.1184 N   0  0  0  0  0  0  0  0  0  0  0  0
   38.3733   21.6673   25.0799 C   0  0  0  0  0  0  0  0  0  0  0  0
   38.3785   24.4406   20.8438 C   0  0  0  0  0  0  0  0  0  0  0  0
   38.4163   24.0619   23.6411 O   0  0  0  0  0  0  0  0  0  0  0  0
   38.2776   22.0964   19.5300 O   0  0  0  0  0  0  0  0  0  0  0  0
   38.2162   17.0568   21.9725 Cl  0  0  0  0  0  0  0  0  0  0  0  0
   38.1921   19.1520   19.9944 H   0  0  0  0  0  0  0  0  0  0  0  0
  1  2  1  0  0  0
  2  3  1  0  0  0
  3  4  2  0  0  0
  4  5  1  0  0  0
  1  6  1  0  0  0
  5  6  1  0  0  0
  3  7  1  0  0  0
  7  8  1  0  0  0
  4  9  1  0  0  0
  8  9  2  0  0  0
  5 10  1  0  0  0
  1 11  1  0  0  0
  6 12  2  0  0  0
  2 13  2  0  0  0
  8 14  1  0  0  0
  7 15  1  0  0  0
M  END
> <minimizedAffinity>
-5.51939

$$$$
2UY3_H33_A_1311


 15 16  0  0  0  0  0  0  0  0999 V2000
   38.0183   21.2834   23.0725 N   0  0  0  0  0  0  0  0  0  0  0  0
   37.8353   19.9543   23.4917 C   0  0  0  0  0  0  0  0  0  0  0  0
   38.0551   18.8955   22.5749 C   0  0  0  0  0  0  0  0  0  0  0  0
   38.4517   19.1593   21.2627 C   0  0  0  0  0  0  0  0  0  0  0  0
   38.6635   20.4866   20.8285 N   0  0  0  0  0  0  0  0  0  0  0  0
   38.4381   21.5577   21.7335 C   0  0  0  0  0  0  0  0  0  0  0  0
   37.9708   17.5511   22.6783 N   0  0  0  0  0  0  0  0  0  0  0  0
   38.2900   17.0182   21.4846 C   0  0  0  0  0  0  0  0  0  0  0  0
   38.5946   17.9807   20.6315 N   0  0  0  0  0  0  0  0  0  0  0  0
   39.0999   20.7747   19.4331 C   0  0  0  0  0  0  0  0  0  0  0  0
   37.7735   22.3782   24.0489 C   0  0  0  0  0  0  0  0  0  0  0  0
   38.6018   22.7235   21.3723 O   0  0  0  0  0  0  0  0  0  0  0  0
   37.4780   19.7773   24.6647 O   0  0  0  0  0  0  0  0  0  0  0  0
   38.3182   15.5299   21.1120 Cl  0  0  0  0  0  0  0  0  0  0  0  0
   37.7194   17.0485   23.4867 H   0  0  0  0  0  0  0  0  0  0  0  0
  1  2  1  0  0  0
  2  3  1  0  0  0
  3  4  2  0  0  0
  4  5  1  0  0  0
  1  6  1  0  0  0
  5  6  1  0  0  0
  3  7  1  0  0  0
  7  8  1  0  0  0
  4  9  1  0  0  0
  8  9  2  0  0  0
  5 10  1  0  0  0
  1 11  1  0  0  0
  6 12  2  0  0  0
  2 13  2  0  0  0
  8 14  1  0  0  0
  7 15  1  0  0  0
M  END
> <minimizedAffinity>
-5.40534

$$$$
2UY3_H33_A_1311


 15 16  0  0  0  0  0  0  0  0999 V2000
   38.3387   21.9695   23.5965 N   0  0  0  0  0  0  0  0  0  0  0  0
   38.4524   22.9956   22.6426 C   0  0  0  0  0  0  0  0  0  0  0  0
   38.4357   22.6721   21.2624 C   0  0  0  0  0  0  0  0  0  0  0  0
   38.3066   21.3471   20.8421 C   0  0  0  0  0  0  0  0  0  0  0  0
   38.1678   20.3040   21.7844 N   0  0  0  0  0  0  0  0  0  0  0  0
   38.1922   20.6125   23.1705 C   0  0  0  0  0  0  0  0  0  0  0  0
   38.5162   23.4164   20.1377 N   0  0  0  0  0  0  0  0  0  0  0  0
   38.4504   22.5864   19.0805 C   0  0  0  0  0  0  0  0  0  0  0  0
   38.3097   21.3401   19.4975 N   0  0  0  0  0  0  0  0  0  0  0  0
   38.0162   18.8890   21.3425 C   0  0  0  0  0  0  0  0  0  0  0  0
   38.3674   22.3315   25.0387 C   0  0  0  0  0  0  0  0  0  0  0  0
   38.0881   19.7175   24.0099 O   0  0  0  0  0  0  0  0  0  0  0  0
   38.5695   24.1524   23.0703 O   0  0  0  0  0  0  0  0  0  0  0  0
   38.5182   22.9695   17.5962 Cl  0  0  0  0  0  0  0  0  0  0  0  0
   38.6073   24.3958   20.0985 H   0  0  0  0  0  0  0  0  0  0  0  0
  1  2  1  0  0  0
  2  3  1  0  0  0
  3  4  2  0  0  0
  4  5  1  0  0  0
  1  6  1  0  0  0
  5  6  1  0  0  0
  3  7  1  0  0  0
  7  8  1  0  0  0
  4  9  1  0  0  0
  8  9  2  0  0  0
  5 10  1  0  0  0
  1 11  1  0  0  0
  6 12  2  0  0  0
  2 13  2  0  0  0
  8 14  1  0  0  0
  7 15  1  0  0  0
M  END
> <minimizedAffinity>
-5.30285

$$$$
2UY3_H33_A_1311


 15 16  0  0  0  0  0  0  0  0999 V2000
   38.3492   21.0347   20.4094 N   0  0  0  0  0  0  0  0  0  0  0  0
   38.4805   22.2063   21.1750 C   0  0  0  0  0  0  0  0  0  0  0  0
   38.4438   22.1246   22.5899 C   0  0  0  0  0  0  0  0  0  0  0  0
   38.2800   20.8944   23.2291 C   0  0  0  0  0  0  0  0  0  0  0  0
   38.1696   19.7029   22.4785 N   0  0  0  0  0  0  0  0  0  0  0  0
   38.1954   19.7708   21.0601 C   0  0  0  0  0  0  0  0  0  0  0  0
   38.5468   23.0469   23.5717 N   0  0  0  0  0  0  0  0  0  0  0  0
   38.4407   22.4135   24.7543 C   0  0  0  0  0  0  0  0  0  0  0  0
   38.2941   21.1151   24.5554 N   0  0  0  0  0  0  0  0  0  0  0  0
   38.0081   18.3849   23.1546 C   0  0  0  0  0  0  0  0  0  0  0  0
   38.3819   21.1455   18.9267 C   0  0  0  0  0  0  0  0  0  0  0  0
   38.0857   18.7467   20.3852 O   0  0  0  0  0  0  0  0  0  0  0  0
   38.6182   23.2710   20.5569 O   0  0  0  0  0  0  0  0  0  0  0  0
   38.4806   23.0468   26.1514 Cl  0  0  0  0  0  0  0  0  0  0  0  0
   38.6770   24.0144   23.4442 H   0  0  0  0  0  0  0  0  0  0  0  0
  1  2  1  0  0  0
  2  3  1  0  0  0
  3  4  2  0  0  0
  4  5  1  0  0  0
  1  6  1  0  0  0
  5  6  1  0  0  0
  3  7  1  0  0  0
  7  8  1  0  0  0
  4  9  1  0  0  0
  8  9  2  0  0  0
  5 10  1  0  0  0
  1 11  1  0  0  0
  6 12  2  0  0  0
  2 13  2  0  0  0
  8 14  1  0  0  0
  7 15  1  0  0  0
M  END
> <minimizedAffinity>
-5.20431

$$$$
2UY3_H33_A_1311


 15 16  0  0  0  0  0  0  0  0999 V2000
   38.3364   21.6678   23.5212 N   0  0  0  0  0  0  0  0  0  0  0  0
   38.2238   20.5378   22.6928 C   0  0  0  0  0  0  0  0  0  0  0  0
   38.1732   20.7046   21.2858 C   0  0  0  0  0  0  0  0  0  0  0  0
   38.2351   21.9775   20.7160 C   0  0  0  0  0  0  0  0  0  0  0  0
   38.3717   23.1239   21.5299 N   0  0  0  0  0  0  0  0  0  0  0  0
   38.4143   22.9724   22.9414 C   0  0  0  0  0  0  0  0  0  0  0  0
   38.0762   19.8364   20.2552 N   0  0  0  0  0  0  0  0  0  0  0  0
   38.0685   20.5441   19.1106 C   0  0  0  0  0  0  0  0  0  0  0  0
   38.1783   21.8333   19.3804 N   0  0  0  0  0  0  0  0  0  0  0  0
   38.4520   24.4845   20.9277 C   0  0  0  0  0  0  0  0  0  0  0  0
   38.3788   21.4693   24.9945 C   0  0  0  0  0  0  0  0  0  0  0  0
   38.5178   23.9590   23.6710 O   0  0  0  0  0  0  0  0  0  0  0  0
   38.1676   19.4331   23.2508 O   0  0  0  0  0  0  0  0  0  0  0  0
   37.9562   19.9946   17.6824 Cl  0  0  0  0  0  0  0  0  0  0  0  0
   38.0208   18.8563   20.3288 H   0  0  0  0  0  0  0  0  0  0  0  0
  1  2  1  0  0  0
  2  3  1  0  0  0
  3  4  2  0  0  0
  4  5  1  0  0  0
  1  6  1  0  0  0
  5  6  1  0  0  0
  3  7  1  0  0  0
  7  8  1  0  0  0
  4  9  1  0  0  0
  8  9  2  0  0  0
  5 10  1  0  0  0
  1 11  1  0  0  0
  6 12  2  0  0  0
  2 13  2  0  0  0
  8 14  1  0  0  0
  7 15  1  0  0  0
M  END
> <minimizedAffinity>
-4.98484

$$$$
2UY3_H33_A_1311


 15 16  0  0  0  0  0  0  0  0999 V2000
   36.5436   21.1561   20.8623 N   0  0  0  0  0  0  0  0  0  0  0  0
   37.6265   20.9055   21.7226 C   0  0  0  0  0  0  0  0  0  0  0  0
   37.7353   21.6274   22.9380 C   0  0  0  0  0  0  0  0  0  0  0  0
   36.7789   22.5819   23.2885 C   0  0  0  0  0  0  0  0  0  0  0  0
   35.6710   22.8319   22.4488 N   0  0  0  0  0  0  0  0  0  0  0  0
   35.5541   22.1228   21.2238 C   0  0  0  0  0  0  0  0  0  0  0  0
   38.6326   21.6067   23.9479 N   0  0  0  0  0  0  0  0  0  0  0  0
   38.2498   22.5121   24.8669 C   0  0  0  0  0  0  0  0  0  0  0  0
   37.1264   23.0929   24.4827 N   0  0  0  0  0  0  0  0  0  0  0  0
   34.6392   23.8397   22.8231 C   0  0  0  0  0  0  0  0  0  0  0  0
   36.4546   20.3932   19.5887 C   0  0  0  0  0  0  0  0  0  0  0  0
   34.6046   22.3353   20.4690 O   0  0  0  0  0  0  0  0  0  0  0  0
   38.4485   20.0522   21.3605 O   0  0  0  0  0  0  0  0  0  0  0  0
   38.9640   22.8581   26.1802 Cl  0  0  0  0  0  0  0  0  0  0  0  0
   39.4283   21.0295   24.0020 H   0  0  0  0  0  0  0  0  0  0  0  0
  1  2  1  0  0  0
  2  3  1  0  0  0
  3  4  2  0  0  0
  4  5  1  0  0  0
  1  6  1  0  0  0
  5  6  1  0  0  0
  3  7  1  0  0  0
  7  8  1  0  0  0
  4  9  1  0  0  0
  8  9  2  0  0  0
  5 10  1  0  0  0
  1 11  1  0  0  0
  6 12  2  0  0  0
  2 13  2  0  0  0
  8 14  1  0  0  0
  7 15  1  0  0  0
M  END
> <minimizedAffinity>
-4.97879

$$$$
2UY3_H33_A_1311


 15 16  0  0  0  0  0  0  0  0999 V2000
   38.1730   18.7180   20.9796 N   0  0  0  0  0  0  0  0  0  0  0  0
   38.3452   19.8206   20.1251 C   0  0  0  0  0  0  0  0  0  0  0  0
   38.3533   21.1306   20.6671 C   0  0  0  0  0  0  0  0  0  0  0  0
   38.1933   21.3358   22.0387 C   0  0  0  0  0  0  0  0  0  0  0  0
   38.0422   20.2399   22.9170 N   0  0  0  0  0  0  0  0  0  0  0  0
   38.0229   18.9225   22.3868 C   0  0  0  0  0  0  0  0  0  0  0  0
   38.5009   22.3566   20.1190 N   0  0  0  0  0  0  0  0  0  0  0  0
   38.4245   23.2686   21.1056 C   0  0  0  0  0  0  0  0  0  0  0  0
   38.2536   22.6596   22.2661 N   0  0  0  0  0  0  0  0  0  0  0  0
   37.8845   20.4510   24.3836 C   0  0  0  0  0  0  0  0  0  0  0  0
   38.1590   17.3536   20.3877 C   0  0  0  0  0  0  0  0  0  0  0  0
   37.8771   17.9530   23.1320 O   0  0  0  0  0  0  0  0  0  0  0  0
   38.4775   19.5820   18.9166 O   0  0  0  0  0  0  0  0  0  0  0  0
   38.5185   24.7938   20.9667 Cl  0  0  0  0  0  0  0  0  0  0  0  0
   38.6402   22.5493   19.1636 H   0  0  0  0  0  0  0  0  0  0  0  0
  1  2  1  0  0  0
  2  3  1  0  0  0
  3  4  2  0  0  0
  4  5  1  0  0  0
  1  6  1  0  0  0
  5  6  1  0  0  0
  3  7  1  0  0  0
  7  8  1  0  0  0
  4  9  1  0  0  0
  8  9  2  0  0  0
  5 10  1  0  0  0
  1 11  1  0  0  0
  6 12  2  0  0  0
  2 13  2  0  0  0
  8 14  1  0  0  0
  7 15  1  0  0  0
M  END
> <minimizedAffinity>
-4.95351

$$$$
