2AX9_BHM_A_1


 23 23  0  0  0  0  0  0  0  0999 V2000
   27.7486    3.8238    3.9344 C   0  0  0  0  0  0  0  0  0  0  0  0
   26.3919    3.5496    4.0864 C   0  0  0  0  0  0  0  0  0  0  0  0
   28.1416    5.1282    3.6539 C   0  0  0  0  0  0  0  0  0  0  0  0
   27.1805    6.1274    3.5489 C   0  0  0  0  0  0  0  0  0  0  0  0
   25.8269    5.8489    3.7184 C   0  0  0  0  0  0  0  0  0  0  0  0
   25.4126    4.5384    3.9736 C   0  0  0  0  0  0  0  0  0  0  0  0
   29.1698    2.3704    5.1488 C   0  0  0  0  0  0  0  0  0  0  0  0
   28.8380    2.7246    6.2804 O   0  0  0  0  0  0  0  0  0  0  0  0
   28.6915    2.8859    4.0181 N   0  0  0  0  0  0  0  0  0  0  0  0
   29.0658    2.5457    3.1735 H   0  0  0  0  0  0  0  0  0  0  0  0
   30.2436    1.2977    4.9511 C   0  0  0  0  0  0  0  0  0  0  0  0
   31.4109    1.9079    4.3929 O   0  0  0  0  0  0  0  0  0  0  0  0
   29.7068    0.2230    4.0042 C   0  0  0  0  0  0  0  0  0  0  0  0
   32.0974    1.2348    4.2641 H   0  0  0  0  0  0  0  0  0  0  0  0
   32.5019    0.9316    6.6681 Br  0  0  0  0  0  0  0  0  0  0  0  0
   30.6115    0.6715    6.2985 C   0  0  0  0  0  0  0  0  0  0  0  0
   23.9320    4.1221    4.0443 C   0  0  0  0  0  0  0  0  0  0  0  0
   23.4581    4.3336    5.2684 F   0  0  0  0  0  0  0  0  0  0  0  0
   23.1718    4.7794    3.1723 F   0  0  0  0  0  0  0  0  0  0  0  0
   23.7554    2.8341    3.7641 F   0  0  0  0  0  0  0  0  0  0  0  0
   24.9978    6.8914    3.6458 N   0  0  0  0  0  0  0  0  0  0  0  0
   24.3326    7.4370    4.7755 O   0  0  0  0  0  0  0  0  0  0  0  0
   24.8508    7.5787    2.4108 O   0  0  0  0  0  0  0  0  0  0  0  0
 15 16  1  0  0  0
 16 11  1  0  0  0
 11 12  1  0  0  0
 11 13  1  0  0  0
 11  7  1  0  0  0
  7  8  2  0  0  0
  7  9  1  0  0  0
  9  1  1  0  0  0
  1  2  2  0  0  0
  1  3  1  0  0  0
  2  6  1  0  0  0
  3  4  2  0  0  0
  4  5  1  0  0  0
  5 21  1  0  0  0
  5  6  2  0  0  0
 21 22  2  0  0  0
 21 23  1  0  0  0
  6 17  1  0  0  0
 17 18  1  0  0  0
 17 19  1  0  0  0
 17 20  1  0  0  0
 12 14  1  0  0  0
  9 10  1  0  0  0
M  CHG 1  21   1
M  CHG 1  23  -1
M  END
> <minimizedAffinity>
-8.87951

$$$$
2AX9_BHM_A_1


 23 23  0  0  0  0  0  0  0  0999 V2000
   27.5307    3.7254    4.0254 C   0  0  0  0  0  0  0  0  0  0  0  0
   26.1587    3.5283    4.1581 C   0  0  0  0  0  0  0  0  0  0  0  0
   27.9992    5.0013    3.7297 C   0  0  0  0  0  0  0  0  0  0  0  0
   27.0962    6.0493    3.5908 C   0  0  0  0  0  0  0  0  0  0  0  0
   25.7267    5.8480    3.7413 C   0  0  0  0  0  0  0  0  0  0  0  0
   25.2371    4.5668    4.0114 C   0  0  0  0  0  0  0  0  0  0  0  0
   28.4916    1.6679    3.3542 C   0  0  0  0  0  0  0  0  0  0  0  0
   27.7135    1.4164    2.4336 O   0  0  0  0  0  0  0  0  0  0  0  0
   28.4194    2.7392    4.1417 N   0  0  0  0  0  0  0  0  0  0  0  0
   29.0775    2.8085    4.8706 H   0  0  0  0  0  0  0  0  0  0  0  0
   29.6196    0.6962    3.7091 C   0  0  0  0  0  0  0  0  0  0  0  0
   30.8734    1.3021    3.3818 O   0  0  0  0  0  0  0  0  0  0  0  0
   29.4346   -0.5958    2.9112 C   0  0  0  0  0  0  0  0  0  0  0  0
   31.5947    0.6927    3.6036 H   0  0  0  0  0  0  0  0  0  0  0  0
   31.1674    1.1422    6.0728 Br  0  0  0  0  0  0  0  0  0  0  0  0
   29.5958    0.3926    5.2091 C   0  0  0  0  0  0  0  0  0  0  0  0
   23.7349    4.2330    4.0631 C   0  0  0  0  0  0  0  0  0  0  0  0
   23.2269    4.6033    5.2347 F   0  0  0  0  0  0  0  0  0  0  0  0
   23.0440    4.8242    3.0918 F   0  0  0  0  0  0  0  0  0  0  0  0
   23.5012    2.9318    3.9192 F   0  0  0  0  0  0  0  0  0  0  0  0
   24.9573    6.9327    3.6363 N   0  0  0  0  0  0  0  0  0  0  0  0
   24.3003    7.5309    4.7439 O   0  0  0  0  0  0  0  0  0  0  0  0
   24.8727    7.6076    2.3888 O   0  0  0  0  0  0  0  0  0  0  0  0
 15 16  1  0  0  0
 16 11  1  0  0  0
 11 12  1  0  0  0
 11 13  1  0  0  0
 11  7  1  0  0  0
  7  8  2  0  0  0
  7  9  1  0  0  0
  9  1  1  0  0  0
  1  2  2  0  0  0
  1  3  1  0  0  0
  2  6  1  0  0  0
  3  4  2  0  0  0
  4  5  1  0  0  0
  5 21  1  0  0  0
  5  6  2  0  0  0
 21 22  2  0  0  0
 21 23  1  0  0  0
  6 17  1  0  0  0
 17 18  1  0  0  0
 17 19  1  0  0  0
 17 20  1  0  0  0
 12 14  1  0  0  0
  9 10  1  0  0  0
M  CHG 1  21   1
M  CHG 1  23  -1
M  END
> <minimizedAffinity>
-8.81711

$$$$
2AX9_BHM_A_1


 23 23  0  0  0  0  0  0  0  0999 V2000
   27.2927    2.5142    4.1273 C   0  0  0  0  0  0  0  0  0  0  0  0
   27.1790    3.8906    3.9494 C   0  0  0  0  0  0  0  0  0  0  0  0
   26.1330    1.7555    4.2463 C   0  0  0  0  0  0  0  0  0  0  0  0
   24.8931    2.3797    4.1685 C   0  0  0  0  0  0  0  0  0  0  0  0
   24.7869    3.7543    3.9739 C   0  0  0  0  0  0  0  0  0  0  0  0
   25.9425    4.5352    3.8797 C   0  0  0  0  0  0  0  0  0  0  0  0
   29.2249    1.8239    5.3094 C   0  0  0  0  0  0  0  0  0  0  0  0
   28.9671    2.3742    6.3803 O   0  0  0  0  0  0  0  0  0  0  0  0
   28.4664    1.8894    4.2170 N   0  0  0  0  0  0  0  0  0  0  0  0
   28.8005    1.4385    3.4081 H   0  0  0  0  0  0  0  0  0  0  0  0
   30.5218    1.0304    5.1331 C   0  0  0  0  0  0  0  0  0  0  0  0
   31.5185    1.8900    4.5730 O   0  0  0  0  0  0  0  0  0  0  0  0
   30.2600   -0.1519    4.1983 C   0  0  0  0  0  0  0  0  0  0  0  0
   32.3447    1.3950    4.4576 H   0  0  0  0  0  0  0  0  0  0  0  0
   32.9153    0.8758    6.6916 Br  0  0  0  0  0  0  0  0  0  0  0  0
   31.0141    0.5245    6.4912 C   0  0  0  0  0  0  0  0  0  0  0  0
   25.9155    6.0724    3.7957 C   0  0  0  0  0  0  0  0  0  0  0  0
   27.1449    6.5573    3.9408 F   0  0  0  0  0  0  0  0  0  0  0  0
   25.4146    6.5148    2.6452 F   0  0  0  0  0  0  0  0  0  0  0  0
   25.1565    6.6169    4.7423 F   0  0  0  0  0  0  0  0  0  0  0  0
   23.5491    4.2394    3.8645 N   0  0  0  0  0  0  0  0  0  0  0  0
   22.8199    4.2440    2.6460 O   0  0  0  0  0  0  0  0  0  0  0  0
   22.8637    4.6675    5.0332 O   0  0  0  0  0  0  0  0  0  0  0  0
 15 16  1  0  0  0
 16 11  1  0  0  0
 11 12  1  0  0  0
 11 13  1  0  0  0
 11  7  1  0  0  0
  7  8  2  0  0  0
  7  9  1  0  0  0
  9  1  1  0  0  0
  1  2  2  0  0  0
  1  3  1  0  0  0
  2  6  1  0  0  0
  3  4  2  0  0  0
  4  5  1  0  0  0
  5 21  1  0  0  0
  5  6  2  0  0  0
 21 22  2  0  0  0
 21 23  1  0  0  0
  6 17  1  0  0  0
 17 18  1  0  0  0
 17 19  1  0  0  0
 17 20  1  0  0  0
 12 14  1  0  0  0
  9 10  1  0  0  0
M  CHG 1  21   1
M  CHG 1  23  -1
M  END
> <minimizedAffinity>
-6.48575

$$$$
2AX9_BHM_A_1


 23 23  0  0  0  0  0  0  0  0999 V2000
   27.4293    2.2188    4.0694 C   0  0  0  0  0  0  0  0  0  0  0  0
   28.4660    1.9015    4.9432 C   0  0  0  0  0  0  0  0  0  0  0  0
   27.3431    1.5414    2.8575 C   0  0  0  0  0  0  0  0  0  0  0  0
   28.2764    0.5569    2.5532 C   0  0  0  0  0  0  0  0  0  0  0  0
   29.3007    0.2335    3.4392 C   0  0  0  0  0  0  0  0  0  0  0  0
   29.4180    0.9235    4.6492 C   0  0  0  0  0  0  0  0  0  0  0  0
   25.2059    3.0056    4.2801 C   0  0  0  0  0  0  0  0  0  0  0  0
   24.6328    1.9692    3.9431 O   0  0  0  0  0  0  0  0  0  0  0  0
   26.5270    3.1647    4.3280 N   0  0  0  0  0  0  0  0  0  0  0  0
   26.8655    4.0556    4.5751 H   0  0  0  0  0  0  0  0  0  0  0  0
   24.4038    4.2598    4.6355 C   0  0  0  0  0  0  0  0  0  0  0  0
   23.8270    4.0887    5.9333 O   0  0  0  0  0  0  0  0  0  0  0  0
   23.3034    4.4605    3.5921 C   0  0  0  0  0  0  0  0  0  0  0  0
   23.3163    4.8796    6.1670 H   0  0  0  0  0  0  0  0  0  0  0  0
   24.7509    6.7908    3.3488 Br  0  0  0  0  0  0  0  0  0  0  0  0
   25.3270    5.4804    4.6637 C   0  0  0  0  0  0  0  0  0  0  0  0
   30.5925    0.7204    5.6239 C   0  0  0  0  0  0  0  0  0  0  0  0
   30.1316    0.4980    6.8511 F   0  0  0  0  0  0  0  0  0  0  0  0
   31.3810   -0.2924    5.2735 F   0  0  0  0  0  0  0  0  0  0  0  0
   31.3899    1.7831    5.6826 F   0  0  0  0  0  0  0  0  0  0  0  0
   30.1089   -0.7604    3.0670 N   0  0  0  0  0  0  0  0  0  0  0  0
   30.0096   -2.0793    3.5840 O   0  0  0  0  0  0  0  0  0  0  0  0
   31.0426   -0.5424    2.0184 O   0  0  0  0  0  0  0  0  0  0  0  0
 15 16  1  0  0  0
 16 11  1  0  0  0
 11 12  1  0  0  0
 11 13  1  0  0  0
 11  7  1  0  0  0
  7  8  2  0  0  0
  7  9  1  0  0  0
  9  1  1  0  0  0
  1  2  2  0  0  0
  1  3  1  0  0  0
  2  6  1  0  0  0
  3  4  2  0  0  0
  4  5  1  0  0  0
  5 21  1  0  0  0
  5  6  2  0  0  0
 21 22  2  0  0  0
 21 23  1  0  0  0
  6 17  1  0  0  0
 17 18  1  0  0  0
 17 19  1  0  0  0
 17 20  1  0  0  0
 12 14  1  0  0  0
  9 10  1  0  0  0
M  CHG 1  21   1
M  CHG 1  23  -1
M  END
> <minimizedAffinity>
-6.40765

$$$$
2AX9_BHM_A_1


 23 23  0  0  0  0  0  0  0  0999 V2000
   27.3323    2.3177    3.6386 C   0  0  0  0  0  0  0  0  0  0  0  0
   27.2665    3.7078    3.5915 C   0  0  0  0  0  0  0  0  0  0  0  0
   26.1627    1.5983    3.8608 C   0  0  0  0  0  0  0  0  0  0  0  0
   24.9583    2.2759    4.0130 C   0  0  0  0  0  0  0  0  0  0  0  0
   24.8975    3.6654    3.9482 C   0  0  0  0  0  0  0  0  0  0  0  0
   26.0676    4.4049    3.7529 C   0  0  0  0  0  0  0  0  0  0  0  0
   28.7330    0.4536    4.0508 C   0  0  0  0  0  0  0  0  0  0  0  0
   27.9684   -0.1652    4.7915 O   0  0  0  0  0  0  0  0  0  0  0  0
   28.4729    1.6410    3.5076 N   0  0  0  0  0  0  0  0  0  0  0  0
   29.1823    2.0536    2.9639 H   0  0  0  0  0  0  0  0  0  0  0  0
   30.1230   -0.0997    3.7275 C   0  0  0  0  0  0  0  0  0  0  0  0
   30.7427    0.7445    2.7530 O   0  0  0  0  0  0  0  0  0  0  0  0
   29.9792   -1.5204    3.1787 C   0  0  0  0  0  0  0  0  0  0  0  0
   31.6249    0.4011    2.5419 H   0  0  0  0  0  0  0  0  0  0  0  0
   31.1602    1.6873    5.7055 Br  0  0  0  0  0  0  0  0  0  0  0  0
   30.9879   -0.1118    4.9903 C   0  0  0  0  0  0  0  0  0  0  0  0
   26.1090    5.9433    3.7990 C   0  0  0  0  0  0  0  0  0  0  0  0
   25.2969    6.3917    4.7514 F   0  0  0  0  0  0  0  0  0  0  0  0
   27.3320    6.4174    4.0222 F   0  0  0  0  0  0  0  0  0  0  0  0
   25.7223    6.4938    2.6518 F   0  0  0  0  0  0  0  0  0  0  0  0
   23.6834    4.2073    4.0576 N   0  0  0  0  0  0  0  0  0  0  0  0
   22.8591    4.5020    2.9395 O   0  0  0  0  0  0  0  0  0  0  0  0
   23.1197    4.3967    5.3480 O   0  0  0  0  0  0  0  0  0  0  0  0
 15 16  1  0  0  0
 16 11  1  0  0  0
 11 12  1  0  0  0
 11 13  1  0  0  0
 11  7  1  0  0  0
  7  8  2  0  0  0
  7  9  1  0  0  0
  9  1  1  0  0  0
  1  2  2  0  0  0
  1  3  1  0  0  0
  2  6  1  0  0  0
  3  4  2  0  0  0
  4  5  1  0  0  0
  5 21  1  0  0  0
  5  6  2  0  0  0
 21 22  2  0  0  0
 21 23  1  0  0  0
  6 17  1  0  0  0
 17 18  1  0  0  0
 17 19  1  0  0  0
 17 20  1  0  0  0
 12 14  1  0  0  0
  9 10  1  0  0  0
M  CHG 1  21   1
M  CHG 1  23  -1
M  END
> <minimizedAffinity>
-6.17414

$$$$
2AX9_BHM_A_1


 23 23  0  0  0  0  0  0  0  0999 V2000
   26.8527    2.5695    4.3754 C   0  0  0  0  0  0  0  0  0  0  0  0
   27.2030    3.7317    3.6932 C   0  0  0  0  0  0  0  0  0  0  0  0
   25.6227    2.5171    5.0229 C   0  0  0  0  0  0  0  0  0  0  0  0
   24.7674    3.6114    4.9618 C   0  0  0  0  0  0  0  0  0  0  0  0
   25.1174    4.7642    4.2639 C   0  0  0  0  0  0  0  0  0  0  0  0
   26.3611    4.8438    3.6306 C   0  0  0  0  0  0  0  0  0  0  0  0
   28.0928    0.7865    3.4320 C   0  0  0  0  0  0  0  0  0  0  0  0
   27.7764    0.9709    2.2564 O   0  0  0  0  0  0  0  0  0  0  0  0
   27.6555    1.5093    4.4612 N   0  0  0  0  0  0  0  0  0  0  0  0
   27.9498    1.2378    5.3606 H   0  0  0  0  0  0  0  0  0  0  0  0
   29.0140   -0.3730    3.8187 C   0  0  0  0  0  0  0  0  0  0  0  0
   28.2145   -1.5229    4.1099 O   0  0  0  0  0  0  0  0  0  0  0  0
   29.8297    0.0269    5.0494 C   0  0  0  0  0  0  0  0  0  0  0  0
   28.7906   -2.2634    4.3561 H   0  0  0  0  0  0  0  0  0  0  0  0
   31.1370   -2.1674    3.1437 Br  0  0  0  0  0  0  0  0  0  0  0  0
   29.9514   -0.7065    2.6555 C   0  0  0  0  0  0  0  0  0  0  0  0
   26.8794    6.1242    2.9505 C   0  0  0  0  0  0  0  0  0  0  0  0
   27.5342    6.8740    3.8319 F   0  0  0  0  0  0  0  0  0  0  0  0
   27.6859    5.8695    1.9235 F   0  0  0  0  0  0  0  0  0  0  0  0
   25.8946    6.8643    2.4494 F   0  0  0  0  0  0  0  0  0  0  0  0
   24.2006    5.7326    4.2293 N   0  0  0  0  0  0  0  0  0  0  0  0
   22.8467    5.5098    3.8635 O   0  0  0  0  0  0  0  0  0  0  0  0
   24.5434    7.0321    4.6905 O   0  0  0  0  0  0  0  0  0  0  0  0
 15 16  1  0  0  0
 16 11  1  0  0  0
 11 12  1  0  0  0
 11 13  1  0  0  0
 11  7  1  0  0  0
  7  8  2  0  0  0
  7  9  1  0  0  0
  9  1  1  0  0  0
  1  2  2  0  0  0
  1  3  1  0  0  0
  2  6  1  0  0  0
  3  4  2  0  0  0
  4  5  1  0  0  0
  5 21  1  0  0  0
  5  6  2  0  0  0
 21 22  2  0  0  0
 21 23  1  0  0  0
  6 17  1  0  0  0
 17 18  1  0  0  0
 17 19  1  0  0  0
 17 20  1  0  0  0
 12 14  1  0  0  0
  9 10  1  0  0  0
M  CHG 1  21   1
M  CHG 1  23  -1
M  END
> <minimizedAffinity>
-5.92257

$$$$
