4JXS_18U_B_401


 25 26  0  0  0  0  0  0  0  0999 V2000
   79.7991    6.5201   30.9396 N   0  0  0  0  0  0  0  0  0  0  0  0
   80.0331    7.3420   31.4964 H   0  0  0  0  0  0  0  0  0  0  0  0
   78.6102    6.9051   29.8651 S   0  0  0  0  0  0  0  0  0  0  0  0
   77.4883    5.9116   29.9572 O   0  0  0  0  0  0  0  0  0  0  0  0
   78.1290    8.2977   30.1941 O   0  0  0  0  0  0  0  0  0  0  0  0
   79.3013    6.9247   28.2621 C   0  0  0  0  0  0  0  0  0  0  0  0
   79.6285    8.0888   27.6716 C   0  0  0  0  0  0  0  0  0  0  0  0
   80.1558    7.9927   26.4437 C   0  0  0  0  0  0  0  0  0  0  0  0
   80.2181    6.3429   26.0353 S   0  0  0  0  0  0  0  0  0  0  0  0
   79.5749    5.8033   27.4829 C   0  0  0  0  0  0  0  0  0  0  0  0
   79.3744    4.3211   27.7577 C   0  0  0  0  0  0  0  0  0  0  0  0
   79.5182    3.8861   28.9120 O   0  0  0  0  0  0  0  0  0  0  0  0
   79.0463    3.6332   26.7606 O   0  0  0  0  0  0  0  0  0  0  0  0
   79.7658    4.4671   29.6042 H   0  0  0  0  0  0  0  0  0  0  0  0
   79.3252    5.4338   31.8356 C   0  0  0  0  0  0  0  0  0  0  0  0
   81.0099    4.0132   33.1378 C   0  0  0  0  0  0  0  0  0  0  0  0
   81.8940    3.8417   34.2062 C   0  0  0  0  0  0  0  0  0  0  0  0
   82.0738    4.8815   35.1269 C   0  0  0  0  0  0  0  0  0  0  0  0
   81.3667    6.0799   34.9810 C   0  0  0  0  0  0  0  0  0  0  0  0
   80.4819    6.2625   33.9170 C   0  0  0  0  0  0  0  0  0  0  0  0
   80.3045    5.2193   32.9963 C   0  0  0  0  0  0  0  0  0  0  0  0
   83.0496    4.7620   36.2998 C   0  0  0  0  0  0  0  0  0  0  0  0
   84.2353    4.7106   35.9656 O   0  0  0  0  0  0  0  0  0  0  0  0
   82.6683    4.6921   37.4840 O   0  0  0  0  0  0  0  0  0  0  0  0
   81.7543    4.7362   37.6853 H   0  0  0  0  0  0  0  0  0  0  0  0
 13 11  2  0  0  0
  9  8  1  0  0  0
  9 10  1  0  0  0
 11 10  1  0  0  0
 11 12  1  0  0  0
  8  7  2  0  0  0
 10  6  2  0  0  0
  7  6  1  0  0  0
  6  3  1  0  0  0
  3  4  2  0  0  0
  3  1  1  0  0  0
  3  5  2  0  0  0
  1 15  1  0  0  0
 15 21  1  0  0  0
 21 20  2  0  0  0
 21 16  1  0  0  0
 20 19  1  0  0  0
 16 17  2  0  0  0
 19 18  2  0  0  0
 17 18  1  0  0  0
 18 22  1  0  0  0
 23 22  2  0  0  0
 22 24  1  0  0  0
 24 25  1  0  0  0
  1  2  1  0  0  0
 12 14  1  0  0  0
M  END
> <minimizedAffinity>
-8.56160

$$$$
4JXS_18U_B_401


 25 26  0  0  0  0  0  0  0  0999 V2000
   80.4972    4.8389   30.7806 N   0  0  0  0  0  0  0  0  0  0  0  0
   81.1558    4.1611   31.1643 H   0  0  0  0  0  0  0  0  0  0  0  0
   81.3178    5.9622   29.8967 S   0  0  0  0  0  0  0  0  0  0  0  0
   81.7630    7.0912   30.7805 O   0  0  0  0  0  0  0  0  0  0  0  0
   82.5012    5.2711   29.2632 O   0  0  0  0  0  0  0  0  0  0  0  0
   80.2688    6.5366   28.6250 C   0  0  0  0  0  0  0  0  0  0  0  0
   80.0414    7.8536   28.4675 C   0  0  0  0  0  0  0  0  0  0  0  0
   79.2250    8.1887   27.4594 C   0  0  0  0  0  0  0  0  0  0  0  0
   78.7256    6.7517   26.6990 S   0  0  0  0  0  0  0  0  0  0  0  0
   79.6077    5.7375   27.6956 C   0  0  0  0  0  0  0  0  0  0  0  0
   79.5897    4.2286   27.5071 C   0  0  0  0  0  0  0  0  0  0  0  0
   79.2615    3.4956   28.4545 O   0  0  0  0  0  0  0  0  0  0  0  0
   79.8996    3.8307   26.3578 O   0  0  0  0  0  0  0  0  0  0  0  0
   79.0437    3.8721   29.2844 H   0  0  0  0  0  0  0  0  0  0  0  0
   79.7760    5.5120   31.8915 C   0  0  0  0  0  0  0  0  0  0  0  0
   80.6121    6.4639   34.1156 C   0  0  0  0  0  0  0  0  0  0  0  0
   81.3420    6.3369   35.3003 C   0  0  0  0  0  0  0  0  0  0  0  0
   82.0195    5.1408   35.5686 C   0  0  0  0  0  0  0  0  0  0  0  0
   81.9710    4.0845   34.6525 C   0  0  0  0  0  0  0  0  0  0  0  0
   81.2440    4.2001   33.4665 C   0  0  0  0  0  0  0  0  0  0  0  0
   80.5662    5.3991   33.2011 C   0  0  0  0  0  0  0  0  0  0  0  0
   82.8108    4.9335   36.8621 C   0  0  0  0  0  0  0  0  0  0  0  0
   83.8151    4.2303   36.7311 O   0  0  0  0  0  0  0  0  0  0  0  0
   82.4475    5.4118   37.9537 O   0  0  0  0  0  0  0  0  0  0  0  0
   81.6753    5.9407   37.9997 H   0  0  0  0  0  0  0  0  0  0  0  0
 13 11  2  0  0  0
  9  8  1  0  0  0
  9 10  1  0  0  0
 11 10  1  0  0  0
 11 12  1  0  0  0
  8  7  2  0  0  0
 10  6  2  0  0  0
  7  6  1  0  0  0
  6  3  1  0  0  0
  3  4  2  0  0  0
  3  1  1  0  0  0
  3  5  2  0  0  0
  1 15  1  0  0  0
 15 21  1  0  0  0
 21 20  2  0  0  0
 21 16  1  0  0  0
 20 19  1  0  0  0
 16 17  2  0  0  0
 19 18  2  0  0  0
 17 18  1  0  0  0
 18 22  1  0  0  0
 23 22  2  0  0  0
 22 24  1  0  0  0
 24 25  1  0  0  0
  1  2  1  0  0  0
 12 14  1  0  0  0
M  END
> <minimizedAffinity>
-8.19860

$$$$
4JXS_18U_B_401


 25 26  0  0  0  0  0  0  0  0999 V2000
   80.2866    4.6878   30.8949 N   0  0  0  0  0  0  0  0  0  0  0  0
   80.8940    3.9408   31.2319 H   0  0  0  0  0  0  0  0  0  0  0  0
   81.1688    5.7482   29.9931 S   0  0  0  0  0  0  0  0  0  0  0  0
   81.3743    7.0269   30.7526 O   0  0  0  0  0  0  0  0  0  0  0  0
   82.4893    5.0897   29.6736 O   0  0  0  0  0  0  0  0  0  0  0  0
   80.3200    6.0373   28.4953 C   0  0  0  0  0  0  0  0  0  0  0  0
   80.8886    5.7285   27.3153 C   0  0  0  0  0  0  0  0  0  0  0  0
   80.1513    5.9859   26.2267 C   0  0  0  0  0  0  0  0  0  0  0  0
   78.6797    6.6614   26.7468 S   0  0  0  0  0  0  0  0  0  0  0  0
   79.0415    6.5769   28.3784 C   0  0  0  0  0  0  0  0  0  0  0  0
   78.0549    7.0496   29.4347 C   0  0  0  0  0  0  0  0  0  0  0  0
   77.0480    6.3664   29.6834 O   0  0  0  0  0  0  0  0  0  0  0  0
   78.3604    8.1237   30.0077 O   0  0  0  0  0  0  0  0  0  0  0  0
   76.8908    5.5738   29.2091 H   0  0  0  0  0  0  0  0  0  0  0  0
   79.6882    5.3998   32.0535 C   0  0  0  0  0  0  0  0  0  0  0  0
   80.6881    6.3049   34.2289 C   0  0  0  0  0  0  0  0  0  0  0  0
   81.5072    6.1549   35.3510 C   0  0  0  0  0  0  0  0  0  0  0  0
   82.2082    4.9570   35.5385 C   0  0  0  0  0  0  0  0  0  0  0  0
   82.0941    3.9219   34.6042 C   0  0  0  0  0  0  0  0  0  0  0  0
   81.2780    4.0606   33.4803 C   0  0  0  0  0  0  0  0  0  0  0  0
   80.5768    5.2613   33.2957 C   0  0  0  0  0  0  0  0  0  0  0  0
   83.0971    4.7246   36.7624 C   0  0  0  0  0  0  0  0  0  0  0  0
   84.1283    4.0923   36.5234 O   0  0  0  0  0  0  0  0  0  0  0  0
   82.7832    5.1168   37.9027 O   0  0  0  0  0  0  0  0  0  0  0  0
   81.9873    5.5944   38.0312 H   0  0  0  0  0  0  0  0  0  0  0  0
 13 11  2  0  0  0
  9  8  1  0  0  0
  9 10  1  0  0  0
 11 10  1  0  0  0
 11 12  1  0  0  0
  8  7  2  0  0  0
 10  6  2  0  0  0
  7  6  1  0  0  0
  6  3  1  0  0  0
  3  4  2  0  0  0
  3  1  1  0  0  0
  3  5  2  0  0  0
  1 15  1  0  0  0
 15 21  1  0  0  0
 21 20  2  0  0  0
 21 16  1  0  0  0
 20 19  1  0  0  0
 16 17  2  0  0  0
 19 18  2  0  0  0
 17 18  1  0  0  0
 18 22  1  0  0  0
 23 22  2  0  0  0
 22 24  1  0  0  0
 24 25  1  0  0  0
  1  2  1  0  0  0
 12 14  1  0  0  0
M  END
> <minimizedAffinity>
-8.10875

$$$$
4JXS_18U_B_401


 25 26  0  0  0  0  0  0  0  0999 V2000
   80.4358    5.1850   30.3461 N   0  0  0  0  0  0  0  0  0  0  0  0
   80.8028    6.1341   30.2756 H   0  0  0  0  0  0  0  0  0  0  0  0
   79.5347    4.8440   29.0089 S   0  0  0  0  0  0  0  0  0  0  0  0
   78.9938    3.4459   29.0926 O   0  0  0  0  0  0  0  0  0  0  0  0
   78.4153    5.8548   28.9410 O   0  0  0  0  0  0  0  0  0  0  0  0
   80.5440    5.0432   27.5986 C   0  0  0  0  0  0  0  0  0  0  0  0
   81.8127    5.4753   27.7198 C   0  0  0  0  0  0  0  0  0  0  0  0
   82.5024    5.5894   26.5769 C   0  0  0  0  0  0  0  0  0  0  0  0
   81.4713    5.1349   25.3031 S   0  0  0  0  0  0  0  0  0  0  0  0
   80.1628    4.7822   26.2848 C   0  0  0  0  0  0  0  0  0  0  0  0
   78.8493    4.2807   25.7052 C   0  0  0  0  0  0  0  0  0  0  0  0
   77.7823    4.8127   26.0527 O   0  0  0  0  0  0  0  0  0  0  0  0
   78.9552    3.3467   24.8736 O   0  0  0  0  0  0  0  0  0  0  0  0
   77.7881    5.5072   26.6817 H   0  0  0  0  0  0  0  0  0  0  0  0
   79.5858    5.0719   31.5593 C   0  0  0  0  0  0  0  0  0  0  0  0
   81.2154    3.8476   33.1076 C   0  0  0  0  0  0  0  0  0  0  0  0
   81.9918    3.7969   34.2682 C   0  0  0  0  0  0  0  0  0  0  0  0
   82.0040    4.8939   35.1388 C   0  0  0  0  0  0  0  0  0  0  0  0
   81.2377    6.0285   34.8509 C   0  0  0  0  0  0  0  0  0  0  0  0
   80.4594    6.0903   33.6939 C   0  0  0  0  0  0  0  0  0  0  0  0
   80.4498    4.9902   32.8238 C   0  0  0  0  0  0  0  0  0  0  0  0
   82.8570    4.9071   36.4094 C   0  0  0  0  0  0  0  0  0  0  0  0
   84.0588    5.0946   36.2076 O   0  0  0  0  0  0  0  0  0  0  0  0
   82.3748    4.7136   37.5420 O   0  0  0  0  0  0  0  0  0  0  0  0
   81.4534    4.5761   37.6417 H   0  0  0  0  0  0  0  0  0  0  0  0
 13 11  2  0  0  0
  9  8  1  0  0  0
  9 10  1  0  0  0
 11 10  1  0  0  0
 11 12  1  0  0  0
  8  7  2  0  0  0
 10  6  2  0  0  0
  7  6  1  0  0  0
  6  3  1  0  0  0
  3  4  2  0  0  0
  3  1  1  0  0  0
  3  5  2  0  0  0
  1 15  1  0  0  0
 15 21  1  0  0  0
 21 20  2  0  0  0
 21 16  1  0  0  0
 20 19  1  0  0  0
 16 17  2  0  0  0
 19 18  2  0  0  0
 17 18  1  0  0  0
 18 22  1  0  0  0
 23 22  2  0  0  0
 22 24  1  0  0  0
 24 25  1  0  0  0
  1  2  1  0  0  0
 12 14  1  0  0  0
M  END
> <minimizedAffinity>
-7.90026

$$$$
4JXS_18U_B_401


 25 26  0  0  0  0  0  0  0  0999 V2000
   79.6518    6.5443   31.4867 N   0  0  0  0  0  0  0  0  0  0  0  0
   79.2209    7.0970   32.2278 H   0  0  0  0  0  0  0  0  0  0  0  0
   78.6620    6.5261   30.1690 S   0  0  0  0  0  0  0  0  0  0  0  0
   77.5454    5.5436   30.3745 O   0  0  0  0  0  0  0  0  0  0  0  0
   78.1253    7.9244   29.9800 O   0  0  0  0  0  0  0  0  0  0  0  0
   79.6164    6.1076   28.7684 C   0  0  0  0  0  0  0  0  0  0  0  0
   79.3863    4.9624   28.1002 C   0  0  0  0  0  0  0  0  0  0  0  0
   80.1712    4.7385   27.0377 C   0  0  0  0  0  0  0  0  0  0  0  0
   81.2502    6.0465   26.9071 S   0  0  0  0  0  0  0  0  0  0  0  0
   80.6452    6.8756   28.2289 C   0  0  0  0  0  0  0  0  0  0  0  0
   81.2207    8.2175   28.6542 C   0  0  0  0  0  0  0  0  0  0  0  0
   81.6759    8.3540   29.8017 O   0  0  0  0  0  0  0  0  0  0  0  0
   81.2081    9.1079   27.7698 O   0  0  0  0  0  0  0  0  0  0  0  0
   81.6476    7.6378   30.4052 H   0  0  0  0  0  0  0  0  0  0  0  0
   79.8653    5.1544   31.9661 C   0  0  0  0  0  0  0  0  0  0  0  0
   80.6736    6.2680   34.1244 C   0  0  0  0  0  0  0  0  0  0  0  0
   81.4073    6.2369   35.3132 C   0  0  0  0  0  0  0  0  0  0  0  0
   82.1196    5.0803   35.6546 C   0  0  0  0  0  0  0  0  0  0  0  0
   82.1018    3.9677   34.8066 C   0  0  0  0  0  0  0  0  0  0  0  0
   81.3715    3.9874   33.6172 C   0  0  0  0  0  0  0  0  0  0  0  0
   80.6587    5.1470   33.2785 C   0  0  0  0  0  0  0  0  0  0  0  0
   82.9170    4.9778   36.9568 C   0  0  0  0  0  0  0  0  0  0  0  0
   83.9413    4.2973   36.8682 O   0  0  0  0  0  0  0  0  0  0  0  0
   82.5401    5.5131   38.0170 O   0  0  0  0  0  0  0  0  0  0  0  0
   81.7529    6.0211   38.0314 H   0  0  0  0  0  0  0  0  0  0  0  0
 13 11  2  0  0  0
  9  8  1  0  0  0
  9 10  1  0  0  0
 11 10  1  0  0  0
 11 12  1  0  0  0
  8  7  2  0  0  0
 10  6  2  0  0  0
  7  6  1  0  0  0
  6  3  1  0  0  0
  3  4  2  0  0  0
  3  1  1  0  0  0
  3  5  2  0  0  0
  1 15  1  0  0  0
 15 21  1  0  0  0
 21 20  2  0  0  0
 21 16  1  0  0  0
 20 19  1  0  0  0
 16 17  2  0  0  0
 19 18  2  0  0  0
 17 18  1  0  0  0
 18 22  1  0  0  0
 23 22  2  0  0  0
 22 24  1  0  0  0
 24 25  1  0  0  0
  1  2  1  0  0  0
 12 14  1  0  0  0
M  END
> <minimizedAffinity>
-7.79561

$$$$
4JXS_18U_B_401


 25 26  0  0  0  0  0  0  0  0999 V2000
   79.0444    6.2568   31.3280 N   0  0  0  0  0  0  0  0  0  0  0  0
   78.1288    6.5174   31.6943 H   0  0  0  0  0  0  0  0  0  0  0  0
   78.9755    6.1777   29.6833 S   0  0  0  0  0  0  0  0  0  0  0  0
   79.1322    4.7560   29.2268 O   0  0  0  0  0  0  0  0  0  0  0  0
   77.6425    6.7410   29.2530 O   0  0  0  0  0  0  0  0  0  0  0  0
   80.2388    7.1896   29.0294 C   0  0  0  0  0  0  0  0  0  0  0  0
   79.9359    8.2586   28.2701 C   0  0  0  0  0  0  0  0  0  0  0  0
   80.9785    8.9708   27.8218 C   0  0  0  0  0  0  0  0  0  0  0  0
   82.3970    8.2252   28.3911 S   0  0  0  0  0  0  0  0  0  0  0  0
   81.6059    7.0079   29.2234 C   0  0  0  0  0  0  0  0  0  0  0  0
   82.3738    5.9531   30.0046 C   0  0  0  0  0  0  0  0  0  0  0  0
   82.2678    4.7568   29.6881 O   0  0  0  0  0  0  0  0  0  0  0  0
   83.0979    6.3957   30.9293 O   0  0  0  0  0  0  0  0  0  0  0  0
   81.7037    4.5070   28.9829 H   0  0  0  0  0  0  0  0  0  0  0  0
   79.4362    4.9312   31.8725 C   0  0  0  0  0  0  0  0  0  0  0  0
   80.3711    6.2811   33.8360 C   0  0  0  0  0  0  0  0  0  0  0  0
   81.2222    6.4041   34.9374 C   0  0  0  0  0  0  0  0  0  0  0  0
   82.0532    5.3335   35.2904 C   0  0  0  0  0  0  0  0  0  0  0  0
   82.0358    4.1528   34.5399 C   0  0  0  0  0  0  0  0  0  0  0  0
   81.1888    4.0187   33.4385 C   0  0  0  0  0  0  0  0  0  0  0  0
   80.3574    5.0926   33.0880 C   0  0  0  0  0  0  0  0  0  0  0  0
   82.9846    5.3997   36.5029 C   0  0  0  0  0  0  0  0  0  0  0  0
   83.7870    6.3354   36.4715 O   0  0  0  0  0  0  0  0  0  0  0  0
   82.9487    4.5591   37.4220 O   0  0  0  0  0  0  0  0  0  0  0  0
   82.3186    3.8660   37.3986 H   0  0  0  0  0  0  0  0  0  0  0  0
 13 11  2  0  0  0
  9  8  1  0  0  0
  9 10  1  0  0  0
 11 10  1  0  0  0
 11 12  1  0  0  0
  8  7  2  0  0  0
 10  6  2  0  0  0
  7  6  1  0  0  0
  6  3  1  0  0  0
  3  4  2  0  0  0
  3  1  1  0  0  0
  3  5  2  0  0  0
  1 15  1  0  0  0
 15 21  1  0  0  0
 21 20  2  0  0  0
 21 16  1  0  0  0
 20 19  1  0  0  0
 16 17  2  0  0  0
 19 18  2  0  0  0
 17 18  1  0  0  0
 18 22  1  0  0  0
 23 22  2  0  0  0
 22 24  1  0  0  0
 24 25  1  0  0  0
  1  2  1  0  0  0
 12 14  1  0  0  0
M  END
> <minimizedAffinity>
-7.75111

$$$$
4JXS_18U_B_401


 25 26  0  0  0  0  0  0  0  0999 V2000
   81.9869    5.6307   37.4219 N   0  0  0  0  0  0  0  0  0  0  0  0
   81.0890    5.9878   37.0955 H   0  0  0  0  0  0  0  0  0  0  0  0
   82.9000    6.8789   37.9916 S   0  0  0  0  0  0  0  0  0  0  0  0
   82.8306    6.9283   39.4906 O   0  0  0  0  0  0  0  0  0  0  0  0
   84.3181    6.6607   37.5218 O   0  0  0  0  0  0  0  0  0  0  0  0
   82.3074    8.3619   37.2866 C   0  0  0  0  0  0  0  0  0  0  0  0
   82.8458    8.8433   36.1511 C   0  0  0  0  0  0  0  0  0  0  0  0
   82.3158    9.9849   35.6917 C   0  0  0  0  0  0  0  0  0  0  0  0
   81.0895   10.4569   36.7715 S   0  0  0  0  0  0  0  0  0  0  0  0
   81.2736    9.1450   37.7939 C   0  0  0  0  0  0  0  0  0  0  0  0
   80.4002    8.9721   39.0268 C   0  0  0  0  0  0  0  0  0  0  0  0
   80.8770    9.1919   40.1523 O   0  0  0  0  0  0  0  0  0  0  0  0
   79.2152    8.6281   38.7973 O   0  0  0  0  0  0  0  0  0  0  0  0
   81.7748    9.4456   40.2394 H   0  0  0  0  0  0  0  0  0  0  0  0
   82.6962    4.9707   36.2956 C   0  0  0  0  0  0  0  0  0  0  0  0
   81.7554    3.8507   34.1951 C   0  0  0  0  0  0  0  0  0  0  0  0
   80.9631    3.8844   33.0446 C   0  0  0  0  0  0  0  0  0  0  0  0
   80.2444    5.0460   32.7353 C   0  0  0  0  0  0  0  0  0  0  0  0
   80.3264    6.1664   33.5692 C   0  0  0  0  0  0  0  0  0  0  0  0
   81.1139    6.1434   34.7215 C   0  0  0  0  0  0  0  0  0  0  0  0
   81.8319    4.9783   35.0287 C   0  0  0  0  0  0  0  0  0  0  0  0
   79.3383    5.1316   31.5050 C   0  0  0  0  0  0  0  0  0  0  0  0
   78.9012    6.2621   31.2787 O   0  0  0  0  0  0  0  0  0  0  0  0
   79.0481    4.1347   30.8161 O   0  0  0  0  0  0  0  0  0  0  0  0
   79.4075    3.2963   31.0305 H   0  0  0  0  0  0  0  0  0  0  0  0
 13 11  2  0  0  0
  9  8  1  0  0  0
  9 10  1  0  0  0
 11 10  1  0  0  0
 11 12  1  0  0  0
  8  7  2  0  0  0
 10  6  2  0  0  0
  7  6  1  0  0  0
  6  3  1  0  0  0
  3  4  2  0  0  0
  3  1  1  0  0  0
  3  5  2  0  0  0
  1 15  1  0  0  0
 15 21  1  0  0  0
 21 20  2  0  0  0
 21 16  1  0  0  0
 20 19  1  0  0  0
 16 17  2  0  0  0
 19 18  2  0  0  0
 17 18  1  0  0  0
 18 22  1  0  0  0
 23 22  2  0  0  0
 22 24  1  0  0  0
 24 25  1  0  0  0
  1  2  1  0  0  0
 12 14  1  0  0  0
M  END
> <minimizedAffinity>
-7.63092

$$$$
4JXS_18U_B_401


 25 26  0  0  0  0  0  0  0  0999 V2000
   83.6370    4.4919   35.4899 N   0  0  0  0  0  0  0  0  0  0  0  0
   83.8646    4.1100   36.4079 H   0  0  0  0  0  0  0  0  0  0  0  0
   84.8969    5.4054   34.9474 S   0  0  0  0  0  0  0  0  0  0  0  0
   85.2857    4.9791   33.5613 O   0  0  0  0  0  0  0  0  0  0  0  0
   84.4572    6.8496   34.9667 O   0  0  0  0  0  0  0  0  0  0  0  0
   86.2307    5.2201   36.0584 C   0  0  0  0  0  0  0  0  0  0  0  0
   86.6174    6.2443   36.8409 C   0  0  0  0  0  0  0  0  0  0  0  0
   87.6478    5.9961   37.6606 C   0  0  0  0  0  0  0  0  0  0  0  0
   88.1399    4.3890   37.4007 S   0  0  0  0  0  0  0  0  0  0  0  0
   86.9787    4.0598   36.2415 C   0  0  0  0  0  0  0  0  0  0  0  0
   86.8806    2.6921   35.5839 C   0  0  0  0  0  0  0  0  0  0  0  0
   85.7711    2.2583   35.2325 O   0  0  0  0  0  0  0  0  0  0  0  0
   87.9741    2.0974   35.4236 O   0  0  0  0  0  0  0  0  0  0  0  0
   84.9989    2.7654   35.3889 H   0  0  0  0  0  0  0  0  0  0  0  0
   82.4196    5.3372   35.5934 C   0  0  0  0  0  0  0  0  0  0  0  0
   81.4396    3.8609   33.7463 C   0  0  0  0  0  0  0  0  0  0  0  0
   80.5889    3.6771   32.6532 C   0  0  0  0  0  0  0  0  0  0  0  0
   79.7887    4.7398   32.2150 C   0  0  0  0  0  0  0  0  0  0  0  0
   79.8476    5.9781   32.8635 C   0  0  0  0  0  0  0  0  0  0  0  0
   80.6930    6.1725   33.9571 C   0  0  0  0  0  0  0  0  0  0  0  0
   81.4926    5.1060   34.3937 C   0  0  0  0  0  0  0  0  0  0  0  0
   78.8173    4.5891   31.0421 C   0  0  0  0  0  0  0  0  0  0  0  0
   78.0016    5.5083   30.9421 O   0  0  0  0  0  0  0  0  0  0  0  0
   78.8365    3.6047   30.2785 O   0  0  0  0  0  0  0  0  0  0  0  0
   79.4780    2.9321   30.3973 H   0  0  0  0  0  0  0  0  0  0  0  0
 13 11  2  0  0  0
  9  8  1  0  0  0
  9 10  1  0  0  0
 11 10  1  0  0  0
 11 12  1  0  0  0
  8  7  2  0  0  0
 10  6  2  0  0  0
  7  6  1  0  0  0
  6  3  1  0  0  0
  3  4  2  0  0  0
  3  1  1  0  0  0
  3  5  2  0  0  0
  1 15  1  0  0  0
 15 21  1  0  0  0
 21 20  2  0  0  0
 21 16  1  0  0  0
 20 19  1  0  0  0
 16 17  2  0  0  0
 19 18  2  0  0  0
 17 18  1  0  0  0
 18 22  1  0  0  0
 23 22  2  0  0  0
 22 24  1  0  0  0
 24 25  1  0  0  0
  1  2  1  0  0  0
 12 14  1  0  0  0
M  END
> <minimizedAffinity>
-7.32818

$$$$
4JXS_18U_B_401


 25 26  0  0  0  0  0  0  0  0999 V2000
   81.7359    4.9191   29.3894 N   0  0  0  0  0  0  0  0  0  0  0  0
   81.1431    4.1544   29.0665 H   0  0  0  0  0  0  0  0  0  0  0  0
   81.0445    5.6322   30.7046 S   0  0  0  0  0  0  0  0  0  0  0  0
   81.2316    7.1207   30.6438 O   0  0  0  0  0  0  0  0  0  0  0  0
   79.5789    5.2700   30.7044 O   0  0  0  0  0  0  0  0  0  0  0  0
   81.7773    4.9657   32.1420 C   0  0  0  0  0  0  0  0  0  0  0  0
   81.0321    4.3049   33.0470 C   0  0  0  0  0  0  0  0  0  0  0  0
   81.6923    3.8295   34.1116 C   0  0  0  0  0  0  0  0  0  0  0  0
   83.3280    4.2630   33.9418 S   0  0  0  0  0  0  0  0  0  0  0  0
   83.1280    5.0393   32.4728 C   0  0  0  0  0  0  0  0  0  0  0  0
   84.3029    5.6740   31.7453 C   0  0  0  0  0  0  0  0  0  0  0  0
   84.8357    6.6939   32.2127 O   0  0  0  0  0  0  0  0  0  0  0  0
   84.6675    5.0807   30.7011 O   0  0  0  0  0  0  0  0  0  0  0  0
   84.5025    7.0777   32.9998 H   0  0  0  0  0  0  0  0  0  0  0  0
   81.8864    5.9214   28.3032 C   0  0  0  0  0  0  0  0  0  0  0  0
   80.3406    6.8967   26.5113 C   0  0  0  0  0  0  0  0  0  0  0  0
   79.2957    6.7584   25.5938 C   0  0  0  0  0  0  0  0  0  0  0  0
   78.6627    5.5174   25.4507 C   0  0  0  0  0  0  0  0  0  0  0  0
   79.0696    4.4269   26.2270 C   0  0  0  0  0  0  0  0  0  0  0  0
   80.1128    4.5534   27.1457 C   0  0  0  0  0  0  0  0  0  0  0  0
   80.7452    5.7975   27.2862 C   0  0  0  0  0  0  0  0  0  0  0  0
   77.5325    5.2988   24.4422 C   0  0  0  0  0  0  0  0  0  0  0  0
   77.4132    6.2051   23.6148 O   0  0  0  0  0  0  0  0  0  0  0  0
   76.7835    4.3037   24.4806 O   0  0  0  0  0  0  0  0  0  0  0  0
   76.9167    3.6419   25.1304 H   0  0  0  0  0  0  0  0  0  0  0  0
 13 11  2  0  0  0
  9  8  1  0  0  0
  9 10  1  0  0  0
 11 10  1  0  0  0
 11 12  1  0  0  0
  8  7  2  0  0  0
 10  6  2  0  0  0
  7  6  1  0  0  0
  6  3  1  0  0  0
  3  4  2  0  0  0
  3  1  1  0  0  0
  3  5  2  0  0  0
  1 15  1  0  0  0
 15 21  1  0  0  0
 21 20  2  0  0  0
 21 16  1  0  0  0
 20 19  1  0  0  0
 16 17  2  0  0  0
 19 18  2  0  0  0
 17 18  1  0  0  0
 18 22  1  0  0  0
 23 22  2  0  0  0
 22 24  1  0  0  0
 24 25  1  0  0  0
  1  2  1  0  0  0
 12 14  1  0  0  0
M  END
> <minimizedAffinity>
-7.31891

$$$$
4JXS_18U_B_401


 25 26  0  0  0  0  0  0  0  0999 V2000
   81.1899    5.1528   30.1886 N   0  0  0  0  0  0  0  0  0  0  0  0
   80.9238    4.5736   30.9850 H   0  0  0  0  0  0  0  0  0  0  0  0
   82.5446    6.0131   30.5637 S   0  0  0  0  0  0  0  0  0  0  0  0
   83.5804    5.8407   29.4905 O   0  0  0  0  0  0  0  0  0  0  0  0
   82.1435    7.4621   30.7016 O   0  0  0  0  0  0  0  0  0  0  0  0
   83.1413    5.4568   32.1070 C   0  0  0  0  0  0  0  0  0  0  0  0
   84.4232    5.6634   32.4605 C   0  0  0  0  0  0  0  0  0  0  0  0
   84.7781    5.2011   33.6669 C   0  0  0  0  0  0  0  0  0  0  0  0
   83.4114    4.4640   34.3607 S   0  0  0  0  0  0  0  0  0  0  0  0
   82.3927    4.7902   33.0738 C   0  0  0  0  0  0  0  0  0  0  0  0
   80.9321    4.3670   33.0919 C   0  0  0  0  0  0  0  0  0  0  0  0
   80.6276    3.1998   32.7964 O   0  0  0  0  0  0  0  0  0  0  0  0
   80.1219    5.2608   33.4382 O   0  0  0  0  0  0  0  0  0  0  0  0
   81.2944    2.5905   32.5472 H   0  0  0  0  0  0  0  0  0  0  0  0
   80.0820    6.0881   29.8646 C   0  0  0  0  0  0  0  0  0  0  0  0
   78.9033    6.8441   27.7220 C   0  0  0  0  0  0  0  0  0  0  0  0
   78.4236    6.5835   26.4357 C   0  0  0  0  0  0  0  0  0  0  0  0
   78.5973    5.3100   25.8793 C   0  0  0  0  0  0  0  0  0  0  0  0
   79.2398    4.3050   26.6105 C   0  0  0  0  0  0  0  0  0  0  0  0
   79.7238    4.5546   27.8957 C   0  0  0  0  0  0  0  0  0  0  0  0
   79.5488    5.8313   28.4498 C   0  0  0  0  0  0  0  0  0  0  0  0
   78.1188    4.9746   24.4649 C   0  0  0  0  0  0  0  0  0  0  0  0
   76.9520    4.5802   24.4079 O   0  0  0  0  0  0  0  0  0  0  0  0
   78.8604    5.0655   23.4677 O   0  0  0  0  0  0  0  0  0  0  0  0
   79.7407    5.3714   23.5648 H   0  0  0  0  0  0  0  0  0  0  0  0
 13 11  2  0  0  0
  9  8  1  0  0  0
  9 10  1  0  0  0
 11 10  1  0  0  0
 11 12  1  0  0  0
  8  7  2  0  0  0
 10  6  2  0  0  0
  7  6  1  0  0  0
  6  3  1  0  0  0
  3  4  2  0  0  0
  3  1  1  0  0  0
  3  5  2  0  0  0
  1 15  1  0  0  0
 15 21  1  0  0  0
 21 20  2  0  0  0
 21 16  1  0  0  0
 20 19  1  0  0  0
 16 17  2  0  0  0
 19 18  2  0  0  0
 17 18  1  0  0  0
 18 22  1  0  0  0
 23 22  2  0  0  0
 22 24  1  0  0  0
 24 25  1  0  0  0
  1  2  1  0  0  0
 12 14  1  0  0  0
M  END
> <minimizedAffinity>
-6.97271

$$$$
