6EI5_B5Q_A_301
  RCSB PDB05261800313D
Coordinates from PDB:6EI5:A:301 Model:1 without hydrogens
 31 35  0  0  0  0            999 V2000
  -33.2090  -10.4220  -26.0720   C 0  0  0  0  0  0  0  0  0  0  0  0
  -31.6450  -11.0580  -24.1990   C 0  0  0  0  0  0  0  0  0  0  0  0
  -31.1620  -10.0410  -23.7220   O 0  0  0  0  0  0  0  0  0  0  0  0
  -32.1770   -9.7700  -26.7890   C 0  0  0  0  0  0  0  0  0  0  0  0
  -34.7890   -9.8760  -27.8910   C 0  0  0  0  0  0  0  0  0  0  0  0
  -32.4580   -9.1940  -28.0270   C 0  0  0  0  0  0  0  0  0  0  0  0
  -33.7690   -9.2660  -28.5710   C 0  0  0  0  0  0  0  0  0  0  0  0
  -35.2630  -11.6390  -24.7570   C 0  0  0  0  0  0  0  0  0  0  0  0
  -31.3660   -8.5220  -28.7860   C 0  0  0  0  0  0  0  0  0  0  0  0
  -29.5420  -12.3790  -23.7670   C 0  0  0  0  0  0  0  0  0  0  0  0
  -29.0240  -13.6850  -24.3360   C 0  0  0  0  0  0  0  0  0  0  0  0
  -27.7640  -14.2620  -24.2980   C 0  0  0  0  0  0  0  0  0  0  0  0
  -27.5610  -15.4920  -24.8940   C 0  0  0  0  0  0  0  0  0  0  0  0
  -28.6080  -16.1540  -25.5390   C 0  0  0  0  0  0  0  0  0  0  0  0
  -30.3380   -9.3330  -29.2990   C 0  0  0  0  0  0  0  0  0  0  0  0
  -30.2570   -6.5860  -29.7450   C 0  0  0  0  0  0  0  0  0  0  0  0
  -31.2790   -5.9340  -26.2650   C 0  0  0  0  0  0  0  0  0  0  0  0
  -30.9210  -12.2040  -24.2440   N 0  0  0  0  0  0  0  0  0  0  0  0
  -33.0080  -11.0250  -24.7940   C 0  0  0  0  0  0  0  0  0  0  0  0
  -34.5320  -10.4750  -26.6340   C 0  0  0  0  0  0  0  0  0  0  0  0
  -34.0470  -11.6230  -24.2000   N 0  0  0  0  0  0  0  0  0  0  0  0
  -35.5010  -11.0970  -25.9440   N 0  0  0  0  0  0  0  0  0  0  0  0
  -36.3140  -12.2510  -24.1020   N 0  0  0  0  0  0  0  0  0  0  0  0
  -31.3260  -13.5120  -24.8070   C 0  0  0  0  0  0  0  0  0  0  0  0
  -30.0810  -14.3520  -24.9510   C 0  0  0  0  0  0  0  0  0  0  0  0
  -29.8690  -15.5830  -25.5610   C 0  0  0  0  0  0  0  0  0  0  0  0
  -29.2800   -8.7790  -30.0100   C 0  0  0  0  0  0  0  0  0  0  0  0
  -29.2460   -7.4060  -30.2470   C 0  0  0  0  0  0  0  0  0  0  0  0
  -31.3220   -7.1220  -29.0220   C 0  0  0  0  0  0  0  0  0  0  0  0
  -32.3600   -6.1410  -28.4960   C 0  0  0  0  0  0  0  0  0  0  0  0
  -32.5140   -6.2200  -27.0260   N 0  0  0  0  0  0  0  0  0  0  0  0
 28 27  2  0  0  0  0
 28 16  1  0  0  0  0
 27 15  1  0  0  0  0
 16 29  2  0  0  0  0
 15  9  2  0  0  0  0
 29  9  1  0  0  0  0
 29 30  1  0  0  0  0
  9  6  1  0  0  0  0
  7  6  2  0  0  0  0
  7  5  1  0  0  0  0
 30 31  1  0  0  0  0
  6  4  1  0  0  0  0
  5 20  2  0  0  0  0
 31 17  1  0  0  0  0
  4  1  2  0  0  0  0
 20  1  1  0  0  0  0
 20 22  1  0  0  0  0
  1 19  1  0  0  0  0
 22  8  2  0  0  0  0
 26 14  2  0  0  0  0
 26 25  1  0  0  0  0
 14 13  1  0  0  0  0
 25 24  1  0  0  0  0
 25 11  2  0  0  0  0
 13 12  2  0  0  0  0
 24 18  1  0  0  0  0
 19 21  2  0  0  0  0
 19  2  1  0  0  0  0
  8 21  1  0  0  0  0
  8 23  1  0  0  0  0
 11 12  1  0  0  0  0
 11 10  1  0  0  0  0
 18  2  1  0  0  0  0
 18 10  1  0  0  0  0
  2  3  2  0  0  0  0
A    1
C1
A    2
C2
A    3
O4
A    4
C7
A    5
C9
A    6
C11
A    7
C12
A    8
C13
A    9
C15
A   10
C16
A   11
C19
A   12
C20
A   13
C21
A   14
C22
A   15
C24
A   16
C27
A   17
C31
A   18
N3
A   19
C5
A   20
C6
A   21
N8
A   22
N10
A   23
N14
A   24
C17
A   25
C18
A   26
C23
A   27
C25
A   28
C26
A   29
C28
A   30
C29
A   31
N30
M  END
>  <InstanceId>
6EI5_B5Q_A_301

>  <ChemCompId>
B5Q

>  <PdbId>
6EI5

>  <ChainId>
A

>  <ResidueNumber>
301

>  <InsertionCode>


>  <Model>
1

>  <AltIds>


>  <MissingHeavyAtoms>
0

>  <ObservedFormula>
C25 N5 O

>  <Name>
[2-azanyl-6-[2-(methylaminomethyl)phenyl]quinazolin-4-yl]-(1,3-dihydroisoindol-2-yl)methanone

>  <SystematicName>
[2-azanyl-6-[2-(methylaminomethyl)phenyl]quinazolin-4-yl]-(1,3-dihydroisoindol-2-yl)methanone

>  <Synonyms>


>  <Type>
NON-POLYMER

>  <Formula>
C25 H23 N5 O

>  <MolecularWeight>
409.483

>  <ModifiedDate>
2018-05-25

>  <Parent>


>  <OneLetterCode>


>  <SubcomponentList>


>  <AmbiguousFlag>
N

>  <InChI>
InChI=1S/C25H23N5O/c1-27-13-17-6-4-5-9-20(17)16-10-11-22-21(12-16)23(29-25(26)28-22)24(31)30-14-18-7-2-3-8-19(18)15-30/h2-12,27H,13-15H2,1H3,(H2,26,28,29)

>  <InChIKey>
MNDBIURAICAMAU-UHFFFAOYSA-N

>  <SMILES>
CNCc1ccccc1c2ccc3c(c2)c(nc(n3)N)C(=O)N4Cc5ccccc5C4

$$$$
