6EI5_B5Q_A_301


 34 38  0  0  0  0  0  0  0  0999 V2000
  -33.4705  -10.6049  -25.8164 C   0  0  0  0  0  0  0  0  0  0  0  0
  -32.5290   -9.8886  -26.5940 C   0  0  0  0  0  0  0  0  0  0  0  0
  -35.1797  -10.2039  -27.5545 C   0  0  0  0  0  0  0  0  0  0  0  0
  -32.9165   -9.3530  -27.8213 C   0  0  0  0  0  0  0  0  0  0  0  0
  -34.2450   -9.5298  -28.2941 C   0  0  0  0  0  0  0  0  0  0  0  0
  -35.3562  -11.9517  -24.3814 C   0  0  0  0  0  0  0  0  0  0  0  0
  -33.1585  -11.1728  -24.5446 C   0  0  0  0  0  0  0  0  0  0  0  0
  -34.8133  -10.7640  -26.3067 C   0  0  0  0  0  0  0  0  0  0  0  0
  -34.1174  -11.8376  -23.8900 N   0  0  0  0  0  0  0  0  0  0  0  0
  -35.6957  -11.4461  -25.5597 N   0  0  0  0  0  0  0  0  0  0  0  0
  -36.3229  -12.6304  -23.6651 N   0  0  0  0  0  0  0  0  0  0  0  0
  -37.2348  -12.7147  -24.0263 H   0  0  0  0  0  0  0  0  0  0  0  0
  -36.0999  -13.0298  -22.7933 H   0  0  0  0  0  0  0  0  0  0  0  0
  -31.7676  -11.0961  -24.0225 C   0  0  0  0  0  0  0  0  0  0  0  0
  -31.3319  -10.0350  -23.5989 O   0  0  0  0  0  0  0  0  0  0  0  0
  -29.5592  -12.2588  -23.6688 C   0  0  0  0  0  0  0  0  0  0  0  0
  -28.9825  -13.5434  -24.2301 C   0  0  0  0  0  0  0  0  0  0  0  0
  -27.6854  -14.0327  -24.2442 C   0  0  0  0  0  0  0  0  0  0  0  0
  -27.4291  -15.2635  -24.8176 C   0  0  0  0  0  0  0  0  0  0  0  0
  -28.4599  -16.0136  -25.3882 C   0  0  0  0  0  0  0  0  0  0  0  0
  -30.9697  -12.1915  -24.0760 N   0  0  0  0  0  0  0  0  0  0  0  0
  -31.3121  -13.5401  -24.5819 C   0  0  0  0  0  0  0  0  0  0  0  0
  -30.0213  -14.2982  -24.7700 C   0  0  0  0  0  0  0  0  0  0  0  0
  -29.7566  -15.5298  -25.3579 C   0  0  0  0  0  0  0  0  0  0  0  0
  -31.9189   -8.6129  -28.6443 C   0  0  0  0  0  0  0  0  0  0  0  0
  -30.7537   -9.3015  -29.0260 C   0  0  0  0  0  0  0  0  0  0  0  0
  -31.1017   -6.6601  -29.8344 C   0  0  0  0  0  0  0  0  0  0  0  0
  -29.7724   -8.6762  -29.7862 C   0  0  0  0  0  0  0  0  0  0  0  0
  -29.9522   -7.3589  -30.2044 C   0  0  0  0  0  0  0  0  0  0  0  0
  -32.0933   -7.2674  -29.0649 C   0  0  0  0  0  0  0  0  0  0  0  0
  -33.2965   -6.4126  -28.6932 C   0  0  0  0  0  0  0  0  0  0  0  0
  -34.4508   -6.2307  -26.4971 C   0  0  0  0  0  0  0  0  0  0  0  0
  -33.2386   -5.9395  -27.2919 N   0  0  0  0  0  0  0  0  0  0  0  0
  -33.0991   -4.9291  -27.3021 H   0  0  0  0  0  0  0  0  0  0  0  0
 29 28  2  0  0  0
 29 27  1  0  0  0
 28 26  1  0  0  0
 27 30  2  0  0  0
 26 25  2  0  0  0
 30 25  1  0  0  0
 30 31  1  0  0  0
 25  4  1  0  0  0
  5  4  2  0  0  0
  5  3  1  0  0  0
 31 33  1  0  0  0
  4  2  1  0  0  0
  3  8  2  0  0  0
 33 32  1  0  0  0
  2  1  2  0  0  0
  8  1  1  0  0  0
  8 10  1  0  0  0
  1  7  1  0  0  0
 10  6  2  0  0  0
 24 20  2  0  0  0
 24 23  1  0  0  0
 20 19  1  0  0  0
 23 22  1  0  0  0
 23 17  2  0  0  0
 19 18  2  0  0  0
 22 21  1  0  0  0
  7  9  2  0  0  0
  7 14  1  0  0  0
  6  9  1  0  0  0
  6 11  1  0  0  0
 17 18  1  0  0  0
 17 16  1  0  0  0
 21 14  1  0  0  0
 21 16  1  0  0  0
 14 15  2  0  0  0
 11 12  1  0  0  0
 11 13  1  0  0  0
 33 34  1  0  0  0
M  END
> <minimizedAffinity>
-12.46882

$$$$
6EI5_B5Q_A_301


 34 38  0  0  0  0  0  0  0  0999 V2000
  -32.8002  -12.0056  -24.6285 C   0  0  0  0  0  0  0  0  0  0  0  0
  -31.4631  -12.4643  -24.7061 C   0  0  0  0  0  0  0  0  0  0  0  0
  -33.5670  -14.3433  -24.4046 C   0  0  0  0  0  0  0  0  0  0  0  0
  -31.1996  -13.8310  -24.6287 C   0  0  0  0  0  0  0  0  0  0  0  0
  -32.2638  -14.7589  -24.4657 C   0  0  0  0  0  0  0  0  0  0  0  0
  -35.4059  -11.2182  -24.4885 C   0  0  0  0  0  0  0  0  0  0  0  0
  -33.1559  -10.6258  -24.7124 C   0  0  0  0  0  0  0  0  0  0  0  0
  -33.8645  -12.9607  -24.4745 C   0  0  0  0  0  0  0  0  0  0  0  0
  -34.4487  -10.2934  -24.6218 N   0  0  0  0  0  0  0  0  0  0  0  0
  -35.1276  -12.5122  -24.4015 N   0  0  0  0  0  0  0  0  0  0  0  0
  -36.7309  -10.8344  -24.4173 N   0  0  0  0  0  0  0  0  0  0  0  0
  -37.4358  -11.5147  -24.3192 H   0  0  0  0  0  0  0  0  0  0  0  0
  -36.9704   -9.8807  -24.4646 H   0  0  0  0  0  0  0  0  0  0  0  0
  -32.0898   -9.5924  -24.8035 C   0  0  0  0  0  0  0  0  0  0  0  0
  -31.6544   -9.0726  -23.7859 O   0  0  0  0  0  0  0  0  0  0  0  0
  -30.6586   -8.1344  -26.2801 C   0  0  0  0  0  0  0  0  0  0  0  0
  -30.7433   -7.7794  -27.7513 C   0  0  0  0  0  0  0  0  0  0  0  0
  -30.1243   -6.7806  -28.4871 C   0  0  0  0  0  0  0  0  0  0  0  0
  -30.3674   -6.6856  -29.8440 C   0  0  0  0  0  0  0  0  0  0  0  0
  -31.2339   -7.5786  -30.4781 C   0  0  0  0  0  0  0  0  0  0  0  0
  -31.6492   -9.1886  -26.0210 N   0  0  0  0  0  0  0  0  0  0  0  0
  -32.0807   -9.6771  -27.3503 C   0  0  0  0  0  0  0  0  0  0  0  0
  -31.5855   -8.6929  -28.3810 C   0  0  0  0  0  0  0  0  0  0  0  0
  -31.8377   -8.5851  -29.7438 C   0  0  0  0  0  0  0  0  0  0  0  0
  -29.7900  -14.3093  -24.6952 C   0  0  0  0  0  0  0  0  0  0  0  0
  -29.5611  -15.5783  -25.2563 C   0  0  0  0  0  0  0  0  0  0  0  0
  -27.3982  -14.0831  -24.3411 C   0  0  0  0  0  0  0  0  0  0  0  0
  -28.2749  -16.0975  -25.3450 C   0  0  0  0  0  0  0  0  0  0  0  0
  -27.1897  -15.3439  -24.9012 C   0  0  0  0  0  0  0  0  0  0  0  0
  -28.6818  -13.5490  -24.2355 C   0  0  0  0  0  0  0  0  0  0  0  0
  -28.8056  -12.1777  -23.5869 C   0  0  0  0  0  0  0  0  0  0  0  0
  -27.5238  -10.5066  -22.2628 C   0  0  0  0  0  0  0  0  0  0  0  0
  -27.4868  -11.5806  -23.2783 N   0  0  0  0  0  0  0  0  0  0  0  0
  -27.1035  -11.1917  -24.1398 H   0  0  0  0  0  0  0  0  0  0  0  0
 29 28  2  0  0  0
 29 27  1  0  0  0
 28 26  1  0  0  0
 27 30  2  0  0  0
 26 25  2  0  0  0
 30 25  1  0  0  0
 30 31  1  0  0  0
 25  4  1  0  0  0
  5  4  2  0  0  0
  5  3  1  0  0  0
 31 33  1  0  0  0
  4  2  1  0  0  0
  3  8  2  0  0  0
 33 32  1  0  0  0
  2  1  2  0  0  0
  8  1  1  0  0  0
  8 10  1  0  0  0
  1  7  1  0  0  0
 10  6  2  0  0  0
 24 20  2  0  0  0
 24 23  1  0  0  0
 20 19  1  0  0  0
 23 22  1  0  0  0
 23 17  2  0  0  0
 19 18  2  0  0  0
 22 21  1  0  0  0
  7  9  2  0  0  0
  7 14  1  0  0  0
  6  9  1  0  0  0
  6 11  1  0  0  0
 17 18  1  0  0  0
 17 16  1  0  0  0
 21 14  1  0  0  0
 21 16  1  0  0  0
 14 15  2  0  0  0
 11 12  1  0  0  0
 11 13  1  0  0  0
 33 34  1  0  0  0
M  END
> <minimizedAffinity>
-11.36195

$$$$
6EI5_B5Q_A_301


 34 38  0  0  0  0  0  0  0  0999 V2000
  -32.8554  -10.1062  -25.7647 C   0  0  0  0  0  0  0  0  0  0  0  0
  -31.7466   -9.4756  -26.3789 C   0  0  0  0  0  0  0  0  0  0  0  0
  -34.3160   -9.2370  -27.5575 C   0  0  0  0  0  0  0  0  0  0  0  0
  -31.9325   -8.7510  -27.5552 C   0  0  0  0  0  0  0  0  0  0  0  0
  -33.2241   -8.6508  -28.1398 C   0  0  0  0  0  0  0  0  0  0  0  0
  -35.0513  -11.2696  -24.6450 C   0  0  0  0  0  0  0  0  0  0  0  0
  -32.7528  -10.8547  -24.5537 C   0  0  0  0  0  0  0  0  0  0  0  0
  -34.1566   -9.9842  -26.3654 C   0  0  0  0  0  0  0  0  0  0  0  0
  -33.8595  -11.4183  -24.0562 N   0  0  0  0  0  0  0  0  0  0  0  0
  -35.1991  -10.5878  -25.7732 N   0  0  0  0  0  0  0  0  0  0  0  0
  -36.1733  -11.8524  -24.0887 N   0  0  0  0  0  0  0  0  0  0  0  0
  -37.0507  -11.7433  -24.5217 H   0  0  0  0  0  0  0  0  0  0  0  0
  -36.0956  -12.3770  -23.2592 H   0  0  0  0  0  0  0  0  0  0  0  0
  -31.4202  -11.0688  -23.9283 C   0  0  0  0  0  0  0  0  0  0  0  0
  -30.8807  -10.1597  -23.3138 O   0  0  0  0  0  0  0  0  0  0  0  0
  -29.4410  -12.5959  -23.6045 C   0  0  0  0  0  0  0  0  0  0  0  0
  -29.0012  -13.8593  -24.3174 C   0  0  0  0  0  0  0  0  0  0  0  0
  -27.7907  -14.5350  -24.3155 C   0  0  0  0  0  0  0  0  0  0  0  0
  -27.6581  -15.6948  -25.0548 C   0  0  0  0  0  0  0  0  0  0  0  0
  -28.7263  -16.1872  -25.8078 C   0  0  0  0  0  0  0  0  0  0  0  0
  -30.7834  -12.2545  -24.0956 N   0  0  0  0  0  0  0  0  0  0  0  0
  -31.2637  -13.4472  -24.8295 C   0  0  0  0  0  0  0  0  0  0  0  0
  -30.0809  -14.3596  -25.0415 C   0  0  0  0  0  0  0  0  0  0  0  0
  -29.9389  -15.5194  -25.7946 C   0  0  0  0  0  0  0  0  0  0  0  0
  -30.7608   -8.1015  -28.2073 C   0  0  0  0  0  0  0  0  0  0  0  0
  -30.2510   -8.7020  -29.3723 C   0  0  0  0  0  0  0  0  0  0  0  0
  -29.0573   -6.3816  -28.4016 C   0  0  0  0  0  0  0  0  0  0  0  0
  -29.1543   -8.1606  -30.0325 C   0  0  0  0  0  0  0  0  0  0  0  0
  -28.5652   -6.9907  -29.5563 C   0  0  0  0  0  0  0  0  0  0  0  0
  -30.1511   -6.9145  -27.7205 C   0  0  0  0  0  0  0  0  0  0  0  0
  -30.5954   -6.1901  -26.4579 C   0  0  0  0  0  0  0  0  0  0  0  0
  -29.3339   -4.4064  -25.2680 C   0  0  0  0  0  0  0  0  0  0  0  0
  -30.1589   -4.7759  -26.4380 N   0  0  0  0  0  0  0  0  0  0  0  0
  -30.9907   -4.1855  -26.4408 H   0  0  0  0  0  0  0  0  0  0  0  0
 29 28  2  0  0  0
 29 27  1  0  0  0
 28 26  1  0  0  0
 27 30  2  0  0  0
 26 25  2  0  0  0
 30 25  1  0  0  0
 30 31  1  0  0  0
 25  4  1  0  0  0
  5  4  2  0  0  0
  5  3  1  0  0  0
 31 33  1  0  0  0
  4  2  1  0  0  0
  3  8  2  0  0  0
 33 32  1  0  0  0
  2  1  2  0  0  0
  8  1  1  0  0  0
  8 10  1  0  0  0
  1  7  1  0  0  0
 10  6  2  0  0  0
 24 20  2  0  0  0
 24 23  1  0  0  0
 20 19  1  0  0  0
 23 22  1  0  0  0
 23 17  2  0  0  0
 19 18  2  0  0  0
 22 21  1  0  0  0
  7  9  2  0  0  0
  7 14  1  0  0  0
  6  9  1  0  0  0
  6 11  1  0  0  0
 17 18  1  0  0  0
 17 16  1  0  0  0
 21 14  1  0  0  0
 21 16  1  0  0  0
 14 15  2  0  0  0
 11 12  1  0  0  0
 11 13  1  0  0  0
 33 34  1  0  0  0
M  END
> <minimizedAffinity>
-11.00120

$$$$
6EI5_B5Q_A_301


 34 38  0  0  0  0  0  0  0  0999 V2000
  -32.9564   -9.7200  -25.2911 C   0  0  0  0  0  0  0  0  0  0  0  0
  -31.9221   -8.9059  -25.8123 C   0  0  0  0  0  0  0  0  0  0  0  0
  -34.5797   -8.5480  -26.7384 C   0  0  0  0  0  0  0  0  0  0  0  0
  -32.2235   -7.9442  -26.7755 C   0  0  0  0  0  0  0  0  0  0  0  0
  -33.5580   -7.7853  -27.2378 C   0  0  0  0  0  0  0  0  0  0  0  0
  -35.0154  -11.2272  -24.3328 C   0  0  0  0  0  0  0  0  0  0  0  0
  -32.7346  -10.7175  -24.2945 C   0  0  0  0  0  0  0  0  0  0  0  0
  -34.3026   -9.5368  -25.7635 C   0  0  0  0  0  0  0  0  0  0  0  0
  -33.7781  -11.4398  -23.8711 N   0  0  0  0  0  0  0  0  0  0  0  0
  -35.2736  -10.3160  -25.2614 N   0  0  0  0  0  0  0  0  0  0  0  0
  -36.0691  -11.9824  -23.8558 N   0  0  0  0  0  0  0  0  0  0  0  0
  -36.9799  -11.8264  -24.1953 H   0  0  0  0  0  0  0  0  0  0  0  0
  -35.9092  -12.6767  -23.1764 H   0  0  0  0  0  0  0  0  0  0  0  0
  -31.3516  -10.9941  -23.8214 C   0  0  0  0  0  0  0  0  0  0  0  0
  -30.6916  -10.1018  -23.3084 O   0  0  0  0  0  0  0  0  0  0  0  0
  -29.4391  -12.6296  -23.6741 C   0  0  0  0  0  0  0  0  0  0  0  0
  -29.1606  -13.9387  -24.3859 C   0  0  0  0  0  0  0  0  0  0  0  0
  -27.9993  -14.6872  -24.5001 C   0  0  0  0  0  0  0  0  0  0  0  0
  -28.0224  -15.8748  -25.2061 C   0  0  0  0  0  0  0  0  0  0  0  0
  -29.1990  -16.3231  -25.8103 C   0  0  0  0  0  0  0  0  0  0  0  0
  -30.8085  -12.2213  -24.0175 N   0  0  0  0  0  0  0  0  0  0  0  0
  -31.4404  -13.4038  -24.6454 C   0  0  0  0  0  0  0  0  0  0  0  0
  -30.3456  -14.3932  -24.9598 C   0  0  0  0  0  0  0  0  0  0  0  0
  -30.3610  -15.5818  -25.6805 C   0  0  0  0  0  0  0  0  0  0  0  0
  -31.1301   -7.0996  -27.3332 C   0  0  0  0  0  0  0  0  0  0  0  0
  -30.7728   -5.9438  -26.6162 C   0  0  0  0  0  0  0  0  0  0  0  0
  -29.4237   -6.5559  -28.9735 C   0  0  0  0  0  0  0  0  0  0  0  0
  -29.7687   -5.1005  -27.0770 C   0  0  0  0  0  0  0  0  0  0  0  0
  -29.0822   -5.4137  -28.2488 C   0  0  0  0  0  0  0  0  0  0  0  0
  -30.4340   -7.4095  -28.5320 C   0  0  0  0  0  0  0  0  0  0  0  0
  -30.7478   -8.6150  -29.4065 C   0  0  0  0  0  0  0  0  0  0  0  0
  -32.7834   -8.0742  -30.7304 C   0  0  0  0  0  0  0  0  0  0  0  0
  -31.3127   -8.2262  -30.7182 N   0  0  0  0  0  0  0  0  0  0  0  0
  -31.0606   -8.9427  -31.3990 H   0  0  0  0  0  0  0  0  0  0  0  0
 29 28  2  0  0  0
 29 27  1  0  0  0
 28 26  1  0  0  0
 27 30  2  0  0  0
 26 25  2  0  0  0
 30 25  1  0  0  0
 30 31  1  0  0  0
 25  4  1  0  0  0
  5  4  2  0  0  0
  5  3  1  0  0  0
 31 33  1  0  0  0
  4  2  1  0  0  0
  3  8  2  0  0  0
 33 32  1  0  0  0
  2  1  2  0  0  0
  8  1  1  0  0  0
  8 10  1  0  0  0
  1  7  1  0  0  0
 10  6  2  0  0  0
 24 20  2  0  0  0
 24 23  1  0  0  0
 20 19  1  0  0  0
 23 22  1  0  0  0
 23 17  2  0  0  0
 19 18  2  0  0  0
 22 21  1  0  0  0
  7  9  2  0  0  0
  7 14  1  0  0  0
  6  9  1  0  0  0
  6 11  1  0  0  0
 17 18  1  0  0  0
 17 16  1  0  0  0
 21 14  1  0  0  0
 21 16  1  0  0  0
 14 15  2  0  0  0
 11 12  1  0  0  0
 11 13  1  0  0  0
 33 34  1  0  0  0
M  END
> <minimizedAffinity>
-10.90197

$$$$
6EI5_B5Q_A_301


 34 38  0  0  0  0  0  0  0  0999 V2000
  -30.0861  -10.1095  -23.5410 C   0  0  0  0  0  0  0  0  0  0  0  0
  -30.1609  -11.4178  -24.0766 C   0  0  0  0  0  0  0  0  0  0  0  0
  -27.9036  -10.6711  -22.5289 C   0  0  0  0  0  0  0  0  0  0  0  0
  -29.1231  -12.3179  -23.8397 C   0  0  0  0  0  0  0  0  0  0  0  0
  -27.9933  -11.9248  -23.0723 C   0  0  0  0  0  0  0  0  0  0  0  0
  -29.8629   -7.6198  -22.4542 C   0  0  0  0  0  0  0  0  0  0  0  0
  -31.1107   -9.1330  -23.7258 C   0  0  0  0  0  0  0  0  0  0  0  0
  -28.9398   -9.7336  -22.7577 C   0  0  0  0  0  0  0  0  0  0  0  0
  -30.9426   -7.9213  -23.1839 N   0  0  0  0  0  0  0  0  0  0  0  0
  -28.8813   -8.4897  -22.2565 N   0  0  0  0  0  0  0  0  0  0  0  0
  -29.7363   -6.3626  -21.8961 N   0  0  0  0  0  0  0  0  0  0  0  0
  -28.9418   -6.1402  -21.3589 H   0  0  0  0  0  0  0  0  0  0  0  0
  -30.4405   -5.6889  -22.0355 H   0  0  0  0  0  0  0  0  0  0  0  0
  -32.2846   -9.4473  -24.5836 C   0  0  0  0  0  0  0  0  0  0  0  0
  -33.1517  -10.2078  -24.1774 O   0  0  0  0  0  0  0  0  0  0  0  0
  -33.4075   -9.2057  -26.8275 C   0  0  0  0  0  0  0  0  0  0  0  0
  -32.9015   -8.7272  -28.1739 C   0  0  0  0  0  0  0  0  0  0  0  0
  -33.4373   -8.8487  -29.4468 C   0  0  0  0  0  0  0  0  0  0  0  0
  -32.7676   -8.2968  -30.5220 C   0  0  0  0  0  0  0  0  0  0  0  0
  -31.5559   -7.6264  -30.3404 C   0  0  0  0  0  0  0  0  0  0  0  0
  -32.3556   -8.9351  -25.8374 N   0  0  0  0  0  0  0  0  0  0  0  0
  -31.3911   -8.0317  -26.5048 C   0  0  0  0  0  0  0  0  0  0  0  0
  -31.7088   -8.0344  -27.9797 C   0  0  0  0  0  0  0  0  0  0  0  0
  -31.0317   -7.4924  -29.0661 C   0  0  0  0  0  0  0  0  0  0  0  0
  -29.1977  -13.6892  -24.4178 C   0  0  0  0  0  0  0  0  0  0  0  0
  -27.9988  -14.4174  -24.5180 C   0  0  0  0  0  0  0  0  0  0  0  0
  -30.3758  -15.5810  -25.3826 C   0  0  0  0  0  0  0  0  0  0  0  0
  -27.9857  -15.6994  -25.0547 C   0  0  0  0  0  0  0  0  0  0  0  0
  -29.1770  -16.2889  -25.4739 C   0  0  0  0  0  0  0  0  0  0  0  0
  -30.4079  -14.2906  -24.8552 C   0  0  0  0  0  0  0  0  0  0  0  0
  -31.7607  -13.5939  -24.8221 C   0  0  0  0  0  0  0  0  0  0  0  0
  -33.5763  -13.5245  -23.1229 C   0  0  0  0  0  0  0  0  0  0  0  0
  -32.7641  -14.3513  -24.0409 N   0  0  0  0  0  0  0  0  0  0  0  0
  -32.2734  -15.0537  -23.4875 H   0  0  0  0  0  0  0  0  0  0  0  0
 29 28  2  0  0  0
 29 27  1  0  0  0
 28 26  1  0  0  0
 27 30  2  0  0  0
 26 25  2  0  0  0
 30 25  1  0  0  0
 30 31  1  0  0  0
 25  4  1  0  0  0
  5  4  2  0  0  0
  5  3  1  0  0  0
 31 33  1  0  0  0
  4  2  1  0  0  0
  3  8  2  0  0  0
 33 32  1  0  0  0
  2  1  2  0  0  0
  8  1  1  0  0  0
  8 10  1  0  0  0
  1  7  1  0  0  0
 10  6  2  0  0  0
 24 20  2  0  0  0
 24 23  1  0  0  0
 20 19  1  0  0  0
 23 22  1  0  0  0
 23 17  2  0  0  0
 19 18  2  0  0  0
 22 21  1  0  0  0
  7  9  2  0  0  0
  7 14  1  0  0  0
  6  9  1  0  0  0
  6 11  1  0  0  0
 17 18  1  0  0  0
 17 16  1  0  0  0
 21 14  1  0  0  0
 21 16  1  0  0  0
 14 15  2  0  0  0
 11 12  1  0  0  0
 11 13  1  0  0  0
 33 34  1  0  0  0
M  END
> <minimizedAffinity>
-10.88866

$$$$
6EI5_B5Q_A_301


 34 38  0  0  0  0  0  0  0  0999 V2000
  -32.9337  -12.0028  -24.9967 C   0  0  0  0  0  0  0  0  0  0  0  0
  -31.6124  -12.4980  -25.1118 C   0  0  0  0  0  0  0  0  0  0  0  0
  -33.5868  -14.0777  -23.8255 C   0  0  0  0  0  0  0  0  0  0  0  0
  -31.3000  -13.7516  -24.5880 C   0  0  0  0  0  0  0  0  0  0  0  0
  -32.2976  -14.5257  -23.9358 C   0  0  0  0  0  0  0  0  0  0  0  0
  -35.5072  -11.1411  -24.7441 C   0  0  0  0  0  0  0  0  0  0  0  0
  -33.3386  -10.7368  -25.5169 C   0  0  0  0  0  0  0  0  0  0  0  0
  -33.9322  -12.8057  -24.3430 C   0  0  0  0  0  0  0  0  0  0  0  0
  -34.6104  -10.3559  -25.3510 N   0  0  0  0  0  0  0  0  0  0  0  0
  -35.1808  -12.3238  -24.2400 N   0  0  0  0  0  0  0  0  0  0  0  0
  -36.8154  -10.7185  -24.6096 N   0  0  0  0  0  0  0  0  0  0  0  0
  -37.4759  -11.2960  -24.1630 H   0  0  0  0  0  0  0  0  0  0  0  0
  -37.0873   -9.8397  -24.9604 H   0  0  0  0  0  0  0  0  0  0  0  0
  -32.3308   -9.8383  -26.1414 C   0  0  0  0  0  0  0  0  0  0  0  0
  -31.9475  -10.0505  -27.2830 O   0  0  0  0  0  0  0  0  0  0  0  0
  -30.7470   -7.8970  -25.8638 C   0  0  0  0  0  0  0  0  0  0  0  0
  -30.2177   -7.1811  -24.6370 C   0  0  0  0  0  0  0  0  0  0  0  0
  -29.1557   -6.3042  -24.4783 C   0  0  0  0  0  0  0  0  0  0  0  0
  -28.8937   -5.7722  -23.2302 C   0  0  0  0  0  0  0  0  0  0  0  0
  -29.6814   -6.1143  -22.1289 C   0  0  0  0  0  0  0  0  0  0  0  0
  -31.7974   -8.8230  -25.4175 N   0  0  0  0  0  0  0  0  0  0  0  0
  -32.1128   -8.4390  -24.0229 C   0  0  0  0  0  0  0  0  0  0  0  0
  -31.0268   -7.5044  -23.5502 C   0  0  0  0  0  0  0  0  0  0  0  0
  -30.7513   -6.9773  -22.2938 C   0  0  0  0  0  0  0  0  0  0  0  0
  -29.9048  -14.2631  -24.6972 C   0  0  0  0  0  0  0  0  0  0  0  0
  -29.7229  -15.5350  -25.2689 C   0  0  0  0  0  0  0  0  0  0  0  0
  -27.4989  -14.0956  -24.4125 C   0  0  0  0  0  0  0  0  0  0  0  0
  -28.4526  -16.0844  -25.3969 C   0  0  0  0  0  0  0  0  0  0  0  0
  -27.3372  -15.3587  -24.9825 C   0  0  0  0  0  0  0  0  0  0  0  0
  -28.7657  -13.5313  -24.2677 C   0  0  0  0  0  0  0  0  0  0  0  0
  -28.8376  -12.1600  -23.6113 C   0  0  0  0  0  0  0  0  0  0  0  0
  -26.9651  -10.5489  -23.3164 C   0  0  0  0  0  0  0  0  0  0  0  0
  -27.5927  -11.8172  -22.8877 N   0  0  0  0  0  0  0  0  0  0  0  0
  -26.9210  -12.5707  -23.0342 H   0  0  0  0  0  0  0  0  0  0  0  0
 29 28  2  0  0  0
 29 27  1  0  0  0
 28 26  1  0  0  0
 27 30  2  0  0  0
 26 25  2  0  0  0
 30 25  1  0  0  0
 30 31  1  0  0  0
 25  4  1  0  0  0
  5  4  2  0  0  0
  5  3  1  0  0  0
 31 33  1  0  0  0
  4  2  1  0  0  0
  3  8  2  0  0  0
 33 32  1  0  0  0
  2  1  2  0  0  0
  8  1  1  0  0  0
  8 10  1  0  0  0
  1  7  1  0  0  0
 10  6  2  0  0  0
 24 20  2  0  0  0
 24 23  1  0  0  0
 20 19  1  0  0  0
 23 22  1  0  0  0
 23 17  2  0  0  0
 19 18  2  0  0  0
 22 21  1  0  0  0
  7  9  2  0  0  0
  7 14  1  0  0  0
  6  9  1  0  0  0
  6 11  1  0  0  0
 17 18  1  0  0  0
 17 16  1  0  0  0
 21 14  1  0  0  0
 21 16  1  0  0  0
 14 15  2  0  0  0
 11 12  1  0  0  0
 11 13  1  0  0  0
 33 34  1  0  0  0
M  END
> <minimizedAffinity>
-10.84902

$$$$
6EI5_B5Q_A_301


 34 38  0  0  0  0  0  0  0  0999 V2000
  -29.6242  -11.4579  -23.4240 C   0  0  0  0  0  0  0  0  0  0  0  0
  -31.0196  -11.5236  -23.1943 C   0  0  0  0  0  0  0  0  0  0  0  0
  -29.7238  -13.6644  -24.5307 C   0  0  0  0  0  0  0  0  0  0  0  0
  -31.7367  -12.6362  -23.6317 C   0  0  0  0  0  0  0  0  0  0  0  0
  -31.0749  -13.6951  -24.3103 C   0  0  0  0  0  0  0  0  0  0  0  0
  -26.9397  -11.4286  -23.8946 C   0  0  0  0  0  0  0  0  0  0  0  0
  -28.8158  -10.3617  -22.9972 C   0  0  0  0  0  0  0  0  0  0  0  0
  -28.9704  -12.5444  -24.1029 C   0  0  0  0  0  0  0  0  0  0  0  0
  -27.5060  -10.3911  -23.2684 N   0  0  0  0  0  0  0  0  0  0  0  0
  -27.6470  -12.4689  -24.3149 N   0  0  0  0  0  0  0  0  0  0  0  0
  -25.5801  -11.4285  -24.1391 N   0  0  0  0  0  0  0  0  0  0  0  0
  -25.1628  -12.1918  -24.5999 H   0  0  0  0  0  0  0  0  0  0  0  0
  -25.0285  -10.6651  -23.8525 H   0  0  0  0  0  0  0  0  0  0  0  0
  -29.4520   -9.1821  -22.3517 C   0  0  0  0  0  0  0  0  0  0  0  0
  -29.5517   -9.1320  -21.1340 O   0  0  0  0  0  0  0  0  0  0  0  0
  -30.6919   -7.0068  -22.6426 C   0  0  0  0  0  0  0  0  0  0  0  0
  -31.3935   -6.3851  -23.8339 C   0  0  0  0  0  0  0  0  0  0  0  0
  -32.2912   -5.3320  -23.9180 C   0  0  0  0  0  0  0  0  0  0  0  0
  -32.7766   -4.9492  -25.1537 C   0  0  0  0  0  0  0  0  0  0  0  0
  -32.3785   -5.6158  -26.3146 C   0  0  0  0  0  0  0  0  0  0  0  0
  -29.9731   -8.1954  -23.1226 N   0  0  0  0  0  0  0  0  0  0  0  0
  -29.9747   -8.1030  -24.6002 C   0  0  0  0  0  0  0  0  0  0  0  0
  -30.9680   -7.0361  -24.9895 C   0  0  0  0  0  0  0  0  0  0  0  0
  -31.4693   -6.6563  -26.2292 C   0  0  0  0  0  0  0  0  0  0  0  0
  -33.2077  -12.6951  -23.4019 C   0  0  0  0  0  0  0  0  0  0  0  0
  -33.6548  -13.2881  -22.2077 C   0  0  0  0  0  0  0  0  0  0  0  0
  -35.5218  -12.2794  -24.0099 C   0  0  0  0  0  0  0  0  0  0  0  0
  -35.0121  -13.3885  -21.9257 C   0  0  0  0  0  0  0  0  0  0  0  0
  -35.9472  -12.8705  -22.8199 C   0  0  0  0  0  0  0  0  0  0  0  0
  -34.1650  -12.1771  -24.3145 C   0  0  0  0  0  0  0  0  0  0  0  0
  -33.8051  -11.5385  -25.6484 C   0  0  0  0  0  0  0  0  0  0  0  0
  -35.1523  -10.6671  -27.5495 C   0  0  0  0  0  0  0  0  0  0  0  0
  -34.8083  -11.8259  -26.6981 N   0  0  0  0  0  0  0  0  0  0  0  0
  -35.6612  -12.1517  -26.2433 H   0  0  0  0  0  0  0  0  0  0  0  0
 29 28  2  0  0  0
 29 27  1  0  0  0
 28 26  1  0  0  0
 27 30  2  0  0  0
 26 25  2  0  0  0
 30 25  1  0  0  0
 30 31  1  0  0  0
 25  4  1  0  0  0
  5  4  2  0  0  0
  5  3  1  0  0  0
 31 33  1  0  0  0
  4  2  1  0  0  0
  3  8  2  0  0  0
 33 32  1  0  0  0
  2  1  2  0  0  0
  8  1  1  0  0  0
  8 10  1  0  0  0
  1  7  1  0  0  0
 10  6  2  0  0  0
 24 20  2  0  0  0
 24 23  1  0  0  0
 20 19  1  0  0  0
 23 22  1  0  0  0
 23 17  2  0  0  0
 19 18  2  0  0  0
 22 21  1  0  0  0
  7  9  2  0  0  0
  7 14  1  0  0  0
  6  9  1  0  0  0
  6 11  1  0  0  0
 17 18  1  0  0  0
 17 16  1  0  0  0
 21 14  1  0  0  0
 21 16  1  0  0  0
 14 15  2  0  0  0
 11 12  1  0  0  0
 11 13  1  0  0  0
 33 34  1  0  0  0
M  END
> <minimizedAffinity>
-10.71225

$$$$
6EI5_B5Q_A_301


 34 38  0  0  0  0  0  0  0  0999 V2000
  -30.0447  -10.3285  -23.6098 C   0  0  0  0  0  0  0  0  0  0  0  0
  -30.2035  -11.6207  -24.1658 C   0  0  0  0  0  0  0  0  0  0  0  0
  -27.8516  -11.0122  -22.7009 C   0  0  0  0  0  0  0  0  0  0  0  0
  -29.2008  -12.5730  -23.9895 C   0  0  0  0  0  0  0  0  0  0  0  0
  -28.0231  -12.2489  -23.2631 C   0  0  0  0  0  0  0  0  0  0  0  0
  -29.6588   -7.8748  -22.4874 C   0  0  0  0  0  0  0  0  0  0  0  0
  -31.0283   -9.3016  -23.7332 C   0  0  0  0  0  0  0  0  0  0  0  0
  -28.8505  -10.0228  -22.8685 C   0  0  0  0  0  0  0  0  0  0  0  0
  -30.7807   -8.1105  -23.1766 N   0  0  0  0  0  0  0  0  0  0  0  0
  -28.7124   -8.7935  -22.3473 N   0  0  0  0  0  0  0  0  0  0  0  0
  -29.4497   -6.6365  -21.9120 N   0  0  0  0  0  0  0  0  0  0  0  0
  -28.6241   -6.4625  -21.4047 H   0  0  0  0  0  0  0  0  0  0  0  0
  -30.1263   -5.9279  -22.0093 H   0  0  0  0  0  0  0  0  0  0  0  0
  -32.2502   -9.5432  -24.5466 C   0  0  0  0  0  0  0  0  0  0  0  0
  -33.1487  -10.2453  -24.1053 O   0  0  0  0  0  0  0  0  0  0  0  0
  -33.4358   -9.2376  -26.7501 C   0  0  0  0  0  0  0  0  0  0  0  0
  -32.9494   -8.7969  -28.1164 C   0  0  0  0  0  0  0  0  0  0  0  0
  -33.5375   -8.8880  -29.3685 C   0  0  0  0  0  0  0  0  0  0  0  0
  -32.8733   -8.3836  -30.4702 C   0  0  0  0  0  0  0  0  0  0  0  0
  -31.6156   -7.7914  -30.3359 C   0  0  0  0  0  0  0  0  0  0  0  0
  -32.3337   -9.0315  -25.7999 N   0  0  0  0  0  0  0  0  0  0  0  0
  -31.3384   -8.1938  -26.5065 C   0  0  0  0  0  0  0  0  0  0  0  0
  -31.7087   -8.1810  -27.9690 C   0  0  0  0  0  0  0  0  0  0  0  0
  -31.0382   -7.6870  -29.0820 C   0  0  0  0  0  0  0  0  0  0  0  0
  -29.3643  -13.9272  -24.5891 C   0  0  0  0  0  0  0  0  0  0  0  0
  -30.6750  -14.3767  -24.8292 C   0  0  0  0  0  0  0  0  0  0  0  0
  -28.5282  -16.0204  -25.4928 C   0  0  0  0  0  0  0  0  0  0  0  0
  -30.9093  -15.6320  -25.3778 C   0  0  0  0  0  0  0  0  0  0  0  0
  -29.8353  -16.4498  -25.7245 C   0  0  0  0  0  0  0  0  0  0  0  0
  -28.2731  -14.7681  -24.9354 C   0  0  0  0  0  0  0  0  0  0  0  0
  -26.8144  -14.4036  -24.6994 C   0  0  0  0  0  0  0  0  0  0  0  0
  -25.1590  -15.1379  -26.4051 C   0  0  0  0  0  0  0  0  0  0  0  0
  -25.8887  -15.4625  -25.1608 N   0  0  0  0  0  0  0  0  0  0  0  0
  -26.4304  -16.3117  -25.3212 H   0  0  0  0  0  0  0  0  0  0  0  0
 29 28  2  0  0  0
 29 27  1  0  0  0
 28 26  1  0  0  0
 27 30  2  0  0  0
 26 25  2  0  0  0
 30 25  1  0  0  0
 30 31  1  0  0  0
 25  4  1  0  0  0
  5  4  2  0  0  0
  5  3  1  0  0  0
 31 33  1  0  0  0
  4  2  1  0  0  0
  3  8  2  0  0  0
 33 32  1  0  0  0
  2  1  2  0  0  0
  8  1  1  0  0  0
  8 10  1  0  0  0
  1  7  1  0  0  0
 10  6  2  0  0  0
 24 20  2  0  0  0
 24 23  1  0  0  0
 20 19  1  0  0  0
 23 22  1  0  0  0
 23 17  2  0  0  0
 19 18  2  0  0  0
 22 21  1  0  0  0
  7  9  2  0  0  0
  7 14  1  0  0  0
  6  9  1  0  0  0
  6 11  1  0  0  0
 17 18  1  0  0  0
 17 16  1  0  0  0
 21 14  1  0  0  0
 21 16  1  0  0  0
 14 15  2  0  0  0
 11 12  1  0  0  0
 11 13  1  0  0  0
 33 34  1  0  0  0
M  END
> <minimizedAffinity>
-10.22179

$$$$
6EI5_B5Q_A_301


 34 38  0  0  0  0  0  0  0  0999 V2000
  -30.4433   -8.6009  -24.3315 C   0  0  0  0  0  0  0  0  0  0  0  0
  -30.8382   -8.5406  -25.6897 C   0  0  0  0  0  0  0  0  0  0  0  0
  -29.5443   -6.3070  -24.5129 C   0  0  0  0  0  0  0  0  0  0  0  0
  -30.5898   -7.3839  -26.4271 C   0  0  0  0  0  0  0  0  0  0  0  0
  -29.9513   -6.2689  -25.8197 C   0  0  0  0  0  0  0  0  0  0  0  0
  -29.6307   -8.6314  -21.7300 C   0  0  0  0  0  0  0  0  0  0  0  0
  -30.6486   -9.7510  -23.5115 C   0  0  0  0  0  0  0  0  0  0  0  0
  -29.7885   -7.4663  -23.7375 C   0  0  0  0  0  0  0  0  0  0  0  0
  -30.2447   -9.7062  -22.2368 N   0  0  0  0  0  0  0  0  0  0  0  0
  -29.4200   -7.5366  -22.4486 N   0  0  0  0  0  0  0  0  0  0  0  0
  -29.2122   -8.6324  -20.4135 N   0  0  0  0  0  0  0  0  0  0  0  0
  -28.7602   -7.8416  -20.0400 H   0  0  0  0  0  0  0  0  0  0  0  0
  -29.3659   -9.4241  -19.8488 H   0  0  0  0  0  0  0  0  0  0  0  0
  -31.3814  -10.9253  -24.0562 C   0  0  0  0  0  0  0  0  0  0  0  0
  -32.6035  -10.9176  -24.0969 O   0  0  0  0  0  0  0  0  0  0  0  0
  -31.2675  -13.2834  -24.9398 C   0  0  0  0  0  0  0  0  0  0  0  0
  -30.1707  -14.3295  -24.9139 C   0  0  0  0  0  0  0  0  0  0  0  0
  -30.2040  -15.6940  -25.1567 C   0  0  0  0  0  0  0  0  0  0  0  0
  -29.0352  -16.4270  -25.0803 C   0  0  0  0  0  0  0  0  0  0  0  0
  -27.8256  -15.8096  -24.7544 C   0  0  0  0  0  0  0  0  0  0  0  0
  -30.6902  -12.0241  -24.4491 N   0  0  0  0  0  0  0  0  0  0  0  0
  -29.2234  -12.2248  -24.4408 C   0  0  0  0  0  0  0  0  0  0  0  0
  -28.9637  -13.7005  -24.6176 C   0  0  0  0  0  0  0  0  0  0  0  0
  -27.7926  -14.4441  -24.5286 C   0  0  0  0  0  0  0  0  0  0  0  0
  -31.0206   -7.3181  -27.8520 C   0  0  0  0  0  0  0  0  0  0  0  0
  -30.1013   -7.7421  -28.8281 C   0  0  0  0  0  0  0  0  0  0  0  0
  -32.6127   -6.8401  -29.6224 C   0  0  0  0  0  0  0  0  0  0  0  0
  -30.4261   -7.7021  -30.1789 C   0  0  0  0  0  0  0  0  0  0  0  0
  -31.6883   -7.2651  -30.5770 C   0  0  0  0  0  0  0  0  0  0  0  0
  -32.3023   -6.8646  -28.2632 C   0  0  0  0  0  0  0  0  0  0  0  0
  -33.3694   -6.3568  -27.3041 C   0  0  0  0  0  0  0  0  0  0  0  0
  -34.4178   -7.5897  -25.4147 C   0  0  0  0  0  0  0  0  0  0  0  0
  -34.2991   -7.4274  -26.8795 N   0  0  0  0  0  0  0  0  0  0  0  0
  -33.9703   -8.3095  -27.2724 H   0  0  0  0  0  0  0  0  0  0  0  0
 29 28  2  0  0  0
 29 27  1  0  0  0
 28 26  1  0  0  0
 27 30  2  0  0  0
 26 25  2  0  0  0
 30 25  1  0  0  0
 30 31  1  0  0  0
 25  4  1  0  0  0
  5  4  2  0  0  0
  5  3  1  0  0  0
 31 33  1  0  0  0
  4  2  1  0  0  0
  3  8  2  0  0  0
 33 32  1  0  0  0
  2  1  2  0  0  0
  8  1  1  0  0  0
  8 10  1  0  0  0
  1  7  1  0  0  0
 10  6  2  0  0  0
 24 20  2  0  0  0
 24 23  1  0  0  0
 20 19  1  0  0  0
 23 22  1  0  0  0
 23 17  2  0  0  0
 19 18  2  0  0  0
 22 21  1  0  0  0
  7  9  2  0  0  0
  7 14  1  0  0  0
  6  9  1  0  0  0
  6 11  1  0  0  0
 17 18  1  0  0  0
 17 16  1  0  0  0
 21 14  1  0  0  0
 21 16  1  0  0  0
 14 15  2  0  0  0
 11 12  1  0  0  0
 11 13  1  0  0  0
 33 34  1  0  0  0
M  END
> <minimizedAffinity>
-10.15943

$$$$
6EI5_B5Q_A_301


 34 38  0  0  0  0  0  0  0  0999 V2000
  -30.5274   -8.5738  -24.4057 C   0  0  0  0  0  0  0  0  0  0  0  0
  -30.9414   -8.5280  -25.7588 C   0  0  0  0  0  0  0  0  0  0  0  0
  -29.6749   -6.2641  -24.6102 C   0  0  0  0  0  0  0  0  0  0  0  0
  -30.7250   -7.3705  -26.5050 C   0  0  0  0  0  0  0  0  0  0  0  0
  -30.0999   -6.2405  -25.9117 C   0  0  0  0  0  0  0  0  0  0  0  0
  -29.6798   -8.5754  -21.8152 C   0  0  0  0  0  0  0  0  0  0  0  0
  -30.6997   -9.7234  -23.5774 C   0  0  0  0  0  0  0  0  0  0  0  0
  -29.8866   -7.4239  -23.8260 C   0  0  0  0  0  0  0  0  0  0  0  0
  -30.2798   -9.6644  -22.3085 N   0  0  0  0  0  0  0  0  0  0  0  0
  -29.4997   -7.4805  -22.5419 N   0  0  0  0  0  0  0  0  0  0  0  0
  -29.2439   -8.5618  -20.5045 N   0  0  0  0  0  0  0  0  0  0  0  0
  -28.8023   -7.7606  -20.1409 H   0  0  0  0  0  0  0  0  0  0  0  0
  -29.3749   -9.3534  -19.9339 H   0  0  0  0  0  0  0  0  0  0  0  0
  -31.4170  -10.9143  -24.1067 C   0  0  0  0  0  0  0  0  0  0  0  0
  -32.6390  -10.9224  -24.1487 O   0  0  0  0  0  0  0  0  0  0  0  0
  -31.2724  -13.2828  -24.9573 C   0  0  0  0  0  0  0  0  0  0  0  0
  -30.1627  -14.3145  -24.9156 C   0  0  0  0  0  0  0  0  0  0  0  0
  -30.1785  -15.6826  -25.1395 C   0  0  0  0  0  0  0  0  0  0  0  0
  -29.0007  -16.3997  -25.0517 C   0  0  0  0  0  0  0  0  0  0  0  0
  -27.7993  -15.7628  -24.7330 C   0  0  0  0  0  0  0  0  0  0  0  0
  -30.7116  -12.0097  -24.4835 N   0  0  0  0  0  0  0  0  0  0  0  0
  -29.2424  -12.1917  -24.4707 C   0  0  0  0  0  0  0  0  0  0  0  0
  -28.9640  -13.6664  -24.6268 C   0  0  0  0  0  0  0  0  0  0  0  0
  -27.7838  -14.3940  -24.5262 C   0  0  0  0  0  0  0  0  0  0  0  0
  -31.1758   -7.3202  -27.9243 C   0  0  0  0  0  0  0  0  0  0  0  0
  -32.5108   -6.9517  -28.1685 C   0  0  0  0  0  0  0  0  0  0  0  0
  -30.8437   -7.5365  -30.3203 C   0  0  0  0  0  0  0  0  0  0  0  0
  -33.0083   -6.8908  -29.4648 C   0  0  0  0  0  0  0  0  0  0  0  0
  -32.1708   -7.1685  -30.5437 C   0  0  0  0  0  0  0  0  0  0  0  0
  -30.3288   -7.6116  -29.0267 C   0  0  0  0  0  0  0  0  0  0  0  0
  -28.8768   -8.0465  -28.8878 C   0  0  0  0  0  0  0  0  0  0  0  0
  -27.6423   -6.0941  -29.8113 C   0  0  0  0  0  0  0  0  0  0  0  0
  -27.9716   -6.9063  -28.6205 N   0  0  0  0  0  0  0  0  0  0  0  0
  -27.1018   -7.2736  -28.2346 H   0  0  0  0  0  0  0  0  0  0  0  0
 29 28  2  0  0  0
 29 27  1  0  0  0
 28 26  1  0  0  0
 27 30  2  0  0  0
 26 25  2  0  0  0
 30 25  1  0  0  0
 30 31  1  0  0  0
 25  4  1  0  0  0
  5  4  2  0  0  0
  5  3  1  0  0  0
 31 33  1  0  0  0
  4  2  1  0  0  0
  3  8  2  0  0  0
 33 32  1  0  0  0
  2  1  2  0  0  0
  8  1  1  0  0  0
  8 10  1  0  0  0
  1  7  1  0  0  0
 10  6  2  0  0  0
 24 20  2  0  0  0
 24 23  1  0  0  0
 20 19  1  0  0  0
 23 22  1  0  0  0
 23 17  2  0  0  0
 19 18  2  0  0  0
 22 21  1  0  0  0
  7  9  2  0  0  0
  7 14  1  0  0  0
  6  9  1  0  0  0
  6 11  1  0  0  0
 17 18  1  0  0  0
 17 16  1  0  0  0
 21 14  1  0  0  0
 21 16  1  0  0  0
 14 15  2  0  0  0
 11 12  1  0  0  0
 11 13  1  0  0  0
 33 34  1  0  0  0
M  END
> <minimizedAffinity>
-9.78750

$$$$
