3O8P_BMU_A_361
  RCSB PDB12061710023D
Coordinates from PDB:3O8P:A:361 Model:1 without hydrogens
 21 22  0  0  0  0            999 V2000
   -0.8030   -2.9520  -14.5390   C 0  0  0  0  0  0  0  0  0  0  0  0
    0.0310   -2.3730  -15.2310   O 0  0  0  0  0  0  0  0  0  0  0  0
   -2.1040   -3.0490  -14.8690   N 0  0  0  0  0  0  0  0  0  0  0  0
   -2.7360   -2.3890  -15.8820   C 0  0  0  0  0  0  0  0  0  0  0  0
   -4.0960   -2.0840  -15.7160   C 0  0  0  0  0  0  0  0  0  0  0  0
   -4.8160   -1.4230  -16.7190   C 0  0  0  0  0  0  0  0  0  0  0  0
   -4.1630   -1.0680  -17.9120   C 0  0  0  0  0  0  0  0  0  0  0  0
   -5.0820   -0.2270  -19.2070  Cl 0  0  0  0  0  0  0  0  0  0  0  0
   -2.8090   -1.3880  -18.0990   C 0  0  0  0  0  0  0  0  0  0  0  0
   -2.0950   -2.0430  -17.0800   C 0  0  0  0  0  0  0  0  0  0  0  0
   -0.4560   -3.5630  -13.3910   N 0  0  0  0  0  0  0  0  0  0  0  0
    0.7040   -3.3750  -12.7410   C 0  0  0  0  0  0  0  0  0  0  0  0
    1.4390   -2.2490  -12.3970   C 0  0  0  0  0  0  0  0  0  0  0  0
    2.5270   -2.7860  -11.7150   C 0  0  0  0  0  0  0  0  0  0  0  0
    2.4910   -4.1290  -11.5890   N 0  0  0  0  0  0  0  0  0  0  0  0
    1.3080   -4.4800  -12.2600   N 0  0  0  0  0  0  0  0  0  0  0  0
    1.0360   -5.9370  -12.2970   C 0  0  0  0  0  0  0  0  0  0  0  0
    3.0350   -1.0780  -10.0050   C 0  0  0  0  0  0  0  0  0  0  0  0
    4.2430   -1.0760  -12.2520   C 0  0  0  0  0  0  0  0  0  0  0  0
    4.7300   -2.7900  -10.5330   C 0  0  0  0  0  0  0  0  0  0  0  0
    3.6270   -1.9280  -11.1360   C 0  0  0  0  0  0  0  0  0  0  0  0
  1  2  2  0  0  0  0
  1  3  1  0  0  0  0
  1 11  1  0  0  0  0
  3  4  1  0  0  0  0
  4  5  2  0  0  0  0
  4 10  1  0  0  0  0
  5  6  1  0  0  0  0
  6  7  2  0  0  0  0
  7  8  1  0  0  0  0
  7  9  1  0  0  0  0
  9 10  2  0  0  0  0
 11 12  1  0  0  0  0
 12 13  2  0  0  0  0
 12 16  1  0  0  0  0
 13 14  1  0  0  0  0
 14 15  2  0  0  0  0
 14 21  1  0  0  0  0
 15 16  1  0  0  0  0
 16 17  1  0  0  0  0
 18 21  1  0  0  0  0
 19 21  1  0  0  0  0
 20 21  1  0  0  0  0
A    1
C1
A    2
O1
A    3
N2
A    4
C3
A    5
C4
A    6
C5
A    7
C6
A    8
CL6
A    9
C7
A   10
C8
A   11
N9
A   12
C10
A   13
C14
A   14
C13
A   15
N12
A   16
N11
A   17
C15
A   18
C17
A   19
C18
A   20
C19
A   21
C16
M  END
>  <InstanceId>
3O8P_BMU_A_361

>  <ChemCompId>
BMU

>  <PdbId>
3O8P

>  <ChainId>
A

>  <ResidueNumber>
361

>  <InsertionCode>


>  <Model>
1

>  <AltIds>


>  <MissingHeavyAtoms>
0

>  <ObservedFormula>
C15 N4 O Cl

>  <Name>
1-(5-TERT-BUTYL-2-METHYL-2H-PYRAZOL-3-YL)-3-(4-CHLORO-PHENYL)-UREA

>  <SystematicName>
3-(5-tert-butyl-2-methyl-pyrazol-3-yl)-1-(4-chlorophenyl)urea

>  <Synonyms>


>  <Type>
NON-POLYMER

>  <Formula>
C15 H19 Cl N4 O

>  <MolecularWeight>
306.791

>  <ModifiedDate>
2011-06-04

>  <Parent>


>  <OneLetterCode>


>  <SubcomponentList>


>  <AmbiguousFlag>
N

>  <InChI>
InChI=1S/C15H19ClN4O/c1-15(2,3)12-9-13(20(4)19-12)18-14(21)17-11-7-5-10(16)6-8-11/h5-9H,1-4H3,(H2,17,18,21)

>  <InChIKey>
FWIJKWMXNHRSRO-UHFFFAOYSA-N

>  <SMILES>
CC(C)(C)c1cc(n(n1)C)NC(=O)Nc2ccc(cc2)Cl

$$$$
