3O8P_BMU_A_361


 23 24  0  0  0  0  0  0  0  0999 V2000
   -0.8844   -2.9146  -14.6086 C   0  0  0  0  0  0  0  0  0  0  0  0
   -0.1051   -2.1956  -15.2294 O   0  0  0  0  0  0  0  0  0  0  0  0
   -2.1539   -3.1406  -14.9936 N   0  0  0  0  0  0  0  0  0  0  0  0
   -0.5017   -3.5582  -13.4901 N   0  0  0  0  0  0  0  0  0  0  0  0
   -2.6443   -3.8450  -14.5114 H   0  0  0  0  0  0  0  0  0  0  0  0
   -1.0779   -4.2869  -13.1642 H   0  0  0  0  0  0  0  0  0  0  0  0
   -2.8294   -2.4911  -15.9851 C   0  0  0  0  0  0  0  0  0  0  0  0
   -3.9658   -1.7499  -15.6258 C   0  0  0  0  0  0  0  0  0  0  0  0
   -4.7200   -1.0701  -16.5904 C   0  0  0  0  0  0  0  0  0  0  0  0
   -4.3322   -1.1406  -17.9396 C   0  0  0  0  0  0  0  0  0  0  0  0
   -5.2995   -0.2780  -19.1842 Cl  0  0  0  0  0  0  0  0  0  0  0  0
   -3.2109   -1.8975  -18.3142 C   0  0  0  0  0  0  0  0  0  0  0  0
   -2.4564   -2.5671  -17.3346 C   0  0  0  0  0  0  0  0  0  0  0  0
    0.6073   -3.2806  -12.7855 C   0  0  0  0  0  0  0  0  0  0  0  0
    1.1614   -2.1077  -12.2919 C   0  0  0  0  0  0  0  0  0  0  0  0
    2.3065   -2.5565  -11.6404 C   0  0  0  0  0  0  0  0  0  0  0  0
    2.4686   -3.8958  -11.6693 N   0  0  0  0  0  0  0  0  0  0  0  0
    1.3614   -4.3344  -12.4140 N   0  0  0  0  0  0  0  0  0  0  0  0
    1.3096   -5.8010  -12.6254 C   0  0  0  0  0  0  0  0  0  0  0  0
    2.7406   -1.3912   -9.5066 C   0  0  0  0  0  0  0  0  0  0  0  0
    3.3752   -0.3190  -11.7328 C   0  0  0  0  0  0  0  0  0  0  0  0
    4.6473   -2.2379  -10.8221 C   0  0  0  0  0  0  0  0  0  0  0  0
    3.2578   -1.6212  -10.9320 C   0  0  0  0  0  0  0  0  0  0  0  0
  1  2  2  0  0  0
  1  3  1  0  0  0
  1  4  1  0  0  0
  3  7  1  0  0  0
  7  8  2  0  0  0
  7 13  1  0  0  0
  8  9  1  0  0  0
  9 10  2  0  0  0
 10 11  1  0  0  0
 10 12  1  0  0  0
 12 13  2  0  0  0
  4 14  1  0  0  0
 14 15  2  0  0  0
 14 18  1  0  0  0
 15 16  1  0  0  0
 16 17  2  0  0  0
 16 23  1  0  0  0
 17 18  1  0  0  0
 18 19  1  0  0  0
 20 23  1  0  0  0
 21 23  1  0  0  0
 22 23  1  0  0  0
  3  5  1  0  0  0
  4  6  1  0  0  0
M  END
> <minimizedAffinity>
-9.68033

$$$$
3O8P_BMU_A_361


 23 24  0  0  0  0  0  0  0  0999 V2000
   -1.1698   -2.6093  -14.4734 C   0  0  0  0  0  0  0  0  0  0  0  0
   -0.3130   -1.9225  -15.0247 O   0  0  0  0  0  0  0  0  0  0  0  0
   -0.9317   -3.3588  -13.3814 N   0  0  0  0  0  0  0  0  0  0  0  0
   -2.4385   -2.6371  -14.9221 N   0  0  0  0  0  0  0  0  0  0  0  0
   -1.7160   -3.7507  -12.9336 H   0  0  0  0  0  0  0  0  0  0  0  0
   -3.1248   -3.0123  -14.3242 H   0  0  0  0  0  0  0  0  0  0  0  0
    0.2876   -3.6300  -12.8329 C   0  0  0  0  0  0  0  0  0  0  0  0
    0.7456   -4.9560  -12.8793 C   0  0  0  0  0  0  0  0  0  0  0  0
    1.9797   -5.3141  -12.3224 C   0  0  0  0  0  0  0  0  0  0  0  0
    2.7649   -4.3271  -11.7019 C   0  0  0  0  0  0  0  0  0  0  0  0
    4.3458   -4.7803  -10.9778 Cl  0  0  0  0  0  0  0  0  0  0  0  0
    2.3072   -3.0020  -11.6290 C   0  0  0  0  0  0  0  0  0  0  0  0
    1.0708   -2.6537  -12.2009 C   0  0  0  0  0  0  0  0  0  0  0  0
   -2.8380   -2.1914  -16.1242 C   0  0  0  0  0  0  0  0  0  0  0  0
   -2.3605   -2.3595  -17.4166 C   0  0  0  0  0  0  0  0  0  0  0  0
   -3.2708   -1.6341  -18.1797 C   0  0  0  0  0  0  0  0  0  0  0  0
   -4.2700   -1.0767  -17.4643 N   0  0  0  0  0  0  0  0  0  0  0  0
   -3.9642   -1.4509  -16.1454 N   0  0  0  0  0  0  0  0  0  0  0  0
   -4.9107   -0.9330  -15.1285 C   0  0  0  0  0  0  0  0  0  0  0  0
   -3.1168   -2.9336  -20.2742 C   0  0  0  0  0  0  0  0  0  0  0  0
   -1.9217   -0.6922  -20.0371 C   0  0  0  0  0  0  0  0  0  0  0  0
   -4.3839   -0.8177  -20.2641 C   0  0  0  0  0  0  0  0  0  0  0  0
   -3.1626   -1.5197  -19.6819 C   0  0  0  0  0  0  0  0  0  0  0  0
  1  2  2  0  0  0
  1  3  1  0  0  0
  1  4  1  0  0  0
  3  7  1  0  0  0
  7  8  2  0  0  0
  7 13  1  0  0  0
  8  9  1  0  0  0
  9 10  2  0  0  0
 10 11  1  0  0  0
 10 12  1  0  0  0
 12 13  2  0  0  0
  4 14  1  0  0  0
 14 15  2  0  0  0
 14 18  1  0  0  0
 15 16  1  0  0  0
 16 17  2  0  0  0
 16 23  1  0  0  0
 17 18  1  0  0  0
 18 19  1  0  0  0
 20 23  1  0  0  0
 21 23  1  0  0  0
 22 23  1  0  0  0
  3  5  1  0  0  0
  4  6  1  0  0  0
M  END
> <minimizedAffinity>
-8.37411

$$$$
3O8P_BMU_A_361


 23 24  0  0  0  0  0  0  0  0999 V2000
   -1.1455   -2.6087  -14.4501 C   0  0  0  0  0  0  0  0  0  0  0  0
   -0.2504   -2.0317  -15.0628 O   0  0  0  0  0  0  0  0  0  0  0  0
   -0.9386   -3.3164  -13.3244 N   0  0  0  0  0  0  0  0  0  0  0  0
   -2.4257   -2.5478  -14.8614 N   0  0  0  0  0  0  0  0  0  0  0  0
   -1.7392   -3.6122  -12.8336 H   0  0  0  0  0  0  0  0  0  0  0  0
   -3.1225   -2.8275  -14.2246 H   0  0  0  0  0  0  0  0  0  0  0  0
    0.2695   -3.6650  -12.7951 C   0  0  0  0  0  0  0  0  0  0  0  0
    1.0171   -2.6638  -12.1557 C   0  0  0  0  0  0  0  0  0  0  0  0
    2.2735   -2.9420  -11.6029 C   0  0  0  0  0  0  0  0  0  0  0  0
    2.7924   -4.2447  -11.6991 C   0  0  0  0  0  0  0  0  0  0  0  0
    4.4072   -4.6076  -10.9996 Cl  0  0  0  0  0  0  0  0  0  0  0  0
    2.0641   -5.2490  -12.3562 C   0  0  0  0  0  0  0  0  0  0  0  0
    0.7995   -4.9589  -12.8982 C   0  0  0  0  0  0  0  0  0  0  0  0
   -2.8235   -2.1339  -16.0754 C   0  0  0  0  0  0  0  0  0  0  0  0
   -2.3284   -2.3131  -17.3596 C   0  0  0  0  0  0  0  0  0  0  0  0
   -3.2484   -1.6245  -18.1450 C   0  0  0  0  0  0  0  0  0  0  0  0
   -4.2686   -1.0797  -17.4500 N   0  0  0  0  0  0  0  0  0  0  0  0
   -3.9676   -1.4223  -16.1215 N   0  0  0  0  0  0  0  0  0  0  0  0
   -4.9373   -0.9102  -15.1237 C   0  0  0  0  0  0  0  0  0  0  0  0
   -3.0462   -2.9572  -20.2144 C   0  0  0  0  0  0  0  0  0  0  0  0
   -1.9000   -0.6877  -20.0055 C   0  0  0  0  0  0  0  0  0  0  0  0
   -4.3567   -0.8682  -20.2545 C   0  0  0  0  0  0  0  0  0  0  0  0
   -3.1273   -1.5343  -19.6478 C   0  0  0  0  0  0  0  0  0  0  0  0
  1  2  2  0  0  0
  1  3  1  0  0  0
  1  4  1  0  0  0
  3  7  1  0  0  0
  7  8  2  0  0  0
  7 13  1  0  0  0
  8  9  1  0  0  0
  9 10  2  0  0  0
 10 11  1  0  0  0
 10 12  1  0  0  0
 12 13  2  0  0  0
  4 14  1  0  0  0
 14 15  2  0  0  0
 14 18  1  0  0  0
 15 16  1  0  0  0
 16 17  2  0  0  0
 16 23  1  0  0  0
 17 18  1  0  0  0
 18 19  1  0  0  0
 20 23  1  0  0  0
 21 23  1  0  0  0
 22 23  1  0  0  0
  3  5  1  0  0  0
  4  6  1  0  0  0
M  END
> <minimizedAffinity>
-8.27376

$$$$
3O8P_BMU_A_361


 23 24  0  0  0  0  0  0  0  0999 V2000
   -0.5932   -3.2486  -13.7911 C   0  0  0  0  0  0  0  0  0  0  0  0
    0.1038   -3.7452  -14.6728 O   0  0  0  0  0  0  0  0  0  0  0  0
   -1.7643   -2.6303  -14.0299 N   0  0  0  0  0  0  0  0  0  0  0  0
   -0.2337   -3.3146  -12.4957 N   0  0  0  0  0  0  0  0  0  0  0  0
   -2.3122   -2.4008  -13.2448 H   0  0  0  0  0  0  0  0  0  0  0  0
   -0.9211   -3.1099  -11.8214 H   0  0  0  0  0  0  0  0  0  0  0  0
   -2.2684   -2.2897  -15.2510 C   0  0  0  0  0  0  0  0  0  0  0  0
   -3.6441   -2.0255  -15.3404 C   0  0  0  0  0  0  0  0  0  0  0  0
   -4.2368   -1.6860  -16.5630 C   0  0  0  0  0  0  0  0  0  0  0  0
   -3.4377   -1.6173  -17.7173 C   0  0  0  0  0  0  0  0  0  0  0  0
   -4.1921   -1.1905  -19.2913 Cl  0  0  0  0  0  0  0  0  0  0  0  0
   -2.0649   -1.9018  -17.6448 C   0  0  0  0  0  0  0  0  0  0  0  0
   -1.4804   -2.2316  -16.4092 C   0  0  0  0  0  0  0  0  0  0  0  0
    0.9925   -3.6388  -12.0544 C   0  0  0  0  0  0  0  0  0  0  0  0
    1.7446   -4.8050  -12.0826 C   0  0  0  0  0  0  0  0  0  0  0  0
    2.9315   -4.4228  -11.4642 C   0  0  0  0  0  0  0  0  0  0  0  0
    2.9709   -3.1239  -11.1006 N   0  0  0  0  0  0  0  0  0  0  0  0
    1.7094   -2.6457  -11.4914 N   0  0  0  0  0  0  0  0  0  0  0  0
    1.4727   -1.2168  -11.1743 C   0  0  0  0  0  0  0  0  0  0  0  0
    3.5199   -6.7954  -11.1124 C   0  0  0  0  0  0  0  0  0  0  0  0
    4.8918   -4.9356  -10.0319 C   0  0  0  0  0  0  0  0  0  0  0  0
    5.0151   -5.3752  -12.4653 C   0  0  0  0  0  0  0  0  0  0  0  0
    4.0842   -5.3769  -11.2583 C   0  0  0  0  0  0  0  0  0  0  0  0
  1  2  2  0  0  0
  1  3  1  0  0  0
  1  4  1  0  0  0
  3  7  1  0  0  0
  7  8  2  0  0  0
  7 13  1  0  0  0
  8  9  1  0  0  0
  9 10  2  0  0  0
 10 11  1  0  0  0
 10 12  1  0  0  0
 12 13  2  0  0  0
  4 14  1  0  0  0
 14 15  2  0  0  0
 14 18  1  0  0  0
 15 16  1  0  0  0
 16 17  2  0  0  0
 16 23  1  0  0  0
 17 18  1  0  0  0
 18 19  1  0  0  0
 20 23  1  0  0  0
 21 23  1  0  0  0
 22 23  1  0  0  0
  3  5  1  0  0  0
  4  6  1  0  0  0
M  END
> <minimizedAffinity>
-7.74912

$$$$
3O8P_BMU_A_361


 23 24  0  0  0  0  0  0  0  0999 V2000
   -0.8858   -2.6148  -14.5720 C   0  0  0  0  0  0  0  0  0  0  0  0
   -0.2641   -1.6660  -15.0443 O   0  0  0  0  0  0  0  0  0  0  0  0
   -2.0417   -3.0748  -15.0848 N   0  0  0  0  0  0  0  0  0  0  0  0
   -0.4266   -3.2873  -13.5003 N   0  0  0  0  0  0  0  0  0  0  0  0
   -2.3786   -3.9266  -14.7238 H   0  0  0  0  0  0  0  0  0  0  0  0
   -0.8320   -4.1627  -13.3039 H   0  0  0  0  0  0  0  0  0  0  0  0
   -2.7936   -2.4791  -16.0549 C   0  0  0  0  0  0  0  0  0  0  0  0
   -3.9461   -1.7847  -15.6554 C   0  0  0  0  0  0  0  0  0  0  0  0
   -4.7767   -1.1618  -16.5953 C   0  0  0  0  0  0  0  0  0  0  0  0
   -4.4500   -1.2426  -17.9600 C   0  0  0  0  0  0  0  0  0  0  0  0
   -5.5151   -0.4530  -19.1728 Cl  0  0  0  0  0  0  0  0  0  0  0  0
   -3.3124   -1.9536  -18.3737 C   0  0  0  0  0  0  0  0  0  0  0  0
   -2.4814   -2.5660  -17.4190 C   0  0  0  0  0  0  0  0  0  0  0  0
    0.5433   -2.8534  -12.6789 C   0  0  0  0  0  0  0  0  0  0  0  0
    1.8096   -2.3242  -12.8856 C   0  0  0  0  0  0  0  0  0  0  0  0
    2.2560   -2.0749  -11.5911 C   0  0  0  0  0  0  0  0  0  0  0  0
    1.3571   -2.3741  -10.6303 N   0  0  0  0  0  0  0  0  0  0  0  0
    0.2660   -2.8743  -11.3598 N   0  0  0  0  0  0  0  0  0  0  0  0
   -0.8772   -3.3142  -10.5245 C   0  0  0  0  0  0  0  0  0  0  0  0
    3.9720   -0.5085  -12.4284 C   0  0  0  0  0  0  0  0  0  0  0  0
    4.6381   -2.6171  -11.1563 C   0  0  0  0  0  0  0  0  0  0  0  0
    3.5975   -0.6923   -9.9976 C   0  0  0  0  0  0  0  0  0  0  0  0
    3.6153   -1.4840  -11.3000 C   0  0  0  0  0  0  0  0  0  0  0  0
  1  2  2  0  0  0
  1  3  1  0  0  0
  1  4  1  0  0  0
  3  7  1  0  0  0
  7  8  2  0  0  0
  7 13  1  0  0  0
  8  9  1  0  0  0
  9 10  2  0  0  0
 10 11  1  0  0  0
 10 12  1  0  0  0
 12 13  2  0  0  0
  4 14  1  0  0  0
 14 15  2  0  0  0
 14 18  1  0  0  0
 15 16  1  0  0  0
 16 17  2  0  0  0
 16 23  1  0  0  0
 17 18  1  0  0  0
 18 19  1  0  0  0
 20 23  1  0  0  0
 21 23  1  0  0  0
 22 23  1  0  0  0
  3  5  1  0  0  0
  4  6  1  0  0  0
M  END
> <minimizedAffinity>
-6.83783

$$$$
