3C2O_NTM_A_300
  RCSB PDB12061708063D
Coordinates from PDB:3C2O:A:300 Model:1 without hydrogens
 12 12  0  0  0  0            999 V2000
  -26.3650   14.2920   -7.2880   N 0  0  0  0  0  0  0  0  0  0  0  0
  -25.5360   13.2370   -7.2740   C 0  0  0  0  0  0  0  0  0  0  0  0
  -25.8720   12.1070   -6.5290   C 0  0  0  0  0  0  0  0  0  0  0  0
  -27.0580   12.1120   -5.8010   C 0  0  0  0  0  0  0  0  0  0  0  0
  -27.8870   13.2280   -5.8390   C 0  0  0  0  0  0  0  0  0  0  0  0
  -27.5010   14.3200   -6.6110   C 0  0  0  0  0  0  0  0  0  0  0  0
  -24.1970   13.3530   -8.0070   C 0  0  0  0  0  0  0  0  0  0  0  0
  -24.1970   13.8860   -9.1370   O 0  0  0  0  0  0  0  0  0  0  0  0
  -23.1660   12.9600   -7.4200   O 0  0  0  0  0  0  0  0  0  0  0  0
  -25.0360   10.8270   -6.5700   C 0  0  0  0  0  0  0  0  0  0  0  0
  -24.4190   10.5560   -7.6230   O 0  0  0  0  0  0  0  0  0  0  0  0
  -24.9970   10.1250   -5.5360   O 0  0  0  0  0  0  0  0  0  0  0  0
  1  2  2  0  0  0  0
  1  6  1  0  0  0  0
  2  3  1  0  0  0  0
  2  7  1  0  0  0  0
  3  4  2  0  0  0  0
  3 10  1  0  0  0  0
  4  5  1  0  0  0  0
  5  6  2  0  0  0  0
  7  8  2  0  0  0  0
  7  9  1  0  0  0  0
 10 11  2  0  0  0  0
 10 12  1  0  0  0  0
A    1
N1
A    2
C2
A    3
C3
A    4
C4
A    5
C5
A    6
C6
A    7
C7
A    8
O1
A    9
O2
A   10
C8
A   11
O3
A   12
O4
M  END
>  <InstanceId>
3C2O_NTM_A_300

>  <ChemCompId>
NTM

>  <PdbId>
3C2O

>  <ChainId>
A

>  <ResidueNumber>
300

>  <InsertionCode>


>  <Model>
1

>  <AltIds>


>  <MissingHeavyAtoms>
0

>  <ObservedFormula>
C7 N O4

>  <Name>
QUINOLINIC ACID

>  <SystematicName>
pyridine-2,3-dicarboxylic acid

>  <Synonyms>


>  <Type>
NON-POLYMER

>  <Formula>
C7 H5 N O4

>  <MolecularWeight>
167.119

>  <ModifiedDate>
2011-06-04

>  <Parent>


>  <OneLetterCode>


>  <SubcomponentList>


>  <AmbiguousFlag>
N

>  <InChI>
InChI=1S/C7H5NO4/c9-6(10)4-2-1-3-8-5(4)7(11)12/h1-3H,(H,9,10)(H,11,12)

>  <InChIKey>
GJAWHXHKYYXBSV-UHFFFAOYSA-N

>  <SMILES>
c1cc(c(nc1)C(=O)O)C(=O)O

$$$$
