3C2O_NTM_A_300


 14 14  0  0  0  0  0  0  0  0999 V2000
  -25.9177   14.4636   -7.6678 N   0  0  0  0  0  0  0  0  0  0  0  0
  -25.1680   13.3970   -7.3502 C   0  0  0  0  0  0  0  0  0  0  0  0
  -25.6807   12.4265   -6.4900 C   0  0  0  0  0  0  0  0  0  0  0  0
  -26.9583   12.6015   -5.9667 C   0  0  0  0  0  0  0  0  0  0  0  0
  -27.7005   13.7240   -6.3178 C   0  0  0  0  0  0  0  0  0  0  0  0
  -27.1369   14.6506   -7.1902 C   0  0  0  0  0  0  0  0  0  0  0  0
  -23.7311   13.3345   -7.8746 C   0  0  0  0  0  0  0  0  0  0  0  0
  -22.8441   13.9112   -7.2100 O   0  0  0  0  0  0  0  0  0  0  0  0
  -23.5075   12.6676   -8.9076 O   0  0  0  0  0  0  0  0  0  0  0  0
  -24.2163   12.2578   -9.3633 H   0  0  0  0  0  0  0  0  0  0  0  0
  -24.9302   11.1286   -6.1876 C   0  0  0  0  0  0  0  0  0  0  0  0
  -24.5648   10.4180   -7.1491 O   0  0  0  0  0  0  0  0  0  0  0  0
  -24.7027   10.8547   -4.9890 O   0  0  0  0  0  0  0  0  0  0  0  0
  -25.0033   11.4285   -4.3120 H   0  0  0  0  0  0  0  0  0  0  0  0
  1  2  2  0  0  0
  1  6  1  0  0  0
  2  3  1  0  0  0
  2  7  1  0  0  0
  3  4  2  0  0  0
  3 11  1  0  0  0
  4  5  1  0  0  0
  5  6  2  0  0  0
  7  8  2  0  0  0
  7  9  1  0  0  0
 11 12  2  0  0  0
 11 13  1  0  0  0
  9 10  1  0  0  0
 13 14  1  0  0  0
M  END
> <minimizedAffinity>
-6.50811

$$$$
3C2O_NTM_A_300


 14 14  0  0  0  0  0  0  0  0999 V2000
  -26.9219   12.5889   -6.2982 N   0  0  0  0  0  0  0  0  0  0  0  0
  -25.6488   12.3968   -6.6763 C   0  0  0  0  0  0  0  0  0  0  0  0
  -25.0459   13.3013   -7.5499 C   0  0  0  0  0  0  0  0  0  0  0  0
  -25.7926   14.3762   -8.0228 C   0  0  0  0  0  0  0  0  0  0  0  0
  -27.1108   14.5364   -7.6097 C   0  0  0  0  0  0  0  0  0  0  0  0
  -27.6513   13.6056   -6.7271 C   0  0  0  0  0  0  0  0  0  0  0  0
  -24.9322   11.1291   -6.2042 C   0  0  0  0  0  0  0  0  0  0  0  0
  -24.7890   10.9662   -4.9737 O   0  0  0  0  0  0  0  0  0  0  0  0
  -24.5748   10.2967   -7.0653 O   0  0  0  0  0  0  0  0  0  0  0  0
  -24.7094   10.4766   -7.9749 H   0  0  0  0  0  0  0  0  0  0  0  0
  -23.5649   13.2109   -7.9205 C   0  0  0  0  0  0  0  0  0  0  0  0
  -22.7518   13.9198   -7.2885 O   0  0  0  0  0  0  0  0  0  0  0  0
  -23.2403   12.4137   -8.8275 O   0  0  0  0  0  0  0  0  0  0  0  0
  -23.8976   11.9091   -9.2650 H   0  0  0  0  0  0  0  0  0  0  0  0
  1  2  2  0  0  0
  1  6  1  0  0  0
  2  3  1  0  0  0
  2  7  1  0  0  0
  3  4  2  0  0  0
  3 11  1  0  0  0
  4  5  1  0  0  0
  5  6  2  0  0  0
  7  8  2  0  0  0
  7  9  1  0  0  0
 11 12  2  0  0  0
 11 13  1  0  0  0
  9 10  1  0  0  0
 13 14  1  0  0  0
M  END
> <minimizedAffinity>
-6.44900

$$$$
3C2O_NTM_A_300


 14 14  0  0  0  0  0  0  0  0999 V2000
  -25.3416   11.4668   -7.5747 N   0  0  0  0  0  0  0  0  0  0  0  0
  -26.3711   12.3269   -7.6033 C   0  0  0  0  0  0  0  0  0  0  0  0
  -27.0103   12.6757   -6.4140 C   0  0  0  0  0  0  0  0  0  0  0  0
  -26.5709   12.1040   -5.2238 C   0  0  0  0  0  0  0  0  0  0  0  0
  -25.5030   11.2131   -5.2385 C   0  0  0  0  0  0  0  0  0  0  0  0
  -24.8997   10.9147   -6.4569 C   0  0  0  0  0  0  0  0  0  0  0  0
  -26.8684   12.8226   -8.9637 C   0  0  0  0  0  0  0  0  0  0  0  0
  -27.6068   12.0622   -9.6252 O   0  0  0  0  0  0  0  0  0  0  0  0
  -26.5577   13.9793   -9.3208 O   0  0  0  0  0  0  0  0  0  0  0  0
  -25.9989   14.5023   -8.7802 H   0  0  0  0  0  0  0  0  0  0  0  0
  -28.1048   13.7427   -6.3609 C   0  0  0  0  0  0  0  0  0  0  0  0
  -29.2763   13.3781   -6.1211 O   0  0  0  0  0  0  0  0  0  0  0  0
  -27.7655   14.9326   -6.5411 O   0  0  0  0  0  0  0  0  0  0  0  0
  -26.8696   15.1428   -6.7174 H   0  0  0  0  0  0  0  0  0  0  0  0
  1  2  2  0  0  0
  1  6  1  0  0  0
  2  3  1  0  0  0
  2  7  1  0  0  0
  3  4  2  0  0  0
  3 11  1  0  0  0
  4  5  1  0  0  0
  5  6  2  0  0  0
  7  8  2  0  0  0
  7  9  1  0  0  0
 11 12  2  0  0  0
 11 13  1  0  0  0
  9 10  1  0  0  0
 13 14  1  0  0  0
M  END
> <minimizedAffinity>
-5.97590

$$$$
3C2O_NTM_A_300


 14 14  0  0  0  0  0  0  0  0999 V2000
  -26.6505   12.1397   -5.1735 N   0  0  0  0  0  0  0  0  0  0  0  0
  -27.0110   12.6774   -6.3488 C   0  0  0  0  0  0  0  0  0  0  0  0
  -26.3226   12.3223   -7.5085 C   0  0  0  0  0  0  0  0  0  0  0  0
  -25.2615   11.4272   -7.4111 C   0  0  0  0  0  0  0  0  0  0  0  0
  -24.9172   10.8964   -6.1726 C   0  0  0  0  0  0  0  0  0  0  0  0
  -25.6509   11.2818   -5.0542 C   0  0  0  0  0  0  0  0  0  0  0  0
  -28.1122   13.7408   -6.3562 C   0  0  0  0  0  0  0  0  0  0  0  0
  -29.2800   13.3703   -6.1114 O   0  0  0  0  0  0  0  0  0  0  0  0
  -27.7834   14.9305   -6.5525 O   0  0  0  0  0  0  0  0  0  0  0  0
  -26.8894   15.1460   -6.7319 H   0  0  0  0  0  0  0  0  0  0  0  0
  -26.7610   12.8000   -8.8937 C   0  0  0  0  0  0  0  0  0  0  0  0
  -26.4435   13.9555   -9.2497 O   0  0  0  0  0  0  0  0  0  0  0  0
  -27.4003   11.9984   -9.6094 O   0  0  0  0  0  0  0  0  0  0  0  0
  -27.6085   11.1442   -9.2853 H   0  0  0  0  0  0  0  0  0  0  0  0
  1  2  2  0  0  0
  1  6  1  0  0  0
  2  3  1  0  0  0
  2  7  1  0  0  0
  3  4  2  0  0  0
  3 11  1  0  0  0
  4  5  1  0  0  0
  5  6  2  0  0  0
  7  8  2  0  0  0
  7  9  1  0  0  0
 11 12  2  0  0  0
 11 13  1  0  0  0
  9 10  1  0  0  0
 13 14  1  0  0  0
M  END
> <minimizedAffinity>
-5.93225

$$$$
3C2O_NTM_A_300


 14 14  0  0  0  0  0  0  0  0999 V2000
  -25.1535   12.3961   -6.2219 N   0  0  0  0  0  0  0  0  0  0  0  0
  -24.9905   13.3621   -7.1388 C   0  0  0  0  0  0  0  0  0  0  0  0
  -26.0519   14.2170   -7.4345 C   0  0  0  0  0  0  0  0  0  0  0  0
  -27.2651   14.0316   -6.7786 C   0  0  0  0  0  0  0  0  0  0  0  0
  -27.3936   13.0151   -5.8382 C   0  0  0  0  0  0  0  0  0  0  0  0
  -26.2934   12.2027   -5.5792 C   0  0  0  0  0  0  0  0  0  0  0  0
  -23.6635   13.4283   -7.8992 C   0  0  0  0  0  0  0  0  0  0  0  0
  -22.6808   13.9280   -7.3112 O   0  0  0  0  0  0  0  0  0  0  0  0
  -23.6139   12.9328   -9.0455 O   0  0  0  0  0  0  0  0  0  0  0  0
  -24.3867   12.5725   -9.4340 H   0  0  0  0  0  0  0  0  0  0  0  0
  -25.8956   15.4136   -8.3741 C   0  0  0  0  0  0  0  0  0  0  0  0
  -25.7503   16.5481   -7.8692 O   0  0  0  0  0  0  0  0  0  0  0  0
  -25.9013   15.1910   -9.6045 O   0  0  0  0  0  0  0  0  0  0  0  0
  -26.0147   14.3167   -9.9219 H   0  0  0  0  0  0  0  0  0  0  0  0
  1  2  2  0  0  0
  1  6  1  0  0  0
  2  3  1  0  0  0
  2  7  1  0  0  0
  3  4  2  0  0  0
  3 11  1  0  0  0
  4  5  1  0  0  0
  5  6  2  0  0  0
  7  8  2  0  0  0
  7  9  1  0  0  0
 11 12  2  0  0  0
 11 13  1  0  0  0
  9 10  1  0  0  0
 13 14  1  0  0  0
M  END
> <minimizedAffinity>
-5.85864

$$$$
3C2O_NTM_A_300


 14 14  0  0  0  0  0  0  0  0999 V2000
  -27.3994   14.4822   -7.0627 N   0  0  0  0  0  0  0  0  0  0  0  0
  -26.1670   14.5631   -7.5872 C   0  0  0  0  0  0  0  0  0  0  0  0
  -25.2139   13.5998   -7.2580 C   0  0  0  0  0  0  0  0  0  0  0  0
  -25.5647   12.5839   -6.3740 C   0  0  0  0  0  0  0  0  0  0  0  0
  -26.8518   12.5391   -5.8491 C   0  0  0  0  0  0  0  0  0  0  0  0
  -27.7608   13.5236   -6.2260 C   0  0  0  0  0  0  0  0  0  0  0  0
  -25.8247   15.7736   -8.4597 C   0  0  0  0  0  0  0  0  0  0  0  0
  -25.6085   15.5727   -9.6738 O   0  0  0  0  0  0  0  0  0  0  0  0
  -25.8311   16.9052   -7.9292 O   0  0  0  0  0  0  0  0  0  0  0  0
  -26.0001   16.9914   -7.0116 H   0  0  0  0  0  0  0  0  0  0  0  0
  -23.8339   13.5621   -7.9162 C   0  0  0  0  0  0  0  0  0  0  0  0
  -22.8515   13.9647   -7.2559 O   0  0  0  0  0  0  0  0  0  0  0  0
  -23.7569   13.1095   -9.0792 O   0  0  0  0  0  0  0  0  0  0  0  0
  -24.5310   12.8229   -9.5226 H   0  0  0  0  0  0  0  0  0  0  0  0
  1  2  2  0  0  0
  1  6  1  0  0  0
  2  3  1  0  0  0
  2  7  1  0  0  0
  3  4  2  0  0  0
  3 11  1  0  0  0
  4  5  1  0  0  0
  5  6  2  0  0  0
  7  8  2  0  0  0
  7  9  1  0  0  0
 11 12  2  0  0  0
 11 13  1  0  0  0
  9 10  1  0  0  0
 13 14  1  0  0  0
M  END
> <minimizedAffinity>
-5.80048

$$$$
3C2O_NTM_A_300


 14 14  0  0  0  0  0  0  0  0999 V2000
  -24.0222   12.9088   -7.4850 N   0  0  0  0  0  0  0  0  0  0  0  0
  -25.0858   12.5898   -6.7317 C   0  0  0  0  0  0  0  0  0  0  0  0
  -26.1461   13.4890   -6.6213 C   0  0  0  0  0  0  0  0  0  0  0  0
  -26.0629   14.7088   -7.2860 C   0  0  0  0  0  0  0  0  0  0  0  0
  -24.9405   15.0023   -8.0529 C   0  0  0  0  0  0  0  0  0  0  0  0
  -23.9211   14.0578   -8.1324 C   0  0  0  0  0  0  0  0  0  0  0  0
  -25.0513   11.2799   -5.9401 C   0  0  0  0  0  0  0  0  0  0  0  0
  -24.7376   10.2378   -6.5538 O   0  0  0  0  0  0  0  0  0  0  0  0
  -25.2847   11.3246   -4.7131 O   0  0  0  0  0  0  0  0  0  0  0  0
  -25.5158   12.1380   -4.3095 H   0  0  0  0  0  0  0  0  0  0  0  0
  -27.4385   13.1367   -5.8833 C   0  0  0  0  0  0  0  0  0  0  0  0
  -28.3797   12.6417   -6.5406 O   0  0  0  0  0  0  0  0  0  0  0  0
  -27.4793   13.3448   -4.6510 O   0  0  0  0  0  0  0  0  0  0  0  0
  -26.7396   13.7193   -4.2144 H   0  0  0  0  0  0  0  0  0  0  0  0
  1  2  2  0  0  0
  1  6  1  0  0  0
  2  3  1  0  0  0
  2  7  1  0  0  0
  3  4  2  0  0  0
  3 11  1  0  0  0
  4  5  1  0  0  0
  5  6  2  0  0  0
  7  8  2  0  0  0
  7  9  1  0  0  0
 11 12  2  0  0  0
 11 13  1  0  0  0
  9 10  1  0  0  0
 13 14  1  0  0  0
M  END
> <minimizedAffinity>
-5.79874

$$$$
3C2O_NTM_A_300


 14 14  0  0  0  0  0  0  0  0999 V2000
  -27.1402   15.4831   -7.3293 N   0  0  0  0  0  0  0  0  0  0  0  0
  -26.8890   14.2250   -6.9364 C   0  0  0  0  0  0  0  0  0  0  0  0
  -25.8205   13.5280   -7.4995 C   0  0  0  0  0  0  0  0  0  0  0  0
  -25.0496   14.1552   -8.4737 C   0  0  0  0  0  0  0  0  0  0  0  0
  -25.3467   15.4589   -8.8560 C   0  0  0  0  0  0  0  0  0  0  0  0
  -26.4193   16.1047   -8.2478 C   0  0  0  0  0  0  0  0  0  0  0  0
  -27.8516   13.5655   -5.9452 C   0  0  0  0  0  0  0  0  0  0  0  0
  -28.9238   13.1070   -6.3936 O   0  0  0  0  0  0  0  0  0  0  0  0
  -27.4962   13.4700   -4.7509 O   0  0  0  0  0  0  0  0  0  0  0  0
  -26.6786   13.8352   -4.4747 H   0  0  0  0  0  0  0  0  0  0  0  0
  -25.4038   12.1410   -7.0078 C   0  0  0  0  0  0  0  0  0  0  0  0
  -25.4947   11.1793   -7.8014 O   0  0  0  0  0  0  0  0  0  0  0  0
  -24.9730   12.0444   -5.8380 O   0  0  0  0  0  0  0  0  0  0  0  0
  -24.9292   12.8036   -5.2906 H   0  0  0  0  0  0  0  0  0  0  0  0
  1  2  2  0  0  0
  1  6  1  0  0  0
  2  3  1  0  0  0
  2  7  1  0  0  0
  3  4  2  0  0  0
  3 11  1  0  0  0
  4  5  1  0  0  0
  5  6  2  0  0  0
  7  8  2  0  0  0
  7  9  1  0  0  0
 11 12  2  0  0  0
 11 13  1  0  0  0
  9 10  1  0  0  0
 13 14  1  0  0  0
M  END
> <minimizedAffinity>
-5.57498

$$$$
3C2O_NTM_A_300


 14 14  0  0  0  0  0  0  0  0999 V2000
  -24.9752   13.6941   -8.3313 N   0  0  0  0  0  0  0  0  0  0  0  0
  -26.1126   13.9161   -7.6550 C   0  0  0  0  0  0  0  0  0  0  0  0
  -26.5035   13.0268   -6.6544 C   0  0  0  0  0  0  0  0  0  0  0  0
  -25.7063   11.9160   -6.3955 C   0  0  0  0  0  0  0  0  0  0  0  0
  -24.5372   11.7203   -7.1228 C   0  0  0  0  0  0  0  0  0  0  0  0
  -24.1960   12.6505   -8.1005 C   0  0  0  0  0  0  0  0  0  0  0  0
  -26.9925   15.0958   -8.0767 C   0  0  0  0  0  0  0  0  0  0  0  0
  -26.6627   16.2358   -7.6862 O   0  0  0  0  0  0  0  0  0  0  0  0
  -27.9623   14.8694   -8.8318 O   0  0  0  0  0  0  0  0  0  0  0  0
  -28.1597   13.9906   -9.0902 H   0  0  0  0  0  0  0  0  0  0  0  0
  -27.7188   13.2875   -5.7632 C   0  0  0  0  0  0  0  0  0  0  0  0
  -28.8561   13.2209   -6.2781 O   0  0  0  0  0  0  0  0  0  0  0  0
  -27.5113   13.5351   -4.5553 O   0  0  0  0  0  0  0  0  0  0  0  0
  -26.6339   13.5715   -4.2285 H   0  0  0  0  0  0  0  0  0  0  0  0
  1  2  2  0  0  0
  1  6  1  0  0  0
  2  3  1  0  0  0
  2  7  1  0  0  0
  3  4  2  0  0  0
  3 11  1  0  0  0
  4  5  1  0  0  0
  5  6  2  0  0  0
  7  8  2  0  0  0
  7  9  1  0  0  0
 11 12  2  0  0  0
 11 13  1  0  0  0
  9 10  1  0  0  0
 13 14  1  0  0  0
M  END
> <minimizedAffinity>
-5.56750

$$$$
3C2O_NTM_A_300


 14 14  0  0  0  0  0  0  0  0999 V2000
  -25.2349   11.9209   -5.9286 N   0  0  0  0  0  0  0  0  0  0  0  0
  -25.3549   12.0793   -7.2557 C   0  0  0  0  0  0  0  0  0  0  0  0
  -26.4948   12.6916   -7.7759 C   0  0  0  0  0  0  0  0  0  0  0  0
  -27.4917   13.1082   -6.8988 C   0  0  0  0  0  0  0  0  0  0  0  0
  -27.3300   12.9209   -5.5302 C   0  0  0  0  0  0  0  0  0  0  0  0
  -26.1639   12.3139   -5.0730 C   0  0  0  0  0  0  0  0  0  0  0  0
  -24.2691   11.4913   -8.1606 C   0  0  0  0  0  0  0  0  0  0  0  0
  -24.4857   10.3753   -8.6789 O   0  0  0  0  0  0  0  0  0  0  0  0
  -23.2470   12.1765   -8.3791 O   0  0  0  0  0  0  0  0  0  0  0  0
  -23.1416   13.0076   -7.9594 H   0  0  0  0  0  0  0  0  0  0  0  0
  -26.6377   13.0151   -9.2638 C   0  0  0  0  0  0  0  0  0  0  0  0
  -26.4279   14.1896   -9.6373 O   0  0  0  0  0  0  0  0  0  0  0  0
  -26.9390   12.0788  -10.0358 O   0  0  0  0  0  0  0  0  0  0  0  0
  -27.0843   11.2184   -9.6943 H   0  0  0  0  0  0  0  0  0  0  0  0
  1  2  2  0  0  0
  1  6  1  0  0  0
  2  3  1  0  0  0
  2  7  1  0  0  0
  3  4  2  0  0  0
  3 11  1  0  0  0
  4  5  1  0  0  0
  5  6  2  0  0  0
  7  8  2  0  0  0
  7  9  1  0  0  0
 11 12  2  0  0  0
 11 13  1  0  0  0
  9 10  1  0  0  0
 13 14  1  0  0  0
M  END
> <minimizedAffinity>
-5.56502

$$$$
