4K3H_1OM_A_201
  RCSB PDB12061713163D
Coordinates from PDB:4K3H:A:201 Model:1 without hydrogens
 26 28  0  0  0  0            999 V2000
    1.1980    3.3150    1.6460   O 0  0  0  0  0  0  0  0  0  0  0  0
    1.4490    4.4020    0.7630   C 0  0  0  0  0  0  0  0  0  0  0  0
    1.4360    4.2360   -0.6500   C 0  0  0  0  0  0  0  0  0  0  0  0
    1.6520    5.3560   -1.5300   C 0  0  0  0  0  0  0  0  0  0  0  0
    1.8690    6.6350   -1.0210   C 0  0  0  0  0  0  0  0  0  0  0  0
    1.8990    6.8020    0.4100   C 0  0  0  0  0  0  0  0  0  0  0  0
    1.6770    5.6890    1.2780   C 0  0  0  0  0  0  0  0  0  0  0  0
    2.1230    7.7870   -1.9170   C 0  0  0  0  0  0  0  0  0  0  0  0
    1.5560    9.0570   -1.5950   C 0  0  0  0  0  0  0  0  0  0  0  0
    2.1620   10.2850   -1.9660   C 0  0  0  0  0  0  0  0  0  0  0  0
    1.5210   11.5290   -1.7520   C 0  0  0  0  0  0  0  0  0  0  0  0
    0.2210   11.5900   -1.1150   C 0  0  0  0  0  0  0  0  0  0  0  0
   -0.5530   12.8070   -1.0230   N 0  0  0  0  0  0  0  0  0  0  0  0
   -1.9810   12.6760   -0.8080   C 0  0  0  0  0  0  0  0  0  0  0  0
    0.0910   14.1040   -1.2520   C 0  0  0  0  0  0  0  0  0  0  0  0
   -0.3730   10.3620   -0.7650   C 0  0  0  0  0  0  0  0  0  0  0  0
    0.2610    9.1170   -0.9830   C 0  0  0  0  0  0  0  0  0  0  0  0
    2.9280    7.6380   -3.1010   C 0  0  0  0  0  0  0  0  0  0  0  0
    2.6230    8.3410   -4.3210   C 0  0  0  0  0  0  0  0  0  0  0  0
    3.4110    8.2400   -5.4740   C 0  0  0  0  0  0  0  0  0  0  0  0
    4.5400    7.4160   -5.4630   C 0  0  0  0  0  0  0  0  0  0  0  0
    5.3500    7.3750   -6.5280   N 0  0  0  0  0  0  0  0  0  0  0  0
    4.8550    7.8320   -7.8500   C 0  0  0  0  0  0  0  0  0  0  0  0
    6.7350    6.9740   -6.4110   C 0  0  0  0  0  0  0  0  0  0  0  0
    4.8570    6.7180   -4.2780   C 0  0  0  0  0  0  0  0  0  0  0  0
    4.0480    6.8320   -3.1010   C 0  0  0  0  0  0  0  0  0  0  0  0
 23 22  1  0  0  0  0
 22 24  1  0  0  0  0
 22 21  1  0  0  0  0
 20 21  2  0  0  0  0
 20 19  1  0  0  0  0
 21 25  1  0  0  0  0
 19 18  2  0  0  0  0
 25 26  2  0  0  0  0
 18 26  1  0  0  0  0
 18  8  1  0  0  0  0
 10 11  2  0  0  0  0
 10  9  1  0  0  0  0
  8  9  1  0  0  0  0
  8  5  1  0  0  0  0
 11 12  1  0  0  0  0
  9 17  2  0  0  0  0
  4  5  2  0  0  0  0
  4  3  1  0  0  0  0
 15 13  1  0  0  0  0
 12 13  1  0  0  0  0
 12 16  2  0  0  0  0
 13 14  1  0  0  0  0
  5  6  1  0  0  0  0
 17 16  1  0  0  0  0
  3  2  2  0  0  0  0
  6  7  2  0  0  0  0
  2  7  1  0  0  0  0
  2  1  1  0  0  0  0
A    1
O1
A    2
C5
A    3
C4
A    4
C3
A    5
C2
A    6
C7
A    7
C6
A    8
C1
A    9
C14
A   10
C19
A   11
C18
A   12
C17
A   13
N2
A   14
C23
A   15
C22
A   16
C16
A   17
C15
A   18
C8
A   19
C13
A   20
C12
A   21
C11
A   22
N1
A   23
C21
A   24
C20
A   25
C10
A   26
C9
M  END
>  <InstanceId>
4K3H_1OM_A_201

>  <ChemCompId>
1OM

>  <PdbId>
4K3H

>  <ChainId>
A

>  <ResidueNumber>
201

>  <InsertionCode>


>  <Model>
1

>  <AltIds>


>  <MissingHeavyAtoms>
0

>  <ObservedFormula>
C23 N2 O

>  <Name>
4-{bis[4-(dimethylamino)phenyl]methyl}phenol

>  <SystematicName>
4-[bis[4-(dimethylamino)phenyl]methyl]phenol

>  <Synonyms>


>  <Type>
NON-POLYMER

>  <Formula>
C23 H26 N2 O

>  <MolecularWeight>
346.465

>  <ModifiedDate>
2013-10-04

>  <Parent>


>  <OneLetterCode>


>  <SubcomponentList>


>  <AmbiguousFlag>
N

>  <InChI>
InChI=1S/C23H26N2O/c1-24(2)20-11-5-17(6-12-20)23(19-9-15-22(26)16-10-19)18-7-13-21(14-8-18)25(3)4/h5-16,23,26H,1-4H3

>  <InChIKey>
ZTXGOUSDKAXJJB-UHFFFAOYSA-N

>  <SMILES>
CN(C)c1ccc(cc1)C(c2ccc(cc2)N(C)C)c3ccc(cc3)O

$$$$
