6B4L_CJY_A_401


 28 31  0  0  0  0  0  0  0  0999 V2000
   13.4227  -12.3294   13.7525 C   0  0  0  0  0  0  0  0  0  0  0  0
   12.4640  -10.2230   13.0447 C   0  0  0  0  0  0  0  0  0  0  0  0
   12.6623  -12.3301   14.9016 C   0  0  0  0  0  0  0  0  0  0  0  0
   10.7611   -9.2732   14.7404 C   0  0  0  0  0  0  0  0  0  0  0  0
   13.3186  -11.2925   12.8492 C   0  0  0  0  0  0  0  0  0  0  0  0
   11.6999  -10.1996   14.1993 C   0  0  0  0  0  0  0  0  0  0  0  0
   11.8177  -11.2517   15.0905 C   0  0  0  0  0  0  0  0  0  0  0  0
   10.3379   -9.7848   15.9586 C   0  0  0  0  0  0  0  0  0  0  0  0
   10.9857  -10.9771   16.1421 N   0  0  0  0  0  0  0  0  0  0  0  0
   10.8684  -11.5600   16.9268 H   0  0  0  0  0  0  0  0  0  0  0  0
    9.3997   -9.2617   16.9179 C   0  0  0  0  0  0  0  0  0  0  0  0
    9.6338   -8.7267   17.9908 O   0  0  0  0  0  0  0  0  0  0  0  0
    8.1447   -9.4745   16.4668 O   0  0  0  0  0  0  0  0  0  0  0  0
   10.5200   -8.5978   18.2666 H   0  0  0  0  0  0  0  0  0  0  0  0
   10.3337   -8.0046   14.1007 C   0  0  0  0  0  0  0  0  0  0  0  0
    8.9427   -8.0601   13.4990 C   0  0  0  0  0  0  0  0  0  0  0  0
    8.8932   -8.3741   12.0149 C   0  0  0  0  0  0  0  0  0  0  0  0
   10.2174   -8.2689   11.5171 O   0  0  0  0  0  0  0  0  0  0  0  0
   10.0088   -8.2016    7.8127 C   0  0  0  0  0  0  0  0  0  0  0  0
   12.0631   -5.2444    8.3606 C   0  0  0  0  0  0  0  0  0  0  0  0
   11.6935   -6.0568   10.9681 C   0  0  0  0  0  0  0  0  0  0  0  0
   11.1116   -6.7748    9.9330 C   0  0  0  0  0  0  0  0  0  0  0  0
   10.3421   -7.9021   10.1719 C   0  0  0  0  0  0  0  0  0  0  0  0
   12.6453   -4.5406    9.4007 C   0  0  0  0  0  0  0  0  0  0  0  0
   12.4606   -4.9457   10.7043 C   0  0  0  0  0  0  0  0  0  0  0  0
   10.7573   -7.0754    7.5667 C   0  0  0  0  0  0  0  0  0  0  0  0
    9.7996   -8.6182    9.1090 C   0  0  0  0  0  0  0  0  0  0  0  0
   11.2996   -6.3643    8.6218 C   0  0  0  0  0  0  0  0  0  0  0  0
 26 19  2  0  0  0
 26 28  1  0  0  0
 20 28  2  0  0  0
 20 24  1  0  0  0
 19 27  1  0  0  0
 28 22  1  0  0  0
 24 25  2  0  0  0
 27 23  2  0  0  0
 22 23  1  0  0  0
 22 21  2  0  0  0
 25 21  1  0  0  0
 23 18  1  0  0  0
 18 17  1  0  0  0
  5  1  2  0  0  0
  5  2  1  0  0  0
  1  3  1  0  0  0
 17 16  1  0  0  0
  2  6  2  0  0  0
  3  7  2  0  0  0
  6  7  1  0  0  0
  6  4  1  0  0  0
 16 15  1  0  0  0
  7  9  1  0  0  0
  4 15  1  0  0  0
  4  8  2  0  0  0
  9  8  1  0  0  0
  8 11  1  0  0  0
 11 13  2  0  0  0
 11 12  1  0  0  0
  9 10  1  0  0  0
 12 14  1  0  0  0
M  END
> <minimizedAffinity>
-10.74200

$$$$
6B4L_CJY_A_401


 28 31  0  0  0  0  0  0  0  0999 V2000
   13.8489  -12.5014   13.4886 C   0  0  0  0  0  0  0  0  0  0  0  0
   12.8327  -10.3092   13.3526 C   0  0  0  0  0  0  0  0  0  0  0  0
   13.0581  -12.8404   14.5648 C   0  0  0  0  0  0  0  0  0  0  0  0
   11.0506   -9.9121   15.1812 C   0  0  0  0  0  0  0  0  0  0  0  0
   13.7312  -11.2589   12.9019 C   0  0  0  0  0  0  0  0  0  0  0  0
   12.0373  -10.6266   14.4407 C   0  0  0  0  0  0  0  0  0  0  0  0
   12.1696  -11.8800   15.0121 C   0  0  0  0  0  0  0  0  0  0  0  0
   10.6137  -10.7515   16.1956 C   0  0  0  0  0  0  0  0  0  0  0  0
   11.2997  -11.9296   16.0678 N   0  0  0  0  0  0  0  0  0  0  0  0
   11.1827  -12.7093   16.6574 H   0  0  0  0  0  0  0  0  0  0  0  0
    9.6311  -10.5398   17.2272 C   0  0  0  0  0  0  0  0  0  0  0  0
    9.3995   -9.5165   17.8528 O   0  0  0  0  0  0  0  0  0  0  0  0
    8.9721  -11.6971   17.4510 O   0  0  0  0  0  0  0  0  0  0  0  0
    9.8802   -8.7342   17.6659 H   0  0  0  0  0  0  0  0  0  0  0  0
   10.5942   -8.5287   14.8997 C   0  0  0  0  0  0  0  0  0  0  0  0
    9.1553   -8.4421   14.4285 C   0  0  0  0  0  0  0  0  0  0  0  0
    8.9746   -8.0450   12.9748 C   0  0  0  0  0  0  0  0  0  0  0  0
   10.1560   -8.4203   12.2850 O   0  0  0  0  0  0  0  0  0  0  0  0
   11.9592   -5.3707   11.1813 C   0  0  0  0  0  0  0  0  0  0  0  0
   10.9916   -6.7134    7.9369 C   0  0  0  0  0  0  0  0  0  0  0  0
    9.8986   -8.6289    9.5899 C   0  0  0  0  0  0  0  0  0  0  0  0
   10.5942   -7.5606   10.1379 C   0  0  0  0  0  0  0  0  0  0  0  0
   10.7575   -7.4240   11.5071 C   0  0  0  0  0  0  0  0  0  0  0  0
   10.2887   -7.7792    7.4018 C   0  0  0  0  0  0  0  0  0  0  0  0
    9.7426   -8.7373    8.2273 C   0  0  0  0  0  0  0  0  0  0  0  0
   11.8162   -5.5059    9.8210 C   0  0  0  0  0  0  0  0  0  0  0  0
   11.4329   -6.3233   12.0258 C   0  0  0  0  0  0  0  0  0  0  0  0
   11.1427   -6.5977    9.3040 C   0  0  0  0  0  0  0  0  0  0  0  0
 26 19  2  0  0  0
 26 28  1  0  0  0
 20 28  2  0  0  0
 20 24  1  0  0  0
 19 27  1  0  0  0
 28 22  1  0  0  0
 24 25  2  0  0  0
 27 23  2  0  0  0
 22 23  1  0  0  0
 22 21  2  0  0  0
 25 21  1  0  0  0
 23 18  1  0  0  0
 18 17  1  0  0  0
  5  1  2  0  0  0
  5  2  1  0  0  0
  1  3  1  0  0  0
 17 16  1  0  0  0
  2  6  2  0  0  0
  3  7  2  0  0  0
  6  7  1  0  0  0
  6  4  1  0  0  0
 16 15  1  0  0  0
  7  9  1  0  0  0
  4 15  1  0  0  0
  4  8  2  0  0  0
  9  8  1  0  0  0
  8 11  1  0  0  0
 11 13  2  0  0  0
 11 12  1  0  0  0
  9 10  1  0  0  0
 12 14  1  0  0  0
M  END
> <minimizedAffinity>
-10.18993

$$$$
6B4L_CJY_A_401


 28 31  0  0  0  0  0  0  0  0999 V2000
    9.4858   -9.1502   17.4176 C   0  0  0  0  0  0  0  0  0  0  0  0
   10.5586   -8.5629   15.3292 C   0  0  0  0  0  0  0  0  0  0  0  0
    9.9411  -10.4476   17.3277 C   0  0  0  0  0  0  0  0  0  0  0  0
   11.7798  -10.5576   14.2307 C   0  0  0  0  0  0  0  0  0  0  0  0
    9.7934   -8.2345   16.4334 C   0  0  0  0  0  0  0  0  0  0  0  0
   11.0158   -9.8649   15.2149 C   0  0  0  0  0  0  0  0  0  0  0  0
   10.6980  -10.7666   16.2154 C   0  0  0  0  0  0  0  0  0  0  0  0
   11.8986  -11.8726   14.6565 C   0  0  0  0  0  0  0  0  0  0  0  0
   11.2428  -11.9694   15.8545 N   0  0  0  0  0  0  0  0  0  0  0  0
   11.1723  -12.7950   16.3861 H   0  0  0  0  0  0  0  0  0  0  0  0
   12.5653  -12.9959   14.0498 C   0  0  0  0  0  0  0  0  0  0  0  0
   13.7443  -13.3067   14.1249 O   0  0  0  0  0  0  0  0  0  0  0  0
   11.6717  -13.6942   13.3167 O   0  0  0  0  0  0  0  0  0  0  0  0
   14.3316  -12.7946   14.6453 H   0  0  0  0  0  0  0  0  0  0  0  0
   12.3329   -9.9608   12.9900 C   0  0  0  0  0  0  0  0  0  0  0  0
   11.6986  -10.4920   11.7190 C   0  0  0  0  0  0  0  0  0  0  0  0
   10.1838  -10.4100   11.6701 C   0  0  0  0  0  0  0  0  0  0  0  0
    9.8399   -9.0414   11.5254 O   0  0  0  0  0  0  0  0  0  0  0  0
    9.9948   -8.4632    7.8631 C   0  0  0  0  0  0  0  0  0  0  0  0
   11.7343   -5.4815    9.0242 C   0  0  0  0  0  0  0  0  0  0  0  0
   11.1761   -6.6789   11.4430 C   0  0  0  0  0  0  0  0  0  0  0  0
   10.7607   -7.2804   10.2635 C   0  0  0  0  0  0  0  0  0  0  0  0
   10.0668   -8.4798   10.2633 C   0  0  0  0  0  0  0  0  0  0  0  0
   12.1507   -4.8946   10.2068 C   0  0  0  0  0  0  0  0  0  0  0  0
   11.8716   -5.4922   11.4162 C   0  0  0  0  0  0  0  0  0  0  0  0
   10.6688   -7.2654    7.8538 C   0  0  0  0  0  0  0  0  0  0  0  0
    9.6931   -9.0728    9.0611 C   0  0  0  0  0  0  0  0  0  0  0  0
   11.0435   -6.6762    9.0477 C   0  0  0  0  0  0  0  0  0  0  0  0
 26 19  2  0  0  0
 26 28  1  0  0  0
 20 28  2  0  0  0
 20 24  1  0  0  0
 19 27  1  0  0  0
 28 22  1  0  0  0
 24 25  2  0  0  0
 27 23  2  0  0  0
 22 23  1  0  0  0
 22 21  2  0  0  0
 25 21  1  0  0  0
 23 18  1  0  0  0
 18 17  1  0  0  0
  5  1  2  0  0  0
  5  2  1  0  0  0
  1  3  1  0  0  0
 17 16  1  0  0  0
  2  6  2  0  0  0
  3  7  2  0  0  0
  6  7  1  0  0  0
  6  4  1  0  0  0
 16 15  1  0  0  0
  7  9  1  0  0  0
  4 15  1  0  0  0
  4  8  2  0  0  0
  9  8  1  0  0  0
  8 11  1  0  0  0
 11 13  2  0  0  0
 11 12  1  0  0  0
  9 10  1  0  0  0
 12 14  1  0  0  0
M  END
> <minimizedAffinity>
-9.83325

$$$$
6B4L_CJY_A_401


 28 31  0  0  0  0  0  0  0  0999 V2000
   12.5970  -13.9882   16.2661 C   0  0  0  0  0  0  0  0  0  0  0  0
   13.1084  -12.2041   14.7129 C   0  0  0  0  0  0  0  0  0  0  0  0
   11.5755  -13.2542   16.8283 C   0  0  0  0  0  0  0  0  0  0  0  0
   11.5984  -10.1314   15.0303 C   0  0  0  0  0  0  0  0  0  0  0  0
   13.3424  -13.4650   15.2305 C   0  0  0  0  0  0  0  0  0  0  0  0
   12.0937  -11.4461   15.2724 C   0  0  0  0  0  0  0  0  0  0  0  0
   11.3562  -11.9918   16.3085 C   0  0  0  0  0  0  0  0  0  0  0  0
   10.5733   -9.9073   15.9380 C   0  0  0  0  0  0  0  0  0  0  0  0
   10.4460  -11.0437   16.6911 N   0  0  0  0  0  0  0  0  0  0  0  0
    9.7869  -11.1631   17.4126 H   0  0  0  0  0  0  0  0  0  0  0  0
    9.7322   -8.7547   16.1336 C   0  0  0  0  0  0  0  0  0  0  0  0
    9.9106   -7.8064   16.8827 O   0  0  0  0  0  0  0  0  0  0  0  0
    8.6355   -8.8732   15.3546 O   0  0  0  0  0  0  0  0  0  0  0  0
   10.6861   -7.7627   17.4067 H   0  0  0  0  0  0  0  0  0  0  0  0
   12.1030   -9.1960   13.9950 C   0  0  0  0  0  0  0  0  0  0  0  0
   11.6892   -9.5637   12.5831 C   0  0  0  0  0  0  0  0  0  0  0  0
   10.2274   -9.3213   12.2547 C   0  0  0  0  0  0  0  0  0  0  0  0
   10.1150   -7.9851   11.7916 O   0  0  0  0  0  0  0  0  0  0  0  0
   10.0841   -8.3561    8.0994 C   0  0  0  0  0  0  0  0  0  0  0  0
   12.2575   -5.4491    8.4011 C   0  0  0  0  0  0  0  0  0  0  0  0
   11.7253   -5.9236   11.0633 C   0  0  0  0  0  0  0  0  0  0  0  0
   11.1570   -6.7345   10.0912 C   0  0  0  0  0  0  0  0  0  0  0  0
   10.3211   -7.7893   10.4209 C   0  0  0  0  0  0  0  0  0  0  0  0
   12.8252   -4.6516    9.3799 C   0  0  0  0  0  0  0  0  0  0  0  0
   12.5592   -4.8878   10.7107 C   0  0  0  0  0  0  0  0  0  0  0  0
   10.8994   -7.3024    7.7617 C   0  0  0  0  0  0  0  0  0  0  0  0
    9.7936   -8.6035    9.4231 C   0  0  0  0  0  0  0  0  0  0  0  0
   11.4269   -6.4941    8.7523 C   0  0  0  0  0  0  0  0  0  0  0  0
 26 19  2  0  0  0
 26 28  1  0  0  0
 20 28  2  0  0  0
 20 24  1  0  0  0
 19 27  1  0  0  0
 28 22  1  0  0  0
 24 25  2  0  0  0
 27 23  2  0  0  0
 22 23  1  0  0  0
 22 21  2  0  0  0
 25 21  1  0  0  0
 23 18  1  0  0  0
 18 17  1  0  0  0
  5  1  2  0  0  0
  5  2  1  0  0  0
  1  3  1  0  0  0
 17 16  1  0  0  0
  2  6  2  0  0  0
  3  7  2  0  0  0
  6  7  1  0  0  0
  6  4  1  0  0  0
 16 15  1  0  0  0
  7  9  1  0  0  0
  4 15  1  0  0  0
  4  8  2  0  0  0
  9  8  1  0  0  0
  8 11  1  0  0  0
 11 13  2  0  0  0
 11 12  1  0  0  0
  9 10  1  0  0  0
 12 14  1  0  0  0
M  END
> <minimizedAffinity>
-9.71638

$$$$
6B4L_CJY_A_401


 28 31  0  0  0  0  0  0  0  0999 V2000
   13.2147   -4.9339    8.2613 C   0  0  0  0  0  0  0  0  0  0  0  0
   12.3789   -5.1906   10.5180 C   0  0  0  0  0  0  0  0  0  0  0  0
   12.4713   -6.0090    7.8256 C   0  0  0  0  0  0  0  0  0  0  0  0
   10.7610   -7.1897   10.7693 C   0  0  0  0  0  0  0  0  0  0  0  0
   13.1629   -4.5410    9.5822 C   0  0  0  0  0  0  0  0  0  0  0  0
   11.6333   -6.2808   10.1021 C   0  0  0  0  0  0  0  0  0  0  0  0
   11.6977   -6.6560    8.7716 C   0  0  0  0  0  0  0  0  0  0  0  0
   10.3233   -8.1052    9.8232 C   0  0  0  0  0  0  0  0  0  0  0  0
   10.8984   -7.7581    8.6301 N   0  0  0  0  0  0  0  0  0  0  0  0
   10.7558   -8.2379    7.7823 H   0  0  0  0  0  0  0  0  0  0  0  0
    9.4323   -9.2294    9.9513 C   0  0  0  0  0  0  0  0  0  0  0  0
    8.4898   -9.3644   10.7165 O   0  0  0  0  0  0  0  0  0  0  0  0
    9.8096  -10.1909    9.0813 O   0  0  0  0  0  0  0  0  0  0  0  0
    8.2610   -8.6719   11.3048 H   0  0  0  0  0  0  0  0  0  0  0  0
   10.4044   -7.1443   12.2088 C   0  0  0  0  0  0  0  0  0  0  0  0
   11.5020   -7.6447   13.1280 C   0  0  0  0  0  0  0  0  0  0  0  0
   11.0221   -8.3766   14.3680 C   0  0  0  0  0  0  0  0  0  0  0  0
   10.6502   -9.6858   13.9677 O   0  0  0  0  0  0  0  0  0  0  0  0
   11.1484  -12.1186   16.7251 C   0  0  0  0  0  0  0  0  0  0  0  0
   13.9227  -13.0697   14.5655 C   0  0  0  0  0  0  0  0  0  0  0  0
   12.8426  -11.0173   13.0765 C   0  0  0  0  0  0  0  0  0  0  0  0
   12.2550  -11.3793   14.2804 C   0  0  0  0  0  0  0  0  0  0  0  0
   11.1291  -10.7325   14.7643 C   0  0  0  0  0  0  0  0  0  0  0  0
   14.5051  -12.6946   13.3670 C   0  0  0  0  0  0  0  0  0  0  0  0
   13.9655  -11.6693   12.6219 C   0  0  0  0  0  0  0  0  0  0  0  0
   12.2557  -12.7767   16.2458 C   0  0  0  0  0  0  0  0  0  0  0  0
   10.5837  -11.0988   15.9911 C   0  0  0  0  0  0  0  0  0  0  0  0
   12.8008  -12.4120   15.0280 C   0  0  0  0  0  0  0  0  0  0  0  0
 26 19  2  0  0  0
 26 28  1  0  0  0
 20 28  2  0  0  0
 20 24  1  0  0  0
 19 27  1  0  0  0
 28 22  1  0  0  0
 24 25  2  0  0  0
 27 23  2  0  0  0
 22 23  1  0  0  0
 22 21  2  0  0  0
 25 21  1  0  0  0
 23 18  1  0  0  0
 18 17  1  0  0  0
  5  1  2  0  0  0
  5  2  1  0  0  0
  1  3  1  0  0  0
 17 16  1  0  0  0
  2  6  2  0  0  0
  3  7  2  0  0  0
  6  7  1  0  0  0
  6  4  1  0  0  0
 16 15  1  0  0  0
  7  9  1  0  0  0
  4 15  1  0  0  0
  4  8  2  0  0  0
  9  8  1  0  0  0
  8 11  1  0  0  0
 11 13  2  0  0  0
 11 12  1  0  0  0
  9 10  1  0  0  0
 12 14  1  0  0  0
M  END
> <minimizedAffinity>
-9.45498

$$$$
6B4L_CJY_A_401


 28 31  0  0  0  0  0  0  0  0999 V2000
    9.7640   -9.9671    8.8397 C   0  0  0  0  0  0  0  0  0  0  0  0
   10.1466   -9.6336   11.2060 C   0  0  0  0  0  0  0  0  0  0  0  0
   10.2904   -8.7286    8.5437 C   0  0  0  0  0  0  0  0  0  0  0  0
   11.1829   -7.3279   11.7416 C   0  0  0  0  0  0  0  0  0  0  0  0
    9.6977  -10.4013   10.1469 C   0  0  0  0  0  0  0  0  0  0  0  0
   10.6683   -8.3810   10.9301 C   0  0  0  0  0  0  0  0  0  0  0  0
   10.7283   -7.9665    9.6111 C   0  0  0  0  0  0  0  0  0  0  0  0
   11.5349   -6.2907   10.8901 C   0  0  0  0  0  0  0  0  0  0  0  0
   11.2552   -6.7032    9.6149 N   0  0  0  0  0  0  0  0  0  0  0  0
   11.4123   -6.1625    8.8072 H   0  0  0  0  0  0  0  0  0  0  0  0
   12.1018   -4.9977   11.1751 C   0  0  0  0  0  0  0  0  0  0  0  0
   11.6732   -4.1318   11.9226 O   0  0  0  0  0  0  0  0  0  0  0  0
   13.2264   -4.8398   10.4442 O   0  0  0  0  0  0  0  0  0  0  0  0
   10.8886   -4.2820   12.4123 H   0  0  0  0  0  0  0  0  0  0  0  0
   11.3074   -7.3594   13.2197 C   0  0  0  0  0  0  0  0  0  0  0  0
    9.9898   -7.5679   13.9413 C   0  0  0  0  0  0  0  0  0  0  0  0
    9.9992   -8.6532   15.0022 C   0  0  0  0  0  0  0  0  0  0  0  0
   11.2994   -9.2206   15.0136 O   0  0  0  0  0  0  0  0  0  0  0  0
   10.8026  -12.5727   16.5261 C   0  0  0  0  0  0  0  0  0  0  0  0
   13.3428  -13.3932   14.0484 C   0  0  0  0  0  0  0  0  0  0  0  0
   13.0616  -10.6942   13.5658 C   0  0  0  0  0  0  0  0  0  0  0  0
   12.2895  -11.3040   14.5443 C   0  0  0  0  0  0  0  0  0  0  0  0
   11.3711  -10.5896   15.2969 C   0  0  0  0  0  0  0  0  0  0  0  0
   14.1135  -12.7726   13.0802 C   0  0  0  0  0  0  0  0  0  0  0  0
   13.9731  -11.4238   12.8380 C   0  0  0  0  0  0  0  0  0  0  0  0
   11.6996  -13.2929   15.7739 C   0  0  0  0  0  0  0  0  0  0  0  0
   10.6358  -11.2253   16.2929 C   0  0  0  0  0  0  0  0  0  0  0  0
   12.4334  -12.6621   14.7857 C   0  0  0  0  0  0  0  0  0  0  0  0
 26 19  2  0  0  0
 26 28  1  0  0  0
 20 28  2  0  0  0
 20 24  1  0  0  0
 19 27  1  0  0  0
 28 22  1  0  0  0
 24 25  2  0  0  0
 27 23  2  0  0  0
 22 23  1  0  0  0
 22 21  2  0  0  0
 25 21  1  0  0  0
 23 18  1  0  0  0
 18 17  1  0  0  0
  5  1  2  0  0  0
  5  2  1  0  0  0
  1  3  1  0  0  0
 17 16  1  0  0  0
  2  6  2  0  0  0
  3  7  2  0  0  0
  6  7  1  0  0  0
  6  4  1  0  0  0
 16 15  1  0  0  0
  7  9  1  0  0  0
  4 15  1  0  0  0
  4  8  2  0  0  0
  9  8  1  0  0  0
  8 11  1  0  0  0
 11 13  2  0  0  0
 11 12  1  0  0  0
  9 10  1  0  0  0
 12 14  1  0  0  0
M  END
> <minimizedAffinity>
-9.39159

$$$$
6B4L_CJY_A_401


 28 31  0  0  0  0  0  0  0  0999 V2000
   12.0344   -5.0299    8.8119 C   0  0  0  0  0  0  0  0  0  0  0  0
   10.7515   -7.0672    9.0582 C   0  0  0  0  0  0  0  0  0  0  0  0
   12.3082   -4.9969   10.1619 C   0  0  0  0  0  0  0  0  0  0  0  0
   10.6210   -7.8832   11.5065 C   0  0  0  0  0  0  0  0  0  0  0  0
   11.2707   -6.0480    8.2809 C   0  0  0  0  0  0  0  0  0  0  0  0
   11.0058   -7.0454   10.4192 C   0  0  0  0  0  0  0  0  0  0  0  0
   11.7769   -6.0163   10.9304 C   0  0  0  0  0  0  0  0  0  0  0  0
   11.1633   -7.3324   12.6586 C   0  0  0  0  0  0  0  0  0  0  0  0
   11.8569   -6.2133   12.2826 N   0  0  0  0  0  0  0  0  0  0  0  0
   12.3483   -5.6277   12.9030 H   0  0  0  0  0  0  0  0  0  0  0  0
   11.0892   -7.7692   14.0290 C   0  0  0  0  0  0  0  0  0  0  0  0
   11.9920   -8.1803   14.7418 O   0  0  0  0  0  0  0  0  0  0  0  0
    9.8079   -7.6882   14.4477 O   0  0  0  0  0  0  0  0  0  0  0  0
   12.8681   -8.2204   14.4120 H   0  0  0  0  0  0  0  0  0  0  0  0
    9.7933   -9.1100   11.3999 C   0  0  0  0  0  0  0  0  0  0  0  0
   10.5816  -10.3503   11.0256 C   0  0  0  0  0  0  0  0  0  0  0  0
   10.7770  -11.3541   12.1472 C   0  0  0  0  0  0  0  0  0  0  0  0
   11.6743  -10.7744   13.0806 O   0  0  0  0  0  0  0  0  0  0  0  0
   14.3797  -13.1733   13.9151 C   0  0  0  0  0  0  0  0  0  0  0  0
   12.5841  -13.1542   17.0838 C   0  0  0  0  0  0  0  0  0  0  0  0
   11.0357  -11.3824   15.6488 C   0  0  0  0  0  0  0  0  0  0  0  0
   12.1535  -11.9557   15.0594 C   0  0  0  0  0  0  0  0  0  0  0  0
   12.5196  -11.6629   13.7554 C   0  0  0  0  0  0  0  0  0  0  0  0
   11.4622  -12.5823   17.6588 C   0  0  0  0  0  0  0  0  0  0  0  0
   10.6881  -11.6962   16.9424 C   0  0  0  0  0  0  0  0  0  0  0  0
   14.0337  -13.4578   15.2145 C   0  0  0  0  0  0  0  0  0  0  0  0
   13.6280  -12.2802   13.1836 C   0  0  0  0  0  0  0  0  0  0  0  0
   12.9306  -12.8475   15.7834 C   0  0  0  0  0  0  0  0  0  0  0  0
 26 19  2  0  0  0
 26 28  1  0  0  0
 20 28  2  0  0  0
 20 24  1  0  0  0
 19 27  1  0  0  0
 28 22  1  0  0  0
 24 25  2  0  0  0
 27 23  2  0  0  0
 22 23  1  0  0  0
 22 21  2  0  0  0
 25 21  1  0  0  0
 23 18  1  0  0  0
 18 17  1  0  0  0
  5  1  2  0  0  0
  5  2  1  0  0  0
  1  3  1  0  0  0
 17 16  1  0  0  0
  2  6  2  0  0  0
  3  7  2  0  0  0
  6  7  1  0  0  0
  6  4  1  0  0  0
 16 15  1  0  0  0
  7  9  1  0  0  0
  4 15  1  0  0  0
  4  8  2  0  0  0
  9  8  1  0  0  0
  8 11  1  0  0  0
 11 13  2  0  0  0
 11 12  1  0  0  0
  9 10  1  0  0  0
 12 14  1  0  0  0
M  END
> <minimizedAffinity>
-8.92434

$$$$
6B4L_CJY_A_401


 28 31  0  0  0  0  0  0  0  0999 V2000
   12.8302   -4.8336    9.1262 C   0  0  0  0  0  0  0  0  0  0  0  0
   11.9042   -5.3317   11.3059 C   0  0  0  0  0  0  0  0  0  0  0  0
   12.2533   -5.9612    8.5840 C   0  0  0  0  0  0  0  0  0  0  0  0
   10.5368   -7.5240   11.3401 C   0  0  0  0  0  0  0  0  0  0  0  0
   12.6536   -4.5340   10.4607 C   0  0  0  0  0  0  0  0  0  0  0  0
   11.3258   -6.4757   10.7825 C   0  0  0  0  0  0  0  0  0  0  0  0
   11.5133   -6.7556    9.4403 C   0  0  0  0  0  0  0  0  0  0  0  0
   10.2723   -8.4242   10.3181 C   0  0  0  0  0  0  0  0  0  0  0  0
   10.8674   -7.9354    9.1861 N   0  0  0  0  0  0  0  0  0  0  0  0
   10.8350   -8.3745    8.3055 H   0  0  0  0  0  0  0  0  0  0  0  0
    9.5227   -9.6540   10.3253 C   0  0  0  0  0  0  0  0  0  0  0  0
    8.5353   -9.9420    9.6664 O   0  0  0  0  0  0  0  0  0  0  0  0
   10.0667  -10.4953   11.2309 O   0  0  0  0  0  0  0  0  0  0  0  0
    8.1895   -9.3288    9.0481 H   0  0  0  0  0  0  0  0  0  0  0  0
   10.0948   -7.6132   12.7537 C   0  0  0  0  0  0  0  0  0  0  0  0
   11.1701   -8.1080   13.7018 C   0  0  0  0  0  0  0  0  0  0  0  0
   10.9770   -9.5233   14.2151 C   0  0  0  0  0  0  0  0  0  0  0  0
   12.1521   -9.8780   14.9262 O   0  0  0  0  0  0  0  0  0  0  0  0
   14.2527  -12.0447   12.7667 C   0  0  0  0  0  0  0  0  0  0  0  0
   13.4374  -14.4208   15.4038 C   0  0  0  0  0  0  0  0  0  0  0  0
   12.0848  -12.2037   16.3262 C   0  0  0  0  0  0  0  0  0  0  0  0
   12.8135  -12.1262   15.1479 C   0  0  0  0  0  0  0  0  0  0  0  0
   12.8823  -10.9551   14.4103 C   0  0  0  0  0  0  0  0  0  0  0  0
   12.7007  -14.4886   16.5739 C   0  0  0  0  0  0  0  0  0  0  0  0
   12.0249  -13.3808   17.0359 C   0  0  0  0  0  0  0  0  0  0  0  0
   14.2034  -13.2064   13.4996 C   0  0  0  0  0  0  0  0  0  0  0  0
   13.5954  -10.9204   13.2158 C   0  0  0  0  0  0  0  0  0  0  0  0
   13.4927  -13.2435   14.6855 C   0  0  0  0  0  0  0  0  0  0  0  0
 26 19  2  0  0  0
 26 28  1  0  0  0
 20 28  2  0  0  0
 20 24  1  0  0  0
 19 27  1  0  0  0
 28 22  1  0  0  0
 24 25  2  0  0  0
 27 23  2  0  0  0
 22 23  1  0  0  0
 22 21  2  0  0  0
 25 21  1  0  0  0
 23 18  1  0  0  0
 18 17  1  0  0  0
  5  1  2  0  0  0
  5  2  1  0  0  0
  1  3  1  0  0  0
 17 16  1  0  0  0
  2  6  2  0  0  0
  3  7  2  0  0  0
  6  7  1  0  0  0
  6  4  1  0  0  0
 16 15  1  0  0  0
  7  9  1  0  0  0
  4 15  1  0  0  0
  4  8  2  0  0  0
  9  8  1  0  0  0
  8 11  1  0  0  0
 11 13  2  0  0  0
 11 12  1  0  0  0
  9 10  1  0  0  0
 12 14  1  0  0  0
M  END
> <minimizedAffinity>
-8.89717

$$$$
6B4L_CJY_A_401


 28 31  0  0  0  0  0  0  0  0999 V2000
   13.3143   -4.7051    9.1754 C   0  0  0  0  0  0  0  0  0  0  0  0
   11.9082   -6.5079    8.3817 C   0  0  0  0  0  0  0  0  0  0  0  0
   12.8337   -4.8476   10.4588 C   0  0  0  0  0  0  0  0  0  0  0  0
   10.4247   -7.5185   10.2405 C   0  0  0  0  0  0  0  0  0  0  0  0
   12.8544   -5.5230    8.1647 C   0  0  0  0  0  0  0  0  0  0  0  0
   11.4044   -6.6591    9.6626 C   0  0  0  0  0  0  0  0  0  0  0  0
   11.8820   -5.8298   10.6622 C   0  0  0  0  0  0  0  0  0  0  0  0
   10.3246   -7.1802   11.5822 C   0  0  0  0  0  0  0  0  0  0  0  0
   11.2150   -6.1652   11.8096 N   0  0  0  0  0  0  0  0  0  0  0  0
   11.3568   -5.7335   12.6830 H   0  0  0  0  0  0  0  0  0  0  0  0
    9.4953   -7.7261   12.6255 C   0  0  0  0  0  0  0  0  0  0  0  0
    8.2765   -7.7143   12.7072 O   0  0  0  0  0  0  0  0  0  0  0  0
   10.2856   -8.2646   13.5790 O   0  0  0  0  0  0  0  0  0  0  0  0
    7.7648   -7.3302   12.0227 H   0  0  0  0  0  0  0  0  0  0  0  0
    9.6663   -8.5705    9.5195 C   0  0  0  0  0  0  0  0  0  0  0  0
    9.1948   -9.7045   10.4093 C   0  0  0  0  0  0  0  0  0  0  0  0
   10.1757  -10.8518   10.5676 C   0  0  0  0  0  0  0  0  0  0  0  0
   10.2253  -11.1770   11.9475 O   0  0  0  0  0  0  0  0  0  0  0  0
   13.7935  -11.1847   12.9664 C   0  0  0  0  0  0  0  0  0  0  0  0
   12.9270  -14.6325   13.7579 C   0  0  0  0  0  0  0  0  0  0  0  0
   10.5032  -13.7419   12.7945 C   0  0  0  0  0  0  0  0  0  0  0  0
   11.5819  -12.8713   12.8585 C   0  0  0  0  0  0  0  0  0  0  0  0
   11.4781  -11.5523   12.4469 C   0  0  0  0  0  0  0  0  0  0  0  0
   11.8462  -15.4942   13.6820 C   0  0  0  0  0  0  0  0  0  0  0  0
   10.6343  -15.0496   13.2011 C   0  0  0  0  0  0  0  0  0  0  0  0
   13.9021  -12.4870   13.3919 C   0  0  0  0  0  0  0  0  0  0  0  0
   12.5881  -10.7142   12.4939 C   0  0  0  0  0  0  0  0  0  0  0  0
   12.8006  -13.3221   13.3431 C   0  0  0  0  0  0  0  0  0  0  0  0
 26 19  2  0  0  0
 26 28  1  0  0  0
 20 28  2  0  0  0
 20 24  1  0  0  0
 19 27  1  0  0  0
 28 22  1  0  0  0
 24 25  2  0  0  0
 27 23  2  0  0  0
 22 23  1  0  0  0
 22 21  2  0  0  0
 25 21  1  0  0  0
 23 18  1  0  0  0
 18 17  1  0  0  0
  5  1  2  0  0  0
  5  2  1  0  0  0
  1  3  1  0  0  0
 17 16  1  0  0  0
  2  6  2  0  0  0
  3  7  2  0  0  0
  6  7  1  0  0  0
  6  4  1  0  0  0
 16 15  1  0  0  0
  7  9  1  0  0  0
  4 15  1  0  0  0
  4  8  2  0  0  0
  9  8  1  0  0  0
  8 11  1  0  0  0
 11 13  2  0  0  0
 11 12  1  0  0  0
  9 10  1  0  0  0
 12 14  1  0  0  0
M  END
> <minimizedAffinity>
-8.67281

$$$$
6B4L_CJY_A_401


 28 31  0  0  0  0  0  0  0  0999 V2000
   11.1135  -12.6898   18.6590 C   0  0  0  0  0  0  0  0  0  0  0  0
   10.1329  -11.6321   16.7157 C   0  0  0  0  0  0  0  0  0  0  0  0
   12.2610  -12.9931   17.9592 C   0  0  0  0  0  0  0  0  0  0  0  0
   11.6651  -11.7303   14.6372 C   0  0  0  0  0  0  0  0  0  0  0  0
   10.0765  -12.0232   18.0409 C   0  0  0  0  0  0  0  0  0  0  0  0
   11.2731  -11.9380   15.9920 C   0  0  0  0  0  0  0  0  0  0  0  0
   12.3028  -12.6047   16.6328 C   0  0  0  0  0  0  0  0  0  0  0  0
   12.9263  -12.2884   14.4865 C   0  0  0  0  0  0  0  0  0  0  0  0
   13.2874  -12.8031   15.7028 N   0  0  0  0  0  0  0  0  0  0  0  0
   14.1424  -13.2562   15.8846 H   0  0  0  0  0  0  0  0  0  0  0  0
   13.7858  -12.3606   13.3331 C   0  0  0  0  0  0  0  0  0  0  0  0
   14.2147  -11.4427   12.6506 O   0  0  0  0  0  0  0  0  0  0  0  0
   14.0546  -13.6566   13.0654 O   0  0  0  0  0  0  0  0  0  0  0  0
   14.0041  -10.5567   12.8713 H   0  0  0  0  0  0  0  0  0  0  0  0
   10.8563  -11.0429   13.6005 C   0  0  0  0  0  0  0  0  0  0  0  0
   10.9568   -9.5304   13.6480 C   0  0  0  0  0  0  0  0  0  0  0  0
    9.8073   -8.7860   12.9936 C   0  0  0  0  0  0  0  0  0  0  0  0
   10.3634   -7.6893   12.2862 O   0  0  0  0  0  0  0  0  0  0  0  0
    9.8419   -8.8640    8.8050 C   0  0  0  0  0  0  0  0  0  0  0  0
   11.8705   -5.9101    8.1533 C   0  0  0  0  0  0  0  0  0  0  0  0
   11.7397   -5.8001   10.9041 C   0  0  0  0  0  0  0  0  0  0  0  0
   11.0883   -6.8185   10.2229 C   0  0  0  0  0  0  0  0  0  0  0  0
   10.3663   -7.7949   10.8903 C   0  0  0  0  0  0  0  0  0  0  0  0
   12.5230   -4.9034    8.8440 C   0  0  0  0  0  0  0  0  0  0  0  0
   12.4576   -4.8474   10.2188 C   0  0  0  0  0  0  0  0  0  0  0  0
   10.5424   -7.8910    8.1330 C   0  0  0  0  0  0  0  0  0  0  0  0
    9.7518   -8.8211   10.1790 C   0  0  0  0  0  0  0  0  0  0  0  0
   11.1562   -6.8720    8.8387 C   0  0  0  0  0  0  0  0  0  0  0  0
 26 19  2  0  0  0
 26 28  1  0  0  0
 20 28  2  0  0  0
 20 24  1  0  0  0
 19 27  1  0  0  0
 28 22  1  0  0  0
 24 25  2  0  0  0
 27 23  2  0  0  0
 22 23  1  0  0  0
 22 21  2  0  0  0
 25 21  1  0  0  0
 23 18  1  0  0  0
 18 17  1  0  0  0
  5  1  2  0  0  0
  5  2  1  0  0  0
  1  3  1  0  0  0
 17 16  1  0  0  0
  2  6  2  0  0  0
  3  7  2  0  0  0
  6  7  1  0  0  0
  6  4  1  0  0  0
 16 15  1  0  0  0
  7  9  1  0  0  0
  4 15  1  0  0  0
  4  8  2  0  0  0
  9  8  1  0  0  0
  8 11  1  0  0  0
 11 13  2  0  0  0
 11 12  1  0  0  0
  9 10  1  0  0  0
 12 14  1  0  0  0
M  END
> <minimizedAffinity>
-8.61613

$$$$
