5G45_A7W_A_1509


 15 16  0  0  0  0  0  0  0  0999 V2000
  -29.4690    7.0136  -17.4066 C   0  0  0  0  0  0  0  0  0  0  0  0
  -29.2922    6.8346  -16.0500 C   0  0  0  0  0  0  0  0  0  0  0  0
  -29.4197    5.9339  -18.2693 C   0  0  0  0  0  0  0  0  0  0  0  0
  -28.8798    5.3808  -14.2007 C   0  0  0  0  0  0  0  0  0  0  0  0
  -28.6606    3.0356  -14.6636 C   0  0  0  0  0  0  0  0  0  0  0  0
  -29.0473    5.5639  -15.5645 C   0  0  0  0  0  0  0  0  0  0  0  0
  -28.9964    4.4588  -16.4195 C   0  0  0  0  0  0  0  0  0  0  0  0
  -29.1863    4.6609  -17.7784 C   0  0  0  0  0  0  0  0  0  0  0  0
  -28.6867    4.0813  -13.7664 C   0  0  0  0  0  0  0  0  0  0  0  0
  -28.8205    3.2007  -15.9775 N   0  0  0  0  0  0  0  0  0  0  0  0
  -29.1725    3.5568  -18.6528 N   0  0  0  0  0  0  0  0  0  0  0  0
  -28.5112    3.7835  -12.4465 O   0  0  0  0  0  0  0  0  0  0  0  0
  -29.3066    3.6921  -19.6187 H   0  0  0  0  0  0  0  0  0  0  0  0
  -29.0288    2.6497  -18.2981 H   0  0  0  0  0  0  0  0  0  0  0  0
  -28.5225    4.4677  -11.8064 H   0  0  0  0  0  0  0  0  0  0  0  0
  1  2  1  0  0  0
  1  3  2  0  0  0
  2  6  2  0  0  0
  3  8  1  0  0  0
  4  6  1  0  0  0
  4  9  2  0  0  0
  5  9  1  0  0  0
  5 10  2  0  0  0
  6  7  1  0  0  0
  7  8  2  0  0  0
  7 10  1  0  0  0
  8 11  1  0  0  0
  9 12  1  0  0  0
 11 13  1  0  0  0
 11 14  1  0  0  0
 12 15  1  0  0  0
M  END
> <minimizedAffinity>
-6.82289

$$$$
5G45_A7W_A_1509


 15 16  0  0  0  0  0  0  0  0999 V2000
  -28.7963    6.1693  -13.8218 C   0  0  0  0  0  0  0  0  0  0  0  0
  -29.0676    6.6359  -15.0916 C   0  0  0  0  0  0  0  0  0  0  0  0
  -28.5847    4.8208  -13.5999 C   0  0  0  0  0  0  0  0  0  0  0  0
  -29.4051    6.2044  -17.4161 C   0  0  0  0  0  0  0  0  0  0  0  0
  -29.1880    3.9336  -18.1635 C   0  0  0  0  0  0  0  0  0  0  0  0
  -29.1430    5.7361  -16.1380 C   0  0  0  0  0  0  0  0  0  0  0  0
  -28.9294    4.3693  -15.9353 C   0  0  0  0  0  0  0  0  0  0  0  0
  -28.6488    3.9239  -14.6521 C   0  0  0  0  0  0  0  0  0  0  0  0
  -29.4201    5.2651  -18.4321 C   0  0  0  0  0  0  0  0  0  0  0  0
  -28.9350    3.4725  -16.9377 N   0  0  0  0  0  0  0  0  0  0  0  0
  -28.3972    2.5556  -14.4321 N   0  0  0  0  0  0  0  0  0  0  0  0
  -29.6669    5.6127  -19.7281 O   0  0  0  0  0  0  0  0  0  0  0  0
  -28.1973    2.2317  -13.5241 H   0  0  0  0  0  0  0  0  0  0  0  0
  -28.4212    1.9232  -15.1862 H   0  0  0  0  0  0  0  0  0  0  0  0
  -29.8293    6.5084  -19.9502 H   0  0  0  0  0  0  0  0  0  0  0  0
  1  2  1  0  0  0
  1  3  2  0  0  0
  2  6  2  0  0  0
  3  8  1  0  0  0
  4  6  1  0  0  0
  4  9  2  0  0  0
  5  9  1  0  0  0
  5 10  2  0  0  0
  6  7  1  0  0  0
  7  8  2  0  0  0
  7 10  1  0  0  0
  8 11  1  0  0  0
  9 12  1  0  0  0
 11 13  1  0  0  0
 11 14  1  0  0  0
 12 15  1  0  0  0
M  END
> <minimizedAffinity>
-6.63800

$$$$
5G45_A7W_A_1509


 15 16  0  0  0  0  0  0  0  0999 V2000
  -28.8167    3.0478  -15.0528 C   0  0  0  0  0  0  0  0  0  0  0  0
  -28.8227    4.3509  -14.5994 C   0  0  0  0  0  0  0  0  0  0  0  0
  -28.9579    2.7730  -16.4008 C   0  0  0  0  0  0  0  0  0  0  0  0
  -28.9849    6.6896  -15.0553 C   0  0  0  0  0  0  0  0  0  0  0  0
  -29.2287    7.3562  -17.3484 C   0  0  0  0  0  0  0  0  0  0  0  0
  -28.9893    5.3793  -15.5077 C   0  0  0  0  0  0  0  0  0  0  0  0
  -29.1305    5.1229  -16.8749 C   0  0  0  0  0  0  0  0  0  0  0  0
  -29.1122    3.8058  -17.3092 C   0  0  0  0  0  0  0  0  0  0  0  0
  -29.1061    7.6795  -16.0145 C   0  0  0  0  0  0  0  0  0  0  0  0
  -29.2341    6.0991  -17.7944 N   0  0  0  0  0  0  0  0  0  0  0  0
  -29.2192    3.5275  -18.6858 N   0  0  0  0  0  0  0  0  0  0  0  0
  -29.1136    9.0032  -15.6837 O   0  0  0  0  0  0  0  0  0  0  0  0
  -29.2069    2.5952  -19.0019 H   0  0  0  0  0  0  0  0  0  0  0  0
  -29.3062    4.2653  -19.3318 H   0  0  0  0  0  0  0  0  0  0  0  0
  -29.0325    9.2625  -14.7870 H   0  0  0  0  0  0  0  0  0  0  0  0
  1  2  1  0  0  0
  1  3  2  0  0  0
  2  6  2  0  0  0
  3  8  1  0  0  0
  4  6  1  0  0  0
  4  9  2  0  0  0
  5  9  1  0  0  0
  5 10  2  0  0  0
  6  7  1  0  0  0
  7  8  2  0  0  0
  7 10  1  0  0  0
  8 11  1  0  0  0
  9 12  1  0  0  0
 11 13  1  0  0  0
 11 14  1  0  0  0
 12 15  1  0  0  0
M  END
> <minimizedAffinity>
-6.34329

$$$$
5G45_A7W_A_1509


 15 16  0  0  0  0  0  0  0  0999 V2000
  -29.3714    5.0643  -18.7153 C   0  0  0  0  0  0  0  0  0  0  0  0
  -29.0502    3.9436  -17.9773 C   0  0  0  0  0  0  0  0  0  0  0  0
  -29.5401    6.2887  -18.0948 C   0  0  0  0  0  0  0  0  0  0  0  0
  -28.5832    2.9329  -15.8645 C   0  0  0  0  0  0  0  0  0  0  0  0
  -28.5778    4.3578  -13.9327 C   0  0  0  0  0  0  0  0  0  0  0  0
  -28.9162    4.0556  -16.6062 C   0  0  0  0  0  0  0  0  0  0  0  0
  -29.0797    5.2847  -15.9601 C   0  0  0  0  0  0  0  0  0  0  0  0
  -29.3931    6.3998  -16.7230 C   0  0  0  0  0  0  0  0  0  0  0  0
  -28.4139    3.1141  -14.5033 C   0  0  0  0  0  0  0  0  0  0  0  0
  -28.8981    5.4443  -14.6370 N   0  0  0  0  0  0  0  0  0  0  0  0
  -29.5289    7.6537  -16.0960 N   0  0  0  0  0  0  0  0  0  0  0  0
  -28.0853    2.0799  -13.6762 O   0  0  0  0  0  0  0  0  0  0  0  0
  -29.7512    8.4499  -16.6306 H   0  0  0  0  0  0  0  0  0  0  0  0
  -29.4016    7.7339  -15.1230 H   0  0  0  0  0  0  0  0  0  0  0  0
  -27.9654    1.2194  -14.0271 H   0  0  0  0  0  0  0  0  0  0  0  0
  1  2  1  0  0  0
  1  3  2  0  0  0
  2  6  2  0  0  0
  3  8  1  0  0  0
  4  6  1  0  0  0
  4  9  2  0  0  0
  5  9  1  0  0  0
  5 10  2  0  0  0
  6  7  1  0  0  0
  7  8  2  0  0  0
  7 10  1  0  0  0
  8 11  1  0  0  0
  9 12  1  0  0  0
 11 13  1  0  0  0
 11 14  1  0  0  0
 12 15  1  0  0  0
M  END
> <minimizedAffinity>
-6.23860

$$$$
5G45_A7W_A_1509


 15 16  0  0  0  0  0  0  0  0999 V2000
  -29.3322    8.0287  -16.2842 C   0  0  0  0  0  0  0  0  0  0  0  0
  -29.4752    6.7028  -15.9303 C   0  0  0  0  0  0  0  0  0  0  0  0
  -28.4647    8.8511  -15.5889 C   0  0  0  0  0  0  0  0  0  0  0  0
  -28.8877    4.8753  -14.5094 C   0  0  0  0  0  0  0  0  0  0  0  0
  -27.2424    5.2797  -12.8089 C   0  0  0  0  0  0  0  0  0  0  0  0
  -28.7532    6.2098  -14.8597 C   0  0  0  0  0  0  0  0  0  0  0  0
  -27.8688    7.0239  -14.1457 C   0  0  0  0  0  0  0  0  0  0  0  0
  -27.7339    8.3511  -14.5250 C   0  0  0  0  0  0  0  0  0  0  0  0
  -28.1042    4.4251  -13.4615 C   0  0  0  0  0  0  0  0  0  0  0  0
  -27.1053    6.5651  -13.1378 N   0  0  0  0  0  0  0  0  0  0  0  0
  -26.8235    9.1795  -13.8403 N   0  0  0  0  0  0  0  0  0  0  0  0
  -28.1541    3.1311  -13.0316 O   0  0  0  0  0  0  0  0  0  0  0  0
  -26.7220   10.1226  -14.1037 H   0  0  0  0  0  0  0  0  0  0  0  0
  -26.2885    8.8152  -13.0985 H   0  0  0  0  0  0  0  0  0  0  0  0
  -28.7279    2.5201  -13.4504 H   0  0  0  0  0  0  0  0  0  0  0  0
  1  2  1  0  0  0
  1  3  2  0  0  0
  2  6  2  0  0  0
  3  8  1  0  0  0
  4  6  1  0  0  0
  4  9  2  0  0  0
  5  9  1  0  0  0
  5 10  2  0  0  0
  6  7  1  0  0  0
  7  8  2  0  0  0
  7 10  1  0  0  0
  8 11  1  0  0  0
  9 12  1  0  0  0
 11 13  1  0  0  0
 11 14  1  0  0  0
 12 15  1  0  0  0
M  END
> <minimizedAffinity>
-6.23319

$$$$
5G45_A7W_A_1509


 15 16  0  0  0  0  0  0  0  0999 V2000
  -29.0034    8.3099  -16.0071 C   0  0  0  0  0  0  0  0  0  0  0  0
  -29.2510    7.5312  -17.1188 C   0  0  0  0  0  0  0  0  0  0  0  0
  -28.6671    7.7240  -14.8004 C   0  0  0  0  0  0  0  0  0  0  0  0
  -29.4143    5.3720  -18.1262 C   0  0  0  0  0  0  0  0  0  0  0  0
  -28.9247    3.4678  -16.7489 C   0  0  0  0  0  0  0  0  0  0  0  0
  -29.1761    6.1555  -17.0077 C   0  0  0  0  0  0  0  0  0  0  0  0
  -28.8349    5.5436  -15.7978 C   0  0  0  0  0  0  0  0  0  0  0  0
  -28.5809    6.3465  -14.6957 C   0  0  0  0  0  0  0  0  0  0  0  0
  -29.2770    4.0042  -17.9685 C   0  0  0  0  0  0  0  0  0  0  0  0
  -28.6934    4.2125  -15.6667 N   0  0  0  0  0  0  0  0  0  0  0  0
  -28.2027    5.7517  -13.4762 N   0  0  0  0  0  0  0  0  0  0  0  0
  -29.4867    3.1373  -19.0010 O   0  0  0  0  0  0  0  0  0  0  0  0
  -28.0208    6.3148  -12.6895 H   0  0  0  0  0  0  0  0  0  0  0  0
  -28.1203    4.7729  -13.4107 H   0  0  0  0  0  0  0  0  0  0  0  0
  -29.7277    3.4641  -19.8455 H   0  0  0  0  0  0  0  0  0  0  0  0
  1  2  1  0  0  0
  1  3  2  0  0  0
  2  6  2  0  0  0
  3  8  1  0  0  0
  4  6  1  0  0  0
  4  9  2  0  0  0
  5  9  1  0  0  0
  5 10  2  0  0  0
  6  7  1  0  0  0
  7  8  2  0  0  0
  7 10  1  0  0  0
  8 11  1  0  0  0
  9 12  1  0  0  0
 11 13  1  0  0  0
 11 14  1  0  0  0
 12 15  1  0  0  0
M  END
> <minimizedAffinity>
-6.15455

$$$$
5G45_A7W_A_1509


 15 16  0  0  0  0  0  0  0  0999 V2000
  -29.1733    8.3433  -16.1846 C   0  0  0  0  0  0  0  0  0  0  0  0
  -28.3167    8.7892  -15.1991 C   0  0  0  0  0  0  0  0  0  0  0  0
  -29.4475    6.9945  -16.3187 C   0  0  0  0  0  0  0  0  0  0  0  0
  -26.8686    8.3159  -13.3599 C   0  0  0  0  0  0  0  0  0  0  0  0
  -26.6556    6.0236  -12.6800 C   0  0  0  0  0  0  0  0  0  0  0  0
  -27.7212    7.8688  -14.3573 C   0  0  0  0  0  0  0  0  0  0  0  0
  -27.9875    6.5012  -14.4743 C   0  0  0  0  0  0  0  0  0  0  0  0
  -28.8590    6.0765  -15.4661 C   0  0  0  0  0  0  0  0  0  0  0  0
  -26.3402    7.3550  -12.5161 C   0  0  0  0  0  0  0  0  0  0  0  0
  -27.4745    5.5827  -13.6361 N   0  0  0  0  0  0  0  0  0  0  0  0
  -29.1669    4.7068  -15.5795 N   0  0  0  0  0  0  0  0  0  0  0  0
  -25.4902    7.6806  -11.4997 O   0  0  0  0  0  0  0  0  0  0  0  0
  -29.7846    4.3975  -16.2809 H   0  0  0  0  0  0  0  0  0  0  0  0
  -28.7643    4.0586  -14.9573 H   0  0  0  0  0  0  0  0  0  0  0  0
  -25.2521    8.5755  -11.3565 H   0  0  0  0  0  0  0  0  0  0  0  0
  1  2  1  0  0  0
  1  3  2  0  0  0
  2  6  2  0  0  0
  3  8  1  0  0  0
  4  6  1  0  0  0
  4  9  2  0  0  0
  5  9  1  0  0  0
  5 10  2  0  0  0
  6  7  1  0  0  0
  7  8  2  0  0  0
  7 10  1  0  0  0
  8 11  1  0  0  0
  9 12  1  0  0  0
 11 13  1  0  0  0
 11 14  1  0  0  0
 12 15  1  0  0  0
M  END
> <minimizedAffinity>
-6.08727

$$$$
5G45_A7W_A_1509


 15 16  0  0  0  0  0  0  0  0999 V2000
  -28.4190    4.9785  -13.4493 C   0  0  0  0  0  0  0  0  0  0  0  0
  -28.5830    4.0213  -14.4294 C   0  0  0  0  0  0  0  0  0  0  0  0
  -28.4965    6.3234  -13.7618 C   0  0  0  0  0  0  0  0  0  0  0  0
  -28.9843    3.4628  -16.7165 C   0  0  0  0  0  0  0  0  0  0  0  0
  -29.3389    5.2732  -18.2523 C   0  0  0  0  0  0  0  0  0  0  0  0
  -28.8087    4.4232  -15.7324 C   0  0  0  0  0  0  0  0  0  0  0  0
  -28.8936    5.7777  -16.0686 C   0  0  0  0  0  0  0  0  0  0  0  0
  -28.7349    6.7223  -15.0656 C   0  0  0  0  0  0  0  0  0  0  0  0
  -29.2560    3.9223  -17.9930 C   0  0  0  0  0  0  0  0  0  0  0  0
  -29.1716    6.2055  -17.3131 N   0  0  0  0  0  0  0  0  0  0  0  0
  -28.8502    8.0912  -15.3770 N   0  0  0  0  0  0  0  0  0  0  0  0
  -29.4470    3.0671  -19.0388 O   0  0  0  0  0  0  0  0  0  0  0  0
  -28.7388    8.7678  -14.6705 H   0  0  0  0  0  0  0  0  0  0  0  0
  -29.0422    8.3713  -16.3010 H   0  0  0  0  0  0  0  0  0  0  0  0
  -29.3985    2.1414  -18.9020 H   0  0  0  0  0  0  0  0  0  0  0  0
  1  2  1  0  0  0
  1  3  2  0  0  0
  2  6  2  0  0  0
  3  8  1  0  0  0
  4  6  1  0  0  0
  4  9  2  0  0  0
  5  9  1  0  0  0
  5 10  2  0  0  0
  6  7  1  0  0  0
  7  8  2  0  0  0
  7 10  1  0  0  0
  8 11  1  0  0  0
  9 12  1  0  0  0
 11 13  1  0  0  0
 11 14  1  0  0  0
 12 15  1  0  0  0
M  END
> <minimizedAffinity>
-5.81368

$$$$
5G45_A7W_A_1509


 15 16  0  0  0  0  0  0  0  0999 V2000
  -29.6346    6.6417  -16.2876 C   0  0  0  0  0  0  0  0  0  0  0  0
  -29.1323    7.9196  -16.1519 C   0  0  0  0  0  0  0  0  0  0  0  0
  -29.2081    5.6272  -15.4501 C   0  0  0  0  0  0  0  0  0  0  0  0
  -27.6851    9.4559  -15.0342 C   0  0  0  0  0  0  0  0  0  0  0  0
  -26.3916    8.6192  -13.1933 C   0  0  0  0  0  0  0  0  0  0  0  0
  -28.1831    8.1704  -15.1789 C   0  0  0  0  0  0  0  0  0  0  0  0
  -27.7409    7.1594  -14.3202 C   0  0  0  0  0  0  0  0  0  0  0  0
  -28.2666    5.8846  -14.4687 C   0  0  0  0  0  0  0  0  0  0  0  0
  -26.7745    9.6591  -14.0124 C   0  0  0  0  0  0  0  0  0  0  0  0
  -26.8645    7.3788  -13.3238 N   0  0  0  0  0  0  0  0  0  0  0  0
  -27.8596    4.8597  -13.5924 N   0  0  0  0  0  0  0  0  0  0  0  0
  -26.2196   10.8833  -13.7776 O   0  0  0  0  0  0  0  0  0  0  0  0
  -28.2281    3.9522  -13.6913 H   0  0  0  0  0  0  0  0  0  0  0  0
  -27.2065    5.0510  -12.8809 H   0  0  0  0  0  0  0  0  0  0  0  0
  -26.4551   11.6150  -14.3134 H   0  0  0  0  0  0  0  0  0  0  0  0
  1  2  1  0  0  0
  1  3  2  0  0  0
  2  6  2  0  0  0
  3  8  1  0  0  0
  4  6  1  0  0  0
  4  9  2  0  0  0
  5  9  1  0  0  0
  5 10  2  0  0  0
  6  7  1  0  0  0
  7  8  2  0  0  0
  7 10  1  0  0  0
  8 11  1  0  0  0
  9 12  1  0  0  0
 11 13  1  0  0  0
 11 14  1  0  0  0
 12 15  1  0  0  0
M  END
> <minimizedAffinity>
-5.79634

$$$$
5G45_A7W_A_1509


 15 16  0  0  0  0  0  0  0  0999 V2000
  -28.6165    7.5701  -14.8413 C   0  0  0  0  0  0  0  0  0  0  0  0
  -28.7286    6.2437  -15.2044 C   0  0  0  0  0  0  0  0  0  0  0  0
  -28.7719    8.5711  -15.7827 C   0  0  0  0  0  0  0  0  0  0  0  0
  -29.1045    4.5945  -16.8904 C   0  0  0  0  0  0  0  0  0  0  0  0
  -29.5669    5.3704  -19.1145 C   0  0  0  0  0  0  0  0  0  0  0  0
  -28.9811    5.9262  -16.5258 C   0  0  0  0  0  0  0  0  0  0  0  0
  -29.1444    6.9232  -17.4922 C   0  0  0  0  0  0  0  0  0  0  0  0
  -29.0368    8.2500  -17.1028 C   0  0  0  0  0  0  0  0  0  0  0  0
  -29.4061    4.3378  -18.2162 C   0  0  0  0  0  0  0  0  0  0  0  0
  -29.4503    6.6548  -18.7743 N   0  0  0  0  0  0  0  0  0  0  0  0
  -29.2312    9.2704  -18.0540 N   0  0  0  0  0  0  0  0  0  0  0  0
  -29.5511    3.0652  -18.6865 O   0  0  0  0  0  0  0  0  0  0  0  0
  -29.1565   10.2146  -17.7853 H   0  0  0  0  0  0  0  0  0  0  0  0
  -29.4418    9.0395  -18.9876 H   0  0  0  0  0  0  0  0  0  0  0  0
  -29.4493    2.3368  -18.1060 H   0  0  0  0  0  0  0  0  0  0  0  0
  1  2  1  0  0  0
  1  3  2  0  0  0
  2  6  2  0  0  0
  3  8  1  0  0  0
  4  6  1  0  0  0
  4  9  2  0  0  0
  5  9  1  0  0  0
  5 10  2  0  0  0
  6  7  1  0  0  0
  7  8  2  0  0  0
  7 10  1  0  0  0
  8 11  1  0  0  0
  9 12  1  0  0  0
 11 13  1  0  0  0
 11 14  1  0  0  0
 12 15  1  0  0  0
M  END
> <minimizedAffinity>
-5.72887

$$$$
