4D8Z_0J2_A_305
  RCSB PDB12061712103D
Coordinates from PDB:4D8Z:A:305 Model:1 without hydrogens
 19 20  0  0  0  0            999 V2000
  -11.7000   25.9000    9.5310   C 0  0  0  0  0  0  0  0  0  0  0  0
  -10.0490   25.9230    7.7410   C 0  0  0  0  0  0  0  0  0  0  0  0
  -13.0730   26.3240    9.9180   C 0  0  0  0  0  0  0  0  0  0  0  0
  -13.4700   27.5020    9.6700   O 0  0  0  0  0  0  0  0  0  0  0  0
  -13.8780   25.4390   10.3020   O 0  0  0  0  0  0  0  0  0  0  0  0
  -12.7030   24.3970    7.2460   N 0  0  0  0  0  0  0  0  0  0  0  0
  -13.5510   23.8330    6.3370   N 0  0  0  0  0  0  0  0  0  0  0  0
  -14.2810   27.9130    3.7580   O 0  0  0  0  0  0  0  0  0  0  0  0
  -11.4400   26.3110    8.1180   C 0  0  0  0  0  0  0  0  0  0  0  0
  -16.4570   23.7020    2.4900   N 0  0  0  0  0  0  0  0  0  0  0  0
  -14.5340   26.5800    3.9900   C 0  0  0  0  0  0  0  0  0  0  0  0
  -13.9060   25.8850    5.0890   C 0  0  0  0  0  0  0  0  0  0  0  0
  -15.3870   25.8800    3.1280   N 0  0  0  0  0  0  0  0  0  0  0  0
  -14.1640   24.5580    5.2580   C 0  0  0  0  0  0  0  0  0  0  0  0
  -12.4060   25.6730    7.1690   C 0  0  0  0  0  0  0  0  0  0  0  0
  -12.9880   26.5030    6.0780   C 0  0  0  0  0  0  0  0  0  0  0  0
  -14.9890   23.8400    4.4350   N 0  0  0  0  0  0  0  0  0  0  0  0
  -12.6970   27.8470    6.0370   O 0  0  0  0  0  0  0  0  0  0  0  0
  -15.6180   24.4580    3.3490   C 0  0  0  0  0  0  0  0  0  0  0  0
  5  3  2  0  0  0  0
  3  4  1  0  0  0  0
  3  1  1  0  0  0  0
  1  9  1  0  0  0  0
  9  2  1  0  0  0  0
  9 15  1  0  0  0  0
  6 15  2  0  0  0  0
  6  7  1  0  0  0  0
 15 16  1  0  0  0  0
  7 14  1  0  0  0  0
 16 18  2  0  0  0  0
 16 12  1  0  0  0  0
 14 12  2  0  0  0  0
 14 17  1  0  0  0  0
 12 11  1  0  0  0  0
 17 19  2  0  0  0  0
 11  8  2  0  0  0  0
 11 13  1  0  0  0  0
 19 13  1  0  0  0  0
 19 10  1  0  0  0  0
A    1
C1
A    2
C2
A    3
C3
A    4
O1
A    5
O2
A    6
N1
A    7
N2
A    8
O3
A    9
C4
A   10
N3
A   11
C5
A   12
C6
A   13
N4
A   14
C7
A   15
C8
A   16
C9
A   17
N5
A   18
O4
A   19
C10
M  END
>  <InstanceId>
4D8Z_0J2_A_305

>  <ChemCompId>
0J2

>  <PdbId>
4D8Z

>  <ChainId>
A

>  <ResidueNumber>
305

>  <InsertionCode>


>  <Model>
1

>  <AltIds>


>  <MissingHeavyAtoms>
0

>  <ObservedFormula>
C10 N5 O4

>  <Name>
(3R)-3-(7-amino-4,5-dioxo-1,4,5,6-tetrahydropyrimido[4,5-c]pyridazin-3-yl)butanoic acid

>  <SystematicName>
(3R)-3-[7-azanyl-4,5-bis(oxidanylidene)-1,6-dihydropyrimido[4,5-c]pyridazin-3-yl]butanoic acid

>  <Synonyms>


>  <Type>
NON-POLYMER

>  <Formula>
C10 H11 N5 O4

>  <MolecularWeight>
265.225

>  <ModifiedDate>
2012-03-23

>  <Parent>


>  <OneLetterCode>


>  <SubcomponentList>


>  <AmbiguousFlag>
N

>  <InChI>
InChI=1S/C10H11N5O4/c1-3(2-4(16)17)6-7(18)5-8(15-14-6)12-10(11)13-9(5)19/h3H,2H2,1H3,(H,16,17)(H4,11,12,13,15,18,19)/t3-/m1/s1

>  <InChIKey>
KXEAQLNQKVKEGT-GSVOUGTGSA-N

>  <SMILES>
C[C@H](CC(=O)O)C1=NNC2=C(C1=O)C(=O)NC(=N2)N

$$$$
