1IZI_Q50_B_1001


 57 59  0  0  0  0  0  0  0  0999 V2000
   -5.0806   16.6070   -1.9843 N   0  0  0  0  0  0  0  0  0  0  0  0
   -5.7496   17.3246   -1.1317 C   0  0  0  0  0  0  0  0  0  0  0  0
   -5.2851   18.3492   -0.6230 O   0  0  0  0  0  0  0  0  0  0  0  0
   -5.4508   15.7476   -2.2904 H   0  0  0  0  0  0  0  0  0  0  0  0
   -7.0835   16.7177   -0.8441 C   0  0  0  0  0  0  0  0  0  0  0  0
   -7.7246   16.3588   -2.1473 C   0  0  0  0  0  0  0  0  0  0  0  0
   -9.1864   16.6613   -2.1121 C   0  0  0  0  0  0  0  0  0  0  0  0
   -9.2126   17.5561   -0.9647 O   0  0  0  0  0  0  0  0  0  0  0  0
   -9.9191   15.2982   -2.1784 C   0  0  0  0  0  0  0  0  0  0  0  0
  -10.7874   15.1582   -0.9826 N   0  0  0  0  0  0  0  0  0  0  0  0
  -10.7666   14.0204   -0.2323 C   0  0  0  0  0  0  0  0  0  0  0  0
  -10.0079   13.1492   -0.6709 O   0  0  0  0  0  0  0  0  0  0  0  0
  -11.3862   15.8970   -0.7280 H   0  0  0  0  0  0  0  0  0  0  0  0
  -11.6140   13.8302    1.0049 O   0  0  0  0  0  0  0  0  0  0  0  0
  -12.5400   12.8229    1.5883 C   0  0  0  0  0  0  0  0  0  0  0  0
  -12.0813   12.2489    2.9052 C   0  0  0  0  0  0  0  0  0  0  0  0
  -12.8794   11.6903    0.6561 C   0  0  0  0  0  0  0  0  0  0  0  0
  -13.9285   13.3879    1.8167 C   0  0  0  0  0  0  0  0  0  0  0  0
  -10.7002   15.0484   -3.4923 C   0  0  0  0  0  0  0  0  0  0  0  0
   -9.8031   14.8972   -4.7110 C   0  0  0  0  0  0  0  0  0  0  0  0
   -8.6881   14.0165   -4.6784 C   0  0  0  0  0  0  0  0  0  0  0  0
   -7.8183   13.8555   -5.7704 C   0  0  0  0  0  0  0  0  0  0  0  0
   -8.0370   14.5644   -6.9504 C   0  0  0  0  0  0  0  0  0  0  0  0
   -9.1564   15.4278   -7.0056 C   0  0  0  0  0  0  0  0  0  0  0  0
  -10.0467   15.5956   -5.9147 C   0  0  0  0  0  0  0  0  0  0  0  0
   -7.0071   15.4150   -0.0408 C   0  0  0  0  0  0  0  0  0  0  0  0
   -7.5124   15.4544    1.3886 C   0  0  0  0  0  0  0  0  0  0  0  0
   -7.3890   16.6374    2.1309 C   0  0  0  0  0  0  0  0  0  0  0  0
   -7.8365   16.6563    3.4572 C   0  0  0  0  0  0  0  0  0  0  0  0
   -8.3685   15.5146    4.0952 C   0  0  0  0  0  0  0  0  0  0  0  0
   -8.4824   14.3365    3.3680 C   0  0  0  0  0  0  0  0  0  0  0  0
   -8.0390   14.3093    2.0266 C   0  0  0  0  0  0  0  0  0  0  0  0
   -3.8061   17.0497   -2.4878 C   0  0  0  0  0  0  0  0  0  0  0  0
   -4.3732   16.6094   -4.8162 N   0  0  0  0  0  0  0  0  0  0  0  0
   -3.8680   17.5447   -3.9842 C   0  0  0  0  0  0  0  0  0  0  0  0
   -3.5077   18.6547   -4.4567 O   0  0  0  0  0  0  0  0  0  0  0  0
   -4.6067   15.7342   -4.4306 H   0  0  0  0  0  0  0  0  0  0  0  0
   -4.6006   16.8022   -6.2588 C   0  0  0  0  0  0  0  0  0  0  0  0
   -6.7962   17.7567   -5.6452 O   0  0  0  0  0  0  0  0  0  0  0  0
   -6.0177   17.3577   -6.5195 C   0  0  0  0  0  0  0  0  0  0  0  0
   -6.3561   17.4114   -7.8170 N   0  0  0  0  0  0  0  0  0  0  0  0
   -7.2412   17.7519   -8.0812 H   0  0  0  0  0  0  0  0  0  0  0  0
   -5.7192   17.1102   -8.5046 H   0  0  0  0  0  0  0  0  0  0  0  0
   -4.2530   15.4973   -7.0238 C   0  0  0  0  0  0  0  0  0  0  0  0
   -3.3770   15.6302   -8.2738 C   0  0  0  0  0  0  0  0  0  0  0  0
   -2.0927   16.1642   -8.2225 C   0  0  0  0  0  0  0  0  0  0  0  0
   -1.3384   16.3293   -9.3943 C   0  0  0  0  0  0  0  0  0  0  0  0
   -1.8272   15.9887  -10.6440 C   0  0  0  0  0  0  0  0  0  0  0  0
   -3.1054   15.4690  -10.7054 C   0  0  0  0  0  0  0  0  0  0  0  0
   -3.8743   15.3050   -9.5489 C   0  0  0  0  0  0  0  0  0  0  0  0
   -2.8480   15.9379   -2.1549 C   0  0  0  0  0  0  0  0  0  0  0  0
   -1.6213   16.0937   -3.0159 C   0  0  0  0  0  0  0  0  0  0  0  0
   -1.4161   14.7656   -3.6519 C   0  0  0  0  0  0  0  0  0  0  0  0
   -1.3008   13.7898   -2.9531 O   0  0  0  0  0  0  0  0  0  0  0  0
   -1.3917   14.6996   -4.9850 N   0  0  0  0  0  0  0  0  0  0  0  0
   -1.4893   15.5200   -5.5203 H   0  0  0  0  0  0  0  0  0  0  0  0
   -1.2763   13.8305   -5.4328 H   0  0  0  0  0  0  0  0  0  0  0  0
 39 40  2  0  0  0
 40 41  1  0  0  0
 40 38  1  0  0  0
 38 44  1  0  0  0
 38 34  1  0  0  0
 44 45  1  0  0  0
 45 46  2  0  0  0
 45 50  1  0  0  0
 46 47  1  0  0  0
 47 48  2  0  0  0
 48 49  1  0  0  0
 49 50  2  0  0  0
 34 35  1  0  0  0
 35 36  2  0  0  0
 35 33  1  0  0  0
 33 51  1  0  0  0
 33  1  1  0  0  0
 51 52  1  0  0  0
 52 53  1  0  0  0
 53 54  2  0  0  0
 53 55  1  0  0  0
  1  2  1  0  0  0
  2  3  2  0  0  0
  2  5  1  0  0  0
  5 26  1  0  0  0
  5  6  1  0  0  0
 26 27  1  0  0  0
 27 28  2  0  0  0
 27 32  1  0  0  0
 28 29  1  0  0  0
 29 30  2  0  0  0
 30 31  1  0  0  0
 31 32  2  0  0  0
  6  7  1  0  0  0
  7  8  2  0  0  0
  7  9  1  0  0  0
  9 10  1  0  0  0
  9 19  1  0  0  0
 10 11  1  0  0  0
 11 12  2  0  0  0
 11 14  1  0  0  0
 14 15  1  0  0  0
 15 16  1  0  0  0
 15 17  1  0  0  0
 15 18  1  0  0  0
 19 20  1  0  0  0
 20 21  2  0  0  0
 20 25  1  0  0  0
 21 22  1  0  0  0
 22 23  2  0  0  0
 23 24  1  0  0  0
 24 25  2  0  0  0
 41 42  1  0  0  0
 41 43  1  0  0  0
 34 37  1  0  0  0
 55 56  1  0  0  0
 55 57  1  0  0  0
  1  4  1  0  0  0
 10 13  1  0  0  0
M  END
> <minimizedAffinity>
-9.50835

$$$$
1IZI_Q50_B_1001


 57 59  0  0  0  0  0  0  0  0999 V2000
  -11.7690   12.8122    1.8945 N   0  0  0  0  0  0  0  0  0  0  0  0
  -11.9967   13.8761    1.1834 C   0  0  0  0  0  0  0  0  0  0  0  0
  -13.1275   14.1782    0.7906 O   0  0  0  0  0  0  0  0  0  0  0  0
  -10.8411   12.5583    2.1036 H   0  0  0  0  0  0  0  0  0  0  0  0
  -10.7303   14.6121    0.8917 C   0  0  0  0  0  0  0  0  0  0  0  0
  -10.0321   14.8732    2.1889 C   0  0  0  0  0  0  0  0  0  0  0  0
   -9.6622   16.3153    2.3028 C   0  0  0  0  0  0  0  0  0  0  0  0
  -10.3746   16.8319    1.1436 O   0  0  0  0  0  0  0  0  0  0  0  0
   -8.1241   16.3621    2.4797 C   0  0  0  0  0  0  0  0  0  0  0  0
   -7.5386   17.1908    1.3962 N   0  0  0  0  0  0  0  0  0  0  0  0
   -6.6085   16.6734    0.5446 C   0  0  0  0  0  0  0  0  0  0  0  0
   -6.2975   15.5046    0.7984 O   0  0  0  0  0  0  0  0  0  0  0  0
   -7.8259   18.1266    1.2913 H   0  0  0  0  0  0  0  0  0  0  0  0
   -5.9930   17.4641   -0.5871 O   0  0  0  0  0  0  0  0  0  0  0  0
   -4.8700   17.3509   -1.5559 C   0  0  0  0  0  0  0  0  0  0  0  0
   -4.3194   18.6745   -2.0238 C   0  0  0  0  0  0  0  0  0  0  0  0
   -5.1822   16.5015   -2.7593 C   0  0  0  0  0  0  0  0  0  0  0  0
   -3.7026   16.5669   -0.9884 C   0  0  0  0  0  0  0  0  0  0  0  0
   -7.6491   16.8222    3.8802 C   0  0  0  0  0  0  0  0  0  0  0  0
   -8.0060   15.8474    4.9915 C   0  0  0  0  0  0  0  0  0  0  0  0
   -8.5231   16.3232    6.2269 C   0  0  0  0  0  0  0  0  0  0  0  0
   -8.8502   15.4659    7.2912 C   0  0  0  0  0  0  0  0  0  0  0  0
   -8.6836   14.0884    7.1575 C   0  0  0  0  0  0  0  0  0  0  0  0
   -8.1913   13.5982    5.9251 C   0  0  0  0  0  0  0  0  0  0  0  0
   -7.8633   14.4500    4.8400 C   0  0  0  0  0  0  0  0  0  0  0  0
   -9.7398   13.8174    0.0341 C   0  0  0  0  0  0  0  0  0  0  0  0
   -9.6124   14.2173   -1.4233 C   0  0  0  0  0  0  0  0  0  0  0  0
   -8.3493   14.2107   -2.0319 C   0  0  0  0  0  0  0  0  0  0  0  0
   -8.2390   14.6046   -3.3706 C   0  0  0  0  0  0  0  0  0  0  0  0
   -9.3459   15.0532   -4.1237 C   0  0  0  0  0  0  0  0  0  0  0  0
  -10.5979   15.0728   -3.5221 C   0  0  0  0  0  0  0  0  0  0  0  0
  -10.7203   14.6712   -2.1730 C   0  0  0  0  0  0  0  0  0  0  0  0
  -12.8535   11.9992    2.3813 C   0  0  0  0  0  0  0  0  0  0  0  0
  -12.2360   12.2450    4.7255 N   0  0  0  0  0  0  0  0  0  0  0  0
  -13.2700   12.3429    3.8633 C   0  0  0  0  0  0  0  0  0  0  0  0
  -14.4038   12.6717    4.3012 O   0  0  0  0  0  0  0  0  0  0  0  0
  -11.3701   11.9438    4.3669 H   0  0  0  0  0  0  0  0  0  0  0  0
  -12.3082   12.5558    6.1637 C   0  0  0  0  0  0  0  0  0  0  0  0
  -11.9866   14.5959    7.5210 O   0  0  0  0  0  0  0  0  0  0  0  0
  -12.0872   14.0642    6.4089 C   0  0  0  0  0  0  0  0  0  0  0  0
  -11.9754   14.7920    5.2870 N   0  0  0  0  0  0  0  0  0  0  0  0
  -11.8324   15.7645    5.3433 H   0  0  0  0  0  0  0  0  0  0  0  0
  -12.0363   14.3536    4.4077 H   0  0  0  0  0  0  0  0  0  0  0  0
  -11.3599   11.6137    6.9523 C   0  0  0  0  0  0  0  0  0  0  0  0
  -11.8480   11.1076    8.3136 C   0  0  0  0  0  0  0  0  0  0  0  0
  -11.1042   10.2151    9.0800 C   0  0  0  0  0  0  0  0  0  0  0  0
  -11.6064    9.7225   10.2943 C   0  0  0  0  0  0  0  0  0  0  0  0
  -12.8521   10.0808   10.7805 C   0  0  0  0  0  0  0  0  0  0  0  0
  -13.6020   10.9570   10.0205 C   0  0  0  0  0  0  0  0  0  0  0  0
  -13.1209   11.4515    8.8041 C   0  0  0  0  0  0  0  0  0  0  0  0
  -12.4457   10.5828    2.0768 C   0  0  0  0  0  0  0  0  0  0  0  0
  -13.2758    9.6561    2.9269 C   0  0  0  0  0  0  0  0  0  0  0  0
  -12.2961    8.8557    3.7079 C   0  0  0  0  0  0  0  0  0  0  0  0
  -12.2244    9.0143    4.9010 O   0  0  0  0  0  0  0  0  0  0  0  0
  -11.5436    7.9661    3.0565 N   0  0  0  0  0  0  0  0  0  0  0  0
  -11.6322    7.8668    2.0811 H   0  0  0  0  0  0  0  0  0  0  0  0
  -10.9000    7.4093    3.5516 H   0  0  0  0  0  0  0  0  0  0  0  0
 39 40  2  0  0  0
 40 41  1  0  0  0
 40 38  1  0  0  0
 38 44  1  0  0  0
 38 34  1  0  0  0
 44 45  1  0  0  0
 45 46  2  0  0  0
 45 50  1  0  0  0
 46 47  1  0  0  0
 47 48  2  0  0  0
 48 49  1  0  0  0
 49 50  2  0  0  0
 34 35  1  0  0  0
 35 36  2  0  0  0
 35 33  1  0  0  0
 33 51  1  0  0  0
 33  1  1  0  0  0
 51 52  1  0  0  0
 52 53  1  0  0  0
 53 54  2  0  0  0
 53 55  1  0  0  0
  1  2  1  0  0  0
  2  3  2  0  0  0
  2  5  1  0  0  0
  5 26  1  0  0  0
  5  6  1  0  0  0
 26 27  1  0  0  0
 27 28  2  0  0  0
 27 32  1  0  0  0
 28 29  1  0  0  0
 29 30  2  0  0  0
 30 31  1  0  0  0
 31 32  2  0  0  0
  6  7  1  0  0  0
  7  8  2  0  0  0
  7  9  1  0  0  0
  9 10  1  0  0  0
  9 19  1  0  0  0
 10 11  1  0  0  0
 11 12  2  0  0  0
 11 14  1  0  0  0
 14 15  1  0  0  0
 15 16  1  0  0  0
 15 17  1  0  0  0
 15 18  1  0  0  0
 19 20  1  0  0  0
 20 21  2  0  0  0
 20 25  1  0  0  0
 21 22  1  0  0  0
 22 23  2  0  0  0
 23 24  1  0  0  0
 24 25  2  0  0  0
 41 42  1  0  0  0
 41 43  1  0  0  0
 34 37  1  0  0  0
 55 56  1  0  0  0
 55 57  1  0  0  0
  1  4  1  0  0  0
 10 13  1  0  0  0
M  END
> <minimizedAffinity>
-9.37733

$$$$
1IZI_Q50_B_1001


 57 59  0  0  0  0  0  0  0  0999 V2000
   -9.5346   14.4759    1.6497 N   0  0  0  0  0  0  0  0  0  0  0  0
   -9.2467   15.7357    1.7887 C   0  0  0  0  0  0  0  0  0  0  0  0
  -10.0430   16.6315    1.4927 O   0  0  0  0  0  0  0  0  0  0  0  0
   -8.8370   13.7991    1.8061 H   0  0  0  0  0  0  0  0  0  0  0  0
   -7.8530   15.9188    2.2932 C   0  0  0  0  0  0  0  0  0  0  0  0
   -7.1055   16.7593    1.3068 C   0  0  0  0  0  0  0  0  0  0  0  0
   -6.5794   15.9154    0.1930 C   0  0  0  0  0  0  0  0  0  0  0  0
   -5.2457   15.6492    0.7109 O   0  0  0  0  0  0  0  0  0  0  0  0
   -6.8736   16.6852   -1.1186 C   0  0  0  0  0  0  0  0  0  0  0  0
   -5.7921   16.4044   -2.0960 N   0  0  0  0  0  0  0  0  0  0  0  0
   -4.8346   17.3360   -2.3666 C   0  0  0  0  0  0  0  0  0  0  0  0
   -4.9932   18.4023   -1.7625 O   0  0  0  0  0  0  0  0  0  0  0  0
   -5.7662   15.5338   -2.5548 H   0  0  0  0  0  0  0  0  0  0  0  0
   -3.7004   17.0981   -3.3371 O   0  0  0  0  0  0  0  0  0  0  0  0
   -2.2436   16.7989   -3.3109 C   0  0  0  0  0  0  0  0  0  0  0  0
   -1.4455   17.6844   -2.3874 C   0  0  0  0  0  0  0  0  0  0  0  0
   -1.5932   16.8012   -4.6689 C   0  0  0  0  0  0  0  0  0  0  0  0
   -1.9615   15.3675   -2.8974 C   0  0  0  0  0  0  0  0  0  0  0  0
   -8.2773   16.4247   -1.7191 C   0  0  0  0  0  0  0  0  0  0  0  0
   -8.2369   15.8301   -3.1182 C   0  0  0  0  0  0  0  0  0  0  0  0
   -7.9458   16.6519   -4.2407 C   0  0  0  0  0  0  0  0  0  0  0  0
   -7.9152   16.1554   -5.5550 C   0  0  0  0  0  0  0  0  0  0  0  0
   -8.1642   14.8059   -5.7997 C   0  0  0  0  0  0  0  0  0  0  0  0
   -8.4328   13.9709   -4.6897 C   0  0  0  0  0  0  0  0  0  0  0  0
   -8.4606   14.4559   -3.3575 C   0  0  0  0  0  0  0  0  0  0  0  0
   -7.7746   16.6678    3.6278 C   0  0  0  0  0  0  0  0  0  0  0  0
   -8.0915   15.8776    4.8829 C   0  0  0  0  0  0  0  0  0  0  0  0
   -8.5687   16.5485    6.0176 C   0  0  0  0  0  0  0  0  0  0  0  0
   -8.8353   15.8134    7.1787 C   0  0  0  0  0  0  0  0  0  0  0  0
   -8.5998   14.4241    7.2685 C   0  0  0  0  0  0  0  0  0  0  0  0
   -8.1161   13.7562    6.1507 C   0  0  0  0  0  0  0  0  0  0  0  0
   -7.8496   14.4886    4.9721 C   0  0  0  0  0  0  0  0  0  0  0  0
  -10.8586   14.0549    1.2705 C   0  0  0  0  0  0  0  0  0  0  0  0
  -11.7167   13.7663    3.5326 N   0  0  0  0  0  0  0  0  0  0  0  0
  -11.5509   13.1367    2.3501 C   0  0  0  0  0  0  0  0  0  0  0  0
  -11.9347   11.9433    2.2322 O   0  0  0  0  0  0  0  0  0  0  0  0
  -11.3691   14.6838    3.6136 H   0  0  0  0  0  0  0  0  0  0  0  0
  -12.3798   13.1812    4.7108 C   0  0  0  0  0  0  0  0  0  0  0  0
  -14.7142   12.4118    4.4535 O   0  0  0  0  0  0  0  0  0  0  0  0
  -13.9125   13.3402    4.6109 C   0  0  0  0  0  0  0  0  0  0  0  0
  -14.3428   14.6045    4.7421 N   0  0  0  0  0  0  0  0  0  0  0  0
  -15.3055   14.8045    4.6923 H   0  0  0  0  0  0  0  0  0  0  0  0
  -13.6958   15.3321    4.8880 H   0  0  0  0  0  0  0  0  0  0  0  0
  -11.7414   13.7474    6.0073 C   0  0  0  0  0  0  0  0  0  0  0  0
  -11.6904   12.8200    7.2258 C   0  0  0  0  0  0  0  0  0  0  0  0
  -11.0380   11.5910    7.1921 C   0  0  0  0  0  0  0  0  0  0  0  0
  -11.0613   10.7370    8.3055 C   0  0  0  0  0  0  0  0  0  0  0  0
  -11.7336   11.0591    9.4720 C   0  0  0  0  0  0  0  0  0  0  0  0
  -12.3936   12.2718    9.5100 C   0  0  0  0  0  0  0  0  0  0  0  0
  -12.3879   13.1316    8.4072 C   0  0  0  0  0  0  0  0  0  0  0  0
  -10.7095   13.5093   -0.1241 C   0  0  0  0  0  0  0  0  0  0  0  0
  -12.0743   13.4506   -0.7600 C   0  0  0  0  0  0  0  0  0  0  0  0
  -12.3032   12.0142   -1.0680 C   0  0  0  0  0  0  0  0  0  0  0  0
  -11.5190   11.1931   -0.6624 O   0  0  0  0  0  0  0  0  0  0  0  0
  -13.3912   11.6827   -1.7668 N   0  0  0  0  0  0  0  0  0  0  0  0
  -14.0074   12.3836   -2.0803 H   0  0  0  0  0  0  0  0  0  0  0  0
  -13.5774   10.7373   -1.9687 H   0  0  0  0  0  0  0  0  0  0  0  0
 39 40  2  0  0  0
 40 41  1  0  0  0
 40 38  1  0  0  0
 38 44  1  0  0  0
 38 34  1  0  0  0
 44 45  1  0  0  0
 45 46  2  0  0  0
 45 50  1  0  0  0
 46 47  1  0  0  0
 47 48  2  0  0  0
 48 49  1  0  0  0
 49 50  2  0  0  0
 34 35  1  0  0  0
 35 36  2  0  0  0
 35 33  1  0  0  0
 33 51  1  0  0  0
 33  1  1  0  0  0
 51 52  1  0  0  0
 52 53  1  0  0  0
 53 54  2  0  0  0
 53 55  1  0  0  0
  1  2  1  0  0  0
  2  3  2  0  0  0
  2  5  1  0  0  0
  5 26  1  0  0  0
  5  6  1  0  0  0
 26 27  1  0  0  0
 27 28  2  0  0  0
 27 32  1  0  0  0
 28 29  1  0  0  0
 29 30  2  0  0  0
 30 31  1  0  0  0
 31 32  2  0  0  0
  6  7  1  0  0  0
  7  8  2  0  0  0
  7  9  1  0  0  0
  9 10  1  0  0  0
  9 19  1  0  0  0
 10 11  1  0  0  0
 11 12  2  0  0  0
 11 14  1  0  0  0
 14 15  1  0  0  0
 15 16  1  0  0  0
 15 17  1  0  0  0
 15 18  1  0  0  0
 19 20  1  0  0  0
 20 21  2  0  0  0
 20 25  1  0  0  0
 21 22  1  0  0  0
 22 23  2  0  0  0
 23 24  1  0  0  0
 24 25  2  0  0  0
 41 42  1  0  0  0
 41 43  1  0  0  0
 34 37  1  0  0  0
 55 56  1  0  0  0
 55 57  1  0  0  0
  1  4  1  0  0  0
 10 13  1  0  0  0
M  END
> <minimizedAffinity>
-9.23226

$$$$
1IZI_Q50_B_1001


 57 59  0  0  0  0  0  0  0  0999 V2000
  -10.3024   15.0116    1.0979 N   0  0  0  0  0  0  0  0  0  0  0  0
   -9.7360   16.1684    1.2720 C   0  0  0  0  0  0  0  0  0  0  0  0
  -10.2786   17.2261    0.9387 O   0  0  0  0  0  0  0  0  0  0  0  0
   -9.7950   14.1898    1.2886 H   0  0  0  0  0  0  0  0  0  0  0  0
   -8.3738   16.0190    1.8657 C   0  0  0  0  0  0  0  0  0  0  0  0
   -7.3936   16.7010    0.9644 C   0  0  0  0  0  0  0  0  0  0  0  0
   -6.8776   15.7486   -0.0633 C   0  0  0  0  0  0  0  0  0  0  0  0
   -5.5896   15.4328    0.5362 O   0  0  0  0  0  0  0  0  0  0  0  0
   -7.0597   16.4421   -1.4363 C   0  0  0  0  0  0  0  0  0  0  0  0
   -5.9220   16.0759   -2.3167 N   0  0  0  0  0  0  0  0  0  0  0  0
   -4.9214   16.9653   -2.5731 C   0  0  0  0  0  0  0  0  0  0  0  0
   -5.0902   18.0697   -2.0451 O   0  0  0  0  0  0  0  0  0  0  0  0
   -5.8898   15.1787   -2.7208 H   0  0  0  0  0  0  0  0  0  0  0  0
   -3.7303   16.6410   -3.4454 O   0  0  0  0  0  0  0  0  0  0  0  0
   -2.2573   16.4767   -3.3197 C   0  0  0  0  0  0  0  0  0  0  0  0
   -1.8170   15.0760   -2.9759 C   0  0  0  0  0  0  0  0  0  0  0  0
   -1.6135   17.4388   -2.3568 C   0  0  0  0  0  0  0  0  0  0  0  0
   -1.5284   16.8652   -4.5914 C   0  0  0  0  0  0  0  0  0  0  0  0
   -8.4256   16.1778   -2.1169 C   0  0  0  0  0  0  0  0  0  0  0  0
   -8.3024   15.6545   -3.5395 C   0  0  0  0  0  0  0  0  0  0  0  0
   -7.9850   16.5386   -4.6060 C   0  0  0  0  0  0  0  0  0  0  0  0
   -7.8784   16.1087   -5.9397 C   0  0  0  0  0  0  0  0  0  0  0  0
   -8.0747   14.7665   -6.2606 C   0  0  0  0  0  0  0  0  0  0  0  0
   -8.3688   13.8704   -5.2060 C   0  0  0  0  0  0  0  0  0  0  0  0
   -8.4729   14.2880   -3.8549 C   0  0  0  0  0  0  0  0  0  0  0  0
   -8.2220   16.6896    3.2352 C   0  0  0  0  0  0  0  0  0  0  0  0
   -8.3031   15.7932    4.4559 C   0  0  0  0  0  0  0  0  0  0  0  0
   -8.1177   14.4112    4.3097 C   0  0  0  0  0  0  0  0  0  0  0  0
   -8.2184   13.5897    5.4386 C   0  0  0  0  0  0  0  0  0  0  0  0
   -8.5449   14.0927    6.7169 C   0  0  0  0  0  0  0  0  0  0  0  0
   -8.7410   15.4599    6.8654 C   0  0  0  0  0  0  0  0  0  0  0  0
   -8.6355   16.2981    5.7327 C   0  0  0  0  0  0  0  0  0  0  0  0
  -11.6610   14.9137    0.6303 C   0  0  0  0  0  0  0  0  0  0  0  0
  -11.9685   13.7603    2.7545 N   0  0  0  0  0  0  0  0  0  0  0  0
  -12.6028   14.1257    1.6203 C   0  0  0  0  0  0  0  0  0  0  0  0
  -13.8127   13.8128    1.4670 O   0  0  0  0  0  0  0  0  0  0  0  0
  -11.0115   13.9778    2.8322 H   0  0  0  0  0  0  0  0  0  0  0  0
  -12.6032   13.0600    3.8844 C   0  0  0  0  0  0  0  0  0  0  0  0
  -11.9846   14.7774    5.5505 O   0  0  0  0  0  0  0  0  0  0  0  0
  -12.0565   13.5851    5.2298 C   0  0  0  0  0  0  0  0  0  0  0  0
  -11.6747   12.6206    6.0810 N   0  0  0  0  0  0  0  0  0  0  0  0
  -11.3125   12.8591    6.9649 H   0  0  0  0  0  0  0  0  0  0  0  0
  -11.7566   11.6744    5.8217 H   0  0  0  0  0  0  0  0  0  0  0  0
  -12.4905   11.5255    3.6808 C   0  0  0  0  0  0  0  0  0  0  0  0
  -13.7924   10.7182    3.7043 C   0  0  0  0  0  0  0  0  0  0  0  0
  -14.4254   10.3028    2.5364 C   0  0  0  0  0  0  0  0  0  0  0  0
  -15.6490    9.6177    2.5897 C   0  0  0  0  0  0  0  0  0  0  0  0
  -16.2879    9.3347    3.7847 C   0  0  0  0  0  0  0  0  0  0  0  0
  -15.6726    9.7536    4.9482 C   0  0  0  0  0  0  0  0  0  0  0  0
  -14.4574   10.4446    4.9135 C   0  0  0  0  0  0  0  0  0  0  0  0
  -11.5510   14.4113   -0.7841 C   0  0  0  0  0  0  0  0  0  0  0  0
  -10.7914   13.1100   -0.7685 C   0  0  0  0  0  0  0  0  0  0  0  0
  -11.8285   12.0506   -0.6567 C   0  0  0  0  0  0  0  0  0  0  0  0
  -11.6185   11.0931    0.0453 O   0  0  0  0  0  0  0  0  0  0  0  0
  -12.9732   12.2130   -1.3241 N   0  0  0  0  0  0  0  0  0  0  0  0
  -13.1058   13.0095   -1.8874 H   0  0  0  0  0  0  0  0  0  0  0  0
  -13.6846   11.5362   -1.2531 H   0  0  0  0  0  0  0  0  0  0  0  0
 39 40  2  0  0  0
 40 41  1  0  0  0
 40 38  1  0  0  0
 38 44  1  0  0  0
 38 34  1  0  0  0
 44 45  1  0  0  0
 45 46  2  0  0  0
 45 50  1  0  0  0
 46 47  1  0  0  0
 47 48  2  0  0  0
 48 49  1  0  0  0
 49 50  2  0  0  0
 34 35  1  0  0  0
 35 36  2  0  0  0
 35 33  1  0  0  0
 33 51  1  0  0  0
 33  1  1  0  0  0
 51 52  1  0  0  0
 52 53  1  0  0  0
 53 54  2  0  0  0
 53 55  1  0  0  0
  1  2  1  0  0  0
  2  3  2  0  0  0
  2  5  1  0  0  0
  5 26  1  0  0  0
  5  6  1  0  0  0
 26 27  1  0  0  0
 27 28  2  0  0  0
 27 32  1  0  0  0
 28 29  1  0  0  0
 29 30  2  0  0  0
 30 31  1  0  0  0
 31 32  2  0  0  0
  6  7  1  0  0  0
  7  8  2  0  0  0
  7  9  1  0  0  0
  9 10  1  0  0  0
  9 19  1  0  0  0
 10 11  1  0  0  0
 11 12  2  0  0  0
 11 14  1  0  0  0
 14 15  1  0  0  0
 15 16  1  0  0  0
 15 17  1  0  0  0
 15 18  1  0  0  0
 19 20  1  0  0  0
 20 21  2  0  0  0
 20 25  1  0  0  0
 21 22  1  0  0  0
 22 23  2  0  0  0
 23 24  1  0  0  0
 24 25  2  0  0  0
 41 42  1  0  0  0
 41 43  1  0  0  0
 34 37  1  0  0  0
 55 56  1  0  0  0
 55 57  1  0  0  0
  1  4  1  0  0  0
 10 13  1  0  0  0
M  END
> <minimizedAffinity>
-9.14048

$$$$
1IZI_Q50_B_1001


 57 59  0  0  0  0  0  0  0  0999 V2000
   -8.1208   14.6316    3.2354 N   0  0  0  0  0  0  0  0  0  0  0  0
   -8.1407   15.7117    2.5126 C   0  0  0  0  0  0  0  0  0  0  0  0
   -9.0008   16.5859    2.6552 O   0  0  0  0  0  0  0  0  0  0  0  0
   -7.4765   13.9181    3.0232 H   0  0  0  0  0  0  0  0  0  0  0  0
   -7.0417   15.7054    1.5015 C   0  0  0  0  0  0  0  0  0  0  0  0
   -7.6498   15.4920    0.1513 C   0  0  0  0  0  0  0  0  0  0  0  0
   -8.5471   14.2986    0.1644 C   0  0  0  0  0  0  0  0  0  0  0  0
   -7.5463   13.2551    0.3302 O   0  0  0  0  0  0  0  0  0  0  0  0
   -9.4773   14.4344   -1.0666 C   0  0  0  0  0  0  0  0  0  0  0  0
   -8.6574   14.7770   -2.2557 N   0  0  0  0  0  0  0  0  0  0  0  0
   -9.1059   15.6726   -3.1802 C   0  0  0  0  0  0  0  0  0  0  0  0
  -10.2373   16.1090   -2.9420 O   0  0  0  0  0  0  0  0  0  0  0  0
   -7.7780   14.3517   -2.3782 H   0  0  0  0  0  0  0  0  0  0  0  0
   -8.3066   16.0733   -4.3990 O   0  0  0  0  0  0  0  0  0  0  0  0
   -8.0608   15.5987   -5.7871 C   0  0  0  0  0  0  0  0  0  0  0  0
   -6.7341   16.0264   -6.3625 C   0  0  0  0  0  0  0  0  0  0  0  0
   -9.1517   15.9596   -6.7601 C   0  0  0  0  0  0  0  0  0  0  0  0
   -8.1170   14.0871   -5.8926 C   0  0  0  0  0  0  0  0  0  0  0  0
  -10.3879   13.2087   -1.3261 C   0  0  0  0  0  0  0  0  0  0  0  0
  -11.6149   13.1647   -0.4288 C   0  0  0  0  0  0  0  0  0  0  0  0
  -11.9861   11.9577    0.2233 C   0  0  0  0  0  0  0  0  0  0  0  0
  -13.1207   11.8600    1.0468 C   0  0  0  0  0  0  0  0  0  0  0  0
  -13.9279   12.9758    1.2621 C   0  0  0  0  0  0  0  0  0  0  0  0
  -13.5579   14.1903    0.6379 C   0  0  0  0  0  0  0  0  0  0  0  0
  -12.4126   14.3061   -0.1901 C   0  0  0  0  0  0  0  0  0  0  0  0
   -6.2783   17.0311    1.4134 C   0  0  0  0  0  0  0  0  0  0  0  0
   -5.2756   17.1772    0.2849 C   0  0  0  0  0  0  0  0  0  0  0  0
   -4.1347   16.3625    0.2670 C   0  0  0  0  0  0  0  0  0  0  0  0
   -3.2033   16.5218   -0.7658 C   0  0  0  0  0  0  0  0  0  0  0  0
   -3.3439   17.5042   -1.7702 C   0  0  0  0  0  0  0  0  0  0  0  0
   -4.4667   18.3218   -1.7507 C   0  0  0  0  0  0  0  0  0  0  0  0
   -5.4156   18.1646   -0.7156 C   0  0  0  0  0  0  0  0  0  0  0  0
   -9.0269   14.4628    4.3420 C   0  0  0  0  0  0  0  0  0  0  0  0
  -11.0814   13.2694    4.8819 N   0  0  0  0  0  0  0  0  0  0  0  0
  -10.4547   13.9562    3.9033 C   0  0  0  0  0  0  0  0  0  0  0  0
  -11.0332   14.1099    2.7956 O   0  0  0  0  0  0  0  0  0  0  0  0
  -10.5913   13.1247    5.7234 H   0  0  0  0  0  0  0  0  0  0  0  0
  -12.4449   12.7205    4.7832 C   0  0  0  0  0  0  0  0  0  0  0  0
  -14.7072   13.7100    4.6809 O   0  0  0  0  0  0  0  0  0  0  0  0
  -13.4966   13.8457    4.8944 C   0  0  0  0  0  0  0  0  0  0  0  0
  -12.9963   15.0280    5.2850 N   0  0  0  0  0  0  0  0  0  0  0  0
  -13.5916   15.8058    5.3844 H   0  0  0  0  0  0  0  0  0  0  0  0
  -12.0339   15.1176    5.4722 H   0  0  0  0  0  0  0  0  0  0  0  0
  -12.6161   11.5557    5.7946 C   0  0  0  0  0  0  0  0  0  0  0  0
  -12.4337   10.1314    5.2603 C   0  0  0  0  0  0  0  0  0  0  0  0
  -12.1107    9.0651    6.0944 C   0  0  0  0  0  0  0  0  0  0  0  0
  -11.8901    7.7838    5.5662 C   0  0  0  0  0  0  0  0  0  0  0  0
  -11.9671    7.5186    4.2096 C   0  0  0  0  0  0  0  0  0  0  0  0
  -12.2755    8.5736    3.3732 C   0  0  0  0  0  0  0  0  0  0  0  0
  -12.4905    9.8586    3.8813 C   0  0  0  0  0  0  0  0  0  0  0  0
   -8.9455   15.7529    5.1126 C   0  0  0  0  0  0  0  0  0  0  0  0
   -8.4264   15.4494    6.4942 C   0  0  0  0  0  0  0  0  0  0  0  0
   -9.6236   15.0676    7.2889 C   0  0  0  0  0  0  0  0  0  0  0  0
  -10.6666   15.6400    7.0939 O   0  0  0  0  0  0  0  0  0  0  0  0
   -9.5034   14.0798    8.1787 N   0  0  0  0  0  0  0  0  0  0  0  0
   -8.6336   13.6373    8.3085 H   0  0  0  0  0  0  0  0  0  0  0  0
  -10.2846   13.7937    8.7051 H   0  0  0  0  0  0  0  0  0  0  0  0
 39 40  2  0  0  0
 40 41  1  0  0  0
 40 38  1  0  0  0
 38 44  1  0  0  0
 38 34  1  0  0  0
 44 45  1  0  0  0
 45 46  2  0  0  0
 45 50  1  0  0  0
 46 47  1  0  0  0
 47 48  2  0  0  0
 48 49  1  0  0  0
 49 50  2  0  0  0
 34 35  1  0  0  0
 35 36  2  0  0  0
 35 33  1  0  0  0
 33 51  1  0  0  0
 33  1  1  0  0  0
 51 52  1  0  0  0
 52 53  1  0  0  0
 53 54  2  0  0  0
 53 55  1  0  0  0
  1  2  1  0  0  0
  2  3  2  0  0  0
  2  5  1  0  0  0
  5 26  1  0  0  0
  5  6  1  0  0  0
 26 27  1  0  0  0
 27 28  2  0  0  0
 27 32  1  0  0  0
 28 29  1  0  0  0
 29 30  2  0  0  0
 30 31  1  0  0  0
 31 32  2  0  0  0
  6  7  1  0  0  0
  7  8  2  0  0  0
  7  9  1  0  0  0
  9 10  1  0  0  0
  9 19  1  0  0  0
 10 11  1  0  0  0
 11 12  2  0  0  0
 11 14  1  0  0  0
 14 15  1  0  0  0
 15 16  1  0  0  0
 15 17  1  0  0  0
 15 18  1  0  0  0
 19 20  1  0  0  0
 20 21  2  0  0  0
 20 25  1  0  0  0
 21 22  1  0  0  0
 22 23  2  0  0  0
 23 24  1  0  0  0
 24 25  2  0  0  0
 41 42  1  0  0  0
 41 43  1  0  0  0
 34 37  1  0  0  0
 55 56  1  0  0  0
 55 57  1  0  0  0
  1  4  1  0  0  0
 10 13  1  0  0  0
M  END
> <minimizedAffinity>
-9.11124

$$$$
1IZI_Q50_B_1001


 57 59  0  0  0  0  0  0  0  0999 V2000
   -7.7942   16.8712   -2.8744 N   0  0  0  0  0  0  0  0  0  0  0  0
   -7.7377   16.2693   -1.7238 C   0  0  0  0  0  0  0  0  0  0  0  0
   -7.3821   15.0924   -1.6110 O   0  0  0  0  0  0  0  0  0  0  0  0
   -8.1748   17.7775   -2.9292 H   0  0  0  0  0  0  0  0  0  0  0  0
   -8.1935   17.1676   -0.6212 C   0  0  0  0  0  0  0  0  0  0  0  0
   -8.8207   16.3220    0.4417 C   0  0  0  0  0  0  0  0  0  0  0  0
  -10.3054   16.3003    0.2846 C   0  0  0  0  0  0  0  0  0  0  0  0
  -10.6169   17.6164    0.8220 O   0  0  0  0  0  0  0  0  0  0  0  0
  -10.7930   14.9643    0.8984 C   0  0  0  0  0  0  0  0  0  0  0  0
  -10.9491   15.1353    2.3647 N   0  0  0  0  0  0  0  0  0  0  0  0
  -10.0971   14.5233    3.2350 C   0  0  0  0  0  0  0  0  0  0  0  0
   -9.2498   13.8120    2.6843 O   0  0  0  0  0  0  0  0  0  0  0  0
  -11.6778   15.6982    2.7132 H   0  0  0  0  0  0  0  0  0  0  0  0
  -10.1966   14.6768    4.7355 O   0  0  0  0  0  0  0  0  0  0  0  0
   -9.3073   14.9327    5.9000 C   0  0  0  0  0  0  0  0  0  0  0  0
   -8.2637   15.9947    5.6612 C   0  0  0  0  0  0  0  0  0  0  0  0
   -8.6316   13.6992    6.4376 C   0  0  0  0  0  0  0  0  0  0  0  0
  -10.0855   15.3526    7.1319 C   0  0  0  0  0  0  0  0  0  0  0  0
  -12.0708   14.3820    0.2451 C   0  0  0  0  0  0  0  0  0  0  0  0
  -12.6926   13.2439    1.0394 C   0  0  0  0  0  0  0  0  0  0  0  0
  -13.9104   13.4409    1.7452 C   0  0  0  0  0  0  0  0  0  0  0  0
  -14.5154   12.4279    2.5086 C   0  0  0  0  0  0  0  0  0  0  0  0
  -13.9292   11.1657    2.5876 C   0  0  0  0  0  0  0  0  0  0  0  0
  -12.7286   10.9480    1.8716 C   0  0  0  0  0  0  0  0  0  0  0  0
  -12.1099   11.9579    1.0918 C   0  0  0  0  0  0  0  0  0  0  0  0
   -7.0535   17.9276    0.0650 C   0  0  0  0  0  0  0  0  0  0  0  0
   -5.6383   17.4866   -0.2555 C   0  0  0  0  0  0  0  0  0  0  0  0
   -5.0071   16.5435    0.5679 C   0  0  0  0  0  0  0  0  0  0  0  0
   -3.6922   16.1611    0.2776 C   0  0  0  0  0  0  0  0  0  0  0  0
   -2.9563   16.7219   -0.7890 C   0  0  0  0  0  0  0  0  0  0  0  0
   -3.5729   17.6652   -1.6012 C   0  0  0  0  0  0  0  0  0  0  0  0
   -4.9021   18.0533   -1.3197 C   0  0  0  0  0  0  0  0  0  0  0  0
   -7.3084   16.2326   -4.0703 C   0  0  0  0  0  0  0  0  0  0  0  0
   -5.1548   16.4681   -5.1852 N   0  0  0  0  0  0  0  0  0  0  0  0
   -6.2938   17.1262   -4.8826 C   0  0  0  0  0  0  0  0  0  0  0  0
   -6.4254   18.3236   -5.2492 O   0  0  0  0  0  0  0  0  0  0  0  0
   -5.0570   15.5476   -4.8499 H   0  0  0  0  0  0  0  0  0  0  0  0
   -4.0472   17.0261   -5.9802 C   0  0  0  0  0  0  0  0  0  0  0  0
   -4.2498   15.0768   -7.4860 O   0  0  0  0  0  0  0  0  0  0  0  0
   -3.8664   16.2371   -7.2953 C   0  0  0  0  0  0  0  0  0  0  0  0
   -3.2664   16.9319   -8.2741 N   0  0  0  0  0  0  0  0  0  0  0  0
   -3.1078   16.5116   -9.1501 H   0  0  0  0  0  0  0  0  0  0  0  0
   -2.9849   17.8620   -8.1162 H   0  0  0  0  0  0  0  0  0  0  0  0
   -2.7744   17.1399   -5.0993 C   0  0  0  0  0  0  0  0  0  0  0  0
   -1.9718   15.8571   -4.8590 C   0  0  0  0  0  0  0  0  0  0  0  0
   -1.9419   15.2257   -3.6190 C   0  0  0  0  0  0  0  0  0  0  0  0
   -1.1484   14.0865   -3.4142 C   0  0  0  0  0  0  0  0  0  0  0  0
   -0.3560   13.5466   -4.4128 C   0  0  0  0  0  0  0  0  0  0  0  0
   -0.3704   14.1739   -5.6432 C   0  0  0  0  0  0  0  0  0  0  0  0
   -1.1488   15.3147   -5.8628 C   0  0  0  0  0  0  0  0  0  0  0  0
   -8.5427   15.7475   -4.7818 C   0  0  0  0  0  0  0  0  0  0  0  0
   -8.1158   14.8659   -5.9268 C   0  0  0  0  0  0  0  0  0  0  0  0
   -8.1398   15.7420   -7.1278 C   0  0  0  0  0  0  0  0  0  0  0  0
   -8.8770   16.6959   -7.1458 O   0  0  0  0  0  0  0  0  0  0  0  0
   -7.3191   15.4510   -8.1395 N   0  0  0  0  0  0  0  0  0  0  0  0
   -6.7322   14.6624   -8.0861 H   0  0  0  0  0  0  0  0  0  0  0  0
   -7.3006   16.0251   -8.9391 H   0  0  0  0  0  0  0  0  0  0  0  0
 39 40  2  0  0  0
 40 41  1  0  0  0
 40 38  1  0  0  0
 38 44  1  0  0  0
 38 34  1  0  0  0
 44 45  1  0  0  0
 45 46  2  0  0  0
 45 50  1  0  0  0
 46 47  1  0  0  0
 47 48  2  0  0  0
 48 49  1  0  0  0
 49 50  2  0  0  0
 34 35  1  0  0  0
 35 36  2  0  0  0
 35 33  1  0  0  0
 33 51  1  0  0  0
 33  1  1  0  0  0
 51 52  1  0  0  0
 52 53  1  0  0  0
 53 54  2  0  0  0
 53 55  1  0  0  0
  1  2  1  0  0  0
  2  3  2  0  0  0
  2  5  1  0  0  0
  5 26  1  0  0  0
  5  6  1  0  0  0
 26 27  1  0  0  0
 27 28  2  0  0  0
 27 32  1  0  0  0
 28 29  1  0  0  0
 29 30  2  0  0  0
 30 31  1  0  0  0
 31 32  2  0  0  0
  6  7  1  0  0  0
  7  8  2  0  0  0
  7  9  1  0  0  0
  9 10  1  0  0  0
  9 19  1  0  0  0
 10 11  1  0  0  0
 11 12  2  0  0  0
 11 14  1  0  0  0
 14 15  1  0  0  0
 15 16  1  0  0  0
 15 17  1  0  0  0
 15 18  1  0  0  0
 19 20  1  0  0  0
 20 21  2  0  0  0
 20 25  1  0  0  0
 21 22  1  0  0  0
 22 23  2  0  0  0
 23 24  1  0  0  0
 24 25  2  0  0  0
 41 42  1  0  0  0
 41 43  1  0  0  0
 34 37  1  0  0  0
 55 56  1  0  0  0
 55 57  1  0  0  0
  1  4  1  0  0  0
 10 13  1  0  0  0
M  END
> <minimizedAffinity>
-9.10583

$$$$
1IZI_Q50_B_1001


 57 59  0  0  0  0  0  0  0  0999 V2000
  -12.5645   13.2722    1.9568 N   0  0  0  0  0  0  0  0  0  0  0  0
  -11.3195   13.5820    2.1651 C   0  0  0  0  0  0  0  0  0  0  0  0
  -10.7443   13.3265    3.2273 O   0  0  0  0  0  0  0  0  0  0  0  0
  -13.0096   13.5803    1.1346 H   0  0  0  0  0  0  0  0  0  0  0  0
  -10.7385   14.3019    0.9927 C   0  0  0  0  0  0  0  0  0  0  0  0
   -9.3363   14.6960    1.3342 C   0  0  0  0  0  0  0  0  0  0  0  0
   -9.3164   16.0294    2.0059 C   0  0  0  0  0  0  0  0  0  0  0  0
  -10.0660   16.7977    1.0231 O   0  0  0  0  0  0  0  0  0  0  0  0
   -7.8425   16.3037    2.3952 C   0  0  0  0  0  0  0  0  0  0  0  0
   -7.2327   17.1964    1.3780 N   0  0  0  0  0  0  0  0  0  0  0  0
   -6.4010   16.6991    0.4194 C   0  0  0  0  0  0  0  0  0  0  0  0
   -6.1940   15.4851    0.5215 O   0  0  0  0  0  0  0  0  0  0  0  0
   -7.4316   18.1604    1.3959 H   0  0  0  0  0  0  0  0  0  0  0  0
   -5.7675   17.5570   -0.6518 O   0  0  0  0  0  0  0  0  0  0  0  0
   -4.6750   17.4736   -1.6578 C   0  0  0  0  0  0  0  0  0  0  0  0
   -5.0524   16.7462   -2.9237 C   0  0  0  0  0  0  0  0  0  0  0  0
   -3.3943   16.8885   -1.1243 C   0  0  0  0  0  0  0  0  0  0  0  0
   -4.1742   18.8435   -2.0726 C   0  0  0  0  0  0  0  0  0  0  0  0
   -7.6446   16.8454    3.8326 C   0  0  0  0  0  0  0  0  0  0  0  0
   -8.1005   15.8771    4.9131 C   0  0  0  0  0  0  0  0  0  0  0  0
   -8.8081   16.3506    6.0510 C   0  0  0  0  0  0  0  0  0  0  0  0
   -9.2342   15.5002    7.0855 C   0  0  0  0  0  0  0  0  0  0  0  0
   -8.9785   14.1317    7.0172 C   0  0  0  0  0  0  0  0  0  0  0  0
   -8.2950   13.6424    5.8792 C   0  0  0  0  0  0  0  0  0  0  0  0
   -7.8648   14.4869    4.8244 C   0  0  0  0  0  0  0  0  0  0  0  0
  -10.6369   13.4403   -0.2704 C   0  0  0  0  0  0  0  0  0  0  0  0
  -10.0524   14.0946   -1.5075 C   0  0  0  0  0  0  0  0  0  0  0  0
  -10.9080   14.7170   -2.4275 C   0  0  0  0  0  0  0  0  0  0  0  0
  -10.3610   15.2968   -3.5782 C   0  0  0  0  0  0  0  0  0  0  0  0
   -8.9814   15.2413   -3.8740 C   0  0  0  0  0  0  0  0  0  0  0  0
   -8.1306   14.6157   -2.9716 C   0  0  0  0  0  0  0  0  0  0  0  0
   -8.6726   14.0327   -1.8041 C   0  0  0  0  0  0  0  0  0  0  0  0
  -13.3027   12.4850    2.9105 C   0  0  0  0  0  0  0  0  0  0  0  0
  -14.6044   10.4450    3.1944 N   0  0  0  0  0  0  0  0  0  0  0  0
  -13.9117   11.1690    2.2899 C   0  0  0  0  0  0  0  0  0  0  0  0
  -13.8165   10.7442    1.1084 O   0  0  0  0  0  0  0  0  0  0  0  0
  -14.6276   10.7751    4.1216 H   0  0  0  0  0  0  0  0  0  0  0  0
  -15.3283    9.1972    2.8959 C   0  0  0  0  0  0  0  0  0  0  0  0
  -17.3023    9.9472    4.1799 O   0  0  0  0  0  0  0  0  0  0  0  0
  -16.8338    9.3517    3.2024 C   0  0  0  0  0  0  0  0  0  0  0  0
  -17.6405    8.7999    2.2829 N   0  0  0  0  0  0  0  0  0  0  0  0
  -18.6177    8.8481    2.3928 H   0  0  0  0  0  0  0  0  0  0  0  0
  -17.2553    8.3469    1.4983 H   0  0  0  0  0  0  0  0  0  0  0  0
  -14.6307    8.0041    3.6023 C   0  0  0  0  0  0  0  0  0  0  0  0
  -13.9541    8.2851    4.9479 C   0  0  0  0  0  0  0  0  0  0  0  0
  -14.6824    8.4298    6.1251 C   0  0  0  0  0  0  0  0  0  0  0  0
  -14.0388    8.7476    7.3310 C   0  0  0  0  0  0  0  0  0  0  0  0
  -12.6707    8.9441    7.4110 C   0  0  0  0  0  0  0  0  0  0  0  0
  -11.9416    8.8140    6.2452 C   0  0  0  0  0  0  0  0  0  0  0  0
  -12.5673    8.5058    5.0331 C   0  0  0  0  0  0  0  0  0  0  0  0
  -14.2479   13.4545    3.5674 C   0  0  0  0  0  0  0  0  0  0  0  0
  -13.6243   13.9279    4.8549 C   0  0  0  0  0  0  0  0  0  0  0  0
  -13.3172   12.6913    5.6210 C   0  0  0  0  0  0  0  0  0  0  0  0
  -14.2218   11.9729    5.9663 O   0  0  0  0  0  0  0  0  0  0  0  0
  -12.0384   12.4080    5.8786 N   0  0  0  0  0  0  0  0  0  0  0  0
  -11.3285   13.0210    5.5794 H   0  0  0  0  0  0  0  0  0  0  0  0
  -11.8051   11.5860    6.3676 H   0  0  0  0  0  0  0  0  0  0  0  0
 39 40  2  0  0  0
 40 41  1  0  0  0
 40 38  1  0  0  0
 38 44  1  0  0  0
 38 34  1  0  0  0
 44 45  1  0  0  0
 45 46  2  0  0  0
 45 50  1  0  0  0
 46 47  1  0  0  0
 47 48  2  0  0  0
 48 49  1  0  0  0
 49 50  2  0  0  0
 34 35  1  0  0  0
 35 36  2  0  0  0
 35 33  1  0  0  0
 33 51  1  0  0  0
 33  1  1  0  0  0
 51 52  1  0  0  0
 52 53  1  0  0  0
 53 54  2  0  0  0
 53 55  1  0  0  0
  1  2  1  0  0  0
  2  3  2  0  0  0
  2  5  1  0  0  0
  5 26  1  0  0  0
  5  6  1  0  0  0
 26 27  1  0  0  0
 27 28  2  0  0  0
 27 32  1  0  0  0
 28 29  1  0  0  0
 29 30  2  0  0  0
 30 31  1  0  0  0
 31 32  2  0  0  0
  6  7  1  0  0  0
  7  8  2  0  0  0
  7  9  1  0  0  0
  9 10  1  0  0  0
  9 19  1  0  0  0
 10 11  1  0  0  0
 11 12  2  0  0  0
 11 14  1  0  0  0
 14 15  1  0  0  0
 15 16  1  0  0  0
 15 17  1  0  0  0
 15 18  1  0  0  0
 19 20  1  0  0  0
 20 21  2  0  0  0
 20 25  1  0  0  0
 21 22  1  0  0  0
 22 23  2  0  0  0
 23 24  1  0  0  0
 24 25  2  0  0  0
 41 42  1  0  0  0
 41 43  1  0  0  0
 34 37  1  0  0  0
 55 56  1  0  0  0
 55 57  1  0  0  0
  1  4  1  0  0  0
 10 13  1  0  0  0
M  END
> <minimizedAffinity>
-8.97845

$$$$
1IZI_Q50_B_1001


 57 59  0  0  0  0  0  0  0  0999 V2000
  -10.9683   13.4058    2.4926 N   0  0  0  0  0  0  0  0  0  0  0  0
  -10.8386   14.4090    1.6764 C   0  0  0  0  0  0  0  0  0  0  0  0
  -11.7998   14.9031    1.0795 O   0  0  0  0  0  0  0  0  0  0  0  0
  -10.1645   12.9820    2.8715 H   0  0  0  0  0  0  0  0  0  0  0  0
   -9.4081   14.8175    1.5457 C   0  0  0  0  0  0  0  0  0  0  0  0
   -9.2149   15.4156    0.1880 C   0  0  0  0  0  0  0  0  0  0  0  0
   -8.7233   16.8209    0.3006 C   0  0  0  0  0  0  0  0  0  0  0  0
   -9.9790   17.5257    0.0897 O   0  0  0  0  0  0  0  0  0  0  0  0
   -7.4889   16.9307   -0.6288 C   0  0  0  0  0  0  0  0  0  0  0  0
   -7.9520   17.0540   -2.0338 N   0  0  0  0  0  0  0  0  0  0  0  0
   -7.6216   16.1144   -2.9643 C   0  0  0  0  0  0  0  0  0  0  0  0
   -6.8924   15.2171   -2.5279 O   0  0  0  0  0  0  0  0  0  0  0  0
   -8.5051   17.8248   -2.2970 H   0  0  0  0  0  0  0  0  0  0  0  0
   -8.0803   16.1785   -4.4031 O   0  0  0  0  0  0  0  0  0  0  0  0
   -8.7696   15.3184   -5.4019 C   0  0  0  0  0  0  0  0  0  0  0  0
   -8.0141   14.0656   -5.7674 C   0  0  0  0  0  0  0  0  0  0  0  0
   -9.1581   16.0382   -6.6661 C   0  0  0  0  0  0  0  0  0  0  0  0
  -10.1417   14.8798   -4.9282 C   0  0  0  0  0  0  0  0  0  0  0  0
   -6.4920   18.0532   -0.2482 C   0  0  0  0  0  0  0  0  0  0  0  0
   -5.1190   17.8840   -0.8799 C   0  0  0  0  0  0  0  0  0  0  0  0
   -4.2795   16.8031   -0.4967 C   0  0  0  0  0  0  0  0  0  0  0  0
   -2.9957   16.6135   -1.0361 C   0  0  0  0  0  0  0  0  0  0  0  0
   -2.5017   17.4961   -1.9952 C   0  0  0  0  0  0  0  0  0  0  0  0
   -3.3354   18.5638   -2.4034 C   0  0  0  0  0  0  0  0  0  0  0  0
   -4.6352   18.7643   -1.8733 C   0  0  0  0  0  0  0  0  0  0  0  0
   -8.9826   15.8984    2.5451 C   0  0  0  0  0  0  0  0  0  0  0  0
   -8.6731   15.4477    3.9598 C   0  0  0  0  0  0  0  0  0  0  0  0
   -8.1643   14.1594    4.1769 C   0  0  0  0  0  0  0  0  0  0  0  0
   -7.9047   13.7444    5.4884 C   0  0  0  0  0  0  0  0  0  0  0  0
   -8.1775   14.5574    6.6100 C   0  0  0  0  0  0  0  0  0  0  0  0
   -8.6926   15.8306    6.4014 C   0  0  0  0  0  0  0  0  0  0  0  0
   -8.9523   16.2608    5.0808 C   0  0  0  0  0  0  0  0  0  0  0  0
  -12.2700   12.9046    2.8511 C   0  0  0  0  0  0  0  0  0  0  0  0
  -12.4641   12.0017    5.1059 N   0  0  0  0  0  0  0  0  0  0  0  0
  -12.6219   13.1242    4.3729 C   0  0  0  0  0  0  0  0  0  0  0  0
  -13.0202   14.1754    4.9401 O   0  0  0  0  0  0  0  0  0  0  0  0
  -12.1942   11.1819    4.6323 H   0  0  0  0  0  0  0  0  0  0  0  0
  -12.6661   11.9134    6.5624 C   0  0  0  0  0  0  0  0  0  0  0  0
  -10.3756   11.7446    7.4751 O   0  0  0  0  0  0  0  0  0  0  0  0
  -11.4116   12.4018    7.3189 C   0  0  0  0  0  0  0  0  0  0  0  0
  -11.5089   13.6536    7.7924 N   0  0  0  0  0  0  0  0  0  0  0  0
  -10.7579   14.0518    8.2890 H   0  0  0  0  0  0  0  0  0  0  0  0
  -12.3313   14.1738    7.6432 H   0  0  0  0  0  0  0  0  0  0  0  0
  -13.1501   10.4878    6.9395 C   0  0  0  0  0  0  0  0  0  0  0  0
  -13.0513    9.4058    5.8593 C   0  0  0  0  0  0  0  0  0  0  0  0
  -11.9499    8.5608    5.7585 C   0  0  0  0  0  0  0  0  0  0  0  0
  -11.8612    7.6205    4.7206 C   0  0  0  0  0  0  0  0  0  0  0  0
  -12.8404    7.4938    3.7502 C   0  0  0  0  0  0  0  0  0  0  0  0
  -13.9314    8.3365    3.8357 C   0  0  0  0  0  0  0  0  0  0  0  0
  -14.0325    9.2849    4.8584 C   0  0  0  0  0  0  0  0  0  0  0  0
  -12.3064   11.4978    2.3177 C   0  0  0  0  0  0  0  0  0  0  0  0
  -13.2894   11.4473    1.1768 C   0  0  0  0  0  0  0  0  0  0  0  0
  -12.4954   11.7603   -0.0406 C   0  0  0  0  0  0  0  0  0  0  0  0
  -11.5436   11.0731   -0.3153 O   0  0  0  0  0  0  0  0  0  0  0  0
  -12.8844   12.7843   -0.8035 N   0  0  0  0  0  0  0  0  0  0  0  0
  -13.6675   13.3217   -0.5443 H   0  0  0  0  0  0  0  0  0  0  0  0
  -12.3882   13.0021   -1.6254 H   0  0  0  0  0  0  0  0  0  0  0  0
 39 40  2  0  0  0
 40 41  1  0  0  0
 40 38  1  0  0  0
 38 44  1  0  0  0
 38 34  1  0  0  0
 44 45  1  0  0  0
 45 46  2  0  0  0
 45 50  1  0  0  0
 46 47  1  0  0  0
 47 48  2  0  0  0
 48 49  1  0  0  0
 49 50  2  0  0  0
 34 35  1  0  0  0
 35 36  2  0  0  0
 35 33  1  0  0  0
 33 51  1  0  0  0
 33  1  1  0  0  0
 51 52  1  0  0  0
 52 53  1  0  0  0
 53 54  2  0  0  0
 53 55  1  0  0  0
  1  2  1  0  0  0
  2  3  2  0  0  0
  2  5  1  0  0  0
  5 26  1  0  0  0
  5  6  1  0  0  0
 26 27  1  0  0  0
 27 28  2  0  0  0
 27 32  1  0  0  0
 28 29  1  0  0  0
 29 30  2  0  0  0
 30 31  1  0  0  0
 31 32  2  0  0  0
  6  7  1  0  0  0
  7  8  2  0  0  0
  7  9  1  0  0  0
  9 10  1  0  0  0
  9 19  1  0  0  0
 10 11  1  0  0  0
 11 12  2  0  0  0
 11 14  1  0  0  0
 14 15  1  0  0  0
 15 16  1  0  0  0
 15 17  1  0  0  0
 15 18  1  0  0  0
 19 20  1  0  0  0
 20 21  2  0  0  0
 20 25  1  0  0  0
 21 22  1  0  0  0
 22 23  2  0  0  0
 23 24  1  0  0  0
 24 25  2  0  0  0
 41 42  1  0  0  0
 41 43  1  0  0  0
 34 37  1  0  0  0
 55 56  1  0  0  0
 55 57  1  0  0  0
  1  4  1  0  0  0
 10 13  1  0  0  0
M  END
> <minimizedAffinity>
-8.93913

$$$$
1IZI_Q50_B_1001


 57 59  0  0  0  0  0  0  0  0999 V2000
  -11.8360   12.3190    2.5313 N   0  0  0  0  0  0  0  0  0  0  0  0
  -11.8571   13.4598    3.1537 C   0  0  0  0  0  0  0  0  0  0  0  0
  -12.8634   13.8761    3.7354 O   0  0  0  0  0  0  0  0  0  0  0  0
  -11.0449   12.0711    2.0003 H   0  0  0  0  0  0  0  0  0  0  0  0
  -10.5514   14.1724    3.0199 C   0  0  0  0  0  0  0  0  0  0  0  0
  -10.5018   14.8070    1.6660 C   0  0  0  0  0  0  0  0  0  0  0  0
   -9.6102   16.0047    1.6820 C   0  0  0  0  0  0  0  0  0  0  0  0
  -10.4579   16.9372    0.9542 O   0  0  0  0  0  0  0  0  0  0  0  0
   -8.2191   15.5236    1.1995 C   0  0  0  0  0  0  0  0  0  0  0  0
   -8.2163   15.4652   -0.2838 N   0  0  0  0  0  0  0  0  0  0  0  0
   -8.0268   14.2840   -0.9370 C   0  0  0  0  0  0  0  0  0  0  0  0
   -7.8257   13.3255   -0.1833 O   0  0  0  0  0  0  0  0  0  0  0  0
   -8.3531   16.2906   -0.8026 H   0  0  0  0  0  0  0  0  0  0  0  0
   -8.0331   14.1619   -2.4436 O   0  0  0  0  0  0  0  0  0  0  0  0
   -8.5536   14.8960   -3.6280 C   0  0  0  0  0  0  0  0  0  0  0  0
   -7.8946   16.2308   -3.8687 C   0  0  0  0  0  0  0  0  0  0  0  0
  -10.0474   15.0850   -3.6237 C   0  0  0  0  0  0  0  0  0  0  0  0
   -8.4032   14.0962   -4.9075 C   0  0  0  0  0  0  0  0  0  0  0  0
   -7.0261   16.3450    1.7479 C   0  0  0  0  0  0  0  0  0  0  0  0
   -6.0810   16.8386    0.6634 C   0  0  0  0  0  0  0  0  0  0  0  0
   -6.3174   18.0807    0.0144 C   0  0  0  0  0  0  0  0  0  0  0  0
   -5.4855   18.5721   -1.0061 C   0  0  0  0  0  0  0  0  0  0  0  0
   -4.3700   17.8419   -1.4127 C   0  0  0  0  0  0  0  0  0  0  0  0
   -4.1090   16.6143   -0.7598 C   0  0  0  0  0  0  0  0  0  0  0  0
   -4.9351   16.1087    0.2759 C   0  0  0  0  0  0  0  0  0  0  0  0
  -10.3669   15.3137    4.0257 C   0  0  0  0  0  0  0  0  0  0  0  0
   -9.7732   14.9562    5.3747 C   0  0  0  0  0  0  0  0  0  0  0  0
  -10.5636   15.0687    6.5272 C   0  0  0  0  0  0  0  0  0  0  0  0
   -9.9989   14.7595    7.7702 C   0  0  0  0  0  0  0  0  0  0  0  0
   -8.6467   14.3802    7.9166 C   0  0  0  0  0  0  0  0  0  0  0  0
   -7.8559   14.2783    6.7792 C   0  0  0  0  0  0  0  0  0  0  0  0
   -8.4185   14.5825    5.5193 C   0  0  0  0  0  0  0  0  0  0  0  0
  -12.9521   11.4121    2.6066 C   0  0  0  0  0  0  0  0  0  0  0  0
  -13.2573   10.1960    4.6958 N   0  0  0  0  0  0  0  0  0  0  0  0
  -12.6577   10.1375    3.4878 C   0  0  0  0  0  0  0  0  0  0  0  0
  -11.9546    9.1331    3.2008 O   0  0  0  0  0  0  0  0  0  0  0  0
  -13.7653   11.0106    4.9138 H   0  0  0  0  0  0  0  0  0  0  0  0
  -13.2073    9.1305    5.7118 C   0  0  0  0  0  0  0  0  0  0  0  0
  -15.0585   10.2602    6.8969 O   0  0  0  0  0  0  0  0  0  0  0  0
  -14.4168    9.2283    6.6667 C   0  0  0  0  0  0  0  0  0  0  0  0
  -14.7635    8.0628    7.2345 N   0  0  0  0  0  0  0  0  0  0  0  0
  -15.5238    8.0264    7.8589 H   0  0  0  0  0  0  0  0  0  0  0  0
  -14.2575    7.2443    7.0266 H   0  0  0  0  0  0  0  0  0  0  0  0
  -11.8185    9.1310    6.4047 C   0  0  0  0  0  0  0  0  0  0  0  0
  -11.7079    9.8527    7.7516 C   0  0  0  0  0  0  0  0  0  0  0  0
  -11.6918   11.2412    7.8467 C   0  0  0  0  0  0  0  0  0  0  0  0
  -11.5277   11.8721    9.0894 C   0  0  0  0  0  0  0  0  0  0  0  0
  -11.3624   11.1605   10.2653 C   0  0  0  0  0  0  0  0  0  0  0  0
  -11.3652    9.7820   10.1787 C   0  0  0  0  0  0  0  0  0  0  0  0
  -11.5193    9.1365    8.9477 C   0  0  0  0  0  0  0  0  0  0  0  0
  -13.3757   11.1961    1.1786 C   0  0  0  0  0  0  0  0  0  0  0  0
  -12.1557   11.2988    0.3002 C   0  0  0  0  0  0  0  0  0  0  0  0
  -12.6202   11.9740   -0.9403 C   0  0  0  0  0  0  0  0  0  0  0  0
  -13.3213   11.3691   -1.7124 O   0  0  0  0  0  0  0  0  0  0  0  0
  -12.2605   13.2436   -1.1421 N   0  0  0  0  0  0  0  0  0  0  0  0
  -11.6863   13.7026   -0.4872 H   0  0  0  0  0  0  0  0  0  0  0  0
  -12.5694   13.7209   -1.9458 H   0  0  0  0  0  0  0  0  0  0  0  0
 39 40  2  0  0  0
 40 41  1  0  0  0
 40 38  1  0  0  0
 38 44  1  0  0  0
 38 34  1  0  0  0
 44 45  1  0  0  0
 45 46  2  0  0  0
 45 50  1  0  0  0
 46 47  1  0  0  0
 47 48  2  0  0  0
 48 49  1  0  0  0
 49 50  2  0  0  0
 34 35  1  0  0  0
 35 36  2  0  0  0
 35 33  1  0  0  0
 33 51  1  0  0  0
 33  1  1  0  0  0
 51 52  1  0  0  0
 52 53  1  0  0  0
 53 54  2  0  0  0
 53 55  1  0  0  0
  1  2  1  0  0  0
  2  3  2  0  0  0
  2  5  1  0  0  0
  5 26  1  0  0  0
  5  6  1  0  0  0
 26 27  1  0  0  0
 27 28  2  0  0  0
 27 32  1  0  0  0
 28 29  1  0  0  0
 29 30  2  0  0  0
 30 31  1  0  0  0
 31 32  2  0  0  0
  6  7  1  0  0  0
  7  8  2  0  0  0
  7  9  1  0  0  0
  9 10  1  0  0  0
  9 19  1  0  0  0
 10 11  1  0  0  0
 11 12  2  0  0  0
 11 14  1  0  0  0
 14 15  1  0  0  0
 15 16  1  0  0  0
 15 17  1  0  0  0
 15 18  1  0  0  0
 19 20  1  0  0  0
 20 21  2  0  0  0
 20 25  1  0  0  0
 21 22  1  0  0  0
 22 23  2  0  0  0
 23 24  1  0  0  0
 24 25  2  0  0  0
 41 42  1  0  0  0
 41 43  1  0  0  0
 34 37  1  0  0  0
 55 56  1  0  0  0
 55 57  1  0  0  0
  1  4  1  0  0  0
 10 13  1  0  0  0
M  END
> <minimizedAffinity>
-8.85624

$$$$
1IZI_Q50_B_1001


 57 59  0  0  0  0  0  0  0  0999 V2000
  -10.4142   13.6529    3.7512 N   0  0  0  0  0  0  0  0  0  0  0  0
  -11.5716   13.9314    4.2730 C   0  0  0  0  0  0  0  0  0  0  0  0
  -11.7928   14.9952    4.8593 O   0  0  0  0  0  0  0  0  0  0  0  0
  -10.2536   12.7558    3.3789 H   0  0  0  0  0  0  0  0  0  0  0  0
  -12.5287   12.7980    4.1007 C   0  0  0  0  0  0  0  0  0  0  0  0
  -13.3040   12.6437    5.3709 C   0  0  0  0  0  0  0  0  0  0  0  0
  -13.7485   11.2288    5.5438 C   0  0  0  0  0  0  0  0  0  0  0  0
  -14.3815   11.3403    6.8495 O   0  0  0  0  0  0  0  0  0  0  0  0
  -12.5166   10.3406    5.2392 C   0  0  0  0  0  0  0  0  0  0  0  0
  -12.2770    9.4359    6.3915 N   0  0  0  0  0  0  0  0  0  0  0  0
  -11.4405    9.7996    7.4043 C   0  0  0  0  0  0  0  0  0  0  0  0
  -10.9014   10.8984    7.2339 O   0  0  0  0  0  0  0  0  0  0  0  0
  -12.7283    8.5616    6.4245 H   0  0  0  0  0  0  0  0  0  0  0  0
  -11.1741    8.9279    8.6102 O   0  0  0  0  0  0  0  0  0  0  0  0
  -11.6226    8.7962   10.0222 C   0  0  0  0  0  0  0  0  0  0  0  0
  -11.1720    7.5266   10.6998 C   0  0  0  0  0  0  0  0  0  0  0  0
  -13.1091    8.9459   10.2094 C   0  0  0  0  0  0  0  0  0  0  0  0
  -11.1415    9.9472   10.8843 C   0  0  0  0  0  0  0  0  0  0  0  0
  -12.5955    9.5642    3.9014 C   0  0  0  0  0  0  0  0  0  0  0  0
  -13.9565    8.9361    3.6448 C   0  0  0  0  0  0  0  0  0  0  0  0
  -14.9396    9.6332    2.8914 C   0  0  0  0  0  0  0  0  0  0  0  0
  -16.2180    9.1051    2.6426 C   0  0  0  0  0  0  0  0  0  0  0  0
  -16.5624    7.8456    3.1304 C   0  0  0  0  0  0  0  0  0  0  0  0
  -15.5861    7.1300    3.8627 C   0  0  0  0  0  0  0  0  0  0  0  0
  -14.2901    7.6467    4.1160 C   0  0  0  0  0  0  0  0  0  0  0  0
  -13.5685   13.0320    2.9997 C   0  0  0  0  0  0  0  0  0  0  0  0
  -13.0800   12.9750    1.5650 C   0  0  0  0  0  0  0  0  0  0  0  0
  -13.0900   14.1412    0.7868 C   0  0  0  0  0  0  0  0  0  0  0  0
  -12.6599   14.0729   -0.5436 C   0  0  0  0  0  0  0  0  0  0  0  0
  -12.2567   12.8633   -1.1501 C   0  0  0  0  0  0  0  0  0  0  0  0
  -12.2559   11.7026   -0.3869 C   0  0  0  0  0  0  0  0  0  0  0  0
  -12.6827   11.7625    0.9588 C   0  0  0  0  0  0  0  0  0  0  0  0
   -9.3632   14.6366    3.7094 C   0  0  0  0  0  0  0  0  0  0  0  0
   -8.7561   15.9171    1.7273 N   0  0  0  0  0  0  0  0  0  0  0  0
   -8.6342   14.7068    2.3124 C   0  0  0  0  0  0  0  0  0  0  0  0
   -7.9946   13.8001    1.7172 O   0  0  0  0  0  0  0  0  0  0  0  0
   -9.2976   16.5957    2.1916 H   0  0  0  0  0  0  0  0  0  0  0  0
   -8.1384   16.2971    0.4451 C   0  0  0  0  0  0  0  0  0  0  0  0
   -6.0593   17.2565    1.3751 O   0  0  0  0  0  0  0  0  0  0  0  0
   -7.0593   17.3809    0.6580 C   0  0  0  0  0  0  0  0  0  0  0  0
   -7.2680   18.5079   -0.0400 N   0  0  0  0  0  0  0  0  0  0  0  0
   -6.6321   19.2561    0.0315 H   0  0  0  0  0  0  0  0  0  0  0  0
   -8.0569   18.5864   -0.6237 H   0  0  0  0  0  0  0  0  0  0  0  0
   -9.2435   16.6600   -0.5825 C   0  0  0  0  0  0  0  0  0  0  0  0
   -9.1204   16.0576   -1.9858 C   0  0  0  0  0  0  0  0  0  0  0  0
   -7.9490   16.1545   -2.7313 C   0  0  0  0  0  0  0  0  0  0  0  0
   -7.8873   15.6459   -4.0377 C   0  0  0  0  0  0  0  0  0  0  0  0
   -8.9728   15.0430   -4.6499 C   0  0  0  0  0  0  0  0  0  0  0  0
  -10.1429   14.9531   -3.9216 C   0  0  0  0  0  0  0  0  0  0  0  0
  -10.2249   15.4617   -2.6215 C   0  0  0  0  0  0  0  0  0  0  0  0
   -8.5229   14.3610    4.9271 C   0  0  0  0  0  0  0  0  0  0  0  0
   -8.3488   15.6509    5.6863 C   0  0  0  0  0  0  0  0  0  0  0  0
   -9.0826   15.4569    6.9647 C   0  0  0  0  0  0  0  0  0  0  0  0
  -10.1036   16.0688    7.1560 O   0  0  0  0  0  0  0  0  0  0  0  0
   -8.5920   14.5862    7.8498 N   0  0  0  0  0  0  0  0  0  0  0  0
   -7.7546   14.1062    7.6559 H   0  0  0  0  0  0  0  0  0  0  0  0
   -9.0677   14.4241    8.6964 H   0  0  0  0  0  0  0  0  0  0  0  0
 39 40  2  0  0  0
 40 41  1  0  0  0
 40 38  1  0  0  0
 38 44  1  0  0  0
 38 34  1  0  0  0
 44 45  1  0  0  0
 45 46  2  0  0  0
 45 50  1  0  0  0
 46 47  1  0  0  0
 47 48  2  0  0  0
 48 49  1  0  0  0
 49 50  2  0  0  0
 34 35  1  0  0  0
 35 36  2  0  0  0
 35 33  1  0  0  0
 33 51  1  0  0  0
 33  1  1  0  0  0
 51 52  1  0  0  0
 52 53  1  0  0  0
 53 54  2  0  0  0
 53 55  1  0  0  0
  1  2  1  0  0  0
  2  3  2  0  0  0
  2  5  1  0  0  0
  5 26  1  0  0  0
  5  6  1  0  0  0
 26 27  1  0  0  0
 27 28  2  0  0  0
 27 32  1  0  0  0
 28 29  1  0  0  0
 29 30  2  0  0  0
 30 31  1  0  0  0
 31 32  2  0  0  0
  6  7  1  0  0  0
  7  8  2  0  0  0
  7  9  1  0  0  0
  9 10  1  0  0  0
  9 19  1  0  0  0
 10 11  1  0  0  0
 11 12  2  0  0  0
 11 14  1  0  0  0
 14 15  1  0  0  0
 15 16  1  0  0  0
 15 17  1  0  0  0
 15 18  1  0  0  0
 19 20  1  0  0  0
 20 21  2  0  0  0
 20 25  1  0  0  0
 21 22  1  0  0  0
 22 23  2  0  0  0
 23 24  1  0  0  0
 24 25  2  0  0  0
 41 42  1  0  0  0
 41 43  1  0  0  0
 34 37  1  0  0  0
 55 56  1  0  0  0
 55 57  1  0  0  0
  1  4  1  0  0  0
 10 13  1  0  0  0
M  END
> <minimizedAffinity>
-8.79084

$$$$
