1IZI_Q50_B_1001
  RCSB PDB12061702533D
Coordinates from PDB:1IZI:B:1001 Model:1 without hydrogens
 50 52  0  0  0  0            999 V2000
   -3.9530   14.6600   -7.6440   O 0  0  0  0  0  0  0  0  0  0  0  0
   -4.2930   15.8400   -7.7910   C 0  0  0  0  0  0  0  0  0  0  0  0
   -4.5600   16.3310   -9.0110   N 0  0  0  0  0  0  0  0  0  0  0  0
   -4.4850   16.8570   -6.6450   C 0  0  0  0  0  0  0  0  0  0  0  0
   -3.1780   17.3160   -5.9450   C 0  0  0  0  0  0  0  0  0  0  0  0
   -2.2930   16.2270   -5.3300   C 0  0  0  0  0  0  0  0  0  0  0  0
   -2.6210   15.5970   -4.1330   C 0  0  0  0  0  0  0  0  0  0  0  0
   -1.7590   14.6470   -3.5640   C 0  0  0  0  0  0  0  0  0  0  0  0
   -0.5510   14.3010   -4.1450   C 0  0  0  0  0  0  0  0  0  0  0  0
   -0.2120   14.9300   -5.3270   C 0  0  0  0  0  0  0  0  0  0  0  0
   -1.0550   15.8850   -5.9040   C 0  0  0  0  0  0  0  0  0  0  0  0
   -5.4320   16.3400   -5.6420   N 0  0  0  0  0  0  0  0  0  0  0  0
   -6.4340   17.0550   -5.0880   C 0  0  0  0  0  0  0  0  0  0  0  0
   -6.5610   18.2700   -5.3930   O 0  0  0  0  0  0  0  0  0  0  0  0
   -7.3090   16.1970   -4.0950   C 0  0  0  0  0  0  0  0  0  0  0  0
   -8.6100   15.6400   -4.6070   C 0  0  0  0  0  0  0  0  0  0  0  0
   -8.3160   14.7610   -5.7950   C 0  0  0  0  0  0  0  0  0  0  0  0
   -8.3420   15.6690   -6.9720   C 0  0  0  0  0  0  0  0  0  0  0  0
   -9.0380   16.6530   -6.9410   O 0  0  0  0  0  0  0  0  0  0  0  0
   -7.5680   15.3710   -8.0180   N 0  0  0  0  0  0  0  0  0  0  0  0
   -7.6550   16.9040   -2.8890   N 0  0  0  0  0  0  0  0  0  0  0  0
   -7.5570   16.3320   -1.7260   C 0  0  0  0  0  0  0  0  0  0  0  0
   -7.2820   15.1350   -1.6000   O 0  0  0  0  0  0  0  0  0  0  0  0
   -7.8610   17.2930   -0.6240   C 0  0  0  0  0  0  0  0  0  0  0  0
   -6.6180   17.7820    0.1270   C 0  0  0  0  0  0  0  0  0  0  0  0
   -5.3110   17.8050   -0.6420   C 0  0  0  0  0  0  0  0  0  0  0  0
   -4.3130   16.8700   -0.3330   C 0  0  0  0  0  0  0  0  0  0  0  0
   -3.1010   16.9150   -1.0320   C 0  0  0  0  0  0  0  0  0  0  0  0
   -2.8240   17.8960   -2.0090   C 0  0  0  0  0  0  0  0  0  0  0  0
   -3.8050   18.8320   -2.3110   C 0  0  0  0  0  0  0  0  0  0  0  0
   -5.0340   18.7910   -1.6150   C 0  0  0  0  0  0  0  0  0  0  0  0
   -8.7030   16.5880    0.3920   C 0  0  0  0  0  0  0  0  0  0  0  0
  -10.1200   16.5030   -0.0710   C 0  0  0  0  0  0  0  0  0  0  0  0
  -10.5440   17.8640    0.2220   O 0  0  0  0  0  0  0  0  0  0  0  0
  -10.7220   15.2360    0.5860   C 0  0  0  0  0  0  0  0  0  0  0  0
  -10.7880   15.4390    2.0550   N 0  0  0  0  0  0  0  0  0  0  0  0
   -9.9930   14.7200    2.8970   C 0  0  0  0  0  0  0  0  0  0  0  0
   -9.2790   13.8920    2.3210   O 0  0  0  0  0  0  0  0  0  0  0  0
  -10.0040   14.8980    4.3980   O 0  0  0  0  0  0  0  0  0  0  0  0
   -9.0380   14.9940    5.5250   C 0  0  0  0  0  0  0  0  0  0  0  0
   -7.8290   15.8470    5.2340   C 0  0  0  0  0  0  0  0  0  0  0  0
   -8.5770   13.6610    6.0520   C 0  0  0  0  0  0  0  0  0  0  0  0
   -9.6780   15.5550    6.7800   C 0  0  0  0  0  0  0  0  0  0  0  0
  -12.0860   14.7920    0.0020   C 0  0  0  0  0  0  0  0  0  0  0  0
  -12.6780   13.5780    0.7010   C 0  0  0  0  0  0  0  0  0  0  0  0
  -13.7160   13.7350    1.6590   C 0  0  0  0  0  0  0  0  0  0  0  0
  -14.2830   12.6480    2.3460   C 0  0  0  0  0  0  0  0  0  0  0  0
  -13.8400   11.3510    2.0920   C 0  0  0  0  0  0  0  0  0  0  0  0
  -12.8230   11.1770    1.1240   C 0  0  0  0  0  0  0  0  0  0  0  0
  -12.2460   12.2630    0.4180   C 0  0  0  0  0  0  0  0  0  0  0  0
  1  2  2  0  0  0  0
  2  3  1  0  0  0  0
  2  4  1  0  0  0  0
  4  5  1  0  0  0  0
  4 12  1  0  0  0  0
  5  6  1  0  0  0  0
  6  7  2  0  0  0  0
  6 11  1  0  0  0  0
  7  8  1  0  0  0  0
  8  9  2  0  0  0  0
  9 10  1  0  0  0  0
 10 11  2  0  0  0  0
 12 13  1  0  0  0  0
 13 14  2  0  0  0  0
 13 15  1  0  0  0  0
 15 16  1  0  0  0  0
 15 21  1  0  0  0  0
 16 17  1  0  0  0  0
 17 18  1  0  0  0  0
 18 19  2  0  0  0  0
 18 20  1  0  0  0  0
 21 22  1  0  0  0  0
 22 23  2  0  0  0  0
 22 24  1  0  0  0  0
 24 25  1  0  0  0  0
 24 32  1  0  0  0  0
 25 26  1  0  0  0  0
 26 27  2  0  0  0  0
 26 31  1  0  0  0  0
 27 28  1  0  0  0  0
 28 29  2  0  0  0  0
 29 30  1  0  0  0  0
 30 31  2  0  0  0  0
 32 33  1  0  0  0  0
 33 34  2  0  0  0  0
 33 35  1  0  0  0  0
 35 36  1  0  0  0  0
 35 44  1  0  0  0  0
 36 37  1  0  0  0  0
 37 38  2  0  0  0  0
 37 39  1  0  0  0  0
 39 40  1  0  0  0  0
 40 41  1  0  0  0  0
 40 42  1  0  0  0  0
 40 43  1  0  0  0  0
 44 45  1  0  0  0  0
 45 46  2  0  0  0  0
 45 50  1  0  0  0  0
 46 47  1  0  0  0  0
 47 48  2  0  0  0  0
 48 49  1  0  0  0  0
 49 50  2  0  0  0  0
A    1
O49
A    2
C48
A    3
N50
A    4
C40
A    5
C41
A    6
C42
A    7
C43
A    8
C44
A    9
C45
A   10
C46
A   11
C47
A   12
N39
A   13
C37
A   14
O38
A   15
C31
A   16
C32
A   17
C33
A   18
C34
A   19
O35
A   20
N36
A   21
N30
A   22
C28
A   23
O29
A   24
C20
A   25
C21
A   26
C22
A   27
C23
A   28
C24
A   29
C25
A   30
C26
A   31
C27
A   32
C19
A   33
C17
A   34
O18
A   35
C9
A   36
N8
A   37
C6
A   38
O7
A   39
O5
A   40
C1
A   41
C4
A   42
C3
A   43
C2
A   44
C10
A   45
C11
A   46
C12
A   47
C13
A   48
C14
A   49
C15
A   50
C16
M  END
>  <InstanceId>
1IZI_Q50_B_1001

>  <ChemCompId>
Q50

>  <PdbId>
1IZI

>  <ChainId>
B

>  <ResidueNumber>
1001

>  <InsertionCode>


>  <Model>
1

>  <AltIds>


>  <MissingHeavyAtoms>
0

>  <ObservedFormula>
C38 N5 O7

>  <Name>
{(1S)-1-BENZYL-4-[3-CARBAMOYL-1-(1-CARBAMOYL-2-PHENYL-ETHYLCARBAMOYL)-(S)-PROPYLCARBAMOYL]-2-OXO-5-PHENYL-PENTYL}-CARBAMIC ACID TERT-BUTYL ESTER

>  <SystematicName>
tert-butyl N-[(2S,5R)-6-[[(2S)-5-amino-1-[[(2S)-1-amino-1-oxo-3-phenyl-propan-2-yl]amino]-1,5-dioxo-pentan-2-yl]amino]-3,6-dioxo-1-phenyl-5-(phenylmethyl)hexan-2-yl]carbamate

>  <Synonyms>


>  <Type>
NON-POLYMER

>  <Formula>
C38 H47 N5 O7

>  <MolecularWeight>
685.809

>  <ModifiedDate>
2011-06-04

>  <Parent>


>  <OneLetterCode>


>  <SubcomponentList>


>  <AmbiguousFlag>
N

>  <InChI>
InChI=1S/C38H47N5O7/c1-38(2,3)50-37(49)43-30(22-26-15-9-5-10-16-26)32(44)24-28(21-25-13-7-4-8-14-25)35(47)41-29(19-20-33(39)45)36(48)42-31(34(40)46)23-27-17-11-6-12-18-27/h4-18,28-31H,19-24H2,1-3H3,(H2,39,45)(H2,40,46)(H,41,47)(H,42,48)(H,43,49)/t28-,29+,30+,31+/m1/s1

>  <InChIKey>
DDOOHEYBNHOFCV-BHSUFKTOSA-N

>  <SMILES>
CC(C)(C)OC(=O)N[C@@H](Cc1ccccc1)C(=O)C[C@@H](Cc2ccccc2)C(=O)N[C@@H](CCC(=O)N)C(=O)N[C@@H](Cc3ccccc3)C(=O)N

$$$$
