3ED0_EMO_A_163
  RCSB PDB12061708263D
Coordinates from PDB:3ED0:A:163 Model:1 without hydrogens
 20 22  0  0  0  0            999 V2000
  -51.5740  -14.9150  -11.1270   C 0  0  0  0  0  0  0  0  0  0  0  0
  -51.3360  -13.6820  -10.6100   O 0  0  0  0  0  0  0  0  0  0  0  0
  -50.5300  -15.8120  -11.2790   C 0  0  0  0  0  0  0  0  0  0  0  0
  -50.7680  -17.0630  -11.8140   C 0  0  0  0  0  0  0  0  0  0  0  0
  -49.7460  -17.9390  -11.9680   O 0  0  0  0  0  0  0  0  0  0  0  0
  -52.0550  -17.4180  -12.1930   C 0  0  0  0  0  0  0  0  0  0  0  0
  -53.1090  -16.5220  -12.0440   C 0  0  0  0  0  0  0  0  0  0  0  0
  -54.4030  -16.8680  -12.4120   C 0  0  0  0  0  0  0  0  0  0  0  0
  -54.6280  -17.9800  -12.8850   O 0  0  0  0  0  0  0  0  0  0  0  0
  -55.4450  -15.9620  -12.2490   C 0  0  0  0  0  0  0  0  0  0  0  0
  -56.7360  -16.3080  -12.6130   C 0  0  0  0  0  0  0  0  0  0  0  0
  -57.7810  -15.4100  -12.4630   C 0  0  0  0  0  0  0  0  0  0  0  0
  -59.1860  -15.8240  -12.8790   C 0  0  0  0  0  0  0  0  0  0  0  0
  -57.5500  -14.1510  -11.9460   C 0  0  0  0  0  0  0  0  0  0  0  0
  -56.2590  -13.8080  -11.5730   C 0  0  0  0  0  0  0  0  0  0  0  0
  -56.0330  -12.5760  -11.0540   O 0  0  0  0  0  0  0  0  0  0  0  0
  -55.2030  -14.7090  -11.7240   C 0  0  0  0  0  0  0  0  0  0  0  0
  -53.9080  -14.3750  -11.3620   C 0  0  0  0  0  0  0  0  0  0  0  0
  -53.6550  -13.2770  -10.8870   O 0  0  0  0  0  0  0  0  0  0  0  0
  -52.8670  -15.2710  -11.5140   C 0  0  0  0  0  0  0  0  0  0  0  0
  1  2  1  0  0  0  0
  1  3  2  0  0  0  0
  1 20  1  0  0  0  0
  3  4  1  0  0  0  0
  4  5  1  0  0  0  0
  4  6  2  0  0  0  0
  6  7  1  0  0  0  0
  7  8  1  0  0  0  0
  7 20  2  0  0  0  0
  8  9  2  0  0  0  0
  8 10  1  0  0  0  0
 10 11  2  0  0  0  0
 10 17  1  0  0  0  0
 11 12  1  0  0  0  0
 12 13  1  0  0  0  0
 12 14  2  0  0  0  0
 14 15  1  0  0  0  0
 15 16  1  0  0  0  0
 15 17  2  0  0  0  0
 17 18  1  0  0  0  0
 18 19  2  0  0  0  0
 18 20  1  0  0  0  0
A    1
C1
A    2
O1
A    3
C2
A    4
C3
A    5
O3
A    6
C4
A    7
C5
A    8
C6
A    9
O6
A   10
C7
A   11
C8
A   12
C9
A   13
C10
A   14
C16
A   15
C17
A   16
O17
A   17
C18
A   18
C19
A   19
O19
A   20
C20
M  END
>  <InstanceId>
3ED0_EMO_A_163

>  <ChemCompId>
EMO

>  <PdbId>
3ED0

>  <ChainId>
A

>  <ResidueNumber>
163

>  <InsertionCode>


>  <Model>
1

>  <AltIds>


>  <MissingHeavyAtoms>
0

>  <ObservedFormula>
C15 O5

>  <Name>
3-METHYL-1,6,8-TRIHYDROXYANTHRAQUINONE

>  <SystematicName>
1,3,8-trihydroxy-6-methyl-anthracene-9,10-dione

>  <Synonyms>
EMODIN

>  <Type>
NON-POLYMER

>  <Formula>
C15 H10 O5

>  <MolecularWeight>
270.237

>  <ModifiedDate>
2011-06-04

>  <Parent>


>  <OneLetterCode>


>  <SubcomponentList>


>  <AmbiguousFlag>
N

>  <InChI>
InChI=1S/C15H10O5/c1-6-2-8-12(10(17)3-6)15(20)13-9(14(8)19)4-7(16)5-11(13)18/h2-5,16-18H,1H3

>  <InChIKey>
RHMXXJGYXNZAPX-UHFFFAOYSA-N

>  <SMILES>
Cc1cc2c(c(c1)O)C(=O)c3c(cc(cc3O)O)C2=O

$$$$
