6EOL_BKH_A_303
  RCSB PDB08181802383D
Coordinates from PDB:6EOL:A:303 Model:1 without hydrogens
 33 36  0  0  0  0            999 V2000
  -24.5340    9.3570   -1.9170   C 0  0  0  0  0  0  0  0  0  0  0  0
  -25.0580    8.0730   -1.9000   C 0  0  0  0  0  0  0  0  0  0  0  0
  -10.7930    9.0210    0.1080   C 0  0  0  0  0  0  0  0  0  0  0  0
  -10.8160    8.9660    1.4830   C 0  0  0  0  0  0  0  0  0  0  0  0
  -12.0180    8.7460    2.1150   C 0  0  0  0  0  0  0  0  0  0  0  0
  -11.9290    8.8410   -0.6380   C 0  0  0  0  0  0  0  0  0  0  0  0
  -13.1440    8.6530    0.0140   C 0  0  0  0  0  0  0  0  0  0  0  0
  -13.1830    8.5960    1.4110   C 0  0  0  0  0  0  0  0  0  0  0  0
  -15.6710    8.3670   -0.3530   C 0  0  0  0  0  0  0  0  0  0  0  0
  -20.3440    5.3690   -0.0550   C 0  0  0  0  0  0  0  0  0  0  0  0
  -15.5620    7.8780   -2.5120   N 0  0  0  0  0  0  0  0  0  0  0  0
  -19.8070    6.4510   -0.9430   C 0  0  0  0  0  0  0  0  0  0  0  0
  -18.6530    9.0700   -1.2330   C 0  0  0  0  0  0  0  0  0  0  0  0
  -21.7000    5.0920   -0.2990   O 0  0  0  0  0  0  0  0  0  0  0  0
  -20.1450    8.7890   -1.3940   C 0  0  0  0  0  0  0  0  0  0  0  0
  -24.8780    5.3930   -2.2590  Cl 0  0  0  0  0  0  0  0  0  0  0  0
  -24.2790    7.0070   -2.3300   C 0  0  0  0  0  0  0  0  0  0  0  0
  -26.6710    7.8140   -1.3100  Cl 0  0  0  0  0  0  0  0  0  0  0  0
  -22.9810    7.2140   -2.7560   C 0  0  0  0  0  0  0  0  0  0  0  0
  -22.4480    8.4940   -2.7590   C 0  0  0  0  0  0  0  0  0  0  0  0
  -23.2360    9.5710   -2.3590   C 0  0  0  0  0  0  0  0  0  0  0  0
  -20.7130    8.6130   -3.0990   S 0  0  0  0  0  0  0  0  0  0  0  0
  -20.5470    7.6520   -0.6450   O 0  0  0  0  0  0  0  0  0  0  0  0
  -18.3200    6.6920   -0.7130   C 0  0  0  0  0  0  0  0  0  0  0  0
  -18.0860    7.0000    0.6650   O 0  0  0  0  0  0  0  0  0  0  0  0
  -18.2700   10.1380   -2.0990   O 0  0  0  0  0  0  0  0  0  0  0  0
  -17.8230    7.8320   -1.5910   C 0  0  0  0  0  0  0  0  0  0  0  0
  -16.3780    8.0300   -1.4500   N 0  0  0  0  0  0  0  0  0  0  0  0
  -14.3730    8.4360   -0.7670   C 0  0  0  0  0  0  0  0  0  0  0  0
  -14.3420    8.1200   -2.0960   N 0  0  0  0  0  0  0  0  0  0  0  0
   -9.6330    9.3430   -0.5000   F 0  0  0  0  0  0  0  0  0  0  0  0
   -9.6850    9.2500    2.1470   F 0  0  0  0  0  0  0  0  0  0  0  0
  -12.0410    8.6670    3.4810   F 0  0  0  0  0  0  0  0  0  0  0  0
  1 21  2  0  0  0  0
  1  2  1  0  0  0  0
 21 20  1  0  0  0  0
 18  2  1  0  0  0  0
  2 17  2  0  0  0  0
 22 20  1  0  0  0  0
 22 15  1  0  0  0  0
 20 19  2  0  0  0  0
 17 19  1  0  0  0  0
 17 16  1  0  0  0  0
 11 30  2  0  0  0  0
 11 28  1  0  0  0  0
 26 13  1  0  0  0  0
 30 29  1  0  0  0  0
 15 13  1  0  0  0  0
 15 23  1  0  0  0  0
 27 28  1  0  0  0  0
 27 13  1  0  0  0  0
 27 24  1  0  0  0  0
 28  9  1  0  0  0  0
 12 23  1  0  0  0  0
 12 24  1  0  0  0  0
 12 10  1  0  0  0  0
 29  9  2  0  0  0  0
 29  7  1  0  0  0  0
 24 25  1  0  0  0  0
  6  7  2  0  0  0  0
  6  3  1  0  0  0  0
 31  3  1  0  0  0  0
 14 10  1  0  0  0  0
  7  8  1  0  0  0  0
  3  4  2  0  0  0  0
  8  5  2  0  0  0  0
  4  5  1  0  0  0  0
  4 32  1  0  0  0  0
  5 33  1  0  0  0  0
A    1
C15
A    2
C14
A    3
C13
A    4
C12
A    5
C11
A    6
C10
A    7
C8
A    8
C9
A    9
C6
A   10
C5
A   11
N1
A   12
C2
A   13
C3
A   14
O3
A   15
C4
A   16
CL1
A   17
C19
A   18
CL
A   19
C18
A   20
C17
A   21
C16
A   22
S
A   23
O2
A   24
C
A   25
O
A   26
O1
A   27
C1
A   28
N
A   29
C7
A   30
N2
A   31
F2
A   32
F1
A   33
F
M  END
>  <InstanceId>
6EOL_BKH_A_303

>  <ChemCompId>
BKH

>  <PdbId>
6EOL

>  <ChainId>
A

>  <ResidueNumber>
303

>  <InsertionCode>


>  <Model>
1

>  <AltIds>


>  <MissingHeavyAtoms>
0

>  <ObservedFormula>
C20 N3 O4 S F3 Cl2

>  <Name>
(2~{R},3~{R},4~{S},5~{R},6~{R})-2-(3,4-dichlorophenyl)sulfanyl-6-(hydroxymethyl)-4-[4-[3,4,5-tris(fluoranyl)phenyl]-1,2,3-triazol-1-yl]oxane-3,5-diol

>  <SystematicName>
(2~{R},3~{R},4~{S},5~{R},6~{R})-2-(3,4-dichlorophenyl)sulfanyl-6-(hydroxymethyl)-4-[4-[3,4,5-tris(fluoranyl)phenyl]-1,2,3-triazol-1-yl]oxane-3,5-diol

>  <Synonyms>


>  <Type>
NON-POLYMER

>  <Formula>
C20 H16 Cl2 F3 N3 O4 S

>  <MolecularWeight>
522.325

>  <ModifiedDate>
2018-08-17

>  <Parent>


>  <OneLetterCode>


>  <SubcomponentList>


>  <AmbiguousFlag>
N

>  <InChI>
InChI=1S/C20H16Cl2F3N3O4S/c21-10-2-1-9(5-11(10)22)33-20-19(31)17(18(30)15(7-29)32-20)28-6-14(26-27-28)8-3-12(23)16(25)13(24)4-8/h1-6,15,17-20,29-31H,7H2/t15-,17+,18+,19-,20-/m1/s1

>  <InChIKey>
CSGJIUAIYDKFPC-DABHTEOTSA-N

>  <SMILES>
c1cc(c(cc1S[C@@H]2[C@@H]([C@H]([C@H]([C@H](O2)CO)O)n3cc(nn3)c4cc(c(c(c4)F)F)F)O)Cl)Cl

$$$$
