6EOL_BKH_A_303


 36 39  0  0  0  0  0  0  0  0999 V2000
  -11.6549    8.5339    0.6747 C   0  0  0  0  0  0  0  0  0  0  0  0
  -13.2220    6.7028   -0.8956 C   0  0  0  0  0  0  0  0  0  0  0  0
  -11.6962    6.6745   -0.8501 C   0  0  0  0  0  0  0  0  0  0  0  0
  -11.1995    7.1999    0.3717 O   0  0  0  0  0  0  0  0  0  0  0  0
  -13.1781    8.5627    0.7090 C   0  0  0  0  0  0  0  0  0  0  0  0
  -13.6560    7.7073    1.7523 O   0  0  0  0  0  0  0  0  0  0  0  0
  -13.6711    6.2867   -2.1850 O   0  0  0  0  0  0  0  0  0  0  0  0
  -13.7497    8.1172   -0.6298 C   0  0  0  0  0  0  0  0  0  0  0  0
  -13.3672    6.7971    1.5818 H   0  0  0  0  0  0  0  0  0  0  0  0
  -13.3297    6.8959   -2.8583 H   0  0  0  0  0  0  0  0  0  0  0  0
  -16.1114    7.3599   -1.1764 C   0  0  0  0  0  0  0  0  0  0  0  0
  -15.8325    9.2730   -0.0927 N   0  0  0  0  0  0  0  0  0  0  0  0
  -15.2116    8.2147   -0.6507 N   0  0  0  0  0  0  0  0  0  0  0  0
  -17.3293    7.9274   -0.9406 C   0  0  0  0  0  0  0  0  0  0  0  0
  -17.1206    9.0963   -0.2645 N   0  0  0  0  0  0  0  0  0  0  0  0
  -20.7834    7.5397   -2.2983 C   0  0  0  0  0  0  0  0  0  0  0  0
  -21.2568    6.4604   -1.5875 C   0  0  0  0  0  0  0  0  0  0  0  0
  -20.4272    5.8591   -0.6695 C   0  0  0  0  0  0  0  0  0  0  0  0
  -19.5216    8.0363   -2.0962 C   0  0  0  0  0  0  0  0  0  0  0  0
  -18.6805    7.3985   -1.1894 C   0  0  0  0  0  0  0  0  0  0  0  0
  -19.1475    6.2997   -0.4607 C   0  0  0  0  0  0  0  0  0  0  0  0
  -21.5619    8.0564   -3.2708 F   0  0  0  0  0  0  0  0  0  0  0  0
  -22.4635    5.9700   -1.9099 F   0  0  0  0  0  0  0  0  0  0  0  0
  -20.9024    4.8006    0.0562 F   0  0  0  0  0  0  0  0  0  0  0  0
  -11.0566    8.9161    1.9951 C   0  0  0  0  0  0  0  0  0  0  0  0
   -9.7199    9.3351    1.8825 O   0  0  0  0  0  0  0  0  0  0  0  0
   -9.1813    8.6076    1.5338 H   0  0  0  0  0  0  0  0  0  0  0  0
  -10.8721    7.4940   -2.2321 S   0  0  0  0  0  0  0  0  0  0  0  0
   -7.0046    6.2926   -2.6190 C   0  0  0  0  0  0  0  0  0  0  0  0
   -7.1337    4.9257   -2.4232 C   0  0  0  0  0  0  0  0  0  0  0  0
   -8.5786    2.6926   -1.9044 Cl  0  0  0  0  0  0  0  0  0  0  0  0
   -8.3718    4.3931   -2.0893 C   0  0  0  0  0  0  0  0  0  0  0  0
   -5.7501    3.8963   -2.6307 Cl  0  0  0  0  0  0  0  0  0  0  0  0
   -9.4782    5.2121   -1.9697 C   0  0  0  0  0  0  0  0  0  0  0  0
   -9.3566    6.5771   -2.1808 C   0  0  0  0  0  0  0  0  0  0  0  0
   -8.1103    7.1204   -2.4844 C   0  0  0  0  0  0  0  0  0  0  0  0
 29 36  2  0  0  0
 29 30  1  0  0  0
 36 35  1  0  0  0
 33 30  1  0  0  0
 30 32  2  0  0  0
 28 35  1  0  0  0
 28  3  1  0  0  0
 35 34  2  0  0  0
 32 34  1  0  0  0
 32 31  1  0  0  0
 12 15  2  0  0  0
 12 13  1  0  0  0
  7  2  1  0  0  0
 15 14  1  0  0  0
  3  2  1  0  0  0
  3  4  1  0  0  0
  8 13  1  0  0  0
  8  2  1  0  0  0
  8  5  1  0  0  0
 13 11  1  0  0  0
  1  4  1  0  0  0
  1  5  1  0  0  0
  1 25  1  0  0  0
 14 11  2  0  0  0
 14 20  1  0  0  0
  5  6  1  0  0  0
 19 20  2  0  0  0
 19 16  1  0  0  0
 22 16  1  0  0  0
 26 25  1  0  0  0
 20 21  1  0  0  0
 16 17  2  0  0  0
 21 18  2  0  0  0
 17 18  1  0  0  0
 17 23  1  0  0  0
 18 24  1  0  0  0
 26 27  1  0  0  0
  6  9  1  0  0  0
  7 10  1  0  0  0
M  END
> <minimizedAffinity>
-8.60202

$$$$
6EOL_BKH_A_303


 36 39  0  0  0  0  0  0  0  0999 V2000
  -19.7366    6.6097   -1.0572 C   0  0  0  0  0  0  0  0  0  0  0  0
  -18.4664    9.1727   -1.3615 C   0  0  0  0  0  0  0  0  0  0  0  0
  -19.9742    8.9651   -1.4812 C   0  0  0  0  0  0  0  0  0  0  0  0
  -20.4090    7.8422   -0.7292 O   0  0  0  0  0  0  0  0  0  0  0  0
  -18.2338    6.7770   -0.8687 C   0  0  0  0  0  0  0  0  0  0  0  0
  -17.9459    7.0615    0.5042 O   0  0  0  0  0  0  0  0  0  0  0  0
  -18.0572   10.2285   -2.2304 O   0  0  0  0  0  0  0  0  0  0  0  0
  -17.7077    7.8994   -1.7524 C   0  0  0  0  0  0  0  0  0  0  0  0
  -18.3842    7.8875    0.7621 H   0  0  0  0  0  0  0  0  0  0  0  0
  -18.2654    9.9914   -3.1476 H   0  0  0  0  0  0  0  0  0  0  0  0
  -15.5069    8.4544   -0.6128 C   0  0  0  0  0  0  0  0  0  0  0  0
  -15.4643    7.6952   -2.6947 N   0  0  0  0  0  0  0  0  0  0  0  0
  -16.2513    8.0266   -1.6518 N   0  0  0  0  0  0  0  0  0  0  0  0
  -14.2145    8.3936   -1.0453 C   0  0  0  0  0  0  0  0  0  0  0  0
  -14.2252    7.9136   -2.3246 N   0  0  0  0  0  0  0  0  0  0  0  0
  -10.6015    8.9511   -0.2971 C   0  0  0  0  0  0  0  0  0  0  0  0
  -10.5904    8.9852    1.0787 C   0  0  0  0  0  0  0  0  0  0  0  0
  -11.7802    8.8340    1.7526 C   0  0  0  0  0  0  0  0  0  0  0  0
  -11.7599    8.7497   -1.0021 C   0  0  0  0  0  0  0  0  0  0  0  0
  -12.9615    8.6320   -0.3100 C   0  0  0  0  0  0  0  0  0  0  0  0
  -12.9658    8.6659    1.0883 C   0  0  0  0  0  0  0  0  0  0  0  0
   -9.4509    9.2066   -0.9527 F   0  0  0  0  0  0  0  0  0  0  0  0
   -9.4369    9.2852    1.6953 F   0  0  0  0  0  0  0  0  0  0  0  0
  -11.7698    8.8436    3.1210 F   0  0  0  0  0  0  0  0  0  0  0  0
  -20.2996    5.5471   -0.1619 C   0  0  0  0  0  0  0  0  0  0  0  0
  -21.5930    5.1494   -0.5413 O   0  0  0  0  0  0  0  0  0  0  0  0
  -22.1945    5.9082   -0.4838 H   0  0  0  0  0  0  0  0  0  0  0  0
  -20.5985    8.8313   -3.1703 S   0  0  0  0  0  0  0  0  0  0  0  0
  -24.3523    9.3788   -1.7006 C   0  0  0  0  0  0  0  0  0  0  0  0
  -24.8905    8.1129   -1.8775 C   0  0  0  0  0  0  0  0  0  0  0  0
  -24.7594    5.5325   -2.6948 Cl  0  0  0  0  0  0  0  0  0  0  0  0
  -24.1448    7.1325   -2.5185 C   0  0  0  0  0  0  0  0  0  0  0  0
  -26.4779    7.7638   -1.2648 Cl  0  0  0  0  0  0  0  0  0  0  0  0
  -22.8652    7.4037   -2.9637 C   0  0  0  0  0  0  0  0  0  0  0  0
  -22.3175    8.6633   -2.7742 C   0  0  0  0  0  0  0  0  0  0  0  0
  -23.0734    9.6597   -2.1604 C   0  0  0  0  0  0  0  0  0  0  0  0
 29 36  2  0  0  0
 29 30  1  0  0  0
 36 35  1  0  0  0
 33 30  1  0  0  0
 30 32  2  0  0  0
 28 35  1  0  0  0
 28  3  1  0  0  0
 35 34  2  0  0  0
 32 34  1  0  0  0
 32 31  1  0  0  0
 12 15  2  0  0  0
 12 13  1  0  0  0
  7  2  1  0  0  0
 15 14  1  0  0  0
  3  2  1  0  0  0
  3  4  1  0  0  0
  8 13  1  0  0  0
  8  2  1  0  0  0
  8  5  1  0  0  0
 13 11  1  0  0  0
  1  4  1  0  0  0
  1  5  1  0  0  0
  1 25  1  0  0  0
 14 11  2  0  0  0
 14 20  1  0  0  0
  5  6  1  0  0  0
 19 20  2  0  0  0
 19 16  1  0  0  0
 22 16  1  0  0  0
 26 25  1  0  0  0
 20 21  1  0  0  0
 16 17  2  0  0  0
 21 18  2  0  0  0
 17 18  1  0  0  0
 17 23  1  0  0  0
 18 24  1  0  0  0
 26 27  1  0  0  0
  6  9  1  0  0  0
  7 10  1  0  0  0
M  END
> <minimizedAffinity>
-8.00862

$$$$
6EOL_BKH_A_303


 36 39  0  0  0  0  0  0  0  0999 V2000
  -15.0396    7.6419   -2.9702 C   0  0  0  0  0  0  0  0  0  0  0  0
  -13.2953    9.1617   -1.2607 C   0  0  0  0  0  0  0  0  0  0  0  0
  -12.8330    7.9488   -2.0644 C   0  0  0  0  0  0  0  0  0  0  0  0
  -13.6256    7.7584   -3.2267 O   0  0  0  0  0  0  0  0  0  0  0  0
  -15.5334    8.8818   -2.2348 C   0  0  0  0  0  0  0  0  0  0  0  0
  -15.3482   10.0390   -3.0565 O   0  0  0  0  0  0  0  0  0  0  0  0
  -12.5565    9.2394   -0.0420 O   0  0  0  0  0  0  0  0  0  0  0  0
  -14.7860    9.0543   -0.9199 C   0  0  0  0  0  0  0  0  0  0  0  0
  -14.4044   10.1497   -3.2511 H   0  0  0  0  0  0  0  0  0  0  0  0
  -12.7157    8.4401    0.4841 H   0  0  0  0  0  0  0  0  0  0  0  0
  -16.1374   10.1969    0.9017 C   0  0  0  0  0  0  0  0  0  0  0  0
  -14.9395   11.4510   -0.4785 N   0  0  0  0  0  0  0  0  0  0  0  0
  -15.2992   10.1931   -0.1539 N   0  0  0  0  0  0  0  0  0  0  0  0
  -16.3055   11.5116    1.2246 C   0  0  0  0  0  0  0  0  0  0  0  0
  -15.5474   12.2528    0.3627 N   0  0  0  0  0  0  0  0  0  0  0  0
  -19.0090   13.0505    3.2856 C   0  0  0  0  0  0  0  0  0  0  0  0
  -18.3482   13.3536    4.4542 C   0  0  0  0  0  0  0  0  0  0  0  0
  -17.0133   13.0379    4.5589 C   0  0  0  0  0  0  0  0  0  0  0  0
  -18.3648   12.4657    2.2261 C   0  0  0  0  0  0  0  0  0  0  0  0
  -17.0230   12.1205    2.3569 C   0  0  0  0  0  0  0  0  0  0  0  0
  -16.3386   12.4214    3.5390 C   0  0  0  0  0  0  0  0  0  0  0  0
  -20.3394   13.2642    3.2291 F   0  0  0  0  0  0  0  0  0  0  0  0
  -19.0662   13.8331    5.4815 F   0  0  0  0  0  0  0  0  0  0  0  0
  -16.3471   13.3593    5.7103 F   0  0  0  0  0  0  0  0  0  0  0  0
  -15.7168    7.4693   -4.2966 C   0  0  0  0  0  0  0  0  0  0  0  0
  -17.0945    7.7410   -4.2402 O   0  0  0  0  0  0  0  0  0  0  0  0
  -17.5214    7.1216   -3.6278 H   0  0  0  0  0  0  0  0  0  0  0  0
  -12.7490    6.4011   -1.1380 S   0  0  0  0  0  0  0  0  0  0  0  0
  -10.8206    3.8323   -3.6346 C   0  0  0  0  0  0  0  0  0  0  0  0
   -9.4977    4.1592   -3.3765 C   0  0  0  0  0  0  0  0  0  0  0  0
   -7.5720    5.5989   -2.1264 Cl  0  0  0  0  0  0  0  0  0  0  0  0
   -9.2043    5.2107   -2.5184 C   0  0  0  0  0  0  0  0  0  0  0  0
   -8.2270    3.2266   -4.1062 Cl  0  0  0  0  0  0  0  0  0  0  0  0
  -10.2196    5.9201   -1.9060 C   0  0  0  0  0  0  0  0  0  0  0  0
  -11.5432    5.5858   -2.1487 C   0  0  0  0  0  0  0  0  0  0  0  0
  -11.8433    4.5526   -3.0337 C   0  0  0  0  0  0  0  0  0  0  0  0
 29 36  2  0  0  0
 29 30  1  0  0  0
 36 35  1  0  0  0
 33 30  1  0  0  0
 30 32  2  0  0  0
 28 35  1  0  0  0
 28  3  1  0  0  0
 35 34  2  0  0  0
 32 34  1  0  0  0
 32 31  1  0  0  0
 12 15  2  0  0  0
 12 13  1  0  0  0
  7  2  1  0  0  0
 15 14  1  0  0  0
  3  2  1  0  0  0
  3  4  1  0  0  0
  8 13  1  0  0  0
  8  2  1  0  0  0
  8  5  1  0  0  0
 13 11  1  0  0  0
  1  4  1  0  0  0
  1  5  1  0  0  0
  1 25  1  0  0  0
 14 11  2  0  0  0
 14 20  1  0  0  0
  5  6  1  0  0  0
 19 20  2  0  0  0
 19 16  1  0  0  0
 22 16  1  0  0  0
 26 25  1  0  0  0
 20 21  1  0  0  0
 16 17  2  0  0  0
 21 18  2  0  0  0
 17 18  1  0  0  0
 17 23  1  0  0  0
 18 24  1  0  0  0
 26 27  1  0  0  0
  6  9  1  0  0  0
  7 10  1  0  0  0
M  END
> <minimizedAffinity>
-7.78359

$$$$
6EOL_BKH_A_303


 36 39  0  0  0  0  0  0  0  0999 V2000
  -17.7379    8.9022   -1.3734 C   0  0  0  0  0  0  0  0  0  0  0  0
  -15.6646    8.8458    0.6199 C   0  0  0  0  0  0  0  0  0  0  0  0
  -16.8809    9.7650    0.7014 C   0  0  0  0  0  0  0  0  0  0  0  0
  -17.9947    9.2217    0.0089 O   0  0  0  0  0  0  0  0  0  0  0  0
  -16.5736    7.9237   -1.4681 C   0  0  0  0  0  0  0  0  0  0  0  0
  -16.9140    6.6996   -0.8091 O   0  0  0  0  0  0  0  0  0  0  0  0
  -14.5380    9.4870    1.2172 O   0  0  0  0  0  0  0  0  0  0  0  0
  -15.3229    8.5213   -0.8387 C   0  0  0  0  0  0  0  0  0  0  0  0
  -17.0948    6.8761    0.1274 H   0  0  0  0  0  0  0  0  0  0  0  0
  -14.3400   10.3062    0.7369 H   0  0  0  0  0  0  0  0  0  0  0  0
  -13.7371    6.9802   -2.0878 C   0  0  0  0  0  0  0  0  0  0  0  0
  -13.3648    7.3733    0.0614 N   0  0  0  0  0  0  0  0  0  0  0  0
  -14.1669    7.6337   -0.9900 N   0  0  0  0  0  0  0  0  0  0  0  0
  -12.6359    6.2829   -1.6850 C   0  0  0  0  0  0  0  0  0  0  0  0
  -12.4307    6.5558   -0.3620 N   0  0  0  0  0  0  0  0  0  0  0  0
  -11.2613    3.8410   -4.1491 C   0  0  0  0  0  0  0  0  0  0  0  0
   -9.9104    3.8962   -3.8920 C   0  0  0  0  0  0  0  0  0  0  0  0
   -9.4592    4.7491   -2.9114 C   0  0  0  0  0  0  0  0  0  0  0  0
  -12.1598    4.5954   -3.4398 C   0  0  0  0  0  0  0  0  0  0  0  0
  -11.6878    5.4790   -2.4738 C   0  0  0  0  0  0  0  0  0  0  0  0
  -10.3174    5.5468   -2.2024 C   0  0  0  0  0  0  0  0  0  0  0  0
  -11.6855    3.0845   -5.1819 F   0  0  0  0  0  0  0  0  0  0  0  0
   -9.0848    3.2047   -4.6925 F   0  0  0  0  0  0  0  0  0  0  0  0
   -8.1192    4.7893   -2.6365 F   0  0  0  0  0  0  0  0  0  0  0  0
  -19.0024    8.3260   -1.9363 C   0  0  0  0  0  0  0  0  0  0  0  0
  -19.7407    7.6059   -0.9817 O   0  0  0  0  0  0  0  0  0  0  0  0
  -19.2129    6.8576   -0.6619 H   0  0  0  0  0  0  0  0  0  0  0  0
  -16.6003   11.4600    0.1455 S   0  0  0  0  0  0  0  0  0  0  0  0
  -16.4698   12.9113    3.9439 C   0  0  0  0  0  0  0  0  0  0  0  0
  -17.8041   13.2294    4.1491 C   0  0  0  0  0  0  0  0  0  0  0  0
  -20.3878   13.4089    3.3515 Cl  0  0  0  0  0  0  0  0  0  0  0  0
  -18.7129   13.0850    3.1092 C   0  0  0  0  0  0  0  0  0  0  0  0
  -18.3239   13.7731    5.7147 Cl  0  0  0  0  0  0  0  0  0  0  0  0
  -18.3011   12.6093    1.8790 C   0  0  0  0  0  0  0  0  0  0  0  0
  -16.9711   12.2747    1.6748 C   0  0  0  0  0  0  0  0  0  0  0  0
  -16.0494   12.4481    2.7050 C   0  0  0  0  0  0  0  0  0  0  0  0
 29 36  2  0  0  0
 29 30  1  0  0  0
 36 35  1  0  0  0
 33 30  1  0  0  0
 30 32  2  0  0  0
 28 35  1  0  0  0
 28  3  1  0  0  0
 35 34  2  0  0  0
 32 34  1  0  0  0
 32 31  1  0  0  0
 12 15  2  0  0  0
 12 13  1  0  0  0
  7  2  1  0  0  0
 15 14  1  0  0  0
  3  2  1  0  0  0
  3  4  1  0  0  0
  8 13  1  0  0  0
  8  2  1  0  0  0
  8  5  1  0  0  0
 13 11  1  0  0  0
  1  4  1  0  0  0
  1  5  1  0  0  0
  1 25  1  0  0  0
 14 11  2  0  0  0
 14 20  1  0  0  0
  5  6  1  0  0  0
 19 20  2  0  0  0
 19 16  1  0  0  0
 22 16  1  0  0  0
 26 25  1  0  0  0
 20 21  1  0  0  0
 16 17  2  0  0  0
 21 18  2  0  0  0
 17 18  1  0  0  0
 17 23  1  0  0  0
 18 24  1  0  0  0
 26 27  1  0  0  0
  6  9  1  0  0  0
  7 10  1  0  0  0
M  END
> <minimizedAffinity>
-7.74290

$$$$
6EOL_BKH_A_303


 36 39  0  0  0  0  0  0  0  0999 V2000
  -16.4179    8.9608   -1.6704 C   0  0  0  0  0  0  0  0  0  0  0  0
  -14.7033    8.3836    0.5662 C   0  0  0  0  0  0  0  0  0  0  0  0
  -15.9010    9.3267    0.6497 C   0  0  0  0  0  0  0  0  0  0  0  0
  -16.8940    8.9976   -0.3100 O   0  0  0  0  0  0  0  0  0  0  0  0
  -15.2702    7.9652   -1.7875 C   0  0  0  0  0  0  0  0  0  0  0  0
  -15.7348    6.6497   -1.4681 O   0  0  0  0  0  0  0  0  0  0  0  0
  -13.6804    8.8275    1.4571 O   0  0  0  0  0  0  0  0  0  0  0  0
  -14.1309    8.3535   -0.8555 C   0  0  0  0  0  0  0  0  0  0  0  0
  -16.0649    6.6359   -0.5561 H   0  0  0  0  0  0  0  0  0  0  0  0
  -13.3923    9.7176    1.2007 H   0  0  0  0  0  0  0  0  0  0  0  0
  -11.8184    7.6749   -1.6567 C   0  0  0  0  0  0  0  0  0  0  0  0
  -12.9971    6.2268   -0.4626 N   0  0  0  0  0  0  0  0  0  0  0  0
  -12.9806    7.4588   -1.0090 N   0  0  0  0  0  0  0  0  0  0  0  0
  -11.1035    6.5224   -1.5099 C   0  0  0  0  0  0  0  0  0  0  0  0
  -11.8538    5.6587   -0.7627 N   0  0  0  0  0  0  0  0  0  0  0  0
   -7.5862    6.9246   -2.6893 C   0  0  0  0  0  0  0  0  0  0  0  0
   -7.1486    5.6212   -2.7519 C   0  0  0  0  0  0  0  0  0  0  0  0
   -8.0162    4.6155   -2.3935 C   0  0  0  0  0  0  0  0  0  0  0  0
   -8.8636    7.2365   -2.3016 C   0  0  0  0  0  0  0  0  0  0  0  0
   -9.7207    6.2127   -1.9092 C   0  0  0  0  0  0  0  0  0  0  0  0
   -9.2895    4.8833   -1.9664 C   0  0  0  0  0  0  0  0  0  0  0  0
   -6.6994    7.9097   -2.9384 F   0  0  0  0  0  0  0  0  0  0  0  0
   -5.8577    5.4000   -3.0440 F   0  0  0  0  0  0  0  0  0  0  0  0
   -7.5925    3.3170   -2.4771 F   0  0  0  0  0  0  0  0  0  0  0  0
  -17.5813    8.5803   -2.5359 C   0  0  0  0  0  0  0  0  0  0  0  0
  -17.1995    7.8102   -3.6478 O   0  0  0  0  0  0  0  0  0  0  0  0
  -16.5953    8.3249   -4.2054 H   0  0  0  0  0  0  0  0  0  0  0  0
  -15.5046   11.0837    0.5211 S   0  0  0  0  0  0  0  0  0  0  0  0
  -18.8953   12.6307    2.1521 C   0  0  0  0  0  0  0  0  0  0  0  0
  -18.4429   12.9795    3.4159 C   0  0  0  0  0  0  0  0  0  0  0  0
  -16.5319   13.1420    5.3304 Cl  0  0  0  0  0  0  0  0  0  0  0  0
  -17.1442   12.6639    3.7924 C   0  0  0  0  0  0  0  0  0  0  0  0
  -19.4987   13.8355    4.4974 Cl  0  0  0  0  0  0  0  0  0  0  0  0
  -16.2949   12.0227    2.9112 C   0  0  0  0  0  0  0  0  0  0  0  0
  -16.7382   11.6869    1.6411 C   0  0  0  0  0  0  0  0  0  0  0  0
  -18.0502   11.9725    1.2698 C   0  0  0  0  0  0  0  0  0  0  0  0
 29 36  2  0  0  0
 29 30  1  0  0  0
 36 35  1  0  0  0
 33 30  1  0  0  0
 30 32  2  0  0  0
 28 35  1  0  0  0
 28  3  1  0  0  0
 35 34  2  0  0  0
 32 34  1  0  0  0
 32 31  1  0  0  0
 12 15  2  0  0  0
 12 13  1  0  0  0
  7  2  1  0  0  0
 15 14  1  0  0  0
  3  2  1  0  0  0
  3  4  1  0  0  0
  8 13  1  0  0  0
  8  2  1  0  0  0
  8  5  1  0  0  0
 13 11  1  0  0  0
  1  4  1  0  0  0
  1  5  1  0  0  0
  1 25  1  0  0  0
 14 11  2  0  0  0
 14 20  1  0  0  0
  5  6  1  0  0  0
 19 20  2  0  0  0
 19 16  1  0  0  0
 22 16  1  0  0  0
 26 25  1  0  0  0
 20 21  1  0  0  0
 16 17  2  0  0  0
 21 18  2  0  0  0
 17 18  1  0  0  0
 17 23  1  0  0  0
 18 24  1  0  0  0
 26 27  1  0  0  0
  6  9  1  0  0  0
  7 10  1  0  0  0
M  END
> <minimizedAffinity>
-7.56560

$$$$
6EOL_BKH_A_303


 36 39  0  0  0  0  0  0  0  0999 V2000
  -15.4624   10.4905   -1.9520 C   0  0  0  0  0  0  0  0  0  0  0  0
  -16.9181    8.9804    0.0166 C   0  0  0  0  0  0  0  0  0  0  0  0
  -15.4042    9.1736    0.0595 C   0  0  0  0  0  0  0  0  0  0  0  0
  -15.0116   10.3748   -0.5874 O   0  0  0  0  0  0  0  0  0  0  0  0
  -16.9811   10.3766   -2.0040 C   0  0  0  0  0  0  0  0  0  0  0  0
  -17.5737   11.4541   -1.2717 O   0  0  0  0  0  0  0  0  0  0  0  0
  -17.2545    7.7053    0.5627 O   0  0  0  0  0  0  0  0  0  0  0  0
  -17.4355    9.0441   -1.4249 C   0  0  0  0  0  0  0  0  0  0  0  0
  -17.2913   11.4090   -0.3449 H   0  0  0  0  0  0  0  0  0  0  0  0
  -16.8379    7.0070    0.0338 H   0  0  0  0  0  0  0  0  0  0  0  0
  -19.5918    8.2070   -2.4737 C   0  0  0  0  0  0  0  0  0  0  0  0
  -19.7115    9.4283   -0.6280 N   0  0  0  0  0  0  0  0  0  0  0  0
  -18.8865    8.8740   -1.5385 N   0  0  0  0  0  0  0  0  0  0  0  0
  -20.9003    8.3730   -2.1257 C   0  0  0  0  0  0  0  0  0  0  0  0
  -20.9360    9.1198   -0.9820 N   0  0  0  0  0  0  0  0  0  0  0  0
  -23.9814    6.3117   -2.5520 C   0  0  0  0  0  0  0  0  0  0  0  0
  -24.3458    6.5962   -3.8483 C   0  0  0  0  0  0  0  0  0  0  0  0
  -23.5761    7.4771   -4.5723 C   0  0  0  0  0  0  0  0  0  0  0  0
  -22.8655    6.8662   -1.9804 C   0  0  0  0  0  0  0  0  0  0  0  0
  -22.1146    7.7816   -2.7117 C   0  0  0  0  0  0  0  0  0  0  0  0
  -22.4734    8.0815   -4.0299 C   0  0  0  0  0  0  0  0  0  0  0  0
  -24.7984    5.5323   -1.8143 F   0  0  0  0  0  0  0  0  0  0  0  0
  -25.5032    6.0940   -4.3055 F   0  0  0  0  0  0  0  0  0  0  0  0
  -23.9216    7.7443   -5.8692 F   0  0  0  0  0  0  0  0  0  0  0  0
  -14.9811   11.8141   -2.4659 C   0  0  0  0  0  0  0  0  0  0  0  0
  -14.9353   12.7991   -1.4645 O   0  0  0  0  0  0  0  0  0  0  0  0
  -15.8277   12.9453   -1.1137 H   0  0  0  0  0  0  0  0  0  0  0  0
  -14.4363    7.7975   -0.5962 S   0  0  0  0  0  0  0  0  0  0  0  0
  -10.6077    9.1245   -0.9597 C   0  0  0  0  0  0  0  0  0  0  0  0
  -10.2149    9.1596    0.3699 C   0  0  0  0  0  0  0  0  0  0  0  0
  -10.6628    8.8380    3.0232 Cl  0  0  0  0  0  0  0  0  0  0  0  0
  -11.1364    8.8674    1.3667 C   0  0  0  0  0  0  0  0  0  0  0  0
   -8.5665    9.5372    0.7663 Cl  0  0  0  0  0  0  0  0  0  0  0  0
  -12.4348    8.5239    1.0425 C   0  0  0  0  0  0  0  0  0  0  0  0
  -12.8271    8.4717   -0.2864 C   0  0  0  0  0  0  0  0  0  0  0  0
  -11.9151    8.7953   -1.2886 C   0  0  0  0  0  0  0  0  0  0  0  0
 29 36  2  0  0  0
 29 30  1  0  0  0
 36 35  1  0  0  0
 33 30  1  0  0  0
 30 32  2  0  0  0
 28 35  1  0  0  0
 28  3  1  0  0  0
 35 34  2  0  0  0
 32 34  1  0  0  0
 32 31  1  0  0  0
 12 15  2  0  0  0
 12 13  1  0  0  0
  7  2  1  0  0  0
 15 14  1  0  0  0
  3  2  1  0  0  0
  3  4  1  0  0  0
  8 13  1  0  0  0
  8  2  1  0  0  0
  8  5  1  0  0  0
 13 11  1  0  0  0
  1  4  1  0  0  0
  1  5  1  0  0  0
  1 25  1  0  0  0
 14 11  2  0  0  0
 14 20  1  0  0  0
  5  6  1  0  0  0
 19 20  2  0  0  0
 19 16  1  0  0  0
 22 16  1  0  0  0
 26 25  1  0  0  0
 20 21  1  0  0  0
 16 17  2  0  0  0
 21 18  2  0  0  0
 17 18  1  0  0  0
 17 23  1  0  0  0
 18 24  1  0  0  0
 26 27  1  0  0  0
  6  9  1  0  0  0
  7 10  1  0  0  0
M  END
> <minimizedAffinity>
-7.48443

$$$$
6EOL_BKH_A_303


 36 39  0  0  0  0  0  0  0  0999 V2000
  -15.6225   10.7042    0.3853 C   0  0  0  0  0  0  0  0  0  0  0  0
  -15.7599    7.9579   -0.4599 C   0  0  0  0  0  0  0  0  0  0  0  0
  -14.4460    8.7135   -0.2758 C   0  0  0  0  0  0  0  0  0  0  0  0
  -14.5729    9.7593    0.6758 O   0  0  0  0  0  0  0  0  0  0  0  0
  -16.9557    9.9747    0.2741 C   0  0  0  0  0  0  0  0  0  0  0  0
  -17.2776    9.3591    1.5255 O   0  0  0  0  0  0  0  0  0  0  0  0
  -15.6210    7.0041   -1.5126 O   0  0  0  0  0  0  0  0  0  0  0  0
  -16.8964    8.9205   -0.8225 C   0  0  0  0  0  0  0  0  0  0  0  0
  -16.5901    8.7145    1.7551 H   0  0  0  0  0  0  0  0  0  0  0  0
  -15.4096    7.4641   -2.3400 H   0  0  0  0  0  0  0  0  0  0  0  0
  -19.2143    8.6086   -1.8125 C   0  0  0  0  0  0  0  0  0  0  0  0
  -18.4932    7.1449   -0.3125 N   0  0  0  0  0  0  0  0  0  0  0  0
  -18.1918    8.2606   -1.0061 N   0  0  0  0  0  0  0  0  0  0  0  0
  -20.1831    7.6740   -1.5909 C   0  0  0  0  0  0  0  0  0  0  0  0
  -19.7022    6.7850   -0.6714 N   0  0  0  0  0  0  0  0  0  0  0  0
  -23.5594    6.3380   -2.4511 C   0  0  0  0  0  0  0  0  0  0  0  0
  -23.8693    7.0415   -3.5927 C   0  0  0  0  0  0  0  0  0  0  0  0
  -22.9641    7.9625   -4.0670 C   0  0  0  0  0  0  0  0  0  0  0  0
  -22.3690    6.5191   -1.7957 C   0  0  0  0  0  0  0  0  0  0  0  0
  -21.4766    7.4778   -2.2661 C   0  0  0  0  0  0  0  0  0  0  0  0
  -21.7785    8.2012   -3.4245 C   0  0  0  0  0  0  0  0  0  0  0  0
  -24.4946    5.5163   -1.9324 F   0  0  0  0  0  0  0  0  0  0  0  0
  -25.0924    6.8829   -4.1217 F   0  0  0  0  0  0  0  0  0  0  0  0
  -23.2583    8.6468   -5.2150 F   0  0  0  0  0  0  0  0  0  0  0  0
  -15.6265   11.7149    1.4926 C   0  0  0  0  0  0  0  0  0  0  0  0
  -15.6342   11.1217    2.7666 O   0  0  0  0  0  0  0  0  0  0  0  0
  -16.4398   10.5917    2.8716 H   0  0  0  0  0  0  0  0  0  0  0  0
  -13.7196    9.3705   -1.7928 S   0  0  0  0  0  0  0  0  0  0  0  0
   -9.7536    8.5149   -1.4931 C   0  0  0  0  0  0  0  0  0  0  0  0
   -9.7369    7.1957   -1.9207 C   0  0  0  0  0  0  0  0  0  0  0  0
  -10.9408    4.9352   -2.8065 Cl  0  0  0  0  0  0  0  0  0  0  0  0
  -10.9326    6.5518   -2.2104 C   0  0  0  0  0  0  0  0  0  0  0  0
   -8.2169    6.3788   -2.1186 Cl  0  0  0  0  0  0  0  0  0  0  0  0
  -12.1356    7.2213   -2.0940 C   0  0  0  0  0  0  0  0  0  0  0  0
  -12.1554    8.5453   -1.6825 C   0  0  0  0  0  0  0  0  0  0  0  0
  -10.9611    9.1859   -1.3598 C   0  0  0  0  0  0  0  0  0  0  0  0
 29 36  2  0  0  0
 29 30  1  0  0  0
 36 35  1  0  0  0
 33 30  1  0  0  0
 30 32  2  0  0  0
 28 35  1  0  0  0
 28  3  1  0  0  0
 35 34  2  0  0  0
 32 34  1  0  0  0
 32 31  1  0  0  0
 12 15  2  0  0  0
 12 13  1  0  0  0
  7  2  1  0  0  0
 15 14  1  0  0  0
  3  2  1  0  0  0
  3  4  1  0  0  0
  8 13  1  0  0  0
  8  2  1  0  0  0
  8  5  1  0  0  0
 13 11  1  0  0  0
  1  4  1  0  0  0
  1  5  1  0  0  0
  1 25  1  0  0  0
 14 11  2  0  0  0
 14 20  1  0  0  0
  5  6  1  0  0  0
 19 20  2  0  0  0
 19 16  1  0  0  0
 22 16  1  0  0  0
 26 25  1  0  0  0
 20 21  1  0  0  0
 16 17  2  0  0  0
 21 18  2  0  0  0
 17 18  1  0  0  0
 17 23  1  0  0  0
 18 24  1  0  0  0
 26 27  1  0  0  0
  6  9  1  0  0  0
  7 10  1  0  0  0
M  END
> <minimizedAffinity>
-7.38640

$$$$
6EOL_BKH_A_303


 36 39  0  0  0  0  0  0  0  0999 V2000
  -12.8271    6.1512   -1.8576 C   0  0  0  0  0  0  0  0  0  0  0  0
  -12.3301    8.9556   -2.2617 C   0  0  0  0  0  0  0  0  0  0  0  0
  -11.3596    7.8610   -2.6986 C   0  0  0  0  0  0  0  0  0  0  0  0
  -12.0326    6.6382   -2.9578 O   0  0  0  0  0  0  0  0  0  0  0  0
  -13.8541    7.2039   -1.4585 C   0  0  0  0  0  0  0  0  0  0  0  0
  -14.7487    7.4468   -2.5490 O   0  0  0  0  0  0  0  0  0  0  0  0
  -11.5993   10.1242   -1.8905 O   0  0  0  0  0  0  0  0  0  0  0  0
  -13.1614    8.4989   -1.0575 C   0  0  0  0  0  0  0  0  0  0  0  0
  -14.2474    7.7765   -3.3112 H   0  0  0  0  0  0  0  0  0  0  0  0
  -11.0122    9.9158   -1.1470 H   0  0  0  0  0  0  0  0  0  0  0  0
  -14.7166    9.6100    0.6148 C   0  0  0  0  0  0  0  0  0  0  0  0
  -14.5296   10.4904   -1.4106 N   0  0  0  0  0  0  0  0  0  0  0  0
  -14.1223    9.5015   -0.5901 N   0  0  0  0  0  0  0  0  0  0  0  0
  -15.5289   10.7018    0.5199 C   0  0  0  0  0  0  0  0  0  0  0  0
  -15.3813   11.2234   -0.7343 N   0  0  0  0  0  0  0  0  0  0  0  0
  -18.3646   12.4195    2.2324 C   0  0  0  0  0  0  0  0  0  0  0  0
  -17.8289   12.7065    3.4673 C   0  0  0  0  0  0  0  0  0  0  0  0
  -16.5350   12.3209    3.7315 C   0  0  0  0  0  0  0  0  0  0  0  0
  -17.6347   11.7828    1.2623 C   0  0  0  0  0  0  0  0  0  0  0  0
  -16.3386   11.3679    1.5534 C   0  0  0  0  0  0  0  0  0  0  0  0
  -15.7813   11.6515    2.8046 C   0  0  0  0  0  0  0  0  0  0  0  0
  -19.6654   12.7038    2.0177 F   0  0  0  0  0  0  0  0  0  0  0  0
  -18.6341   13.2416    4.3979 F   0  0  0  0  0  0  0  0  0  0  0  0
  -15.9910   12.6255    4.9497 F   0  0  0  0  0  0  0  0  0  0  0  0
  -13.4758    4.8777   -2.3102 C   0  0  0  0  0  0  0  0  0  0  0  0
  -12.5408    3.8840   -2.6466 O   0  0  0  0  0  0  0  0  0  0  0  0
  -11.9916    4.1931   -3.3840 H   0  0  0  0  0  0  0  0  0  0  0  0
   -9.9847    7.5585   -1.5678 S   0  0  0  0  0  0  0  0  0  0  0  0
   -8.3042    5.4467   -4.6120 C   0  0  0  0  0  0  0  0  0  0  0  0
   -8.1870    4.1939   -4.0287 C   0  0  0  0  0  0  0  0  0  0  0  0
   -8.4626    2.4644   -1.9608 Cl  0  0  0  0  0  0  0  0  0  0  0  0
   -8.5343    4.0213   -2.6954 C   0  0  0  0  0  0  0  0  0  0  0  0
   -7.6378    2.8520   -4.9851 Cl  0  0  0  0  0  0  0  0  0  0  0  0
   -9.0131    5.0832   -1.9524 C   0  0  0  0  0  0  0  0  0  0  0  0
   -9.1472    6.3336   -2.5364 C   0  0  0  0  0  0  0  0  0  0  0  0
   -8.7698    6.5194   -3.8646 C   0  0  0  0  0  0  0  0  0  0  0  0
 29 36  2  0  0  0
 29 30  1  0  0  0
 36 35  1  0  0  0
 33 30  1  0  0  0
 30 32  2  0  0  0
 28 35  1  0  0  0
 28  3  1  0  0  0
 35 34  2  0  0  0
 32 34  1  0  0  0
 32 31  1  0  0  0
 12 15  2  0  0  0
 12 13  1  0  0  0
  7  2  1  0  0  0
 15 14  1  0  0  0
  3  2  1  0  0  0
  3  4  1  0  0  0
  8 13  1  0  0  0
  8  2  1  0  0  0
  8  5  1  0  0  0
 13 11  1  0  0  0
  1  4  1  0  0  0
  1  5  1  0  0  0
  1 25  1  0  0  0
 14 11  2  0  0  0
 14 20  1  0  0  0
  5  6  1  0  0  0
 19 20  2  0  0  0
 19 16  1  0  0  0
 22 16  1  0  0  0
 26 25  1  0  0  0
 20 21  1  0  0  0
 16 17  2  0  0  0
 21 18  2  0  0  0
 17 18  1  0  0  0
 17 23  1  0  0  0
 18 24  1  0  0  0
 26 27  1  0  0  0
  6  9  1  0  0  0
  7 10  1  0  0  0
M  END
> <minimizedAffinity>
-7.26523

$$$$
6EOL_BKH_A_303


 36 39  0  0  0  0  0  0  0  0999 V2000
  -16.3982    9.3612    0.5752 C   0  0  0  0  0  0  0  0  0  0  0  0
  -16.1452    8.4442   -2.1396 C   0  0  0  0  0  0  0  0  0  0  0  0
  -17.4901    8.6811   -1.4569 C   0  0  0  0  0  0  0  0  0  0  0  0
  -17.3905    9.6550   -0.4288 O   0  0  0  0  0  0  0  0  0  0  0  0
  -15.0333    9.1974   -0.0823 C   0  0  0  0  0  0  0  0  0  0  0  0
  -14.6470   10.4243   -0.7101 O   0  0  0  0  0  0  0  0  0  0  0  0
  -16.2641    7.3720   -3.0742 O   0  0  0  0  0  0  0  0  0  0  0  0
  -15.0689    8.0766   -1.1119 C   0  0  0  0  0  0  0  0  0  0  0  0
  -15.2946   10.6553   -1.3943 H   0  0  0  0  0  0  0  0  0  0  0  0
  -16.5208    6.5621   -2.6061 H   0  0  0  0  0  0  0  0  0  0  0  0
  -12.6753    7.2291   -1.1610 C   0  0  0  0  0  0  0  0  0  0  0  0
  -13.4719    8.2686   -2.9491 N   0  0  0  0  0  0  0  0  0  0  0  0
  -13.7473    7.8432   -1.7001 N   0  0  0  0  0  0  0  0  0  0  0  0
  -11.7033    7.2950   -2.1159 C   0  0  0  0  0  0  0  0  0  0  0  0
  -12.2305    7.9311   -3.2042 N   0  0  0  0  0  0  0  0  0  0  0  0
   -7.9890    6.9415   -2.1697 C   0  0  0  0  0  0  0  0  0  0  0  0
   -7.8270    5.5782   -2.2675 C   0  0  0  0  0  0  0  0  0  0  0  0
   -8.9477    4.7812   -2.3046 C   0  0  0  0  0  0  0  0  0  0  0  0
   -9.2326    7.5170   -2.1309 C   0  0  0  0  0  0  0  0  0  0  0  0
  -10.3577    6.6979   -2.1350 C   0  0  0  0  0  0  0  0  0  0  0  0
  -10.2086    5.3107   -2.2329 C   0  0  0  0  0  0  0  0  0  0  0  0
   -6.8884    7.7077   -2.0258 F   0  0  0  0  0  0  0  0  0  0  0  0
   -6.5821    5.0821   -2.2001 F   0  0  0  0  0  0  0  0  0  0  0  0
   -8.7912    3.4271   -2.4258 F   0  0  0  0  0  0  0  0  0  0  0  0
  -16.4153   10.4929    1.5583 C   0  0  0  0  0  0  0  0  0  0  0  0
  -16.6110   10.0583    2.8803 O   0  0  0  0  0  0  0  0  0  0  0  0
  -17.4713    9.6160    2.9513 H   0  0  0  0  0  0  0  0  0  0  0  0
  -18.2895    7.2003   -0.8021 S   0  0  0  0  0  0  0  0  0  0  0  0
  -22.1181    6.7407   -2.0988 C   0  0  0  0  0  0  0  0  0  0  0  0
  -22.1764    7.7068   -3.0922 C   0  0  0  0  0  0  0  0  0  0  0  0
  -21.1056    9.7110   -4.5688 Cl  0  0  0  0  0  0  0  0  0  0  0  0
  -21.0893    8.5454   -3.2999 C   0  0  0  0  0  0  0  0  0  0  0  0
  -23.5972    7.8314   -4.0834 Cl  0  0  0  0  0  0  0  0  0  0  0  0
  -19.9447    8.4115   -2.5377 C   0  0  0  0  0  0  0  0  0  0  0  0
  -19.8764    7.4362   -1.5545 C   0  0  0  0  0  0  0  0  0  0  0  0
  -20.9761    6.6135   -1.3206 C   0  0  0  0  0  0  0  0  0  0  0  0
 29 36  2  0  0  0
 29 30  1  0  0  0
 36 35  1  0  0  0
 33 30  1  0  0  0
 30 32  2  0  0  0
 28 35  1  0  0  0
 28  3  1  0  0  0
 35 34  2  0  0  0
 32 34  1  0  0  0
 32 31  1  0  0  0
 12 15  2  0  0  0
 12 13  1  0  0  0
  7  2  1  0  0  0
 15 14  1  0  0  0
  3  2  1  0  0  0
  3  4  1  0  0  0
  8 13  1  0  0  0
  8  2  1  0  0  0
  8  5  1  0  0  0
 13 11  1  0  0  0
  1  4  1  0  0  0
  1  5  1  0  0  0
  1 25  1  0  0  0
 14 11  2  0  0  0
 14 20  1  0  0  0
  5  6  1  0  0  0
 19 20  2  0  0  0
 19 16  1  0  0  0
 22 16  1  0  0  0
 26 25  1  0  0  0
 20 21  1  0  0  0
 16 17  2  0  0  0
 21 18  2  0  0  0
 17 18  1  0  0  0
 17 23  1  0  0  0
 18 24  1  0  0  0
 26 27  1  0  0  0
  6  9  1  0  0  0
  7 10  1  0  0  0
M  END
> <minimizedAffinity>
-7.25622

$$$$
6EOL_BKH_A_303


 36 39  0  0  0  0  0  0  0  0999 V2000
  -14.8593    7.3768   -3.2791 C   0  0  0  0  0  0  0  0  0  0  0  0
  -13.1393    9.1036   -1.7511 C   0  0  0  0  0  0  0  0  0  0  0  0
  -12.6352    7.8824   -2.5163 C   0  0  0  0  0  0  0  0  0  0  0  0
  -13.4726    7.5747   -3.6206 O   0  0  0  0  0  0  0  0  0  0  0  0
  -15.4002    8.6191   -2.5816 C   0  0  0  0  0  0  0  0  0  0  0  0
  -15.3410    9.7391   -3.4708 O   0  0  0  0  0  0  0  0  0  0  0  0
  -12.3446    9.2984   -0.5816 O   0  0  0  0  0  0  0  0  0  0  0  0
  -14.5985    8.9142   -1.3216 C   0  0  0  0  0  0  0  0  0  0  0  0
  -14.4190    9.9027   -3.7238 H   0  0  0  0  0  0  0  0  0  0  0  0
  -12.4188    8.5204   -0.0070 H   0  0  0  0  0  0  0  0  0  0  0  0
  -15.8777   10.0637    0.5472 C   0  0  0  0  0  0  0  0  0  0  0  0
  -14.9556   11.3127   -1.0346 N   0  0  0  0  0  0  0  0  0  0  0  0
  -15.1500   10.0561   -0.5874 N   0  0  0  0  0  0  0  0  0  0  0  0
  -16.1487   11.3778    0.7936 C   0  0  0  0  0  0  0  0  0  0  0  0
  -15.5586   12.1171   -0.1925 N   0  0  0  0  0  0  0  0  0  0  0  0
  -16.7819   12.6811    4.2323 C   0  0  0  0  0  0  0  0  0  0  0  0
  -18.0922   13.0941    4.1511 C   0  0  0  0  0  0  0  0  0  0  0  0
  -18.7573   12.9491    2.9556 C   0  0  0  0  0  0  0  0  0  0  0  0
  -16.1391   12.1136    3.1626 C   0  0  0  0  0  0  0  0  0  0  0  0
  -16.8120   12.0036    1.9494 C   0  0  0  0  0  0  0  0  0  0  0  0
  -18.1436   12.4202    1.8515 C   0  0  0  0  0  0  0  0  0  0  0  0
  -16.1042   12.9238    5.3728 F   0  0  0  0  0  0  0  0  0  0  0  0
  -18.6222   13.7299    5.2072 F   0  0  0  0  0  0  0  0  0  0  0  0
  -20.0674   13.3368    2.8776 F   0  0  0  0  0  0  0  0  0  0  0  0
  -15.5916    7.0858   -4.5545 C   0  0  0  0  0  0  0  0  0  0  0  0
  -14.9204    7.5759   -5.6878 O   0  0  0  0  0  0  0  0  0  0  0  0
  -14.8435    8.5409   -5.6258 H   0  0  0  0  0  0  0  0  0  0  0  0
  -12.3931    6.3975   -1.5178 S   0  0  0  0  0  0  0  0  0  0  0  0
   -9.1364    4.3759   -2.8807 C   0  0  0  0  0  0  0  0  0  0  0  0
   -8.1421    5.3249   -2.6953 C   0  0  0  0  0  0  0  0  0  0  0  0
   -7.2601    7.7738   -1.9412 Cl  0  0  0  0  0  0  0  0  0  0  0  0
   -8.4789    6.5942   -2.2441 C   0  0  0  0  0  0  0  0  0  0  0  0
   -6.4856    4.9005   -2.9999 Cl  0  0  0  0  0  0  0  0  0  0  0  0
   -9.7935    6.9117   -1.9608 C   0  0  0  0  0  0  0  0  0  0  0  0
  -10.7883    5.9607   -2.1292 C   0  0  0  0  0  0  0  0  0  0  0  0
  -10.4598    4.6959   -2.6122 C   0  0  0  0  0  0  0  0  0  0  0  0
 29 36  2  0  0  0
 29 30  1  0  0  0
 36 35  1  0  0  0
 33 30  1  0  0  0
 30 32  2  0  0  0
 28 35  1  0  0  0
 28  3  1  0  0  0
 35 34  2  0  0  0
 32 34  1  0  0  0
 32 31  1  0  0  0
 12 15  2  0  0  0
 12 13  1  0  0  0
  7  2  1  0  0  0
 15 14  1  0  0  0
  3  2  1  0  0  0
  3  4  1  0  0  0
  8 13  1  0  0  0
  8  2  1  0  0  0
  8  5  1  0  0  0
 13 11  1  0  0  0
  1  4  1  0  0  0
  1  5  1  0  0  0
  1 25  1  0  0  0
 14 11  2  0  0  0
 14 20  1  0  0  0
  5  6  1  0  0  0
 19 20  2  0  0  0
 19 16  1  0  0  0
 22 16  1  0  0  0
 26 25  1  0  0  0
 20 21  1  0  0  0
 16 17  2  0  0  0
 21 18  2  0  0  0
 17 18  1  0  0  0
 17 23  1  0  0  0
 18 24  1  0  0  0
 26 27  1  0  0  0
  6  9  1  0  0  0
  7 10  1  0  0  0
M  END
> <minimizedAffinity>
-7.02625

$$$$
