5N9R_8RN_A_1003
  RCSB PDB12061719093D
Coordinates from PDB:5N9R:A:1003 Model:1 without hydrogens
 30 33  0  0  0  0            999 V2000
   33.9110   14.3300   -6.8800   N 0  0  0  0  0  0  0  0  0  0  0  0
   34.6930   13.1220   -8.8790   C 0  0  0  0  0  0  0  0  0  0  0  0
   33.1380   11.7510   -9.9050   O 0  0  0  0  0  0  0  0  0  0  0  0
   26.3190   14.0790  -11.9850   O 0  0  0  0  0  0  0  0  0  0  0  0
   27.5030   13.9810  -12.2200   C 0  0  0  0  0  0  0  0  0  0  0  0
   27.9440   13.8500  -13.6900   C 0  0  0  0  0  0  0  0  0  0  0  0
   27.8170   12.4130  -14.2680   C 0  0  0  0  0  0  0  0  0  0  0  0
   28.3060   12.4020  -15.7330   C 0  0  0  0  0  0  0  0  0  0  0  0
   28.5080   11.3650  -13.3840   C 0  0  0  0  0  0  0  0  0  0  0  0
   27.7410   10.6900  -12.4380   C 0  0  0  0  0  0  0  0  0  0  0  0
   28.3120    9.7500  -11.6010   C 0  0  0  0  0  0  0  0  0  0  0  0
   29.6610    9.4530  -11.7000   C 0  0  0  0  0  0  0  0  0  0  0  0
   30.4400   10.1160  -12.6350   C 0  0  0  0  0  0  0  0  0  0  0  0
   29.8660   11.0670  -13.4600   C 0  0  0  0  0  0  0  0  0  0  0  0
   28.3650   13.9300  -11.1430   N 0  0  0  0  0  0  0  0  0  0  0  0
   29.7470   14.4520  -11.1930   C 0  0  0  0  0  0  0  0  0  0  0  0
   30.6730   13.5630  -10.3450   C 0  0  0  0  0  0  0  0  0  0  0  0
   27.8730   13.9330   -9.7410   C 0  0  0  0  0  0  0  0  0  0  0  0
   28.6990   12.9820   -8.8510   C 0  0  0  0  0  0  0  0  0  0  0  0
   30.1870   13.3920   -8.8740   C 0  0  0  0  0  0  0  0  0  0  0  0
   30.3100   14.6750   -8.2550   O 0  0  0  0  0  0  0  0  0  0  0  0
   31.0530   12.3510   -8.1190   C 0  0  0  0  0  0  0  0  0  0  0  0
   32.4330   12.8670   -8.0400   N 0  0  0  0  0  0  0  0  0  0  0  0
   32.7340   13.7720   -7.0170   C 0  0  0  0  0  0  0  0  0  0  0  0
   33.3820   12.5150   -9.0030   C 0  0  0  0  0  0  0  0  0  0  0  0
   36.0060   12.9600   -9.7780   S 0  0  0  0  0  0  0  0  0  0  0  0
   36.9800   13.9520   -8.9400   C 0  0  0  0  0  0  0  0  0  0  0  0
   36.2430   14.4800   -7.8780   C 0  0  0  0  0  0  0  0  0  0  0  0
   34.9470   13.9910   -7.8550   C 0  0  0  0  0  0  0  0  0  0  0  0
   36.8550   15.7120   -6.5790  Br 0  0  0  0  0  0  0  0  0  0  0  0
  8  7  1  0  0  0  0
  7  6  1  0  0  0  0
  7  9  1  0  0  0  0
  6  5  1  0  0  0  0
 14  9  2  0  0  0  0
 14 13  1  0  0  0  0
  9 10  1  0  0  0  0
 13 12  2  0  0  0  0
 10 11  2  0  0  0  0
  5  4  2  0  0  0  0
  5 15  1  0  0  0  0
 12 11  1  0  0  0  0
 16 15  1  0  0  0  0
 16 17  1  0  0  0  0
 15 18  1  0  0  0  0
 17 20  1  0  0  0  0
  3 25  2  0  0  0  0
 26 27  1  0  0  0  0
 26  2  1  0  0  0  0
 18 19  1  0  0  0  0
 25  2  1  0  0  0  0
 25 23  1  0  0  0  0
 20 19  1  0  0  0  0
 20 22  1  0  0  0  0
 20 21  1  0  0  0  0
 27 28  2  0  0  0  0
  2 29  2  0  0  0  0
 22 23  1  0  0  0  0
 23 24  1  0  0  0  0
 28 29  1  0  0  0  0
 28 30  1  0  0  0  0
 29  1  1  0  0  0  0
 24  1  2  0  0  0  0
A    1
N
A    2
C
A    3
O
A    4
O2
A    5
C12
A    6
C13
A    7
C14
A    8
C21
A    9
C15
A   10
C20
A   11
C19
A   12
C18
A   13
C17
A   14
C16
A   15
N2
A   16
C9
A   17
C8
A   18
C10
A   19
C11
A   20
C7
A   21
O1
A   22
C6
A   23
N1
A   24
C2
A   25
C3
A   26
S
A   27
C4
A   28
C5
A   29
C1
A   30
BR
M  END
>  <InstanceId>
5N9R_8RN_A_1003

>  <ChemCompId>
8RN

>  <PdbId>
5N9R

>  <ChainId>
A

>  <ResidueNumber>
1003

>  <InsertionCode>


>  <Model>
1

>  <AltIds>


>  <MissingHeavyAtoms>
0

>  <ObservedFormula>
C22 N3 O3 Br S

>  <Name>
7-bromanyl-3-[[4-oxidanyl-1-[(3~{R})-3-phenylbutanoyl]piperidin-4-yl]methyl]thieno[3,2-d]pyrimidin-4-one

>  <SystematicName>
7-bromanyl-3-[[4-oxidanyl-1-[(3~{R})-3-phenylbutanoyl]piperidin-4-yl]methyl]thieno[3,2-d]pyrimidin-4-one

>  <Synonyms>


>  <Type>
NON-POLYMER

>  <Formula>
C22 H24 Br N3 O3 S

>  <MolecularWeight>
490.413

>  <ModifiedDate>
2017-12-01

>  <Parent>


>  <OneLetterCode>


>  <SubcomponentList>


>  <AmbiguousFlag>
N

>  <InChI>
InChI=1S/C22H24BrN3O3S/c1-15(16-5-3-2-4-6-16)11-18(27)25-9-7-22(29,8-10-25)13-26-14-24-19-17(23)12-30-20(19)21(26)28/h2-6,12,14-15,29H,7-11,13H2,1H3/t15-/m1/s1

>  <InChIKey>
NRRXSEFLOFZNSO-OAHLLOKOSA-N

>  <SMILES>
C[C@H](CC(=O)N1CCC(CC1)(CN2C=Nc3c(csc3C2=O)Br)O)c4ccccc4

$$$$
