3WTM_N1Y_A_301
  RCSB PDB12061711253D
Coordinates from PDB:3WTM:A:301 Model:1 without hydrogens
 17 18  0  0  0  0            999 V2000
   54.7250  -14.4970  -31.2900  Cl 0  0  0  0  0  0  0  0  0  0  0  0
   55.8070  -13.9150  -30.1290   C 0  0  0  0  0  0  0  0  0  0  0  0
   55.3040  -12.9300  -29.3190   N 0  0  0  0  0  0  0  0  0  0  0  0
   56.1420  -12.4160  -28.3630   C 0  0  0  0  0  0  0  0  0  0  0  0
   57.4820  -12.8470  -28.1720   C 0  0  0  0  0  0  0  0  0  0  0  0
   58.3920  -12.2460  -27.1090   C 0  0  0  0  0  0  0  0  0  0  0  0
   57.9580  -12.4590  -25.7310   N 0  0  0  0  0  0  0  0  0  0  0  0
   57.9550  -13.8760  -29.0390   C 0  0  0  0  0  0  0  0  0  0  0  0
   57.1130  -14.4270  -30.0370   C 0  0  0  0  0  0  0  0  0  0  0  0
   58.0190  -13.6050  -24.9170   C 0  0  0  0  0  0  0  0  0  0  0  0
   58.5240  -14.8070  -25.2800   C 0  0  0  0  0  0  0  0  0  0  0  0
   57.4810  -13.2740  -23.7020   N 0  0  0  0  0  0  0  0  0  0  0  0
   57.0240  -11.9050  -23.6080   C 0  0  0  0  0  0  0  0  0  0  0  0
   57.3460  -11.3250  -25.0060   C 0  0  0  0  0  0  0  0  0  0  0  0
   58.5730  -15.9800  -24.4260   N 0  3  0  0  0  0  0  0  0  0  0  0
   58.1300  -15.9560  -23.2620   O 0  0  0  0  0  0  0  0  0  0  0  0
   59.0820  -16.9770  -24.9570   O 0  5  0  0  0  0  0  0  0  0  0  0
  1  2  1  0  0  0  0
  9  2  2  0  0  0  0
  9  8  1  0  0  0  0
  2  3  1  0  0  0  0
  8  5  2  0  0  0  0
  3  4  2  0  0  0  0
  4  5  1  0  0  0  0
  5  6  1  0  0  0  0
  6  7  1  0  0  0  0
  7 10  1  0  0  0  0
  7 14  1  0  0  0  0
 17 15  1  0  0  0  0
 11 10  2  0  0  0  0
 11 15  1  0  0  0  0
 10 12  1  0  0  0  0
 15 16  2  0  0  0  0
 14 13  1  0  0  0  0
 12 13  1  0  0  0  0
M  CHG  2  15   1  17  -1
A    1
CL
A    2
C1
A    3
N1
A    4
C2
A    5
C3
A    6
C4
A    7
N2
A    8
C5
A    9
C6
A   10
C7
A   11
C8
A   12
N3
A   13
C9
A   14
C10
A   15
N4
A   16
O1
A   17
O2
M  END
>  <InstanceId>
3WTM_N1Y_A_301

>  <ChemCompId>
N1Y

>  <PdbId>
3WTM

>  <ChainId>
A

>  <ResidueNumber>
301

>  <InsertionCode>


>  <Model>
1

>  <AltIds>


>  <MissingHeavyAtoms>
0

>  <ObservedFormula>
C10 N4 O2 Cl

>  <Name>
2-chloro-5-{[(2E)-2-(nitromethylidene)imidazolidin-1-yl]methyl}pyridine

>  <SystematicName>
2-chloranyl-5-[[(2E)-2-(nitromethylidene)imidazolidin-1-yl]methyl]pyridine

>  <Synonyms>


>  <Type>
NON-POLYMER

>  <Formula>
C10 H11 Cl N4 O2

>  <MolecularWeight>
254.673

>  <ModifiedDate>
2015-01-30

>  <Parent>


>  <OneLetterCode>


>  <SubcomponentList>


>  <AmbiguousFlag>
N

>  <InChI>
InChI=1S/C10H11ClN4O2/c11-9-2-1-8(5-13-9)6-14-4-3-12-10(14)7-15(16)17/h1-2,5,7,12H,3-4,6H2/b10-7+

>  <InChIKey>
ALNDHUQPXHHNON-JXMROGBWSA-N

>  <SMILES>
c1cc(ncc1CN\2CCN/C2=C\[N+](=O)[O-])Cl

$$$$
