4O05_2Q9_A_4000


 34 38  0  0  0  0  0  0  0  0999 V2000
    8.9154  -11.6519  -24.3000 O   0  0  0  0  0  0  0  0  0  0  0  0
    7.7944  -12.1255  -24.2557 C   0  0  0  0  0  0  0  0  0  0  0  0
    7.5839  -13.5965  -24.5322 C   0  0  0  0  0  0  0  0  0  0  0  0
    6.2662  -13.9539  -25.2374 C   0  0  0  0  0  0  0  0  0  0  0  0
    6.0770  -15.4692  -25.2432 C   0  0  0  0  0  0  0  0  0  0  0  0
    6.2898  -13.4521  -26.6863 C   0  0  0  0  0  0  0  0  0  0  0  0
    5.1083  -13.3016  -24.4699 C   0  0  0  0  0  0  0  0  0  0  0  0
    5.3591  -11.8665  -24.1096 C   0  0  0  0  0  0  0  0  0  0  0  0
    6.6099  -11.2841  -24.0163 C   0  0  0  0  0  0  0  0  0  0  0  0
    6.4011   -9.8903  -23.7018 C   0  0  0  0  0  0  0  0  0  0  0  0
    7.4521   -8.8191  -23.5112 C   0  0  0  0  0  0  0  0  0  0  0  0
    6.7733   -7.4454  -23.5391 C   0  0  0  0  0  0  0  0  0  0  0  0
    5.5184   -7.3746  -22.7926 N   0  0  0  0  0  0  0  0  0  0  0  0
    4.9829   -6.0015  -22.7880 C   0  0  0  0  0  0  0  0  0  0  0  0
    4.5290   -8.3083  -23.3227 C   0  0  0  0  0  0  0  0  0  0  0  0
    5.0475   -9.6829  -23.6131 C   0  0  0  0  0  0  0  0  0  0  0  0
    4.4105  -10.8840  -23.8670 N   0  0  0  0  0  0  0  0  0  0  0  0
    2.9844  -11.0460  -23.9687 C   0  0  0  0  0  0  0  0  0  0  0  0
    2.2868  -10.2878  -24.9093 C   0  0  0  0  0  0  0  0  0  0  0  0
    2.3224  -11.9711  -23.1569 C   0  0  0  0  0  0  0  0  0  0  0  0
    0.9525  -12.1724  -23.3067 C   0  0  0  0  0  0  0  0  0  0  0  0
    0.2632  -13.2206  -22.4669 C   0  0  0  0  0  0  0  0  0  0  0  0
   -1.1971  -12.8897  -22.2605 C   0  0  0  0  0  0  0  0  0  0  0  0
   -1.8220  -12.4282  -23.5134 N   0  0  0  0  0  0  0  0  0  0  0  0
   -1.2068  -11.7246  -24.4831 C   0  0  0  0  0  0  0  0  0  0  0  0
   -1.8171  -11.3900  -25.4931 O   0  0  0  0  0  0  0  0  0  0  0  0
    0.2346  -11.4123  -24.2727 C   0  0  0  0  0  0  0  0  0  0  0  0
    0.9084  -10.4365  -25.0709 C   0  0  0  0  0  0  0  0  0  0  0  0
   -2.7701  -12.6535  -23.6532 H   0  0  0  0  0  0  0  0  0  0  0  0
    0.2320   -9.6782  -26.0283 N   0  0  0  0  0  0  0  0  0  0  0  0
   -0.6422  -10.0227  -26.3221 H   0  0  0  0  0  0  0  0  0  0  0  0
    0.3316   -8.4334  -28.1113 C   0  0  0  0  0  0  0  0  0  0  0  0
    0.6825   -8.4181  -26.6478 C   0  0  0  0  0  0  0  0  0  0  0  0
    0.1034   -7.2170  -25.9438 C   0  0  0  0  0  0  0  0  0  0  0  0
 32 33  1  0  0  0
 33 34  1  0  0  0
 33 30  1  0  0  0
  6  4  1  0  0  0
 30 28  1  0  0  0
 26 25  2  0  0  0
 28 19  2  0  0  0
 28 27  1  0  0  0
  5  4  1  0  0  0
  4  7  1  0  0  0
  4  3  1  0  0  0
 25 27  1  0  0  0
 25 24  1  0  0  0
 19 18  1  0  0  0
 27 21  2  0  0  0
  7  8  1  0  0  0
 24 23  1  0  0  0
  3  2  1  0  0  0
 18 17  1  0  0  0
 18 20  2  0  0  0
  8 17  1  0  0  0
  8  9  2  0  0  0
  2  1  2  0  0  0
  2  9  1  0  0  0
 21 20  1  0  0  0
 21 22  1  0  0  0
 17 16  1  0  0  0
  9 10  1  0  0  0
 16 10  2  0  0  0
 16 15  1  0  0  0
 10 11  1  0  0  0
 22 23  1  0  0  0
 15 13  1  0  0  0
 11 12  1  0  0  0
 12 13  1  0  0  0
 13 14  1  0  0  0
 30 31  1  0  0  0
 24 29  1  0  0  0
M  END
> <minimizedAffinity>
-13.57687

$$$$
4O05_2Q9_A_4000


 34 38  0  0  0  0  0  0  0  0999 V2000
    8.5491   -9.6876  -23.4481 O   0  0  0  0  0  0  0  0  0  0  0  0
    7.3635   -9.4118  -23.4838 C   0  0  0  0  0  0  0  0  0  0  0  0
    6.8953   -8.0341  -23.0751 C   0  0  0  0  0  0  0  0  0  0  0  0
    5.5244   -7.9810  -22.3828 C   0  0  0  0  0  0  0  0  0  0  0  0
    5.0738   -6.5290  -22.2384 C   0  0  0  0  0  0  0  0  0  0  0  0
    5.6122   -8.6134  -20.9886 C   0  0  0  0  0  0  0  0  0  0  0  0
    4.5105   -8.7427  -23.2470 C   0  0  0  0  0  0  0  0  0  0  0  0
    5.0134  -10.0700  -23.7344 C   0  0  0  0  0  0  0  0  0  0  0  0
    6.3480  -10.4162  -23.8416 C   0  0  0  0  0  0  0  0  0  0  0  0
    6.3905  -11.7868  -24.2946 C   0  0  0  0  0  0  0  0  0  0  0  0
    7.6151  -12.6367  -24.5520 C   0  0  0  0  0  0  0  0  0  0  0  0
    7.1860  -14.1025  -24.6780 C   0  0  0  0  0  0  0  0  0  0  0  0
    5.9747  -14.3132  -25.4688 N   0  0  0  0  0  0  0  0  0  0  0  0
    5.6870  -15.7505  -25.6224 C   0  0  0  0  0  0  0  0  0  0  0  0
    4.8293  -13.6213  -24.8848 C   0  0  0  0  0  0  0  0  0  0  0  0
    5.0954  -12.2139  -24.4474 C   0  0  0  0  0  0  0  0  0  0  0  0
    4.2546  -11.1718  -24.1009 N   0  0  0  0  0  0  0  0  0  0  0  0
    2.8207  -11.2685  -24.0314 C   0  0  0  0  0  0  0  0  0  0  0  0
    2.0502  -10.4252  -24.8324 C   0  0  0  0  0  0  0  0  0  0  0  0
    2.2197  -12.2144  -23.1966 C   0  0  0  0  0  0  0  0  0  0  0  0
    0.8336  -12.3495  -23.1839 C   0  0  0  0  0  0  0  0  0  0  0  0
    0.2030  -13.4188  -22.3248 C   0  0  0  0  0  0  0  0  0  0  0  0
   -1.2030  -13.0418  -21.9180 C   0  0  0  0  0  0  0  0  0  0  0  0
   -1.9544  -12.4779  -23.0542 N   0  0  0  0  0  0  0  0  0  0  0  0
   -1.4298  -11.7411  -24.0521 C   0  0  0  0  0  0  0  0  0  0  0  0
   -2.1428  -11.3195  -24.9567 O   0  0  0  0  0  0  0  0  0  0  0  0
    0.0400  -11.5020  -24.0073 C   0  0  0  0  0  0  0  0  0  0  0  0
    0.6569  -10.5068  -24.8274 C   0  0  0  0  0  0  0  0  0  0  0  0
   -2.9223  -12.6550  -23.0861 H   0  0  0  0  0  0  0  0  0  0  0  0
   -0.0947   -9.6633  -25.6476 N   0  0  0  0  0  0  0  0  0  0  0  0
   -0.8935   -9.2555  -25.2416 H   0  0  0  0  0  0  0  0  0  0  0  0
   -0.7743  -10.0731  -27.9429 C   0  0  0  0  0  0  0  0  0  0  0  0
    0.1760   -9.3158  -27.0549 C   0  0  0  0  0  0  0  0  0  0  0  0
    0.0932   -7.8277  -27.2836 C   0  0  0  0  0  0  0  0  0  0  0  0
 32 33  1  0  0  0
 33 34  1  0  0  0
 33 30  1  0  0  0
  6  4  1  0  0  0
 30 28  1  0  0  0
 26 25  2  0  0  0
 28 19  2  0  0  0
 28 27  1  0  0  0
  5  4  1  0  0  0
  4  7  1  0  0  0
  4  3  1  0  0  0
 25 27  1  0  0  0
 25 24  1  0  0  0
 19 18  1  0  0  0
 27 21  2  0  0  0
  7  8  1  0  0  0
 24 23  1  0  0  0
  3  2  1  0  0  0
 18 17  1  0  0  0
 18 20  2  0  0  0
  8 17  1  0  0  0
  8  9  2  0  0  0
  2  1  2  0  0  0
  2  9  1  0  0  0
 21 20  1  0  0  0
 21 22  1  0  0  0
 17 16  1  0  0  0
  9 10  1  0  0  0
 16 10  2  0  0  0
 16 15  1  0  0  0
 10 11  1  0  0  0
 22 23  1  0  0  0
 15 13  1  0  0  0
 11 12  1  0  0  0
 12 13  1  0  0  0
 13 14  1  0  0  0
 30 31  1  0  0  0
 24 29  1  0  0  0
M  END
> <minimizedAffinity>
-12.37840

$$$$
4O05_2Q9_A_4000


 34 38  0  0  0  0  0  0  0  0999 V2000
    8.7215  -11.2670  -23.5642 O   0  0  0  0  0  0  0  0  0  0  0  0
    7.6307  -11.7581  -23.7922 C   0  0  0  0  0  0  0  0  0  0  0  0
    7.5170  -13.2308  -24.1126 C   0  0  0  0  0  0  0  0  0  0  0  0
    6.4143  -13.6052  -25.1153 C   0  0  0  0  0  0  0  0  0  0  0  0
    6.2566  -15.1233  -25.1679 C   0  0  0  0  0  0  0  0  0  0  0  0
    6.7786  -13.0962  -26.5152 C   0  0  0  0  0  0  0  0  0  0  0  0
    5.0951  -12.9746  -24.6492 C   0  0  0  0  0  0  0  0  0  0  0  0
    5.2283  -11.5375  -24.2377 C   0  0  0  0  0  0  0  0  0  0  0  0
    6.4101  -10.9363  -23.8449 C   0  0  0  0  0  0  0  0  0  0  0  0
    6.1090   -9.5474  -23.5888 C   0  0  0  0  0  0  0  0  0  0  0  0
    7.0655   -8.4610  -23.1493 C   0  0  0  0  0  0  0  0  0  0  0  0
    6.3914   -7.0978  -23.3388 C   0  0  0  0  0  0  0  0  0  0  0  0
    4.9925   -7.0500  -22.9172 N   0  0  0  0  0  0  0  0  0  0  0  0
    4.4495   -5.6854  -23.0407 C   0  0  0  0  0  0  0  0  0  0  0  0
    4.1754   -7.9964  -23.6712 C   0  0  0  0  0  0  0  0  0  0  0  0
    4.7708   -9.3614  -23.8291 C   0  0  0  0  0  0  0  0  0  0  0  0
    4.2334  -10.5710  -24.2304 N   0  0  0  0  0  0  0  0  0  0  0  0
    2.8767  -10.7546  -24.6733 C   0  0  0  0  0  0  0  0  0  0  0  0
    2.0820  -11.7039  -24.0302 C   0  0  0  0  0  0  0  0  0  0  0  0
    2.3633   -9.9699  -25.7094 C   0  0  0  0  0  0  0  0  0  0  0  0
    1.0299  -10.1047  -26.0883 C   0  0  0  0  0  0  0  0  0  0  0  0
    0.4731   -9.2055  -27.1656 C   0  0  0  0  0  0  0  0  0  0  0  0
   -0.6829   -9.8593  -27.8870 C   0  0  0  0  0  0  0  0  0  0  0  0
   -1.5987  -10.5200  -26.9393 N   0  0  0  0  0  0  0  0  0  0  0  0
   -1.2384  -11.1090  -25.7830 C   0  0  0  0  0  0  0  0  0  0  0  0
   -2.0810  -11.6303  -25.0601 O   0  0  0  0  0  0  0  0  0  0  0  0
    0.2081  -11.0619  -25.4292 C   0  0  0  0  0  0  0  0  0  0  0  0
    0.7492  -11.8924  -24.3992 C   0  0  0  0  0  0  0  0  0  0  0  0
   -2.5553  -10.5316  -27.1715 H   0  0  0  0  0  0  0  0  0  0  0  0
   -0.0327  -12.8377  -23.7327 N   0  0  0  0  0  0  0  0  0  0  0  0
   -0.3243  -13.6157  -24.2609 H   0  0  0  0  0  0  0  0  0  0  0  0
   -1.8729  -13.3356  -22.2281 C   0  0  0  0  0  0  0  0  0  0  0  0
   -0.4701  -12.7993  -22.3249 C   0  0  0  0  0  0  0  0  0  0  0  0
    0.4817  -13.5508  -21.4288 C   0  0  0  0  0  0  0  0  0  0  0  0
 32 33  1  0  0  0
 33 34  1  0  0  0
 33 30  1  0  0  0
  6  4  1  0  0  0
 30 28  1  0  0  0
 26 25  2  0  0  0
 28 19  2  0  0  0
 28 27  1  0  0  0
  5  4  1  0  0  0
  4  7  1  0  0  0
  4  3  1  0  0  0
 25 27  1  0  0  0
 25 24  1  0  0  0
 19 18  1  0  0  0
 27 21  2  0  0  0
  7  8  1  0  0  0
 24 23  1  0  0  0
  3  2  1  0  0  0
 18 17  1  0  0  0
 18 20  2  0  0  0
  8 17  1  0  0  0
  8  9  2  0  0  0
  2  1  2  0  0  0
  2  9  1  0  0  0
 21 20  1  0  0  0
 21 22  1  0  0  0
 17 16  1  0  0  0
  9 10  1  0  0  0
 16 10  2  0  0  0
 16 15  1  0  0  0
 10 11  1  0  0  0
 22 23  1  0  0  0
 15 13  1  0  0  0
 11 12  1  0  0  0
 12 13  1  0  0  0
 13 14  1  0  0  0
 30 31  1  0  0  0
 24 29  1  0  0  0
M  END
> <minimizedAffinity>
-10.88990

$$$$
