6GJR_F0W_A_201
  RCSB PDB11101803483D
Coordinates from PDB:6GJR:A:201 Model:1 without hydrogens
 25 26  0  0  0  0            999 V2000
    0.0400   16.6450   -6.0020   O 0  0  0  0  0  0  0  0  0  0  0  0
   -0.6200   17.5720   -5.5750   C 0  0  0  0  0  0  0  0  0  0  0  0
   -1.0650   17.5400   -4.3320   N 0  0  0  0  0  0  0  0  0  0  0  0
   -1.0260   16.3110   -3.5550   C 0  0  0  0  0  0  0  0  0  0  0  0
   -1.4510   15.0810   -4.3290   C 0  0  0  0  0  0  0  0  0  0  0  0
   -2.4810   15.0440   -4.9470   O 0  0  0  0  0  0  0  0  0  0  0  0
   -0.6010   13.9170   -4.3060   O 0  0  0  0  0  0  0  0  0  0  0  0
   -1.0030   12.7040   -4.8860   C 0  0  0  0  0  0  0  0  0  0  0  0
   -0.0740   11.6360   -4.3720   C 0  0  0  0  0  0  0  0  0  0  0  0
   -0.8870   18.6130   -6.3530   N 0  0  0  0  0  0  0  0  0  0  0  0
   -0.3520   18.6920   -7.6960   C 0  0  0  0  0  0  0  0  0  0  0  0
    1.1560   18.7460   -7.6520   C 0  0  0  0  0  0  0  0  0  0  0  0
    1.8600   19.4260   -6.7330   N 0  0  0  0  0  0  0  0  0  0  0  0
    3.1740   19.2050   -7.1000   N 0  0  0  0  0  0  0  0  0  0  0  0
    4.3090   19.7710   -6.3510   C 0  0  0  0  0  0  0  0  0  0  0  0
    3.3250   18.4070   -8.2110   N 0  0  0  0  0  0  0  0  0  0  0  0
    1.9970   18.1360   -8.5320   N 0  0  0  0  0  0  0  0  0  0  0  0
   -1.6960   19.7640   -6.0020   C 0  0  0  0  0  0  0  0  0  0  0  0
   -3.0000   19.7540   -6.7610   C 0  0  0  0  0  0  0  0  0  0  0  0
   -3.5010   18.5470   -7.1480   C 0  0  0  0  0  0  0  0  0  0  0  0
   -4.6950   18.4890   -7.8170   C 0  0  0  0  0  0  0  0  0  0  0  0
   -5.4100   19.6110   -8.1240   C 0  0  0  0  0  0  0  0  0  0  0  0
   -6.5740   19.4680   -8.7740   N 0  0  0  0  0  0  0  0  0  0  0  0
   -4.9210   20.8430   -7.7450   C 0  0  0  0  0  0  0  0  0  0  0  0
   -3.7130   20.9020   -7.0630   C 0  0  0  0  0  0  0  0  0  0  0  0
 23 22  1  0  0  0  0
 17 16  2  0  0  0  0
 17 12  1  0  0  0  0
 16 14  1  0  0  0  0
 22 21  2  0  0  0  0
 22 24  1  0  0  0  0
 21 20  1  0  0  0  0
 24 25  2  0  0  0  0
 11 12  1  0  0  0  0
 11 10  1  0  0  0  0
 12 13  2  0  0  0  0
 20 19  2  0  0  0  0
 14 13  1  0  0  0  0
 14 15  1  0  0  0  0
 25 19  1  0  0  0  0
 19 18  1  0  0  0  0
 10 18  1  0  0  0  0
 10  2  1  0  0  0  0
  1  2  2  0  0  0  0
  2  3  1  0  0  0  0
  6  5  2  0  0  0  0
  8  9  1  0  0  0  0
  8  7  1  0  0  0  0
  3  4  1  0  0  0  0
  5  7  1  0  0  0  0
  5  4  1  0  0  0  0
A    1
O2
A    2
C4
A    3
N
A    4
C3
A    5
C2
A    6
O1
A    7
O
A    8
C1
A    9
C
A   10
N1
A   11
C12
A   12
C13
A   13
N6
A   14
N5
A   15
C14
A   16
N4
A   17
N3
A   18
C5
A   19
C6
A   20
C11
A   21
C10
A   22
C9
A   23
N2
A   24
C8
A   25
C7
M  END
>  <InstanceId>
6GJR_F0W_A_201

>  <ChemCompId>
F0W

>  <PdbId>
6GJR

>  <ChainId>
A

>  <ResidueNumber>
201

>  <InsertionCode>


>  <Model>
1

>  <AltIds>


>  <MissingHeavyAtoms>
0

>  <ObservedFormula>
C15 N7 O3

>  <Name>
ethyl 2-[[(4-aminophenyl)methyl-[(2-methyl-1,2,3,4-tetrazol-5-yl)methyl]carbamoyl]amino]ethanoate

>  <SystematicName>
ethyl 2-[[(4-aminophenyl)methyl-[(2-methyl-1,2,3,4-tetrazol-5-yl)methyl]carbamoyl]amino]ethanoate

>  <Synonyms>


>  <Type>
NON-POLYMER

>  <Formula>
C15 H21 N7 O3

>  <MolecularWeight>
347.372

>  <ModifiedDate>
2018-11-02

>  <Parent>


>  <OneLetterCode>


>  <SubcomponentList>


>  <AmbiguousFlag>
N

>  <InChI>
InChI=1S/C15H21N7O3/c1-3-25-14(23)8-17-15(24)22(10-13-18-20-21(2)19-13)9-11-4-6-12(16)7-5-11/h4-7H,3,8-10,16H2,1-2H3,(H,17,24)

>  <InChIKey>
NVGCFZKHSYMFIM-UHFFFAOYSA-N

>  <SMILES>
CCOC(=O)CNC(=O)N(Cc1ccc(cc1)N)Cc2nnn(n2)C

$$$$
