4U54_3C5_A_501


 16 17  0  0  0  0  0  0  0  0999 V2000
   -0.6420  122.5306  -12.9869 C   0  0  0  0  0  0  0  0  0  0  0  0
   -0.6643  123.8363  -12.4985 C   0  0  0  0  0  0  0  0  0  0  0  0
   -1.7663  124.6538  -12.7121 C   0  0  0  0  0  0  0  0  0  0  0  0
   -2.8586  124.1600  -13.4222 C   0  0  0  0  0  0  0  0  0  0  0  0
   -2.8421  122.8563  -13.9146 C   0  0  0  0  0  0  0  0  0  0  0  0
   -1.7349  122.0367  -13.7024 C   0  0  0  0  0  0  0  0  0  0  0  0
   -1.7722  126.0779  -12.1451 C   0  0  0  0  0  0  0  0  0  0  0  0
   -1.0814  126.4084  -10.9809 C   0  0  0  0  0  0  0  0  0  0  0  0
   -1.0894  127.6507  -10.5083 N   0  0  0  0  0  0  0  0  0  0  0  0
   -1.7497  128.6181  -11.1213 C   0  0  0  0  0  0  0  0  0  0  0  0
   -2.4570  128.3716  -12.2893 C   0  0  0  0  0  0  0  0  0  0  0  0
   -2.4717  127.0814  -12.8169 C   0  0  0  0  0  0  0  0  0  0  0  0
    0.5979  121.6647  -12.7407 C   0  0  0  0  0  0  0  0  0  0  0  0
    0.0228  120.2618  -10.8787 C   0  0  0  0  0  0  0  0  0  0  0  0
    0.8239  121.3991  -11.3242 N   0  0  0  0  0  0  0  0  0  0  0  0
    1.8115  121.1919  -11.1757 H   0  0  0  0  0  0  0  0  0  0  0  0
 14 15  1  0  0  0
 11 12  1  0  0  0
 11 10  2  0  0  0
 13 15  1  0  0  0
 13  1  1  0  0  0
 12  7  2  0  0  0
 10  9  1  0  0  0
  2  1  1  0  0  0
  2  3  2  0  0  0
  1  6  2  0  0  0
  7  3  1  0  0  0
  7  8  1  0  0  0
  9  8  2  0  0  0
  3  4  1  0  0  0
  6  5  1  0  0  0
  4  5  2  0  0  0
 15 16  1  0  0  0
M  END
> <minimizedAffinity>
-5.19356

$$$$
4U54_3C5_A_501


 16 17  0  0  0  0  0  0  0  0999 V2000
   -0.9855  122.8311  -13.0736 C   0  0  0  0  0  0  0  0  0  0  0  0
   -1.4464  124.1148  -12.7846 C   0  0  0  0  0  0  0  0  0  0  0  0
   -0.6671  124.9985  -12.0494 C   0  0  0  0  0  0  0  0  0  0  0  0
    0.5874  124.5938  -11.5982 C   0  0  0  0  0  0  0  0  0  0  0  0
    1.0534  123.3114  -11.8822 C   0  0  0  0  0  0  0  0  0  0  0  0
    0.2702  122.4237  -12.6178 C   0  0  0  0  0  0  0  0  0  0  0  0
   -1.1902  126.4109  -11.7650 C   0  0  0  0  0  0  0  0  0  0  0  0
   -0.9417  127.0571  -10.5557 C   0  0  0  0  0  0  0  0  0  0  0  0
   -1.3949  128.2859  -10.3293 N   0  0  0  0  0  0  0  0  0  0  0  0
   -2.0960  128.9415  -11.2384 C   0  0  0  0  0  0  0  0  0  0  0  0
   -2.3806  128.3696  -12.4701 C   0  0  0  0  0  0  0  0  0  0  0  0
   -1.9215  127.0826  -12.7457 C   0  0  0  0  0  0  0  0  0  0  0  0
   -1.8808  121.8820  -13.8769 C   0  0  0  0  0  0  0  0  0  0  0  0
   -1.9981  120.3219  -15.6986 C   0  0  0  0  0  0  0  0  0  0  0  0
   -1.1177  120.9915  -14.7445 N   0  0  0  0  0  0  0  0  0  0  0  0
   -0.4226  121.5361  -15.2552 H   0  0  0  0  0  0  0  0  0  0  0  0
 14 15  1  0  0  0
 11 12  1  0  0  0
 11 10  2  0  0  0
 13 15  1  0  0  0
 13  1  1  0  0  0
 12  7  2  0  0  0
 10  9  1  0  0  0
  2  1  1  0  0  0
  2  3  2  0  0  0
  1  6  2  0  0  0
  7  3  1  0  0  0
  7  8  1  0  0  0
  9  8  2  0  0  0
  3  4  1  0  0  0
  6  5  1  0  0  0
  4  5  2  0  0  0
 15 16  1  0  0  0
M  END
> <minimizedAffinity>
-5.10771

$$$$
4U54_3C5_A_501


 16 17  0  0  0  0  0  0  0  0999 V2000
   -1.2041  125.1840  -12.4258 C   0  0  0  0  0  0  0  0  0  0  0  0
   -1.5790  123.9864  -13.0333 C   0  0  0  0  0  0  0  0  0  0  0  0
   -0.7501  122.8736  -12.9767 C   0  0  0  0  0  0  0  0  0  0  0  0
    0.4675  122.9594  -12.3050 C   0  0  0  0  0  0  0  0  0  0  0  0
    0.8490  124.1540  -11.6970 C   0  0  0  0  0  0  0  0  0  0  0  0
    0.0182  125.2716  -11.7559 C   0  0  0  0  0  0  0  0  0  0  0  0
   -1.1975  121.5638  -13.6353 C   0  0  0  0  0  0  0  0  0  0  0  0
   -0.5169  120.3659  -13.4262 C   0  0  0  0  0  0  0  0  0  0  0  0
   -0.9243  119.2372  -13.9976 N   0  0  0  0  0  0  0  0  0  0  0  0
   -1.9870  119.2058  -14.7834 C   0  0  0  0  0  0  0  0  0  0  0  0
   -2.7225  120.3548  -15.0366 C   0  0  0  0  0  0  0  0  0  0  0  0
   -2.3275  121.5582  -14.4544 C   0  0  0  0  0  0  0  0  0  0  0  0
   -2.1411  126.3926  -12.5214 C   0  0  0  0  0  0  0  0  0  0  0  0
   -2.3662  128.7813  -12.4249 C   0  0  0  0  0  0  0  0  0  0  0  0
   -1.4272  127.6626  -12.4481 N   0  0  0  0  0  0  0  0  0  0  0  0
   -0.8629  127.6811  -11.5986 H   0  0  0  0  0  0  0  0  0  0  0  0
 14 15  1  0  0  0
 11 12  1  0  0  0
 11 10  2  0  0  0
 13 15  1  0  0  0
 13  1  1  0  0  0
 12  7  2  0  0  0
 10  9  1  0  0  0
  2  1  1  0  0  0
  2  3  2  0  0  0
  1  6  2  0  0  0
  7  3  1  0  0  0
  7  8  1  0  0  0
  9  8  2  0  0  0
  3  4  1  0  0  0
  6  5  1  0  0  0
  4  5  2  0  0  0
 15 16  1  0  0  0
M  END
> <minimizedAffinity>
-4.76519

$$$$
4U54_3C5_A_501


 16 17  0  0  0  0  0  0  0  0999 V2000
    0.0835  122.8554  -12.4736 C   0  0  0  0  0  0  0  0  0  0  0  0
   -1.1525  123.3115  -12.9298 C   0  0  0  0  0  0  0  0  0  0  0  0
   -1.5412  124.6288  -12.7245 C   0  0  0  0  0  0  0  0  0  0  0  0
   -0.6841  125.4999  -12.0555 C   0  0  0  0  0  0  0  0  0  0  0  0
    0.5521  125.0500  -11.5955 C   0  0  0  0  0  0  0  0  0  0  0  0
    0.9412  123.7273  -11.7993 C   0  0  0  0  0  0  0  0  0  0  0  0
   -2.8967  125.1084  -13.2558 C   0  0  0  0  0  0  0  0  0  0  0  0
   -3.8082  124.2323  -13.8419 C   0  0  0  0  0  0  0  0  0  0  0  0
   -4.9833  124.6636  -14.2888 N   0  0  0  0  0  0  0  0  0  0  0  0
   -5.3330  125.9351  -14.1952 C   0  0  0  0  0  0  0  0  0  0  0  0
   -4.4840  126.8689  -13.6188 C   0  0  0  0  0  0  0  0  0  0  0  0
   -3.2430  126.4551  -13.1371 C   0  0  0  0  0  0  0  0  0  0  0  0
    0.4700  121.3915  -12.7091 C   0  0  0  0  0  0  0  0  0  0  0  0
    0.6628  119.6879  -14.3904 C   0  0  0  0  0  0  0  0  0  0  0  0
   -0.0942  120.8542  -13.9424 N   0  0  0  0  0  0  0  0  0  0  0  0
   -1.0629  120.5813  -13.7765 H   0  0  0  0  0  0  0  0  0  0  0  0
 14 15  1  0  0  0
 11 12  1  0  0  0
 11 10  2  0  0  0
 13 15  1  0  0  0
 13  1  1  0  0  0
 12  7  2  0  0  0
 10  9  1  0  0  0
  2  1  1  0  0  0
  2  3  2  0  0  0
  1  6  2  0  0  0
  7  3  1  0  0  0
  7  8  1  0  0  0
  9  8  2  0  0  0
  3  4  1  0  0  0
  6  5  1  0  0  0
  4  5  2  0  0  0
 15 16  1  0  0  0
M  END
> <minimizedAffinity>
-4.73845

$$$$
4U54_3C5_A_501


 16 17  0  0  0  0  0  0  0  0999 V2000
   -0.8964  125.5778  -11.9139 C   0  0  0  0  0  0  0  0  0  0  0  0
   -1.6778  124.7040  -12.6688 C   0  0  0  0  0  0  0  0  0  0  0  0
   -1.2175  123.4315  -12.9806 C   0  0  0  0  0  0  0  0  0  0  0  0
    0.0386  123.0281  -12.5325 C   0  0  0  0  0  0  0  0  0  0  0  0
    0.8254  123.8972  -11.7789 C   0  0  0  0  0  0  0  0  0  0  0  0
    0.3644  125.1753  -11.4681 C   0  0  0  0  0  0  0  0  0  0  0  0
   -2.1068  122.4843  -13.7939 C   0  0  0  0  0  0  0  0  0  0  0  0
   -3.4035  122.8325  -14.1668 C   0  0  0  0  0  0  0  0  0  0  0  0
   -4.1578  122.0027  -14.8804 N   0  0  0  0  0  0  0  0  0  0  0  0
   -3.7099  120.8193  -15.2634 C   0  0  0  0  0  0  0  0  0  0  0  0
   -2.4276  120.4011  -14.9377 C   0  0  0  0  0  0  0  0  0  0  0  0
   -1.6055  121.2439  -14.1913 C   0  0  0  0  0  0  0  0  0  0  0  0
   -1.4352  126.9778  -11.6017 C   0  0  0  0  0  0  0  0  0  0  0  0
   -2.6812  128.6015  -12.8576 C   0  0  0  0  0  0  0  0  0  0  0  0
   -1.4295  127.8536  -12.7682 N   0  0  0  0  0  0  0  0  0  0  0  0
   -0.6522  128.5095  -12.6909 H   0  0  0  0  0  0  0  0  0  0  0  0
 14 15  1  0  0  0
 11 12  1  0  0  0
 11 10  2  0  0  0
 13 15  1  0  0  0
 13  1  1  0  0  0
 12  7  2  0  0  0
 10  9  1  0  0  0
  2  1  1  0  0  0
  2  3  2  0  0  0
  1  6  2  0  0  0
  7  3  1  0  0  0
  7  8  1  0  0  0
  9  8  2  0  0  0
  3  4  1  0  0  0
  6  5  1  0  0  0
  4  5  2  0  0  0
 15 16  1  0  0  0
M  END
> <minimizedAffinity>
-4.67232

$$$$
4U54_3C5_A_501


 16 17  0  0  0  0  0  0  0  0999 V2000
   -2.5320  128.9627  -12.2932 C   0  0  0  0  0  0  0  0  0  0  0  0
   -1.8757  127.7560  -12.5318 C   0  0  0  0  0  0  0  0  0  0  0  0
   -1.4809  126.9437  -11.4770 C   0  0  0  0  0  0  0  0  0  0  0  0
   -1.7454  127.3427  -10.1685 C   0  0  0  0  0  0  0  0  0  0  0  0
   -2.3995  128.5485   -9.9230 C   0  0  0  0  0  0  0  0  0  0  0  0
   -2.7935  129.3650  -10.9816 C   0  0  0  0  0  0  0  0  0  0  0  0
   -0.7803  125.6121  -11.7696 C   0  0  0  0  0  0  0  0  0  0  0  0
    0.4925  125.3278  -11.2789 C   0  0  0  0  0  0  0  0  0  0  0  0
    1.0816  124.1640  -11.5345 N   0  0  0  0  0  0  0  0  0  0  0  0
    0.4860  123.2337  -12.2607 C   0  0  0  0  0  0  0  0  0  0  0  0
   -0.7844  123.4374  -12.7802 C   0  0  0  0  0  0  0  0  0  0  0  0
   -1.4356  124.6449  -12.5330 C   0  0  0  0  0  0  0  0  0  0  0  0
   -2.9402  129.8363  -13.4840 C   0  0  0  0  0  0  0  0  0  0  0  0
   -2.8662  129.9990  -15.8786 C   0  0  0  0  0  0  0  0  0  0  0  0
   -2.1575  129.5526  -14.6818 N   0  0  0  0  0  0  0  0  0  0  0  0
   -1.2633  130.0396  -14.6208 H   0  0  0  0  0  0  0  0  0  0  0  0
 14 15  1  0  0  0
 11 12  1  0  0  0
 11 10  2  0  0  0
 13 15  1  0  0  0
 13  1  1  0  0  0
 12  7  2  0  0  0
 10  9  1  0  0  0
  2  1  1  0  0  0
  2  3  2  0  0  0
  1  6  2  0  0  0
  7  3  1  0  0  0
  7  8  1  0  0  0
  9  8  2  0  0  0
  3  4  1  0  0  0
  6  5  1  0  0  0
  4  5  2  0  0  0
 15 16  1  0  0  0
M  END
> <minimizedAffinity>
-4.66776

$$$$
4U54_3C5_A_501


 16 17  0  0  0  0  0  0  0  0999 V2000
   -3.3071  128.0935  -12.5575 C   0  0  0  0  0  0  0  0  0  0  0  0
   -2.2417  127.2331  -12.2959 C   0  0  0  0  0  0  0  0  0  0  0  0
   -2.2825  125.9086  -12.7111 C   0  0  0  0  0  0  0  0  0  0  0  0
   -3.4014  125.4391  -13.3958 C   0  0  0  0  0  0  0  0  0  0  0  0
   -4.4706  126.2935  -13.6590 C   0  0  0  0  0  0  0  0  0  0  0  0
   -4.4307  127.6222  -13.2401 C   0  0  0  0  0  0  0  0  0  0  0  0
   -1.0877  124.9909  -12.4287 C   0  0  0  0  0  0  0  0  0  0  0  0
    0.0524  125.4496  -11.7717 C   0  0  0  0  0  0  0  0  0  0  0  0
    1.0756  124.6376  -11.5264 N   0  0  0  0  0  0  0  0  0  0  0  0
    1.0527  123.3679  -11.8938 C   0  0  0  0  0  0  0  0  0  0  0  0
   -0.0484  122.8329  -12.5470 C   0  0  0  0  0  0  0  0  0  0  0  0
   -1.1421  123.6527  -12.8211 C   0  0  0  0  0  0  0  0  0  0  0  0
   -3.2287  129.5447  -12.0719 C   0  0  0  0  0  0  0  0  0  0  0  0
   -2.5617  131.3680  -13.4850 C   0  0  0  0  0  0  0  0  0  0  0  0
   -2.0980  130.2670  -12.6443 N   0  0  0  0  0  0  0  0  0  0  0  0
   -1.5228  130.6412  -11.8895 H   0  0  0  0  0  0  0  0  0  0  0  0
 14 15  1  0  0  0
 11 12  1  0  0  0
 11 10  2  0  0  0
 13 15  1  0  0  0
 13  1  1  0  0  0
 12  7  2  0  0  0
 10  9  1  0  0  0
  2  1  1  0  0  0
  2  3  2  0  0  0
  1  6  2  0  0  0
  7  3  1  0  0  0
  7  8  1  0  0  0
  9  8  2  0  0  0
  3  4  1  0  0  0
  6  5  1  0  0  0
  4  5  2  0  0  0
 15 16  1  0  0  0
M  END
> <minimizedAffinity>
-4.55263

$$$$
4U54_3C5_A_501


 16 17  0  0  0  0  0  0  0  0999 V2000
   -1.1563  120.1271  -14.5663 C   0  0  0  0  0  0  0  0  0  0  0  0
   -0.5925  121.1724  -13.8359 C   0  0  0  0  0  0  0  0  0  0  0  0
   -1.3361  122.3047  -13.5302 C   0  0  0  0  0  0  0  0  0  0  0  0
   -2.6586  122.3927  -13.9598 C   0  0  0  0  0  0  0  0  0  0  0  0
   -3.2277  121.3522  -14.6918 C   0  0  0  0  0  0  0  0  0  0  0  0
   -2.4806  120.2169  -15.0007 C   0  0  0  0  0  0  0  0  0  0  0  0
   -0.6972  123.4290  -12.7072 C   0  0  0  0  0  0  0  0  0  0  0  0
    0.5149  123.2554  -12.0420 C   0  0  0  0  0  0  0  0  0  0  0  0
    1.0596  124.2443  -11.3405 N   0  0  0  0  0  0  0  0  0  0  0  0
    0.4761  125.4269  -11.2466 C   0  0  0  0  0  0  0  0  0  0  0  0
   -0.7292  125.6815  -11.8851 C   0  0  0  0  0  0  0  0  0  0  0  0
   -1.3315  124.6698  -12.6315 C   0  0  0  0  0  0  0  0  0  0  0  0
   -0.2987  118.9003  -14.8937 C   0  0  0  0  0  0  0  0  0  0  0  0
    1.6692  117.6531  -14.3124 C   0  0  0  0  0  0  0  0  0  0  0  0
    1.0264  118.9646  -14.2870 N   0  0  0  0  0  0  0  0  0  0  0  0
    1.6005  119.6291  -14.8059 H   0  0  0  0  0  0  0  0  0  0  0  0
 14 15  1  0  0  0
 11 12  1  0  0  0
 11 10  2  0  0  0
 13 15  1  0  0  0
 13  1  1  0  0  0
 12  7  2  0  0  0
 10  9  1  0  0  0
  2  1  1  0  0  0
  2  3  2  0  0  0
  1  6  2  0  0  0
  7  3  1  0  0  0
  7  8  1  0  0  0
  9  8  2  0  0  0
  3  4  1  0  0  0
  6  5  1  0  0  0
  4  5  2  0  0  0
 15 16  1  0  0  0
M  END
> <minimizedAffinity>
-4.42857

$$$$
4U54_3C5_A_501


 16 17  0  0  0  0  0  0  0  0999 V2000
   -0.6294  124.0379  -12.5651 C   0  0  0  0  0  0  0  0  0  0  0  0
   -0.1319  122.7386  -12.6553 C   0  0  0  0  0  0  0  0  0  0  0  0
   -0.8733  121.7371  -13.2683 C   0  0  0  0  0  0  0  0  0  0  0  0
   -2.1266  122.0384  -13.7972 C   0  0  0  0  0  0  0  0  0  0  0  0
   -2.6305  123.3348  -13.7089 C   0  0  0  0  0  0  0  0  0  0  0  0
   -1.8874  124.3393  -13.0914 C   0  0  0  0  0  0  0  0  0  0  0  0
   -0.2922  120.3226  -13.3723 C   0  0  0  0  0  0  0  0  0  0  0  0
    0.4173  119.8999  -14.4946 C   0  0  0  0  0  0  0  0  0  0  0  0
    0.9227  118.6726  -14.5641 N   0  0  0  0  0  0  0  0  0  0  0  0
    0.7735  117.8077  -13.5755 C   0  0  0  0  0  0  0  0  0  0  0  0
    0.0854  118.1537  -12.4214 C   0  0  0  0  0  0  0  0  0  0  0  0
   -0.4584  119.4324  -12.3103 C   0  0  0  0  0  0  0  0  0  0  0  0
    0.2143  125.1116  -11.8701 C   0  0  0  0  0  0  0  0  0  0  0  0
   -0.9939  126.6941  -10.5276 C   0  0  0  0  0  0  0  0  0  0  0  0
   -0.4416  126.4145  -11.8508 N   0  0  0  0  0  0  0  0  0  0  0  0
    0.2391  127.1358  -12.0889 H   0  0  0  0  0  0  0  0  0  0  0  0
 14 15  1  0  0  0
 11 12  1  0  0  0
 11 10  2  0  0  0
 13 15  1  0  0  0
 13  1  1  0  0  0
 12  7  2  0  0  0
 10  9  1  0  0  0
  2  1  1  0  0  0
  2  3  2  0  0  0
  1  6  2  0  0  0
  7  3  1  0  0  0
  7  8  1  0  0  0
  9  8  2  0  0  0
  3  4  1  0  0  0
  6  5  1  0  0  0
  4  5  2  0  0  0
 15 16  1  0  0  0
M  END
> <minimizedAffinity>
-4.38642

$$$$
4U54_3C5_A_501


 16 17  0  0  0  0  0  0  0  0999 V2000
   -1.0246  124.5951  -12.4641 C   0  0  0  0  0  0  0  0  0  0  0  0
   -1.1460  125.9806  -12.3670 C   0  0  0  0  0  0  0  0  0  0  0  0
   -2.3015  126.6220  -12.7934 C   0  0  0  0  0  0  0  0  0  0  0  0
   -3.3476  125.8693  -13.3229 C   0  0  0  0  0  0  0  0  0  0  0  0
   -3.2320  124.4842  -13.4243 C   0  0  0  0  0  0  0  0  0  0  0  0
   -2.0713  123.8407  -12.9987 C   0  0  0  0  0  0  0  0  0  0  0  0
   -2.4159  128.1443  -12.6548 C   0  0  0  0  0  0  0  0  0  0  0  0
   -2.1101  128.7990  -11.4634 C   0  0  0  0  0  0  0  0  0  0  0  0
   -2.2057  130.1209  -11.3635 N   0  0  0  0  0  0  0  0  0  0  0  0
   -2.5926  130.8642  -12.3861 C   0  0  0  0  0  0  0  0  0  0  0  0
   -2.9088  130.2887  -13.6084 C   0  0  0  0  0  0  0  0  0  0  0  0
   -2.8197  128.9051  -13.7529 C   0  0  0  0  0  0  0  0  0  0  0  0
    0.2715  123.9265  -11.9940 C   0  0  0  0  0  0  0  0  0  0  0  0
   -0.3105  123.6806   -9.6773 C   0  0  0  0  0  0  0  0  0  0  0  0
    0.0512  122.9793  -10.9066 N   0  0  0  0  0  0  0  0  0  0  0  0
   -0.7036  122.3435  -11.1641 H   0  0  0  0  0  0  0  0  0  0  0  0
 14 15  1  0  0  0
 11 12  1  0  0  0
 11 10  2  0  0  0
 13 15  1  0  0  0
 13  1  1  0  0  0
 12  7  2  0  0  0
 10  9  1  0  0  0
  2  1  1  0  0  0
  2  3  2  0  0  0
  1  6  2  0  0  0
  7  3  1  0  0  0
  7  8  1  0  0  0
  9  8  2  0  0  0
  3  4  1  0  0  0
  6  5  1  0  0  0
  4  5  2  0  0  0
 15 16  1  0  0  0
M  END
> <minimizedAffinity>
-4.29284

$$$$
