3T82_SG4_A_300
  RCSB PDB12061710503D
Coordinates from PDB:3T82:A:300 Model:1 without hydrogens
 22 22  0  0  0  0            999 V2000
   17.1480    2.3090   11.7260   C 0  0  0  0  0  0  0  0  0  0  0  0
   18.4300    1.9400   11.4020   O 0  0  0  0  0  0  0  0  0  0  0  0
   16.5330    3.4750   10.9130   C 0  0  0  0  0  0  0  0  0  0  0  0
   16.4290    3.3320    9.5500   O 0  0  0  0  0  0  0  0  0  0  0  0
   16.8610    4.8610   11.4680   C 0  0  0  0  0  0  0  0  0  0  0  0
   16.1600    5.9150   10.8620   O 0  0  0  0  0  0  0  0  0  0  0  0
   17.0120    4.9480   12.9860   C 0  0  0  0  0  0  0  0  0  0  0  0
   17.5530    6.1170   13.5280   O 0  0  0  0  0  0  0  0  0  0  0  0
   17.4140    3.6530   13.7080   C 0  0  0  0  0  0  0  0  0  0  0  0
   16.8020    2.4610   13.1430   O 0  0  0  0  0  0  0  0  0  0  0  0
   17.3250    3.7730   15.2070   C 0  0  0  0  0  0  0  0  0  0  0  0
   16.0160    4.0260   15.6390   O 0  0  0  0  0  0  0  0  0  0  0  0
   16.1620    3.6880   17.9910   O 0  0  0  0  0  0  0  0  0  0  0  0
   15.7670    1.7370   16.5650   N 0  0  0  0  0  0  0  0  0  0  0  0
   15.4650    3.2520   16.7870   S 0  0  0  0  0  0  0  0  0  0  0  0
   14.0320    3.5770   16.8710   O 0  0  0  0  0  0  0  0  0  0  0  0
   15.6090    7.1130   13.8150   O 0  0  0  0  0  0  0  0  0  0  0  0
   16.8720    7.1330   13.8620   C 0  0  0  0  0  0  0  0  0  0  0  0
   16.7280    6.8170   10.1520   C 0  0  0  0  0  0  0  0  0  0  0  0
   17.9620    6.7480    9.9070   O 0  0  0  0  0  0  0  0  0  0  0  0
   17.5920    8.3480   14.3520   C 0  0  0  0  0  0  0  0  0  0  0  0
   15.8970    7.9610    9.6240   C 0  0  0  0  0  0  0  0  0  0  0  0
  1  2  1  0  0  0  0
  1  3  1  0  0  0  0
  1 10  1  0  0  0  0
  3  4  1  0  0  0  0
  3  5  1  0  0  0  0
  5  6  1  0  0  0  0
  5  7  1  0  0  0  0
  6 19  1  0  0  0  0
  7  8  1  0  0  0  0
  7  9  1  0  0  0  0
  8 18  1  0  0  0  0
  9 10  1  0  0  0  0
  9 11  1  0  0  0  0
 11 12  1  0  0  0  0
 12 15  1  0  0  0  0
 13 15  2  0  0  0  0
 14 15  1  0  0  0  0
 15 16  2  0  0  0  0
 17 18  2  0  0  0  0
 18 21  1  0  0  0  0
 19 20  2  0  0  0  0
 19 22  1  0  0  0  0
A    1
C1
A    2
O1
A    3
C2
A    4
O2
A    5
C3
A    6
O3
A    7
C4
A    8
O4
A    9
C5
A   10
O5
A   11
C6
A   12
O6
A   13
OAB
A   14
NAH
A   15
SAI
A   16
OAQ
A   17
OAW
A   18
CAX
A   19
CAY
A   20
OAZ
A   21
CBA
A   22
CBB
M  END
>  <InstanceId>
3T82_SG4_A_300

>  <ChemCompId>
SG4

>  <PdbId>
3T82

>  <ChainId>
A

>  <ResidueNumber>
300

>  <InsertionCode>


>  <Model>
1

>  <AltIds>


>  <MissingHeavyAtoms>
0

>  <ObservedFormula>
C10 N O10 S

>  <Name>
3,4-di-O-acetyl-6-O-sulfamoyl-alpha-D-glucopyranose

>  <SystematicName>
[(2R,3R,4R,5R,6S)-4-acetyloxy-5,6-bis(oxidanyl)-2-(sulfamoyloxymethyl)oxan-3-yl] ethanoate

>  <Synonyms>


>  <Type>
saccharide

>  <Formula>
C10 H17 N O10 S

>  <MolecularWeight>
343.308

>  <ModifiedDate>
2011-10-14

>  <Parent>


>  <OneLetterCode>


>  <SubcomponentList>


>  <AmbiguousFlag>
N

>  <InChI>
InChI=1S/C10H17NO10S/c1-4(12)19-8-6(3-18-22(11,16)17)21-10(15)7(14)9(8)20-5(2)13/h6-10,14-15H,3H2,1-2H3,(H2,11,16,17)/t6-,7-,8-,9-,10+/m1/s1

>  <InChIKey>
XQYNJXXCRGRITM-IGORNWKESA-N

>  <SMILES>
CC(=O)O[C@@H]1[C@H](O[C@@H]([C@@H]([C@H]1OC(=O)C)O)O)COS(=O)(=O)N

$$$$
