3T82_SG4_A_300


 26 26  0  0  0  0  0  0  0  0999 V2000
   17.3743    1.9373   11.7271 C   0  0  0  0  0  0  0  0  0  0  0  0
   18.7137    1.8151   11.4519 O   0  0  0  0  0  0  0  0  0  0  0  0
   16.6019    3.0332   10.9518 C   0  0  0  0  0  0  0  0  0  0  0  0
   16.5833    2.9663    9.5791 O   0  0  0  0  0  0  0  0  0  0  0  0
   16.6598    4.4144   11.6040 C   0  0  0  0  0  0  0  0  0  0  0  0
   16.7277    4.4239   13.1305 C   0  0  0  0  0  0  0  0  0  0  0  0
   17.3169    3.1710   13.7960 C   0  0  0  0  0  0  0  0  0  0  0  0
   16.9463    1.9327   13.1298 O   0  0  0  0  0  0  0  0  0  0  0  0
   19.1786    2.6137   11.7468 H   0  0  0  0  0  0  0  0  0  0  0  0
   17.4578    3.2024    9.2320 H   0  0  0  0  0  0  0  0  0  0  0  0
   15.8133    5.3716   11.0238 O   0  0  0  0  0  0  0  0  0  0  0  0
   16.2443    6.4374   10.4594 C   0  0  0  0  0  0  0  0  0  0  0  0
   15.4356    7.3261   10.0802 O   0  0  0  0  0  0  0  0  0  0  0  0
   17.7300    6.6037   10.2518 C   0  0  0  0  0  0  0  0  0  0  0  0
   17.0335    5.6290   13.7686 O   0  0  0  0  0  0  0  0  0  0  0  0
   14.9779    6.2381   14.2757 O   0  0  0  0  0  0  0  0  0  0  0  0
   16.1846    6.5311   14.0394 C   0  0  0  0  0  0  0  0  0  0  0  0
   16.6472    7.9507   14.1129 C   0  0  0  0  0  0  0  0  0  0  0  0
   17.1438    3.1732   15.2924 C   0  0  0  0  0  0  0  0  0  0  0  0
   15.8665    2.7425   15.6761 O   0  0  0  0  0  0  0  0  0  0  0  0
   13.9397    2.6820   17.0731 O   0  0  0  0  0  0  0  0  0  0  0  0
   15.0753    4.8290   16.7621 N   0  0  0  0  0  0  0  0  0  0  0  0
   15.2575    3.2873   16.9223 S   0  0  0  0  0  0  0  0  0  0  0  0
   16.1387    2.8947   18.0338 O   0  0  0  0  0  0  0  0  0  0  0  0
   14.4546    5.0181   15.9751 H   0  0  0  0  0  0  0  0  0  0  0  0
   15.9826    5.2627   16.5914 H   0  0  0  0  0  0  0  0  0  0  0  0
  1  2  1  0  0  0
  1  3  1  0  0  0
  1  8  1  0  0  0
  3  4  1  0  0  0
  3  5  1  0  0  0
  5 11  1  0  0  0
  5  6  1  0  0  0
 11 12  1  0  0  0
  6 15  1  0  0  0
  6  7  1  0  0  0
 15 17  1  0  0  0
  7  8  1  0  0  0
  7 19  1  0  0  0
 19 20  1  0  0  0
 20 23  1  0  0  0
 21 23  2  0  0  0
 22 23  1  0  0  0
 23 24  2  0  0  0
 16 17  2  0  0  0
 17 18  1  0  0  0
 12 13  2  0  0  0
 12 14  1  0  0  0
  2  9  1  0  0  0
  4 10  1  0  0  0
 22 25  1  0  0  0
 22 26  1  0  0  0
M  END
> <minimizedAffinity>
-7.42921

$$$$
3T82_SG4_A_300


 26 26  0  0  0  0  0  0  0  0999 V2000
   17.1010    3.0155   10.6052 C   0  0  0  0  0  0  0  0  0  0  0  0
   15.9339    2.4248   10.1886 O   0  0  0  0  0  0  0  0  0  0  0  0
   17.4972    2.8043   12.0875 C   0  0  0  0  0  0  0  0  0  0  0  0
   17.6801    1.5172   12.5335 O   0  0  0  0  0  0  0  0  0  0  0  0
   16.8738    3.8168   13.0482 C   0  0  0  0  0  0  0  0  0  0  0  0
   16.6503    5.2178   12.4808 C   0  0  0  0  0  0  0  0  0  0  0  0
   16.4922    5.3202   10.9562 C   0  0  0  0  0  0  0  0  0  0  0  0
   17.3545    4.4082   10.2219 O   0  0  0  0  0  0  0  0  0  0  0  0
   15.1825    2.8379   10.6422 H   0  0  0  0  0  0  0  0  0  0  0  0
   16.8204    1.0730   12.6004 H   0  0  0  0  0  0  0  0  0  0  0  0
   17.3690    3.7604   14.3601 O   0  0  0  0  0  0  0  0  0  0  0  0
   16.7404    3.1951   15.3222 C   0  0  0  0  0  0  0  0  0  0  0  0
   16.7812    1.9431   15.4579 O   0  0  0  0  0  0  0  0  0  0  0  0
   15.9486    4.0519   16.2800 C   0  0  0  0  0  0  0  0  0  0  0  0
   15.8630    6.1081   13.2159 O   0  0  0  0  0  0  0  0  0  0  0  0
   15.5638    7.5172   14.8828 O   0  0  0  0  0  0  0  0  0  0  0  0
   16.3208    6.9554   14.0407 C   0  0  0  0  0  0  0  0  0  0  0  0
   17.7862    7.2504   14.0250 C   0  0  0  0  0  0  0  0  0  0  0  0
   16.4976    6.7450   10.4669 C   0  0  0  0  0  0  0  0  0  0  0  0
   15.2300    7.1595   10.0361 O   0  0  0  0  0  0  0  0  0  0  0  0
   14.4730    9.4000   10.3091 O   0  0  0  0  0  0  0  0  0  0  0  0
   14.1247    8.3182    8.1402 N   0  0  0  0  0  0  0  0  0  0  0  0
   15.0858    8.4792    9.3593 S   0  0  0  0  0  0  0  0  0  0  0  0
   16.4424    8.9265    9.0049 O   0  0  0  0  0  0  0  0  0  0  0  0
   13.2099    8.0073    8.4671 H   0  0  0  0  0  0  0  0  0  0  0  0
   14.5076    7.6279    7.4942 H   0  0  0  0  0  0  0  0  0  0  0  0
  1  2  1  0  0  0
  1  3  1  0  0  0
  1  8  1  0  0  0
  3  4  1  0  0  0
  3  5  1  0  0  0
  5 11  1  0  0  0
  5  6  1  0  0  0
 11 12  1  0  0  0
  6 15  1  0  0  0
  6  7  1  0  0  0
 15 17  1  0  0  0
  7  8  1  0  0  0
  7 19  1  0  0  0
 19 20  1  0  0  0
 20 23  1  0  0  0
 21 23  2  0  0  0
 22 23  1  0  0  0
 23 24  2  0  0  0
 16 17  2  0  0  0
 17 18  1  0  0  0
 12 13  2  0  0  0
 12 14  1  0  0  0
  2  9  1  0  0  0
  4 10  1  0  0  0
 22 25  1  0  0  0
 22 26  1  0  0  0
M  END
> <minimizedAffinity>
-6.95612

$$$$
3T82_SG4_A_300


 26 26  0  0  0  0  0  0  0  0999 V2000
   17.2897    2.9247   10.8026 C   0  0  0  0  0  0  0  0  0  0  0  0
   16.0041    2.8625   10.3252 O   0  0  0  0  0  0  0  0  0  0  0  0
   17.4955    2.5682   12.2957 C   0  0  0  0  0  0  0  0  0  0  0  0
   17.1166    1.3180   12.7228 O   0  0  0  0  0  0  0  0  0  0  0  0
   17.2949    3.7457   13.2496 C   0  0  0  0  0  0  0  0  0  0  0  0
   17.6889    5.1166   12.7017 C   0  0  0  0  0  0  0  0  0  0  0  0
   17.6579    5.2767   11.1742 C   0  0  0  0  0  0  0  0  0  0  0  0
   18.1067    4.0930   10.4586 O   0  0  0  0  0  0  0  0  0  0  0  0
   15.4661    3.5457   10.7550 H   0  0  0  0  0  0  0  0  0  0  0  0
   16.1484    1.2634   12.7443 H   0  0  0  0  0  0  0  0  0  0  0  0
   17.6620    3.4905   14.5798 O   0  0  0  0  0  0  0  0  0  0  0  0
   16.8267    3.1241   15.4789 C   0  0  0  0  0  0  0  0  0  0  0  0
   16.5471    1.9044   15.6260 O   0  0  0  0  0  0  0  0  0  0  0  0
   16.1821    4.1761   16.3483 C   0  0  0  0  0  0  0  0  0  0  0  0
   17.2996    6.2499   13.4209 O   0  0  0  0  0  0  0  0  0  0  0  0
   18.9769    6.3887   14.8425 O   0  0  0  0  0  0  0  0  0  0  0  0
   18.0781    6.9402   14.1454 C   0  0  0  0  0  0  0  0  0  0  0  0
   17.9385    8.4284   14.1304 C   0  0  0  0  0  0  0  0  0  0  0  0
   18.2666    6.5757   10.7146 C   0  0  0  0  0  0  0  0  0  0  0  0
   19.6593    6.5900   10.8710 O   0  0  0  0  0  0  0  0  0  0  0  0
   19.7781    6.9684    8.5237 O   0  0  0  0  0  0  0  0  0  0  0  0
   20.8420    4.9558    9.4255 N   0  0  0  0  0  0  0  0  0  0  0  0
   20.5292    6.4655    9.6676 S   0  0  0  0  0  0  0  0  0  0  0  0
   21.7180    7.2976    9.9136 O   0  0  0  0  0  0  0  0  0  0  0  0
   19.9713    4.4498    9.2636 H   0  0  0  0  0  0  0  0  0  0  0  0
   21.3120    4.5704   10.2446 H   0  0  0  0  0  0  0  0  0  0  0  0
  1  2  1  0  0  0
  1  3  1  0  0  0
  1  8  1  0  0  0
  3  4  1  0  0  0
  3  5  1  0  0  0
  5 11  1  0  0  0
  5  6  1  0  0  0
 11 12  1  0  0  0
  6 15  1  0  0  0
  6  7  1  0  0  0
 15 17  1  0  0  0
  7  8  1  0  0  0
  7 19  1  0  0  0
 19 20  1  0  0  0
 20 23  1  0  0  0
 21 23  2  0  0  0
 22 23  1  0  0  0
 23 24  2  0  0  0
 16 17  2  0  0  0
 17 18  1  0  0  0
 12 13  2  0  0  0
 12 14  1  0  0  0
  2  9  1  0  0  0
  4 10  1  0  0  0
 22 25  1  0  0  0
 22 26  1  0  0  0
M  END
> <minimizedAffinity>
-6.80110

$$$$
3T82_SG4_A_300


 26 26  0  0  0  0  0  0  0  0999 V2000
   18.3526    7.4346   13.5081 C   0  0  0  0  0  0  0  0  0  0  0  0
   17.5475    8.5370   13.3629 O   0  0  0  0  0  0  0  0  0  0  0  0
   19.1061    6.9518   12.2440 C   0  0  0  0  0  0  0  0  0  0  0  0
   19.9678    7.8275   11.6279 O   0  0  0  0  0  0  0  0  0  0  0  0
   18.2971    5.9993   11.3637 C   0  0  0  0  0  0  0  0  0  0  0  0
   17.3209    5.0838   12.1010 C   0  0  0  0  0  0  0  0  0  0  0  0
   16.8134    5.5814   13.4629 C   0  0  0  0  0  0  0  0  0  0  0  0
   17.8269    6.2773   14.2396 O   0  0  0  0  0  0  0  0  0  0  0  0
   16.8060    8.3207   12.7761 H   0  0  0  0  0  0  0  0  0  0  0  0
   19.4584    8.5189   11.1770 H   0  0  0  0  0  0  0  0  0  0  0  0
   19.0255    5.4042   10.3221 O   0  0  0  0  0  0  0  0  0  0  0  0
   20.1561    4.8287   10.4980 C   0  0  0  0  0  0  0  0  0  0  0  0
   21.2252    5.4273   10.2044 O   0  0  0  0  0  0  0  0  0  0  0  0
   20.1823    3.4255   11.0534 C   0  0  0  0  0  0  0  0  0  0  0  0
   16.3820    4.3770   11.3448 O   0  0  0  0  0  0  0  0  0  0  0  0
   16.6682    3.1442    9.5415 O   0  0  0  0  0  0  0  0  0  0  0  0
   16.6017    3.2539   10.7990 C   0  0  0  0  0  0  0  0  0  0  0  0
   16.8206    2.0626   11.6752 C   0  0  0  0  0  0  0  0  0  0  0  0
   16.0381    4.5296   14.2125 C   0  0  0  0  0  0  0  0  0  0  0  0
   16.2936    4.5676   15.5899 O   0  0  0  0  0  0  0  0  0  0  0  0
   16.6740    2.2269   15.3809 O   0  0  0  0  0  0  0  0  0  0  0  0
   16.1415    3.1180   17.5986 N   0  0  0  0  0  0  0  0  0  0  0  0
   16.8906    3.3744   16.2536 S   0  0  0  0  0  0  0  0  0  0  0  0
   18.3291    3.6466   16.4050 O   0  0  0  0  0  0  0  0  0  0  0  0
   15.1554    2.9383   17.4096 H   0  0  0  0  0  0  0  0  0  0  0  0
   16.2288    3.9386   18.1981 H   0  0  0  0  0  0  0  0  0  0  0  0
  1  2  1  0  0  0
  1  3  1  0  0  0
  1  8  1  0  0  0
  3  4  1  0  0  0
  3  5  1  0  0  0
  5 11  1  0  0  0
  5  6  1  0  0  0
 11 12  1  0  0  0
  6 15  1  0  0  0
  6  7  1  0  0  0
 15 17  1  0  0  0
  7  8  1  0  0  0
  7 19  1  0  0  0
 19 20  1  0  0  0
 20 23  1  0  0  0
 21 23  2  0  0  0
 22 23  1  0  0  0
 23 24  2  0  0  0
 16 17  2  0  0  0
 17 18  1  0  0  0
 12 13  2  0  0  0
 12 14  1  0  0  0
  2  9  1  0  0  0
  4 10  1  0  0  0
 22 25  1  0  0  0
 22 26  1  0  0  0
M  END
> <minimizedAffinity>
-6.74443

$$$$
3T82_SG4_A_300


 26 26  0  0  0  0  0  0  0  0999 V2000
   16.8960    2.5819   11.7662 C   0  0  0  0  0  0  0  0  0  0  0  0
   17.5018    1.4841   12.3254 O   0  0  0  0  0  0  0  0  0  0  0  0
   17.6666    3.2983   10.6296 C   0  0  0  0  0  0  0  0  0  0  0  0
   17.9876    2.5743    9.5063 O   0  0  0  0  0  0  0  0  0  0  0  0
   18.6658    4.3461   11.1200 C   0  0  0  0  0  0  0  0  0  0  0  0
   18.2767    5.0844   12.4000 C   0  0  0  0  0  0  0  0  0  0  0  0
   17.3194    4.3481   13.3494 C   0  0  0  0  0  0  0  0  0  0  0  0
   16.2965    3.5792   12.6588 O   0  0  0  0  0  0  0  0  0  0  0  0
   18.3057    1.7611   12.7921 H   0  0  0  0  0  0  0  0  0  0  0  0
   18.6943    1.9447    9.7184 H   0  0  0  0  0  0  0  0  0  0  0  0
   19.2306    5.1356   10.1066 O   0  0  0  0  0  0  0  0  0  0  0  0
   20.4938    5.2868    9.9587 C   0  0  0  0  0  0  0  0  0  0  0  0
   21.2993    4.6143   10.6562 O   0  0  0  0  0  0  0  0  0  0  0  0
   20.9955    6.2856    8.9444 C   0  0  0  0  0  0  0  0  0  0  0  0
   19.2493    5.8640   13.0320 O   0  0  0  0  0  0  0  0  0  0  0  0
   20.6485    7.5421   12.7497 O   0  0  0  0  0  0  0  0  0  0  0  0
   19.4704    7.0844   12.7689 C   0  0  0  0  0  0  0  0  0  0  0  0
   18.3097    7.9681   12.4421 C   0  0  0  0  0  0  0  0  0  0  0  0
   16.8193    5.2274   14.4656 C   0  0  0  0  0  0  0  0  0  0  0  0
   16.1028    4.5024   15.4274 O   0  0  0  0  0  0  0  0  0  0  0  0
   18.2066    3.8642   16.3407 O   0  0  0  0  0  0  0  0  0  0  0  0
   16.7400    2.1044   15.4758 N   0  0  0  0  0  0  0  0  0  0  0  0
   16.8080    3.4668   16.2341 S   0  0  0  0  0  0  0  0  0  0  0  0
   16.1703    3.4530   17.5605 O   0  0  0  0  0  0  0  0  0  0  0  0
   17.2011    2.1958   14.5705 H   0  0  0  0  0  0  0  0  0  0  0  0
   15.7645    1.8417   15.3355 H   0  0  0  0  0  0  0  0  0  0  0  0
  1  2  1  0  0  0
  1  3  1  0  0  0
  1  8  1  0  0  0
  3  4  1  0  0  0
  3  5  1  0  0  0
  5 11  1  0  0  0
  5  6  1  0  0  0
 11 12  1  0  0  0
  6 15  1  0  0  0
  6  7  1  0  0  0
 15 17  1  0  0  0
  7  8  1  0  0  0
  7 19  1  0  0  0
 19 20  1  0  0  0
 20 23  1  0  0  0
 21 23  2  0  0  0
 22 23  1  0  0  0
 23 24  2  0  0  0
 16 17  2  0  0  0
 17 18  1  0  0  0
 12 13  2  0  0  0
 12 14  1  0  0  0
  2  9  1  0  0  0
  4 10  1  0  0  0
 22 25  1  0  0  0
 22 26  1  0  0  0
M  END
> <minimizedAffinity>
-6.73892

$$$$
3T82_SG4_A_300


 26 26  0  0  0  0  0  0  0  0999 V2000
   18.4034    7.0174   14.4284 C   0  0  0  0  0  0  0  0  0  0  0  0
   17.3919    7.9361   14.5604 O   0  0  0  0  0  0  0  0  0  0  0  0
   18.9365    6.7705   12.9954 C   0  0  0  0  0  0  0  0  0  0  0  0
   19.4586    7.8376   12.3042 O   0  0  0  0  0  0  0  0  0  0  0  0
   18.1488    5.7212   12.2111 C   0  0  0  0  0  0  0  0  0  0  0  0
   17.5516    4.5849   13.0399 C   0  0  0  0  0  0  0  0  0  0  0  0
   17.2727    4.8917   14.5191 C   0  0  0  0  0  0  0  0  0  0  0  0
   18.2818    5.7382   15.1353 O   0  0  0  0  0  0  0  0  0  0  0  0
   16.5939    7.6039   14.1202 H   0  0  0  0  0  0  0  0  0  0  0  0
   18.7404    8.4326   12.0375 H   0  0  0  0  0  0  0  0  0  0  0  0
   18.7284    5.3471   10.9889 O   0  0  0  0  0  0  0  0  0  0  0  0
   19.8939    4.8240   10.8975 C   0  0  0  0  0  0  0  0  0  0  0  0
   20.1744    3.7819   11.5478 O   0  0  0  0  0  0  0  0  0  0  0  0
   20.9207    5.4803   10.0070 C   0  0  0  0  0  0  0  0  0  0  0  0
   16.6205    3.7419   12.4273 O   0  0  0  0  0  0  0  0  0  0  0  0
   17.2208    1.6234   12.4971 O   0  0  0  0  0  0  0  0  0  0  0  0
   16.9146    2.6581   11.8388 C   0  0  0  0  0  0  0  0  0  0  0  0
   16.8545    2.6149   10.3457 C   0  0  0  0  0  0  0  0  0  0  0  0
   16.8962    3.6631   15.3053 C   0  0  0  0  0  0  0  0  0  0  0  0
   16.7991    3.9251   16.6787 O   0  0  0  0  0  0  0  0  0  0  0  0
   15.7189    3.9414   18.8001 O   0  0  0  0  0  0  0  0  0  0  0  0
   15.4469    1.9656   17.3794 N   0  0  0  0  0  0  0  0  0  0  0  0
   15.5665    3.5214   17.4123 S   0  0  0  0  0  0  0  0  0  0  0  0
   14.4424    4.2279   16.7772 O   0  0  0  0  0  0  0  0  0  0  0  0
   16.2598    1.5524   17.8366 H   0  0  0  0  0  0  0  0  0  0  0  0
   15.4036    1.6484   16.4110 H   0  0  0  0  0  0  0  0  0  0  0  0
  1  2  1  0  0  0
  1  3  1  0  0  0
  1  8  1  0  0  0
  3  4  1  0  0  0
  3  5  1  0  0  0
  5 11  1  0  0  0
  5  6  1  0  0  0
 11 12  1  0  0  0
  6 15  1  0  0  0
  6  7  1  0  0  0
 15 17  1  0  0  0
  7  8  1  0  0  0
  7 19  1  0  0  0
 19 20  1  0  0  0
 20 23  1  0  0  0
 21 23  2  0  0  0
 22 23  1  0  0  0
 23 24  2  0  0  0
 16 17  2  0  0  0
 17 18  1  0  0  0
 12 13  2  0  0  0
 12 14  1  0  0  0
  2  9  1  0  0  0
  4 10  1  0  0  0
 22 25  1  0  0  0
 22 26  1  0  0  0
M  END
> <minimizedAffinity>
-6.60571

$$$$
3T82_SG4_A_300


 26 26  0  0  0  0  0  0  0  0999 V2000
   16.1790    6.7976   10.7274 C   0  0  0  0  0  0  0  0  0  0  0  0
   15.0862    6.1053   10.2680 O   0  0  0  0  0  0  0  0  0  0  0  0
   17.5221    6.5397   10.0004 C   0  0  0  0  0  0  0  0  0  0  0  0
   17.5918    6.8022    8.6531 O   0  0  0  0  0  0  0  0  0  0  0  0
   18.3017    5.3412   10.5411 C   0  0  0  0  0  0  0  0  0  0  0  0
   18.1468    5.0704   12.0369 C   0  0  0  0  0  0  0  0  0  0  0  0
   16.8542    5.5788   12.6931 C   0  0  0  0  0  0  0  0  0  0  0  0
   16.4074    6.8618   12.1746 O   0  0  0  0  0  0  0  0  0  0  0  0
   15.2094    5.1580   10.4362 H   0  0  0  0  0  0  0  0  0  0  0  0
   17.0894    6.1302    8.1663 H   0  0  0  0  0  0  0  0  0  0  0  0
   19.6008    5.2079   10.0270 O   0  0  0  0  0  0  0  0  0  0  0  0
   20.5259    6.0702   10.2294 C   0  0  0  0  0  0  0  0  0  0  0  0
   20.5864    7.1129    9.5247 O   0  0  0  0  0  0  0  0  0  0  0  0
   21.5401    5.8110   11.3166 C   0  0  0  0  0  0  0  0  0  0  0  0
   18.6249    3.8571   12.5394 O   0  0  0  0  0  0  0  0  0  0  0  0
   17.1743    2.1994   12.5049 O   0  0  0  0  0  0  0  0  0  0  0  0
   18.2621    2.7165   12.1213 C   0  0  0  0  0  0  0  0  0  0  0  0
   19.1294    2.0076   11.1313 C   0  0  0  0  0  0  0  0  0  0  0  0
   16.8832    5.4667   14.1950 C   0  0  0  0  0  0  0  0  0  0  0  0
   16.2313    4.3127   14.6504 O   0  0  0  0  0  0  0  0  0  0  0  0
   18.1424    4.0381   16.0432 O   0  0  0  0  0  0  0  0  0  0  0  0
   16.7885    2.0620   15.5353 N   0  0  0  0  0  0  0  0  0  0  0  0
   16.7692    3.5927   15.8391 S   0  0  0  0  0  0  0  0  0  0  0  0
   15.9256    3.9715   16.9841 O   0  0  0  0  0  0  0  0  0  0  0  0
   17.3919    1.8822   14.7329 H   0  0  0  0  0  0  0  0  0  0  0  0
   15.8418    1.7449   15.3266 H   0  0  0  0  0  0  0  0  0  0  0  0
  1  2  1  0  0  0
  1  3  1  0  0  0
  1  8  1  0  0  0
  3  4  1  0  0  0
  3  5  1  0  0  0
  5 11  1  0  0  0
  5  6  1  0  0  0
 11 12  1  0  0  0
  6 15  1  0  0  0
  6  7  1  0  0  0
 15 17  1  0  0  0
  7  8  1  0  0  0
  7 19  1  0  0  0
 19 20  1  0  0  0
 20 23  1  0  0  0
 21 23  2  0  0  0
 22 23  1  0  0  0
 23 24  2  0  0  0
 16 17  2  0  0  0
 17 18  1  0  0  0
 12 13  2  0  0  0
 12 14  1  0  0  0
  2  9  1  0  0  0
  4 10  1  0  0  0
 22 25  1  0  0  0
 22 26  1  0  0  0
M  END
> <minimizedAffinity>
-6.46780

$$$$
3T82_SG4_A_300


 26 26  0  0  0  0  0  0  0  0999 V2000
   17.6071    2.5460   13.0108 C   0  0  0  0  0  0  0  0  0  0  0  0
   16.6787    1.8888   12.2421 O   0  0  0  0  0  0  0  0  0  0  0  0
   17.2196    2.8232   14.4845 C   0  0  0  0  0  0  0  0  0  0  0  0
   16.9227    1.7502   15.2905 O   0  0  0  0  0  0  0  0  0  0  0  0
   16.4288    4.1156   14.6870 C   0  0  0  0  0  0  0  0  0  0  0  0
   16.7690    5.2572   13.7300 C   0  0  0  0  0  0  0  0  0  0  0  0
   17.3610    4.8557   12.3705 C   0  0  0  0  0  0  0  0  0  0  0  0
   18.2723    3.7250   12.4469 O   0  0  0  0  0  0  0  0  0  0  0  0
   15.8979    2.4525   12.1258 H   0  0  0  0  0  0  0  0  0  0  0  0
   16.0633    1.3810   15.0338 H   0  0  0  0  0  0  0  0  0  0  0  0
   16.2357    4.4795   16.0286 O   0  0  0  0  0  0  0  0  0  0  0  0
   15.5854    3.7580   16.8633 C   0  0  0  0  0  0  0  0  0  0  0  0
   16.2001    3.0030   17.6631 O   0  0  0  0  0  0  0  0  0  0  0  0
   14.0775    3.8237   16.8651 C   0  0  0  0  0  0  0  0  0  0  0  0
   15.9180    6.3652   13.6979 O   0  0  0  0  0  0  0  0  0  0  0  0
   17.0148    8.1237   14.4450 O   0  0  0  0  0  0  0  0  0  0  0  0
   16.0082    7.3599   14.4789 C   0  0  0  0  0  0  0  0  0  0  0  0
   14.8791    7.6372   15.4186 C   0  0  0  0  0  0  0  0  0  0  0  0
   17.8672    6.0381   11.5863 C   0  0  0  0  0  0  0  0  0  0  0  0
   18.4051    5.6590   10.3490 O   0  0  0  0  0  0  0  0  0  0  0  0
   20.2068    6.3300    8.9450 O   0  0  0  0  0  0  0  0  0  0  0  0
   20.3381    4.1365   10.0253 N   0  0  0  0  0  0  0  0  0  0  0  0
   19.8850    5.6221   10.1782 S   0  0  0  0  0  0  0  0  0  0  0  0
   20.4651    6.3147   11.3402 O   0  0  0  0  0  0  0  0  0  0  0  0
   19.8952    3.7291    9.2018 H   0  0  0  0  0  0  0  0  0  0  0  0
   20.0631    3.6102   10.8547 H   0  0  0  0  0  0  0  0  0  0  0  0
  1  2  1  0  0  0
  1  3  1  0  0  0
  1  8  1  0  0  0
  3  4  1  0  0  0
  3  5  1  0  0  0
  5 11  1  0  0  0
  5  6  1  0  0  0
 11 12  1  0  0  0
  6 15  1  0  0  0
  6  7  1  0  0  0
 15 17  1  0  0  0
  7  8  1  0  0  0
  7 19  1  0  0  0
 19 20  1  0  0  0
 20 23  1  0  0  0
 21 23  2  0  0  0
 22 23  1  0  0  0
 23 24  2  0  0  0
 16 17  2  0  0  0
 17 18  1  0  0  0
 12 13  2  0  0  0
 12 14  1  0  0  0
  2  9  1  0  0  0
  4 10  1  0  0  0
 22 25  1  0  0  0
 22 26  1  0  0  0
M  END
> <minimizedAffinity>
-6.43646

$$$$
3T82_SG4_A_300


 26 26  0  0  0  0  0  0  0  0999 V2000
   16.3628    7.5011   13.7302 C   0  0  0  0  0  0  0  0  0  0  0  0
   17.2839    8.2768   14.3893 O   0  0  0  0  0  0  0  0  0  0  0  0
   15.8433    6.2494   14.4799 C   0  0  0  0  0  0  0  0  0  0  0  0
   15.2166    6.4309   15.6896 O   0  0  0  0  0  0  0  0  0  0  0  0
   16.7201    5.0099   14.3028 C   0  0  0  0  0  0  0  0  0  0  0  0
   17.4293    4.8873   12.9549 C   0  0  0  0  0  0  0  0  0  0  0  0
   17.6905    6.1985   12.1985 C   0  0  0  0  0  0  0  0  0  0  0  0
   16.6111    7.1648   12.3245 O   0  0  0  0  0  0  0  0  0  0  0  0
   18.1059    7.7750   14.5046 H   0  0  0  0  0  0  0  0  0  0  0  0
   15.8729    6.6779   16.3599 H   0  0  0  0  0  0  0  0  0  0  0  0
   16.1681    3.8248   14.8132 O   0  0  0  0  0  0  0  0  0  0  0  0
   16.5542    3.2881   15.9101 C   0  0  0  0  0  0  0  0  0  0  0  0
   17.7676    2.9944   16.0801 O   0  0  0  0  0  0  0  0  0  0  0  0
   15.5325    3.0093   16.9855 C   0  0  0  0  0  0  0  0  0  0  0  0
   18.4308    3.9216   12.8233 O   0  0  0  0  0  0  0  0  0  0  0  0
   19.3444    2.5845   11.3295 O   0  0  0  0  0  0  0  0  0  0  0  0
   18.3613    2.9190   12.0502 C   0  0  0  0  0  0  0  0  0  0  0  0
   17.1028    2.1123   12.0353 C   0  0  0  0  0  0  0  0  0  0  0  0
   18.1884    5.9695   10.7953 C   0  0  0  0  0  0  0  0  0  0  0  0
   19.4064    6.6198   10.5552 O   0  0  0  0  0  0  0  0  0  0  0  0
   21.6959    6.6529    9.9035 O   0  0  0  0  0  0  0  0  0  0  0  0
   20.4343    4.5780    9.5890 N   0  0  0  0  0  0  0  0  0  0  0  0
   20.6626    5.8197   10.5065 S   0  0  0  0  0  0  0  0  0  0  0  0
   21.0103    5.4880   11.8976 O   0  0  0  0  0  0  0  0  0  0  0  0
   20.1988    4.8901    8.6469 H   0  0  0  0  0  0  0  0  0  0  0  0
   19.6694    4.0157    9.9621 H   0  0  0  0  0  0  0  0  0  0  0  0
  1  2  1  0  0  0
  1  3  1  0  0  0
  1  8  1  0  0  0
  3  4  1  0  0  0
  3  5  1  0  0  0
  5 11  1  0  0  0
  5  6  1  0  0  0
 11 12  1  0  0  0
  6 15  1  0  0  0
  6  7  1  0  0  0
 15 17  1  0  0  0
  7  8  1  0  0  0
  7 19  1  0  0  0
 19 20  1  0  0  0
 20 23  1  0  0  0
 21 23  2  0  0  0
 22 23  1  0  0  0
 23 24  2  0  0  0
 16 17  2  0  0  0
 17 18  1  0  0  0
 12 13  2  0  0  0
 12 14  1  0  0  0
  2  9  1  0  0  0
  4 10  1  0  0  0
 22 25  1  0  0  0
 22 26  1  0  0  0
M  END
> <minimizedAffinity>
-6.36562

$$$$
3T82_SG4_A_300


 26 26  0  0  0  0  0  0  0  0999 V2000
   15.8560    7.4818   14.1517 C   0  0  0  0  0  0  0  0  0  0  0  0
   16.7170    8.3137   14.8235 O   0  0  0  0  0  0  0  0  0  0  0  0
   15.5222    6.1305   14.8308 C   0  0  0  0  0  0  0  0  0  0  0  0
   14.9441    6.1559   16.0775 O   0  0  0  0  0  0  0  0  0  0  0  0
   16.5231    5.0165   14.5245 C   0  0  0  0  0  0  0  0  0  0  0  0
   17.1690    5.0684   13.1408 C   0  0  0  0  0  0  0  0  0  0  0  0
   17.2396    6.4491   12.4710 C   0  0  0  0  0  0  0  0  0  0  0  0
   16.0658    7.2720   12.7155 O   0  0  0  0  0  0  0  0  0  0  0  0
   17.5955    7.9047   14.8648 H   0  0  0  0  0  0  0  0  0  0  0  0
   15.6028    6.4323   16.7338 H   0  0  0  0  0  0  0  0  0  0  0  0
   16.1368    3.7435   14.9715 O   0  0  0  0  0  0  0  0  0  0  0  0
   16.5797    3.2163   16.0515 C   0  0  0  0  0  0  0  0  0  0  0  0
   17.8099    2.9781   16.1832 O   0  0  0  0  0  0  0  0  0  0  0  0
   15.6043    2.8813   17.1535 C   0  0  0  0  0  0  0  0  0  0  0  0
   18.2651    4.2373   12.8942 O   0  0  0  0  0  0  0  0  0  0  0  0
   17.2892    2.3767   12.2314 O   0  0  0  0  0  0  0  0  0  0  0  0
   18.2332    3.2131   12.1474 C   0  0  0  0  0  0  0  0  0  0  0  0
   19.3169    3.0320   11.1338 C   0  0  0  0  0  0  0  0  0  0  0  0
   17.6850    6.3746   11.0338 C   0  0  0  0  0  0  0  0  0  0  0  0
   17.7151    7.6365   10.4249 O   0  0  0  0  0  0  0  0  0  0  0  0
   16.7570    9.3547    9.0844 O   0  0  0  0  0  0  0  0  0  0  0  0
   15.3811    7.4000    9.6154 N   0  0  0  0  0  0  0  0  0  0  0  0
   16.8150    7.9097    9.2692 S   0  0  0  0  0  0  0  0  0  0  0  0
   17.4205    7.2607    8.0952 O   0  0  0  0  0  0  0  0  0  0  0  0
   15.0330    7.8956   10.4361 H   0  0  0  0  0  0  0  0  0  0  0  0
   15.4140    6.3995    9.8110 H   0  0  0  0  0  0  0  0  0  0  0  0
  1  2  1  0  0  0
  1  3  1  0  0  0
  1  8  1  0  0  0
  3  4  1  0  0  0
  3  5  1  0  0  0
  5 11  1  0  0  0
  5  6  1  0  0  0
 11 12  1  0  0  0
  6 15  1  0  0  0
  6  7  1  0  0  0
 15 17  1  0  0  0
  7  8  1  0  0  0
  7 19  1  0  0  0
 19 20  1  0  0  0
 20 23  1  0  0  0
 21 23  2  0  0  0
 22 23  1  0  0  0
 23 24  2  0  0  0
 16 17  2  0  0  0
 17 18  1  0  0  0
 12 13  2  0  0  0
 12 14  1  0  0  0
  2  9  1  0  0  0
  4 10  1  0  0  0
 22 25  1  0  0  0
 22 26  1  0  0  0
M  END
> <minimizedAffinity>
-6.32492

$$$$
