2BOH_IIA_B_1
  RCSB PDB12061705083D
Coordinates from PDB:2BOH:B:1 Model:1 without hydrogens
 33 37  0  0  0  0            999 V2000
    2.2850    8.5850   25.9480   C 0  0  0  0  0  0  0  0  0  0  0  0
    3.4480    8.9570   25.1150   C 0  0  0  0  0  0  0  0  0  0  0  0
    4.0950    8.0100   24.1680   C 0  0  0  0  0  0  0  0  0  0  0  0
    3.5260    6.6310   24.0990   C 0  0  0  0  0  0  0  0  0  0  0  0
    2.3800    6.2500   24.9270   C 0  0  0  0  0  0  0  0  0  0  0  0
    1.7630    7.2180   25.8440   C 0  0  0  0  0  0  0  0  0  0  0  0
    5.1740    8.0190   23.2350   N 0  0  0  0  0  0  0  0  0  0  0  0
    5.2550    6.7950   22.7150   C 0  0  0  0  0  0  0  0  0  0  0  0
    4.2750    5.9110   23.1780   C 0  0  0  0  0  0  0  0  0  0  0  0
    6.2700    6.3010   21.9400   C 0  0  0  0  0  0  0  0  0  0  0  0
    5.8420    5.3110   21.1840   N 0  0  0  0  0  0  0  0  0  0  0  0
    6.8610    4.4620   20.6990   C 0  0  0  0  0  0  0  0  0  0  0  0
    6.2680    3.0750   20.4830   C 0  0  0  0  0  0  0  0  0  0  0  0
    7.2670    2.0940   19.8740   C 0  0  0  0  0  0  0  0  0  0  0  0
    7.7790    2.6860   18.5870   N 0  0  0  0  0  0  0  0  0  0  0  0
    8.4250    4.0240   18.7440   C 0  0  0  0  0  0  0  0  0  0  0  0
    7.4000    4.9710   19.3650   C 0  0  0  0  0  0  0  0  0  0  0  0
    8.6540    1.7300   17.8630   C 0  0  0  0  0  0  0  0  0  0  0  0
    9.3020    2.3550   16.6420   C 0  0  0  0  0  0  0  0  0  0  0  0
    7.8180    0.5530   17.4320   C 0  0  0  0  0  0  0  0  0  0  0  0
    6.1360    9.0320   22.7490   C 0  0  0  0  0  0  0  0  0  0  0  0
    7.4030    9.1580   23.5570   C 0  0  0  0  0  0  0  0  0  0  0  0
    8.4150    9.9160   23.1230   N 0  0  0  0  0  0  0  0  0  0  0  0
    9.4730    9.7320   24.0210   O 0  0  0  0  0  0  0  0  0  0  0  0
    9.0420    8.8750   24.9910   C 0  0  0  0  0  0  0  0  0  0  0  0
    7.6540    8.5190   24.8410   C 0  0  0  0  0  0  0  0  0  0  0  0
    9.9480    8.2920   25.9640   C 0  0  0  0  0  0  0  0  0  0  0  0
   11.5760    8.4740   25.4560   S 0  0  0  0  0  0  0  0  0  0  0  0
   12.0920    7.6350   26.9240   C 0  0  0  0  0  0  0  0  0  0  0  0
   11.0840    7.2210   27.7070   C 0  0  0  0  0  0  0  0  0  0  0  0
    9.8020    7.5960   27.1140   C 0  0  0  0  0  0  0  0  0  0  0  0
   13.7560    7.4090   27.1440  Cl 0  0  0  0  0  0  0  0  0  0  0  0
    7.4270    6.7250   21.9630   O 0  0  0  0  0  0  0  0  0  0  0  0
  1  2  2  0  0  0  0
  1  6  1  0  0  0  0
  2  3  1  0  0  0  0
  3  4  2  0  0  0  0
  3  7  1  0  0  0  0
  4  5  1  0  0  0  0
  4  9  1  0  0  0  0
  5  6  2  0  0  0  0
  7  8  1  0  0  0  0
  7 21  1  0  0  0  0
  8  9  2  0  0  0  0
  8 10  1  0  0  0  0
 10 11  1  0  0  0  0
 10 33  2  0  0  0  0
 11 12  1  0  0  0  0
 12 13  1  0  0  0  0
 12 17  1  0  0  0  0
 13 14  1  0  0  0  0
 14 15  1  0  0  0  0
 15 16  1  0  0  0  0
 15 18  1  0  0  0  0
 16 17  1  0  0  0  0
 18 19  1  0  0  0  0
 18 20  1  0  0  0  0
 21 22  1  0  0  0  0
 22 23  2  0  0  0  0
 22 26  1  0  0  0  0
 23 24  1  0  0  0  0
 24 25  1  0  0  0  0
 25 26  2  0  0  0  0
 25 27  1  0  0  0  0
 27 28  1  0  0  0  0
 27 31  2  0  0  0  0
 28 29  1  0  0  0  0
 29 30  2  0  0  0  0
 29 32  1  0  0  0  0
 30 31  1  0  0  0  0
A    1
C1
A    2
C2
A    3
C3
A    4
C4
A    5
C5
A    6
C6
A    7
N7
A    8
C8
A    9
C9
A   10
C10
A   11
N11
A   12
C12
A   13
C13
A   14
C14
A   15
N15
A   16
C16
A   17
C17
A   18
C27
A   19
C28
A   20
C32
A   21
C37
A   22
C38
A   23
N41
A   24
O42
A   25
C43
A   26
C44
A   27
C45
A   28
S46
A   29
C47
A   30
C48
A   31
C49
A   32
CL50
A   33
O56
M  END
>  <InstanceId>
2BOH_IIA_B_1

>  <ChemCompId>
IIA

>  <PdbId>
2BOH

>  <ChainId>
B

>  <ResidueNumber>
1

>  <InsertionCode>


>  <Model>
1

>  <AltIds>


>  <MissingHeavyAtoms>
0

>  <ObservedFormula>
C25 N4 O2 S Cl

>  <Name>
1-{[5-(5-CHLORO-2-THIENYL)ISOXAZOL-3-YL]METHYL}-N-(1-ISOPROPYLPIPERIDIN-4-YL)-1H-INDOLE-2-CARBOXAMIDE

>  <SystematicName>
1-[[5-(5-chlorothiophen-2-yl)-1,2-oxazol-3-yl]methyl]-N-(1-propan-2-ylpiperidin-4-yl)indole-2-carboxamide

>  <Synonyms>


>  <Type>
NON-POLYMER

>  <Formula>
C25 H27 Cl N4 O2 S

>  <MolecularWeight>
483.025

>  <ModifiedDate>
2011-06-04

>  <Parent>


>  <OneLetterCode>


>  <SubcomponentList>


>  <AmbiguousFlag>
N

>  <InChI>
InChI=1S/C25H27ClN4O2S/c1-16(2)29-11-9-18(10-12-29)27-25(31)21-13-17-5-3-4-6-20(17)30(21)15-19-14-22(32-28-19)23-7-8-24(26)33-23/h3-8,13-14,16,18H,9-12,15H2,1-2H3,(H,27,31)

>  <InChIKey>
MMGXOGPDBICRQF-UHFFFAOYSA-N

>  <SMILES>
CC(C)N1CCC(CC1)NC(=O)c2cc3ccccc3n2Cc4cc(on4)c5ccc(s5)Cl

$$$$
