4ZVI_4S4_A_401


 27 28  0  0  0  0  0  0  0  0999 V2000
  -12.3279   18.5496   21.8704 C   0  0  0  0  0  0  0  0  0  0  0  0
  -12.9626   17.4600   22.4876 C   0  0  0  0  0  0  0  0  0  0  0  0
  -13.7306   16.5812   21.7422 C   0  0  0  0  0  0  0  0  0  0  0  0
  -13.8655   16.7563   20.3537 C   0  0  0  0  0  0  0  0  0  0  0  0
  -13.2164   17.8344   19.7338 C   0  0  0  0  0  0  0  0  0  0  0  0
  -12.4532   18.7088   20.4844 C   0  0  0  0  0  0  0  0  0  0  0  0
  -11.8820   20.6479   23.1177 C   0  0  0  0  0  0  0  0  0  0  0  0
  -13.0241   21.0694   23.0934 O   0  0  0  0  0  0  0  0  0  0  0  0
  -11.5119   19.4631   22.5541 N   0  0  0  0  0  0  0  0  0  0  0  0
  -10.5614   19.2203   22.6364 H   0  0  0  0  0  0  0  0  0  0  0  0
  -10.8663   21.4540   23.8115 C   0  0  0  0  0  0  0  0  0  0  0  0
  -11.0300   22.6899   24.3966 C   0  0  0  0  0  0  0  0  0  0  0  0
   -9.7983   23.0824   24.9216 C   0  0  0  0  0  0  0  0  0  0  0  0
   -8.8946   22.0985   24.6443 C   0  0  0  0  0  0  0  0  0  0  0  0
   -9.5381   24.7205   25.8329 Br  0  0  0  0  0  0  0  0  0  0  0  0
   -7.0460   22.0290   25.0772 Br  0  0  0  0  0  0  0  0  0  0  0  0
   -9.5430   21.1135   23.9733 N   0  0  0  0  0  0  0  0  0  0  0  0
   -9.1290   20.2806   23.6508 H   0  0  0  0  0  0  0  0  0  0  0  0
  -14.6816   15.8155   19.5585 C   0  0  0  0  0  0  0  0  0  0  0  0
  -15.1989   16.2038   18.5316 O   0  0  0  0  0  0  0  0  0  0  0  0
  -14.8577   14.5380   19.9671 N   0  0  0  0  0  0  0  0  0  0  0  0
  -14.4303   14.2337   20.8002 H   0  0  0  0  0  0  0  0  0  0  0  0
  -15.6778   13.5933   19.1878 C   0  0  0  0  0  0  0  0  0  0  0  0
  -17.1156   13.6101   19.6492 C   0  0  0  0  0  0  0  0  0  0  0  0
  -17.4436   12.9374   20.5981 O   0  0  0  0  0  0  0  0  0  0  0  0
  -18.0340   14.3619   19.0180 O   0  0  0  0  0  0  0  0  0  0  0  0
  -16.8076   12.4115   21.0418 H   0  0  0  0  0  0  0  0  0  0  0  0
 15 13  1  0  0  0
 13 12  1  0  0  0
 13 14  2  0  0  0
 12 11  2  0  0  0
 16 14  1  0  0  0
 14 17  1  0  0  0
 11 17  1  0  0  0
 11  7  1  0  0  0
  9  7  1  0  0  0
  9  1  1  0  0  0
  6  1  2  0  0  0
  6  5  1  0  0  0
  7  8  2  0  0  0
  1  2  1  0  0  0
  5  4  2  0  0  0
 26 24  2  0  0  0
  2  3  2  0  0  0
  4  3  1  0  0  0
  4 19  1  0  0  0
 24 25  1  0  0  0
 24 23  1  0  0  0
 21 19  1  0  0  0
 21 23  1  0  0  0
 19 20  2  0  0  0
  9 10  1  0  0  0
 21 22  1  0  0  0
 25 27  1  0  0  0
 17 18  1  0  0  0
M  END
> <minimizedAffinity>
-8.13920

$$$$
4ZVI_4S4_A_401


 27 28  0  0  0  0  0  0  0  0999 V2000
  -12.2108   18.6186   21.4950 C   0  0  0  0  0  0  0  0  0  0  0  0
  -12.5018   18.7857   20.1318 C   0  0  0  0  0  0  0  0  0  0  0  0
  -13.2832   17.8589   19.4624 C   0  0  0  0  0  0  0  0  0  0  0  0
  -13.8143   16.7507   20.1456 C   0  0  0  0  0  0  0  0  0  0  0  0
  -13.5390   16.5933   21.5121 C   0  0  0  0  0  0  0  0  0  0  0  0
  -12.7564   17.5212   22.1733 C   0  0  0  0  0  0  0  0  0  0  0  0
  -11.8858   20.6696   22.8533 C   0  0  0  0  0  0  0  0  0  0  0  0
  -13.0430   21.0463   22.8154 O   0  0  0  0  0  0  0  0  0  0  0  0
  -11.4521   19.5292   22.2452 N   0  0  0  0  0  0  0  0  0  0  0  0
  -10.4951   19.3204   22.3440 H   0  0  0  0  0  0  0  0  0  0  0  0
  -10.9235   21.4804   23.6146 C   0  0  0  0  0  0  0  0  0  0  0  0
   -9.5868   21.2227   23.8229 C   0  0  0  0  0  0  0  0  0  0  0  0
   -9.0701   22.2497   24.6134 C   0  0  0  0  0  0  0  0  0  0  0  0
  -10.0887   23.1137   24.8921 C   0  0  0  0  0  0  0  0  0  0  0  0
   -7.2580   22.3262   25.1537 Br  0  0  0  0  0  0  0  0  0  0  0  0
  -10.0446   24.7052   25.9286 Br  0  0  0  0  0  0  0  0  0  0  0  0
  -11.2093   22.6468   24.2860 N   0  0  0  0  0  0  0  0  0  0  0  0
  -12.0937   23.0778   24.3213 H   0  0  0  0  0  0  0  0  0  0  0  0
  -14.6516   15.7647   19.4315 C   0  0  0  0  0  0  0  0  0  0  0  0
  -15.1790   16.0838   18.3862 O   0  0  0  0  0  0  0  0  0  0  0  0
  -14.8356   14.5221   19.9338 N   0  0  0  0  0  0  0  0  0  0  0  0
  -14.3998   14.2738   20.7810 H   0  0  0  0  0  0  0  0  0  0  0  0
  -15.6767   13.5333   19.2359 C   0  0  0  0  0  0  0  0  0  0  0  0
  -17.1139   13.6217   19.6909 C   0  0  0  0  0  0  0  0  0  0  0  0
  -17.4682   13.0020   20.6661 O   0  0  0  0  0  0  0  0  0  0  0  0
  -18.0029   14.3792   19.0254 O   0  0  0  0  0  0  0  0  0  0  0  0
  -16.8527   12.4724   21.1337 H   0  0  0  0  0  0  0  0  0  0  0  0
 15 13  1  0  0  0
 13 12  1  0  0  0
 13 14  2  0  0  0
 12 11  2  0  0  0
 16 14  1  0  0  0
 14 17  1  0  0  0
 11 17  1  0  0  0
 11  7  1  0  0  0
  9  7  1  0  0  0
  9  1  1  0  0  0
  6  1  2  0  0  0
  6  5  1  0  0  0
  7  8  2  0  0  0
  1  2  1  0  0  0
  5  4  2  0  0  0
 26 24  2  0  0  0
  2  3  2  0  0  0
  4  3  1  0  0  0
  4 19  1  0  0  0
 24 25  1  0  0  0
 24 23  1  0  0  0
 21 19  1  0  0  0
 21 23  1  0  0  0
 19 20  2  0  0  0
  9 10  1  0  0  0
 21 22  1  0  0  0
 25 27  1  0  0  0
 17 18  1  0  0  0
M  END
> <minimizedAffinity>
-8.05021

$$$$
4ZVI_4S4_A_401


 27 28  0  0  0  0  0  0  0  0999 V2000
  -12.4870   19.5404   22.0315 C   0  0  0  0  0  0  0  0  0  0  0  0
  -13.2321   20.2541   22.9835 C   0  0  0  0  0  0  0  0  0  0  0  0
  -12.6124   21.1719   23.8149 C   0  0  0  0  0  0  0  0  0  0  0  0
  -11.2327   21.4173   23.7002 C   0  0  0  0  0  0  0  0  0  0  0  0
  -10.4913   20.7178   22.7366 C   0  0  0  0  0  0  0  0  0  0  0  0
  -11.1160   19.8015   21.9115 C   0  0  0  0  0  0  0  0  0  0  0  0
  -14.0522   17.7277   21.3821 C   0  0  0  0  0  0  0  0  0  0  0  0
  -14.6060   17.6288   22.4620 O   0  0  0  0  0  0  0  0  0  0  0  0
  -13.0492   18.6178   21.1368 N   0  0  0  0  0  0  0  0  0  0  0  0
  -12.6761   18.6125   20.2258 H   0  0  0  0  0  0  0  0  0  0  0  0
  -14.5123   16.8555   20.2911 C   0  0  0  0  0  0  0  0  0  0  0  0
  -14.2798   17.0036   18.9418 C   0  0  0  0  0  0  0  0  0  0  0  0
  -14.9173   15.9542   18.2790 C   0  0  0  0  0  0  0  0  0  0  0  0
  -15.5412   15.1860   19.2183 C   0  0  0  0  0  0  0  0  0  0  0  0
  -14.8672   15.7366   16.3997 Br  0  0  0  0  0  0  0  0  0  0  0  0
  -16.5866   13.6198   18.9664 Br  0  0  0  0  0  0  0  0  0  0  0  0
  -15.2942   15.7325   20.4353 N   0  0  0  0  0  0  0  0  0  0  0  0
  -15.6247   15.3789   21.2926 H   0  0  0  0  0  0  0  0  0  0  0  0
  -10.5733   22.4000   24.5849 C   0  0  0  0  0  0  0  0  0  0  0  0
   -9.4609   22.1618   25.0077 O   0  0  0  0  0  0  0  0  0  0  0  0
  -11.1981   23.5502   24.9267 N   0  0  0  0  0  0  0  0  0  0  0  0
  -12.0990   23.7339   24.5748 H   0  0  0  0  0  0  0  0  0  0  0  0
  -10.5546   24.5333   25.8165 C   0  0  0  0  0  0  0  0  0  0  0  0
  -11.4224   24.8341   27.0152 C   0  0  0  0  0  0  0  0  0  0  0  0
  -12.6180   24.6750   26.9388 O   0  0  0  0  0  0  0  0  0  0  0  0
  -10.8827   25.2766   28.1640 O   0  0  0  0  0  0  0  0  0  0  0  0
  -12.9996   24.3667   26.1405 H   0  0  0  0  0  0  0  0  0  0  0  0
 15 13  1  0  0  0
 13 12  1  0  0  0
 13 14  2  0  0  0
 12 11  2  0  0  0
 16 14  1  0  0  0
 14 17  1  0  0  0
 11 17  1  0  0  0
 11  7  1  0  0  0
  9  7  1  0  0  0
  9  1  1  0  0  0
  6  1  2  0  0  0
  6  5  1  0  0  0
  7  8  2  0  0  0
  1  2  1  0  0  0
  5  4  2  0  0  0
 26 24  2  0  0  0
  2  3  2  0  0  0
  4  3  1  0  0  0
  4 19  1  0  0  0
 24 25  1  0  0  0
 24 23  1  0  0  0
 21 19  1  0  0  0
 21 23  1  0  0  0
 19 20  2  0  0  0
  9 10  1  0  0  0
 21 22  1  0  0  0
 25 27  1  0  0  0
 17 18  1  0  0  0
M  END
> <minimizedAffinity>
-7.36057

$$$$
4ZVI_4S4_A_401


 27 28  0  0  0  0  0  0  0  0999 V2000
  -12.3104   19.8470   22.2167 C   0  0  0  0  0  0  0  0  0  0  0  0
  -12.9977   20.5444   23.2228 C   0  0  0  0  0  0  0  0  0  0  0  0
  -12.3188   21.4053   24.0688 C   0  0  0  0  0  0  0  0  0  0  0  0
  -10.9361   21.6091   23.9158 C   0  0  0  0  0  0  0  0  0  0  0  0
  -10.2523   20.9264   22.8989 C   0  0  0  0  0  0  0  0  0  0  0  0
  -10.9360   20.0670   22.0595 C   0  0  0  0  0  0  0  0  0  0  0  0
  -13.4000   17.7227   21.5403 C   0  0  0  0  0  0  0  0  0  0  0  0
  -13.3266   17.1769   22.6263 O   0  0  0  0  0  0  0  0  0  0  0  0
  -12.9342   18.9822   21.3054 N   0  0  0  0  0  0  0  0  0  0  0  0
  -13.0491   19.3246   20.3895 H   0  0  0  0  0  0  0  0  0  0  0  0
  -14.0452   16.9862   20.4430 C   0  0  0  0  0  0  0  0  0  0  0  0
  -13.9717   17.2536   19.0940 C   0  0  0  0  0  0  0  0  0  0  0  0
  -14.7511   16.3083   18.4264 C   0  0  0  0  0  0  0  0  0  0  0  0
  -15.3020   15.4849   19.3645 C   0  0  0  0  0  0  0  0  0  0  0  0
  -14.9466   16.2735   16.5443 Br  0  0  0  0  0  0  0  0  0  0  0  0
  -16.4676   14.0067   19.1083 Br  0  0  0  0  0  0  0  0  0  0  0  0
  -14.8729   15.8962   20.5842 N   0  0  0  0  0  0  0  0  0  0  0  0
  -15.1171   15.4778   21.4412 H   0  0  0  0  0  0  0  0  0  0  0  0
  -10.2134   22.5312   24.8162 C   0  0  0  0  0  0  0  0  0  0  0  0
  -10.7866   22.9792   25.7876 O   0  0  0  0  0  0  0  0  0  0  0  0
   -8.9307   22.8792   24.5639 N   0  0  0  0  0  0  0  0  0  0  0  0
   -8.4751   22.5066   23.7747 H   0  0  0  0  0  0  0  0  0  0  0  0
   -8.2027   23.8059   25.4491 C   0  0  0  0  0  0  0  0  0  0  0  0
   -7.0759   23.1023   26.1672 C   0  0  0  0  0  0  0  0  0  0  0  0
   -7.2702   22.6349   27.2646 O   0  0  0  0  0  0  0  0  0  0  0  0
   -5.8613   22.9904   25.6023 O   0  0  0  0  0  0  0  0  0  0  0  0
   -8.1149   22.7101   27.6630 H   0  0  0  0  0  0  0  0  0  0  0  0
 15 13  1  0  0  0
 13 12  1  0  0  0
 13 14  2  0  0  0
 12 11  2  0  0  0
 16 14  1  0  0  0
 14 17  1  0  0  0
 11 17  1  0  0  0
 11  7  1  0  0  0
  9  7  1  0  0  0
  9  1  1  0  0  0
  6  1  2  0  0  0
  6  5  1  0  0  0
  7  8  2  0  0  0
  1  2  1  0  0  0
  5  4  2  0  0  0
 26 24  2  0  0  0
  2  3  2  0  0  0
  4  3  1  0  0  0
  4 19  1  0  0  0
 24 25  1  0  0  0
 24 23  1  0  0  0
 21 19  1  0  0  0
 21 23  1  0  0  0
 19 20  2  0  0  0
  9 10  1  0  0  0
 21 22  1  0  0  0
 25 27  1  0  0  0
 17 18  1  0  0  0
M  END
> <minimizedAffinity>
-6.98595

$$$$
4ZVI_4S4_A_401


 27 28  0  0  0  0  0  0  0  0999 V2000
  -12.5312   20.5006   22.3264 C   0  0  0  0  0  0  0  0  0  0  0  0
  -11.5498   21.4023   21.8853 C   0  0  0  0  0  0  0  0  0  0  0  0
  -10.9612   22.2879   22.7724 C   0  0  0  0  0  0  0  0  0  0  0  0
  -11.3227   22.2792   24.1311 C   0  0  0  0  0  0  0  0  0  0  0  0
  -12.2899   21.3657   24.5758 C   0  0  0  0  0  0  0  0  0  0  0  0
  -12.8749   20.4862   23.6843 C   0  0  0  0  0  0  0  0  0  0  0  0
  -12.7202   18.2949   21.2054 C   0  0  0  0  0  0  0  0  0  0  0  0
  -11.6982   17.8178   21.6644 O   0  0  0  0  0  0  0  0  0  0  0  0
  -13.1497   19.5562   21.4938 N   0  0  0  0  0  0  0  0  0  0  0  0
  -13.9919   19.8369   21.0682 H   0  0  0  0  0  0  0  0  0  0  0  0
  -13.5338   17.4518   20.3167 C   0  0  0  0  0  0  0  0  0  0  0  0
  -14.3292   16.3837   20.6675 C   0  0  0  0  0  0  0  0  0  0  0  0
  -14.9014   15.8738   19.5016 C   0  0  0  0  0  0  0  0  0  0  0  0
  -14.4452   16.6186   18.4534 C   0  0  0  0  0  0  0  0  0  0  0  0
  -16.0841   14.3964   19.4914 Br  0  0  0  0  0  0  0  0  0  0  0  0
  -14.8385   16.4306   16.6043 Br  0  0  0  0  0  0  0  0  0  0  0  0
  -13.6184   17.5736   18.9488 N   0  0  0  0  0  0  0  0  0  0  0  0
  -13.1496   18.2516   18.4105 H   0  0  0  0  0  0  0  0  0  0  0  0
  -10.6908   23.2215   25.0777 C   0  0  0  0  0  0  0  0  0  0  0  0
   -9.6404   22.9162   25.6033 O   0  0  0  0  0  0  0  0  0  0  0  0
  -11.2732   24.4089   25.3627 N   0  0  0  0  0  0  0  0  0  0  0  0
  -12.1236   24.6469   24.9275 H   0  0  0  0  0  0  0  0  0  0  0  0
  -10.6577   25.3526   26.3129 C   0  0  0  0  0  0  0  0  0  0  0  0
  -11.5570   25.5939   27.5017 C   0  0  0  0  0  0  0  0  0  0  0  0
  -11.8191   24.6776   28.2448 O   0  0  0  0  0  0  0  0  0  0  0  0
  -12.0695   26.8130   27.7429 O   0  0  0  0  0  0  0  0  0  0  0  0
  -11.4646   23.8257   28.0814 H   0  0  0  0  0  0  0  0  0  0  0  0
 15 13  1  0  0  0
 13 12  1  0  0  0
 13 14  2  0  0  0
 12 11  2  0  0  0
 16 14  1  0  0  0
 14 17  1  0  0  0
 11 17  1  0  0  0
 11  7  1  0  0  0
  9  7  1  0  0  0
  9  1  1  0  0  0
  6  1  2  0  0  0
  6  5  1  0  0  0
  7  8  2  0  0  0
  1  2  1  0  0  0
  5  4  2  0  0  0
 26 24  2  0  0  0
  2  3  2  0  0  0
  4  3  1  0  0  0
  4 19  1  0  0  0
 24 25  1  0  0  0
 24 23  1  0  0  0
 21 19  1  0  0  0
 21 23  1  0  0  0
 19 20  2  0  0  0
  9 10  1  0  0  0
 21 22  1  0  0  0
 25 27  1  0  0  0
 17 18  1  0  0  0
M  END
> <minimizedAffinity>
-6.71478

$$$$
4ZVI_4S4_A_401


 27 28  0  0  0  0  0  0  0  0999 V2000
  -10.8848   23.3155   20.5900 C   0  0  0  0  0  0  0  0  0  0  0  0
  -10.6999   22.9424   21.9307 C   0  0  0  0  0  0  0  0  0  0  0  0
  -11.1772   21.7274   22.3930 C   0  0  0  0  0  0  0  0  0  0  0  0
  -11.8329   20.8421   21.5195 C   0  0  0  0  0  0  0  0  0  0  0  0
  -12.0016   21.2067   20.1755 C   0  0  0  0  0  0  0  0  0  0  0  0
  -11.5245   22.4219   19.7215 C   0  0  0  0  0  0  0  0  0  0  0  0
  -11.1288   25.5085   19.4548 C   0  0  0  0  0  0  0  0  0  0  0  0
  -12.3396   25.4676   19.3323 O   0  0  0  0  0  0  0  0  0  0  0  0
  -10.4046   24.5149   20.0436 N   0  0  0  0  0  0  0  0  0  0  0  0
   -9.4313   24.6554   20.0908 H   0  0  0  0  0  0  0  0  0  0  0  0
  -10.4278   26.7031   18.9606 C   0  0  0  0  0  0  0  0  0  0  0  0
  -10.3500   27.9403   19.5606 C   0  0  0  0  0  0  0  0  0  0  0  0
   -9.5976   28.7726   18.7313 C   0  0  0  0  0  0  0  0  0  0  0  0
   -9.2352   28.0489   17.6328 C   0  0  0  0  0  0  0  0  0  0  0  0
   -9.2153   30.5779   19.1513 Br  0  0  0  0  0  0  0  0  0  0  0  0
   -8.2148   28.6045   16.1297 Br  0  0  0  0  0  0  0  0  0  0  0  0
   -9.7378   26.7966   17.7739 N   0  0  0  0  0  0  0  0  0  0  0  0
   -9.6256   26.0649   17.1249 H   0  0  0  0  0  0  0  0  0  0  0  0
  -12.3380   19.5440   22.0128 C   0  0  0  0  0  0  0  0  0  0  0  0
  -11.5458   18.6641   22.2790 O   0  0  0  0  0  0  0  0  0  0  0  0
  -13.6655   19.3314   22.1633 N   0  0  0  0  0  0  0  0  0  0  0  0
  -14.2982   20.0541   21.9473 H   0  0  0  0  0  0  0  0  0  0  0  0
  -14.1817   18.0376   22.6448 C   0  0  0  0  0  0  0  0  0  0  0  0
  -14.8204   18.1778   24.0060 C   0  0  0  0  0  0  0  0  0  0  0  0
  -14.3832   18.9894   24.7874 O   0  0  0  0  0  0  0  0  0  0  0  0
  -15.8670   17.4116   24.3591 O   0  0  0  0  0  0  0  0  0  0  0  0
  -13.6539   19.5261   24.5465 H   0  0  0  0  0  0  0  0  0  0  0  0
 15 13  1  0  0  0
 13 12  1  0  0  0
 13 14  2  0  0  0
 12 11  2  0  0  0
 16 14  1  0  0  0
 14 17  1  0  0  0
 11 17  1  0  0  0
 11  7  1  0  0  0
  9  7  1  0  0  0
  9  1  1  0  0  0
  6  1  2  0  0  0
  6  5  1  0  0  0
  7  8  2  0  0  0
  1  2  1  0  0  0
  5  4  2  0  0  0
 26 24  2  0  0  0
  2  3  2  0  0  0
  4  3  1  0  0  0
  4 19  1  0  0  0
 24 25  1  0  0  0
 24 23  1  0  0  0
 21 19  1  0  0  0
 21 23  1  0  0  0
 19 20  2  0  0  0
  9 10  1  0  0  0
 21 22  1  0  0  0
 25 27  1  0  0  0
 17 18  1  0  0  0
M  END
> <minimizedAffinity>
-6.61018

$$$$
4ZVI_4S4_A_401


 27 28  0  0  0  0  0  0  0  0999 V2000
  -12.3699   20.5594   22.4685 C   0  0  0  0  0  0  0  0  0  0  0  0
  -11.3191   21.4082   22.0859 C   0  0  0  0  0  0  0  0  0  0  0  0
  -10.7763   22.3047   22.9911 C   0  0  0  0  0  0  0  0  0  0  0  0
  -11.2556   22.3599   24.3117 C   0  0  0  0  0  0  0  0  0  0  0  0
  -12.2930   21.4990   24.6995 C   0  0  0  0  0  0  0  0  0  0  0  0
  -12.8315   20.6083   23.7901 C   0  0  0  0  0  0  0  0  0  0  0  0
  -12.6209   18.2896   21.4978 C   0  0  0  0  0  0  0  0  0  0  0  0
  -11.7425   17.7599   22.1540 O   0  0  0  0  0  0  0  0  0  0  0  0
  -12.9494   19.6073   21.6169 N   0  0  0  0  0  0  0  0  0  0  0  0
  -13.6782   19.9279   21.0379 H   0  0  0  0  0  0  0  0  0  0  0  0
  -13.3721   17.4515   20.5511 C   0  0  0  0  0  0  0  0  0  0  0  0
  -13.9380   16.2182   20.7864 C   0  0  0  0  0  0  0  0  0  0  0  0
  -14.5368   15.7881   19.6019 C   0  0  0  0  0  0  0  0  0  0  0  0
  -14.3229   16.7468   18.6549 C   0  0  0  0  0  0  0  0  0  0  0  0
  -15.4524   14.1391   19.4463 Br  0  0  0  0  0  0  0  0  0  0  0  0
  -14.8713   16.7610   16.8360 Br  0  0  0  0  0  0  0  0  0  0  0  0
  -13.6187   17.7530   19.2315 N   0  0  0  0  0  0  0  0  0  0  0  0
  -13.3279   18.5751   18.7745 H   0  0  0  0  0  0  0  0  0  0  0  0
  -10.6728   23.3137   25.2780 C   0  0  0  0  0  0  0  0  0  0  0  0
  -11.3504   23.7029   26.2065 O   0  0  0  0  0  0  0  0  0  0  0  0
   -9.4023   23.7551   25.1324 N   0  0  0  0  0  0  0  0  0  0  0  0
   -8.8612   23.4296   24.3770 H   0  0  0  0  0  0  0  0  0  0  0  0
   -8.8134   24.7143   26.0839 C   0  0  0  0  0  0  0  0  0  0  0  0
   -7.6121   24.1225   26.7818 C   0  0  0  0  0  0  0  0  0  0  0  0
   -6.7950   24.8570   27.2851 O   0  0  0  0  0  0  0  0  0  0  0  0
   -7.4400   22.7910   26.8492 O   0  0  0  0  0  0  0  0  0  0  0  0
   -6.9099   25.7859   27.2410 H   0  0  0  0  0  0  0  0  0  0  0  0
 15 13  1  0  0  0
 13 12  1  0  0  0
 13 14  2  0  0  0
 12 11  2  0  0  0
 16 14  1  0  0  0
 14 17  1  0  0  0
 11 17  1  0  0  0
 11  7  1  0  0  0
  9  7  1  0  0  0
  9  1  1  0  0  0
  6  1  2  0  0  0
  6  5  1  0  0  0
  7  8  2  0  0  0
  1  2  1  0  0  0
  5  4  2  0  0  0
 26 24  2  0  0  0
  2  3  2  0  0  0
  4  3  1  0  0  0
  4 19  1  0  0  0
 24 25  1  0  0  0
 24 23  1  0  0  0
 21 19  1  0  0  0
 21 23  1  0  0  0
 19 20  2  0  0  0
  9 10  1  0  0  0
 21 22  1  0  0  0
 25 27  1  0  0  0
 17 18  1  0  0  0
M  END
> <minimizedAffinity>
-6.56182

$$$$
4ZVI_4S4_A_401


 27 28  0  0  0  0  0  0  0  0999 V2000
  -11.5564   20.1743   21.5612 C   0  0  0  0  0  0  0  0  0  0  0  0
  -12.0915   18.9396   21.9616 C   0  0  0  0  0  0  0  0  0  0  0  0
  -12.7705   18.1423   21.0555 C   0  0  0  0  0  0  0  0  0  0  0  0
  -12.9125   18.5491   19.7171 C   0  0  0  0  0  0  0  0  0  0  0  0
  -12.3620   19.7742   19.3124 C   0  0  0  0  0  0  0  0  0  0  0  0
  -11.6874   20.5659   20.2227 C   0  0  0  0  0  0  0  0  0  0  0  0
  -11.2633   21.6033   23.5686 C   0  0  0  0  0  0  0  0  0  0  0  0
  -12.3840   21.4442   24.0173 O   0  0  0  0  0  0  0  0  0  0  0  0
  -10.8325   21.0209   22.4137 N   0  0  0  0  0  0  0  0  0  0  0  0
   -9.9054   21.2173   22.1471 H   0  0  0  0  0  0  0  0  0  0  0  0
  -10.3313   22.4481   24.3304 C   0  0  0  0  0  0  0  0  0  0  0  0
   -8.9786   22.2593   24.5073 C   0  0  0  0  0  0  0  0  0  0  0  0
   -8.5027   23.2950   25.3119 C   0  0  0  0  0  0  0  0  0  0  0  0
   -9.5608   24.0954   25.6302 C   0  0  0  0  0  0  0  0  0  0  0  0
   -6.6868   23.4583   25.8196 Br  0  0  0  0  0  0  0  0  0  0  0  0
   -9.5823   25.6631   26.7030 Br  0  0  0  0  0  0  0  0  0  0  0  0
  -10.6664   23.5817   25.0345 N   0  0  0  0  0  0  0  0  0  0  0  0
  -11.5720   23.9627   25.0968 H   0  0  0  0  0  0  0  0  0  0  0  0
  -13.6333   17.6956   18.7501 C   0  0  0  0  0  0  0  0  0  0  0  0
  -13.4420   17.8562   17.5625 O   0  0  0  0  0  0  0  0  0  0  0  0
  -14.5004   16.7487   19.1766 N   0  0  0  0  0  0  0  0  0  0  0  0
  -14.6447   16.6255   20.1426 H   0  0  0  0  0  0  0  0  0  0  0  0
  -15.2328   15.8983   18.2213 C   0  0  0  0  0  0  0  0  0  0  0  0
  -15.5481   14.5494   18.8225 C   0  0  0  0  0  0  0  0  0  0  0  0
  -14.6437   13.8096   19.1311 O   0  0  0  0  0  0  0  0  0  0  0  0
  -16.8203   14.1615   19.0177 O   0  0  0  0  0  0  0  0  0  0  0  0
  -13.7550   14.0750   18.9973 H   0  0  0  0  0  0  0  0  0  0  0  0
 15 13  1  0  0  0
 13 12  1  0  0  0
 13 14  2  0  0  0
 12 11  2  0  0  0
 16 14  1  0  0  0
 14 17  1  0  0  0
 11 17  1  0  0  0
 11  7  1  0  0  0
  9  7  1  0  0  0
  9  1  1  0  0  0
  6  1  2  0  0  0
  6  5  1  0  0  0
  7  8  2  0  0  0
  1  2  1  0  0  0
  5  4  2  0  0  0
 26 24  2  0  0  0
  2  3  2  0  0  0
  4  3  1  0  0  0
  4 19  1  0  0  0
 24 25  1  0  0  0
 24 23  1  0  0  0
 21 19  1  0  0  0
 21 23  1  0  0  0
 19 20  2  0  0  0
  9 10  1  0  0  0
 21 22  1  0  0  0
 25 27  1  0  0  0
 17 18  1  0  0  0
M  END
> <minimizedAffinity>
-6.13699

$$$$
4ZVI_4S4_A_401


 27 28  0  0  0  0  0  0  0  0999 V2000
  -11.9848   21.1164   20.2558 C   0  0  0  0  0  0  0  0  0  0  0  0
  -12.4243   20.6345   21.4990 C   0  0  0  0  0  0  0  0  0  0  0  0
  -12.9138   19.3446   21.6182 C   0  0  0  0  0  0  0  0  0  0  0  0
  -12.9552   18.4935   20.4999 C   0  0  0  0  0  0  0  0  0  0  0  0
  -12.4989   18.9686   19.2614 C   0  0  0  0  0  0  0  0  0  0  0  0
  -12.0136   20.2580   19.1493 C   0  0  0  0  0  0  0  0  0  0  0  0
  -10.1766   22.8147   20.3155 C   0  0  0  0  0  0  0  0  0  0  0  0
   -9.3107   22.0804   20.7554 O   0  0  0  0  0  0  0  0  0  0  0  0
  -11.4504   22.3991   20.0642 N   0  0  0  0  0  0  0  0  0  0  0  0
  -12.0670   23.0782   19.7065 H   0  0  0  0  0  0  0  0  0  0  0  0
   -9.8123   24.2093   20.0234 C   0  0  0  0  0  0  0  0  0  0  0  0
  -10.5729   25.3381   20.2328 C   0  0  0  0  0  0  0  0  0  0  0  0
   -9.8359   26.4391   19.7955 C   0  0  0  0  0  0  0  0  0  0  0  0
   -8.6454   25.9787   19.3133 C   0  0  0  0  0  0  0  0  0  0  0  0
  -10.4774   28.2169   19.8931 Br  0  0  0  0  0  0  0  0  0  0  0  0
   -7.2064   26.9675   18.5644 Br  0  0  0  0  0  0  0  0  0  0  0  0
   -8.6327   24.6292   19.4530 N   0  0  0  0  0  0  0  0  0  0  0  0
   -7.8911   24.0391   19.1863 H   0  0  0  0  0  0  0  0  0  0  0  0
  -13.4736   17.1159   20.6290 C   0  0  0  0  0  0  0  0  0  0  0  0
  -13.2687   16.5010   21.6550 O   0  0  0  0  0  0  0  0  0  0  0  0
  -14.1642   16.5401   19.6182 N   0  0  0  0  0  0  0  0  0  0  0  0
  -14.3269   17.0501   18.7920 H   0  0  0  0  0  0  0  0  0  0  0  0
  -14.6774   15.1631   19.7314 C   0  0  0  0  0  0  0  0  0  0  0  0
  -15.5438   14.8050   18.5476 C   0  0  0  0  0  0  0  0  0  0  0  0
  -15.2401   15.2007   17.4469 O   0  0  0  0  0  0  0  0  0  0  0  0
  -16.6475   14.0534   18.7028 O   0  0  0  0  0  0  0  0  0  0  0  0
  -14.4718   15.7250   17.3330 H   0  0  0  0  0  0  0  0  0  0  0  0
 15 13  1  0  0  0
 13 12  1  0  0  0
 13 14  2  0  0  0
 12 11  2  0  0  0
 16 14  1  0  0  0
 14 17  1  0  0  0
 11 17  1  0  0  0
 11  7  1  0  0  0
  9  7  1  0  0  0
  9  1  1  0  0  0
  6  1  2  0  0  0
  6  5  1  0  0  0
  7  8  2  0  0  0
  1  2  1  0  0  0
  5  4  2  0  0  0
 26 24  2  0  0  0
  2  3  2  0  0  0
  4  3  1  0  0  0
  4 19  1  0  0  0
 24 25  1  0  0  0
 24 23  1  0  0  0
 21 19  1  0  0  0
 21 23  1  0  0  0
 19 20  2  0  0  0
  9 10  1  0  0  0
 21 22  1  0  0  0
 25 27  1  0  0  0
 17 18  1  0  0  0
M  END
> <minimizedAffinity>
-6.00679

$$$$
4ZVI_4S4_A_401


 27 28  0  0  0  0  0  0  0  0999 V2000
  -10.9938   23.0362   20.4938 C   0  0  0  0  0  0  0  0  0  0  0  0
  -10.9464   22.5893   21.8238 C   0  0  0  0  0  0  0  0  0  0  0  0
  -11.3840   21.3172   22.1525 C   0  0  0  0  0  0  0  0  0  0  0  0
  -11.8598   20.4488   21.1544 C   0  0  0  0  0  0  0  0  0  0  0  0
  -11.8900   20.8885   19.8227 C   0  0  0  0  0  0  0  0  0  0  0  0
  -11.4537   22.1603   19.5022 C   0  0  0  0  0  0  0  0  0  0  0  0
  -11.2804   25.3107   19.5443 C   0  0  0  0  0  0  0  0  0  0  0  0
  -12.4805   25.2317   19.3541 O   0  0  0  0  0  0  0  0  0  0  0  0
  -10.5420   24.2985   20.0814 N   0  0  0  0  0  0  0  0  0  0  0  0
   -9.5796   24.4737   20.1927 H   0  0  0  0  0  0  0  0  0  0  0  0
  -10.6106   26.5726   19.1951 C   0  0  0  0  0  0  0  0  0  0  0  0
   -9.5862   26.7589   18.2937 C   0  0  0  0  0  0  0  0  0  0  0  0
   -9.2543   28.1140   18.2957 C   0  0  0  0  0  0  0  0  0  0  0  0
  -10.0616   28.7394   19.2006 C   0  0  0  0  0  0  0  0  0  0  0  0
   -7.8967   28.8472   17.1998 Br  0  0  0  0  0  0  0  0  0  0  0  0
  -10.1044   30.5768   19.6817 Br  0  0  0  0  0  0  0  0  0  0  0  0
  -10.8823   27.8050   19.7431 N   0  0  0  0  0  0  0  0  0  0  0  0
  -11.5689   27.9822   20.4261 H   0  0  0  0  0  0  0  0  0  0  0  0
  -12.3223   19.0901   21.5055 C   0  0  0  0  0  0  0  0  0  0  0  0
  -11.5346   18.3043   21.9902 O   0  0  0  0  0  0  0  0  0  0  0  0
  -13.6049   18.7192   21.2876 N   0  0  0  0  0  0  0  0  0  0  0  0
  -14.2355   19.3665   20.8970 H   0  0  0  0  0  0  0  0  0  0  0  0
  -14.0754   17.3636   21.6242 C   0  0  0  0  0  0  0  0  0  0  0  0
  -14.3774   16.5660   20.3780 C   0  0  0  0  0  0  0  0  0  0  0  0
  -14.8893   17.1143   19.4305 O   0  0  0  0  0  0  0  0  0  0  0  0
  -14.0853   15.2556   20.3100 O   0  0  0  0  0  0  0  0  0  0  0  0
  -15.0951   18.0274   19.4725 H   0  0  0  0  0  0  0  0  0  0  0  0
 15 13  1  0  0  0
 13 12  1  0  0  0
 13 14  2  0  0  0
 12 11  2  0  0  0
 16 14  1  0  0  0
 14 17  1  0  0  0
 11 17  1  0  0  0
 11  7  1  0  0  0
  9  7  1  0  0  0
  9  1  1  0  0  0
  6  1  2  0  0  0
  6  5  1  0  0  0
  7  8  2  0  0  0
  1  2  1  0  0  0
  5  4  2  0  0  0
 26 24  2  0  0  0
  2  3  2  0  0  0
  4  3  1  0  0  0
  4 19  1  0  0  0
 24 25  1  0  0  0
 24 23  1  0  0  0
 21 19  1  0  0  0
 21 23  1  0  0  0
 19 20  2  0  0  0
  9 10  1  0  0  0
 21 22  1  0  0  0
 25 27  1  0  0  0
 17 18  1  0  0  0
M  END
> <minimizedAffinity>
-5.64452

$$$$
