2OLE_KR2_A_1001


 32 34  0  0  0  0  0  0  0  0999 V2000
   -5.2715    1.4502   -5.3782 C   0  0  0  0  0  0  0  0  0  0  0  0
   -3.9928    1.6149   -6.0024 O   0  0  0  0  0  0  0  0  0  0  0  0
   -6.0353    2.7092   -5.3624 N   0  0  0  0  0  0  0  0  0  0  0  0
   -7.1859    2.5919   -6.2735 C   0  0  0  0  0  0  0  0  0  0  0  0
   -7.3935    3.7940   -7.1974 C   0  0  0  0  0  0  0  0  0  0  0  0
   -6.3515    3.8827   -8.3150 C   0  0  0  0  0  0  0  0  0  0  0  0
   -5.0659    4.5971   -7.8847 C   0  0  0  0  0  0  0  0  0  0  0  0
   -4.3094    3.8658   -6.7698 C   0  0  0  0  0  0  0  0  0  0  0  0
   -5.1684    3.7355   -5.5804 N   0  0  0  0  0  0  0  0  0  0  0  0
   -5.3478    4.7681   -4.7645 C   0  0  0  0  0  0  0  0  0  0  0  0
   -6.4253    4.8985   -3.9488 O   0  0  0  0  0  0  0  0  0  0  0  0
   -3.8431    1.4871   -3.2869 C   0  0  0  0  0  0  0  0  0  0  0  0
   -3.5353    0.9970   -2.0203 C   0  0  0  0  0  0  0  0  0  0  0  0
   -4.4396    0.1723   -1.3538 C   0  0  0  0  0  0  0  0  0  0  0  0
   -5.6549   -0.1518   -1.9523 C   0  0  0  0  0  0  0  0  0  0  0  0
   -5.9637    0.3423   -3.2170 C   0  0  0  0  0  0  0  0  0  0  0  0
   -5.0528    1.1524   -3.8905 C   0  0  0  0  0  0  0  0  0  0  0  0
   -4.3486    5.9214   -4.7942 C   0  0  0  0  0  0  0  0  0  0  0  0
   -3.6429    6.0473   -3.4444 C   0  0  0  0  0  0  0  0  0  0  0  0
   -2.2146    6.2180   -3.7427 N   0  0  0  0  0  0  0  0  0  0  0  0
   -1.8662    5.3885   -4.2233 H   0  0  0  0  0  0  0  0  0  0  0  0
   -1.6987    6.3485   -2.8725 H   0  0  0  0  0  0  0  0  0  0  0  0
   -3.6314    4.8084   -2.5500 C   0  0  0  0  0  0  0  0  0  0  0  0
   -3.9098    4.9016   -1.1899 C   0  0  0  0  0  0  0  0  0  0  0  0
   -4.9448    5.7054   -0.7379 C   0  0  0  0  0  0  0  0  0  0  0  0
   -5.1084    6.0029    0.6130 C   0  0  0  0  0  0  0  0  0  0  0  0
   -6.2224    6.6504    1.0001 F   0  0  0  0  0  0  0  0  0  0  0  0
   -4.1905    5.4993    1.5298 C   0  0  0  0  0  0  0  0  0  0  0  0
   -4.0652    6.0254    2.7642 F   0  0  0  0  0  0  0  0  0  0  0  0
   -3.2063    4.6248    1.0906 C   0  0  0  0  0  0  0  0  0  0  0  0
   -3.0646    4.3077   -0.2562 C   0  0  0  0  0  0  0  0  0  0  0  0
   -2.0466    3.5066   -0.6119 F   0  0  0  0  0  0  0  0  0  0  0  0
 12 13  1  0  0  0
 12 17  2  0  0  0
 13 14  2  0  0  0
 14 15  1  0  0  0
 15 16  2  0  0  0
 16 17  1  0  0  0
 17  1  1  0  0  0
  1  3  1  0  0  0
  1  2  2  0  0  0
  3  9  1  0  0  0
  3  4  1  0  0  0
  4  5  1  0  0  0
  5  6  1  0  0  0
  6  7  1  0  0  0
  7  8  1  0  0  0
  8  9  1  0  0  0
  9 10  1  0  0  0
 10 18  1  0  0  0
 10 11  2  0  0  0
 18 19  1  0  0  0
 19 20  1  0  0  0
 19 23  1  0  0  0
 23 24  1  0  0  0
 24 25  1  0  0  0
 24 31  2  0  0  0
 25 26  2  0  0  0
 26 27  1  0  0  0
 26 28  1  0  0  0
 28 29  1  0  0  0
 28 30  2  0  0  0
 30 31  1  0  0  0
 31 32  1  0  0  0
 20 21  1  0  0  0
 20 22  1  0  0  0
M  END
> <minimizedAffinity>
-8.60616

$$$$
2OLE_KR2_A_1001


 32 34  0  0  0  0  0  0  0  0999 V2000
   -3.8540    1.8360   -5.9977 C   0  0  0  0  0  0  0  0  0  0  0  0
   -2.4352    1.8641   -5.8018 O   0  0  0  0  0  0  0  0  0  0  0  0
   -4.3877    3.1743   -6.3021 N   0  0  0  0  0  0  0  0  0  0  0  0
   -4.8451    3.2092   -7.7012 C   0  0  0  0  0  0  0  0  0  0  0  0
   -4.4023    4.4455   -8.4867 C   0  0  0  0  0  0  0  0  0  0  0  0
   -2.9125    4.4354   -8.8375 C   0  0  0  0  0  0  0  0  0  0  0  0
   -2.0259    4.9875   -7.7161 C   0  0  0  0  0  0  0  0  0  0  0  0
   -2.0801    4.1515   -6.4323 C   0  0  0  0  0  0  0  0  0  0  0  0
   -3.4618    4.0976   -5.9248 N   0  0  0  0  0  0  0  0  0  0  0  0
   -3.9746    5.1275   -5.2611 C   0  0  0  0  0  0  0  0  0  0  0  0
   -5.3077    5.3653   -5.1633 O   0  0  0  0  0  0  0  0  0  0  0  0
   -3.8327    1.6782   -3.4698 C   0  0  0  0  0  0  0  0  0  0  0  0
   -4.3196    1.1316   -2.2852 C   0  0  0  0  0  0  0  0  0  0  0  0
   -5.5008    0.3921   -2.2931 C   0  0  0  0  0  0  0  0  0  0  0  0
   -6.1979    0.2100   -3.4852 C   0  0  0  0  0  0  0  0  0  0  0  0
   -5.7125    0.7607   -4.6684 C   0  0  0  0  0  0  0  0  0  0  0  0
   -4.5232    1.4851   -4.6639 C   0  0  0  0  0  0  0  0  0  0  0  0
   -3.0327    6.1578   -4.6443 C   0  0  0  0  0  0  0  0  0  0  0  0
   -3.3131    6.3054   -3.1491 C   0  0  0  0  0  0  0  0  0  0  0  0
   -2.0158    6.5711   -2.5128 N   0  0  0  0  0  0  0  0  0  0  0  0
   -1.3966    5.7735   -2.6572 H   0  0  0  0  0  0  0  0  0  0  0  0
   -2.1516    6.7195   -1.5129 H   0  0  0  0  0  0  0  0  0  0  0  0
   -3.7782    5.0549   -2.4043 C   0  0  0  0  0  0  0  0  0  0  0  0
   -4.0167    5.0822   -1.0338 C   0  0  0  0  0  0  0  0  0  0  0  0
   -4.9711    5.9363   -0.5033 C   0  0  0  0  0  0  0  0  0  0  0  0
   -5.0786    6.1580    0.8677 C   0  0  0  0  0  0  0  0  0  0  0  0
   -6.1260    6.8672    1.3257 F   0  0  0  0  0  0  0  0  0  0  0  0
   -4.1847    5.5234    1.7249 C   0  0  0  0  0  0  0  0  0  0  0  0
   -3.9881    5.9565    2.9858 F   0  0  0  0  0  0  0  0  0  0  0  0
   -3.2865    4.6022    1.2042 C   0  0  0  0  0  0  0  0  0  0  0  0
   -3.2025    4.3625   -0.1632 C   0  0  0  0  0  0  0  0  0  0  0  0
   -2.2626    3.5062   -0.5969 F   0  0  0  0  0  0  0  0  0  0  0  0
 12 13  1  0  0  0
 12 17  2  0  0  0
 13 14  2  0  0  0
 14 15  1  0  0  0
 15 16  2  0  0  0
 16 17  1  0  0  0
 17  1  1  0  0  0
  1  3  1  0  0  0
  1  2  2  0  0  0
  3  9  1  0  0  0
  3  4  1  0  0  0
  4  5  1  0  0  0
  5  6  1  0  0  0
  6  7  1  0  0  0
  7  8  1  0  0  0
  8  9  1  0  0  0
  9 10  1  0  0  0
 10 18  1  0  0  0
 10 11  2  0  0  0
 18 19  1  0  0  0
 19 20  1  0  0  0
 19 23  1  0  0  0
 23 24  1  0  0  0
 24 25  1  0  0  0
 24 31  2  0  0  0
 25 26  2  0  0  0
 26 27  1  0  0  0
 26 28  1  0  0  0
 28 29  1  0  0  0
 28 30  2  0  0  0
 30 31  1  0  0  0
 31 32  1  0  0  0
 20 21  1  0  0  0
 20 22  1  0  0  0
M  END
> <minimizedAffinity>
-8.39782

$$$$
2OLE_KR2_A_1001


 32 34  0  0  0  0  0  0  0  0999 V2000
   -4.8929    6.0645   -1.7583 C   0  0  0  0  0  0  0  0  0  0  0  0
   -6.1422    5.6639   -2.3335 O   0  0  0  0  0  0  0  0  0  0  0  0
   -3.7666    5.2959   -2.3146 N   0  0  0  0  0  0  0  0  0  0  0  0
   -2.9327    6.1840   -3.1415 C   0  0  0  0  0  0  0  0  0  0  0  0
   -2.5289    5.6006   -4.4973 C   0  0  0  0  0  0  0  0  0  0  0  0
   -3.6863    5.5414   -5.4971 C   0  0  0  0  0  0  0  0  0  0  0  0
   -4.5433    4.2793   -5.3525 C   0  0  0  0  0  0  0  0  0  0  0  0
   -5.2562    4.1816   -3.9989 C   0  0  0  0  0  0  0  0  0  0  0  0
   -4.2664    4.1777   -2.9080 N   0  0  0  0  0  0  0  0  0  0  0  0
   -3.5902    3.0719   -2.6179 C   0  0  0  0  0  0  0  0  0  0  0  0
   -2.3887    3.0740   -1.9858 O   0  0  0  0  0  0  0  0  0  0  0  0
   -5.9313    6.0817    0.5519 C   0  0  0  0  0  0  0  0  0  0  0  0
   -5.8158    5.9548    1.9338 C   0  0  0  0  0  0  0  0  0  0  0  0
   -4.6579    5.4138    2.4893 C   0  0  0  0  0  0  0  0  0  0  0  0
   -3.6219    4.9911    1.6597 C   0  0  0  0  0  0  0  0  0  0  0  0
   -3.7401    5.1142    0.2778 C   0  0  0  0  0  0  0  0  0  0  0  0
   -4.8900    5.6707   -0.2768 C   0  0  0  0  0  0  0  0  0  0  0  0
   -4.1310    1.7247   -3.0890 C   0  0  0  0  0  0  0  0  0  0  0  0
   -4.7567    0.9655   -1.9194 C   0  0  0  0  0  0  0  0  0  0  0  0
   -3.7392    0.9329   -0.8603 N   0  0  0  0  0  0  0  0  0  0  0  0
   -2.9217    0.4196   -1.1899 H   0  0  0  0  0  0  0  0  0  0  0  0
   -4.1215    0.4701   -0.0356 H   0  0  0  0  0  0  0  0  0  0  0  0
   -5.0391   -0.5214   -2.1299 C   0  0  0  0  0  0  0  0  0  0  0  0
   -6.3392   -1.0164   -2.1042 C   0  0  0  0  0  0  0  0  0  0  0  0
   -6.8001   -1.7244   -1.0052 C   0  0  0  0  0  0  0  0  0  0  0  0
   -8.0033   -2.4258   -1.0343 C   0  0  0  0  0  0  0  0  0  0  0  0
   -8.4698   -2.9532    0.1121 F   0  0  0  0  0  0  0  0  0  0  0  0
   -8.7489   -2.4359   -2.2093 C   0  0  0  0  0  0  0  0  0  0  0  0
   -9.7033   -3.3612   -2.4311 F   0  0  0  0  0  0  0  0  0  0  0  0
   -8.3335   -1.6576   -3.2807 C   0  0  0  0  0  0  0  0  0  0  0  0
   -7.1455   -0.9356   -3.2366 C   0  0  0  0  0  0  0  0  0  0  0  0
   -6.7771   -0.2595   -4.3374 F   0  0  0  0  0  0  0  0  0  0  0  0
 12 13  1  0  0  0
 12 17  2  0  0  0
 13 14  2  0  0  0
 14 15  1  0  0  0
 15 16  2  0  0  0
 16 17  1  0  0  0
 17  1  1  0  0  0
  1  3  1  0  0  0
  1  2  2  0  0  0
  3  9  1  0  0  0
  3  4  1  0  0  0
  4  5  1  0  0  0
  5  6  1  0  0  0
  6  7  1  0  0  0
  7  8  1  0  0  0
  8  9  1  0  0  0
  9 10  1  0  0  0
 10 18  1  0  0  0
 10 11  2  0  0  0
 18 19  1  0  0  0
 19 20  1  0  0  0
 19 23  1  0  0  0
 23 24  1  0  0  0
 24 25  1  0  0  0
 24 31  2  0  0  0
 25 26  2  0  0  0
 26 27  1  0  0  0
 26 28  1  0  0  0
 28 29  1  0  0  0
 28 30  2  0  0  0
 30 31  1  0  0  0
 31 32  1  0  0  0
 20 21  1  0  0  0
 20 22  1  0  0  0
M  END
> <minimizedAffinity>
-8.26406

$$$$
2OLE_KR2_A_1001


 32 34  0  0  0  0  0  0  0  0999 V2000
   -4.9186    6.0674   -1.7869 C   0  0  0  0  0  0  0  0  0  0  0  0
   -6.1499    5.6206   -2.3668 O   0  0  0  0  0  0  0  0  0  0  0  0
   -3.7632    5.3353   -2.3326 N   0  0  0  0  0  0  0  0  0  0  0  0
   -2.9557    6.2473   -3.1597 C   0  0  0  0  0  0  0  0  0  0  0  0
   -2.5241    5.6709   -4.5100 C   0  0  0  0  0  0  0  0  0  0  0  0
   -3.6730    5.5662   -5.5159 C   0  0  0  0  0  0  0  0  0  0  0  0
   -4.4866    4.2760   -5.3690 C   0  0  0  0  0  0  0  0  0  0  0  0
   -5.2035    4.1610   -4.0189 C   0  0  0  0  0  0  0  0  0  0  0  0
   -4.2205    4.1973   -2.9225 N   0  0  0  0  0  0  0  0  0  0  0  0
   -3.5081    3.1171   -2.6224 C   0  0  0  0  0  0  0  0  0  0  0  0
   -2.3111    3.1643   -1.9836 O   0  0  0  0  0  0  0  0  0  0  0  0
   -5.9645    6.0715    0.5200 C   0  0  0  0  0  0  0  0  0  0  0  0
   -5.8503    5.9551    1.9029 C   0  0  0  0  0  0  0  0  0  0  0  0
   -4.6811    5.4461    2.4650 C   0  0  0  0  0  0  0  0  0  0  0  0
   -3.6323    5.0448    1.6409 C   0  0  0  0  0  0  0  0  0  0  0  0
   -3.7490    5.1573    0.2580 C   0  0  0  0  0  0  0  0  0  0  0  0
   -4.9106    5.6820   -0.3032 C   0  0  0  0  0  0  0  0  0  0  0  0
   -3.9993    1.7495   -3.0890 C   0  0  0  0  0  0  0  0  0  0  0  0
   -4.7264    1.0307   -1.9530 C   0  0  0  0  0  0  0  0  0  0  0  0
   -3.7405    0.8615   -0.8771 N   0  0  0  0  0  0  0  0  0  0  0  0
   -2.9754    0.2728   -1.2065 H   0  0  0  0  0  0  0  0  0  0  0  0
   -4.1869    0.4205   -0.0730 H   0  0  0  0  0  0  0  0  0  0  0  0
   -5.1607   -0.4115   -2.2110 C   0  0  0  0  0  0  0  0  0  0  0  0
   -6.3340   -0.6955   -2.9027 C   0  0  0  0  0  0  0  0  0  0  0  0
   -6.7645    0.1338   -3.9268 C   0  0  0  0  0  0  0  0  0  0  0  0
   -8.0356    0.0149   -4.4839 C   0  0  0  0  0  0  0  0  0  0  0  0
   -8.3295    0.7387   -5.5793 F   0  0  0  0  0  0  0  0  0  0  0  0
   -8.9054   -0.9468   -3.9788 C   0  0  0  0  0  0  0  0  0  0  0  0
  -10.2332   -0.8831   -4.2002 F   0  0  0  0  0  0  0  0  0  0  0  0
   -8.4468   -1.8340   -3.0150 C   0  0  0  0  0  0  0  0  0  0  0  0
   -7.1663   -1.7296   -2.4821 C   0  0  0  0  0  0  0  0  0  0  0  0
   -6.8182   -2.5832   -1.5049 F   0  0  0  0  0  0  0  0  0  0  0  0
 12 13  1  0  0  0
 12 17  2  0  0  0
 13 14  2  0  0  0
 14 15  1  0  0  0
 15 16  2  0  0  0
 16 17  1  0  0  0
 17  1  1  0  0  0
  1  3  1  0  0  0
  1  2  2  0  0  0
  3  9  1  0  0  0
  3  4  1  0  0  0
  4  5  1  0  0  0
  5  6  1  0  0  0
  6  7  1  0  0  0
  7  8  1  0  0  0
  8  9  1  0  0  0
  9 10  1  0  0  0
 10 18  1  0  0  0
 10 11  2  0  0  0
 18 19  1  0  0  0
 19 20  1  0  0  0
 19 23  1  0  0  0
 23 24  1  0  0  0
 24 25  1  0  0  0
 24 31  2  0  0  0
 25 26  2  0  0  0
 26 27  1  0  0  0
 26 28  1  0  0  0
 28 29  1  0  0  0
 28 30  2  0  0  0
 30 31  1  0  0  0
 31 32  1  0  0  0
 20 21  1  0  0  0
 20 22  1  0  0  0
M  END
> <minimizedAffinity>
-8.22554

$$$$
2OLE_KR2_A_1001


 32 34  0  0  0  0  0  0  0  0999 V2000
   -4.2719    3.3299   -3.2337 C   0  0  0  0  0  0  0  0  0  0  0  0
   -3.0473    2.6677   -3.5712 O   0  0  0  0  0  0  0  0  0  0  0  0
   -4.6444    4.3333   -4.2451 N   0  0  0  0  0  0  0  0  0  0  0  0
   -5.8436    3.8755   -4.9663 C   0  0  0  0  0  0  0  0  0  0  0  0
   -5.7681    4.0217   -6.4877 C   0  0  0  0  0  0  0  0  0  0  0  0
   -4.8270    3.0092   -7.1448 C   0  0  0  0  0  0  0  0  0  0  0  0
   -3.3641    3.4655   -7.1560 C   0  0  0  0  0  0  0  0  0  0  0  0
   -2.7676    3.6254   -5.7529 C   0  0  0  0  0  0  0  0  0  0  0  0
   -3.5403    4.6190   -4.9878 N   0  0  0  0  0  0  0  0  0  0  0  0
   -3.3604    5.9179   -5.1991 C   0  0  0  0  0  0  0  0  0  0  0  0
   -4.2951    6.8592   -4.9097 O   0  0  0  0  0  0  0  0  0  0  0  0
   -3.1699    3.7140   -0.9856 C   0  0  0  0  0  0  0  0  0  0  0  0
   -3.1457    4.3297    0.2632 C   0  0  0  0  0  0  0  0  0  0  0  0
   -3.9914    5.4058    0.5257 C   0  0  0  0  0  0  0  0  0  0  0  0
   -4.8523    5.8702   -0.4659 C   0  0  0  0  0  0  0  0  0  0  0  0
   -4.8726    5.2567   -1.7157 C   0  0  0  0  0  0  0  0  0  0  0  0
   -4.0400    4.1704   -1.9728 C   0  0  0  0  0  0  0  0  0  0  0  0
   -2.0802    6.3896   -5.8831 C   0  0  0  0  0  0  0  0  0  0  0  0
   -2.4145    7.2831   -7.0771 C   0  0  0  0  0  0  0  0  0  0  0  0
   -2.7745    8.5941   -6.5203 N   0  0  0  0  0  0  0  0  0  0  0  0
   -3.6042    8.4985   -5.9348 H   0  0  0  0  0  0  0  0  0  0  0  0
   -2.9686    9.2450   -7.2813 H   0  0  0  0  0  0  0  0  0  0  0  0
   -3.6654    6.9282   -7.8797 C   0  0  0  0  0  0  0  0  0  0  0  0
   -3.6256    6.8331   -9.2673 C   0  0  0  0  0  0  0  0  0  0  0  0
   -2.7018    7.5664   -9.9958 C   0  0  0  0  0  0  0  0  0  0  0  0
   -2.7783    7.6749  -11.3825 C   0  0  0  0  0  0  0  0  0  0  0  0
   -1.7621    8.2622  -12.0400 F   0  0  0  0  0  0  0  0  0  0  0  0
   -3.8275    7.0505  -12.0503 C   0  0  0  0  0  0  0  0  0  0  0  0
   -4.1738    7.4016  -13.3044 F   0  0  0  0  0  0  0  0  0  0  0  0
   -4.7016    6.2453  -11.3335 C   0  0  0  0  0  0  0  0  0  0  0  0
   -4.6038    6.1168   -9.9521 C   0  0  0  0  0  0  0  0  0  0  0  0
   -5.5274    5.3729   -9.3208 F   0  0  0  0  0  0  0  0  0  0  0  0
 12 13  1  0  0  0
 12 17  2  0  0  0
 13 14  2  0  0  0
 14 15  1  0  0  0
 15 16  2  0  0  0
 16 17  1  0  0  0
 17  1  1  0  0  0
  1  3  1  0  0  0
  1  2  2  0  0  0
  3  9  1  0  0  0
  3  4  1  0  0  0
  4  5  1  0  0  0
  5  6  1  0  0  0
  6  7  1  0  0  0
  7  8  1  0  0  0
  8  9  1  0  0  0
  9 10  1  0  0  0
 10 18  1  0  0  0
 10 11  2  0  0  0
 18 19  1  0  0  0
 19 20  1  0  0  0
 19 23  1  0  0  0
 23 24  1  0  0  0
 24 25  1  0  0  0
 24 31  2  0  0  0
 25 26  2  0  0  0
 26 27  1  0  0  0
 26 28  1  0  0  0
 28 29  1  0  0  0
 28 30  2  0  0  0
 30 31  1  0  0  0
 31 32  1  0  0  0
 20 21  1  0  0  0
 20 22  1  0  0  0
M  END
> <minimizedAffinity>
-8.08471

$$$$
2OLE_KR2_A_1001


 32 34  0  0  0  0  0  0  0  0999 V2000
   -5.1636    4.4436   -7.3746 C   0  0  0  0  0  0  0  0  0  0  0  0
   -6.2734    4.5521   -6.4754 O   0  0  0  0  0  0  0  0  0  0  0  0
   -4.2583    3.3471   -6.9915 N   0  0  0  0  0  0  0  0  0  0  0  0
   -4.3447    2.2719   -7.9937 C   0  0  0  0  0  0  0  0  0  0  0  0
   -4.4677    0.8630   -7.4093 C   0  0  0  0  0  0  0  0  0  0  0  0
   -5.8425    0.5816   -6.7982 C   0  0  0  0  0  0  0  0  0  0  0  0
   -5.9651    1.0566   -5.3465 C   0  0  0  0  0  0  0  0  0  0  0  0
   -5.8269    2.5754   -5.1912 C   0  0  0  0  0  0  0  0  0  0  0  0
   -4.5154    3.0157   -5.6968 N   0  0  0  0  0  0  0  0  0  0  0  0
   -3.4221    2.8533   -4.9602 C   0  0  0  0  0  0  0  0  0  0  0  0
   -2.1705    2.7921   -5.4826 O   0  0  0  0  0  0  0  0  0  0  0  0
   -4.2801    6.3898   -6.0155 C   0  0  0  0  0  0  0  0  0  0  0  0
   -3.6997    7.6536   -5.9433 C   0  0  0  0  0  0  0  0  0  0  0  0
   -3.1237    8.2214   -7.0782 C   0  0  0  0  0  0  0  0  0  0  0  0
   -3.1207    7.5185   -8.2808 C   0  0  0  0  0  0  0  0  0  0  0  0
   -3.6973    6.2531   -8.3509 C   0  0  0  0  0  0  0  0  0  0  0  0
   -4.2882    5.6926   -7.2212 C   0  0  0  0  0  0  0  0  0  0  0  0
   -3.5646    2.6331   -3.4567 C   0  0  0  0  0  0  0  0  0  0  0  0
   -3.5811    3.9738   -2.7230 C   0  0  0  0  0  0  0  0  0  0  0  0
   -2.5869    4.8213   -3.3950 N   0  0  0  0  0  0  0  0  0  0  0  0
   -1.6621    4.4018   -3.2990 H   0  0  0  0  0  0  0  0  0  0  0  0
   -2.5859    5.7478   -2.9683 H   0  0  0  0  0  0  0  0  0  0  0  0
   -3.0768    3.9809   -1.2806 C   0  0  0  0  0  0  0  0  0  0  0  0
   -3.8317    4.5481   -0.2585 C   0  0  0  0  0  0  0  0  0  0  0  0
   -5.0644    5.1211   -0.5301 C   0  0  0  0  0  0  0  0  0  0  0  0
   -5.7395    5.8938    0.4121 C   0  0  0  0  0  0  0  0  0  0  0  0
   -6.9993    6.2821    0.1438 F   0  0  0  0  0  0  0  0  0  0  0  0
   -5.1456    6.1169    1.6507 C   0  0  0  0  0  0  0  0  0  0  0  0
   -5.5456    7.1224    2.4539 F   0  0  0  0  0  0  0  0  0  0  0  0
   -3.9543    5.4734    1.9553 C   0  0  0  0  0  0  0  0  0  0  0  0
   -3.2981    4.6792    1.0209 C   0  0  0  0  0  0  0  0  0  0  0  0
   -2.1157    4.1437    1.3674 F   0  0  0  0  0  0  0  0  0  0  0  0
 12 13  1  0  0  0
 12 17  2  0  0  0
 13 14  2  0  0  0
 14 15  1  0  0  0
 15 16  2  0  0  0
 16 17  1  0  0  0
 17  1  1  0  0  0
  1  3  1  0  0  0
  1  2  2  0  0  0
  3  9  1  0  0  0
  3  4  1  0  0  0
  4  5  1  0  0  0
  5  6  1  0  0  0
  6  7  1  0  0  0
  7  8  1  0  0  0
  8  9  1  0  0  0
  9 10  1  0  0  0
 10 18  1  0  0  0
 10 11  2  0  0  0
 18 19  1  0  0  0
 19 20  1  0  0  0
 19 23  1  0  0  0
 23 24  1  0  0  0
 24 25  1  0  0  0
 24 31  2  0  0  0
 25 26  2  0  0  0
 26 27  1  0  0  0
 26 28  1  0  0  0
 28 29  1  0  0  0
 28 30  2  0  0  0
 30 31  1  0  0  0
 31 32  1  0  0  0
 20 21  1  0  0  0
 20 22  1  0  0  0
M  END
> <minimizedAffinity>
-7.98043

$$$$
2OLE_KR2_A_1001


 32 34  0  0  0  0  0  0  0  0999 V2000
   -3.3759    3.6984   -0.9595 C   0  0  0  0  0  0  0  0  0  0  0  0
   -2.0803    4.0704   -1.4442 O   0  0  0  0  0  0  0  0  0  0  0  0
   -4.3818    3.7059   -2.0350 N   0  0  0  0  0  0  0  0  0  0  0  0
   -4.8023    2.3234   -2.3177 C   0  0  0  0  0  0  0  0  0  0  0  0
   -4.8630    1.9662   -3.8044 C   0  0  0  0  0  0  0  0  0  0  0  0
   -3.4812    1.8152   -4.4452 C   0  0  0  0  0  0  0  0  0  0  0  0
   -2.8886    3.1463   -4.9199 C   0  0  0  0  0  0  0  0  0  0  0  0
   -2.6293    4.1365   -3.7787 C   0  0  0  0  0  0  0  0  0  0  0  0
   -3.8883    4.4332   -3.0740 N   0  0  0  0  0  0  0  0  0  0  0  0
   -4.7662    5.2828   -3.5954 C   0  0  0  0  0  0  0  0  0  0  0  0
   -6.0887    5.2741   -3.2883 O   0  0  0  0  0  0  0  0  0  0  0  0
   -3.5077    4.7571    1.3379 C   0  0  0  0  0  0  0  0  0  0  0  0
   -4.1496    5.5832    2.2569 C   0  0  0  0  0  0  0  0  0  0  0  0
   -5.1565    6.4479    1.8318 C   0  0  0  0  0  0  0  0  0  0  0  0
   -5.5116    6.4914    0.4856 C   0  0  0  0  0  0  0  0  0  0  0  0
   -4.8661    5.6682   -0.4333 C   0  0  0  0  0  0  0  0  0  0  0  0
   -3.8718    4.7916   -0.0060 C   0  0  0  0  0  0  0  0  0  0  0  0
   -4.3018    6.2698   -4.6629 C   0  0  0  0  0  0  0  0  0  0  0  0
   -4.9999    5.9820   -5.9917 C   0  0  0  0  0  0  0  0  0  0  0  0
   -5.8235    4.7855   -5.7716 N   0  0  0  0  0  0  0  0  0  0  0  0
   -5.2212    3.9969   -5.5355 H   0  0  0  0  0  0  0  0  0  0  0  0
   -6.3463    4.5717   -6.6209 H   0  0  0  0  0  0  0  0  0  0  0  0
   -4.1158    5.5447   -7.1587 C   0  0  0  0  0  0  0  0  0  0  0  0
   -3.8925    6.3851   -8.2450 C   0  0  0  0  0  0  0  0  0  0  0  0
   -4.4830    6.1209   -9.4710 C   0  0  0  0  0  0  0  0  0  0  0  0
   -4.1075    6.7980  -10.6290 C   0  0  0  0  0  0  0  0  0  0  0  0
   -4.8303    6.6108  -11.7481 F   0  0  0  0  0  0  0  0  0  0  0  0
   -3.0926    7.7473  -10.5553 C   0  0  0  0  0  0  0  0  0  0  0  0
   -2.4364    8.1653  -11.6557 F   0  0  0  0  0  0  0  0  0  0  0  0
   -2.5617    8.0749   -9.3155 C   0  0  0  0  0  0  0  0  0  0  0  0
   -2.9607    7.4161   -8.1574 C   0  0  0  0  0  0  0  0  0  0  0  0
   -2.3528    7.7426   -7.0046 F   0  0  0  0  0  0  0  0  0  0  0  0
 12 13  1  0  0  0
 12 17  2  0  0  0
 13 14  2  0  0  0
 14 15  1  0  0  0
 15 16  2  0  0  0
 16 17  1  0  0  0
 17  1  1  0  0  0
  1  3  1  0  0  0
  1  2  2  0  0  0
  3  9  1  0  0  0
  3  4  1  0  0  0
  4  5  1  0  0  0
  5  6  1  0  0  0
  6  7  1  0  0  0
  7  8  1  0  0  0
  8  9  1  0  0  0
  9 10  1  0  0  0
 10 18  1  0  0  0
 10 11  2  0  0  0
 18 19  1  0  0  0
 19 20  1  0  0  0
 19 23  1  0  0  0
 23 24  1  0  0  0
 24 25  1  0  0  0
 24 31  2  0  0  0
 25 26  2  0  0  0
 26 27  1  0  0  0
 26 28  1  0  0  0
 28 29  1  0  0  0
 28 30  2  0  0  0
 30 31  1  0  0  0
 31 32  1  0  0  0
 20 21  1  0  0  0
 20 22  1  0  0  0
M  END
> <minimizedAffinity>
-7.94733

$$$$
2OLE_KR2_A_1001


 32 34  0  0  0  0  0  0  0  0999 V2000
   -2.1272    5.5597   -4.9448 C   0  0  0  0  0  0  0  0  0  0  0  0
   -1.7309    4.1862   -5.0371 O   0  0  0  0  0  0  0  0  0  0  0  0
   -3.4011    5.7107   -4.2216 N   0  0  0  0  0  0  0  0  0  0  0  0
   -3.1513    6.3672   -2.9275 C   0  0  0  0  0  0  0  0  0  0  0  0
   -3.8526    5.7139   -1.7346 C   0  0  0  0  0  0  0  0  0  0  0  0
   -3.2277    4.3780   -1.3253 C   0  0  0  0  0  0  0  0  0  0  0  0
   -3.7657    3.1897   -2.1295 C   0  0  0  0  0  0  0  0  0  0  0  0
   -3.4427    3.2735   -3.6258 C   0  0  0  0  0  0  0  0  0  0  0  0
   -4.0231    4.5005   -4.1979 N   0  0  0  0  0  0  0  0  0  0  0  0
   -5.3182    4.5601   -4.4866 C   0  0  0  0  0  0  0  0  0  0  0  0
   -6.0130    5.7235   -4.5707 O   0  0  0  0  0  0  0  0  0  0  0  0
   -2.7427    7.4153   -6.5553 C   0  0  0  0  0  0  0  0  0  0  0  0
   -3.2914    7.8401   -7.7626 C   0  0  0  0  0  0  0  0  0  0  0  0
   -3.5556    6.9155   -8.7713 C   0  0  0  0  0  0  0  0  0  0  0  0
   -3.2603    5.5688   -8.5733 C   0  0  0  0  0  0  0  0  0  0  0  0
   -2.7076    5.1455   -7.3674 C   0  0  0  0  0  0  0  0  0  0  0  0
   -2.4595    6.0667   -6.3528 C   0  0  0  0  0  0  0  0  0  0  0  0
   -6.1043    3.2620   -4.6484 C   0  0  0  0  0  0  0  0  0  0  0  0
   -6.9068    3.2859   -5.9490 C   0  0  0  0  0  0  0  0  0  0  0  0
   -8.1405    4.0278   -5.6561 N   0  0  0  0  0  0  0  0  0  0  0  0
   -8.6759    3.5299   -4.9448 H   0  0  0  0  0  0  0  0  0  0  0  0
   -8.6981    4.1095   -6.5062 H   0  0  0  0  0  0  0  0  0  0  0  0
   -7.4546    1.9504   -6.4501 C   0  0  0  0  0  0  0  0  0  0  0  0
   -8.2117    1.1281   -5.6214 C   0  0  0  0  0  0  0  0  0  0  0  0
   -7.6004    0.3711   -4.6340 C   0  0  0  0  0  0  0  0  0  0  0  0
   -8.2845   -0.6264   -3.9430 C   0  0  0  0  0  0  0  0  0  0  0  0
   -7.6835   -1.2090   -2.8898 F   0  0  0  0  0  0  0  0  0  0  0  0
   -9.6112   -0.8860   -4.2732 C   0  0  0  0  0  0  0  0  0  0  0  0
  -10.2118   -2.0410   -3.9248 F   0  0  0  0  0  0  0  0  0  0  0  0
  -10.2495   -0.0722   -5.1987 C   0  0  0  0  0  0  0  0  0  0  0  0
   -9.5699    0.9417   -5.8654 C   0  0  0  0  0  0  0  0  0  0  0  0
  -10.2383    1.6433   -6.7958 F   0  0  0  0  0  0  0  0  0  0  0  0
 12 13  1  0  0  0
 12 17  2  0  0  0
 13 14  2  0  0  0
 14 15  1  0  0  0
 15 16  2  0  0  0
 16 17  1  0  0  0
 17  1  1  0  0  0
  1  3  1  0  0  0
  1  2  2  0  0  0
  3  9  1  0  0  0
  3  4  1  0  0  0
  4  5  1  0  0  0
  5  6  1  0  0  0
  6  7  1  0  0  0
  7  8  1  0  0  0
  8  9  1  0  0  0
  9 10  1  0  0  0
 10 18  1  0  0  0
 10 11  2  0  0  0
 18 19  1  0  0  0
 19 20  1  0  0  0
 19 23  1  0  0  0
 23 24  1  0  0  0
 24 25  1  0  0  0
 24 31  2  0  0  0
 25 26  2  0  0  0
 26 27  1  0  0  0
 26 28  1  0  0  0
 28 29  1  0  0  0
 28 30  2  0  0  0
 30 31  1  0  0  0
 31 32  1  0  0  0
 20 21  1  0  0  0
 20 22  1  0  0  0
M  END
> <minimizedAffinity>
-7.65966

$$$$
2OLE_KR2_A_1001


 32 34  0  0  0  0  0  0  0  0999 V2000
   -5.7676    3.1881   -4.6832 C   0  0  0  0  0  0  0  0  0  0  0  0
   -6.5338    4.3822   -4.4853 O   0  0  0  0  0  0  0  0  0  0  0  0
   -4.3750    3.3547   -4.2342 N   0  0  0  0  0  0  0  0  0  0  0  0
   -4.1480    2.5295   -3.0361 C   0  0  0  0  0  0  0  0  0  0  0  0
   -3.4090    3.2419   -1.9012 C   0  0  0  0  0  0  0  0  0  0  0  0
   -4.2698    4.2826   -1.1809 C   0  0  0  0  0  0  0  0  0  0  0  0
   -4.2650    5.6505   -1.8715 C   0  0  0  0  0  0  0  0  0  0  0  0
   -4.8710    5.6217   -3.2793 C   0  0  0  0  0  0  0  0  0  0  0  0
   -4.1172    4.6871   -4.1326 N   0  0  0  0  0  0  0  0  0  0  0  0
   -2.9503    5.0464   -4.6555 C   0  0  0  0  0  0  0  0  0  0  0  0
   -2.0002    4.1584   -5.0454 O   0  0  0  0  0  0  0  0  0  0  0  0
   -6.3489    3.7236   -7.0897 C   0  0  0  0  0  0  0  0  0  0  0  0
   -6.4281    3.3515   -8.4293 C   0  0  0  0  0  0  0  0  0  0  0  0
   -5.7802    2.1998   -8.8718 C   0  0  0  0  0  0  0  0  0  0  0  0
   -5.0455    1.4283   -7.9744 C   0  0  0  0  0  0  0  0  0  0  0  0
   -4.9633    1.8035   -6.6360 C   0  0  0  0  0  0  0  0  0  0  0  0
   -5.6249    2.9449   -6.1901 C   0  0  0  0  0  0  0  0  0  0  0  0
   -2.6030    6.5296   -4.7497 C   0  0  0  0  0  0  0  0  0  0  0  0
   -2.6897    7.0041   -6.2000 C   0  0  0  0  0  0  0  0  0  0  0  0
   -3.1257    8.4060   -6.1475 N   0  0  0  0  0  0  0  0  0  0  0  0
   -4.0527    8.4582   -5.7252 H   0  0  0  0  0  0  0  0  0  0  0  0
   -3.1609    8.7867   -7.0931 H   0  0  0  0  0  0  0  0  0  0  0  0
   -3.7723    6.3707   -7.0729 C   0  0  0  0  0  0  0  0  0  0  0  0
   -3.5209    6.0376   -8.4003 C   0  0  0  0  0  0  0  0  0  0  0  0
   -3.8748    6.9053   -9.4218 C   0  0  0  0  0  0  0  0  0  0  0  0
   -3.8508    6.5154  -10.7589 C   0  0  0  0  0  0  0  0  0  0  0  0
   -4.0469    7.4502  -11.7064 F   0  0  0  0  0  0  0  0  0  0  0  0
   -3.4862    5.2098  -11.0736 C   0  0  0  0  0  0  0  0  0  0  0  0
   -3.7849    4.6624  -12.2683 F   0  0  0  0  0  0  0  0  0  0  0  0
   -3.0484    4.3672  -10.0613 C   0  0  0  0  0  0  0  0  0  0  0  0
   -3.0467    4.7706   -8.7303 C   0  0  0  0  0  0  0  0  0  0  0  0
   -2.6721    3.8762   -7.8005 F   0  0  0  0  0  0  0  0  0  0  0  0
 12 13  1  0  0  0
 12 17  2  0  0  0
 13 14  2  0  0  0
 14 15  1  0  0  0
 15 16  2  0  0  0
 16 17  1  0  0  0
 17  1  1  0  0  0
  1  3  1  0  0  0
  1  2  2  0  0  0
  3  9  1  0  0  0
  3  4  1  0  0  0
  4  5  1  0  0  0
  5  6  1  0  0  0
  6  7  1  0  0  0
  7  8  1  0  0  0
  8  9  1  0  0  0
  9 10  1  0  0  0
 10 18  1  0  0  0
 10 11  2  0  0  0
 18 19  1  0  0  0
 19 20  1  0  0  0
 19 23  1  0  0  0
 23 24  1  0  0  0
 24 25  1  0  0  0
 24 31  2  0  0  0
 25 26  2  0  0  0
 26 27  1  0  0  0
 26 28  1  0  0  0
 28 29  1  0  0  0
 28 30  2  0  0  0
 30 31  1  0  0  0
 31 32  1  0  0  0
 20 21  1  0  0  0
 20 22  1  0  0  0
M  END
> <minimizedAffinity>
-7.58136

$$$$
2OLE_KR2_A_1001


 32 34  0  0  0  0  0  0  0  0999 V2000
   -7.1065    4.0122   -6.0106 C   0  0  0  0  0  0  0  0  0  0  0  0
   -6.8766    3.6214   -4.6517 O   0  0  0  0  0  0  0  0  0  0  0  0
   -7.2862    2.8443   -6.8894 N   0  0  0  0  0  0  0  0  0  0  0  0
   -8.6846    2.7900   -7.3469 C   0  0  0  0  0  0  0  0  0  0  0  0
   -9.3309    1.4056   -7.2610 C   0  0  0  0  0  0  0  0  0  0  0  0
   -9.6469    0.9757   -5.8264 C   0  0  0  0  0  0  0  0  0  0  0  0
   -8.4556    0.3232   -5.1169 C   0  0  0  0  0  0  0  0  0  0  0  0
   -7.2645    1.2709   -4.9347 C   0  0  0  0  0  0  0  0  0  0  0  0
   -6.7965    1.7490   -6.2470 N   0  0  0  0  0  0  0  0  0  0  0  0
   -6.0440    0.9708   -7.0166 C   0  0  0  0  0  0  0  0  0  0  0  0
   -5.9530    1.1142   -8.3636 O   0  0  0  0  0  0  0  0  0  0  0  0
   -5.1210    5.5644   -5.7573 C   0  0  0  0  0  0  0  0  0  0  0  0
   -4.1198    6.3533   -6.3180 C   0  0  0  0  0  0  0  0  0  0  0  0
   -3.8250    6.2438   -7.6756 C   0  0  0  0  0  0  0  0  0  0  0  0
   -4.5261    5.3372   -8.4673 C   0  0  0  0  0  0  0  0  0  0  0  0
   -5.5240    4.5457   -7.9049 C   0  0  0  0  0  0  0  0  0  0  0  0
   -5.8306    4.6671   -6.5518 C   0  0  0  0  0  0  0  0  0  0  0  0
   -5.3049   -0.2065   -6.3864 C   0  0  0  0  0  0  0  0  0  0  0  0
   -3.8519    0.1709   -6.0997 C   0  0  0  0  0  0  0  0  0  0  0  0
   -3.4091   -0.7040   -5.0057 N   0  0  0  0  0  0  0  0  0  0  0  0
   -3.9703   -0.5193   -4.1743 H   0  0  0  0  0  0  0  0  0  0  0  0
   -2.4269   -0.5212   -4.8005 H   0  0  0  0  0  0  0  0  0  0  0  0
   -3.5991    1.5593   -5.5137 C   0  0  0  0  0  0  0  0  0  0  0  0
   -2.7545    2.4643   -6.1491 C   0  0  0  0  0  0  0  0  0  0  0  0
   -2.3622    2.2567   -7.4624 C   0  0  0  0  0  0  0  0  0  0  0  0
   -1.3478    3.0060   -8.0538 C   0  0  0  0  0  0  0  0  0  0  0  0
   -1.1294    2.8664   -9.3740 F   0  0  0  0  0  0  0  0  0  0  0  0
   -0.6936    3.9717   -7.2949 C   0  0  0  0  0  0  0  0  0  0  0  0
    0.5052    4.4654   -7.6630 F   0  0  0  0  0  0  0  0  0  0  0  0
   -1.1427    4.2405   -6.0095 C   0  0  0  0  0  0  0  0  0  0  0  0
   -2.1756    3.5089   -5.4331 C   0  0  0  0  0  0  0  0  0  0  0  0
   -2.5095    3.7832   -4.1611 F   0  0  0  0  0  0  0  0  0  0  0  0
 12 13  1  0  0  0
 12 17  2  0  0  0
 13 14  2  0  0  0
 14 15  1  0  0  0
 15 16  2  0  0  0
 16 17  1  0  0  0
 17  1  1  0  0  0
  1  3  1  0  0  0
  1  2  2  0  0  0
  3  9  1  0  0  0
  3  4  1  0  0  0
  4  5  1  0  0  0
  5  6  1  0  0  0
  6  7  1  0  0  0
  7  8  1  0  0  0
  8  9  1  0  0  0
  9 10  1  0  0  0
 10 18  1  0  0  0
 10 11  2  0  0  0
 18 19  1  0  0  0
 19 20  1  0  0  0
 19 23  1  0  0  0
 23 24  1  0  0  0
 24 25  1  0  0  0
 24 31  2  0  0  0
 25 26  2  0  0  0
 26 27  1  0  0  0
 26 28  1  0  0  0
 28 29  1  0  0  0
 28 30  2  0  0  0
 30 31  1  0  0  0
 31 32  1  0  0  0
 20 21  1  0  0  0
 20 22  1  0  0  0
M  END
> <minimizedAffinity>
-7.55158

$$$$
