6D5H_FV7_B_2001


 34 38  0  0  0  0  0  0  0  0999 V2000
   36.5370   29.4758   23.1775 N   0  0  0  0  0  0  0  0  0  0  0  0
   35.6490   28.9628   22.2948 C   0  0  0  0  0  0  0  0  0  0  0  0
   35.7643   30.0024   24.2325 C   0  0  0  0  0  0  0  0  0  0  0  0
   36.1619   30.6822   25.3981 C   0  0  0  0  0  0  0  0  0  0  0  0
   35.1596   31.0440   26.2856 C   0  0  0  0  0  0  0  0  0  0  0  0
   33.3966   30.1324   24.8525 C   0  0  0  0  0  0  0  0  0  0  0  0
   34.3399   29.1511   22.7089 N   0  0  0  0  0  0  0  0  0  0  0  0
   34.4037   29.7717   23.9701 C   0  0  0  0  0  0  0  0  0  0  0  0
   33.8191   30.7428   25.9975 C   0  0  0  0  0  0  0  0  0  0  0  0
   32.5852   31.1079   27.1834 Cl  0  0  0  0  0  0  0  0  0  0  0  0
   37.1169   26.6973   19.0208 N   0  0  0  0  0  0  0  0  0  0  0  0
   37.4794   28.1188   19.1405 C   0  0  0  0  0  0  0  0  0  0  0  0
   37.4244   28.5149   20.6207 C   0  0  0  0  0  0  0  0  0  0  0  0
   36.0692   28.3094   21.1210 N   0  0  0  0  0  0  0  0  0  0  0  0
   35.7966   26.3643   19.6048 C   0  0  0  0  0  0  0  0  0  0  0  0
   35.7750   26.8494   21.0764 C   0  0  0  0  0  0  0  0  0  0  0  0
   37.8282   26.1431   19.4975 H   0  0  0  0  0  0  0  0  0  0  0  0
   38.4134   30.2667   26.3515 C   0  0  0  0  0  0  0  0  0  0  0  0
   40.2863   31.6974   25.7972 C   0  0  0  0  0  0  0  0  0  0  0  0
   38.1211   32.1499   24.9291 C   0  0  0  0  0  0  0  0  0  0  0  0
   37.5650   31.0428   25.5662 C   0  0  0  0  0  0  0  0  0  0  0  0
   37.1850   33.2357   23.9724 Cl  0  0  0  0  0  0  0  0  0  0  0  0
   39.4616   32.4906   25.0241 C   0  0  0  0  0  0  0  0  0  0  0  0
   39.7580   30.5977   26.4594 C   0  0  0  0  0  0  0  0  0  0  0  0
   33.1076   29.0161   21.9669 C   0  0  0  0  0  0  0  0  0  0  0  0
   33.5269   31.4926   21.4212 C   0  0  0  0  0  0  0  0  0  0  0  0
   33.9544   33.9306   21.0241 C   0  0  0  0  0  0  0  0  0  0  0  0
   32.2671   33.6346   18.8130 F   0  0  0  0  0  0  0  0  0  0  0  0
   32.4607   32.5607   19.5659 C   0  0  0  0  0  0  0  0  0  0  0  0
   31.8242   31.3501   19.2172 C   0  0  0  0  0  0  0  0  0  0  0  0
   30.8806   31.3612   18.0736 C   0  0  0  0  0  0  0  0  0  0  0  0
   33.3011   32.6436   20.6608 C   0  0  0  0  0  0  0  0  0  0  0  0
   32.9154   30.2718   21.0940 C   0  0  0  0  0  0  0  0  0  0  0  0
   32.0717   30.2058   19.9800 C   0  0  0  0  0  0  0  0  0  0  0  0
 31 30  1  0  0  0
 11 12  1  0  0  0
 11 15  1  0  0  0
 28 29  1  0  0  0
 12 13  1  0  0  0
 30 29  2  0  0  0
 30 34  1  0  0  0
 15 16  1  0  0  0
 29 32  1  0  0  0
 34 33  2  0  0  0
 13 14  1  0  0  0
 32 27  1  0  0  0
 32 26  2  0  0  0
 16 14  1  0  0  0
 14  2  1  0  0  0
 33 26  1  0  0  0
 33 25  1  0  0  0
 25  7  1  0  0  0
  2  7  1  0  0  0
  2  1  2  0  0  0
  7  8  1  0  0  0
  1  3  1  0  0  0
 22 20  1  0  0  0
  8  3  2  0  0  0
  8  6  1  0  0  0
  3  4  1  0  0  0
 20 23  2  0  0  0
 20 21  1  0  0  0
 23 19  1  0  0  0
  6  9  2  0  0  0
  4 21  1  0  0  0
  4  5  2  0  0  0
 21 18  2  0  0  0
 19 24  2  0  0  0
  9  5  1  0  0  0
  9 10  1  0  0  0
 18 24  1  0  0  0
 11 17  1  0  0  0
M  END
> <minimizedAffinity>
-11.26037

$$$$
6D5H_FV7_B_2001


 34 38  0  0  0  0  0  0  0  0999 V2000
   37.4815   29.0320   22.8745 N   0  0  0  0  0  0  0  0  0  0  0  0
   36.3532   29.7572   23.0536 C   0  0  0  0  0  0  0  0  0  0  0  0
   37.1216   27.9740   22.0152 C   0  0  0  0  0  0  0  0  0  0  0  0
   37.8883   26.9013   21.5248 C   0  0  0  0  0  0  0  0  0  0  0  0
   37.2597   26.0311   20.6469 C   0  0  0  0  0  0  0  0  0  0  0  0
   35.1307   27.2307   20.7941 C   0  0  0  0  0  0  0  0  0  0  0  0
   35.2742   29.2116   22.3763 N   0  0  0  0  0  0  0  0  0  0  0  0
   35.7657   28.0983   21.6699 C   0  0  0  0  0  0  0  0  0  0  0  0
   35.9156   26.2320   20.2952 C   0  0  0  0  0  0  0  0  0  0  0  0
   35.1777   25.1883   19.1001 Cl  0  0  0  0  0  0  0  0  0  0  0  0
   36.7749   33.2742   25.3901 N   0  0  0  0  0  0  0  0  0  0  0  0
   36.0341   32.1252   25.9352 C   0  0  0  0  0  0  0  0  0  0  0  0
   36.5595   30.8457   25.2735 C   0  0  0  0  0  0  0  0  0  0  0  0
   36.3457   30.9296   23.8326 N   0  0  0  0  0  0  0  0  0  0  0  0
   36.7116   33.3824   23.9138 C   0  0  0  0  0  0  0  0  0  0  0  0
   37.1867   32.0398   23.3030 C   0  0  0  0  0  0  0  0  0  0  0  0
   37.7533   33.1851   25.6641 H   0  0  0  0  0  0  0  0  0  0  0  0
   39.4935   25.9165   23.1385 C   0  0  0  0  0  0  0  0  0  0  0  0
   41.8761   26.2804   22.9079 C   0  0  0  0  0  0  0  0  0  0  0  0
   40.3473   27.2874   21.3930 C   0  0  0  0  0  0  0  0  0  0  0  0
   39.2458   26.7125   22.0232 C   0  0  0  0  0  0  0  0  0  0  0  0
   40.1937   28.3418   20.0383 Cl  0  0  0  0  0  0  0  0  0  0  0  0
   41.6545   27.0853   21.8080 C   0  0  0  0  0  0  0  0  0  0  0  0
   40.7977   25.7079   23.5685 C   0  0  0  0  0  0  0  0  0  0  0  0
   33.8629   29.4908   22.5091 C   0  0  0  0  0  0  0  0  0  0  0  0
   33.8338   31.9267   21.6893 C   0  0  0  0  0  0  0  0  0  0  0  0
   33.8135   34.3429   21.0216 C   0  0  0  0  0  0  0  0  0  0  0  0
   32.3088   33.4892   18.8238 F   0  0  0  0  0  0  0  0  0  0  0  0
   32.6676   32.5612   19.7001 C   0  0  0  0  0  0  0  0  0  0  0  0
   32.2850   31.2206   19.4804 C   0  0  0  0  0  0  0  0  0  0  0  0
   31.4063   30.9255   18.3230 C   0  0  0  0  0  0  0  0  0  0  0  0
   33.4294   32.9228   20.7959 C   0  0  0  0  0  0  0  0  0  0  0  0
   33.4767   30.5831   21.4927 C   0  0  0  0  0  0  0  0  0  0  0  0
   32.7093   30.2354   20.3758 C   0  0  0  0  0  0  0  0  0  0  0  0
 31 30  1  0  0  0
 11 12  1  0  0  0
 11 15  1  0  0  0
 28 29  1  0  0  0
 12 13  1  0  0  0
 30 29  2  0  0  0
 30 34  1  0  0  0
 15 16  1  0  0  0
 29 32  1  0  0  0
 34 33  2  0  0  0
 13 14  1  0  0  0
 32 27  1  0  0  0
 32 26  2  0  0  0
 16 14  1  0  0  0
 14  2  1  0  0  0
 33 26  1  0  0  0
 33 25  1  0  0  0
 25  7  1  0  0  0
  2  7  1  0  0  0
  2  1  2  0  0  0
  7  8  1  0  0  0
  1  3  1  0  0  0
 22 20  1  0  0  0
  8  3  2  0  0  0
  8  6  1  0  0  0
  3  4  1  0  0  0
 20 23  2  0  0  0
 20 21  1  0  0  0
 23 19  1  0  0  0
  6  9  2  0  0  0
  4 21  1  0  0  0
  4  5  2  0  0  0
 21 18  2  0  0  0
 19 24  2  0  0  0
  9  5  1  0  0  0
  9 10  1  0  0  0
 18 24  1  0  0  0
 11 17  1  0  0  0
M  END
> <minimizedAffinity>
-9.33003

$$$$
6D5H_FV7_B_2001


 34 38  0  0  0  0  0  0  0  0999 V2000
   36.8225   29.4133   23.9117 N   0  0  0  0  0  0  0  0  0  0  0  0
   35.4952   29.5933   23.7203 C   0  0  0  0  0  0  0  0  0  0  0  0
   37.3295   28.9726   22.6723 C   0  0  0  0  0  0  0  0  0  0  0  0
   38.6360   28.6018   22.3055 C   0  0  0  0  0  0  0  0  0  0  0  0
   38.8391   28.2504   20.9794 C   0  0  0  0  0  0  0  0  0  0  0  0
   36.4789   28.5649   20.4101 C   0  0  0  0  0  0  0  0  0  0  0  0
   35.1096   29.2688   22.4293 N   0  0  0  0  0  0  0  0  0  0  0  0
   36.2830   28.9170   21.7369 C   0  0  0  0  0  0  0  0  0  0  0  0
   37.7663   28.2616   20.0740 C   0  0  0  0  0  0  0  0  0  0  0  0
   38.0685   27.9242   18.3838 Cl  0  0  0  0  0  0  0  0  0  0  0  0
   33.0868   30.6785   27.0413 N   0  0  0  0  0  0  0  0  0  0  0  0
   32.4691   30.5334   25.7133 C   0  0  0  0  0  0  0  0  0  0  0  0
   33.3069   29.5490   24.8887 C   0  0  0  0  0  0  0  0  0  0  0  0
   34.6605   30.0749   24.7464 N   0  0  0  0  0  0  0  0  0  0  0  0
   34.5056   31.1032   26.9992 C   0  0  0  0  0  0  0  0  0  0  0  0
   35.2870   30.1142   26.0978 C   0  0  0  0  0  0  0  0  0  0  0  0
   33.0347   29.7792   27.5199 H   0  0  0  0  0  0  0  0  0  0  0  0
   39.9080   27.3288   24.0120 C   0  0  0  0  0  0  0  0  0  0  0  0
   41.7220   28.3588   25.2412 C   0  0  0  0  0  0  0  0  0  0  0  0
   40.4691   29.6126   23.6586 C   0  0  0  0  0  0  0  0  0  0  0  0
   39.6666   28.5210   23.3343 C   0  0  0  0  0  0  0  0  0  0  0  0
   40.2510   31.1670   22.9467 Cl  0  0  0  0  0  0  0  0  0  0  0  0
   41.4922   29.5559   24.5925 C   0  0  0  0  0  0  0  0  0  0  0  0
   40.9271   27.2578   24.9531 C   0  0  0  0  0  0  0  0  0  0  0  0
   33.7883   29.0518   21.8866 C   0  0  0  0  0  0  0  0  0  0  0  0
   33.8215   31.5795   21.4216 C   0  0  0  0  0  0  0  0  0  0  0  0
   33.8751   34.0655   21.1030 C   0  0  0  0  0  0  0  0  0  0  0  0
   32.1485   33.5999   18.9523 F   0  0  0  0  0  0  0  0  0  0  0  0
   32.5290   32.5415   19.6542 C   0  0  0  0  0  0  0  0  0  0  0  0
   32.0580   31.2633   19.2846 C   0  0  0  0  0  0  0  0  0  0  0  0
   31.0712   31.1745   18.1815 C   0  0  0  0  0  0  0  0  0  0  0  0
   33.3979   32.7097   20.7165 C   0  0  0  0  0  0  0  0  0  0  0  0
   33.3778   30.2941   21.0720 C   0  0  0  0  0  0  0  0  0  0  0  0
   32.5022   30.1428   19.9914 C   0  0  0  0  0  0  0  0  0  0  0  0
 31 30  1  0  0  0
 11 12  1  0  0  0
 11 15  1  0  0  0
 28 29  1  0  0  0
 12 13  1  0  0  0
 30 29  2  0  0  0
 30 34  1  0  0  0
 15 16  1  0  0  0
 29 32  1  0  0  0
 34 33  2  0  0  0
 13 14  1  0  0  0
 32 27  1  0  0  0
 32 26  2  0  0  0
 16 14  1  0  0  0
 14  2  1  0  0  0
 33 26  1  0  0  0
 33 25  1  0  0  0
 25  7  1  0  0  0
  2  7  1  0  0  0
  2  1  2  0  0  0
  7  8  1  0  0  0
  1  3  1  0  0  0
 22 20  1  0  0  0
  8  3  2  0  0  0
  8  6  1  0  0  0
  3  4  1  0  0  0
 20 23  2  0  0  0
 20 21  1  0  0  0
 23 19  1  0  0  0
  6  9  2  0  0  0
  4 21  1  0  0  0
  4  5  2  0  0  0
 21 18  2  0  0  0
 19 24  2  0  0  0
  9  5  1  0  0  0
  9 10  1  0  0  0
 18 24  1  0  0  0
 11 17  1  0  0  0
M  END
> <minimizedAffinity>
-9.22302

$$$$
6D5H_FV7_B_2001


 34 38  0  0  0  0  0  0  0  0999 V2000
   36.7765   29.5282   23.8933 N   0  0  0  0  0  0  0  0  0  0  0  0
   35.4428   29.6935   23.7353 C   0  0  0  0  0  0  0  0  0  0  0  0
   37.2537   29.0721   22.6476 C   0  0  0  0  0  0  0  0  0  0  0  0
   38.5531   28.7069   22.2513 C   0  0  0  0  0  0  0  0  0  0  0  0
   38.7234   28.3359   20.9259 C   0  0  0  0  0  0  0  0  0  0  0  0
   36.3459   28.6205   20.4162 C   0  0  0  0  0  0  0  0  0  0  0  0
   35.0254   29.3448   22.4606 N   0  0  0  0  0  0  0  0  0  0  0  0
   36.1827   28.9922   21.7422 C   0  0  0  0  0  0  0  0  0  0  0  0
   37.6264   28.3231   20.0501 C   0  0  0  0  0  0  0  0  0  0  0  0
   37.8858   27.9612   18.3578 Cl  0  0  0  0  0  0  0  0  0  0  0  0
   33.1260   30.8176   27.1080 N   0  0  0  0  0  0  0  0  0  0  0  0
   32.4644   30.6084   25.8100 C   0  0  0  0  0  0  0  0  0  0  0  0
   33.3019   29.6224   24.9871 C   0  0  0  0  0  0  0  0  0  0  0  0
   34.6319   30.1842   24.7760 N   0  0  0  0  0  0  0  0  0  0  0  0
   34.5280   31.2839   26.9978 C   0  0  0  0  0  0  0  0  0  0  0  0
   35.3065   30.2889   26.1004 C   0  0  0  0  0  0  0  0  0  0  0  0
   33.1203   29.9341   27.6177 H   0  0  0  0  0  0  0  0  0  0  0  0
   39.9212   27.4589   23.9010 C   0  0  0  0  0  0  0  0  0  0  0  0
   41.7200   28.5434   25.1053 C   0  0  0  0  0  0  0  0  0  0  0  0
   40.3750   29.7709   23.5786 C   0  0  0  0  0  0  0  0  0  0  0  0
   39.6119   28.6518   23.2527 C   0  0  0  0  0  0  0  0  0  0  0  0
   40.0728   31.3272   22.9026 Cl  0  0  0  0  0  0  0  0  0  0  0  0
   41.4229   29.7413   24.4857 C   0  0  0  0  0  0  0  0  0  0  0  0
   40.9659   27.4146   24.8153 C   0  0  0  0  0  0  0  0  0  0  0  0
   33.6920   29.1075   21.9576 C   0  0  0  0  0  0  0  0  0  0  0  0
   32.3805   30.2332   20.0552 C   0  0  0  0  0  0  0  0  0  0  0  0
   31.1138   31.2143   18.1271 C   0  0  0  0  0  0  0  0  0  0  0  0
   32.1467   33.6665   18.9892 F   0  0  0  0  0  0  0  0  0  0  0  0
   32.5129   32.5900   19.6710 C   0  0  0  0  0  0  0  0  0  0  0  0
   33.3808   32.7350   20.7746 C   0  0  0  0  0  0  0  0  0  0  0  0
   33.9277   34.0831   21.0609 C   0  0  0  0  0  0  0  0  0  0  0  0
   32.0171   31.3532   19.3018 C   0  0  0  0  0  0  0  0  0  0  0  0
   33.2346   30.3469   21.1637 C   0  0  0  0  0  0  0  0  0  0  0  0
   33.7229   31.6071   21.5251 C   0  0  0  0  0  0  0  0  0  0  0  0
 31 30  1  0  0  0
 11 12  1  0  0  0
 11 15  1  0  0  0
 28 29  1  0  0  0
 12 13  1  0  0  0
 30 29  2  0  0  0
 30 34  1  0  0  0
 15 16  1  0  0  0
 29 32  1  0  0  0
 34 33  2  0  0  0
 13 14  1  0  0  0
 32 27  1  0  0  0
 32 26  2  0  0  0
 16 14  1  0  0  0
 14  2  1  0  0  0
 33 26  1  0  0  0
 33 25  1  0  0  0
 25  7  1  0  0  0
  2  7  1  0  0  0
  2  1  2  0  0  0
  7  8  1  0  0  0
  1  3  1  0  0  0
 22 20  1  0  0  0
  8  3  2  0  0  0
  8  6  1  0  0  0
  3  4  1  0  0  0
 20 23  2  0  0  0
 20 21  1  0  0  0
 23 19  1  0  0  0
  6  9  2  0  0  0
  4 21  1  0  0  0
  4  5  2  0  0  0
 21 18  2  0  0  0
 19 24  2  0  0  0
  9  5  1  0  0  0
  9 10  1  0  0  0
 18 24  1  0  0  0
 11 17  1  0  0  0
M  END
> <minimizedAffinity>
-9.21304

$$$$
6D5H_FV7_B_2001


 34 38  0  0  0  0  0  0  0  0999 V2000
   35.5484   29.4827   21.3283 N   0  0  0  0  0  0  0  0  0  0  0  0
   36.5346   28.7478   21.8926 C   0  0  0  0  0  0  0  0  0  0  0  0
   34.6777   29.8250   22.3828 C   0  0  0  0  0  0  0  0  0  0  0  0
   33.4718   30.5493   22.3662 C   0  0  0  0  0  0  0  0  0  0  0  0
   32.8542   30.7668   23.5886 C   0  0  0  0  0  0  0  0  0  0  0  0
   34.5642   29.5119   24.8110 C   0  0  0  0  0  0  0  0  0  0  0  0
   36.3366   28.5739   23.2532 N   0  0  0  0  0  0  0  0  0  0  0  0
   35.1777   29.2994   23.5857 C   0  0  0  0  0  0  0  0  0  0  0  0
   33.4253   30.2622   24.7676 C   0  0  0  0  0  0  0  0  0  0  0  0
   32.6888   30.6454   26.3081 Cl  0  0  0  0  0  0  0  0  0  0  0  0
   39.8969   27.7077   19.5222 N   0  0  0  0  0  0  0  0  0  0  0  0
   38.5665   27.1927   19.1603 C   0  0  0  0  0  0  0  0  0  0  0  0
   37.5053   28.1675   19.6844 C   0  0  0  0  0  0  0  0  0  0  0  0
   37.6177   28.2620   21.1361 N   0  0  0  0  0  0  0  0  0  0  0  0
   40.0732   27.9450   20.9740 C   0  0  0  0  0  0  0  0  0  0  0  0
   38.9352   28.8778   21.4600 C   0  0  0  0  0  0  0  0  0  0  0  0
   40.0442   28.5900   19.0321 H   0  0  0  0  0  0  0  0  0  0  0  0
   32.1401   30.0546   20.3333 C   0  0  0  0  0  0  0  0  0  0  0  0
   31.7241   31.7624   18.6683 C   0  0  0  0  0  0  0  0  0  0  0  0
   33.0593   32.2343   20.5764 C   0  0  0  0  0  0  0  0  0  0  0  0
   32.9000   30.9471   21.0849 C   0  0  0  0  0  0  0  0  0  0  0  0
   34.0191   33.4296   21.3642 Cl  0  0  0  0  0  0  0  0  0  0  0  0
   32.4853   32.6614   19.3889 C   0  0  0  0  0  0  0  0  0  0  0  0
   31.5618   30.4668   19.1396 C   0  0  0  0  0  0  0  0  0  0  0  0
   36.9714   27.6545   24.1692 C   0  0  0  0  0  0  0  0  0  0  0  0
   38.3165   29.7426   24.8304 C   0  0  0  0  0  0  0  0  0  0  0  0
   39.6516   31.8020   25.3409 C   0  0  0  0  0  0  0  0  0  0  0  0
   40.2943   30.5163   27.7403 F   0  0  0  0  0  0  0  0  0  0  0  0
   39.5259   29.8487   26.8908 C   0  0  0  0  0  0  0  0  0  0  0  0
   39.0779   28.5555   27.2362 C   0  0  0  0  0  0  0  0  0  0  0  0
   39.5743   27.9583   28.4993 C   0  0  0  0  0  0  0  0  0  0  0  0
   39.1599   30.4432   25.6974 C   0  0  0  0  0  0  0  0  0  0  0  0
   37.8470   28.4586   25.1502 C   0  0  0  0  0  0  0  0  0  0  0  0
   38.2242   27.8747   26.3643 C   0  0  0  0  0  0  0  0  0  0  0  0
 31 30  1  0  0  0
 11 12  1  0  0  0
 11 15  1  0  0  0
 28 29  1  0  0  0
 12 13  1  0  0  0
 30 29  2  0  0  0
 30 34  1  0  0  0
 15 16  1  0  0  0
 29 32  1  0  0  0
 34 33  2  0  0  0
 13 14  1  0  0  0
 32 27  1  0  0  0
 32 26  2  0  0  0
 16 14  1  0  0  0
 14  2  1  0  0  0
 33 26  1  0  0  0
 33 25  1  0  0  0
 25  7  1  0  0  0
  2  7  1  0  0  0
  2  1  2  0  0  0
  7  8  1  0  0  0
  1  3  1  0  0  0
 22 20  1  0  0  0
  8  3  2  0  0  0
  8  6  1  0  0  0
  3  4  1  0  0  0
 20 23  2  0  0  0
 20 21  1  0  0  0
 23 19  1  0  0  0
  6  9  2  0  0  0
  4 21  1  0  0  0
  4  5  2  0  0  0
 21 18  2  0  0  0
 19 24  2  0  0  0
  9  5  1  0  0  0
  9 10  1  0  0  0
 18 24  1  0  0  0
 11 17  1  0  0  0
M  END
> <minimizedAffinity>
-8.88727

$$$$
