4CRA_XJ8_A_1491


 44 48  0  0  0  0  0  0  0  0999 V2000
  -26.1409  -54.0873  -11.6610 C   0  0  0  0  0  0  0  0  0  0  0  0
  -26.5409  -55.6139   -9.7480 C   0  0  0  0  0  0  0  0  0  0  0  0
  -25.6768  -56.3791  -10.1435 O   0  0  0  0  0  0  0  0  0  0  0  0
  -26.8260  -54.4818  -10.4302 N   0  0  0  0  0  0  0  0  0  0  0  0
  -27.5320  -53.8918  -10.0801 H   0  0  0  0  0  0  0  0  0  0  0  0
  -27.3513  -55.9640   -8.5503 C   0  0  0  0  0  0  0  0  0  0  0  0
  -28.4357  -55.1460   -8.1744 C   0  0  0  0  0  0  0  0  0  0  0  0
  -29.2291  -55.4504   -7.0951 C   0  0  0  0  0  0  0  0  0  0  0  0
  -28.9705  -56.6008   -6.3386 C   0  0  0  0  0  0  0  0  0  0  0  0
  -27.8908  -57.4482   -6.7185 C   0  0  0  0  0  0  0  0  0  0  0  0
  -27.0884  -57.1299   -7.8252 C   0  0  0  0  0  0  0  0  0  0  0  0
  -27.6361  -58.6715   -5.9377 C   0  0  0  0  0  0  0  0  0  0  0  0
  -28.4822  -58.9785   -4.8977 C   0  0  0  0  0  0  0  0  0  0  0  0
  -29.5619  -58.1122   -4.5722 C   0  0  0  0  0  0  0  0  0  0  0  0
  -30.3097  -58.3981   -3.6381 O   0  0  0  0  0  0  0  0  0  0  0  0
  -29.7709  -56.9569   -5.2606 N   0  0  0  0  0  0  0  0  0  0  0  0
  -26.5784  -59.4593   -6.2705 O   0  0  0  0  0  0  0  0  0  0  0  0
  -30.5055  -56.3605   -4.9886 H   0  0  0  0  0  0  0  0  0  0  0  0
  -26.0223  -59.2195   -6.9855 H   0  0  0  0  0  0  0  0  0  0  0  0
  -25.3250  -52.8431  -11.5010 C   0  0  0  0  0  0  0  0  0  0  0  0
  -25.4968  -52.1303  -10.5361 O   0  0  0  0  0  0  0  0  0  0  0  0
  -24.4598  -52.5152  -12.4867 N   0  0  0  0  0  0  0  0  0  0  0  0
  -24.3684  -53.1112  -13.2650 H   0  0  0  0  0  0  0  0  0  0  0  0
  -23.6578  -51.2965  -12.4223 C   0  0  0  0  0  0  0  0  0  0  0  0
  -19.9382  -50.7851  -11.8811 C   0  0  0  0  0  0  0  0  0  0  0  0
  -19.4555  -52.1168  -11.9342 C   0  0  0  0  0  0  0  0  0  0  0  0
  -20.3408  -53.1436  -12.1386 C   0  0  0  0  0  0  0  0  0  0  0  0
  -21.7074  -52.8749  -12.3018 C   0  0  0  0  0  0  0  0  0  0  0  0
  -22.1931  -51.5877  -12.2710 C   0  0  0  0  0  0  0  0  0  0  0  0
  -21.3253  -50.5062  -12.0507 C   0  0  0  0  0  0  0  0  0  0  0  0
  -19.1028  -49.7710  -11.6796 N   0  0  0  0  0  0  0  0  0  0  0  0
  -19.5176  -48.5207  -11.6226 C   0  0  0  0  0  0  0  0  0  0  0  0
  -20.8723  -48.1571  -11.7901 C   0  0  0  0  0  0  0  0  0  0  0  0
  -18.5462  -47.5551  -11.3984 N   0  0  0  0  0  0  0  0  0  0  0  0
  -21.7924  -49.1540  -11.9997 C   0  0  0  0  0  0  0  0  0  0  0  0
  -17.6053  -47.8209  -11.2832 H   0  0  0  0  0  0  0  0  0  0  0  0
  -18.7980  -46.6044  -11.3546 H   0  0  0  0  0  0  0  0  0  0  0  0
  -27.2576  -53.6861  -12.6389 C   0  0  0  0  0  0  0  0  0  0  0  0
  -28.1621  -54.8178  -13.0919 C   0  0  0  0  0  0  0  0  0  0  0  0
  -29.5411  -54.6420  -13.0405 C   0  0  0  0  0  0  0  0  0  0  0  0
  -27.6238  -56.0058  -13.6014 C   0  0  0  0  0  0  0  0  0  0  0  0
  -30.3871  -55.6657  -13.4610 C   0  0  0  0  0  0  0  0  0  0  0  0
  -28.4653  -57.0331  -14.0293 C   0  0  0  0  0  0  0  0  0  0  0  0
  -29.8470  -56.8528  -13.9563 C   0  0  0  0  0  0  0  0  0  0  0  0
 25 26  1  0  0  0
 25 30  1  0  0  0
 25 31  2  0  0  0
 26 27  2  0  0  0
 27 28  1  0  0  0
 28 29  2  0  0  0
 29 30  1  0  0  0
 29 24  1  0  0  0
 30 35  2  0  0  0
 31 32  1  0  0  0
 32 33  2  0  0  0
 32 34  1  0  0  0
 33 35  1  0  0  0
 24 22  1  0  0  0
 22 20  1  0  0  0
 44 42  1  0  0  0
 44 43  2  0  0  0
 42 40  2  0  0  0
 40 39  1  0  0  0
 39 41  2  0  0  0
 39 38  1  0  0  0
 41 43  1  0  0  0
 38  1  1  0  0  0
  1 20  1  0  0  0
  1  4  1  0  0  0
 20 21  2  0  0  0
  4  2  1  0  0  0
  2  3  2  0  0  0
  2  6  1  0  0  0
  6  7  1  0  0  0
  6 11  2  0  0  0
  7  8  2  0  0  0
  8  9  1  0  0  0
  9 10  2  0  0  0
  9 16  1  0  0  0
 10 11  1  0  0  0
 10 12  1  0  0  0
 12 13  2  0  0  0
 12 17  1  0  0  0
 13 14  1  0  0  0
 14 15  2  0  0  0
 14 16  1  0  0  0
 16 18  1  0  0  0
 17 19  1  0  0  0
  4  5  1  0  0  0
 34 36  1  0  0  0
 34 37  1  0  0  0
 22 23  1  0  0  0
M  END
> <minimizedAffinity>
-10.43272

$$$$
4CRA_XJ8_A_1491


 44 48  0  0  0  0  0  0  0  0999 V2000
  -25.4336  -54.3985  -11.4305 C   0  0  0  0  0  0  0  0  0  0  0  0
  -23.2468  -53.3942  -12.0298 C   0  0  0  0  0  0  0  0  0  0  0  0
  -22.9947  -54.3243  -12.7783 O   0  0  0  0  0  0  0  0  0  0  0  0
  -24.4087  -53.3587  -11.3392 N   0  0  0  0  0  0  0  0  0  0  0  0
  -24.5737  -52.5926  -10.7434 H   0  0  0  0  0  0  0  0  0  0  0  0
  -22.2351  -52.3267  -11.8051 C   0  0  0  0  0  0  0  0  0  0  0  0
  -20.9309  -52.6719  -11.3973 C   0  0  0  0  0  0  0  0  0  0  0  0
  -19.9578  -51.7205  -11.2100 C   0  0  0  0  0  0  0  0  0  0  0  0
  -20.2503  -50.3679  -11.4278 C   0  0  0  0  0  0  0  0  0  0  0  0
  -21.5579  -50.0055  -11.8599 C   0  0  0  0  0  0  0  0  0  0  0  0
  -22.5439  -50.9858  -12.0518 C   0  0  0  0  0  0  0  0  0  0  0  0
  -21.8567  -48.5852  -12.1138 C   0  0  0  0  0  0  0  0  0  0  0  0
  -20.8462  -47.6629  -11.9720 C   0  0  0  0  0  0  0  0  0  0  0  0
  -19.5494  -48.0776  -11.5613 C   0  0  0  0  0  0  0  0  0  0  0  0
  -18.6555  -47.2416  -11.4366 O   0  0  0  0  0  0  0  0  0  0  0  0
  -19.2829  -49.3821  -11.2792 N   0  0  0  0  0  0  0  0  0  0  0  0
  -23.1169  -48.2310  -12.4832 O   0  0  0  0  0  0  0  0  0  0  0  0
  -18.3849  -49.6326  -10.9630 H   0  0  0  0  0  0  0  0  0  0  0  0
  -23.7812  -48.8861  -12.5702 H   0  0  0  0  0  0  0  0  0  0  0  0
  -26.2692  -54.2865  -12.6669 C   0  0  0  0  0  0  0  0  0  0  0  0
  -27.1778  -53.4857  -12.7091 O   0  0  0  0  0  0  0  0  0  0  0  0
  -26.0228  -55.1421  -13.6843 N   0  0  0  0  0  0  0  0  0  0  0  0
  -25.2892  -55.7931  -13.5988 H   0  0  0  0  0  0  0  0  0  0  0  0
  -26.8208  -55.1217  -14.9072 C   0  0  0  0  0  0  0  0  0  0  0  0
  -29.6853  -57.6070  -14.9947 C   0  0  0  0  0  0  0  0  0  0  0  0
  -29.0490  -58.7586  -15.5220 C   0  0  0  0  0  0  0  0  0  0  0  0
  -27.7162  -58.7029  -15.8389 C   0  0  0  0  0  0  0  0  0  0  0  0
  -26.9912  -57.5201  -15.6341 C   0  0  0  0  0  0  0  0  0  0  0  0
  -27.5867  -56.3970  -15.1070 C   0  0  0  0  0  0  0  0  0  0  0  0
  -28.9522  -56.4039  -14.7806 C   0  0  0  0  0  0  0  0  0  0  0  0
  -30.9773  -57.6316  -14.6832 N   0  0  0  0  0  0  0  0  0  0  0  0
  -31.6013  -56.5786  -14.1928 C   0  0  0  0  0  0  0  0  0  0  0  0
  -30.9473  -55.3520  -13.9412 C   0  0  0  0  0  0  0  0  0  0  0  0
  -32.9528  -56.7319  -13.9171 N   0  0  0  0  0  0  0  0  0  0  0  0
  -29.6115  -55.2532  -14.2416 C   0  0  0  0  0  0  0  0  0  0  0  0
  -33.3975  -57.5917  -14.0968 H   0  0  0  0  0  0  0  0  0  0  0  0
  -33.4669  -55.9808  -13.5418 H   0  0  0  0  0  0  0  0  0  0  0  0
  -26.4138  -54.1072  -10.2821 C   0  0  0  0  0  0  0  0  0  0  0  0
  -26.9550  -55.3301   -9.5640 C   0  0  0  0  0  0  0  0  0  0  0  0
  -26.1822  -55.9294   -8.5747 C   0  0  0  0  0  0  0  0  0  0  0  0
  -28.2328  -55.8244   -9.8530 C   0  0  0  0  0  0  0  0  0  0  0  0
  -26.6661  -57.0467   -7.8980 C   0  0  0  0  0  0  0  0  0  0  0  0
  -28.7259  -56.9398   -9.1754 C   0  0  0  0  0  0  0  0  0  0  0  0
  -27.9347  -57.5438   -8.1976 C   0  0  0  0  0  0  0  0  0  0  0  0
 25 26  1  0  0  0
 25 30  1  0  0  0
 25 31  2  0  0  0
 26 27  2  0  0  0
 27 28  1  0  0  0
 28 29  2  0  0  0
 29 30  1  0  0  0
 29 24  1  0  0  0
 30 35  2  0  0  0
 31 32  1  0  0  0
 32 33  2  0  0  0
 32 34  1  0  0  0
 33 35  1  0  0  0
 24 22  1  0  0  0
 22 20  1  0  0  0
 44 42  1  0  0  0
 44 43  2  0  0  0
 42 40  2  0  0  0
 40 39  1  0  0  0
 39 41  2  0  0  0
 39 38  1  0  0  0
 41 43  1  0  0  0
 38  1  1  0  0  0
  1 20  1  0  0  0
  1  4  1  0  0  0
 20 21  2  0  0  0
  4  2  1  0  0  0
  2  3  2  0  0  0
  2  6  1  0  0  0
  6  7  1  0  0  0
  6 11  2  0  0  0
  7  8  2  0  0  0
  8  9  1  0  0  0
  9 10  2  0  0  0
  9 16  1  0  0  0
 10 11  1  0  0  0
 10 12  1  0  0  0
 12 13  2  0  0  0
 12 17  1  0  0  0
 13 14  1  0  0  0
 14 15  2  0  0  0
 14 16  1  0  0  0
 16 18  1  0  0  0
 17 19  1  0  0  0
  4  5  1  0  0  0
 34 36  1  0  0  0
 34 37  1  0  0  0
 22 23  1  0  0  0
M  END
> <minimizedAffinity>
-9.91964

$$$$
4CRA_XJ8_A_1491


 44 48  0  0  0  0  0  0  0  0999 V2000
  -25.2078  -54.6795  -11.8183 C   0  0  0  0  0  0  0  0  0  0  0  0
  -23.0167  -53.5982  -12.2427 C   0  0  0  0  0  0  0  0  0  0  0  0
  -22.6593  -54.5346  -12.9384 O   0  0  0  0  0  0  0  0  0  0  0  0
  -24.2382  -53.5953  -11.6627 N   0  0  0  0  0  0  0  0  0  0  0  0
  -24.4882  -52.8225  -11.1063 H   0  0  0  0  0  0  0  0  0  0  0  0
  -22.0738  -52.4835  -11.9563 C   0  0  0  0  0  0  0  0  0  0  0  0
  -20.7639  -52.7681  -11.5206 C   0  0  0  0  0  0  0  0  0  0  0  0
  -19.8519  -51.7704  -11.2761 C   0  0  0  0  0  0  0  0  0  0  0  0
  -20.2144  -50.4300  -11.4618 C   0  0  0  0  0  0  0  0  0  0  0  0
  -21.5279  -50.1276  -11.9215 C   0  0  0  0  0  0  0  0  0  0  0  0
  -22.4511  -51.1548  -12.1717 C   0  0  0  0  0  0  0  0  0  0  0  0
  -21.8994  -48.7188  -12.1414 C   0  0  0  0  0  0  0  0  0  0  0  0
  -20.9471  -47.7466  -11.9423 C   0  0  0  0  0  0  0  0  0  0  0  0
  -19.6409  -48.1011  -11.5060 C   0  0  0  0  0  0  0  0  0  0  0  0
  -18.7996  -47.2209  -11.3298 O   0  0  0  0  0  0  0  0  0  0  0  0
  -19.3089  -49.3970  -11.2553 N   0  0  0  0  0  0  0  0  0  0  0  0
  -23.1669  -48.4240  -12.5372 O   0  0  0  0  0  0  0  0  0  0  0  0
  -18.4073  -49.6068  -10.9203 H   0  0  0  0  0  0  0  0  0  0  0  0
  -23.7903  -49.1120  -12.6634 H   0  0  0  0  0  0  0  0  0  0  0  0
  -26.2151  -54.4111  -12.8920 C   0  0  0  0  0  0  0  0  0  0  0  0
  -26.8526  -53.3807  -12.8756 O   0  0  0  0  0  0  0  0  0  0  0  0
  -26.4324  -55.3713  -13.8186 N   0  0  0  0  0  0  0  0  0  0  0  0
  -25.9084  -56.2039  -13.7812 H   0  0  0  0  0  0  0  0  0  0  0  0
  -27.4273  -55.2004  -14.8740 C   0  0  0  0  0  0  0  0  0  0  0  0
  -30.1787  -57.7539  -14.3273 C   0  0  0  0  0  0  0  0  0  0  0  0
  -31.2097  -56.9506  -13.7786 C   0  0  0  0  0  0  0  0  0  0  0  0
  -30.9900  -55.6098  -13.5956 C   0  0  0  0  0  0  0  0  0  0  0  0
  -29.7603  -55.0406  -13.9567 C   0  0  0  0  0  0  0  0  0  0  0  0
  -28.7534  -55.8003  -14.5070 C   0  0  0  0  0  0  0  0  0  0  0  0
  -28.9288  -57.1798  -14.6999 C   0  0  0  0  0  0  0  0  0  0  0  0
  -30.3629  -59.0574  -14.5112 N   0  0  0  0  0  0  0  0  0  0  0  0
  -29.4253  -59.8343  -15.0171 C   0  0  0  0  0  0  0  0  0  0  0  0
  -28.1634  -59.3444  -15.4211 C   0  0  0  0  0  0  0  0  0  0  0  0
  -29.7401  -61.1794  -15.1501 N   0  0  0  0  0  0  0  0  0  0  0  0
  -27.9021  -58.0067  -15.2580 C   0  0  0  0  0  0  0  0  0  0  0  0
  -30.6229  -61.5089  -14.8649 H   0  0  0  0  0  0  0  0  0  0  0  0
  -29.0806  -61.8041  -15.5296 H   0  0  0  0  0  0  0  0  0  0  0  0
  -26.0294  -54.6817  -10.5186 C   0  0  0  0  0  0  0  0  0  0  0  0
  -27.2431  -55.5934  -10.5189 C   0  0  0  0  0  0  0  0  0  0  0  0
  -27.0739  -56.9429  -10.8111 C   0  0  0  0  0  0  0  0  0  0  0  0
  -28.5100  -55.1008  -10.1829 C   0  0  0  0  0  0  0  0  0  0  0  0
  -28.1744  -57.7969  -10.8068 C   0  0  0  0  0  0  0  0  0  0  0  0
  -29.6156  -55.9517  -10.1713 C   0  0  0  0  0  0  0  0  0  0  0  0
  -29.4372  -57.2998  -10.4837 C   0  0  0  0  0  0  0  0  0  0  0  0
 25 26  1  0  0  0
 25 30  1  0  0  0
 25 31  2  0  0  0
 26 27  2  0  0  0
 27 28  1  0  0  0
 28 29  2  0  0  0
 29 30  1  0  0  0
 29 24  1  0  0  0
 30 35  2  0  0  0
 31 32  1  0  0  0
 32 33  2  0  0  0
 32 34  1  0  0  0
 33 35  1  0  0  0
 24 22  1  0  0  0
 22 20  1  0  0  0
 44 42  1  0  0  0
 44 43  2  0  0  0
 42 40  2  0  0  0
 40 39  1  0  0  0
 39 41  2  0  0  0
 39 38  1  0  0  0
 41 43  1  0  0  0
 38  1  1  0  0  0
  1 20  1  0  0  0
  1  4  1  0  0  0
 20 21  2  0  0  0
  4  2  1  0  0  0
  2  3  2  0  0  0
  2  6  1  0  0  0
  6  7  1  0  0  0
  6 11  2  0  0  0
  7  8  2  0  0  0
  8  9  1  0  0  0
  9 10  2  0  0  0
  9 16  1  0  0  0
 10 11  1  0  0  0
 10 12  1  0  0  0
 12 13  2  0  0  0
 12 17  1  0  0  0
 13 14  1  0  0  0
 14 15  2  0  0  0
 14 16  1  0  0  0
 16 18  1  0  0  0
 17 19  1  0  0  0
  4  5  1  0  0  0
 34 36  1  0  0  0
 34 37  1  0  0  0
 22 23  1  0  0  0
M  END
> <minimizedAffinity>
-9.67666

$$$$
4CRA_XJ8_A_1491


 44 48  0  0  0  0  0  0  0  0999 V2000
  -26.7401  -53.8843  -11.3927 C   0  0  0  0  0  0  0  0  0  0  0  0
  -28.9337  -54.5456  -12.3417 C   0  0  0  0  0  0  0  0  0  0  0  0
  -29.3748  -53.4202  -12.1757 O   0  0  0  0  0  0  0  0  0  0  0  0
  -27.6653  -54.8499  -11.9855 N   0  0  0  0  0  0  0  0  0  0  0  0
  -27.3476  -55.7700  -12.1330 H   0  0  0  0  0  0  0  0  0  0  0  0
  -29.8199  -55.6212  -12.8629 C   0  0  0  0  0  0  0  0  0  0  0  0
  -30.4115  -55.4866  -14.1350 C   0  0  0  0  0  0  0  0  0  0  0  0
  -31.2097  -56.4698  -14.6672 C   0  0  0  0  0  0  0  0  0  0  0  0
  -31.4509  -57.6442  -13.9427 C   0  0  0  0  0  0  0  0  0  0  0  0
  -30.8433  -57.8035  -12.6645 C   0  0  0  0  0  0  0  0  0  0  0  0
  -30.0264  -56.7943  -12.1313 C   0  0  0  0  0  0  0  0  0  0  0  0
  -31.0766  -59.0504  -11.9149 C   0  0  0  0  0  0  0  0  0  0  0  0
  -31.8340  -60.0391  -12.4983 C   0  0  0  0  0  0  0  0  0  0  0  0
  -32.3997  -59.8420  -13.7881 C   0  0  0  0  0  0  0  0  0  0  0  0
  -33.0768  -60.7341  -14.2972 O   0  0  0  0  0  0  0  0  0  0  0  0
  -32.2264  -58.6727  -14.4627 N   0  0  0  0  0  0  0  0  0  0  0  0
  -30.5344  -59.1869  -10.6749 O   0  0  0  0  0  0  0  0  0  0  0  0
  -32.6602  -58.5532  -15.3383 H   0  0  0  0  0  0  0  0  0  0  0  0
  -30.0235  -58.4925  -10.3080 H   0  0  0  0  0  0  0  0  0  0  0  0
  -25.7921  -53.2968  -12.3906 C   0  0  0  0  0  0  0  0  0  0  0  0
  -25.7587  -53.7350  -13.5199 O   0  0  0  0  0  0  0  0  0  0  0  0
  -24.9443  -52.3296  -11.9739 N   0  0  0  0  0  0  0  0  0  0  0  0
  -24.9894  -52.0191  -11.0407 H   0  0  0  0  0  0  0  0  0  0  0  0
  -23.9631  -51.7353  -12.8777 C   0  0  0  0  0  0  0  0  0  0  0  0
  -20.4271  -51.0896  -11.6656 C   0  0  0  0  0  0  0  0  0  0  0  0
  -19.9283  -52.4087  -11.5224 C   0  0  0  0  0  0  0  0  0  0  0  0
  -20.7448  -53.4702  -11.8159 C   0  0  0  0  0  0  0  0  0  0  0  0
  -22.0561  -53.2496  -12.2612 C   0  0  0  0  0  0  0  0  0  0  0  0
  -22.5530  -51.9766  -12.4233 C   0  0  0  0  0  0  0  0  0  0  0  0
  -21.7574  -50.8599  -12.1218 C   0  0  0  0  0  0  0  0  0  0  0  0
  -19.6588  -50.0422  -11.3836 N   0  0  0  0  0  0  0  0  0  0  0  0
  -20.0909  -48.8022  -11.5035 C   0  0  0  0  0  0  0  0  0  0  0  0
  -21.3908  -48.4871  -11.9578 C   0  0  0  0  0  0  0  0  0  0  0  0
  -19.1930  -47.7980  -11.1693 N   0  0  0  0  0  0  0  0  0  0  0  0
  -22.2408  -49.5201  -12.2655 C   0  0  0  0  0  0  0  0  0  0  0  0
  -18.2898  -48.0302  -10.8538 H   0  0  0  0  0  0  0  0  0  0  0  0
  -19.4594  -46.8535  -11.2477 H   0  0  0  0  0  0  0  0  0  0  0  0
  -25.8415  -54.7044  -10.4524 C   0  0  0  0  0  0  0  0  0  0  0  0
  -26.5518  -55.3563   -9.2799 C   0  0  0  0  0  0  0  0  0  0  0  0
  -25.9422  -56.4247   -8.6303 C   0  0  0  0  0  0  0  0  0  0  0  0
  -27.7801  -54.8640   -8.8219 C   0  0  0  0  0  0  0  0  0  0  0  0
  -26.5743  -57.0296   -7.5463 C   0  0  0  0  0  0  0  0  0  0  0  0
  -28.4161  -55.4616   -7.7334 C   0  0  0  0  0  0  0  0  0  0  0  0
  -27.8040  -56.5441   -7.1008 C   0  0  0  0  0  0  0  0  0  0  0  0
 25 26  1  0  0  0
 25 30  1  0  0  0
 25 31  2  0  0  0
 26 27  2  0  0  0
 27 28  1  0  0  0
 28 29  2  0  0  0
 29 30  1  0  0  0
 29 24  1  0  0  0
 30 35  2  0  0  0
 31 32  1  0  0  0
 32 33  2  0  0  0
 32 34  1  0  0  0
 33 35  1  0  0  0
 24 22  1  0  0  0
 22 20  1  0  0  0
 44 42  1  0  0  0
 44 43  2  0  0  0
 42 40  2  0  0  0
 40 39  1  0  0  0
 39 41  2  0  0  0
 39 38  1  0  0  0
 41 43  1  0  0  0
 38  1  1  0  0  0
  1 20  1  0  0  0
  1  4  1  0  0  0
 20 21  2  0  0  0
  4  2  1  0  0  0
  2  3  2  0  0  0
  2  6  1  0  0  0
  6  7  1  0  0  0
  6 11  2  0  0  0
  7  8  2  0  0  0
  8  9  1  0  0  0
  9 10  2  0  0  0
  9 16  1  0  0  0
 10 11  1  0  0  0
 10 12  1  0  0  0
 12 13  2  0  0  0
 12 17  1  0  0  0
 13 14  1  0  0  0
 14 15  2  0  0  0
 14 16  1  0  0  0
 16 18  1  0  0  0
 17 19  1  0  0  0
  4  5  1  0  0  0
 34 36  1  0  0  0
 34 37  1  0  0  0
 22 23  1  0  0  0
M  END
> <minimizedAffinity>
-9.60313

$$$$
4CRA_XJ8_A_1491


 44 48  0  0  0  0  0  0  0  0999 V2000
  -22.1727  -51.5873  -13.1471 C   0  0  0  0  0  0  0  0  0  0  0  0
  -24.2470  -52.7530  -13.8460 C   0  0  0  0  0  0  0  0  0  0  0  0
  -24.2176  -52.2075  -14.9371 O   0  0  0  0  0  0  0  0  0  0  0  0
  -23.2915  -52.5025  -12.9226 N   0  0  0  0  0  0  0  0  0  0  0  0
  -23.3520  -52.9603  -12.0531 H   0  0  0  0  0  0  0  0  0  0  0  0
  -25.3875  -53.6395  -13.4894 C   0  0  0  0  0  0  0  0  0  0  0  0
  -25.6571  -54.7823  -14.2690 C   0  0  0  0  0  0  0  0  0  0  0  0
  -26.6797  -55.6445  -13.9560 C   0  0  0  0  0  0  0  0  0  0  0  0
  -27.4838  -55.3991  -12.8354 C   0  0  0  0  0  0  0  0  0  0  0  0
  -27.2106  -54.2596  -12.0262 C   0  0  0  0  0  0  0  0  0  0  0  0
  -26.1610  -53.3868  -12.3528 C   0  0  0  0  0  0  0  0  0  0  0  0
  -28.0406  -54.0171  -10.8331 C   0  0  0  0  0  0  0  0  0  0  0  0
  -29.0200  -54.9286  -10.5144 C   0  0  0  0  0  0  0  0  0  0  0  0
  -29.2385  -56.0648  -11.3412 C   0  0  0  0  0  0  0  0  0  0  0  0
  -30.1194  -56.8709  -11.0454 O   0  0  0  0  0  0  0  0  0  0  0  0
  -28.5060  -56.2661  -12.4705 N   0  0  0  0  0  0  0  0  0  0  0  0
  -27.8110  -52.9055  -10.0836 O   0  0  0  0  0  0  0  0  0  0  0  0
  -28.7048  -57.0433  -13.0412 H   0  0  0  0  0  0  0  0  0  0  0  0
  -27.1349  -52.3055  -10.3303 H   0  0  0  0  0  0  0  0  0  0  0  0
  -20.9507  -52.2770  -13.6675 C   0  0  0  0  0  0  0  0  0  0  0  0
  -20.4458  -51.9062  -14.7048 O   0  0  0  0  0  0  0  0  0  0  0  0
  -20.4848  -53.3496  -12.9891 N   0  0  0  0  0  0  0  0  0  0  0  0
  -20.9397  -53.6314  -12.1628 H   0  0  0  0  0  0  0  0  0  0  0  0
  -19.3215  -54.0994  -13.4553 C   0  0  0  0  0  0  0  0  0  0  0  0
  -18.2827  -57.6814  -12.7628 C   0  0  0  0  0  0  0  0  0  0  0  0
  -19.5099  -58.2615  -12.3547 C   0  0  0  0  0  0  0  0  0  0  0  0
  -20.6377  -57.4831  -12.3095 C   0  0  0  0  0  0  0  0  0  0  0  0
  -20.5759  -56.1299  -12.6722 C   0  0  0  0  0  0  0  0  0  0  0  0
  -19.3979  -55.5527  -13.0879 C   0  0  0  0  0  0  0  0  0  0  0  0
  -18.2153  -56.3079  -13.1366 C   0  0  0  0  0  0  0  0  0  0  0  0
  -17.1730  -58.4116  -12.8113 N   0  0  0  0  0  0  0  0  0  0  0  0
  -16.0146  -57.9041  -13.1841 C   0  0  0  0  0  0  0  0  0  0  0  0
  -15.8630  -56.5564  -13.5794 C   0  0  0  0  0  0  0  0  0  0  0  0
  -14.9298  -58.7698  -13.1837 N   0  0  0  0  0  0  0  0  0  0  0  0
  -16.9677  -55.7420  -13.5516 C   0  0  0  0  0  0  0  0  0  0  0  0
  -15.0480  -59.7070  -12.9061 H   0  0  0  0  0  0  0  0  0  0  0  0
  -14.0421  -58.4468  -13.4610 H   0  0  0  0  0  0  0  0  0  0  0  0
  -21.7636  -51.0925  -11.7499 C   0  0  0  0  0  0  0  0  0  0  0  0
  -20.8868  -49.8536  -11.7305 C   0  0  0  0  0  0  0  0  0  0  0  0
  -21.4759  -48.6064  -11.9114 C   0  0  0  0  0  0  0  0  0  0  0  0
  -19.5117  -49.9521  -11.4857 C   0  0  0  0  0  0  0  0  0  0  0  0
  -20.6889  -47.4573  -11.8871 C   0  0  0  0  0  0  0  0  0  0  0  0
  -18.7183  -48.8048  -11.4546 C   0  0  0  0  0  0  0  0  0  0  0  0
  -19.3171  -47.5606  -11.6554 C   0  0  0  0  0  0  0  0  0  0  0  0
 25 26  1  0  0  0
 25 30  1  0  0  0
 25 31  2  0  0  0
 26 27  2  0  0  0
 27 28  1  0  0  0
 28 29  2  0  0  0
 29 30  1  0  0  0
 29 24  1  0  0  0
 30 35  2  0  0  0
 31 32  1  0  0  0
 32 33  2  0  0  0
 32 34  1  0  0  0
 33 35  1  0  0  0
 24 22  1  0  0  0
 22 20  1  0  0  0
 44 42  1  0  0  0
 44 43  2  0  0  0
 42 40  2  0  0  0
 40 39  1  0  0  0
 39 41  2  0  0  0
 39 38  1  0  0  0
 41 43  1  0  0  0
 38  1  1  0  0  0
  1 20  1  0  0  0
  1  4  1  0  0  0
 20 21  2  0  0  0
  4  2  1  0  0  0
  2  3  2  0  0  0
  2  6  1  0  0  0
  6  7  1  0  0  0
  6 11  2  0  0  0
  7  8  2  0  0  0
  8  9  1  0  0  0
  9 10  2  0  0  0
  9 16  1  0  0  0
 10 11  1  0  0  0
 10 12  1  0  0  0
 12 13  2  0  0  0
 12 17  1  0  0  0
 13 14  1  0  0  0
 14 15  2  0  0  0
 14 16  1  0  0  0
 16 18  1  0  0  0
 17 19  1  0  0  0
  4  5  1  0  0  0
 34 36  1  0  0  0
 34 37  1  0  0  0
 22 23  1  0  0  0
M  END
> <minimizedAffinity>
-9.48814

$$$$
4CRA_XJ8_A_1491


 44 48  0  0  0  0  0  0  0  0999 V2000
  -23.5901  -51.3825  -12.7543 C   0  0  0  0  0  0  0  0  0  0  0  0
  -24.8817  -53.3383  -11.9441 C   0  0  0  0  0  0  0  0  0  0  0  0
  -23.9703  -54.0950  -12.2366 O   0  0  0  0  0  0  0  0  0  0  0  0
  -24.7740  -52.0088  -12.1662 N   0  0  0  0  0  0  0  0  0  0  0  0
  -25.5324  -51.4319  -11.9190 H   0  0  0  0  0  0  0  0  0  0  0  0
  -26.1603  -53.8852  -11.4150 C   0  0  0  0  0  0  0  0  0  0  0  0
  -27.3097  -53.8936  -12.2307 C   0  0  0  0  0  0  0  0  0  0  0  0
  -28.5013  -54.4185  -11.7930 C   0  0  0  0  0  0  0  0  0  0  0  0
  -28.5945  -54.9662  -10.5070 C   0  0  0  0  0  0  0  0  0  0  0  0
  -27.4362  -54.9835   -9.6786 C   0  0  0  0  0  0  0  0  0  0  0  0
  -26.2225  -54.4478  -10.1369 C   0  0  0  0  0  0  0  0  0  0  0  0
  -27.5290  -55.5835   -8.3361 C   0  0  0  0  0  0  0  0  0  0  0  0
  -28.7200  -56.1514   -7.9481 C   0  0  0  0  0  0  0  0  0  0  0  0
  -29.8423  -56.1305   -8.8212 C   0  0  0  0  0  0  0  0  0  0  0  0
  -30.9022  -56.6404   -8.4604 O   0  0  0  0  0  0  0  0  0  0  0  0
  -29.7741  -55.5344  -10.0428 N   0  0  0  0  0  0  0  0  0  0  0  0
  -26.4367  -55.5612   -7.5257 O   0  0  0  0  0  0  0  0  0  0  0  0
  -30.5783  -55.5052  -10.6098 H   0  0  0  0  0  0  0  0  0  0  0  0
  -25.6410  -55.1656   -7.8228 H   0  0  0  0  0  0  0  0  0  0  0  0
  -23.0591  -52.1332  -13.9350 C   0  0  0  0  0  0  0  0  0  0  0  0
  -23.7106  -52.1900  -14.9552 O   0  0  0  0  0  0  0  0  0  0  0  0
  -21.8851  -52.7899  -13.7992 N   0  0  0  0  0  0  0  0  0  0  0  0
  -21.3995  -52.7363  -12.9445 H   0  0  0  0  0  0  0  0  0  0  0  0
  -21.3216  -53.5770  -14.8927 C   0  0  0  0  0  0  0  0  0  0  0  0
  -17.8410  -55.0528  -15.2043 C   0  0  0  0  0  0  0  0  0  0  0  0
  -17.5231  -55.3245  -13.8500 C   0  0  0  0  0  0  0  0  0  0  0  0
  -18.4358  -55.0217  -12.8728 C   0  0  0  0  0  0  0  0  0  0  0  0
  -19.6734  -54.4572  -13.2139 C   0  0  0  0  0  0  0  0  0  0  0  0
  -20.0077  -54.2022  -14.5242 C   0  0  0  0  0  0  0  0  0  0  0  0
  -19.0989  -54.4833  -15.5567 C   0  0  0  0  0  0  0  0  0  0  0  0
  -16.9730  -55.3320  -16.1715 N   0  0  0  0  0  0  0  0  0  0  0  0
  -17.2350  -55.0906  -17.4410 C   0  0  0  0  0  0  0  0  0  0  0  0
  -18.4599  -54.5377  -17.8762 C   0  0  0  0  0  0  0  0  0  0  0  0
  -16.2415  -55.4202  -18.3524 N   0  0  0  0  0  0  0  0  0  0  0  0
  -19.4036  -54.2218  -16.9307 C   0  0  0  0  0  0  0  0  0  0  0  0
  -15.3920  -55.8049  -18.0369 H   0  0  0  0  0  0  0  0  0  0  0  0
  -16.3863  -55.2692  -19.3144 H   0  0  0  0  0  0  0  0  0  0  0  0
  -22.4870  -51.5166  -11.6915 C   0  0  0  0  0  0  0  0  0  0  0  0
  -21.4908  -50.3724  -11.6411 C   0  0  0  0  0  0  0  0  0  0  0  0
  -20.1559  -50.6508  -11.3665 C   0  0  0  0  0  0  0  0  0  0  0  0
  -21.8928  -49.0592  -11.9144 C   0  0  0  0  0  0  0  0  0  0  0  0
  -19.2253  -49.6151  -11.3256 C   0  0  0  0  0  0  0  0  0  0  0  0
  -20.9651  -48.0177  -11.8804 C   0  0  0  0  0  0  0  0  0  0  0  0
  -19.6320  -48.3062  -11.5860 C   0  0  0  0  0  0  0  0  0  0  0  0
 25 26  1  0  0  0
 25 30  1  0  0  0
 25 31  2  0  0  0
 26 27  2  0  0  0
 27 28  1  0  0  0
 28 29  2  0  0  0
 29 30  1  0  0  0
 29 24  1  0  0  0
 30 35  2  0  0  0
 31 32  1  0  0  0
 32 33  2  0  0  0
 32 34  1  0  0  0
 33 35  1  0  0  0
 24 22  1  0  0  0
 22 20  1  0  0  0
 44 42  1  0  0  0
 44 43  2  0  0  0
 42 40  2  0  0  0
 40 39  1  0  0  0
 39 41  2  0  0  0
 39 38  1  0  0  0
 41 43  1  0  0  0
 38  1  1  0  0  0
  1 20  1  0  0  0
  1  4  1  0  0  0
 20 21  2  0  0  0
  4  2  1  0  0  0
  2  3  2  0  0  0
  2  6  1  0  0  0
  6  7  1  0  0  0
  6 11  2  0  0  0
  7  8  2  0  0  0
  8  9  1  0  0  0
  9 10  2  0  0  0
  9 16  1  0  0  0
 10 11  1  0  0  0
 10 12  1  0  0  0
 12 13  2  0  0  0
 12 17  1  0  0  0
 13 14  1  0  0  0
 14 15  2  0  0  0
 14 16  1  0  0  0
 16 18  1  0  0  0
 17 19  1  0  0  0
  4  5  1  0  0  0
 34 36  1  0  0  0
 34 37  1  0  0  0
 22 23  1  0  0  0
M  END
> <minimizedAffinity>
-9.20872

$$$$
4CRA_XJ8_A_1491


 44 48  0  0  0  0  0  0  0  0999 V2000
  -25.7858  -54.2136  -11.5059 C   0  0  0  0  0  0  0  0  0  0  0  0
  -23.7364  -53.0941  -12.3407 C   0  0  0  0  0  0  0  0  0  0  0  0
  -23.8393  -53.6525  -13.4207 O   0  0  0  0  0  0  0  0  0  0  0  0
  -24.6401  -53.3159  -11.3596 N   0  0  0  0  0  0  0  0  0  0  0  0
  -24.5207  -52.8485  -10.5014 H   0  0  0  0  0  0  0  0  0  0  0  0
  -22.5619  -52.2239  -12.0635 C   0  0  0  0  0  0  0  0  0  0  0  0
  -21.3297  -52.8044  -11.7012 C   0  0  0  0  0  0  0  0  0  0  0  0
  -20.2125  -52.0397  -11.4682 C   0  0  0  0  0  0  0  0  0  0  0  0
  -20.2802  -50.6459  -11.5917 C   0  0  0  0  0  0  0  0  0  0  0  0
  -21.5131  -50.0463  -11.9772 C   0  0  0  0  0  0  0  0  0  0  0  0
  -22.6478  -50.8371  -12.2164 C   0  0  0  0  0  0  0  0  0  0  0  0
  -21.5760  -48.5824  -12.1322 C   0  0  0  0  0  0  0  0  0  0  0  0
  -20.4270  -47.8494  -11.9472 C   0  0  0  0  0  0  0  0  0  0  0  0
  -19.2135  -48.4973  -11.5865 C   0  0  0  0  0  0  0  0  0  0  0  0
  -18.1938  -47.8290  -11.4222 O   0  0  0  0  0  0  0  0  0  0  0  0
  -19.1632  -49.8438  -11.3951 N   0  0  0  0  0  0  0  0  0  0  0  0
  -22.7631  -48.0029  -12.4563 O   0  0  0  0  0  0  0  0  0  0  0  0
  -18.3167  -50.2584  -11.1112 H   0  0  0  0  0  0  0  0  0  0  0  0
  -23.5264  -48.5332  -12.5749 H   0  0  0  0  0  0  0  0  0  0  0  0
  -26.8442  -53.9811  -10.4738 C   0  0  0  0  0  0  0  0  0  0  0  0
  -27.2579  -52.8591  -10.2778 O   0  0  0  0  0  0  0  0  0  0  0  0
  -27.2598  -55.0351   -9.7362 N   0  0  0  0  0  0  0  0  0  0  0  0
  -26.8799  -55.9261   -9.9128 H   0  0  0  0  0  0  0  0  0  0  0  0
  -28.2599  -54.8811   -8.6832 C   0  0  0  0  0  0  0  0  0  0  0  0
  -29.3828  -58.2243   -7.2862 C   0  0  0  0  0  0  0  0  0  0  0  0
  -28.4941  -58.3914   -6.1946 C   0  0  0  0  0  0  0  0  0  0  0  0
  -27.5548  -57.4256   -5.9403 C   0  0  0  0  0  0  0  0  0  0  0  0
  -27.4826  -56.2816   -6.7482 C   0  0  0  0  0  0  0  0  0  0  0  0
  -28.3478  -56.0927   -7.8016 C   0  0  0  0  0  0  0  0  0  0  0  0
  -29.3166  -57.0617   -8.1075 C   0  0  0  0  0  0  0  0  0  0  0  0
  -30.3000  -59.1471   -7.5583 N   0  0  0  0  0  0  0  0  0  0  0  0
  -31.1410  -59.0249   -8.5665 C   0  0  0  0  0  0  0  0  0  0  0  0
  -31.1492  -57.9010   -9.4222 C   0  0  0  0  0  0  0  0  0  0  0  0
  -32.0447  -60.0624   -8.7490 N   0  0  0  0  0  0  0  0  0  0  0  0
  -30.2269  -56.9085   -9.2017 C   0  0  0  0  0  0  0  0  0  0  0  0
  -32.0292  -60.8405   -8.1460 H   0  0  0  0  0  0  0  0  0  0  0  0
  -32.7013  -60.0201   -9.4813 H   0  0  0  0  0  0  0  0  0  0  0  0
  -25.2469  -55.6181  -11.1875 C   0  0  0  0  0  0  0  0  0  0  0  0
  -25.2190  -56.5841  -12.3581 C   0  0  0  0  0  0  0  0  0  0  0  0
  -24.0603  -57.3133  -12.6044 C   0  0  0  0  0  0  0  0  0  0  0  0
  -26.3549  -56.7801  -13.1531 C   0  0  0  0  0  0  0  0  0  0  0  0
  -24.0190  -58.2117  -13.6682 C   0  0  0  0  0  0  0  0  0  0  0  0
  -26.3222  -57.6822  -14.2169 C   0  0  0  0  0  0  0  0  0  0  0  0
  -25.1488  -58.3950  -14.4659 C   0  0  0  0  0  0  0  0  0  0  0  0
 25 26  1  0  0  0
 25 30  1  0  0  0
 25 31  2  0  0  0
 26 27  2  0  0  0
 27 28  1  0  0  0
 28 29  2  0  0  0
 29 30  1  0  0  0
 29 24  1  0  0  0
 30 35  2  0  0  0
 31 32  1  0  0  0
 32 33  2  0  0  0
 32 34  1  0  0  0
 33 35  1  0  0  0
 24 22  1  0  0  0
 22 20  1  0  0  0
 44 42  1  0  0  0
 44 43  2  0  0  0
 42 40  2  0  0  0
 40 39  1  0  0  0
 39 41  2  0  0  0
 39 38  1  0  0  0
 41 43  1  0  0  0
 38  1  1  0  0  0
  1 20  1  0  0  0
  1  4  1  0  0  0
 20 21  2  0  0  0
  4  2  1  0  0  0
  2  3  2  0  0  0
  2  6  1  0  0  0
  6  7  1  0  0  0
  6 11  2  0  0  0
  7  8  2  0  0  0
  8  9  1  0  0  0
  9 10  2  0  0  0
  9 16  1  0  0  0
 10 11  1  0  0  0
 10 12  1  0  0  0
 12 13  2  0  0  0
 12 17  1  0  0  0
 13 14  1  0  0  0
 14 15  2  0  0  0
 14 16  1  0  0  0
 16 18  1  0  0  0
 17 19  1  0  0  0
  4  5  1  0  0  0
 34 36  1  0  0  0
 34 37  1  0  0  0
 22 23  1  0  0  0
M  END
> <minimizedAffinity>
-9.19792

$$$$
4CRA_XJ8_A_1491


 44 48  0  0  0  0  0  0  0  0999 V2000
  -24.8850  -54.6986  -13.0232 C   0  0  0  0  0  0  0  0  0  0  0  0
  -23.7668  -52.7829  -11.9143 C   0  0  0  0  0  0  0  0  0  0  0  0
  -24.8126  -52.4446  -11.3847 O   0  0  0  0  0  0  0  0  0  0  0  0
  -23.7210  -53.8644  -12.7245 N   0  0  0  0  0  0  0  0  0  0  0  0
  -22.8587  -54.1031  -13.1352 H   0  0  0  0  0  0  0  0  0  0  0  0
  -22.5436  -51.9541  -11.7390 C   0  0  0  0  0  0  0  0  0  0  0  0
  -21.3190  -52.5720  -11.4149 C   0  0  0  0  0  0  0  0  0  0  0  0
  -20.1599  -51.8480  -11.2760 C   0  0  0  0  0  0  0  0  0  0  0  0
  -20.1758  -50.4594  -11.4600 C   0  0  0  0  0  0  0  0  0  0  0  0
  -21.4015  -49.8233  -11.8079 C   0  0  0  0  0  0  0  0  0  0  0  0
  -22.5796  -50.5729  -11.9510 C   0  0  0  0  0  0  0  0  0  0  0  0
  -21.4114  -48.3663  -12.0268 C   0  0  0  0  0  0  0  0  0  0  0  0
  -20.2245  -47.6774  -11.9359 C   0  0  0  0  0  0  0  0  0  0  0  0
  -19.0215  -48.3618  -11.6093 C   0  0  0  0  0  0  0  0  0  0  0  0
  -17.9673  -47.7327  -11.5293 O   0  0  0  0  0  0  0  0  0  0  0  0
  -19.0172  -49.6996  -11.3590 N   0  0  0  0  0  0  0  0  0  0  0  0
  -22.5890  -47.7496  -12.3151 O   0  0  0  0  0  0  0  0  0  0  0  0
  -18.1747  -50.1384  -11.1006 H   0  0  0  0  0  0  0  0  0  0  0  0
  -23.3791  -48.2503  -12.3692 H   0  0  0  0  0  0  0  0  0  0  0  0
  -25.0035  -55.8811  -12.1137 C   0  0  0  0  0  0  0  0  0  0  0  0
  -24.1117  -56.7005  -12.0721 O   0  0  0  0  0  0  0  0  0  0  0  0
  -26.1479  -56.0340  -11.4103 N   0  0  0  0  0  0  0  0  0  0  0  0
  -26.8572  -55.3561  -11.4916 H   0  0  0  0  0  0  0  0  0  0  0  0
  -26.3550  -57.1826  -10.5325 C   0  0  0  0  0  0  0  0  0  0  0  0
  -28.8345  -56.5749   -7.7267 C   0  0  0  0  0  0  0  0  0  0  0  0
  -27.9883  -56.0939   -6.6962 C   0  0  0  0  0  0  0  0  0  0  0  0
  -26.6422  -55.9821   -6.9309 C   0  0  0  0  0  0  0  0  0  0  0  0
  -26.1126  -56.3325   -8.1813 C   0  0  0  0  0  0  0  0  0  0  0  0
  -26.9198  -56.7846   -9.2000 C   0  0  0  0  0  0  0  0  0  0  0  0
  -28.3020  -56.9281   -9.0004 C   0  0  0  0  0  0  0  0  0  0  0  0
  -30.1426  -56.6977   -7.5250 N   0  0  0  0  0  0  0  0  0  0  0  0
  -30.9582  -57.1434   -8.4602 C   0  0  0  0  0  0  0  0  0  0  0  0
  -30.5143  -57.5054   -9.7515 C   0  0  0  0  0  0  0  0  0  0  0  0
  -32.3009  -57.2327   -8.1204 N   0  0  0  0  0  0  0  0  0  0  0  0
  -29.1738  -57.4063  -10.0303 C   0  0  0  0  0  0  0  0  0  0  0  0
  -32.5981  -56.9774   -7.2172 H   0  0  0  0  0  0  0  0  0  0  0  0
  -32.9561  -57.5513   -8.7825 H   0  0  0  0  0  0  0  0  0  0  0  0
  -24.6050  -55.3096  -14.4061 C   0  0  0  0  0  0  0  0  0  0  0  0
  -25.8233  -55.4974  -15.2920 C   0  0  0  0  0  0  0  0  0  0  0  0
  -26.7012  -56.5417  -15.0205 C   0  0  0  0  0  0  0  0  0  0  0  0
  -26.0926  -54.6074  -16.3390 C   0  0  0  0  0  0  0  0  0  0  0  0
  -27.8297  -56.7241  -15.8166 C   0  0  0  0  0  0  0  0  0  0  0  0
  -27.2238  -54.7810  -17.1369 C   0  0  0  0  0  0  0  0  0  0  0  0
  -28.0879  -55.8426  -16.8666 C   0  0  0  0  0  0  0  0  0  0  0  0
 25 26  1  0  0  0
 25 30  1  0  0  0
 25 31  2  0  0  0
 26 27  2  0  0  0
 27 28  1  0  0  0
 28 29  2  0  0  0
 29 30  1  0  0  0
 29 24  1  0  0  0
 30 35  2  0  0  0
 31 32  1  0  0  0
 32 33  2  0  0  0
 32 34  1  0  0  0
 33 35  1  0  0  0
 24 22  1  0  0  0
 22 20  1  0  0  0
 44 42  1  0  0  0
 44 43  2  0  0  0
 42 40  2  0  0  0
 40 39  1  0  0  0
 39 41  2  0  0  0
 39 38  1  0  0  0
 41 43  1  0  0  0
 38  1  1  0  0  0
  1 20  1  0  0  0
  1  4  1  0  0  0
 20 21  2  0  0  0
  4  2  1  0  0  0
  2  3  2  0  0  0
  2  6  1  0  0  0
  6  7  1  0  0  0
  6 11  2  0  0  0
  7  8  2  0  0  0
  8  9  1  0  0  0
  9 10  2  0  0  0
  9 16  1  0  0  0
 10 11  1  0  0  0
 10 12  1  0  0  0
 12 13  2  0  0  0
 12 17  1  0  0  0
 13 14  1  0  0  0
 14 15  2  0  0  0
 14 16  1  0  0  0
 16 18  1  0  0  0
 17 19  1  0  0  0
  4  5  1  0  0  0
 34 36  1  0  0  0
 34 37  1  0  0  0
 22 23  1  0  0  0
M  END
> <minimizedAffinity>
-9.18341

$$$$
4CRA_XJ8_A_1491


 44 48  0  0  0  0  0  0  0  0999 V2000
  -25.5536  -54.4028  -12.4840 C   0  0  0  0  0  0  0  0  0  0  0  0
  -23.5161  -53.0140  -12.7484 C   0  0  0  0  0  0  0  0  0  0  0  0
  -22.9053  -53.9544  -13.2293 O   0  0  0  0  0  0  0  0  0  0  0  0
  -24.8040  -53.1528  -12.3604 N   0  0  0  0  0  0  0  0  0  0  0  0
  -25.2614  -52.3712  -11.9742 H   0  0  0  0  0  0  0  0  0  0  0  0
  -22.8194  -51.7220  -12.5056 C   0  0  0  0  0  0  0  0  0  0  0  0
  -23.5711  -50.5428  -12.3295 C   0  0  0  0  0  0  0  0  0  0  0  0
  -22.9693  -49.3352  -12.0713 C   0  0  0  0  0  0  0  0  0  0  0  0
  -21.5741  -49.2551  -11.9743 C   0  0  0  0  0  0  0  0  0  0  0  0
  -20.8022  -50.4418  -12.1295 C   0  0  0  0  0  0  0  0  0  0  0  0
  -21.4273  -51.6713  -12.3895 C   0  0  0  0  0  0  0  0  0  0  0  0
  -19.3366  -50.3606  -12.0012 C   0  0  0  0  0  0  0  0  0  0  0  0
  -18.7680  -49.1485  -11.6864 C   0  0  0  0  0  0  0  0  0  0  0  0
  -19.5839  -47.9962  -11.5173 C   0  0  0  0  0  0  0  0  0  0  0  0
  -19.0617  -46.9179  -11.2378 O   0  0  0  0  0  0  0  0  0  0  0  0
  -20.9334  -48.0575  -11.6827 N   0  0  0  0  0  0  0  0  0  0  0  0
  -18.5936  -51.4836  -12.1933 O   0  0  0  0  0  0  0  0  0  0  0  0
  -21.4673  -47.2351  -11.5937 H   0  0  0  0  0  0  0  0  0  0  0  0
  -19.0145  -52.2931  -12.4068 H   0  0  0  0  0  0  0  0  0  0  0  0
  -27.0349  -54.1933  -12.5197 C   0  0  0  0  0  0  0  0  0  0  0  0
  -27.5131  -53.1909  -12.0349 O   0  0  0  0  0  0  0  0  0  0  0  0
  -27.8067  -55.1751  -13.0376 N   0  0  0  0  0  0  0  0  0  0  0  0
  -27.3781  -55.9839  -13.3999 H   0  0  0  0  0  0  0  0  0  0  0  0
  -29.2624  -55.0621  -13.0713 C   0  0  0  0  0  0  0  0  0  0  0  0
  -30.7327  -57.7552  -10.8409 C   0  0  0  0  0  0  0  0  0  0  0  0
  -31.2523  -58.6652  -11.7954 C   0  0  0  0  0  0  0  0  0  0  0  0
  -31.1190  -58.3853  -13.1310 C   0  0  0  0  0  0  0  0  0  0  0  0
  -30.4673  -57.2147  -13.5449 C   0  0  0  0  0  0  0  0  0  0  0  0
  -29.9407  -56.3277  -12.6340 C   0  0  0  0  0  0  0  0  0  0  0  0
  -30.0657  -56.5664  -11.2562 C   0  0  0  0  0  0  0  0  0  0  0  0
  -30.8520  -57.9993   -9.5397 N   0  0  0  0  0  0  0  0  0  0  0  0
  -30.3824  -57.1740   -8.6248 C   0  0  0  0  0  0  0  0  0  0  0  0
  -29.7007  -55.9805   -8.9508 C   0  0  0  0  0  0  0  0  0  0  0  0
  -30.5792  -57.5399   -7.3006 N   0  0  0  0  0  0  0  0  0  0  0  0
  -29.5425  -55.6628  -10.2768 C   0  0  0  0  0  0  0  0  0  0  0  0
  -31.0559  -58.3741   -7.0860 H   0  0  0  0  0  0  0  0  0  0  0  0
  -30.2421  -56.9652   -6.5758 H   0  0  0  0  0  0  0  0  0  0  0  0
  -25.3085  -55.1575  -11.1669 C   0  0  0  0  0  0  0  0  0  0  0  0
  -25.3181  -56.6716  -11.2742 C   0  0  0  0  0  0  0  0  0  0  0  0
  -26.2605  -57.3941  -10.5497 C   0  0  0  0  0  0  0  0  0  0  0  0
  -24.4267  -57.3358  -12.1257 C   0  0  0  0  0  0  0  0  0  0  0  0
  -26.2910  -58.7836  -10.6428 C   0  0  0  0  0  0  0  0  0  0  0  0
  -24.4552  -58.7269  -12.2280 C   0  0  0  0  0  0  0  0  0  0  0  0
  -25.3929  -59.4426  -11.4828 C   0  0  0  0  0  0  0  0  0  0  0  0
 25 26  1  0  0  0
 25 30  1  0  0  0
 25 31  2  0  0  0
 26 27  2  0  0  0
 27 28  1  0  0  0
 28 29  2  0  0  0
 29 30  1  0  0  0
 29 24  1  0  0  0
 30 35  2  0  0  0
 31 32  1  0  0  0
 32 33  2  0  0  0
 32 34  1  0  0  0
 33 35  1  0  0  0
 24 22  1  0  0  0
 22 20  1  0  0  0
 44 42  1  0  0  0
 44 43  2  0  0  0
 42 40  2  0  0  0
 40 39  1  0  0  0
 39 41  2  0  0  0
 39 38  1  0  0  0
 41 43  1  0  0  0
 38  1  1  0  0  0
  1 20  1  0  0  0
  1  4  1  0  0  0
 20 21  2  0  0  0
  4  2  1  0  0  0
  2  3  2  0  0  0
  2  6  1  0  0  0
  6  7  1  0  0  0
  6 11  2  0  0  0
  7  8  2  0  0  0
  8  9  1  0  0  0
  9 10  2  0  0  0
  9 16  1  0  0  0
 10 11  1  0  0  0
 10 12  1  0  0  0
 12 13  2  0  0  0
 12 17  1  0  0  0
 13 14  1  0  0  0
 14 15  2  0  0  0
 14 16  1  0  0  0
 16 18  1  0  0  0
 17 19  1  0  0  0
  4  5  1  0  0  0
 34 36  1  0  0  0
 34 37  1  0  0  0
 22 23  1  0  0  0
M  END
> <minimizedAffinity>
-9.14668

$$$$
4CRA_XJ8_A_1491


 44 48  0  0  0  0  0  0  0  0999 V2000
  -26.1293  -53.9689  -11.3455 C   0  0  0  0  0  0  0  0  0  0  0  0
  -24.3825  -52.3687  -12.0789 C   0  0  0  0  0  0  0  0  0  0  0  0
  -25.0202  -52.0908  -13.0813 O   0  0  0  0  0  0  0  0  0  0  0  0
  -24.8528  -53.2719  -11.1893 N   0  0  0  0  0  0  0  0  0  0  0  0
  -24.3071  -53.4710  -10.3944 H   0  0  0  0  0  0  0  0  0  0  0  0
  -23.0346  -51.7750  -11.8680 C   0  0  0  0  0  0  0  0  0  0  0  0
  -21.9427  -52.6093  -11.5546 C   0  0  0  0  0  0  0  0  0  0  0  0
  -20.6759  -52.1062  -11.3837 C   0  0  0  0  0  0  0  0  0  0  0  0
  -20.4439  -50.7317  -11.5233 C   0  0  0  0  0  0  0  0  0  0  0  0
  -21.5335  -49.8787  -11.8601 C   0  0  0  0  0  0  0  0  0  0  0  0
  -22.8234  -50.4034  -12.0360 C   0  0  0  0  0  0  0  0  0  0  0  0
  -21.2831  -48.4370  -12.0323 C   0  0  0  0  0  0  0  0  0  0  0  0
  -19.9945  -47.9720  -11.9104 C   0  0  0  0  0  0  0  0  0  0  0  0
  -18.9356  -48.8679  -11.5968 C   0  0  0  0  0  0  0  0  0  0  0  0
  -17.7880  -48.4379  -11.4887 O   0  0  0  0  0  0  0  0  0  0  0  0
  -19.1709  -50.1922  -11.3893 N   0  0  0  0  0  0  0  0  0  0  0  0
  -22.3294  -47.6133  -12.3097 O   0  0  0  0  0  0  0  0  0  0  0  0
  -18.4225  -50.7807  -11.1387 H   0  0  0  0  0  0  0  0  0  0  0  0
  -23.1948  -47.9646  -12.3858 H   0  0  0  0  0  0  0  0  0  0  0  0
  -26.6492  -54.5288  -10.0588 C   0  0  0  0  0  0  0  0  0  0  0  0
  -25.9296  -55.2156   -9.3666 O   0  0  0  0  0  0  0  0  0  0  0  0
  -27.9437  -54.3035   -9.7407 N   0  0  0  0  0  0  0  0  0  0  0  0
  -28.4999  -53.7591  -10.3436 H   0  0  0  0  0  0  0  0  0  0  0  0
  -28.5352  -54.8500   -8.5224 C   0  0  0  0  0  0  0  0  0  0  0  0
  -29.0271  -58.5566   -7.8829 C   0  0  0  0  0  0  0  0  0  0  0  0
  -29.8489  -58.9290   -8.9761 C   0  0  0  0  0  0  0  0  0  0  0  0
  -30.2259  -57.9764   -9.8872 C   0  0  0  0  0  0  0  0  0  0  0  0
  -29.7939  -56.6503   -9.7408 C   0  0  0  0  0  0  0  0  0  0  0  0
  -28.9815  -56.2726   -8.6963 C   0  0  0  0  0  0  0  0  0  0  0  0
  -28.5819  -57.2114   -7.7319 C   0  0  0  0  0  0  0  0  0  0  0  0
  -28.6506  -59.4588   -6.9823 N   0  0  0  0  0  0  0  0  0  0  0  0
  -27.8886  -59.1469   -5.9524 C   0  0  0  0  0  0  0  0  0  0  0  0
  -27.3965  -57.8408   -5.7344 C   0  0  0  0  0  0  0  0  0  0  0  0
  -27.5734  -60.1789   -5.0796 N   0  0  0  0  0  0  0  0  0  0  0  0
  -27.7475  -56.8562   -6.6243 C   0  0  0  0  0  0  0  0  0  0  0  0
  -27.9224  -61.0850   -5.2421 H   0  0  0  0  0  0  0  0  0  0  0  0
  -27.0008  -60.0048   -4.2978 H   0  0  0  0  0  0  0  0  0  0  0  0
  -25.8157  -55.2083  -12.1998 C   0  0  0  0  0  0  0  0  0  0  0  0
  -26.7375  -55.4306  -13.3851 C   0  0  0  0  0  0  0  0  0  0  0  0
  -26.2617  -56.1314  -14.4885 C   0  0  0  0  0  0  0  0  0  0  0  0
  -28.0639  -54.9826  -13.3559 C   0  0  0  0  0  0  0  0  0  0  0  0
  -27.0960  -56.3536  -15.5818 C   0  0  0  0  0  0  0  0  0  0  0  0
  -28.9065  -55.2064  -14.4451 C   0  0  0  0  0  0  0  0  0  0  0  0
  -28.4132  -55.8948  -15.5540 C   0  0  0  0  0  0  0  0  0  0  0  0
 25 26  1  0  0  0
 25 30  1  0  0  0
 25 31  2  0  0  0
 26 27  2  0  0  0
 27 28  1  0  0  0
 28 29  2  0  0  0
 29 30  1  0  0  0
 29 24  1  0  0  0
 30 35  2  0  0  0
 31 32  1  0  0  0
 32 33  2  0  0  0
 32 34  1  0  0  0
 33 35  1  0  0  0
 24 22  1  0  0  0
 22 20  1  0  0  0
 44 42  1  0  0  0
 44 43  2  0  0  0
 42 40  2  0  0  0
 40 39  1  0  0  0
 39 41  2  0  0  0
 39 38  1  0  0  0
 41 43  1  0  0  0
 38  1  1  0  0  0
  1 20  1  0  0  0
  1  4  1  0  0  0
 20 21  2  0  0  0
  4  2  1  0  0  0
  2  3  2  0  0  0
  2  6  1  0  0  0
  6  7  1  0  0  0
  6 11  2  0  0  0
  7  8  2  0  0  0
  8  9  1  0  0  0
  9 10  2  0  0  0
  9 16  1  0  0  0
 10 11  1  0  0  0
 10 12  1  0  0  0
 12 13  2  0  0  0
 12 17  1  0  0  0
 13 14  1  0  0  0
 14 15  2  0  0  0
 14 16  1  0  0  0
 16 18  1  0  0  0
 17 19  1  0  0  0
  4  5  1  0  0  0
 34 36  1  0  0  0
 34 37  1  0  0  0
 22 23  1  0  0  0
M  END
> <minimizedAffinity>
-9.14547

$$$$
