1MH5_HAL_B_601
  RCSB PDB12061703173D
Coordinates from PDB:1MH5:B:601 Model:1 without hydrogens
 33 34  0  0  0  0            999 V2000
   30.5160  -39.0010   42.2600   C 0  0  0  0  0  0  0  0  0  0  0  0
   30.7510  -38.3080   41.0700   C 0  0  0  0  0  0  0  0  0  0  0  0
   30.8830  -36.9180   41.0610   C 0  0  0  0  0  0  0  0  0  0  0  0
   30.7830  -36.2050   42.2470   C 0  0  0  0  0  0  0  0  0  0  0  0
   30.5570  -36.8810   43.4420   C 0  0  0  0  0  0  0  0  0  0  0  0
   30.4260  -38.2780   43.4430   C 0  0  0  0  0  0  0  0  0  0  0  0
   30.2680  -40.4920   42.2480   C 0  0  0  0  0  0  0  0  0  0  0  0
   28.8200  -40.8490   42.0730   C 0  0  0  0  0  0  0  0  0  0  0  0
   28.5250  -42.2770   41.9730   N 0  0  0  0  0  0  0  0  0  0  0  0
   27.3030  -42.7660   42.1590   C 0  0  0  0  0  0  0  0  0  0  0  0
   26.3500  -42.0360   42.4180   O 0  0  0  0  0  0  0  0  0  0  0  0
   27.0830  -44.2760   42.0040   C 0  0  0  0  0  0  0  0  0  0  0  0
   28.2300  -45.0060   42.4230   O 0  0  0  0  0  0  0  0  0  0  0  0
   29.2050  -45.6580   41.3470   P 0  0  0  0  0  0  0  0  0  0  0  0
   30.4760  -44.8850   41.2810   O 0  0  0  0  0  0  0  0  0  0  0  0
   28.4220  -45.8710   40.1070   O 0  0  0  0  0  0  0  0  0  0  0  0
   29.5390  -46.9640   41.8520   C 0  0  0  0  0  0  0  0  0  0  0  0
   30.6370  -47.6290   41.0320   C 0  0  0  0  0  0  0  0  0  0  0  0
   31.0150  -48.9970   41.5280   C 0  0  0  0  0  0  0  0  0  0  0  0
   30.3020  -50.1220   41.1200   C 0  0  0  0  0  0  0  0  0  0  0  0
   30.6530  -51.3890   41.5800   C 0  0  0  0  0  0  0  0  0  0  0  0
   31.7220  -51.5390   42.4600   C 0  0  0  0  0  0  0  0  0  0  0  0
   32.4350  -50.4220   42.8740   C 0  0  0  0  0  0  0  0  0  0  0  0
   32.0790  -49.1630   42.4100   C 0  0  0  0  0  0  0  0  0  0  0  0
   29.9750  -46.9290   43.2390   N 0  0  0  0  0  0  0  0  0  0  0  0
   29.4100  -47.6860   44.1740   C 0  0  0  0  0  0  0  0  0  0  0  0
   28.4730  -48.4480   43.9420   O 0  0  0  0  0  0  0  0  0  0  0  0
   29.9620  -47.5600   45.5740   C 0  0  0  0  0  0  0  0  0  0  0  0
   30.5500  -48.8530   46.0750   C 0  0  0  0  0  0  0  0  0  0  0  0
   29.4820  -49.9140   46.1920   C 0  0  0  0  0  0  0  0  0  0  0  0
   30.0560  -51.2960   46.4230   C 0  0  0  0  0  0  0  0  0  0  0  0
   30.8170  -51.7770   45.5510   O 0  0  0  0  0  0  0  0  0  0  0  0
   29.7460  -51.8980   47.4740   O 0  0  0  0  0  0  0  0  0  0  0  0
  1  2  2  0  0  0  0
  1  6  1  0  0  0  0
  1  7  1  0  0  0  0
  2  3  1  0  0  0  0
  3  4  2  0  0  0  0
  4  5  1  0  0  0  0
  5  6  2  0  0  0  0
  7  8  1  0  0  0  0
  8  9  1  0  0  0  0
  9 10  1  0  0  0  0
 10 11  2  0  0  0  0
 10 12  1  0  0  0  0
 12 13  1  0  0  0  0
 13 14  1  0  0  0  0
 14 15  2  0  0  0  0
 14 16  1  0  0  0  0
 14 17  1  0  0  0  0
 17 18  1  0  0  0  0
 17 25  1  0  0  0  0
 18 19  1  0  0  0  0
 19 20  2  0  0  0  0
 19 24  1  0  0  0  0
 20 21  1  0  0  0  0
 21 22  2  0  0  0  0
 22 23  1  0  0  0  0
 23 24  2  0  0  0  0
 25 26  1  0  0  0  0
 26 27  2  0  0  0  0
 26 28  1  0  0  0  0
 28 29  1  0  0  0  0
 29 30  1  0  0  0  0
 30 31  1  0  0  0  0
 31 32  1  0  0  0  0
 31 33  2  0  0  0  0
A    1
CP1
A    2
CP2
A    3
CP3
A    4
CP4
A    5
CP5
A    6
CP6
A    7
C1
A    8
C2
A    9
N1
A   10
C3
A   11
O1
A   12
C4
A   13
O2
A   14
P
A   15
O3
A   16
O4
A   17
C5
A   18
C6
A   19
CR1
A   20
CR2
A   21
CR3
A   22
CR4
A   23
CR5
A   24
CR6
A   25
N2
A   26
C7
A   27
O5
A   28
C8
A   29
C9
A   30
C10
A   31
C11
A   32
O6
A   33
O7
M  END
>  <InstanceId>
1MH5_HAL_B_601

>  <ChemCompId>
HAL

>  <PdbId>
1MH5

>  <ChainId>
B

>  <ResidueNumber>
601

>  <InsertionCode>


>  <Model>
1

>  <AltIds>


>  <MissingHeavyAtoms>
0

>  <ObservedFormula>
C23 N2 O7 P

>  <Name>
N-{[2-({[1-(4-CARBOXYBUTANOYL)AMINO]-2-PHENYLETHYL}-HYDROXYPHOSPHINYL)OXY]ACETYL}-2-PHENYLETHYLAMINE

>  <SystematicName>
5-[[(1S)-1-[hydroxy-[2-oxo-2-(phenethylamino)ethoxy]phosphoryl]-2-phenyl-ethyl]amino]-5-oxo-pentanoic acid

>  <Synonyms>


>  <Type>
NON-POLYMER

>  <Formula>
C23 H29 N2 O7 P

>  <MolecularWeight>
476.459

>  <ModifiedDate>
2011-06-04

>  <Parent>


>  <OneLetterCode>


>  <SubcomponentList>


>  <AmbiguousFlag>
N

>  <InChI>
InChI=1S/C23H29N2O7P/c26-20(12-7-13-23(28)29)25-22(16-19-10-5-2-6-11-19)33(30,31)32-17-21(27)24-15-14-18-8-3-1-4-9-18/h1-6,8-11,22H,7,12-17H2,(H,24,27)(H,25,26)(H,28,29)(H,30,31)/t22-/m0/s1

>  <InChIKey>
DKQZZKSBRCTCQU-QFIPXVFZSA-N

>  <SMILES>
c1ccc(cc1)CCNC(=O)CO[P@@](=O)([C@@H](Cc2ccccc2)NC(=O)CCCC(=O)O)O

$$$$
