6F20_C9E_A_201


 15 16  0  0  0  0  0  0  0  0999 V2000
    2.6592   -8.4518  -17.2466 C   0  0  0  0  0  0  0  0  0  0  0  0
    1.7259   -9.8386  -15.6773 C   0  0  0  0  0  0  0  0  0  0  0  0
    0.2751   -8.6834  -17.5678 C   0  0  0  0  0  0  0  0  0  0  0  0
    1.4192   -9.0420  -16.8382 C   0  0  0  0  0  0  0  0  0  0  0  0
    3.1000   -9.7376  -15.4441 C   0  0  0  0  0  0  0  0  0  0  0  0
    2.8769   -7.6301  -18.2871 N   0  0  0  0  0  0  0  0  0  0  0  0
    3.6266   -8.9050  -16.4010 N   0  0  0  0  0  0  0  0  0  0  0  0
    1.7675   -7.3069  -18.9742 C   0  0  0  0  0  0  0  0  0  0  0  0
    0.5045   -7.8116  -18.6617 C   0  0  0  0  0  0  0  0  0  0  0  0
    4.5794   -8.6666  -16.4674 H   0  0  0  0  0  0  0  0  0  0  0  0
   -1.0886   -9.2178  -17.1782 C   0  0  0  0  0  0  0  0  0  0  0  0
   -1.3553  -10.3320  -17.6285 O   0  0  0  0  0  0  0  0  0  0  0  0
   -2.2038   -8.4091  -17.0143 O   0  0  0  0  0  0  0  0  0  0  0  0
   -1.9282   -8.3548  -14.6057 C   0  0  0  0  0  0  0  0  0  0  0  0
   -2.4724   -7.6461  -15.8407 C   0  0  0  0  0  0  0  0  0  0  0  0
  8  9  2  0  0  0
  8  6  1  0  0  0
  9  3  1  0  0  0
 12 11  2  0  0  0
  6  1  2  0  0  0
  3 11  1  0  0  0
  3  4  2  0  0  0
 11 13  1  0  0  0
  1  4  1  0  0  0
  1  7  1  0  0  0
  4  2  1  0  0  0
 13 15  1  0  0  0
 15 14  1  0  0  0
  7  5  1  0  0  0
  2  5  2  0  0  0
  7 10  1  0  0  0
M  END
> <minimizedAffinity>
-6.78918

$$$$
6F20_C9E_A_201


 15 16  0  0  0  0  0  0  0  0999 V2000
    2.8712   -8.5486  -16.9124 C   0  0  0  0  0  0  0  0  0  0  0  0
    1.4494   -7.2315  -18.1374 C   0  0  0  0  0  0  0  0  0  0  0  0
    0.6380   -8.5495  -15.9885 C   0  0  0  0  0  0  0  0  0  0  0  0
    1.5211   -8.0721  -16.9694 C   0  0  0  0  0  0  0  0  0  0  0  0
    2.7214   -7.1978  -18.7151 C   0  0  0  0  0  0  0  0  0  0  0  0
    3.4191   -9.3626  -15.9947 N   0  0  0  0  0  0  0  0  0  0  0  0
    3.5462   -7.9921  -17.9568 N   0  0  0  0  0  0  0  0  0  0  0  0
    2.5554   -9.8007  -15.0623 C   0  0  0  0  0  0  0  0  0  0  0  0
    1.2153   -9.4131  -15.0241 C   0  0  0  0  0  0  0  0  0  0  0  0
    4.5014   -8.1401  -18.1437 H   0  0  0  0  0  0  0  0  0  0  0  0
   -0.8214   -8.1406  -15.9982 C   0  0  0  0  0  0  0  0  0  0  0  0
   -1.3505   -8.0860  -14.8880 O   0  0  0  0  0  0  0  0  0  0  0  0
   -1.7025   -8.4905  -17.0110 O   0  0  0  0  0  0  0  0  0  0  0  0
   -1.2773   -9.9609  -18.8918 C   0  0  0  0  0  0  0  0  0  0  0  0
   -1.8749   -9.8195  -17.4967 C   0  0  0  0  0  0  0  0  0  0  0  0
  8  9  2  0  0  0
  8  6  1  0  0  0
  9  3  1  0  0  0
 12 11  2  0  0  0
  6  1  2  0  0  0
  3 11  1  0  0  0
  3  4  2  0  0  0
 11 13  1  0  0  0
  1  4  1  0  0  0
  1  7  1  0  0  0
  4  2  1  0  0  0
 13 15  1  0  0  0
 15 14  1  0  0  0
  7  5  1  0  0  0
  2  5  2  0  0  0
  7 10  1  0  0  0
M  END
> <minimizedAffinity>
-6.58967

$$$$
6F20_C9E_A_201


 15 16  0  0  0  0  0  0  0  0999 V2000
   -3.7507   -8.7237  -16.2436 C   0  0  0  0  0  0  0  0  0  0  0  0
   -1.7055   -8.0337  -15.4704 C   0  0  0  0  0  0  0  0  0  0  0  0
   -2.0024   -9.1340  -17.8609 C   0  0  0  0  0  0  0  0  0  0  0  0
   -2.3686   -8.6206  -16.6071 C   0  0  0  0  0  0  0  0  0  0  0  0
   -2.6761   -7.7771  -14.4984 C   0  0  0  0  0  0  0  0  0  0  0  0
   -4.7629   -9.2068  -16.9834 N   0  0  0  0  0  0  0  0  0  0  0  0
   -3.8858   -8.1981  -14.9940 N   0  0  0  0  0  0  0  0  0  0  0  0
   -4.3882   -9.6860  -18.1822 C   0  0  0  0  0  0  0  0  0  0  0  0
   -3.0698   -9.6491  -18.6384 C   0  0  0  0  0  0  0  0  0  0  0  0
   -4.7398   -8.1291  -14.5091 H   0  0  0  0  0  0  0  0  0  0  0  0
   -0.5552   -9.1149  -18.3107 C   0  0  0  0  0  0  0  0  0  0  0  0
    0.1428  -10.0159  -17.8454 O   0  0  0  0  0  0  0  0  0  0  0  0
    0.1489   -7.9455  -18.5583 O   0  0  0  0  0  0  0  0  0  0  0  0
    2.4473   -7.1868  -18.7060 C   0  0  0  0  0  0  0  0  0  0  0  0
    1.2702   -7.5104  -17.7932 C   0  0  0  0  0  0  0  0  0  0  0  0
  8  9  2  0  0  0
  8  6  1  0  0  0
  9  3  1  0  0  0
 12 11  2  0  0  0
  6  1  2  0  0  0
  3 11  1  0  0  0
  3  4  2  0  0  0
 11 13  1  0  0  0
  1  4  1  0  0  0
  1  7  1  0  0  0
  4  2  1  0  0  0
 13 15  1  0  0  0
 15 14  1  0  0  0
  7  5  1  0  0  0
  2  5  2  0  0  0
  7 10  1  0  0  0
M  END
> <minimizedAffinity>
-6.26374

$$$$
6F20_C9E_A_201


 15 16  0  0  0  0  0  0  0  0999 V2000
   -3.9226   -9.3771  -16.1518 C   0  0  0  0  0  0  0  0  0  0  0  0
   -3.1381  -10.5956  -17.9286 C   0  0  0  0  0  0  0  0  0  0  0  0
   -1.6577   -8.7590  -16.7252 C   0  0  0  0  0  0  0  0  0  0  0  0
   -2.7685   -9.5792  -16.9765 C   0  0  0  0  0  0  0  0  0  0  0  0
   -4.4480  -10.9894  -17.6422 C   0  0  0  0  0  0  0  0  0  0  0  0
   -4.0586   -8.5281  -15.1194 N   0  0  0  0  0  0  0  0  0  0  0  0
   -4.8846  -10.2445  -16.5742 N   0  0  0  0  0  0  0  0  0  0  0  0
   -2.9794   -7.7587  -14.8942 C   0  0  0  0  0  0  0  0  0  0  0  0
   -1.8040   -7.8591  -15.6397 C   0  0  0  0  0  0  0  0  0  0  0  0
   -5.7770  -10.3266  -16.1667 H   0  0  0  0  0  0  0  0  0  0  0  0
   -0.4099   -8.8654  -17.5788 C   0  0  0  0  0  0  0  0  0  0  0  0
    0.0995   -9.9856  -17.6127 O   0  0  0  0  0  0  0  0  0  0  0  0
    0.5125   -7.8374  -17.7088 O   0  0  0  0  0  0  0  0  0  0  0  0
    2.5897   -7.1046  -18.7229 C   0  0  0  0  0  0  0  0  0  0  0  0
    1.1244   -7.4636  -18.9408 C   0  0  0  0  0  0  0  0  0  0  0  0
  8  9  2  0  0  0
  8  6  1  0  0  0
  9  3  1  0  0  0
 12 11  2  0  0  0
  6  1  2  0  0  0
  3 11  1  0  0  0
  3  4  2  0  0  0
 11 13  1  0  0  0
  1  4  1  0  0  0
  1  7  1  0  0  0
  4  2  1  0  0  0
 13 15  1  0  0  0
 15 14  1  0  0  0
  7  5  1  0  0  0
  2  5  2  0  0  0
  7 10  1  0  0  0
M  END
> <minimizedAffinity>
-6.12974

$$$$
6F20_C9E_A_201


 15 16  0  0  0  0  0  0  0  0999 V2000
   -1.8718   -8.5039  -16.4855 C   0  0  0  0  0  0  0  0  0  0  0  0
   -0.6219   -8.6423  -14.5684 C   0  0  0  0  0  0  0  0  0  0  0  0
    0.4733   -8.8263  -16.9726 C   0  0  0  0  0  0  0  0  0  0  0  0
   -0.5298   -8.6532  -16.0063 C   0  0  0  0  0  0  0  0  0  0  0  0
   -1.9655   -8.4600  -14.2302 C   0  0  0  0  0  0  0  0  0  0  0  0
   -2.2899   -8.4536  -17.7614 N   0  0  0  0  0  0  0  0  0  0  0  0
   -2.6832   -8.3781  -15.3983 N   0  0  0  0  0  0  0  0  0  0  0  0
   -1.3103   -8.6147  -18.6679 C   0  0  0  0  0  0  0  0  0  0  0  0
    0.0308   -8.7792  -18.3184 C   0  0  0  0  0  0  0  0  0  0  0  0
   -3.6577   -8.2456  -15.4441 H   0  0  0  0  0  0  0  0  0  0  0  0
    1.9153   -9.0424  -16.5590 C   0  0  0  0  0  0  0  0  0  0  0  0
    2.7501   -8.5452  -17.3149 O   0  0  0  0  0  0  0  0  0  0  0  0
    2.3610  -10.1950  -15.9287 O   0  0  0  0  0  0  0  0  0  0  0  0
    2.9428   -8.8305  -14.0104 C   0  0  0  0  0  0  0  0  0  0  0  0
    2.8420  -10.2377  -14.5875 C   0  0  0  0  0  0  0  0  0  0  0  0
  8  9  2  0  0  0
  8  6  1  0  0  0
  9  3  1  0  0  0
 12 11  2  0  0  0
  6  1  2  0  0  0
  3 11  1  0  0  0
  3  4  2  0  0  0
 11 13  1  0  0  0
  1  4  1  0  0  0
  1  7  1  0  0  0
  4  2  1  0  0  0
 13 15  1  0  0  0
 15 14  1  0  0  0
  7  5  1  0  0  0
  2  5  2  0  0  0
  7 10  1  0  0  0
M  END
> <minimizedAffinity>
-6.02000

$$$$
6F20_C9E_A_201


 15 16  0  0  0  0  0  0  0  0999 V2000
   -0.0747   -8.9596  -16.7518 C   0  0  0  0  0  0  0  0  0  0  0  0
   -0.8609   -8.6785  -14.6164 C   0  0  0  0  0  0  0  0  0  0  0  0
   -2.3895   -9.6273  -16.5597 C   0  0  0  0  0  0  0  0  0  0  0  0
   -1.2338   -9.1408  -15.9292 C   0  0  0  0  0  0  0  0  0  0  0  0
    0.4761   -8.2756  -14.6719 C   0  0  0  0  0  0  0  0  0  0  0  0
    0.0633   -9.2516  -18.0559 N   0  0  0  0  0  0  0  0  0  0  0  0
    0.9151   -8.4599  -15.9602 N   0  0  0  0  0  0  0  0  0  0  0  0
   -1.0546   -9.7224  -18.6355 C   0  0  0  0  0  0  0  0  0  0  0  0
   -2.2449   -9.9295  -17.9370 C   0  0  0  0  0  0  0  0  0  0  0  0
    1.8269   -8.2571  -16.2712 H   0  0  0  0  0  0  0  0  0  0  0  0
   -3.6780   -9.8036  -15.7815 C   0  0  0  0  0  0  0  0  0  0  0  0
   -4.1834   -8.7575  -15.3742 O   0  0  0  0  0  0  0  0  0  0  0  0
   -3.9259  -10.8917  -14.9575 O   0  0  0  0  0  0  0  0  0  0  0  0
   -4.3708  -13.0700  -15.9258 C   0  0  0  0  0  0  0  0  0  0  0  0
   -3.3823  -12.1928  -15.1663 C   0  0  0  0  0  0  0  0  0  0  0  0
  8  9  2  0  0  0
  8  6  1  0  0  0
  9  3  1  0  0  0
 12 11  2  0  0  0
  6  1  2  0  0  0
  3 11  1  0  0  0
  3  4  2  0  0  0
 11 13  1  0  0  0
  1  4  1  0  0  0
  1  7  1  0  0  0
  4  2  1  0  0  0
 13 15  1  0  0  0
 15 14  1  0  0  0
  7  5  1  0  0  0
  2  5  2  0  0  0
  7 10  1  0  0  0
M  END
> <minimizedAffinity>
-5.72854

$$$$
6F20_C9E_A_201


 15 16  0  0  0  0  0  0  0  0999 V2000
   -4.7183  -10.4645  -17.2361 C   0  0  0  0  0  0  0  0  0  0  0  0
   -3.1642  -11.8620  -16.2934 C   0  0  0  0  0  0  0  0  0  0  0  0
   -2.4947   -9.5234  -17.3404 C   0  0  0  0  0  0  0  0  0  0  0  0
   -3.3237  -10.5780  -16.9275 C   0  0  0  0  0  0  0  0  0  0  0  0
   -4.4272  -12.4540  -16.2095 C   0  0  0  0  0  0  0  0  0  0  0  0
   -5.3493   -9.4380  -17.8304 N   0  0  0  0  0  0  0  0  0  0  0  0
   -5.3319  -11.5915  -16.7786 N   0  0  0  0  0  0  0  0  0  0  0  0
   -4.5354   -8.4377  -18.2102 C   0  0  0  0  0  0  0  0  0  0  0  0
   -3.1602   -8.4434  -17.9728 C   0  0  0  0  0  0  0  0  0  0  0  0
   -6.2986  -11.7652  -16.8470 H   0  0  0  0  0  0  0  0  0  0  0  0
   -0.9988   -9.5782  -17.1028 C   0  0  0  0  0  0  0  0  0  0  0  0
   -0.3517  -10.1143  -18.0024 O   0  0  0  0  0  0  0  0  0  0  0  0
   -0.4339   -9.7411  -15.8463 O   0  0  0  0  0  0  0  0  0  0  0  0
    0.7858   -8.1343  -14.5006 C   0  0  0  0  0  0  0  0  0  0  0  0
   -0.5572   -8.7966  -14.7859 C   0  0  0  0  0  0  0  0  0  0  0  0
  8  9  2  0  0  0
  8  6  1  0  0  0
  9  3  1  0  0  0
 12 11  2  0  0  0
  6  1  2  0  0  0
  3 11  1  0  0  0
  3  4  2  0  0  0
 11 13  1  0  0  0
  1  4  1  0  0  0
  1  7  1  0  0  0
  4  2  1  0  0  0
 13 15  1  0  0  0
 15 14  1  0  0  0
  7  5  1  0  0  0
  2  5  2  0  0  0
  7 10  1  0  0  0
M  END
> <minimizedAffinity>
-5.71343

$$$$
6F20_C9E_A_201


 15 16  0  0  0  0  0  0  0  0999 V2000
   -4.3504  -10.5470  -16.7436 C   0  0  0  0  0  0  0  0  0  0  0  0
   -3.1043  -11.8974  -15.3722 C   0  0  0  0  0  0  0  0  0  0  0  0
   -2.3347   -9.4419  -15.9977 C   0  0  0  0  0  0  0  0  0  0  0  0
   -3.1512  -10.5828  -15.9602 C   0  0  0  0  0  0  0  0  0  0  0  0
   -4.2525  -12.5842  -15.7756 C   0  0  0  0  0  0  0  0  0  0  0  0
   -4.8254   -9.5257  -17.4759 N   0  0  0  0  0  0  0  0  0  0  0  0
   -4.9754  -11.7479  -16.5905 N   0  0  0  0  0  0  0  0  0  0  0  0
   -4.0295   -8.4424  -17.4905 C   0  0  0  0  0  0  0  0  0  0  0  0
   -2.8334   -8.3669  -16.7755 C   0  0  0  0  0  0  0  0  0  0  0  0
   -5.8340  -11.9853  -17.0097 H   0  0  0  0  0  0  0  0  0  0  0  0
   -1.0217   -9.4064  -15.2414 C   0  0  0  0  0  0  0  0  0  0  0  0
   -0.9223   -8.4942  -14.4207 O   0  0  0  0  0  0  0  0  0  0  0  0
    0.1911   -9.7734  -15.8059 O   0  0  0  0  0  0  0  0  0  0  0  0
    1.6346   -8.5891  -17.3532 C   0  0  0  0  0  0  0  0  0  0  0  0
    1.3237   -8.9126  -15.8965 C   0  0  0  0  0  0  0  0  0  0  0  0
  8  9  2  0  0  0
  8  6  1  0  0  0
  9  3  1  0  0  0
 12 11  2  0  0  0
  6  1  2  0  0  0
  3 11  1  0  0  0
  3  4  2  0  0  0
 11 13  1  0  0  0
  1  4  1  0  0  0
  1  7  1  0  0  0
  4  2  1  0  0  0
 13 15  1  0  0  0
 15 14  1  0  0  0
  7  5  1  0  0  0
  2  5  2  0  0  0
  7 10  1  0  0  0
M  END
> <minimizedAffinity>
-5.60490

$$$$
6F20_C9E_A_201


 15 16  0  0  0  0  0  0  0  0999 V2000
    0.3515   -8.0033  -16.5568 C   0  0  0  0  0  0  0  0  0  0  0  0
   -0.2801   -8.6269  -18.6708 C   0  0  0  0  0  0  0  0  0  0  0  0
   -1.5429   -9.5034  -16.5144 C   0  0  0  0  0  0  0  0  0  0  0  0
   -0.6130   -8.7803  -17.2773 C   0  0  0  0  0  0  0  0  0  0  0  0
    0.8172   -7.7655  -18.7530 C   0  0  0  0  0  0  0  0  0  0  0  0
    0.4454   -7.8343  -15.2272 N   0  0  0  0  0  0  0  0  0  0  0  0
    1.1664   -7.4099  -17.4732 N   0  0  0  0  0  0  0  0  0  0  0  0
   -0.4600   -8.5313  -14.5188 C   0  0  0  0  0  0  0  0  0  0  0  0
   -1.4395   -9.3295  -15.1114 C   0  0  0  0  0  0  0  0  0  0  0  0
    1.9093   -6.8046  -17.2473 H   0  0  0  0  0  0  0  0  0  0  0  0
   -2.5691  -10.3929  -17.1873 C   0  0  0  0  0  0  0  0  0  0  0  0
   -2.1000  -11.3541  -17.7968 O   0  0  0  0  0  0  0  0  0  0  0  0
   -3.7463   -9.9114  -17.7412 O   0  0  0  0  0  0  0  0  0  0  0  0
   -4.0677   -7.9747  -19.1647 C   0  0  0  0  0  0  0  0  0  0  0  0
   -3.8769   -9.4855  -19.0952 C   0  0  0  0  0  0  0  0  0  0  0  0
  8  9  2  0  0  0
  8  6  1  0  0  0
  9  3  1  0  0  0
 12 11  2  0  0  0
  6  1  2  0  0  0
  3 11  1  0  0  0
  3  4  2  0  0  0
 11 13  1  0  0  0
  1  4  1  0  0  0
  1  7  1  0  0  0
  4  2  1  0  0  0
 13 15  1  0  0  0
 15 14  1  0  0  0
  7  5  1  0  0  0
  2  5  2  0  0  0
  7 10  1  0  0  0
M  END
> <minimizedAffinity>
-5.55890

$$$$
6F20_C9E_A_201


 15 16  0  0  0  0  0  0  0  0999 V2000
   -0.0159   -8.5988  -16.6296 C   0  0  0  0  0  0  0  0  0  0  0  0
   -1.6452   -8.9232  -18.2099 C   0  0  0  0  0  0  0  0  0  0  0  0
   -2.2097   -8.7552  -15.6279 C   0  0  0  0  0  0  0  0  0  0  0  0
   -1.4311   -8.7489  -16.7957 C   0  0  0  0  0  0  0  0  0  0  0  0
   -0.4008   -8.8435  -18.8407 C   0  0  0  0  0  0  0  0  0  0  0  0
    0.6633   -8.4063  -15.4865 N   0  0  0  0  0  0  0  0  0  0  0  0
    0.5490   -8.6462  -17.8685 N   0  0  0  0  0  0  0  0  0  0  0  0
   -0.1048   -8.4093  -14.3832 C   0  0  0  0  0  0  0  0  0  0  0  0
   -1.4919   -8.5582  -14.4217 C   0  0  0  0  0  0  0  0  0  0  0  0
    1.5131   -8.5514  -18.0440 H   0  0  0  0  0  0  0  0  0  0  0  0
   -3.7098   -8.9589  -15.7008 C   0  0  0  0  0  0  0  0  0  0  0  0
   -4.3654   -8.2529  -14.9344 O   0  0  0  0  0  0  0  0  0  0  0  0
   -4.2987  -10.1889  -15.9553 O   0  0  0  0  0  0  0  0  0  0  0  0
   -3.3329  -12.2818  -16.7085 C   0  0  0  0  0  0  0  0  0  0  0  0
   -3.7662  -11.4362  -15.5166 C   0  0  0  0  0  0  0  0  0  0  0  0
  8  9  2  0  0  0
  8  6  1  0  0  0
  9  3  1  0  0  0
 12 11  2  0  0  0
  6  1  2  0  0  0
  3 11  1  0  0  0
  3  4  2  0  0  0
 11 13  1  0  0  0
  1  4  1  0  0  0
  1  7  1  0  0  0
  4  2  1  0  0  0
 13 15  1  0  0  0
 15 14  1  0  0  0
  7  5  1  0  0  0
  2  5  2  0  0  0
  7 10  1  0  0  0
M  END
> <minimizedAffinity>
-5.54035

$$$$
