1UWT_GTL_A_1490


 19 19  0  0  0  0  0  0  0  0999 V2000
  120.7495   39.7413   63.2136 C   0  0  0  0  0  0  0  0  0  0  0  0
  121.9945   40.1144   62.9531 N   0  0  0  0  0  0  0  0  0  0  0  0
  120.2352   38.5138   62.4311 C   0  0  0  0  0  0  0  0  0  0  0  0
  120.0284   40.4536   64.1842 N   0  0  0  0  0  0  0  0  0  0  0  0
  122.5989   40.9507   63.8851 O   0  0  0  0  0  0  0  0  0  0  0  0
  120.4816   38.7080   61.0575 O   0  0  0  0  0  0  0  0  0  0  0  0
  118.7195   38.4171   62.6537 C   0  0  0  0  0  0  0  0  0  0  0  0
  118.3094   37.1221   62.2667 O   0  0  0  0  0  0  0  0  0  0  0  0
  118.2709   38.7036   64.1143 C   0  0  0  0  0  0  0  0  0  0  0  0
  119.0544   37.8723   64.9438 O   0  0  0  0  0  0  0  0  0  0  0  0
  118.5934   40.1987   64.3881 C   0  0  0  0  0  0  0  0  0  0  0  0
  120.4866   41.1300   64.7337 H   0  0  0  0  0  0  0  0  0  0  0  0
  123.4783   41.2446   63.7500 H   0  0  0  0  0  0  0  0  0  0  0  0
  120.0353   39.5162   60.7601 H   0  0  0  0  0  0  0  0  0  0  0  0
  118.7508   36.4628   62.8248 H   0  0  0  0  0  0  0  0  0  0  0  0
  119.9946   38.0469   64.7811 H   0  0  0  0  0  0  0  0  0  0  0  0
  118.2036   40.7457   65.7962 C   0  0  0  0  0  0  0  0  0  0  0  0
  118.5174   39.8005   66.8004 O   0  0  0  0  0  0  0  0  0  0  0  0
  118.0223   38.9820   66.6400 H   0  0  0  0  0  0  0  0  0  0  0  0
  1  2  2  0  0  0
  1  3  1  0  0  0
  1  4  1  0  0  0
  2  5  1  0  0  0
  3  6  1  0  0  0
  3  7  1  0  0  0
  4 11  1  0  0  0
  7  8  1  0  0  0
  7  9  1  0  0  0
  9 10  1  0  0  0
  9 11  1  0  0  0
 11 17  1  0  0  0
 17 18  1  0  0  0
  4 12  1  0  0  0
  5 13  1  0  0  0
  6 14  1  0  0  0
  8 15  1  0  0  0
 10 16  1  0  0  0
 18 19  1  0  0  0
M  END
> <minimizedAffinity>
-7.46646

$$$$
1UWT_GTL_A_1490


 19 19  0  0  0  0  0  0  0  0999 V2000
  118.6409   38.7922   64.2175 C   0  0  0  0  0  0  0  0  0  0  0  0
  118.8110   37.5186   63.8916 N   0  0  0  0  0  0  0  0  0  0  0  0
  118.3693   39.7583   63.0444 C   0  0  0  0  0  0  0  0  0  0  0  0
  118.6842   39.1454   65.5751 N   0  0  0  0  0  0  0  0  0  0  0  0
  118.6812   36.5927   64.9208 O   0  0  0  0  0  0  0  0  0  0  0  0
  119.3510   39.5646   62.0525 O   0  0  0  0  0  0  0  0  0  0  0  0
  118.4838   41.1918   63.5813 C   0  0  0  0  0  0  0  0  0  0  0  0
  117.8831   42.0542   62.6377 O   0  0  0  0  0  0  0  0  0  0  0  0
  117.8392   41.4012   64.9803 C   0  0  0  0  0  0  0  0  0  0  0  0
  116.5242   40.8948   64.8946 O   0  0  0  0  0  0  0  0  0  0  0  0
  118.6783   40.5598   65.9815 C   0  0  0  0  0  0  0  0  0  0  0  0
  118.7188   38.4406   66.2616 H   0  0  0  0  0  0  0  0  0  0  0  0
  118.7915   35.6789   64.7455 H   0  0  0  0  0  0  0  0  0  0  0  0
  120.2296   39.7235   62.4317 H   0  0  0  0  0  0  0  0  0  0  0  0
  116.9443   41.8284   62.5450 H   0  0  0  0  0  0  0  0  0  0  0  0
  116.5525   39.9677   64.6108 H   0  0  0  0  0  0  0  0  0  0  0  0
  118.2444   40.6276   67.4784 C   0  0  0  0  0  0  0  0  0  0  0  0
  116.8822   40.2735   67.6172 O   0  0  0  0  0  0  0  0  0  0  0  0
  116.3340   40.8919   67.1094 H   0  0  0  0  0  0  0  0  0  0  0  0
  1  2  2  0  0  0
  1  3  1  0  0  0
  1  4  1  0  0  0
  2  5  1  0  0  0
  3  6  1  0  0  0
  3  7  1  0  0  0
  4 11  1  0  0  0
  7  8  1  0  0  0
  7  9  1  0  0  0
  9 10  1  0  0  0
  9 11  1  0  0  0
 11 17  1  0  0  0
 17 18  1  0  0  0
  4 12  1  0  0  0
  5 13  1  0  0  0
  6 14  1  0  0  0
  8 15  1  0  0  0
 10 16  1  0  0  0
 18 19  1  0  0  0
M  END
> <minimizedAffinity>
-7.41191

$$$$
1UWT_GTL_A_1490


 19 19  0  0  0  0  0  0  0  0999 V2000
  119.0324   39.3253   63.1754 C   0  0  0  0  0  0  0  0  0  0  0  0
  119.8021   38.5245   62.4518 N   0  0  0  0  0  0  0  0  0  0  0  0
  119.1011   39.1262   64.7048 C   0  0  0  0  0  0  0  0  0  0  0  0
  118.2626   40.2918   62.5099 N   0  0  0  0  0  0  0  0  0  0  0  0
  120.0465   38.9180   61.1407 O   0  0  0  0  0  0  0  0  0  0  0  0
  118.9154   37.7610   64.9995 O   0  0  0  0  0  0  0  0  0  0  0  0
  117.9543   39.9294   65.3342 C   0  0  0  0  0  0  0  0  0  0  0  0
  118.2264   40.0590   66.7141 O   0  0  0  0  0  0  0  0  0  0  0  0
  117.7362   41.3319   64.7002 C   0  0  0  0  0  0  0  0  0  0  0  0
  118.9937   41.9737   64.7066 O   0  0  0  0  0  0  0  0  0  0  0  0
  117.2624   41.0860   63.2410 C   0  0  0  0  0  0  0  0  0  0  0  0
  118.3928   40.4398   61.5453 H   0  0  0  0  0  0  0  0  0  0  0  0
  120.5841   38.3886   60.5852 H   0  0  0  0  0  0  0  0  0  0  0  0
  118.0574   37.4694   64.6536 H   0  0  0  0  0  0  0  0  0  0  0  0
  119.0551   40.5482   66.8357 H   0  0  0  0  0  0  0  0  0  0  0  0
  119.6389   41.4255   64.2333 H   0  0  0  0  0  0  0  0  0  0  0  0
  116.9432   42.3554   62.3922 C   0  0  0  0  0  0  0  0  0  0  0  0
  117.9728   43.3154   62.5280 O   0  0  0  0  0  0  0  0  0  0  0  0
  118.0492   43.5783   63.4585 H   0  0  0  0  0  0  0  0  0  0  0  0
  1  2  2  0  0  0
  1  3  1  0  0  0
  1  4  1  0  0  0
  2  5  1  0  0  0
  3  6  1  0  0  0
  3  7  1  0  0  0
  4 11  1  0  0  0
  7  8  1  0  0  0
  7  9  1  0  0  0
  9 10  1  0  0  0
  9 11  1  0  0  0
 11 17  1  0  0  0
 17 18  1  0  0  0
  4 12  1  0  0  0
  5 13  1  0  0  0
  6 14  1  0  0  0
  8 15  1  0  0  0
 10 16  1  0  0  0
 18 19  1  0  0  0
M  END
> <minimizedAffinity>
-6.94841

$$$$
1UWT_GTL_A_1490


 19 19  0  0  0  0  0  0  0  0999 V2000
  117.7514   41.2205   63.6563 C   0  0  0  0  0  0  0  0  0  0  0  0
  116.8752   41.9616   62.9929 N   0  0  0  0  0  0  0  0  0  0  0  0
  117.4737   41.0345   65.1636 C   0  0  0  0  0  0  0  0  0  0  0  0
  118.8163   40.6477   62.9438 N   0  0  0  0  0  0  0  0  0  0  0  0
  116.8822   41.8388   61.6079 O   0  0  0  0  0  0  0  0  0  0  0  0
  117.2562   42.2969   65.7502 O   0  0  0  0  0  0  0  0  0  0  0  0
  118.7217   40.4028   65.7959 C   0  0  0  0  0  0  0  0  0  0  0  0
  118.3525   39.8934   67.0605 O   0  0  0  0  0  0  0  0  0  0  0  0
  119.3712   39.2804   64.9385 C   0  0  0  0  0  0  0  0  0  0  0  0
  118.3374   38.3749   64.6154 O   0  0  0  0  0  0  0  0  0  0  0  0
  119.9109   39.9659   63.6528 C   0  0  0  0  0  0  0  0  0  0  0  0
  118.8312   40.7026   61.9610 H   0  0  0  0  0  0  0  0  0  0  0  0
  116.2833   42.3400   61.0901 H   0  0  0  0  0  0  0  0  0  0  0  0
  118.0362   42.8566   65.6114 H   0  0  0  0  0  0  0  0  0  0  0  0
  117.6766   39.2068   66.9478 H   0  0  0  0  0  0  0  0  0  0  0  0
  117.6219   38.8490   64.1635 H   0  0  0  0  0  0  0  0  0  0  0  0
  120.6440   39.0432   62.6305 C   0  0  0  0  0  0  0  0  0  0  0  0
  119.9502   39.0172   61.3985 O   0  0  0  0  0  0  0  0  0  0  0  0
  119.0549   38.6711   61.5388 H   0  0  0  0  0  0  0  0  0  0  0  0
  1  2  2  0  0  0
  1  3  1  0  0  0
  1  4  1  0  0  0
  2  5  1  0  0  0
  3  6  1  0  0  0
  3  7  1  0  0  0
  4 11  1  0  0  0
  7  8  1  0  0  0
  7  9  1  0  0  0
  9 10  1  0  0  0
  9 11  1  0  0  0
 11 17  1  0  0  0
 17 18  1  0  0  0
  4 12  1  0  0  0
  5 13  1  0  0  0
  6 14  1  0  0  0
  8 15  1  0  0  0
 10 16  1  0  0  0
 18 19  1  0  0  0
M  END
> <minimizedAffinity>
-6.83138

$$$$
1UWT_GTL_A_1490


 19 19  0  0  0  0  0  0  0  0999 V2000
  120.6156   40.3484   64.0750 C   0  0  0  0  0  0  0  0  0  0  0  0
  121.7379   41.0507   64.1407 N   0  0  0  0  0  0  0  0  0  0  0  0
  119.3334   41.0822   64.5233 C   0  0  0  0  0  0  0  0  0  0  0  0
  120.6769   39.0366   63.5801 N   0  0  0  0  0  0  0  0  0  0  0  0
  122.8164   40.5655   63.4093 O   0  0  0  0  0  0  0  0  0  0  0  0
  119.5536   41.6614   65.7886 O   0  0  0  0  0  0  0  0  0  0  0  0
  118.2139   40.0389   64.6441 C   0  0  0  0  0  0  0  0  0  0  0  0
  116.9831   40.7308   64.6832 O   0  0  0  0  0  0  0  0  0  0  0  0
  118.1975   38.9870   63.4996 C   0  0  0  0  0  0  0  0  0  0  0  0
  118.2143   39.7130   62.2889 O   0  0  0  0  0  0  0  0  0  0  0  0
  119.5009   38.1545   63.6488 C   0  0  0  0  0  0  0  0  0  0  0  0
  121.5141   38.7035   63.1834 H   0  0  0  0  0  0  0  0  0  0  0  0
  123.6339   41.0233   63.4203 H   0  0  0  0  0  0  0  0  0  0  0  0
  119.7926   40.9687   66.4241 H   0  0  0  0  0  0  0  0  0  0  0  0
  116.8634   41.2246   63.8570 H   0  0  0  0  0  0  0  0  0  0  0  0
  118.9882   40.2975   62.2731 H   0  0  0  0  0  0  0  0  0  0  0  0
  119.7069   36.9985   62.6216 C   0  0  0  0  0  0  0  0  0  0  0  0
  118.6745   37.0032   61.6551 O   0  0  0  0  0  0  0  0  0  0  0  0
  117.8193   36.8758   62.0948 H   0  0  0  0  0  0  0  0  0  0  0  0
  1  2  2  0  0  0
  1  3  1  0  0  0
  1  4  1  0  0  0
  2  5  1  0  0  0
  3  6  1  0  0  0
  3  7  1  0  0  0
  4 11  1  0  0  0
  7  8  1  0  0  0
  7  9  1  0  0  0
  9 10  1  0  0  0
  9 11  1  0  0  0
 11 17  1  0  0  0
 17 18  1  0  0  0
  4 12  1  0  0  0
  5 13  1  0  0  0
  6 14  1  0  0  0
  8 15  1  0  0  0
 10 16  1  0  0  0
 18 19  1  0  0  0
M  END
> <minimizedAffinity>
-6.23426

$$$$
1UWT_GTL_A_1490


 19 19  0  0  0  0  0  0  0  0999 V2000
  118.2666   40.9568   68.6170 C   0  0  0  0  0  0  0  0  0  0  0  0
  118.4734   39.8235   69.2728 N   0  0  0  0  0  0  0  0  0  0  0  0
  117.6188   40.8207   67.2223 C   0  0  0  0  0  0  0  0  0  0  0  0
  118.6119   42.1637   69.2445 N   0  0  0  0  0  0  0  0  0  0  0  0
  118.6946   39.9307   70.6413 O   0  0  0  0  0  0  0  0  0  0  0  0
  118.3367   39.8677   66.4729 O   0  0  0  0  0  0  0  0  0  0  0  0
  117.7233   42.1826   66.5218 C   0  0  0  0  0  0  0  0  0  0  0  0
  116.8255   42.1757   65.4314 O   0  0  0  0  0  0  0  0  0  0  0  0
  117.4300   43.3980   67.4456 C   0  0  0  0  0  0  0  0  0  0  0  0
  116.1908   43.1365   68.0693 O   0  0  0  0  0  0  0  0  0  0  0  0
  118.5697   43.4331   68.5012 C   0  0  0  0  0  0  0  0  0  0  0  0
  118.8848   42.1611   70.1904 H   0  0  0  0  0  0  0  0  0  0  0  0
  118.8463   39.1607   71.1532 H   0  0  0  0  0  0  0  0  0  0  0  0
  119.2622   40.1476   66.3957 H   0  0  0  0  0  0  0  0  0  0  0  0
  115.9198   42.0605   65.7590 H   0  0  0  0  0  0  0  0  0  0  0  0
  116.2377   42.2892   68.5392 H   0  0  0  0  0  0  0  0  0  0  0  0
  118.5177   44.5963   69.5395 C   0  0  0  0  0  0  0  0  0  0  0  0
  117.4834   44.3775   70.4789 O   0  0  0  0  0  0  0  0  0  0  0  0
  116.6309   44.3378   70.0179 H   0  0  0  0  0  0  0  0  0  0  0  0
  1  2  2  0  0  0
  1  3  1  0  0  0
  1  4  1  0  0  0
  2  5  1  0  0  0
  3  6  1  0  0  0
  3  7  1  0  0  0
  4 11  1  0  0  0
  7  8  1  0  0  0
  7  9  1  0  0  0
  9 10  1  0  0  0
  9 11  1  0  0  0
 11 17  1  0  0  0
 17 18  1  0  0  0
  4 12  1  0  0  0
  5 13  1  0  0  0
  6 14  1  0  0  0
  8 15  1  0  0  0
 10 16  1  0  0  0
 18 19  1  0  0  0
M  END
> <minimizedAffinity>
-6.17226

$$$$
1UWT_GTL_A_1490


 19 19  0  0  0  0  0  0  0  0999 V2000
  117.9939   40.6748   65.8864 C   0  0  0  0  0  0  0  0  0  0  0  0
  117.8800   40.8449   67.1961 N   0  0  0  0  0  0  0  0  0  0  0  0
  117.8212   41.9433   65.0236 C   0  0  0  0  0  0  0  0  0  0  0  0
  118.2919   39.3912   65.4034 N   0  0  0  0  0  0  0  0  0  0  0  0
  118.3914   39.8319   67.9996 O   0  0  0  0  0  0  0  0  0  0  0  0
  116.6295   42.5951   65.3980 O   0  0  0  0  0  0  0  0  0  0  0  0
  117.7049   41.5015   63.5582 C   0  0  0  0  0  0  0  0  0  0  0  0
  117.9214   42.6378   62.7475 O   0  0  0  0  0  0  0  0  0  0  0  0
  118.6865   40.3652   63.1558 C   0  0  0  0  0  0  0  0  0  0  0  0
  119.9728   40.7876   63.5558 O   0  0  0  0  0  0  0  0  0  0  0  0
  118.2563   39.1072   63.9599 C   0  0  0  0  0  0  0  0  0  0  0  0
  118.5269   38.6743   66.0360 H   0  0  0  0  0  0  0  0  0  0  0  0
  118.3371   39.9014   68.9324 H   0  0  0  0  0  0  0  0  0  0  0  0
  115.8793   41.9924   65.2762 H   0  0  0  0  0  0  0  0  0  0  0  0
  118.8161   42.9792   62.9018 H   0  0  0  0  0  0  0  0  0  0  0  0
  119.9680   40.9833   64.5059 H   0  0  0  0  0  0  0  0  0  0  0  0
  119.0795   37.8066   63.7057 C   0  0  0  0  0  0  0  0  0  0  0  0
  118.5721   36.7382   64.4811 O   0  0  0  0  0  0  0  0  0  0  0  0
  118.6350   36.9635   65.4225 H   0  0  0  0  0  0  0  0  0  0  0  0
  1  2  2  0  0  0
  1  3  1  0  0  0
  1  4  1  0  0  0
  2  5  1  0  0  0
  3  6  1  0  0  0
  3  7  1  0  0  0
  4 11  1  0  0  0
  7  8  1  0  0  0
  7  9  1  0  0  0
  9 10  1  0  0  0
  9 11  1  0  0  0
 11 17  1  0  0  0
 17 18  1  0  0  0
  4 12  1  0  0  0
  5 13  1  0  0  0
  6 14  1  0  0  0
  8 15  1  0  0  0
 10 16  1  0  0  0
 18 19  1  0  0  0
M  END
> <minimizedAffinity>
-6.09110

$$$$
1UWT_GTL_A_1490


 19 19  0  0  0  0  0  0  0  0999 V2000
  119.3487   40.9450   64.3538 C   0  0  0  0  0  0  0  0  0  0  0  0
  120.6184   40.6316   64.1373 N   0  0  0  0  0  0  0  0  0  0  0  0
  118.7379   40.4158   65.6692 C   0  0  0  0  0  0  0  0  0  0  0  0
  118.6881   41.7451   63.4087 N   0  0  0  0  0  0  0  0  0  0  0  0
  121.2889   41.3864   63.1812 O   0  0  0  0  0  0  0  0  0  0  0  0
  118.9950   39.0343   65.7723 O   0  0  0  0  0  0  0  0  0  0  0  0
  117.2199   40.6335   65.6023 C   0  0  0  0  0  0  0  0  0  0  0  0
  116.7086   40.5065   66.9128 O   0  0  0  0  0  0  0  0  0  0  0  0
  116.7989   42.0019   64.9965 C   0  0  0  0  0  0  0  0  0  0  0  0
  117.5172   42.9903   65.7038 O   0  0  0  0  0  0  0  0  0  0  0  0
  117.2381   41.9769   63.5063 C   0  0  0  0  0  0  0  0  0  0  0  0
  119.1993   42.1549   62.6738 H   0  0  0  0  0  0  0  0  0  0  0  0
  122.1882   41.2070   62.9889 H   0  0  0  0  0  0  0  0  0  0  0  0
  118.6125   38.5763   65.0076 H   0  0  0  0  0  0  0  0  0  0  0  0
  117.0986   41.1903   67.4796 H   0  0  0  0  0  0  0  0  0  0  0  0
  118.4677   42.8083   65.6382 H   0  0  0  0  0  0  0  0  0  0  0  0
  116.8961   43.2428   62.6612 C   0  0  0  0  0  0  0  0  0  0  0  0
  117.1795   43.0186   61.2939 O   0  0  0  0  0  0  0  0  0  0  0  0
  118.1235   42.8229   61.1872 H   0  0  0  0  0  0  0  0  0  0  0  0
  1  2  2  0  0  0
  1  3  1  0  0  0
  1  4  1  0  0  0
  2  5  1  0  0  0
  3  6  1  0  0  0
  3  7  1  0  0  0
  4 11  1  0  0  0
  7  8  1  0  0  0
  7  9  1  0  0  0
  9 10  1  0  0  0
  9 11  1  0  0  0
 11 17  1  0  0  0
 17 18  1  0  0  0
  4 12  1  0  0  0
  5 13  1  0  0  0
  6 14  1  0  0  0
  8 15  1  0  0  0
 10 16  1  0  0  0
 18 19  1  0  0  0
M  END
> <minimizedAffinity>
-6.05546

$$$$
1UWT_GTL_A_1490


 19 19  0  0  0  0  0  0  0  0999 V2000
  118.3891   39.9863   65.0286 C   0  0  0  0  0  0  0  0  0  0  0  0
  118.7991   38.9308   64.3395 N   0  0  0  0  0  0  0  0  0  0  0  0
  117.8546   41.1705   64.1946 C   0  0  0  0  0  0  0  0  0  0  0  0
  118.4388   39.9291   66.4300 N   0  0  0  0  0  0  0  0  0  0  0  0
  118.9246   37.7398   65.0461 O   0  0  0  0  0  0  0  0  0  0  0  0
  118.7946   41.4900   63.1949 O   0  0  0  0  0  0  0  0  0  0  0  0
  117.7020   42.3747   65.1342 C   0  0  0  0  0  0  0  0  0  0  0  0
  116.8811   43.3245   64.4868 O   0  0  0  0  0  0  0  0  0  0  0  0
  117.1122   42.0235   66.5289 C   0  0  0  0  0  0  0  0  0  0  0  0
  115.9274   41.2938   66.2899 O   0  0  0  0  0  0  0  0  0  0  0  0
  118.1648   41.1277   67.2387 C   0  0  0  0  0  0  0  0  0  0  0  0
  118.6590   39.0795   66.8760 H   0  0  0  0  0  0  0  0  0  0  0  0
  119.2108   36.9628   64.6075 H   0  0  0  0  0  0  0  0  0  0  0  0
  119.6422   41.7164   63.6086 H   0  0  0  0  0  0  0  0  0  0  0  0
  116.0055   42.9392   64.3264 H   0  0  0  0  0  0  0  0  0  0  0  0
  116.1299   40.5185   65.7434 H   0  0  0  0  0  0  0  0  0  0  0  0
  117.8159   40.6613   68.6859 C   0  0  0  0  0  0  0  0  0  0  0  0
  118.6021   39.5438   69.0507 O   0  0  0  0  0  0  0  0  0  0  0  0
  118.4257   38.8111   68.4400 H   0  0  0  0  0  0  0  0  0  0  0  0
  1  2  2  0  0  0
  1  3  1  0  0  0
  1  4  1  0  0  0
  2  5  1  0  0  0
  3  6  1  0  0  0
  3  7  1  0  0  0
  4 11  1  0  0  0
  7  8  1  0  0  0
  7  9  1  0  0  0
  9 10  1  0  0  0
  9 11  1  0  0  0
 11 17  1  0  0  0
 17 18  1  0  0  0
  4 12  1  0  0  0
  5 13  1  0  0  0
  6 14  1  0  0  0
  8 15  1  0  0  0
 10 16  1  0  0  0
 18 19  1  0  0  0
M  END
> <minimizedAffinity>
-5.99932

$$$$
1UWT_GTL_A_1490


 19 19  0  0  0  0  0  0  0  0999 V2000
  117.5373   41.0196   69.1746 C   0  0  0  0  0  0  0  0  0  0  0  0
  117.8385   40.6314   70.4058 N   0  0  0  0  0  0  0  0  0  0  0  0
  116.5187   42.1742   69.0614 C   0  0  0  0  0  0  0  0  0  0  0  0
  118.1817   40.3886   68.0993 N   0  0  0  0  0  0  0  0  0  0  0  0
  118.9990   39.8797   70.5523 O   0  0  0  0  0  0  0  0  0  0  0  0
  115.3856   41.8657   69.8399 O   0  0  0  0  0  0  0  0  0  0  0  0
  116.0943   42.2826   67.5902 C   0  0  0  0  0  0  0  0  0  0  0  0
  115.4725   43.5383   67.4129 O   0  0  0  0  0  0  0  0  0  0  0  0
  117.2618   42.1185   66.5769 C   0  0  0  0  0  0  0  0  0  0  0  0
  118.2705   43.0206   66.9794 O   0  0  0  0  0  0  0  0  0  0  0  0
  117.7607   40.6534   66.7143 C   0  0  0  0  0  0  0  0  0  0  0  0
  118.9219   39.7633   68.2731 H   0  0  0  0  0  0  0  0  0  0  0  0
  119.2586   39.5794   71.4011 H   0  0  0  0  0  0  0  0  0  0  0  0
  114.9968   41.0331   69.5291 H   0  0  0  0  0  0  0  0  0  0  0  0
  116.1082   44.2444   67.6085 H   0  0  0  0  0  0  0  0  0  0  0  0
  118.5204   42.8371   67.8985 H   0  0  0  0  0  0  0  0  0  0  0  0
  118.9251   40.2257   65.7682 C   0  0  0  0  0  0  0  0  0  0  0  0
  119.0620   38.8182   65.7541 O   0  0  0  0  0  0  0  0  0  0  0  0
  119.2616   38.5037   66.6498 H   0  0  0  0  0  0  0  0  0  0  0  0
  1  2  2  0  0  0
  1  3  1  0  0  0
  1  4  1  0  0  0
  2  5  1  0  0  0
  3  6  1  0  0  0
  3  7  1  0  0  0
  4 11  1  0  0  0
  7  8  1  0  0  0
  7  9  1  0  0  0
  9 10  1  0  0  0
  9 11  1  0  0  0
 11 17  1  0  0  0
 17 18  1  0  0  0
  4 12  1  0  0  0
  5 13  1  0  0  0
  6 14  1  0  0  0
  8 15  1  0  0  0
 10 16  1  0  0  0
 18 19  1  0  0  0
M  END
> <minimizedAffinity>
-5.79972

$$$$
