5G5Z_DQR_A_544
  RCSB PDB12061717483D
Coordinates from PDB:5G5Z:A:544 Model:1 without hydrogens
 34 36  0  0  0  0            999 V2000
  -38.0850  -14.5380    9.9590   C 0  0  0  0  0  0  0  0  0  0  0  0
  -36.8200  -13.4210    7.5340   C 0  0  0  0  0  0  0  0  0  0  0  0
  -37.3230  -12.2500    4.9080   C 0  0  0  0  0  0  0  0  0  0  0  0
  -39.5250  -14.1320   10.2490   C 0  0  0  0  0  0  0  0  0  0  0  0
  -35.9660  -13.8180    8.7600   C 0  0  0  0  0  0  0  0  0  0  0  0
  -36.6260  -11.4880    5.9910   C 0  0  0  0  0  0  0  0  0  0  0  0
  -39.6320  -13.2920   11.4740   C 0  0  0  0  0  0  0  0  0  0  0  0
  -34.9580  -12.8970    9.5170   C 0  0  0  0  0  0  0  0  0  0  0  0
  -36.8530  -10.1830    5.9870   C 0  0  0  0  0  0  0  0  0  0  0  0
  -39.1710  -14.0430   12.6550   C 0  0  0  0  0  0  0  0  0  0  0  0
  -34.3810  -13.8780   10.4910   C 0  0  0  0  0  0  0  0  0  0  0  0
  -35.5360   -9.6350    6.6300   C 0  0  0  0  0  0  0  0  0  0  0  0
  -37.8410  -14.7240   12.4410   C 0  0  0  0  0  0  0  0  0  0  0  0
  -34.4490  -15.0690    9.8960   C 0  0  0  0  0  0  0  0  0  0  0  0
  -34.4590  -10.5000    5.8930   C 0  0  0  0  0  0  0  0  0  0  0  0
  -37.7980  -15.8140   13.4600   C 0  0  0  0  0  0  0  0  0  0  0  0
  -34.4930  -16.1300   10.9410   C 0  0  0  0  0  0  0  0  0  0  0  0
  -33.1930  -10.6810    6.7290   C 0  0  0  0  0  0  0  0  0  0  0  0
  -37.1210  -13.4990    9.7100   O 0  0  0  0  0  0  0  0  0  0  0  0
  -36.9100  -12.0140    7.3460   O 0  0  0  0  0  0  0  0  0  0  0  0
  -38.7540  -12.1580    5.0150   O 0  0  0  0  0  0  0  0  0  0  0  0
  -40.1170  -13.4650    9.1180   O 0  0  0  0  0  0  0  0  0  0  0  0
  -35.8390  -15.0450    9.1060   O 0  0  0  0  0  0  0  0  0  0  0  0
  -35.0110  -11.6800    5.7270   O 0  0  0  0  0  0  0  0  0  0  0  0
  -41.0170  -12.8330   11.7140   O 0  0  0  0  0  0  0  0  0  0  0  0
  -35.4400  -11.8290   10.2110   O 0  0  0  0  0  0  0  0  0  0  0  0
  -37.9690   -9.7620    6.8330   O 0  0  0  0  0  0  0  0  0  0  0  0
  -38.9420  -13.1240   13.7610   O 0  0  0  0  0  0  0  0  0  0  0  0
  -32.9740  -13.5560   10.8660   O 0  0  0  0  0  0  0  0  0  0  0  0
  -35.3920   -8.3210    6.4010   O 0  0  0  0  0  0  0  0  0  0  0  0
  -37.6200  -15.3250   11.1090   O 0  0  0  0  0  0  0  0  0  0  0  0
  -34.8900  -17.3570   10.3470   O 0  0  0  0  0  0  0  0  0  0  0  0
  -32.3580  -11.4960    5.9600   O 0  0  0  0  0  0  0  0  0  0  0  0
  -36.6880  -15.5510   14.2440   O 0  0  0  0  0  0  0  0  0  0  0  0
  1  4  1  0  0  0  0
  1 19  1  0  0  0  0
  1 31  1  0  0  0  0
  2  5  1  0  0  0  0
  2 20  1  0  0  0  0
  3  6  1  0  0  0  0
  3 21  1  0  0  0  0
  4  7  1  0  0  0  0
  4 22  1  0  0  0  0
  5  8  1  0  0  0  0
  5 19  1  0  0  0  0
  5 23  1  0  0  0  0
  6  9  1  0  0  0  0
  6 20  1  0  0  0  0
  6 24  1  0  0  0  0
  7 10  1  0  0  0  0
  7 25  1  0  0  0  0
  8 11  1  0  0  0  0
  8 26  1  0  0  0  0
  9 12  1  0  0  0  0
  9 27  1  0  0  0  0
 10 13  1  0  0  0  0
 10 28  1  0  0  0  0
 11 14  1  0  0  0  0
 11 29  1  0  0  0  0
 12 15  1  0  0  0  0
 12 30  1  0  0  0  0
 13 16  1  0  0  0  0
 13 31  1  0  0  0  0
 14 17  1  0  0  0  0
 14 23  1  0  0  0  0
 15 18  1  0  0  0  0
 15 24  1  0  0  0  0
 16 34  1  0  0  0  0
 17 32  1  0  0  0  0
 18 33  1  0  0  0  0
A    1
C1
A    2
C10
A    3
C11
A    4
C2
A    5
C20
A    6
C21
A    7
C3
A    8
C30
A    9
C31
A   10
C4
A   11
C40
A   12
C41
A   13
C5
A   14
C50
A   15
C51
A   16
C6
A   17
C60
A   18
C61
A   19
O1
A   20
O10
A   21
O11
A   22
O2
A   23
O20
A   24
O21
A   25
O3
A   26
O30
A   27
O31
A   28
O4
A   29
O40
A   30
O41
A   31
O5
A   32
O60
A   33
O61
A   34
O6
M  END
>  <InstanceId>
5G5Z_DQR_A_544

>  <ChemCompId>
DQR

>  <PdbId>
5G5Z

>  <ChainId>
A

>  <ResidueNumber>
544

>  <InsertionCode>


>  <Model>
1

>  <AltIds>


>  <MissingHeavyAtoms>
0

>  <ObservedFormula>
C18 O16

>  <Name>
beta-D-fructofuranosyl-(2->1)-beta-D-fructofuranosyl alpha-D-glucopyranoside

>  <SystematicName>
(2R,3R,4S,5S,6R)-2-[(2S,3S,4S,5R)-2-[[(2R,3S,4S,5R)-2,5-bis(hydroxymethyl)-3,4-bis(oxidanyl)oxolan-2-yl]oxymethyl]-5-(hydroxymethyl)-3,4-bis(oxidanyl)oxolan-2-yl]oxy-6-(hydroxymethyl)oxane-3,4,5-triol

>  <Synonyms>
1-KESTOSE

>  <Type>
D-SACCHARIDE

>  <Formula>
C18 H32 O16

>  <MolecularWeight>
504.437

>  <ModifiedDate>
2011-08-10

>  <Parent>


>  <OneLetterCode>


>  <SubcomponentList>


>  <AmbiguousFlag>
N

>  <InChI>
InChI=1S/C18H32O16/c19-1-6-9(23)12(26)13(27)16(31-6)34-18(15(29)11(25)8(3-21)33-18)5-30-17(4-22)14(28)10(24)7(2-20)32-17/h6-16,19-29H,1-5H2/t6-,7-,8-,9-,10-,11-,12+,13-,14+,15+,16-,17-,18+/m1/s1

>  <InChIKey>
VAWYEUIPHLMNNF-OESPXIITSA-N

>  <SMILES>
C([C@@H]1[C@H]([C@@H]([C@H]([C@H](O1)O[C@]2([C@H]([C@@H]([C@H](O2)CO)O)O)CO[C@]3([C@H]([C@@H]([C@H](O3)CO)O)O)CO)O)O)O)O

$$$$
