5G5Z_DQR_A_544


 45 47  0  0  0  0  0  0  0  0999 V2000
  -35.8446  -15.4631   10.2119 C   0  0  0  0  0  0  0  0  0  0  0  0
  -36.8426  -14.2628   10.2332 C   0  0  0  0  0  0  0  0  0  0  0  0
  -36.2194  -13.3801    9.1958 C   0  0  0  0  0  0  0  0  0  0  0  0
  -35.6008  -14.1967    8.3428 C   0  0  0  0  0  0  0  0  0  0  0  0
  -34.9900  -15.3524    9.2638 O   0  0  0  0  0  0  0  0  0  0  0  0
  -36.9831  -13.5477   11.3837 O   0  0  0  0  0  0  0  0  0  0  0  0
  -37.2205  -12.5347    8.4837 O   0  0  0  0  0  0  0  0  0  0  0  0
  -36.1291  -13.1586   11.6289 H   0  0  0  0  0  0  0  0  0  0  0  0
  -37.8684  -13.1046    8.0406 H   0  0  0  0  0  0  0  0  0  0  0  0
  -34.4914  -13.4545    7.6809 C   0  0  0  0  0  0  0  0  0  0  0  0
  -34.1582  -12.3158    8.4607 O   0  0  0  0  0  0  0  0  0  0  0  0
  -34.9344  -11.7395    8.5396 H   0  0  0  0  0  0  0  0  0  0  0  0
  -35.9902  -16.7840   11.0019 C   0  0  0  0  0  0  0  0  0  0  0  0
  -35.9687  -16.5986   12.4120 O   0  0  0  0  0  0  0  0  0  0  0  0
  -37.2521  -16.7400   13.1375 C   0  0  0  0  0  0  0  0  0  0  0  0
  -37.0233  -17.3588   14.2861 C   0  0  0  0  0  0  0  0  0  0  0  0
  -36.4889  -16.1851   15.1722 C   0  0  0  0  0  0  0  0  0  0  0  0
  -37.4906  -15.0428   14.7940 C   0  0  0  0  0  0  0  0  0  0  0  0
  -37.7602  -15.2203   13.5210 O   0  0  0  0  0  0  0  0  0  0  0  0
  -35.9783  -18.3799   14.2239 O   0  0  0  0  0  0  0  0  0  0  0  0
  -36.5296  -16.5008   16.4754 O   0  0  0  0  0  0  0  0  0  0  0  0
  -35.1502  -17.9768   13.9196 H   0  0  0  0  0  0  0  0  0  0  0  0
  -37.4341  -16.7525   16.7191 H   0  0  0  0  0  0  0  0  0  0  0  0
  -38.3346  -17.3474   12.3017 C   0  0  0  0  0  0  0  0  0  0  0  0
  -38.5366  -18.7387   12.6035 O   0  0  0  0  0  0  0  0  0  0  0  0
  -37.7223  -19.2316   12.4170 H   0  0  0  0  0  0  0  0  0  0  0  0
  -36.8731  -13.6551   14.9599 C   0  0  0  0  0  0  0  0  0  0  0  0
  -35.8287  -13.6042   14.0328 O   0  0  0  0  0  0  0  0  0  0  0  0
  -35.2020  -14.3226   14.2120 H   0  0  0  0  0  0  0  0  0  0  0  0
  -34.9548  -14.8688   11.3043 O   0  0  0  0  0  0  0  0  0  0  0  0
  -33.5359  -14.8415   11.0660 C   0  0  0  0  0  0  0  0  0  0  0  0
  -32.6200  -15.5081   12.0855 C   0  0  0  0  0  0  0  0  0  0  0  0
  -32.7335  -14.8812   13.4315 C   0  0  0  0  0  0  0  0  0  0  0  0
  -32.3260  -13.4663   13.3764 C   0  0  0  0  0  0  0  0  0  0  0  0
  -32.9733  -12.7078   12.2432 C   0  0  0  0  0  0  0  0  0  0  0  0
  -32.8651  -16.9255   12.1589 O   0  0  0  0  0  0  0  0  0  0  0  0
  -31.9039  -15.5754   14.4397 O   0  0  0  0  0  0  0  0  0  0  0  0
  -32.7712  -12.7811   14.5816 O   0  0  0  0  0  0  0  0  0  0  0  0
  -33.1176  -13.4368   10.9656 O   0  0  0  0  0  0  0  0  0  0  0  0
  -33.7723  -17.0814   12.4649 H   0  0  0  0  0  0  0  0  0  0  0  0
  -30.9692  -15.5124   14.1882 H   0  0  0  0  0  0  0  0  0  0  0  0
  -33.7398  -12.8058   14.6285 H   0  0  0  0  0  0  0  0  0  0  0  0
  -32.0869  -11.5291   12.0127 C   0  0  0  0  0  0  0  0  0  0  0  0
  -30.8493  -11.8854   12.5200 O   0  0  0  0  0  0  0  0  0  0  0  0
  -30.9373  -12.1087   13.4599 H   0  0  0  0  0  0  0  0  0  0  0  0
 31 32  1  0  0  0
 31 30  1  0  0  0
 31 39  1  0  0  0
 13  1  1  0  0  0
 13 14  1  0  0  0
 24 15  1  0  0  0
 24 25  1  0  0  0
 32 33  1  0  0  0
 32 36  1  0  0  0
  1  2  1  0  0  0
  1 30  1  0  0  0
  1  5  1  0  0  0
 15 16  1  0  0  0
 15 14  1  0  0  0
 15 19  1  0  0  0
 33 34  1  0  0  0
 33 37  1  0  0  0
  2  3  1  0  0  0
  2  6  1  0  0  0
 16 17  1  0  0  0
 16 20  1  0  0  0
 34 35  1  0  0  0
 34 38  1  0  0  0
  3  4  1  0  0  0
  3  7  1  0  0  0
 17 18  1  0  0  0
 17 21  1  0  0  0
 35 43  1  0  0  0
 35 39  1  0  0  0
  4 10  1  0  0  0
  4  5  1  0  0  0
 18 27  1  0  0  0
 18 19  1  0  0  0
 43 44  1  0  0  0
 10 11  1  0  0  0
 27 28  1  0  0  0
 25 26  1  0  0  0
 36 40  1  0  0  0
 37 41  1  0  0  0
  6  8  1  0  0  0
 20 22  1  0  0  0
 38 42  1  0  0  0
  7  9  1  0  0  0
 21 23  1  0  0  0
 11 12  1  0  0  0
 28 29  1  0  0  0
 44 45  1  0  0  0
M  END
> <minimizedAffinity>
-0.00529

$$$$
5G5Z_DQR_A_544


 45 47  0  0  0  0  0  0  0  0999 V2000
  -34.2159  -14.9530    9.8606 C   0  0  0  0  0  0  0  0  0  0  0  0
  -32.9910  -13.9967    9.7103 C   0  0  0  0  0  0  0  0  0  0  0  0
  -33.5100  -13.0626    8.6606 C   0  0  0  0  0  0  0  0  0  0  0  0
  -34.8334  -13.0325    8.8181 C   0  0  0  0  0  0  0  0  0  0  0  0
  -35.2277  -14.5356    9.1949 O   0  0  0  0  0  0  0  0  0  0  0  0
  -31.8051  -14.5128    9.2839 O   0  0  0  0  0  0  0  0  0  0  0  0
  -32.9344  -11.6916    8.7756 O   0  0  0  0  0  0  0  0  0  0  0  0
  -31.9199  -14.9017    8.4027 H   0  0  0  0  0  0  0  0  0  0  0  0
  -33.1571  -11.3193    9.6432 H   0  0  0  0  0  0  0  0  0  0  0  0
  -35.4668  -12.6662    7.5203 C   0  0  0  0  0  0  0  0  0  0  0  0
  -34.5483  -12.9092    6.4651 O   0  0  0  0  0  0  0  0  0  0  0  0
  -33.7507  -12.3741    6.6011 H   0  0  0  0  0  0  0  0  0  0  0  0
  -34.3573  -16.0985   10.8891 C   0  0  0  0  0  0  0  0  0  0  0  0
  -33.3875  -17.1253   10.7209 O   0  0  0  0  0  0  0  0  0  0  0  0
  -32.2908  -17.1962   11.7136 C   0  0  0  0  0  0  0  0  0  0  0  0
  -32.0372  -18.4699   11.9745 C   0  0  0  0  0  0  0  0  0  0  0  0
  -31.1462  -18.8676   10.7513 C   0  0  0  0  0  0  0  0  0  0  0  0
  -30.2005  -17.6239   10.6511 C   0  0  0  0  0  0  0  0  0  0  0  0
  -30.9412  -16.5926   10.9864 O   0  0  0  0  0  0  0  0  0  0  0  0
  -33.2166  -19.3343   11.9647 O   0  0  0  0  0  0  0  0  0  0  0  0
  -30.4802  -20.0087   10.9841 O   0  0  0  0  0  0  0  0  0  0  0  0
  -33.6527  -19.2766   11.1002 H   0  0  0  0  0  0  0  0  0  0  0  0
  -29.9571  -19.9179   11.7959 H   0  0  0  0  0  0  0  0  0  0  0  0
  -32.5355  -16.3448   12.9197 C   0  0  0  0  0  0  0  0  0  0  0  0
  -32.9879  -17.1166   14.0455 O   0  0  0  0  0  0  0  0  0  0  0  0
  -33.8288  -17.5472   13.8254 H   0  0  0  0  0  0  0  0  0  0  0  0
  -29.6901  -17.3999    9.2285 C   0  0  0  0  0  0  0  0  0  0  0  0
  -30.8279  -17.1088    8.4712 O   0  0  0  0  0  0  0  0  0  0  0  0
  -31.4571  -17.8440    8.5375 H   0  0  0  0  0  0  0  0  0  0  0  0
  -33.7099  -15.9267    8.7956 O   0  0  0  0  0  0  0  0  0  0  0  0
  -34.6401  -16.3464    7.7810 C   0  0  0  0  0  0  0  0  0  0  0  0
  -34.8789  -17.8399    7.5942 C   0  0  0  0  0  0  0  0  0  0  0  0
  -33.6338  -18.5601    7.2084 C   0  0  0  0  0  0  0  0  0  0  0  0
  -33.1288  -18.0600    5.9176 C   0  0  0  0  0  0  0  0  0  0  0  0
  -33.0621  -16.5534    5.8520 C   0  0  0  0  0  0  0  0  0  0  0  0
  -35.4648  -18.4261    8.7721 O   0  0  0  0  0  0  0  0  0  0  0  0
  -33.8461  -20.0196    7.1020 O   0  0  0  0  0  0  0  0  0  0  0  0
  -31.7539  -18.4996    5.7261 O   0  0  0  0  0  0  0  0  0  0  0  0
  -34.1751  -15.8203    6.4906 O   0  0  0  0  0  0  0  0  0  0  0  0
  -34.8492  -18.3398    9.5167 H   0  0  0  0  0  0  0  0  0  0  0  0
  -34.4935  -20.2020    6.4031 H   0  0  0  0  0  0  0  0  0  0  0  0
  -31.1946  -18.1255    6.4247 H   0  0  0  0  0  0  0  0  0  0  0  0
  -33.0636  -16.2309    4.3945 C   0  0  0  0  0  0  0  0  0  0  0  0
  -33.6342  -17.3258    3.7686 O   0  0  0  0  0  0  0  0  0  0  0  0
  -33.1186  -18.1211    3.9748 H   0  0  0  0  0  0  0  0  0  0  0  0
 31 32  1  0  0  0
 31 30  1  0  0  0
 31 39  1  0  0  0
 13  1  1  0  0  0
 13 14  1  0  0  0
 24 15  1  0  0  0
 24 25  1  0  0  0
 32 33  1  0  0  0
 32 36  1  0  0  0
  1  2  1  0  0  0
  1 30  1  0  0  0
  1  5  1  0  0  0
 15 16  1  0  0  0
 15 14  1  0  0  0
 15 19  1  0  0  0
 33 34  1  0  0  0
 33 37  1  0  0  0
  2  3  1  0  0  0
  2  6  1  0  0  0
 16 17  1  0  0  0
 16 20  1  0  0  0
 34 35  1  0  0  0
 34 38  1  0  0  0
  3  4  1  0  0  0
  3  7  1  0  0  0
 17 18  1  0  0  0
 17 21  1  0  0  0
 35 43  1  0  0  0
 35 39  1  0  0  0
  4 10  1  0  0  0
  4  5  1  0  0  0
 18 27  1  0  0  0
 18 19  1  0  0  0
 43 44  1  0  0  0
 10 11  1  0  0  0
 27 28  1  0  0  0
 25 26  1  0  0  0
 36 40  1  0  0  0
 37 41  1  0  0  0
  6  8  1  0  0  0
 20 22  1  0  0  0
 38 42  1  0  0  0
  7  9  1  0  0  0
 21 23  1  0  0  0
 11 12  1  0  0  0
 28 29  1  0  0  0
 44 45  1  0  0  0
M  END
> <minimizedAffinity>
-0.00513

$$$$
5G5Z_DQR_A_544


 45 47  0  0  0  0  0  0  0  0999 V2000
  -41.0410  -11.4238    8.6820 C   0  0  0  0  0  0  0  0  0  0  0  0
  -41.9279  -10.1446    8.8026 C   0  0  0  0  0  0  0  0  0  0  0  0
  -43.2776  -10.7288    8.5179 C   0  0  0  0  0  0  0  0  0  0  0  0
  -43.2246  -11.9945    8.9332 C   0  0  0  0  0  0  0  0  0  0  0  0
  -41.7509  -12.4821    8.5497 O   0  0  0  0  0  0  0  0  0  0  0  0
  -41.7110   -9.1131    7.9404 O   0  0  0  0  0  0  0  0  0  0  0  0
  -44.3786   -9.9945    9.2053 O   0  0  0  0  0  0  0  0  0  0  0  0
  -41.8470   -9.4187    7.0299 H   0  0  0  0  0  0  0  0  0  0  0  0
  -44.2370  -10.0234   10.1645 H   0  0  0  0  0  0  0  0  0  0  0  0
  -44.2237  -12.7956    8.1719 C   0  0  0  0  0  0  0  0  0  0  0  0
  -44.5712  -12.1035    6.9818 O   0  0  0  0  0  0  0  0  0  0  0  0
  -44.9505  -11.2401    7.2090 H   0  0  0  0  0  0  0  0  0  0  0  0
  -39.5255  -11.5132    8.9740 C   0  0  0  0  0  0  0  0  0  0  0  0
  -38.7393  -10.7056    8.1063 O   0  0  0  0  0  0  0  0  0  0  0  0
  -38.1506   -9.4702    8.6725 C   0  0  0  0  0  0  0  0  0  0  0  0
  -36.9307   -9.3177    8.1793 C   0  0  0  0  0  0  0  0  0  0  0  0
  -37.2366   -8.6978    6.7756 C   0  0  0  0  0  0  0  0  0  0  0  0
  -38.3421   -7.6519    7.1432 C   0  0  0  0  0  0  0  0  0  0  0  0
  -39.0428   -8.2063    8.1057 O   0  0  0  0  0  0  0  0  0  0  0  0
  -36.2061  -10.5695    7.9638 O   0  0  0  0  0  0  0  0  0  0  0  0
  -36.1426   -8.1318    6.2440 O   0  0  0  0  0  0  0  0  0  0  0  0
  -36.7136  -11.1376    7.3633 H   0  0  0  0  0  0  0  0  0  0  0  0
  -35.7888   -7.4710    6.8597 H   0  0  0  0  0  0  0  0  0  0  0  0
  -38.2365   -9.4102   10.1652 C   0  0  0  0  0  0  0  0  0  0  0  0
  -36.9879   -9.7465   10.7942 O   0  0  0  0  0  0  0  0  0  0  0  0
  -36.7419  -10.6549   10.5593 H   0  0  0  0  0  0  0  0  0  0  0  0
  -39.2825   -7.3701    5.9725 C   0  0  0  0  0  0  0  0  0  0  0  0
  -39.9338   -8.5814    5.7244 O   0  0  0  0  0  0  0  0  0  0  0  0
  -39.2768   -9.2672    5.5270 H   0  0  0  0  0  0  0  0  0  0  0  0
  -40.7756  -11.2174    7.1903 O   0  0  0  0  0  0  0  0  0  0  0  0
  -40.9586  -12.3476    6.3186 C   0  0  0  0  0  0  0  0  0  0  0  0
  -39.7903  -12.7778    5.4397 C   0  0  0  0  0  0  0  0  0  0  0  0
  -39.3786  -11.7038    4.4937 C   0  0  0  0  0  0  0  0  0  0  0  0
  -40.4837  -11.3746    3.5763 C   0  0  0  0  0  0  0  0  0  0  0  0
  -41.7971  -11.1545    4.2869 C   0  0  0  0  0  0  0  0  0  0  0  0
  -38.6720  -13.2150    6.2352 O   0  0  0  0  0  0  0  0  0  0  0  0
  -38.1966  -12.0905    3.6939 O   0  0  0  0  0  0  0  0  0  0  0  0
  -40.2071  -10.1094    2.9105 O   0  0  0  0  0  0  0  0  0  0  0  0
  -42.0856  -12.0546    5.4230 O   0  0  0  0  0  0  0  0  0  0  0  0
  -38.3497  -12.4756    6.7740 H   0  0  0  0  0  0  0  0  0  0  0  0
  -38.4132  -12.8638    3.1499 H   0  0  0  0  0  0  0  0  0  0  0  0
  -40.1536   -9.4013    3.5713 H   0  0  0  0  0  0  0  0  0  0  0  0
  -42.8412  -11.3693    3.2419 C   0  0  0  0  0  0  0  0  0  0  0  0
  -42.2443  -12.1550    2.2712 O   0  0  0  0  0  0  0  0  0  0  0  0
  -41.4585  -11.7023    1.9268 H   0  0  0  0  0  0  0  0  0  0  0  0
 31 32  1  0  0  0
 31 30  1  0  0  0
 31 39  1  0  0  0
 13  1  1  0  0  0
 13 14  1  0  0  0
 24 15  1  0  0  0
 24 25  1  0  0  0
 32 33  1  0  0  0
 32 36  1  0  0  0
  1  2  1  0  0  0
  1 30  1  0  0  0
  1  5  1  0  0  0
 15 16  1  0  0  0
 15 14  1  0  0  0
 15 19  1  0  0  0
 33 34  1  0  0  0
 33 37  1  0  0  0
  2  3  1  0  0  0
  2  6  1  0  0  0
 16 17  1  0  0  0
 16 20  1  0  0  0
 34 35  1  0  0  0
 34 38  1  0  0  0
  3  4  1  0  0  0
  3  7  1  0  0  0
 17 18  1  0  0  0
 17 21  1  0  0  0
 35 43  1  0  0  0
 35 39  1  0  0  0
  4 10  1  0  0  0
  4  5  1  0  0  0
 18 27  1  0  0  0
 18 19  1  0  0  0
 43 44  1  0  0  0
 10 11  1  0  0  0
 27 28  1  0  0  0
 25 26  1  0  0  0
 36 40  1  0  0  0
 37 41  1  0  0  0
  6  8  1  0  0  0
 20 22  1  0  0  0
 38 42  1  0  0  0
  7  9  1  0  0  0
 21 23  1  0  0  0
 11 12  1  0  0  0
 28 29  1  0  0  0
 44 45  1  0  0  0
M  END
> <minimizedAffinity>
-0.00508

$$$$
5G5Z_DQR_A_544


 45 47  0  0  0  0  0  0  0  0999 V2000
  -39.1547  -11.9096    8.8293 C   0  0  0  0  0  0  0  0  0  0  0  0
  -37.8756  -12.5332    8.1871 C   0  0  0  0  0  0  0  0  0  0  0  0
  -37.1772  -11.2911    7.7251 C   0  0  0  0  0  0  0  0  0  0  0  0
  -37.5472  -10.3270    8.5681 C   0  0  0  0  0  0  0  0  0  0  0  0
  -39.0865  -10.6311    8.8760 O   0  0  0  0  0  0  0  0  0  0  0  0
  -38.0184  -13.3717    7.1236 O   0  0  0  0  0  0  0  0  0  0  0  0
  -35.6932  -11.4374    7.7108 O   0  0  0  0  0  0  0  0  0  0  0  0
  -38.4509  -12.8993    6.3952 H   0  0  0  0  0  0  0  0  0  0  0  0
  -35.3797  -11.6408    8.6059 H   0  0  0  0  0  0  0  0  0  0  0  0
  -37.4320   -9.0112    7.8788 C   0  0  0  0  0  0  0  0  0  0  0  0
  -37.4149   -9.2176    6.4741 O   0  0  0  0  0  0  0  0  0  0  0  0
  -36.6578   -9.7764    6.2386 H   0  0  0  0  0  0  0  0  0  0  0  0
  -40.2563  -12.6766    9.5962 C   0  0  0  0  0  0  0  0  0  0  0  0
  -40.9430  -13.6258    8.7897 O   0  0  0  0  0  0  0  0  0  0  0  0
  -40.6444  -15.0581    9.0194 C   0  0  0  0  0  0  0  0  0  0  0  0
  -41.7711  -15.7472    8.9183 C   0  0  0  0  0  0  0  0  0  0  0  0
  -41.9173  -15.8807    7.3662 C   0  0  0  0  0  0  0  0  0  0  0  0
  -40.4483  -16.2335    6.9551 C   0  0  0  0  0  0  0  0  0  0  0  0
  -39.6817  -15.5559    7.7784 O   0  0  0  0  0  0  0  0  0  0  0  0
  -42.9538  -15.0467    9.4173 O   0  0  0  0  0  0  0  0  0  0  0  0
  -42.7930  -16.8432    7.0402 O   0  0  0  0  0  0  0  0  0  0  0  0
  -43.0594  -14.2094    8.9390 H   0  0  0  0  0  0  0  0  0  0  0  0
  -42.5211  -17.6797    7.4492 H   0  0  0  0  0  0  0  0  0  0  0  0
  -39.8700  -15.3015   10.2765 C   0  0  0  0  0  0  0  0  0  0  0  0
  -40.7065  -15.7770   11.3452 O   0  0  0  0  0  0  0  0  0  0  0  0
  -41.3798  -15.1096   11.5501 H   0  0  0  0  0  0  0  0  0  0  0  0
  -40.1250  -15.7884    5.5297 C   0  0  0  0  0  0  0  0  0  0  0  0
  -40.2157  -14.3940    5.5504 O   0  0  0  0  0  0  0  0  0  0  0  0
  -41.1044  -14.1321    5.8376 H   0  0  0  0  0  0  0  0  0  0  0  0
  -39.9602  -11.9830    7.5315 O   0  0  0  0  0  0  0  0  0  0  0  0
  -40.6751  -10.8025    7.1237 C   0  0  0  0  0  0  0  0  0  0  0  0
  -42.1752  -10.9154    6.8802 C   0  0  0  0  0  0  0  0  0  0  0  0
  -42.4926  -11.8781    5.7893 C   0  0  0  0  0  0  0  0  0  0  0  0
  -41.9025  -11.4268    4.5167 C   0  0  0  0  0  0  0  0  0  0  0  0
  -40.4503  -11.0353    4.6438 C   0  0  0  0  0  0  0  0  0  0  0  0
  -42.8755  -11.2637    8.0897 O   0  0  0  0  0  0  0  0  0  0  0  0
  -43.9498  -12.0471    5.6035 O   0  0  0  0  0  0  0  0  0  0  0  0
  -41.9073  -12.5233    3.5586 O   0  0  0  0  0  0  0  0  0  0  0  0
  -40.0724  -10.3130    5.8766 O   0  0  0  0  0  0  0  0  0  0  0  0
  -42.5823  -12.1372    8.3929 H   0  0  0  0  0  0  0  0  0  0  0  0
  -44.3428  -11.1998    5.3415 H   0  0  0  0  0  0  0  0  0  0  0  0
  -41.3588  -13.2491    3.8952 H   0  0  0  0  0  0  0  0  0  0  0  0
  -40.1890  -10.1408    3.4777 C   0  0  0  0  0  0  0  0  0  0  0  0
  -41.4246   -9.6412    3.1039 O   0  0  0  0  0  0  0  0  0  0  0  0
  -42.0180  -10.3767    2.8850 H   0  0  0  0  0  0  0  0  0  0  0  0
 31 32  1  0  0  0
 31 30  1  0  0  0
 31 39  1  0  0  0
 13  1  1  0  0  0
 13 14  1  0  0  0
 24 15  1  0  0  0
 24 25  1  0  0  0
 32 33  1  0  0  0
 32 36  1  0  0  0
  1  2  1  0  0  0
  1 30  1  0  0  0
  1  5  1  0  0  0
 15 16  1  0  0  0
 15 14  1  0  0  0
 15 19  1  0  0  0
 33 34  1  0  0  0
 33 37  1  0  0  0
  2  3  1  0  0  0
  2  6  1  0  0  0
 16 17  1  0  0  0
 16 20  1  0  0  0
 34 35  1  0  0  0
 34 38  1  0  0  0
  3  4  1  0  0  0
  3  7  1  0  0  0
 17 18  1  0  0  0
 17 21  1  0  0  0
 35 43  1  0  0  0
 35 39  1  0  0  0
  4 10  1  0  0  0
  4  5  1  0  0  0
 18 27  1  0  0  0
 18 19  1  0  0  0
 43 44  1  0  0  0
 10 11  1  0  0  0
 27 28  1  0  0  0
 25 26  1  0  0  0
 36 40  1  0  0  0
 37 41  1  0  0  0
  6  8  1  0  0  0
 20 22  1  0  0  0
 38 42  1  0  0  0
  7  9  1  0  0  0
 21 23  1  0  0  0
 11 12  1  0  0  0
 28 29  1  0  0  0
 44 45  1  0  0  0
M  END
> <minimizedAffinity>
-0.00461

$$$$
5G5Z_DQR_A_544


 45 47  0  0  0  0  0  0  0  0999 V2000
  -33.9345  -11.2123    3.9725 C   0  0  0  0  0  0  0  0  0  0  0  0
  -35.4903  -11.2881    3.8663 C   0  0  0  0  0  0  0  0  0  0  0  0
  -35.7369  -10.2434    2.8214 C   0  0  0  0  0  0  0  0  0  0  0  0
  -34.6467  -10.2272    2.0544 C   0  0  0  0  0  0  0  0  0  0  0  0
  -33.4347  -10.4484    3.0736 O   0  0  0  0  0  0  0  0  0  0  0  0
  -36.2375  -10.9881    4.9646 O   0  0  0  0  0  0  0  0  0  0  0  0
  -36.9522  -10.5238    2.0038 O   0  0  0  0  0  0  0  0  0  0  0  0
  -36.0563  -10.0756    5.2395 H   0  0  0  0  0  0  0  0  0  0  0  0
  -36.8497  -11.3772    1.5544 H   0  0  0  0  0  0  0  0  0  0  0  0
  -34.5208   -8.8845    1.4211 C   0  0  0  0  0  0  0  0  0  0  0  0
  -35.2921   -7.9455    2.1555 O   0  0  0  0  0  0  0  0  0  0  0  0
  -36.2224   -8.2202    2.1549 H   0  0  0  0  0  0  0  0  0  0  0  0
  -33.0328  -12.1351    4.8242 C   0  0  0  0  0  0  0  0  0  0  0  0
  -33.2819  -12.0281    6.2204 O   0  0  0  0  0  0  0  0  0  0  0  0
  -33.9958  -13.1496    6.8732 C   0  0  0  0  0  0  0  0  0  0  0  0
  -33.4587  -13.3566    8.0662 C   0  0  0  0  0  0  0  0  0  0  0  0
  -34.1463  -12.2375    8.9166 C   0  0  0  0  0  0  0  0  0  0  0  0
  -35.6256  -12.3451    8.4153 C   0  0  0  0  0  0  0  0  0  0  0  0
  -35.5423  -12.6476    7.1401 O   0  0  0  0  0  0  0  0  0  0  0  0
  -32.0145  -13.1347    8.1245 O   0  0  0  0  0  0  0  0  0  0  0  0
  -34.0245  -12.4798   10.2304 O   0  0  0  0  0  0  0  0  0  0  0  0
  -31.8156  -12.2261    7.8493 H   0  0  0  0  0  0  0  0  0  0  0  0
  -34.3849  -13.3575   10.4321 H   0  0  0  0  0  0  0  0  0  0  0  0
  -34.0918  -14.3667    6.0079 C   0  0  0  0  0  0  0  0  0  0  0  0
  -33.1284  -15.3695    6.3738 O   0  0  0  0  0  0  0  0  0  0  0  0
  -32.2330  -15.0126    6.2651 H   0  0  0  0  0  0  0  0  0  0  0  0
  -36.3756  -11.0199    8.5412 C   0  0  0  0  0  0  0  0  0  0  0  0
  -35.7160  -10.1407    7.6782 O   0  0  0  0  0  0  0  0  0  0  0  0
  -34.7830  -10.0747    7.9350 H   0  0  0  0  0  0  0  0  0  0  0  0
  -33.9642  -10.1609    5.0824 O   0  0  0  0  0  0  0  0  0  0  0  0
  -33.1175   -9.0074    4.9300 C   0  0  0  0  0  0  0  0  0  0  0  0
  -32.1205   -8.6925    6.0388 C   0  0  0  0  0  0  0  0  0  0  0  0
  -32.7970   -8.4269    7.3386 C   0  0  0  0  0  0  0  0  0  0  0  0
  -33.6764   -7.2496    7.2301 C   0  0  0  0  0  0  0  0  0  0  0  0
  -34.5766   -7.2930    6.0192 C   0  0  0  0  0  0  0  0  0  0  0  0
  -31.1434   -9.7418    6.1756 O   0  0  0  0  0  0  0  0  0  0  0  0
  -31.8288   -8.1973    8.4324 O   0  0  0  0  0  0  0  0  0  0  0  0
  -34.5865   -7.2118    8.3661 O   0  0  0  0  0  0  0  0  0  0  0  0
  -33.9785   -7.8269    4.7777 O   0  0  0  0  0  0  0  0  0  0  0  0
  -31.5869  -10.5649    6.4338 H   0  0  0  0  0  0  0  0  0  0  0  0
  -31.2993   -7.4089    8.2353 H   0  0  0  0  0  0  0  0  0  0  0  0
  -35.1503   -8.0011    8.3551 H   0  0  0  0  0  0  0  0  0  0  0  0
  -34.9669   -5.8725    5.7783 C   0  0  0  0  0  0  0  0  0  0  0  0
  -33.9832   -5.1061    6.3791 O   0  0  0  0  0  0  0  0  0  0  0  0
  -33.9340   -5.3251    7.3228 H   0  0  0  0  0  0  0  0  0  0  0  0
 31 32  1  0  0  0
 31 30  1  0  0  0
 31 39  1  0  0  0
 13  1  1  0  0  0
 13 14  1  0  0  0
 24 15  1  0  0  0
 24 25  1  0  0  0
 32 33  1  0  0  0
 32 36  1  0  0  0
  1  2  1  0  0  0
  1 30  1  0  0  0
  1  5  1  0  0  0
 15 16  1  0  0  0
 15 14  1  0  0  0
 15 19  1  0  0  0
 33 34  1  0  0  0
 33 37  1  0  0  0
  2  3  1  0  0  0
  2  6  1  0  0  0
 16 17  1  0  0  0
 16 20  1  0  0  0
 34 35  1  0  0  0
 34 38  1  0  0  0
  3  4  1  0  0  0
  3  7  1  0  0  0
 17 18  1  0  0  0
 17 21  1  0  0  0
 35 43  1  0  0  0
 35 39  1  0  0  0
  4 10  1  0  0  0
  4  5  1  0  0  0
 18 27  1  0  0  0
 18 19  1  0  0  0
 43 44  1  0  0  0
 10 11  1  0  0  0
 27 28  1  0  0  0
 25 26  1  0  0  0
 36 40  1  0  0  0
 37 41  1  0  0  0
  6  8  1  0  0  0
 20 22  1  0  0  0
 38 42  1  0  0  0
  7  9  1  0  0  0
 21 23  1  0  0  0
 11 12  1  0  0  0
 28 29  1  0  0  0
 44 45  1  0  0  0
M  END
> <minimizedAffinity>
-0.00363

$$$$
5G5Z_DQR_A_544


 45 47  0  0  0  0  0  0  0  0999 V2000
  -38.0451  -10.7501   13.2617 C   0  0  0  0  0  0  0  0  0  0  0  0
  -37.8994   -9.6874   14.3961 C   0  0  0  0  0  0  0  0  0  0  0  0
  -36.7028   -8.9335   13.9025 C   0  0  0  0  0  0  0  0  0  0  0  0
  -36.7303   -9.0313   12.5733 C   0  0  0  0  0  0  0  0  0  0  0  0
  -37.2425  -10.5193   12.2901 O   0  0  0  0  0  0  0  0  0  0  0  0
  -37.6503  -10.1137   15.6653 O   0  0  0  0  0  0  0  0  0  0  0  0
  -36.7095   -7.5035   14.3257 O   0  0  0  0  0  0  0  0  0  0  0  0
  -36.8141  -10.6051   15.6831 H   0  0  0  0  0  0  0  0  0  0  0  0
  -37.5024   -7.0668   13.9771 H   0  0  0  0  0  0  0  0  0  0  0  0
  -35.3445   -8.8776   12.0482 C   0  0  0  0  0  0  0  0  0  0  0  0
  -34.4166   -9.1305   13.0927 O   0  0  0  0  0  0  0  0  0  0  0  0
  -34.5632   -8.5001   13.8151 H   0  0  0  0  0  0  0  0  0  0  0  0
  -39.1833  -11.7872   13.1247 C   0  0  0  0  0  0  0  0  0  0  0  0
  -39.2291  -12.7141   14.2026 O   0  0  0  0  0  0  0  0  0  0  0  0
  -40.3222  -12.5580   15.1896 C   0  0  0  0  0  0  0  0  0  0  0  0
  -40.7539  -13.7610   15.5375 C   0  0  0  0  0  0  0  0  0  0  0  0
  -39.6754  -14.1880   16.5877 C   0  0  0  0  0  0  0  0  0  0  0  0
  -39.5191  -12.8665   17.4125 C   0  0  0  0  0  0  0  0  0  0  0  0
  -39.6594  -11.8922   16.5432 O   0  0  0  0  0  0  0  0  0  0  0  0
  -40.7349  -14.7451   14.4560 O   0  0  0  0  0  0  0  0  0  0  0  0
  -40.1026  -15.2180   17.3336 O   0  0  0  0  0  0  0  0  0  0  0  0
  -39.8323  -14.8283   14.1105 H   0  0  0  0  0  0  0  0  0  0  0  0
  -40.9437  -14.9841   17.7564 H   0  0  0  0  0  0  0  0  0  0  0  0
  -41.3913  -11.6140   14.7364 C   0  0  0  0  0  0  0  0  0  0  0  0
  -42.5524  -12.3053   14.2450 O   0  0  0  0  0  0  0  0  0  0  0  0
  -42.3063  -12.8462   13.4783 H   0  0  0  0  0  0  0  0  0  0  0  0
  -38.1345  -12.7419   18.0464 C   0  0  0  0  0  0  0  0  0  0  0  0
  -37.2444  -12.6597   16.9723 O   0  0  0  0  0  0  0  0  0  0  0  0
  -37.3371  -13.4479   16.4145 H   0  0  0  0  0  0  0  0  0  0  0  0
  -37.1544  -11.7712   13.9704 O   0  0  0  0  0  0  0  0  0  0  0  0
  -36.1133  -12.3963   13.1984 C   0  0  0  0  0  0  0  0  0  0  0  0
  -36.0821  -13.9184   13.1278 C   0  0  0  0  0  0  0  0  0  0  0  0
  -35.9030  -14.5358   14.4710 C   0  0  0  0  0  0  0  0  0  0  0  0
  -34.6157  -14.1252   15.0588 C   0  0  0  0  0  0  0  0  0  0  0  0
  -34.3795  -12.6362   14.9848 C   0  0  0  0  0  0  0  0  0  0  0  0
  -37.2604  -14.4350   12.4802 O   0  0  0  0  0  0  0  0  0  0  0  0
  -35.9498  -16.0127   14.4147 O   0  0  0  0  0  0  0  0  0  0  0  0
  -34.6078  -14.4304   16.4825 O   0  0  0  0  0  0  0  0  0  0  0  0
  -34.8195  -11.9644   13.7441 O   0  0  0  0  0  0  0  0  0  0  0  0
  -38.0443  -14.2026   13.0021 H   0  0  0  0  0  0  0  0  0  0  0  0
  -35.2194  -16.3386   13.8659 H   0  0  0  0  0  0  0  0  0  0  0  0
  -35.3071  -13.9247   16.9254 H   0  0  0  0  0  0  0  0  0  0  0  0
  -32.9005  -12.4743   15.1063 C   0  0  0  0  0  0  0  0  0  0  0  0
  -32.3571  -13.6855   14.7146 O   0  0  0  0  0  0  0  0  0  0  0  0
  -32.7032  -14.3933   15.2805 H   0  0  0  0  0  0  0  0  0  0  0  0
 31 32  1  0  0  0
 31 30  1  0  0  0
 31 39  1  0  0  0
 13  1  1  0  0  0
 13 14  1  0  0  0
 24 15  1  0  0  0
 24 25  1  0  0  0
 32 33  1  0  0  0
 32 36  1  0  0  0
  1  2  1  0  0  0
  1 30  1  0  0  0
  1  5  1  0  0  0
 15 16  1  0  0  0
 15 14  1  0  0  0
 15 19  1  0  0  0
 33 34  1  0  0  0
 33 37  1  0  0  0
  2  3  1  0  0  0
  2  6  1  0  0  0
 16 17  1  0  0  0
 16 20  1  0  0  0
 34 35  1  0  0  0
 34 38  1  0  0  0
  3  4  1  0  0  0
  3  7  1  0  0  0
 17 18  1  0  0  0
 17 21  1  0  0  0
 35 43  1  0  0  0
 35 39  1  0  0  0
  4 10  1  0  0  0
  4  5  1  0  0  0
 18 27  1  0  0  0
 18 19  1  0  0  0
 43 44  1  0  0  0
 10 11  1  0  0  0
 27 28  1  0  0  0
 25 26  1  0  0  0
 36 40  1  0  0  0
 37 41  1  0  0  0
  6  8  1  0  0  0
 20 22  1  0  0  0
 38 42  1  0  0  0
  7  9  1  0  0  0
 21 23  1  0  0  0
 11 12  1  0  0  0
 28 29  1  0  0  0
 44 45  1  0  0  0
M  END
> <minimizedAffinity>
-0.00346

$$$$
5G5Z_DQR_A_544


 45 47  0  0  0  0  0  0  0  0999 V2000
  -36.1884   -7.4939    6.4336 C   0  0  0  0  0  0  0  0  0  0  0  0
  -34.9085   -6.9619    7.1521 C   0  0  0  0  0  0  0  0  0  0  0  0
  -34.0844   -6.5627    5.9666 C   0  0  0  0  0  0  0  0  0  0  0  0
  -34.9527   -6.2239    5.0135 C   0  0  0  0  0  0  0  0  0  0  0  0
  -36.1527   -7.2686    5.1729 O   0  0  0  0  0  0  0  0  0  0  0  0
  -34.1806   -7.8224    7.9165 O   0  0  0  0  0  0  0  0  0  0  0  0
  -33.1602   -5.4307    6.2638 O   0  0  0  0  0  0  0  0  0  0  0  0
  -33.8638   -8.5554    7.3658 H   0  0  0  0  0  0  0  0  0  0  0  0
  -33.6751   -4.6577    6.5434 H   0  0  0  0  0  0  0  0  0  0  0  0
  -34.3083   -6.4111    3.6833 C   0  0  0  0  0  0  0  0  0  0  0  0
  -33.1992   -7.2872    3.8187 O   0  0  0  0  0  0  0  0  0  0  0  0
  -32.5595   -6.9054    4.4399 H   0  0  0  0  0  0  0  0  0  0  0  0
  -37.4900   -7.9665    7.1211 C   0  0  0  0  0  0  0  0  0  0  0  0
  -37.3027   -9.1053    7.9524 O   0  0  0  0  0  0  0  0  0  0  0  0
  -37.3338   -8.8920    9.4177 C   0  0  0  0  0  0  0  0  0  0  0  0
  -37.9659   -9.9107    9.9808 C   0  0  0  0  0  0  0  0  0  0  0  0
  -36.8384  -10.9948   10.0199 C   0  0  0  0  0  0  0  0  0  0  0  0
  -35.6172  -10.1413   10.5013 C   0  0  0  0  0  0  0  0  0  0  0  0
  -35.7756   -8.9605    9.9489 O   0  0  0  0  0  0  0  0  0  0  0  0
  -39.0712  -10.4477    9.1880 O   0  0  0  0  0  0  0  0  0  0  0  0
  -37.1454  -11.9868   10.8692 O   0  0  0  0  0  0  0  0  0  0  0  0
  -38.7399  -10.7303    8.3212 H   0  0  0  0  0  0  0  0  0  0  0  0
  -37.3196  -11.6171   11.7489 H   0  0  0  0  0  0  0  0  0  0  0  0
  -37.8508   -7.5416    9.8030 C   0  0  0  0  0  0  0  0  0  0  0  0
  -39.2192   -7.5899   10.2421 O   0  0  0  0  0  0  0  0  0  0  0  0
  -39.7794   -7.9140    9.5196 H   0  0  0  0  0  0  0  0  0  0  0  0
  -34.2857  -10.7161   10.0205 C   0  0  0  0  0  0  0  0  0  0  0  0
  -34.3257  -10.6202    8.6270 O   0  0  0  0  0  0  0  0  0  0  0  0
  -35.0934  -11.1087    8.2911 H   0  0  0  0  0  0  0  0  0  0  0  0
  -35.6674   -8.9296    6.3579 O   0  0  0  0  0  0  0  0  0  0  0  0
  -35.7602   -9.6059    5.0911 C   0  0  0  0  0  0  0  0  0  0  0  0
  -36.4983  -10.9381    5.0367 C   0  0  0  0  0  0  0  0  0  0  0  0
  -35.8600  -11.9656    5.9052 C   0  0  0  0  0  0  0  0  0  0  0  0
  -34.4844  -12.2392    5.4533 C   0  0  0  0  0  0  0  0  0  0  0  0
  -33.6778  -10.9848    5.2201 C   0  0  0  0  0  0  0  0  0  0  0  0
  -37.8899  -10.7778    5.3719 O   0  0  0  0  0  0  0  0  0  0  0  0
  -36.6183  -13.2350    5.9138 O   0  0  0  0  0  0  0  0  0  0  0  0
  -33.7606  -12.9561    6.4936 O   0  0  0  0  0  0  0  0  0  0  0  0
  -34.3960   -9.8497    4.6037 O   0  0  0  0  0  0  0  0  0  0  0  0
  -37.9680  -10.4603    6.2851 H   0  0  0  0  0  0  0  0  0  0  0  0
  -36.6348  -13.6079    5.0185 H   0  0  0  0  0  0  0  0  0  0  0  0
  -33.7037  -12.4024    7.2881 H   0  0  0  0  0  0  0  0  0  0  0  0
  -32.5784  -11.3994    4.2994 C   0  0  0  0  0  0  0  0  0  0  0  0
  -33.0359  -12.5370    3.6572 O   0  0  0  0  0  0  0  0  0  0  0  0
  -33.2481  -13.2169    4.3157 H   0  0  0  0  0  0  0  0  0  0  0  0
 31 32  1  0  0  0
 31 30  1  0  0  0
 31 39  1  0  0  0
 13  1  1  0  0  0
 13 14  1  0  0  0
 24 15  1  0  0  0
 24 25  1  0  0  0
 32 33  1  0  0  0
 32 36  1  0  0  0
  1  2  1  0  0  0
  1 30  1  0  0  0
  1  5  1  0  0  0
 15 16  1  0  0  0
 15 14  1  0  0  0
 15 19  1  0  0  0
 33 34  1  0  0  0
 33 37  1  0  0  0
  2  3  1  0  0  0
  2  6  1  0  0  0
 16 17  1  0  0  0
 16 20  1  0  0  0
 34 35  1  0  0  0
 34 38  1  0  0  0
  3  4  1  0  0  0
  3  7  1  0  0  0
 17 18  1  0  0  0
 17 21  1  0  0  0
 35 43  1  0  0  0
 35 39  1  0  0  0
  4 10  1  0  0  0
  4  5  1  0  0  0
 18 27  1  0  0  0
 18 19  1  0  0  0
 43 44  1  0  0  0
 10 11  1  0  0  0
 27 28  1  0  0  0
 25 26  1  0  0  0
 36 40  1  0  0  0
 37 41  1  0  0  0
  6  8  1  0  0  0
 20 22  1  0  0  0
 38 42  1  0  0  0
  7  9  1  0  0  0
 21 23  1  0  0  0
 11 12  1  0  0  0
 28 29  1  0  0  0
 44 45  1  0  0  0
M  END
> <minimizedAffinity>
-0.00342

$$$$
5G5Z_DQR_A_544


 45 47  0  0  0  0  0  0  0  0999 V2000
  -35.7136  -12.7919    7.8023 C   0  0  0  0  0  0  0  0  0  0  0  0
  -35.8707  -14.3417    7.9071 C   0  0  0  0  0  0  0  0  0  0  0  0
  -35.2304  -14.5846    9.2393 C   0  0  0  0  0  0  0  0  0  0  0  0
  -35.4282  -13.4739    9.9495 C   0  0  0  0  0  0  0  0  0  0  0  0
  -35.2669  -12.2860    8.8913 O   0  0  0  0  0  0  0  0  0  0  0  0
  -35.2551  -15.1269    6.9802 O   0  0  0  0  0  0  0  0  0  0  0  0
  -35.8005  -15.7689    9.9439 O   0  0  0  0  0  0  0  0  0  0  0  0
  -34.2975  -14.9764    7.0137 H   0  0  0  0  0  0  0  0  0  0  0  0
  -36.7498  -15.6325   10.0893 H   0  0  0  0  0  0  0  0  0  0  0  0
  -34.3603  -13.3636   10.9825 C   0  0  0  0  0  0  0  0  0  0  0  0
  -33.2596  -14.1785   10.6080 O   0  0  0  0  0  0  0  0  0  0  0  0
  -33.5500  -15.1013   10.5366 H   0  0  0  0  0  0  0  0  0  0  0  0
  -36.2800  -11.8920    6.6801 C   0  0  0  0  0  0  0  0  0  0  0  0
  -35.7339  -12.1831    5.3995 O   0  0  0  0  0  0  0  0  0  0  0  0
  -36.6056  -12.8871    4.4310 C   0  0  0  0  0  0  0  0  0  0  0  0
  -36.3965  -12.3790    3.2257 C   0  0  0  0  0  0  0  0  0  0  0  0
  -35.0852  -13.1180    2.7984 C   0  0  0  0  0  0  0  0  0  0  0  0
  -35.3979  -14.5794    3.2651 C   0  0  0  0  0  0  0  0  0  0  0  0
  -36.0951  -14.4525    4.3708 O   0  0  0  0  0  0  0  0  0  0  0  0
  -36.1206  -10.9430    3.2157 O   0  0  0  0  0  0  0  0  0  0  0  0
  -34.8839  -13.0275    1.4752 O   0  0  0  0  0  0  0  0  0  0  0  0
  -35.3445  -10.7590    3.7677 H   0  0  0  0  0  0  0  0  0  0  0  0
  -35.6599  -13.3715    1.0058 H   0  0  0  0  0  0  0  0  0  0  0  0
  -38.0401  -12.9283    4.8550 C   0  0  0  0  0  0  0  0  0  0  0  0
  -38.8377  -11.9508    4.1650 O   0  0  0  0  0  0  0  0  0  0  0  0
  -38.5063  -11.0619    4.3672 H   0  0  0  0  0  0  0  0  0  0  0  0
  -34.1289  -15.3654    3.5911 C   0  0  0  0  0  0  0  0  0  0  0  0
  -33.5562  -14.7037    4.6806 O   0  0  0  0  0  0  0  0  0  0  0  0
  -33.3801  -13.7802    4.4418 H   0  0  0  0  0  0  0  0  0  0  0  0
  -34.3605  -12.8792    7.0954 O   0  0  0  0  0  0  0  0  0  0  0  0
  -33.2918  -12.0575    7.5989 C   0  0  0  0  0  0  0  0  0  0  0  0
  -32.6016  -11.1005    6.6344 C   0  0  0  0  0  0  0  0  0  0  0  0
  -31.9509  -11.8199    5.5045 C   0  0  0  0  0  0  0  0  0  0  0  0
  -30.9020  -12.7250    6.0063 C   0  0  0  0  0  0  0  0  0  0  0  0
  -31.3655  -13.5892    7.1538 C   0  0  0  0  0  0  0  0  0  0  0  0
  -33.5171  -10.1018    6.1456 O   0  0  0  0  0  0  0  0  0  0  0  0
  -31.3471  -10.8890    4.5269 O   0  0  0  0  0  0  0  0  0  0  0  0
  -30.5274  -13.6675    4.9615 O   0  0  0  0  0  0  0  0  0  0  0  0
  -32.2535  -12.9431    8.1429 O   0  0  0  0  0  0  0  0  0  0  0  0
  -34.2259  -10.5318    5.6420 H   0  0  0  0  0  0  0  0  0  0  0  0
  -30.6485  -10.3739    4.9599 H   0  0  0  0  0  0  0  0  0  0  0  0
  -31.2956  -14.2109    4.7258 H   0  0  0  0  0  0  0  0  0  0  0  0
  -30.1137  -14.0078    7.8509 C   0  0  0  0  0  0  0  0  0  0  0  0
  -29.1619  -13.0610    7.5137 O   0  0  0  0  0  0  0  0  0  0  0  0
  -29.0612  -13.0330    6.5494 H   0  0  0  0  0  0  0  0  0  0  0  0
 31 32  1  0  0  0
 31 30  1  0  0  0
 31 39  1  0  0  0
 13  1  1  0  0  0
 13 14  1  0  0  0
 24 15  1  0  0  0
 24 25  1  0  0  0
 32 33  1  0  0  0
 32 36  1  0  0  0
  1  2  1  0  0  0
  1 30  1  0  0  0
  1  5  1  0  0  0
 15 16  1  0  0  0
 15 14  1  0  0  0
 15 19  1  0  0  0
 33 34  1  0  0  0
 33 37  1  0  0  0
  2  3  1  0  0  0
  2  6  1  0  0  0
 16 17  1  0  0  0
 16 20  1  0  0  0
 34 35  1  0  0  0
 34 38  1  0  0  0
  3  4  1  0  0  0
  3  7  1  0  0  0
 17 18  1  0  0  0
 17 21  1  0  0  0
 35 43  1  0  0  0
 35 39  1  0  0  0
  4 10  1  0  0  0
  4  5  1  0  0  0
 18 27  1  0  0  0
 18 19  1  0  0  0
 43 44  1  0  0  0
 10 11  1  0  0  0
 27 28  1  0  0  0
 25 26  1  0  0  0
 36 40  1  0  0  0
 37 41  1  0  0  0
  6  8  1  0  0  0
 20 22  1  0  0  0
 38 42  1  0  0  0
  7  9  1  0  0  0
 21 23  1  0  0  0
 11 12  1  0  0  0
 28 29  1  0  0  0
 44 45  1  0  0  0
M  END
> <minimizedAffinity>
-0.00342

$$$$
5G5Z_DQR_A_544


 45 47  0  0  0  0  0  0  0  0999 V2000
  -34.6378  -12.9747   10.2174 C   0  0  0  0  0  0  0  0  0  0  0  0
  -33.1056  -13.2107   10.0329 C   0  0  0  0  0  0  0  0  0  0  0  0
  -32.8773  -12.4814    8.7445 C   0  0  0  0  0  0  0  0  0  0  0  0
  -33.7861  -11.5068    8.7085 C   0  0  0  0  0  0  0  0  0  0  0  0
  -35.1003  -12.1588    9.3445 O   0  0  0  0  0  0  0  0  0  0  0  0
  -32.6510  -14.4870    9.8955 O   0  0  0  0  0  0  0  0  0  0  0  0
  -31.4994  -11.9211    8.6375 O   0  0  0  0  0  0  0  0  0  0  0  0
  -33.0558  -14.8918    9.1124 H   0  0  0  0  0  0  0  0  0  0  0  0
  -31.3465  -11.2976    9.3646 H   0  0  0  0  0  0  0  0  0  0  0  0
  -34.0519  -11.1455    7.2877 C   0  0  0  0  0  0  0  0  0  0  0  0
  -33.6311  -12.2093    6.4468 O   0  0  0  0  0  0  0  0  0  0  0  0
  -32.6816  -12.3640    6.5716 H   0  0  0  0  0  0  0  0  0  0  0  0
  -35.4844  -13.3960   11.4404 C   0  0  0  0  0  0  0  0  0  0  0  0
  -35.5273  -14.8045   11.6335 O   0  0  0  0  0  0  0  0  0  0  0  0
  -34.7426  -15.3622   12.7590 C   0  0  0  0  0  0  0  0  0  0  0  0
  -35.4425  -16.3356   13.3221 C   0  0  0  0  0  0  0  0  0  0  0  0
  -35.1594  -17.5273   12.3484 C   0  0  0  0  0  0  0  0  0  0  0  0
  -33.6205  -17.3630   12.1117 C   0  0  0  0  0  0  0  0  0  0  0  0
  -33.4024  -16.0680   12.1104 O   0  0  0  0  0  0  0  0  0  0  0  0
  -36.8871  -16.1087   13.3383 O   0  0  0  0  0  0  0  0  0  0  0  0
  -35.4753  -18.7029   12.9123 O   0  0  0  0  0  0  0  0  0  0  0  0
  -37.2050  -15.9846   12.4303 H   0  0  0  0  0  0  0  0  0  0  0  0
  -34.9942  -18.7998   13.7490 H   0  0  0  0  0  0  0  0  0  0  0  0
  -34.2495  -14.3141   13.7064 C   0  0  0  0  0  0  0  0  0  0  0  0
  -35.0489  -14.2424   14.8995 O   0  0  0  0  0  0  0  0  0  0  0  0
  -35.9603  -14.0079   14.6645 H   0  0  0  0  0  0  0  0  0  0  0  0
  -33.1819  -17.9200   10.7582 C   0  0  0  0  0  0  0  0  0  0  0  0
  -33.8276  -17.1256    9.8070 O   0  0  0  0  0  0  0  0  0  0  0  0
  -34.7867  -17.1723    9.9440 H   0  0  0  0  0  0  0  0  0  0  0  0
  -35.0233  -14.2510    9.4686 O   0  0  0  0  0  0  0  0  0  0  0  0
  -36.0359  -14.1465    8.4514 C   0  0  0  0  0  0  0  0  0  0  0  0
  -37.2651  -15.0404    8.5622 C   0  0  0  0  0  0  0  0  0  0  0  0
  -36.9099  -16.4859    8.5168 C   0  0  0  0  0  0  0  0  0  0  0  0
  -36.2739  -16.8194    7.2301 C   0  0  0  0  0  0  0  0  0  0  0  0
  -35.1718  -15.8610    6.8488 C   0  0  0  0  0  0  0  0  0  0  0  0
  -38.0255  -14.7375    9.7474 O   0  0  0  0  0  0  0  0  0  0  0  0
  -38.0919  -17.3549    8.7016 O   0  0  0  0  0  0  0  0  0  0  0  0
  -35.6183  -18.1158    7.3293 O   0  0  0  0  0  0  0  0  0  0  0  0
  -35.4099  -14.4346    7.1540 O   0  0  0  0  0  0  0  0  0  0  0  0
  -37.4857  -14.9181   10.5328 H   0  0  0  0  0  0  0  0  0  0  0  0
  -38.7192  -17.2060    7.9769 H   0  0  0  0  0  0  0  0  0  0  0  0
  -34.9189  -18.0740    8.0001 H   0  0  0  0  0  0  0  0  0  0  0  0
  -35.0294  -16.0064    5.3700 C   0  0  0  0  0  0  0  0  0  0  0  0
  -36.2387  -16.5114    4.9245 O   0  0  0  0  0  0  0  0  0  0  0  0
  -36.4195  -17.3553    5.3673 H   0  0  0  0  0  0  0  0  0  0  0  0
 31 32  1  0  0  0
 31 30  1  0  0  0
 31 39  1  0  0  0
 13  1  1  0  0  0
 13 14  1  0  0  0
 24 15  1  0  0  0
 24 25  1  0  0  0
 32 33  1  0  0  0
 32 36  1  0  0  0
  1  2  1  0  0  0
  1 30  1  0  0  0
  1  5  1  0  0  0
 15 16  1  0  0  0
 15 14  1  0  0  0
 15 19  1  0  0  0
 33 34  1  0  0  0
 33 37  1  0  0  0
  2  3  1  0  0  0
  2  6  1  0  0  0
 16 17  1  0  0  0
 16 20  1  0  0  0
 34 35  1  0  0  0
 34 38  1  0  0  0
  3  4  1  0  0  0
  3  7  1  0  0  0
 17 18  1  0  0  0
 17 21  1  0  0  0
 35 43  1  0  0  0
 35 39  1  0  0  0
  4 10  1  0  0  0
  4  5  1  0  0  0
 18 27  1  0  0  0
 18 19  1  0  0  0
 43 44  1  0  0  0
 10 11  1  0  0  0
 27 28  1  0  0  0
 25 26  1  0  0  0
 36 40  1  0  0  0
 37 41  1  0  0  0
  6  8  1  0  0  0
 20 22  1  0  0  0
 38 42  1  0  0  0
  7  9  1  0  0  0
 21 23  1  0  0  0
 11 12  1  0  0  0
 28 29  1  0  0  0
 44 45  1  0  0  0
M  END
> <minimizedAffinity>
-0.00325

$$$$
5G5Z_DQR_A_544


 45 47  0  0  0  0  0  0  0  0999 V2000
  -35.3280   -9.7549   10.8557 C   0  0  0  0  0  0  0  0  0  0  0  0
  -33.9294  -10.2554   11.3362 C   0  0  0  0  0  0  0  0  0  0  0  0
  -33.0362   -9.3564   10.5375 C   0  0  0  0  0  0  0  0  0  0  0  0
  -33.7236   -8.2299   10.3488 C   0  0  0  0  0  0  0  0  0  0  0  0
  -35.2305   -8.7123   10.1177 O   0  0  0  0  0  0  0  0  0  0  0  0
  -33.5759  -11.5475   11.0907 O   0  0  0  0  0  0  0  0  0  0  0  0
  -31.7420   -9.0752   11.2230 O   0  0  0  0  0  0  0  0  0  0  0  0
  -33.5759  -11.7065   10.1339 H   0  0  0  0  0  0  0  0  0  0  0  0
  -31.9142   -8.6447   12.0750 H   0  0  0  0  0  0  0  0  0  0  0  0
  -33.2248   -7.5597    9.1151 C   0  0  0  0  0  0  0  0  0  0  0  0
  -32.5368   -8.5074    8.3122 O   0  0  0  0  0  0  0  0  0  0  0  0
  -31.7885   -8.8711    8.8109 H   0  0  0  0  0  0  0  0  0  0  0  0
  -36.6987  -10.2211   11.3978 C   0  0  0  0  0  0  0  0  0  0  0  0
  -36.9500  -11.6027   11.1715 O   0  0  0  0  0  0  0  0  0  0  0  0
  -36.8702  -12.5101   12.3392 C   0  0  0  0  0  0  0  0  0  0  0  0
  -37.8362  -13.4112   12.2423 C   0  0  0  0  0  0  0  0  0  0  0  0
  -37.2134  -14.4289   11.2300 C   0  0  0  0  0  0  0  0  0  0  0  0
  -35.7492  -14.5362   11.7739 C   0  0  0  0  0  0  0  0  0  0  0  0
  -35.4498  -13.3355   12.2134 O   0  0  0  0  0  0  0  0  0  0  0  0
  -39.0770  -12.9052   11.6568 O   0  0  0  0  0  0  0  0  0  0  0  0
  -37.8640  -15.6018   11.2556 O   0  0  0  0  0  0  0  0  0  0  0  0
  -38.8959  -12.5496   10.7727 H   0  0  0  0  0  0  0  0  0  0  0  0
  -37.8664  -15.9505   12.1608 H   0  0  0  0  0  0  0  0  0  0  0  0
  -36.8195  -11.7818   13.6455 C   0  0  0  0  0  0  0  0  0  0  0  0
  -38.0925  -11.7786   14.3143 O   0  0  0  0  0  0  0  0  0  0  0  0
  -38.7474  -11.3254   13.7607 H   0  0  0  0  0  0  0  0  0  0  0  0
  -34.7512  -14.9033   10.6768 C   0  0  0  0  0  0  0  0  0  0  0  0
  -34.7750  -13.8288    9.7837 O   0  0  0  0  0  0  0  0  0  0  0  0
  -35.6775  -13.7055    9.4502 H   0  0  0  0  0  0  0  0  0  0  0  0
  -35.4020  -10.7618    9.7073 O   0  0  0  0  0  0  0  0  0  0  0  0
  -35.7707  -10.2646    8.4082 C   0  0  0  0  0  0  0  0  0  0  0  0
  -36.9659  -10.8976    7.7057 C   0  0  0  0  0  0  0  0  0  0  0  0
  -36.7571  -12.3494    7.4484 C   0  0  0  0  0  0  0  0  0  0  0  0
  -35.6014  -12.5533    6.5573 C   0  0  0  0  0  0  0  0  0  0  0  0
  -34.3782  -11.7813    6.9889 C   0  0  0  0  0  0  0  0  0  0  0  0
  -38.1821  -10.6788    8.4457 O   0  0  0  0  0  0  0  0  0  0  0  0
  -37.9456  -12.9820    6.8370 O   0  0  0  0  0  0  0  0  0  0  0  0
  -35.1911  -13.9498    6.5993 O   0  0  0  0  0  0  0  0  0  0  0  0
  -34.6146  -10.4208    7.5154 O   0  0  0  0  0  0  0  0  0  0  0  0
  -38.1155  -11.1101    9.3120 H   0  0  0  0  0  0  0  0  0  0  0  0
  -38.1205  -12.5752    5.9740 H   0  0  0  0  0  0  0  0  0  0  0  0
  -34.9111  -14.1776    7.4996 H   0  0  0  0  0  0  0  0  0  0  0  0
  -33.5400  -11.6688    5.7588 C   0  0  0  0  0  0  0  0  0  0  0  0
  -34.4117  -11.8255    4.6952 O   0  0  0  0  0  0  0  0  0  0  0  0
  -34.8575  -12.6840    4.7663 H   0  0  0  0  0  0  0  0  0  0  0  0
 31 32  1  0  0  0
 31 30  1  0  0  0
 31 39  1  0  0  0
 13  1  1  0  0  0
 13 14  1  0  0  0
 24 15  1  0  0  0
 24 25  1  0  0  0
 32 33  1  0  0  0
 32 36  1  0  0  0
  1  2  1  0  0  0
  1 30  1  0  0  0
  1  5  1  0  0  0
 15 16  1  0  0  0
 15 14  1  0  0  0
 15 19  1  0  0  0
 33 34  1  0  0  0
 33 37  1  0  0  0
  2  3  1  0  0  0
  2  6  1  0  0  0
 16 17  1  0  0  0
 16 20  1  0  0  0
 34 35  1  0  0  0
 34 38  1  0  0  0
  3  4  1  0  0  0
  3  7  1  0  0  0
 17 18  1  0  0  0
 17 21  1  0  0  0
 35 43  1  0  0  0
 35 39  1  0  0  0
  4 10  1  0  0  0
  4  5  1  0  0  0
 18 27  1  0  0  0
 18 19  1  0  0  0
 43 44  1  0  0  0
 10 11  1  0  0  0
 27 28  1  0  0  0
 25 26  1  0  0  0
 36 40  1  0  0  0
 37 41  1  0  0  0
  6  8  1  0  0  0
 20 22  1  0  0  0
 38 42  1  0  0  0
  7  9  1  0  0  0
 21 23  1  0  0  0
 11 12  1  0  0  0
 28 29  1  0  0  0
 44 45  1  0  0  0
M  END
> <minimizedAffinity>
-0.00312

$$$$
