5MG2_7M8_A_1704


 33 37  0  0  0  0  0  0  0  0999 V2000
   15.7549   76.7288   15.0712 C   0  0  0  0  0  0  0  0  0  0  0  0
   16.7954   76.4506   15.9434 C   0  0  0  0  0  0  0  0  0  0  0  0
   17.3129   75.1789   16.0220 C   0  0  0  0  0  0  0  0  0  0  0  0
   16.7888   74.1458   15.2080 C   0  0  0  0  0  0  0  0  0  0  0  0
   17.3374   72.8429   15.2436 C   0  0  0  0  0  0  0  0  0  0  0  0
   16.7853   71.8417   14.4784 C   0  0  0  0  0  0  0  0  0  0  0  0
   15.7016   72.0965   13.6547 C   0  0  0  0  0  0  0  0  0  0  0  0
   18.4829   72.5434   16.1278 C   0  0  0  0  0  0  0  0  0  0  0  0
   18.4142   74.8909   16.9667 C   0  0  0  0  0  0  0  0  0  0  0  0
   18.8647   75.7230   17.7388 O   0  0  0  0  0  0  0  0  0  0  0  0
   18.9135   73.5813   16.9665 N   0  0  0  0  0  0  0  0  0  0  0  0
   19.0843   71.4787   16.1039 O   0  0  0  0  0  0  0  0  0  0  0  0
   15.1512   73.3536   13.5586 C   0  0  0  0  0  0  0  0  0  0  0  0
   15.7002   74.4175   14.3435 C   0  0  0  0  0  0  0  0  0  0  0  0
   15.2073   75.7457   14.2926 C   0  0  0  0  0  0  0  0  0  0  0  0
   19.8538   73.2368   17.9957 C   0  0  0  0  0  0  0  0  0  0  0  0
   19.3811   72.7685   19.2241 C   0  0  0  0  0  0  0  0  0  0  0  0
   20.3193   72.3977   20.1907 C   0  0  0  0  0  0  0  0  0  0  0  0
   21.6775   72.5257   19.9165 C   0  0  0  0  0  0  0  0  0  0  0  0
   22.1151   73.0143   18.6956 C   0  0  0  0  0  0  0  0  0  0  0  0
   21.2128   73.3739   17.7144 C   0  0  0  0  0  0  0  0  0  0  0  0
   23.9591   72.5775   19.9560 C   0  0  0  0  0  0  0  0  0  0  0  0
   22.8367   71.7285   22.0428 C   0  0  0  0  0  0  0  0  0  0  0  0
   23.5134   73.0357   18.7293 N   0  0  0  0  0  0  0  0  0  0  0  0
   24.3831   73.4480   17.6326 C   0  0  0  0  0  0  0  0  0  0  0  0
   25.1128   72.4946   20.3370 O   0  0  0  0  0  0  0  0  0  0  0  0
   22.8167   72.2598   20.6829 N   0  0  0  0  0  0  0  0  0  0  0  0
   17.9077   72.7067   19.5395 C   0  0  0  0  0  0  0  0  0  0  0  0
   13.9811   73.5888   12.6269 C   0  0  0  0  0  0  0  0  0  0  0  0
   14.0664   72.8185   11.2923 C   0  0  0  0  0  0  0  0  0  0  0  0
   13.3134   71.5181   11.3652 C   0  0  0  0  0  0  0  0  0  0  0  0
   12.1120   71.7225   10.6724 O   0  0  0  0  0  0  0  0  0  0  0  0
   11.6232   72.4537   11.0815 H   0  0  0  0  0  0  0  0  0  0  0  0
 26 22  2  0  0  0
 25 24  1  0  0  0
 22 24  1  0  0  0
 22 27  1  0  0  0
 24 20  1  0  0  0
 27 23  1  0  0  0
 27 19  1  0  0  0
 20 19  2  0  0  0
 20 21  1  0  0  0
 19 18  1  0  0  0
 21 16  2  0  0  0
 10  9  2  0  0  0
 18 17  2  0  0  0
 16 17  1  0  0  0
 16 11  1  0  0  0
  9 11  1  0  0  0
  9  3  1  0  0  0
  2  3  2  0  0  0
  2  1  1  0  0  0
 17 28  1  0  0  0
 11  8  1  0  0  0
  3  4  1  0  0  0
  1 15  2  0  0  0
  4 14  2  0  0  0
  4  5  1  0  0  0
 15 14  1  0  0  0
  8  5  1  0  0  0
  8 12  2  0  0  0
 14 13  1  0  0  0
  5  6  2  0  0  0
  6  7  1  0  0  0
 13  7  2  0  0  0
 13 29  1  0  0  0
 29 30  1  0  0  0
 30 31  1  0  0  0
 31 32  1  0  0  0
 32 33  1  0  0  0
M  END
> <minimizedAffinity>
-9.97835

$$$$
5MG2_7M8_A_1704


 33 37  0  0  0  0  0  0  0  0999 V2000
   23.1436   68.6842   17.2694 C   0  0  0  0  0  0  0  0  0  0  0  0
   22.4403   69.7662   16.7638 C   0  0  0  0  0  0  0  0  0  0  0  0
   21.1729   70.0434   17.2198 C   0  0  0  0  0  0  0  0  0  0  0  0
   20.5797   69.2275   18.2132 C   0  0  0  0  0  0  0  0  0  0  0  0
   19.2952   69.5233   18.7253 C   0  0  0  0  0  0  0  0  0  0  0  0
   18.7171   68.6929   19.6576 C   0  0  0  0  0  0  0  0  0  0  0  0
   19.3866   67.5713   20.1178 C   0  0  0  0  0  0  0  0  0  0  0  0
   18.5547   70.7050   18.2364 C   0  0  0  0  0  0  0  0  0  0  0  0
   20.4267   71.1928   16.6626 C   0  0  0  0  0  0  0  0  0  0  0  0
   20.8587   71.8938   15.7608 O   0  0  0  0  0  0  0  0  0  0  0  0
   19.1551   71.4344   17.2002 N   0  0  0  0  0  0  0  0  0  0  0  0
   17.5051   71.0881   18.7339 O   0  0  0  0  0  0  0  0  0  0  0  0
   20.6510   67.2569   19.6765 C   0  0  0  0  0  0  0  0  0  0  0  0
   21.2801   68.0987   18.7044 C   0  0  0  0  0  0  0  0  0  0  0  0
   22.5866   67.8598   18.2089 C   0  0  0  0  0  0  0  0  0  0  0  0
   18.3463   72.4284   16.5526 C   0  0  0  0  0  0  0  0  0  0  0  0
   18.4143   73.7543   16.9879 C   0  0  0  0  0  0  0  0  0  0  0  0
   17.6509   74.7080   16.3100 C   0  0  0  0  0  0  0  0  0  0  0  0
   16.8380   74.3137   15.2517 C   0  0  0  0  0  0  0  0  0  0  0  0
   16.7755   72.9865   14.8572 C   0  0  0  0  0  0  0  0  0  0  0  0
   17.5300   72.0233   15.4970 C   0  0  0  0  0  0  0  0  0  0  0  0
   15.3621   74.1637   13.5170 C   0  0  0  0  0  0  0  0  0  0  0  0
   15.7118   76.4650   14.4745 C   0  0  0  0  0  0  0  0  0  0  0  0
   15.8736   72.9080   13.7908 N   0  0  0  0  0  0  0  0  0  0  0  0
   15.5370   71.6963   13.0508 C   0  0  0  0  0  0  0  0  0  0  0  0
   14.5305   74.4534   12.6758 O   0  0  0  0  0  0  0  0  0  0  0  0
   15.9676   75.0284   14.4225 N   0  0  0  0  0  0  0  0  0  0  0  0
   19.2382   74.1586   18.1844 C   0  0  0  0  0  0  0  0  0  0  0  0
   21.3522   66.0326   20.2259 C   0  0  0  0  0  0  0  0  0  0  0  0
   20.4557   65.1204   21.0895 C   0  0  0  0  0  0  0  0  0  0  0  0
   21.1172   63.7943   21.3484 C   0  0  0  0  0  0  0  0  0  0  0  0
   22.2656   63.7666   20.5449 O   0  0  0  0  0  0  0  0  0  0  0  0
   22.0123   63.8756   19.6149 H   0  0  0  0  0  0  0  0  0  0  0  0
 26 22  2  0  0  0
 25 24  1  0  0  0
 22 24  1  0  0  0
 22 27  1  0  0  0
 24 20  1  0  0  0
 27 23  1  0  0  0
 27 19  1  0  0  0
 20 19  2  0  0  0
 20 21  1  0  0  0
 19 18  1  0  0  0
 21 16  2  0  0  0
 10  9  2  0  0  0
 18 17  2  0  0  0
 16 17  1  0  0  0
 16 11  1  0  0  0
  9 11  1  0  0  0
  9  3  1  0  0  0
  2  3  2  0  0  0
  2  1  1  0  0  0
 17 28  1  0  0  0
 11  8  1  0  0  0
  3  4  1  0  0  0
  1 15  2  0  0  0
  4 14  2  0  0  0
  4  5  1  0  0  0
 15 14  1  0  0  0
  8  5  1  0  0  0
  8 12  2  0  0  0
 14 13  1  0  0  0
  5  6  2  0  0  0
  6  7  1  0  0  0
 13  7  2  0  0  0
 13 29  1  0  0  0
 29 30  1  0  0  0
 30 31  1  0  0  0
 31 32  1  0  0  0
 32 33  1  0  0  0
M  END
> <minimizedAffinity>
-9.31477

$$$$
5MG2_7M8_A_1704


 33 37  0  0  0  0  0  0  0  0999 V2000
   19.4567   75.0598   18.9121 C   0  0  0  0  0  0  0  0  0  0  0  0
   19.9058   73.8288   19.3637 C   0  0  0  0  0  0  0  0  0  0  0  0
   19.5076   72.6725   18.7349 C   0  0  0  0  0  0  0  0  0  0  0  0
   18.6395   72.7324   17.6181 C   0  0  0  0  0  0  0  0  0  0  0  0
   18.2547   71.5570   16.9323 C   0  0  0  0  0  0  0  0  0  0  0  0
   17.3748   71.6316   15.8773 C   0  0  0  0  0  0  0  0  0  0  0  0
   16.8686   72.8523   15.4632 C   0  0  0  0  0  0  0  0  0  0  0  0
   18.7686   70.2415   17.3672 C   0  0  0  0  0  0  0  0  0  0  0  0
   19.9825   71.3636   19.2344 C   0  0  0  0  0  0  0  0  0  0  0  0
   20.6799   71.2433   20.2297 O   0  0  0  0  0  0  0  0  0  0  0  0
   19.5632   70.2315   18.5224 N   0  0  0  0  0  0  0  0  0  0  0  0
   18.5820   69.2102   16.7368 O   0  0  0  0  0  0  0  0  0  0  0  0
   17.2362   74.0283   16.0749 C   0  0  0  0  0  0  0  0  0  0  0  0
   18.1481   73.9857   17.1777 C   0  0  0  0  0  0  0  0  0  0  0  0
   18.5941   75.1492   17.8536 C   0  0  0  0  0  0  0  0  0  0  0  0
   19.8634   68.9484   19.0930 C   0  0  0  0  0  0  0  0  0  0  0  0
   21.0844   68.3376   18.7964 C   0  0  0  0  0  0  0  0  0  0  0  0
   21.3691   67.1109   19.4014 C   0  0  0  0  0  0  0  0  0  0  0  0
   20.4333   66.5285   20.2508 C   0  0  0  0  0  0  0  0  0  0  0  0
   19.2211   67.1491   20.5083 C   0  0  0  0  0  0  0  0  0  0  0  0
   18.9173   68.3694   19.9381 C   0  0  0  0  0  0  0  0  0  0  0  0
   19.2407   65.1863   21.6600 C   0  0  0  0  0  0  0  0  0  0  0  0
   21.5152   64.3417   20.9908 C   0  0  0  0  0  0  0  0  0  0  0  0
   18.5023   66.3212   21.3768 N   0  0  0  0  0  0  0  0  0  0  0  0
   17.1845   66.6126   21.9317 C   0  0  0  0  0  0  0  0  0  0  0  0
   18.9057   64.2430   22.3537 O   0  0  0  0  0  0  0  0  0  0  0  0
   20.4361   65.3248   20.9628 N   0  0  0  0  0  0  0  0  0  0  0  0
   22.0583   68.9390   17.8146 C   0  0  0  0  0  0  0  0  0  0  0  0
   16.6737   75.3410   15.5719 C   0  0  0  0  0  0  0  0  0  0  0  0
   15.1320   75.4091   15.5602 C   0  0  0  0  0  0  0  0  0  0  0  0
   14.5943   75.3313   14.1573 C   0  0  0  0  0  0  0  0  0  0  0  0
   15.6433   75.7236   13.3141 O   0  0  0  0  0  0  0  0  0  0  0  0
   15.9289   76.6204   13.5491 H   0  0  0  0  0  0  0  0  0  0  0  0
 26 22  2  0  0  0
 25 24  1  0  0  0
 22 24  1  0  0  0
 22 27  1  0  0  0
 24 20  1  0  0  0
 27 23  1  0  0  0
 27 19  1  0  0  0
 20 19  2  0  0  0
 20 21  1  0  0  0
 19 18  1  0  0  0
 21 16  2  0  0  0
 10  9  2  0  0  0
 18 17  2  0  0  0
 16 17  1  0  0  0
 16 11  1  0  0  0
  9 11  1  0  0  0
  9  3  1  0  0  0
  2  3  2  0  0  0
  2  1  1  0  0  0
 17 28  1  0  0  0
 11  8  1  0  0  0
  3  4  1  0  0  0
  1 15  2  0  0  0
  4 14  2  0  0  0
  4  5  1  0  0  0
 15 14  1  0  0  0
  8  5  1  0  0  0
  8 12  2  0  0  0
 14 13  1  0  0  0
  5  6  2  0  0  0
  6  7  1  0  0  0
 13  7  2  0  0  0
 13 29  1  0  0  0
 29 30  1  0  0  0
 30 31  1  0  0  0
 31 32  1  0  0  0
 32 33  1  0  0  0
M  END
> <minimizedAffinity>
-9.14180

$$$$
5MG2_7M8_A_1704


 33 37  0  0  0  0  0  0  0  0999 V2000
   15.0770   75.1203   14.0659 C   0  0  0  0  0  0  0  0  0  0  0  0
   15.7590   73.9757   14.4475 C   0  0  0  0  0  0  0  0  0  0  0  0
   16.7538   74.0446   15.3944 C   0  0  0  0  0  0  0  0  0  0  0  0
   17.0847   75.2858   15.9898 C   0  0  0  0  0  0  0  0  0  0  0  0
   18.0745   75.3684   16.9965 C   0  0  0  0  0  0  0  0  0  0  0  0
   18.4135   76.5901   17.5308 C   0  0  0  0  0  0  0  0  0  0  0  0
   17.7835   77.7477   17.1055 C   0  0  0  0  0  0  0  0  0  0  0  0
   18.7723   74.1487   17.4538 C   0  0  0  0  0  0  0  0  0  0  0  0
   17.4841   72.8184   15.7835 C   0  0  0  0  0  0  0  0  0  0  0  0
   17.2883   71.7321   15.2610 O   0  0  0  0  0  0  0  0  0  0  0  0
   18.4603   72.9598   16.7791 N   0  0  0  0  0  0  0  0  0  0  0  0
   19.5360   74.1349   18.4090 O   0  0  0  0  0  0  0  0  0  0  0  0
   16.7915   77.7183   16.1530 C   0  0  0  0  0  0  0  0  0  0  0  0
   16.4165   76.4636   15.5746 C   0  0  0  0  0  0  0  0  0  0  0  0
   15.3933   76.3393   14.6014 C   0  0  0  0  0  0  0  0  0  0  0  0
   19.2998   71.8247   17.0417 C   0  0  0  0  0  0  0  0  0  0  0  0
   20.5158   71.7031   16.3647 C   0  0  0  0  0  0  0  0  0  0  0  0
   21.3331   70.6128   16.6733 C   0  0  0  0  0  0  0  0  0  0  0  0
   20.9094   69.6794   17.6143 C   0  0  0  0  0  0  0  0  0  0  0  0
   19.6872   69.8161   18.2535 C   0  0  0  0  0  0  0  0  0  0  0  0
   18.8646   70.8911   17.9817 C   0  0  0  0  0  0  0  0  0  0  0  0
   20.6517   67.9055   19.0274 C   0  0  0  0  0  0  0  0  0  0  0  0
   22.7911   67.9614   17.7028 C   0  0  0  0  0  0  0  0  0  0  0  0
   19.5433   68.7278   19.1204 N   0  0  0  0  0  0  0  0  0  0  0  0
   18.4136   68.4984   20.0150 C   0  0  0  0  0  0  0  0  0  0  0  0
   20.8427   66.8566   19.6160 O   0  0  0  0  0  0  0  0  0  0  0  0
   21.4941   68.5041   18.0966 N   0  0  0  0  0  0  0  0  0  0  0  0
   20.9307   72.6773   15.2910 C   0  0  0  0  0  0  0  0  0  0  0  0
   16.1157   79.0077   15.7365 C   0  0  0  0  0  0  0  0  0  0  0  0
   17.0731   80.2095   15.5925 C   0  0  0  0  0  0  0  0  0  0  0  0
   17.5553   80.3544   14.1748 C   0  0  0  0  0  0  0  0  0  0  0  0
   16.5337   79.8464   13.3603 O   0  0  0  0  0  0  0  0  0  0  0  0
   16.3611   78.9217   13.5971 H   0  0  0  0  0  0  0  0  0  0  0  0
 26 22  2  0  0  0
 25 24  1  0  0  0
 22 24  1  0  0  0
 22 27  1  0  0  0
 24 20  1  0  0  0
 27 23  1  0  0  0
 27 19  1  0  0  0
 20 19  2  0  0  0
 20 21  1  0  0  0
 19 18  1  0  0  0
 21 16  2  0  0  0
 10  9  2  0  0  0
 18 17  2  0  0  0
 16 17  1  0  0  0
 16 11  1  0  0  0
  9 11  1  0  0  0
  9  3  1  0  0  0
  2  3  2  0  0  0
  2  1  1  0  0  0
 17 28  1  0  0  0
 11  8  1  0  0  0
  3  4  1  0  0  0
  1 15  2  0  0  0
  4 14  2  0  0  0
  4  5  1  0  0  0
 15 14  1  0  0  0
  8  5  1  0  0  0
  8 12  2  0  0  0
 14 13  1  0  0  0
  5  6  2  0  0  0
  6  7  1  0  0  0
 13  7  2  0  0  0
 13 29  1  0  0  0
 29 30  1  0  0  0
 30 31  1  0  0  0
 31 32  1  0  0  0
 32 33  1  0  0  0
M  END
> <minimizedAffinity>
-8.85142

$$$$
5MG2_7M8_A_1704


 33 37  0  0  0  0  0  0  0  0999 V2000
   19.5920   67.3427   20.0357 C   0  0  0  0  0  0  0  0  0  0  0  0
   18.8300   68.3595   19.4822 C   0  0  0  0  0  0  0  0  0  0  0  0
   19.3822   69.2151   18.5580 C   0  0  0  0  0  0  0  0  0  0  0  0
   20.7326   69.0595   18.1620 C   0  0  0  0  0  0  0  0  0  0  0  0
   21.3043   69.9024   17.1808 C   0  0  0  0  0  0  0  0  0  0  0  0
   22.6306   69.7645   16.8421 C   0  0  0  0  0  0  0  0  0  0  0  0
   23.4166   68.7941   17.4409 C   0  0  0  0  0  0  0  0  0  0  0  0
   20.4895   70.9561   16.5409 C   0  0  0  0  0  0  0  0  0  0  0  0
   18.5630   70.3052   17.9844 C   0  0  0  0  0  0  0  0  0  0  0  0
   17.4141   70.5293   18.3325 O   0  0  0  0  0  0  0  0  0  0  0  0
   19.1827   71.1155   17.0233 N   0  0  0  0  0  0  0  0  0  0  0  0
   20.8848   71.6239   15.5955 O   0  0  0  0  0  0  0  0  0  0  0  0
   22.9011   67.9277   18.3767 C   0  0  0  0  0  0  0  0  0  0  0  0
   21.5252   68.0458   18.7538 C   0  0  0  0  0  0  0  0  0  0  0  0
   20.9079   67.1844   19.6954 C   0  0  0  0  0  0  0  0  0  0  0  0
   18.4680   72.2827   16.5889 C   0  0  0  0  0  0  0  0  0  0  0  0
   18.6736   73.4956   17.2512 C   0  0  0  0  0  0  0  0  0  0  0  0
   17.9997   74.6245   16.7784 C   0  0  0  0  0  0  0  0  0  0  0  0
   17.1371   74.5070   15.6929 C   0  0  0  0  0  0  0  0  0  0  0  0
   16.9373   73.2849   15.0704 C   0  0  0  0  0  0  0  0  0  0  0  0
   17.6010   72.1545   15.5042 C   0  0  0  0  0  0  0  0  0  0  0  0
   15.6299   74.8140   14.0065 C   0  0  0  0  0  0  0  0  0  0  0  0
   16.2201   76.8607   15.3473 C   0  0  0  0  0  0  0  0  0  0  0  0
   16.0175   73.4865   14.0360 N   0  0  0  0  0  0  0  0  0  0  0  0
   15.5518   72.4660   13.1028 C   0  0  0  0  0  0  0  0  0  0  0  0
   14.8197   75.3288   13.2570 O   0  0  0  0  0  0  0  0  0  0  0  0
   16.3308   75.4393   15.0322 N   0  0  0  0  0  0  0  0  0  0  0  0
   19.5501   73.5969   18.4741 C   0  0  0  0  0  0  0  0  0  0  0  0
   23.7939   66.8680   18.9871 C   0  0  0  0  0  0  0  0  0  0  0  0
   25.0468   66.5334   18.1505 C   0  0  0  0  0  0  0  0  0  0  0  0
   24.8706   65.2423   17.3987 C   0  0  0  0  0  0  0  0  0  0  0  0
   24.3077   65.5841   16.1611 O   0  0  0  0  0  0  0  0  0  0  0  0
   23.4656   66.0437   16.3047 H   0  0  0  0  0  0  0  0  0  0  0  0
 26 22  2  0  0  0
 25 24  1  0  0  0
 22 24  1  0  0  0
 22 27  1  0  0  0
 24 20  1  0  0  0
 27 23  1  0  0  0
 27 19  1  0  0  0
 20 19  2  0  0  0
 20 21  1  0  0  0
 19 18  1  0  0  0
 21 16  2  0  0  0
 10  9  2  0  0  0
 18 17  2  0  0  0
 16 17  1  0  0  0
 16 11  1  0  0  0
  9 11  1  0  0  0
  9  3  1  0  0  0
  2  3  2  0  0  0
  2  1  1  0  0  0
 17 28  1  0  0  0
 11  8  1  0  0  0
  3  4  1  0  0  0
  1 15  2  0  0  0
  4 14  2  0  0  0
  4  5  1  0  0  0
 15 14  1  0  0  0
  8  5  1  0  0  0
  8 12  2  0  0  0
 14 13  1  0  0  0
  5  6  2  0  0  0
  6  7  1  0  0  0
 13  7  2  0  0  0
 13 29  1  0  0  0
 29 30  1  0  0  0
 30 31  1  0  0  0
 31 32  1  0  0  0
 32 33  1  0  0  0
M  END
> <minimizedAffinity>
-8.45990

$$$$
5MG2_7M8_A_1704


 33 37  0  0  0  0  0  0  0  0999 V2000
   16.5841   72.9637   14.7848 C   0  0  0  0  0  0  0  0  0  0  0  0
   16.8998   71.7652   15.4051 C   0  0  0  0  0  0  0  0  0  0  0  0
   17.6306   71.7589   16.5700 C   0  0  0  0  0  0  0  0  0  0  0  0
   18.0614   72.9783   17.1463 C   0  0  0  0  0  0  0  0  0  0  0  0
   18.7759   72.9932   18.3666 C   0  0  0  0  0  0  0  0  0  0  0  0
   19.2248   74.1849   18.8876 C   0  0  0  0  0  0  0  0  0  0  0  0
   18.9716   75.3813   18.2377 C   0  0  0  0  0  0  0  0  0  0  0  0
   19.0728   71.7275   19.0691 C   0  0  0  0  0  0  0  0  0  0  0  0
   17.9733   70.4727   17.2155 C   0  0  0  0  0  0  0  0  0  0  0  0
   17.6856   69.3879   16.7339 O   0  0  0  0  0  0  0  0  0  0  0  0
   18.6899   70.5463   18.4177 N   0  0  0  0  0  0  0  0  0  0  0  0
   19.5651   71.6843   20.1878 O   0  0  0  0  0  0  0  0  0  0  0  0
   18.2531   75.4250   17.0655 C   0  0  0  0  0  0  0  0  0  0  0  0
   17.7737   74.2026   16.4950 C   0  0  0  0  0  0  0  0  0  0  0  0
   17.0106   74.1570   15.3012 C   0  0  0  0  0  0  0  0  0  0  0  0
   19.1855   69.3140   18.9633 C   0  0  0  0  0  0  0  0  0  0  0  0
   20.4466   68.8537   18.5766 C   0  0  0  0  0  0  0  0  0  0  0  0
   20.9225   67.6758   19.1578 C   0  0  0  0  0  0  0  0  0  0  0  0
   20.1298   66.9909   20.0737 C   0  0  0  0  0  0  0  0  0  0  0  0
   18.8733   67.4616   20.4209 C   0  0  0  0  0  0  0  0  0  0  0  0
   18.3819   68.6311   19.8758 C   0  0  0  0  0  0  0  0  0  0  0  0
   19.2167   65.5252   21.5663 C   0  0  0  0  0  0  0  0  0  0  0  0
   21.5218   64.9580   20.7296 C   0  0  0  0  0  0  0  0  0  0  0  0
   18.3267   66.5595   21.3396 N   0  0  0  0  0  0  0  0  0  0  0  0
   17.0277   66.6930   21.9908 C   0  0  0  0  0  0  0  0  0  0  0  0
   19.0512   64.5539   22.2821 O   0  0  0  0  0  0  0  0  0  0  0  0
   20.3317   65.8024   20.7826 N   0  0  0  0  0  0  0  0  0  0  0  0
   21.2650   69.5611   17.5259 C   0  0  0  0  0  0  0  0  0  0  0  0
   17.9818   76.7594   16.4035 C   0  0  0  0  0  0  0  0  0  0  0  0
   16.6013   77.3644   16.7348 C   0  0  0  0  0  0  0  0  0  0  0  0
   16.1210   78.2631   15.6280 C   0  0  0  0  0  0  0  0  0  0  0  0
   16.0019   77.4529   14.4902 O   0  0  0  0  0  0  0  0  0  0  0  0
   16.8607   77.0494   14.2893 H   0  0  0  0  0  0  0  0  0  0  0  0
 26 22  2  0  0  0
 25 24  1  0  0  0
 22 24  1  0  0  0
 22 27  1  0  0  0
 24 20  1  0  0  0
 27 23  1  0  0  0
 27 19  1  0  0  0
 20 19  2  0  0  0
 20 21  1  0  0  0
 19 18  1  0  0  0
 21 16  2  0  0  0
 10  9  2  0  0  0
 18 17  2  0  0  0
 16 17  1  0  0  0
 16 11  1  0  0  0
  9 11  1  0  0  0
  9  3  1  0  0  0
  2  3  2  0  0  0
  2  1  1  0  0  0
 17 28  1  0  0  0
 11  8  1  0  0  0
  3  4  1  0  0  0
  1 15  2  0  0  0
  4 14  2  0  0  0
  4  5  1  0  0  0
 15 14  1  0  0  0
  8  5  1  0  0  0
  8 12  2  0  0  0
 14 13  1  0  0  0
  5  6  2  0  0  0
  6  7  1  0  0  0
 13  7  2  0  0  0
 13 29  1  0  0  0
 29 30  1  0  0  0
 30 31  1  0  0  0
 31 32  1  0  0  0
 32 33  1  0  0  0
M  END
> <minimizedAffinity>
-8.15244

$$$$
5MG2_7M8_A_1704


 33 37  0  0  0  0  0  0  0  0999 V2000
   19.0557   68.0613   19.6414 C   0  0  0  0  0  0  0  0  0  0  0  0
   18.4209   69.2284   19.2466 C   0  0  0  0  0  0  0  0  0  0  0  0
   19.0216   70.0724   18.3422 C   0  0  0  0  0  0  0  0  0  0  0  0
   20.2914   69.7517   17.8043 C   0  0  0  0  0  0  0  0  0  0  0  0
   20.9044   70.5855   16.8405 C   0  0  0  0  0  0  0  0  0  0  0  0
   22.1582   70.2806   16.3632 C   0  0  0  0  0  0  0  0  0  0  0  0
   22.8278   69.1514   16.8042 C   0  0  0  0  0  0  0  0  0  0  0  0
   20.2162   71.8049   16.3680 C   0  0  0  0  0  0  0  0  0  0  0  0
   18.3405   71.3221   17.9389 C   0  0  0  0  0  0  0  0  0  0  0  0
   17.2756   71.6842   18.4147 O   0  0  0  0  0  0  0  0  0  0  0  0
   18.9972   72.1148   16.9876 N   0  0  0  0  0  0  0  0  0  0  0  0
   20.6309   72.4897   15.4434 O   0  0  0  0  0  0  0  0  0  0  0  0
   22.2625   68.2901   17.7157 C   0  0  0  0  0  0  0  0  0  0  0  0
   20.9600   68.5795   18.2344 C   0  0  0  0  0  0  0  0  0  0  0  0
   20.2959   67.7380   19.1620 C   0  0  0  0  0  0  0  0  0  0  0  0
   18.4430   73.4117   16.7181 C   0  0  0  0  0  0  0  0  0  0  0  0
   17.4651   73.5447   15.7291 C   0  0  0  0  0  0  0  0  0  0  0  0
   16.9108   74.8099   15.5196 C   0  0  0  0  0  0  0  0  0  0  0  0
   17.3579   75.8908   16.2732 C   0  0  0  0  0  0  0  0  0  0  0  0
   18.3454   75.7310   17.2325 C   0  0  0  0  0  0  0  0  0  0  0  0
   18.9012   74.4903   17.4739 C   0  0  0  0  0  0  0  0  0  0  0  0
   17.7678   77.9322   17.2086 C   0  0  0  0  0  0  0  0  0  0  0  0
   16.0054   77.8733   15.4127 C   0  0  0  0  0  0  0  0  0  0  0  0
   18.5835   76.9860   17.8025 N   0  0  0  0  0  0  0  0  0  0  0  0
   19.5255   77.2636   18.8817 C   0  0  0  0  0  0  0  0  0  0  0  0
   17.7366   79.1276   17.4392 O   0  0  0  0  0  0  0  0  0  0  0  0
   17.0094   77.2452   16.2667 N   0  0  0  0  0  0  0  0  0  0  0  0
   17.0430   72.3832   14.8649 C   0  0  0  0  0  0  0  0  0  0  0  0
   23.0240   67.0558   18.1507 C   0  0  0  0  0  0  0  0  0  0  0  0
   23.8922   66.4215   17.0436 C   0  0  0  0  0  0  0  0  0  0  0  0
   25.3380   66.3586   17.4547 C   0  0  0  0  0  0  0  0  0  0  0  0
   25.9595   67.4709   16.8700 O   0  0  0  0  0  0  0  0  0  0  0  0
   25.8493   67.4338   15.9070 H   0  0  0  0  0  0  0  0  0  0  0  0
 26 22  2  0  0  0
 25 24  1  0  0  0
 22 24  1  0  0  0
 22 27  1  0  0  0
 24 20  1  0  0  0
 27 23  1  0  0  0
 27 19  1  0  0  0
 20 19  2  0  0  0
 20 21  1  0  0  0
 19 18  1  0  0  0
 21 16  2  0  0  0
 10  9  2  0  0  0
 18 17  2  0  0  0
 16 17  1  0  0  0
 16 11  1  0  0  0
  9 11  1  0  0  0
  9  3  1  0  0  0
  2  3  2  0  0  0
  2  1  1  0  0  0
 17 28  1  0  0  0
 11  8  1  0  0  0
  3  4  1  0  0  0
  1 15  2  0  0  0
  4 14  2  0  0  0
  4  5  1  0  0  0
 15 14  1  0  0  0
  8  5  1  0  0  0
  8 12  2  0  0  0
 14 13  1  0  0  0
  5  6  2  0  0  0
  6  7  1  0  0  0
 13  7  2  0  0  0
 13 29  1  0  0  0
 29 30  1  0  0  0
 30 31  1  0  0  0
 31 32  1  0  0  0
 32 33  1  0  0  0
M  END
> <minimizedAffinity>
-8.06084

$$$$
5MG2_7M8_A_1704


 33 37  0  0  0  0  0  0  0  0999 V2000
   16.1538   73.1170   14.3213 C   0  0  0  0  0  0  0  0  0  0  0  0
   17.0268   72.2760   14.9931 C   0  0  0  0  0  0  0  0  0  0  0  0
   17.8597   72.7758   15.9667 C   0  0  0  0  0  0  0  0  0  0  0  0
   17.8270   74.1532   16.2926 C   0  0  0  0  0  0  0  0  0  0  0  0
   18.6446   74.6766   17.3209 C   0  0  0  0  0  0  0  0  0  0  0  0
   18.6315   76.0253   17.5924 C   0  0  0  0  0  0  0  0  0  0  0  0
   17.8109   76.8827   16.8787 C   0  0  0  0  0  0  0  0  0  0  0  0
   19.5410   73.7834   18.0842 C   0  0  0  0  0  0  0  0  0  0  0  0
   18.7970   71.8709   16.6672 C   0  0  0  0  0  0  0  0  0  0  0  0
   18.9165   70.6883   16.3870 O   0  0  0  0  0  0  0  0  0  0  0  0
   19.5896   72.4445   17.6708 N   0  0  0  0  0  0  0  0  0  0  0  0
   20.1681   74.1493   19.0684 O   0  0  0  0  0  0  0  0  0  0  0  0
   16.9726   76.4200   15.8911 C   0  0  0  0  0  0  0  0  0  0  0  0
   16.9637   75.0223   15.5817 C   0  0  0  0  0  0  0  0  0  0  0  0
   16.1191   74.4577   14.5930 C   0  0  0  0  0  0  0  0  0  0  0  0
   20.6270   71.6278   18.2355 C   0  0  0  0  0  0  0  0  0  0  0  0
   20.3154   70.7524   19.2788 C   0  0  0  0  0  0  0  0  0  0  0  0
   21.3342   69.9371   19.7782 C   0  0  0  0  0  0  0  0  0  0  0  0
   22.6168   70.0349   19.2476 C   0  0  0  0  0  0  0  0  0  0  0  0
   22.8996   70.9291   18.2271 C   0  0  0  0  0  0  0  0  0  0  0  0
   21.9106   71.7367   17.7017 C   0  0  0  0  0  0  0  0  0  0  0  0
   24.8353   69.8495   18.7438 C   0  0  0  0  0  0  0  0  0  0  0  0
   23.9882   68.3440   20.5744 C   0  0  0  0  0  0  0  0  0  0  0  0
   24.2590   70.8023   17.9231 N   0  0  0  0  0  0  0  0  0  0  0  0
   24.9680   71.5361   16.8801 C   0  0  0  0  0  0  0  0  0  0  0  0
   26.0049   69.5113   18.7723 O   0  0  0  0  0  0  0  0  0  0  0  0
   23.8112   69.3764   19.5572 N   0  0  0  0  0  0  0  0  0  0  0  0
   18.9416   70.7092   19.8991 C   0  0  0  0  0  0  0  0  0  0  0  0
   16.0768   77.3928   15.1536 C   0  0  0  0  0  0  0  0  0  0  0  0
   15.7489   78.6781   15.9422 C   0  0  0  0  0  0  0  0  0  0  0  0
   15.9779   79.9053   15.1026 C   0  0  0  0  0  0  0  0  0  0  0  0
   16.1324   79.4539   13.7844 O   0  0  0  0  0  0  0  0  0  0  0  0
   16.8773   78.8341   13.7401 H   0  0  0  0  0  0  0  0  0  0  0  0
 26 22  2  0  0  0
 25 24  1  0  0  0
 22 24  1  0  0  0
 22 27  1  0  0  0
 24 20  1  0  0  0
 27 23  1  0  0  0
 27 19  1  0  0  0
 20 19  2  0  0  0
 20 21  1  0  0  0
 19 18  1  0  0  0
 21 16  2  0  0  0
 10  9  2  0  0  0
 18 17  2  0  0  0
 16 17  1  0  0  0
 16 11  1  0  0  0
  9 11  1  0  0  0
  9  3  1  0  0  0
  2  3  2  0  0  0
  2  1  1  0  0  0
 17 28  1  0  0  0
 11  8  1  0  0  0
  3  4  1  0  0  0
  1 15  2  0  0  0
  4 14  2  0  0  0
  4  5  1  0  0  0
 15 14  1  0  0  0
  8  5  1  0  0  0
  8 12  2  0  0  0
 14 13  1  0  0  0
  5  6  2  0  0  0
  6  7  1  0  0  0
 13  7  2  0  0  0
 13 29  1  0  0  0
 29 30  1  0  0  0
 30 31  1  0  0  0
 31 32  1  0  0  0
 32 33  1  0  0  0
M  END
> <minimizedAffinity>
-7.94936

$$$$
5MG2_7M8_A_1704


 33 37  0  0  0  0  0  0  0  0999 V2000
   17.6018   71.4802   16.6264 C   0  0  0  0  0  0  0  0  0  0  0  0
   18.4361   72.2570   17.4146 C   0  0  0  0  0  0  0  0  0  0  0  0
   18.3992   73.6285   17.3210 C   0  0  0  0  0  0  0  0  0  0  0  0
   17.5043   74.2565   16.4214 C   0  0  0  0  0  0  0  0  0  0  0  0
   17.4216   75.6661   16.3434 C   0  0  0  0  0  0  0  0  0  0  0  0
   16.5783   76.2574   15.4313 C   0  0  0  0  0  0  0  0  0  0  0  0
   15.7908   75.4866   14.5925 C   0  0  0  0  0  0  0  0  0  0  0  0
   18.2650   76.5090   17.2164 C   0  0  0  0  0  0  0  0  0  0  0  0
   19.3043   74.4467   18.1575 C   0  0  0  0  0  0  0  0  0  0  0  0
   20.1409   73.9628   18.9041 O   0  0  0  0  0  0  0  0  0  0  0  0
   19.1859   75.8377   18.0332 N   0  0  0  0  0  0  0  0  0  0  0  0
   18.1431   77.7236   17.2916 O   0  0  0  0  0  0  0  0  0  0  0  0
   15.8092   74.1123   14.6507 C   0  0  0  0  0  0  0  0  0  0  0  0
   16.6776   73.4652   15.5869 C   0  0  0  0  0  0  0  0  0  0  0  0
   16.7467   72.0562   15.7266 C   0  0  0  0  0  0  0  0  0  0  0  0
   20.1719   76.6427   18.6979 C   0  0  0  0  0  0  0  0  0  0  0  0
   21.3889   76.8970   18.0606 C   0  0  0  0  0  0  0  0  0  0  0  0
   22.3112   77.7207   18.7108 C   0  0  0  0  0  0  0  0  0  0  0  0
   22.0071   78.2377   19.9664 C   0  0  0  0  0  0  0  0  0  0  0  0
   20.7995   77.9494   20.5825 C   0  0  0  0  0  0  0  0  0  0  0  0
   19.8612   77.1516   19.9585 C   0  0  0  0  0  0  0  0  0  0  0  0
   21.9878   79.2769   21.9986 C   0  0  0  0  0  0  0  0  0  0  0  0
   24.0611   79.6043   20.6096 C   0  0  0  0  0  0  0  0  0  0  0  0
   20.7967   78.5958   21.8229 N   0  0  0  0  0  0  0  0  0  0  0  0
   19.6980   78.5862   22.7831 C   0  0  0  0  0  0  0  0  0  0  0  0
   22.3333   79.9180   22.9747 O   0  0  0  0  0  0  0  0  0  0  0  0
   22.7291   79.0538   20.8432 N   0  0  0  0  0  0  0  0  0  0  0  0
   21.7404   76.2695   16.7352 C   0  0  0  0  0  0  0  0  0  0  0  0
   14.9131   73.3124   13.7289 C   0  0  0  0  0  0  0  0  0  0  0  0
   15.3449   73.3328   12.2474 C   0  0  0  0  0  0  0  0  0  0  0  0
   14.2027   72.9593   11.3423 C   0  0  0  0  0  0  0  0  0  0  0  0
   13.0615   73.5709   11.8800 O   0  0  0  0  0  0  0  0  0  0  0  0
   12.9265   73.2609   12.7891 H   0  0  0  0  0  0  0  0  0  0  0  0
 26 22  2  0  0  0
 25 24  1  0  0  0
 22 24  1  0  0  0
 22 27  1  0  0  0
 24 20  1  0  0  0
 27 23  1  0  0  0
 27 19  1  0  0  0
 20 19  2  0  0  0
 20 21  1  0  0  0
 19 18  1  0  0  0
 21 16  2  0  0  0
 10  9  2  0  0  0
 18 17  2  0  0  0
 16 17  1  0  0  0
 16 11  1  0  0  0
  9 11  1  0  0  0
  9  3  1  0  0  0
  2  3  2  0  0  0
  2  1  1  0  0  0
 17 28  1  0  0  0
 11  8  1  0  0  0
  3  4  1  0  0  0
  1 15  2  0  0  0
  4 14  2  0  0  0
  4  5  1  0  0  0
 15 14  1  0  0  0
  8  5  1  0  0  0
  8 12  2  0  0  0
 14 13  1  0  0  0
  5  6  2  0  0  0
  6  7  1  0  0  0
 13  7  2  0  0  0
 13 29  1  0  0  0
 29 30  1  0  0  0
 30 31  1  0  0  0
 31 32  1  0  0  0
 32 33  1  0  0  0
M  END
> <minimizedAffinity>
-7.90145

$$$$
5MG2_7M8_A_1704


 33 37  0  0  0  0  0  0  0  0999 V2000
   22.7749   68.5303   17.1934 C   0  0  0  0  0  0  0  0  0  0  0  0
   22.2073   69.7283   16.7891 C   0  0  0  0  0  0  0  0  0  0  0  0
   21.0430   70.1745   17.3692 C   0  0  0  0  0  0  0  0  0  0  0  0
   20.4186   69.4144   18.3875 C   0  0  0  0  0  0  0  0  0  0  0  0
   19.2451   69.8788   19.0255 C   0  0  0  0  0  0  0  0  0  0  0  0
   18.6281   69.1049   19.9812 C   0  0  0  0  0  0  0  0  0  0  0  0
   19.1522   67.8749   20.3421 C   0  0  0  0  0  0  0  0  0  0  0  0
   18.6581   71.1803   18.6445 C   0  0  0  0  0  0  0  0  0  0  0  0
   20.4392   71.4479   16.9197 C   0  0  0  0  0  0  0  0  0  0  0  0
   20.8951   72.1150   16.0039 O   0  0  0  0  0  0  0  0  0  0  0  0
   19.2723   71.8558   17.5803 N   0  0  0  0  0  0  0  0  0  0  0  0
   17.7281   71.6959   19.2489 O   0  0  0  0  0  0  0  0  0  0  0  0
   20.3091   67.3919   19.7758 C   0  0  0  0  0  0  0  0  0  0  0  0
   20.9747   68.1711   18.7762 C   0  0  0  0  0  0  0  0  0  0  0  0
   22.1800   67.7587   18.1543 C   0  0  0  0  0  0  0  0  0  0  0  0
   18.5749   72.9895   17.0418 C   0  0  0  0  0  0  0  0  0  0  0  0
   17.5414   72.7834   16.1245 C   0  0  0  0  0  0  0  0  0  0  0  0
   16.8501   73.9017   15.6518 C   0  0  0  0  0  0  0  0  0  0  0  0
   17.2198   75.1722   16.0822 C   0  0  0  0  0  0  0  0  0  0  0  0
   18.2642   75.3459   16.9767 C   0  0  0  0  0  0  0  0  0  0  0  0
   18.9559   74.2594   17.4741 C   0  0  0  0  0  0  0  0  0  0  0  0
   17.4623   77.4110   16.4553 C   0  0  0  0  0  0  0  0  0  0  0  0
   15.6297   76.7483   14.8624 C   0  0  0  0  0  0  0  0  0  0  0  0
   18.3992   76.7197   17.2021 N   0  0  0  0  0  0  0  0  0  0  0  0
   19.3592   77.3413   18.1084 C   0  0  0  0  0  0  0  0  0  0  0  0
   17.3194   78.6185   16.3869 O   0  0  0  0  0  0  0  0  0  0  0  0
   16.7336   76.4456   15.7688 N   0  0  0  0  0  0  0  0  0  0  0  0
   17.1995   71.4096   15.6052 C   0  0  0  0  0  0  0  0  0  0  0  0
   20.8563   66.0516   20.2193 C   0  0  0  0  0  0  0  0  0  0  0  0
   19.9278   65.2699   21.1725 C   0  0  0  0  0  0  0  0  0  0  0  0
   20.5551   63.9708   21.5995 C   0  0  0  0  0  0  0  0  0  0  0  0
   21.6379   63.7567   20.7352 O   0  0  0  0  0  0  0  0  0  0  0  0
   21.3198   63.7276   19.8194 H   0  0  0  0  0  0  0  0  0  0  0  0
 26 22  2  0  0  0
 25 24  1  0  0  0
 22 24  1  0  0  0
 22 27  1  0  0  0
 24 20  1  0  0  0
 27 23  1  0  0  0
 27 19  1  0  0  0
 20 19  2  0  0  0
 20 21  1  0  0  0
 19 18  1  0  0  0
 21 16  2  0  0  0
 10  9  2  0  0  0
 18 17  2  0  0  0
 16 17  1  0  0  0
 16 11  1  0  0  0
  9 11  1  0  0  0
  9  3  1  0  0  0
  2  3  2  0  0  0
  2  1  1  0  0  0
 17 28  1  0  0  0
 11  8  1  0  0  0
  3  4  1  0  0  0
  1 15  2  0  0  0
  4 14  2  0  0  0
  4  5  1  0  0  0
 15 14  1  0  0  0
  8  5  1  0  0  0
  8 12  2  0  0  0
 14 13  1  0  0  0
  5  6  2  0  0  0
  6  7  1  0  0  0
 13  7  2  0  0  0
 13 29  1  0  0  0
 29 30  1  0  0  0
 30 31  1  0  0  0
 31 32  1  0  0  0
 32 33  1  0  0  0
M  END
> <minimizedAffinity>
-7.87691

$$$$
