2WB5_VGB_A_1628


 31 33  0  0  0  0  0  0  0  0999 V2000
   33.0289   42.6461   21.0208 C   0  0  0  0  0  0  0  0  0  0  0  0
   32.5044   42.7934   22.4314 C   0  0  0  0  0  0  0  0  0  0  0  0
   32.8290   44.1135   22.8101 O   0  0  0  0  0  0  0  0  0  0  0  0
   30.9956   42.5483   22.4907 C   0  0  0  0  0  0  0  0  0  0  0  0
   30.5742   42.8428   23.8272 O   0  0  0  0  0  0  0  0  0  0  0  0
   30.7521   41.0903   22.1271 C   0  0  0  0  0  0  0  0  0  0  0  0
   31.0539   41.0187   20.6974 N   0  0  0  0  0  0  0  0  0  0  0  0
   30.4852   40.3846   19.6958 C   0  0  0  0  0  0  0  0  0  0  0  0
   32.1457   41.7261   20.1708 C   0  0  0  0  0  0  0  0  0  0  0  0
   32.1582   41.5132   18.8797 N   0  0  0  0  0  0  0  0  0  0  0  0
   31.1676   40.6931   18.5816 C   0  0  0  0  0  0  0  0  0  0  0  0
   32.4209   44.7375   22.1897 H   0  0  0  0  0  0  0  0  0  0  0  0
   31.0698   42.2903   24.4516 H   0  0  0  0  0  0  0  0  0  0  0  0
   32.7983   41.8994   18.2390 H   0  0  0  0  0  0  0  0  0  0  0  0
   34.9303   41.4137   21.9547 C   0  0  0  0  0  0  0  0  0  0  0  0
   34.2355   40.8933   22.8380 O   0  0  0  0  0  0  0  0  0  0  0  0
   34.4476   42.2454   21.0472 N   0  0  0  0  0  0  0  0  0  0  0  0
   35.0568   42.6100   20.3652 H   0  0  0  0  0  0  0  0  0  0  0  0
   37.3570   42.2747   22.2941 C   0  0  0  0  0  0  0  0  0  0  0  0
   36.4487   41.1702   21.7706 C   0  0  0  0  0  0  0  0  0  0  0  0
   29.3412   40.5242   22.3795 C   0  0  0  0  0  0  0  0  0  0  0  0
   29.1725   40.3161   23.7649 O   0  0  0  0  0  0  0  0  0  0  0  0
   29.8418   39.6896   24.0816 H   0  0  0  0  0  0  0  0  0  0  0  0
   30.8949   40.1616   17.1645 C   0  0  0  0  0  0  0  0  0  0  0  0
   31.3885   38.7222   17.0486 C   0  0  0  0  0  0  0  0  0  0  0  0
   30.7169   37.9463   15.8983 C   0  0  0  0  0  0  0  0  0  0  0  0
   29.6301   38.5122   15.2266 C   0  0  0  0  0  0  0  0  0  0  0  0
   28.9878   37.8078   14.2136 C   0  0  0  0  0  0  0  0  0  0  0  0
   29.4583   36.5415   13.8814 C   0  0  0  0  0  0  0  0  0  0  0  0
   30.5474   35.9652   14.5373 C   0  0  0  0  0  0  0  0  0  0  0  0
   31.1821   36.6720   15.5484 C   0  0  0  0  0  0  0  0  0  0  0  0
 19 20  1  0  0  0
 20 15  1  0  0  0
 15 16  2  0  0  0
 15 17  1  0  0  0
 17  1  1  0  0  0
  1  2  1  0  0  0
  1  9  1  0  0  0
  2  3  1  0  0  0
  2  4  1  0  0  0
  4  5  1  0  0  0
  4  6  1  0  0  0
  6 21  1  0  0  0
  6  7  1  0  0  0
 21 22  1  0  0  0
  7  8  1  0  0  0
  7  9  2  0  0  0
  8 11  2  0  0  0
  9 10  1  0  0  0
 10 11  1  0  0  0
 11 24  1  0  0  0
 24 25  1  0  0  0
 25 26  1  0  0  0
 26 27  2  0  0  0
 26 31  1  0  0  0
 27 28  1  0  0  0
 28 29  2  0  0  0
 29 30  1  0  0  0
 30 31  2  0  0  0
 17 18  1  0  0  0
  3 12  1  0  0  0
  5 13  1  0  0  0
 22 23  1  0  0  0
 10 14  1  0  0  0
M  CHG 1   7   1
M  END
> <minimizedAffinity>
-10.95886

$$$$
2WB5_VGB_A_1628


 31 33  0  0  0  0  0  0  0  0999 V2000
   33.1845   42.7125   21.1581 C   0  0  0  0  0  0  0  0  0  0  0  0
   32.6677   43.0081   22.5481 C   0  0  0  0  0  0  0  0  0  0  0  0
   33.0009   44.3585   22.7867 O   0  0  0  0  0  0  0  0  0  0  0  0
   31.1578   42.7789   22.6389 C   0  0  0  0  0  0  0  0  0  0  0  0
   30.7445   43.2126   23.9395 O   0  0  0  0  0  0  0  0  0  0  0  0
   30.9051   41.2925   22.4293 C   0  0  0  0  0  0  0  0  0  0  0  0
   31.1996   41.0716   21.0135 N   0  0  0  0  0  0  0  0  0  0  0  0
   30.6228   40.3404   20.0854 C   0  0  0  0  0  0  0  0  0  0  0  0
   32.2924   41.7145   20.4117 C   0  0  0  0  0  0  0  0  0  0  0  0
   32.2976   41.3690   19.1496 N   0  0  0  0  0  0  0  0  0  0  0  0
   31.3013   40.5280   18.9423 C   0  0  0  0  0  0  0  0  0  0  0  0
   32.5930   44.9171   22.1067 H   0  0  0  0  0  0  0  0  0  0  0  0
   31.2403   42.7250   24.6157 H   0  0  0  0  0  0  0  0  0  0  0  0
   32.9365   41.6831   18.4696 H   0  0  0  0  0  0  0  0  0  0  0  0
   35.0361   41.3814   22.0560 C   0  0  0  0  0  0  0  0  0  0  0  0
   34.2952   40.7684   22.8365 O   0  0  0  0  0  0  0  0  0  0  0  0
   34.6012   42.3088   21.2197 N   0  0  0  0  0  0  0  0  0  0  0  0
   35.2461   42.7449   20.6171 H   0  0  0  0  0  0  0  0  0  0  0  0
   37.4310   42.3681   22.2464 C   0  0  0  0  0  0  0  0  0  0  0  0
   36.5634   41.1569   21.9316 C   0  0  0  0  0  0  0  0  0  0  0  0
   29.4926   40.7635   22.7450 C   0  0  0  0  0  0  0  0  0  0  0  0
   29.6057   39.5212   23.4045 O   0  0  0  0  0  0  0  0  0  0  0  0
   30.0740   38.8931   22.8326 H   0  0  0  0  0  0  0  0  0  0  0  0
   31.0190   39.8542   17.5891 C   0  0  0  0  0  0  0  0  0  0  0  0
   30.4149   40.8691   16.6225 C   0  0  0  0  0  0  0  0  0  0  0  0
   31.4148   41.3507   15.5527 C   0  0  0  0  0  0  0  0  0  0  0  0
   32.5239   40.5604   15.2395 C   0  0  0  0  0  0  0  0  0  0  0  0
   33.4567   40.9997   14.3058 C   0  0  0  0  0  0  0  0  0  0  0  0
   33.2529   42.2296   13.6888 C   0  0  0  0  0  0  0  0  0  0  0  0
   32.1465   43.0275   13.9848 C   0  0  0  0  0  0  0  0  0  0  0  0
   31.2211   42.5848   14.9187 C   0  0  0  0  0  0  0  0  0  0  0  0
 19 20  1  0  0  0
 20 15  1  0  0  0
 15 16  2  0  0  0
 15 17  1  0  0  0
 17  1  1  0  0  0
  1  2  1  0  0  0
  1  9  1  0  0  0
  2  3  1  0  0  0
  2  4  1  0  0  0
  4  5  1  0  0  0
  4  6  1  0  0  0
  6 21  1  0  0  0
  6  7  1  0  0  0
 21 22  1  0  0  0
  7  8  1  0  0  0
  7  9  2  0  0  0
  8 11  2  0  0  0
  9 10  1  0  0  0
 10 11  1  0  0  0
 11 24  1  0  0  0
 24 25  1  0  0  0
 25 26  1  0  0  0
 26 27  2  0  0  0
 26 31  1  0  0  0
 27 28  1  0  0  0
 28 29  2  0  0  0
 29 30  1  0  0  0
 30 31  2  0  0  0
 17 18  1  0  0  0
  3 12  1  0  0  0
  5 13  1  0  0  0
 22 23  1  0  0  0
 10 14  1  0  0  0
M  CHG 1   7   1
M  END
> <minimizedAffinity>
-10.14240

$$$$
2WB5_VGB_A_1628


 31 33  0  0  0  0  0  0  0  0999 V2000
   33.2221   42.6481   21.0308 C   0  0  0  0  0  0  0  0  0  0  0  0
   32.6712   42.9607   22.4039 C   0  0  0  0  0  0  0  0  0  0  0  0
   33.0138   44.3090   22.6412 O   0  0  0  0  0  0  0  0  0  0  0  0
   31.1569   42.7498   22.4552 C   0  0  0  0  0  0  0  0  0  0  0  0
   30.7135   43.1986   23.7408 O   0  0  0  0  0  0  0  0  0  0  0  0
   30.8924   41.2648   22.2502 C   0  0  0  0  0  0  0  0  0  0  0  0
   31.2226   41.0293   20.8446 N   0  0  0  0  0  0  0  0  0  0  0  0
   30.6626   40.2975   19.9067 C   0  0  0  0  0  0  0  0  0  0  0  0
   32.3389   41.6546   20.2680 C   0  0  0  0  0  0  0  0  0  0  0  0
   32.3743   41.2992   19.0091 N   0  0  0  0  0  0  0  0  0  0  0  0
   31.3741   40.4682   18.7812 C   0  0  0  0  0  0  0  0  0  0  0  0
   32.6311   44.8669   21.9461 H   0  0  0  0  0  0  0  0  0  0  0  0
   31.1849   42.7106   24.4339 H   0  0  0  0  0  0  0  0  0  0  0  0
   33.0351   41.6004   18.3444 H   0  0  0  0  0  0  0  0  0  0  0  0
   35.0411   41.3396   22.0232 C   0  0  0  0  0  0  0  0  0  0  0  0
   34.2805   40.7779   22.8231 O   0  0  0  0  0  0  0  0  0  0  0  0
   34.6317   42.2285   21.1341 N   0  0  0  0  0  0  0  0  0  0  0  0
   35.2913   42.6240   20.5195 H   0  0  0  0  0  0  0  0  0  0  0  0
   37.4482   42.2871   22.2544 C   0  0  0  0  0  0  0  0  0  0  0  0
   36.5666   41.0877   21.9332 C   0  0  0  0  0  0  0  0  0  0  0  0
   29.4656   40.7548   22.5312 C   0  0  0  0  0  0  0  0  0  0  0  0
   29.3074   40.5808   23.9225 O   0  0  0  0  0  0  0  0  0  0  0  0
   29.9581   39.9372   24.2439 H   0  0  0  0  0  0  0  0  0  0  0  0
   31.1208   39.7870   17.4259 C   0  0  0  0  0  0  0  0  0  0  0  0
   31.5649   40.7086   16.2933 C   0  0  0  0  0  0  0  0  0  0  0  0
   32.6574   40.0844   15.4026 C   0  0  0  0  0  0  0  0  0  0  0  0
   32.8627   38.7024   15.4290 C   0  0  0  0  0  0  0  0  0  0  0  0
   33.8712   38.1287   14.6617 C   0  0  0  0  0  0  0  0  0  0  0  0
   34.6555   38.9571   13.8658 C   0  0  0  0  0  0  0  0  0  0  0  0
   34.4583   40.3383   13.8223 C   0  0  0  0  0  0  0  0  0  0  0  0
   33.4524   40.9047   14.5917 C   0  0  0  0  0  0  0  0  0  0  0  0
 19 20  1  0  0  0
 20 15  1  0  0  0
 15 16  2  0  0  0
 15 17  1  0  0  0
 17  1  1  0  0  0
  1  2  1  0  0  0
  1  9  1  0  0  0
  2  3  1  0  0  0
  2  4  1  0  0  0
  4  5  1  0  0  0
  4  6  1  0  0  0
  6 21  1  0  0  0
  6  7  1  0  0  0
 21 22  1  0  0  0
  7  8  1  0  0  0
  7  9  2  0  0  0
  8 11  2  0  0  0
  9 10  1  0  0  0
 10 11  1  0  0  0
 11 24  1  0  0  0
 24 25  1  0  0  0
 25 26  1  0  0  0
 26 27  2  0  0  0
 26 31  1  0  0  0
 27 28  1  0  0  0
 28 29  2  0  0  0
 29 30  1  0  0  0
 30 31  2  0  0  0
 17 18  1  0  0  0
  3 12  1  0  0  0
  5 13  1  0  0  0
 22 23  1  0  0  0
 10 14  1  0  0  0
M  CHG 1   7   1
M  END
> <minimizedAffinity>
-10.12185

$$$$
2WB5_VGB_A_1628


 31 33  0  0  0  0  0  0  0  0999 V2000
   33.0211   42.8233   21.0062 C   0  0  0  0  0  0  0  0  0  0  0  0
   32.5568   43.0740   22.4232 C   0  0  0  0  0  0  0  0  0  0  0  0
   32.7591   44.4537   22.6396 O   0  0  0  0  0  0  0  0  0  0  0  0
   31.0872   42.6882   22.6018 C   0  0  0  0  0  0  0  0  0  0  0  0
   30.7059   43.0864   23.9234 O   0  0  0  0  0  0  0  0  0  0  0  0
   30.9808   41.1819   22.4100 C   0  0  0  0  0  0  0  0  0  0  0  0
   31.2151   40.9819   20.9798 N   0  0  0  0  0  0  0  0  0  0  0  0
   30.6661   40.1868   20.0881 C   0  0  0  0  0  0  0  0  0  0  0  0
   32.1977   41.7312   20.3146 C   0  0  0  0  0  0  0  0  0  0  0  0
   32.1668   41.3782   19.0549 N   0  0  0  0  0  0  0  0  0  0  0  0
   31.2543   40.4356   18.9073 C   0  0  0  0  0  0  0  0  0  0  0  0
   32.2562   44.9611   21.9833 H   0  0  0  0  0  0  0  0  0  0  0  0
   31.2883   42.6589   24.5706 H   0  0  0  0  0  0  0  0  0  0  0  0
   32.7288   41.7523   18.3384 H   0  0  0  0  0  0  0  0  0  0  0  0
   35.0508   41.6998   21.7962 C   0  0  0  0  0  0  0  0  0  0  0  0
   34.4245   41.0171   22.6181 O   0  0  0  0  0  0  0  0  0  0  0  0
   34.4737   42.5711   20.9863 N   0  0  0  0  0  0  0  0  0  0  0  0
   35.0335   43.0689   20.3475 H   0  0  0  0  0  0  0  0  0  0  0  0
   37.3666   40.9209   22.6771 C   0  0  0  0  0  0  0  0  0  0  0  0
   36.5837   41.6363   21.5843 C   0  0  0  0  0  0  0  0  0  0  0  0
   29.6523   40.5100   22.8080 C   0  0  0  0  0  0  0  0  0  0  0  0
   29.4261   40.7226   24.1845 O   0  0  0  0  0  0  0  0  0  0  0  0
   30.1565   40.3396   24.6951 H   0  0  0  0  0  0  0  0  0  0  0  0
   30.9672   39.7251   17.5739 C   0  0  0  0  0  0  0  0  0  0  0  0
   30.5291   40.7466   16.5280 C   0  0  0  0  0  0  0  0  0  0  0  0
   28.9997   40.7990   16.3415 C   0  0  0  0  0  0  0  0  0  0  0  0
   28.2117   41.4610   17.2868 C   0  0  0  0  0  0  0  0  0  0  0  0
   26.8273   41.4824   17.1542 C   0  0  0  0  0  0  0  0  0  0  0  0
   26.2531   40.8436   16.0600 C   0  0  0  0  0  0  0  0  0  0  0  0
   27.0265   40.1845   15.1029 C   0  0  0  0  0  0  0  0  0  0  0  0
   28.4066   40.1647   15.2422 C   0  0  0  0  0  0  0  0  0  0  0  0
 19 20  1  0  0  0
 20 15  1  0  0  0
 15 16  2  0  0  0
 15 17  1  0  0  0
 17  1  1  0  0  0
  1  2  1  0  0  0
  1  9  1  0  0  0
  2  3  1  0  0  0
  2  4  1  0  0  0
  4  5  1  0  0  0
  4  6  1  0  0  0
  6 21  1  0  0  0
  6  7  1  0  0  0
 21 22  1  0  0  0
  7  8  1  0  0  0
  7  9  2  0  0  0
  8 11  2  0  0  0
  9 10  1  0  0  0
 10 11  1  0  0  0
 11 24  1  0  0  0
 24 25  1  0  0  0
 25 26  1  0  0  0
 26 27  2  0  0  0
 26 31  1  0  0  0
 27 28  1  0  0  0
 28 29  2  0  0  0
 29 30  1  0  0  0
 30 31  2  0  0  0
 17 18  1  0  0  0
  3 12  1  0  0  0
  5 13  1  0  0  0
 22 23  1  0  0  0
 10 14  1  0  0  0
M  CHG 1   7   1
M  END
> <minimizedAffinity>
-10.10197

$$$$
2WB5_VGB_A_1628


 31 33  0  0  0  0  0  0  0  0999 V2000
   32.8586   42.7008   21.0638 C   0  0  0  0  0  0  0  0  0  0  0  0
   32.3106   42.7488   22.4724 C   0  0  0  0  0  0  0  0  0  0  0  0
   32.3746   44.1076   22.8476 O   0  0  0  0  0  0  0  0  0  0  0  0
   30.8766   42.2188   22.5280 C   0  0  0  0  0  0  0  0  0  0  0  0
   30.4019   42.4307   23.8623 O   0  0  0  0  0  0  0  0  0  0  0  0
   30.9187   40.7402   22.1687 C   0  0  0  0  0  0  0  0  0  0  0  0
   31.2337   40.7240   20.7401 N   0  0  0  0  0  0  0  0  0  0  0  0
   30.8007   39.9897   19.7391 C   0  0  0  0  0  0  0  0  0  0  0  0
   32.1713   41.6262   20.2143 C   0  0  0  0  0  0  0  0  0  0  0  0
   32.2290   41.4161   18.9240 N   0  0  0  0  0  0  0  0  0  0  0  0
   31.4151   40.4203   18.6258 C   0  0  0  0  0  0  0  0  0  0  0  0
   31.8565   44.6400   22.2238 H   0  0  0  0  0  0  0  0  0  0  0  0
   30.9921   41.9853   24.4901 H   0  0  0  0  0  0  0  0  0  0  0  0
   32.7853   41.9161   18.2839 H   0  0  0  0  0  0  0  0  0  0  0  0
   34.9477   41.6960   21.8591 C   0  0  0  0  0  0  0  0  0  0  0  0
   34.3525   40.8925   22.5898 O   0  0  0  0  0  0  0  0  0  0  0  0
   34.3277   42.5799   21.0957 N   0  0  0  0  0  0  0  0  0  0  0  0
   34.8659   43.1783   20.5287 H   0  0  0  0  0  0  0  0  0  0  0  0
   37.2818   40.8358   22.6053 C   0  0  0  0  0  0  0  0  0  0  0  0
   36.4875   41.7859   21.7192 C   0  0  0  0  0  0  0  0  0  0  0  0
   29.6417   39.9146   22.4188 C   0  0  0  0  0  0  0  0  0  0  0  0
   28.5382   40.6001   21.8681 O   0  0  0  0  0  0  0  0  0  0  0  0
   28.4565   41.4710   22.2874 H   0  0  0  0  0  0  0  0  0  0  0  0
   31.2545   39.8425   17.2097 C   0  0  0  0  0  0  0  0  0  0  0  0
   29.8641   40.1704   16.6725 C   0  0  0  0  0  0  0  0  0  0  0  0
   29.5749   41.6841   16.6349 C   0  0  0  0  0  0  0  0  0  0  0  0
   28.4726   42.1932   17.3266 C   0  0  0  0  0  0  0  0  0  0  0  0
   28.1749   43.5508   17.2695 C   0  0  0  0  0  0  0  0  0  0  0  0
   29.0019   44.3830   16.5222 C   0  0  0  0  0  0  0  0  0  0  0  0
   30.1111   43.8916   15.8318 C   0  0  0  0  0  0  0  0  0  0  0  0
   30.4012   42.5363   15.8908 C   0  0  0  0  0  0  0  0  0  0  0  0
 19 20  1  0  0  0
 20 15  1  0  0  0
 15 16  2  0  0  0
 15 17  1  0  0  0
 17  1  1  0  0  0
  1  2  1  0  0  0
  1  9  1  0  0  0
  2  3  1  0  0  0
  2  4  1  0  0  0
  4  5  1  0  0  0
  4  6  1  0  0  0
  6 21  1  0  0  0
  6  7  1  0  0  0
 21 22  1  0  0  0
  7  8  1  0  0  0
  7  9  2  0  0  0
  8 11  2  0  0  0
  9 10  1  0  0  0
 10 11  1  0  0  0
 11 24  1  0  0  0
 24 25  1  0  0  0
 25 26  1  0  0  0
 26 27  2  0  0  0
 26 31  1  0  0  0
 27 28  1  0  0  0
 28 29  2  0  0  0
 29 30  1  0  0  0
 30 31  2  0  0  0
 17 18  1  0  0  0
  3 12  1  0  0  0
  5 13  1  0  0  0
 22 23  1  0  0  0
 10 14  1  0  0  0
M  CHG 1   7   1
M  END
> <minimizedAffinity>
-9.98744

$$$$
2WB5_VGB_A_1628


 31 33  0  0  0  0  0  0  0  0999 V2000
   31.5565   41.3401   19.0935 C   0  0  0  0  0  0  0  0  0  0  0  0
   32.4458   41.0782   20.2881 C   0  0  0  0  0  0  0  0  0  0  0  0
   33.6187   41.8246   20.0462 O   0  0  0  0  0  0  0  0  0  0  0  0
   31.7667   41.5076   21.5899 C   0  0  0  0  0  0  0  0  0  0  0  0
   32.7296   41.3500   22.6380 O   0  0  0  0  0  0  0  0  0  0  0  0
   30.5540   40.6103   21.7936 C   0  0  0  0  0  0  0  0  0  0  0  0
   29.6109   41.0365   20.7596 N   0  0  0  0  0  0  0  0  0  0  0  0
   28.3073   41.2070   20.7562 C   0  0  0  0  0  0  0  0  0  0  0  0
   30.0715   41.3540   19.4725 C   0  0  0  0  0  0  0  0  0  0  0  0
   29.0330   41.7331   18.7724 N   0  0  0  0  0  0  0  0  0  0  0  0
   27.9582   41.6360   19.5330 C   0  0  0  0  0  0  0  0  0  0  0  0
   33.3904   42.7619   19.9452 H   0  0  0  0  0  0  0  0  0  0  0  0
   33.0364   40.4300   22.6595 H   0  0  0  0  0  0  0  0  0  0  0  0
   29.0502   42.0390   17.8368 H   0  0  0  0  0  0  0  0  0  0  0  0
   31.5579   40.6389   16.7452 C   0  0  0  0  0  0  0  0  0  0  0  0
   30.9788   41.6693   16.3754 O   0  0  0  0  0  0  0  0  0  0  0  0
   31.8805   40.3998   18.0050 N   0  0  0  0  0  0  0  0  0  0  0  0
   32.3537   39.5647   18.2239 H   0  0  0  0  0  0  0  0  0  0  0  0
   31.2567   38.1715   15.9924 C   0  0  0  0  0  0  0  0  0  0  0  0
   31.9966   39.4892   15.8048 C   0  0  0  0  0  0  0  0  0  0  0  0
   29.8600   40.6598   23.1686 C   0  0  0  0  0  0  0  0  0  0  0  0
   30.1413   41.9006   23.7789 O   0  0  0  0  0  0  0  0  0  0  0  0
   31.1003   41.9969   23.8887 H   0  0  0  0  0  0  0  0  0  0  0  0
   26.5329   41.9388   19.0412 C   0  0  0  0  0  0  0  0  0  0  0  0
   25.9400   43.0881   19.8515 C   0  0  0  0  0  0  0  0  0  0  0  0
   25.9320   44.4248   19.0835 C   0  0  0  0  0  0  0  0  0  0  0  0
   26.8401   44.6267   18.0408 C   0  0  0  0  0  0  0  0  0  0  0  0
   26.8727   45.8420   17.3649 C   0  0  0  0  0  0  0  0  0  0  0  0
   25.9782   46.8382   17.7425 C   0  0  0  0  0  0  0  0  0  0  0  0
   25.0598   46.6497   18.7766 C   0  0  0  0  0  0  0  0  0  0  0  0
   25.0340   45.4362   19.4484 C   0  0  0  0  0  0  0  0  0  0  0  0
 19 20  1  0  0  0
 20 15  1  0  0  0
 15 16  2  0  0  0
 15 17  1  0  0  0
 17  1  1  0  0  0
  1  2  1  0  0  0
  1  9  1  0  0  0
  2  3  1  0  0  0
  2  4  1  0  0  0
  4  5  1  0  0  0
  4  6  1  0  0  0
  6 21  1  0  0  0
  6  7  1  0  0  0
 21 22  1  0  0  0
  7  8  1  0  0  0
  7  9  2  0  0  0
  8 11  2  0  0  0
  9 10  1  0  0  0
 10 11  1  0  0  0
 11 24  1  0  0  0
 24 25  1  0  0  0
 25 26  1  0  0  0
 26 27  2  0  0  0
 26 31  1  0  0  0
 27 28  1  0  0  0
 28 29  2  0  0  0
 29 30  1  0  0  0
 30 31  2  0  0  0
 17 18  1  0  0  0
  3 12  1  0  0  0
  5 13  1  0  0  0
 22 23  1  0  0  0
 10 14  1  0  0  0
M  CHG 1   7   1
M  END
> <minimizedAffinity>
-9.67240

$$$$
2WB5_VGB_A_1628


 31 33  0  0  0  0  0  0  0  0999 V2000
   29.4638   41.4942   21.0625 C   0  0  0  0  0  0  0  0  0  0  0  0
   30.2778   41.9552   22.2505 C   0  0  0  0  0  0  0  0  0  0  0  0
   29.5968   41.4557   23.3811 O   0  0  0  0  0  0  0  0  0  0  0  0
   31.7112   41.4254   22.1801 C   0  0  0  0  0  0  0  0  0  0  0  0
   32.3567   41.7961   23.4034 O   0  0  0  0  0  0  0  0  0  0  0  0
   32.3784   42.0639   20.9701 C   0  0  0  0  0  0  0  0  0  0  0  0
   31.7248   41.4345   19.8225 N   0  0  0  0  0  0  0  0  0  0  0  0
   32.1747   41.0045   18.6643 C   0  0  0  0  0  0  0  0  0  0  0  0
   30.3432   41.1891   19.8449 C   0  0  0  0  0  0  0  0  0  0  0  0
   30.0376   40.5937   18.7204 N   0  0  0  0  0  0  0  0  0  0  0  0
   31.1337   40.4882   17.9921 C   0  0  0  0  0  0  0  0  0  0  0  0
   29.5340   40.4897   23.3200 H   0  0  0  0  0  0  0  0  0  0  0  0
   32.3166   42.7593   23.5112 H   0  0  0  0  0  0  0  0  0  0  0  0
   29.1419   40.2778   18.4613 H   0  0  0  0  0  0  0  0  0  0  0  0
   27.3609   42.1652   19.9979 C   0  0  0  0  0  0  0  0  0  0  0  0
   27.2191   41.0646   19.4479 O   0  0  0  0  0  0  0  0  0  0  0  0
   28.3824   42.4571   20.7850 N   0  0  0  0  0  0  0  0  0  0  0  0
   28.4222   43.3488   21.2004 H   0  0  0  0  0  0  0  0  0  0  0  0
   26.5165   44.1751   18.5862 C   0  0  0  0  0  0  0  0  0  0  0  0
   26.3758   43.3523   19.8598 C   0  0  0  0  0  0  0  0  0  0  0  0
   33.9055   41.9046   20.8379 C   0  0  0  0  0  0  0  0  0  0  0  0
   34.5338   42.6556   21.8539 O   0  0  0  0  0  0  0  0  0  0  0  0
   34.2896   43.5900   21.7633 H   0  0  0  0  0  0  0  0  0  0  0  0
   31.1637   39.8938   16.5740 C   0  0  0  0  0  0  0  0  0  0  0  0
   31.1709   38.3697   16.6526 C   0  0  0  0  0  0  0  0  0  0  0  0
   30.4269   37.7029   15.4785 C   0  0  0  0  0  0  0  0  0  0  0  0
   29.3321   38.3497   14.8991 C   0  0  0  0  0  0  0  0  0  0  0  0
   28.6255   37.7430   13.8659 C   0  0  0  0  0  0  0  0  0  0  0  0
   29.0401   36.4921   13.4204 C   0  0  0  0  0  0  0  0  0  0  0  0
   30.1361   35.8361   13.9833 C   0  0  0  0  0  0  0  0  0  0  0  0
   30.8352   36.4455   15.0150 C   0  0  0  0  0  0  0  0  0  0  0  0
 19 20  1  0  0  0
 20 15  1  0  0  0
 15 16  2  0  0  0
 15 17  1  0  0  0
 17  1  1  0  0  0
  1  2  1  0  0  0
  1  9  1  0  0  0
  2  3  1  0  0  0
  2  4  1  0  0  0
  4  5  1  0  0  0
  4  6  1  0  0  0
  6 21  1  0  0  0
  6  7  1  0  0  0
 21 22  1  0  0  0
  7  8  1  0  0  0
  7  9  2  0  0  0
  8 11  2  0  0  0
  9 10  1  0  0  0
 10 11  1  0  0  0
 11 24  1  0  0  0
 24 25  1  0  0  0
 25 26  1  0  0  0
 26 27  2  0  0  0
 26 31  1  0  0  0
 27 28  1  0  0  0
 28 29  2  0  0  0
 29 30  1  0  0  0
 30 31  2  0  0  0
 17 18  1  0  0  0
  3 12  1  0  0  0
  5 13  1  0  0  0
 22 23  1  0  0  0
 10 14  1  0  0  0
M  CHG 1   7   1
M  END
> <minimizedAffinity>
-9.11876

$$$$
2WB5_VGB_A_1628


 31 33  0  0  0  0  0  0  0  0999 V2000
   31.5267   41.3314   19.0916 C   0  0  0  0  0  0  0  0  0  0  0  0
   32.4227   41.0824   20.2839 C   0  0  0  0  0  0  0  0  0  0  0  0
   33.5816   41.8504   20.0419 O   0  0  0  0  0  0  0  0  0  0  0  0
   31.7384   41.4960   21.5881 C   0  0  0  0  0  0  0  0  0  0  0  0
   32.7060   41.3529   22.6340 O   0  0  0  0  0  0  0  0  0  0  0  0
   30.5425   40.5764   21.7915 C   0  0  0  0  0  0  0  0  0  0  0  0
   29.5900   40.9884   20.7604 N   0  0  0  0  0  0  0  0  0  0  0  0
   28.2835   41.1354   20.7598 C   0  0  0  0  0  0  0  0  0  0  0  0
   30.0424   41.3176   19.4733 C   0  0  0  0  0  0  0  0  0  0  0  0
   28.9959   41.6798   18.7761 N   0  0  0  0  0  0  0  0  0  0  0  0
   27.9245   41.5613   19.5383 C   0  0  0  0  0  0  0  0  0  0  0  0
   33.3363   42.7838   19.9439 H   0  0  0  0  0  0  0  0  0  0  0  0
   33.0293   40.4386   22.6525 H   0  0  0  0  0  0  0  0  0  0  0  0
   29.0059   41.9885   17.8413 H   0  0  0  0  0  0  0  0  0  0  0  0
   31.5582   40.6484   16.7382 C   0  0  0  0  0  0  0  0  0  0  0  0
   30.9822   41.6808   16.3692 O   0  0  0  0  0  0  0  0  0  0  0  0
   31.8656   40.4001   18.0000 N   0  0  0  0  0  0  0  0  0  0  0  0
   32.3373   39.5640   18.2183 H   0  0  0  0  0  0  0  0  0  0  0  0
   31.2942   38.1765   15.9863 C   0  0  0  0  0  0  0  0  0  0  0  0
   32.0103   39.5067   15.7944 C   0  0  0  0  0  0  0  0  0  0  0  0
   29.8503   40.6098   23.1679 C   0  0  0  0  0  0  0  0  0  0  0  0
   30.0992   41.8588   23.7754 O   0  0  0  0  0  0  0  0  0  0  0  0
   31.0555   41.9812   23.8830 H   0  0  0  0  0  0  0  0  0  0  0  0
   26.4931   41.8397   19.0499 C   0  0  0  0  0  0  0  0  0  0  0  0
   26.4791   41.9521   17.5279 C   0  0  0  0  0  0  0  0  0  0  0  0
   25.4836   40.9817   16.8618 C   0  0  0  0  0  0  0  0  0  0  0  0
   25.7058   40.5594   15.5485 C   0  0  0  0  0  0  0  0  0  0  0  0
   24.7956   39.7161   14.9197 C   0  0  0  0  0  0  0  0  0  0  0  0
   23.6745   39.2984   15.6294 C   0  0  0  0  0  0  0  0  0  0  0  0
   23.4419   39.7050   16.9443 C   0  0  0  0  0  0  0  0  0  0  0  0
   24.3522   40.5480   17.5650 C   0  0  0  0  0  0  0  0  0  0  0  0
 19 20  1  0  0  0
 20 15  1  0  0  0
 15 16  2  0  0  0
 15 17  1  0  0  0
 17  1  1  0  0  0
  1  2  1  0  0  0
  1  9  1  0  0  0
  2  3  1  0  0  0
  2  4  1  0  0  0
  4  5  1  0  0  0
  4  6  1  0  0  0
  6 21  1  0  0  0
  6  7  1  0  0  0
 21 22  1  0  0  0
  7  8  1  0  0  0
  7  9  2  0  0  0
  8 11  2  0  0  0
  9 10  1  0  0  0
 10 11  1  0  0  0
 11 24  1  0  0  0
 24 25  1  0  0  0
 25 26  1  0  0  0
 26 27  2  0  0  0
 26 31  1  0  0  0
 27 28  1  0  0  0
 28 29  2  0  0  0
 29 30  1  0  0  0
 30 31  2  0  0  0
 17 18  1  0  0  0
  3 12  1  0  0  0
  5 13  1  0  0  0
 22 23  1  0  0  0
 10 14  1  0  0  0
M  CHG 1   7   1
M  END
> <minimizedAffinity>
-8.66000

$$$$
2WB5_VGB_A_1628


 31 33  0  0  0  0  0  0  0  0999 V2000
   30.0428   40.5815   16.9942 C   0  0  0  0  0  0  0  0  0  0  0  0
   31.3466   40.3700   17.7303 C   0  0  0  0  0  0  0  0  0  0  0  0
   32.3544   40.6936   16.7970 O   0  0  0  0  0  0  0  0  0  0  0  0
   31.4306   41.2551   18.9753 C   0  0  0  0  0  0  0  0  0  0  0  0
   32.7434   41.0874   19.5223 O   0  0  0  0  0  0  0  0  0  0  0  0
   30.3496   40.7924   19.9420 C   0  0  0  0  0  0  0  0  0  0  0  0
   29.0973   41.2090   19.3106 N   0  0  0  0  0  0  0  0  0  0  0  0
   27.9846   41.7215   19.7878 C   0  0  0  0  0  0  0  0  0  0  0  0
   28.9320   41.0848   17.9225 C   0  0  0  0  0  0  0  0  0  0  0  0
   27.7484   41.5600   17.6298 N   0  0  0  0  0  0  0  0  0  0  0  0
   27.1601   41.9359   18.7503 C   0  0  0  0  0  0  0  0  0  0  0  0
   32.2356   41.6083   16.4970 H   0  0  0  0  0  0  0  0  0  0  0  0
   32.8952   40.1493   19.7168 H   0  0  0  0  0  0  0  0  0  0  0  0
   27.3620   41.6261   16.7267 H   0  0  0  0  0  0  0  0  0  0  0  0
   29.9589   39.2170   14.9602 C   0  0  0  0  0  0  0  0  0  0  0  0
   30.5552   40.0717   14.2909 O   0  0  0  0  0  0  0  0  0  0  0  0
   29.6813   39.3645   16.2445 N   0  0  0  0  0  0  0  0  0  0  0  0
   29.2168   38.6361   16.7167 H   0  0  0  0  0  0  0  0  0  0  0  0
   30.3691   36.6675   14.6821 C   0  0  0  0  0  0  0  0  0  0  0  0
   29.4595   37.8581   14.4100 C   0  0  0  0  0  0  0  0  0  0  0  0
   30.4035   41.3433   21.3802 C   0  0  0  0  0  0  0  0  0  0  0  0
   31.3220   40.5778   22.1295 O   0  0  0  0  0  0  0  0  0  0  0  0
   31.0368   39.6508   22.1409 H   0  0  0  0  0  0  0  0  0  0  0  0
   25.7282   42.4927   18.8187 C   0  0  0  0  0  0  0  0  0  0  0  0
   25.6725   43.6554   19.8057 C   0  0  0  0  0  0  0  0  0  0  0  0
   25.6074   45.0308   19.1126 C   0  0  0  0  0  0  0  0  0  0  0  0
   26.5255   45.3400   18.1056 C   0  0  0  0  0  0  0  0  0  0  0  0
   26.5056   46.5915   17.4988 C   0  0  0  0  0  0  0  0  0  0  0  0
   25.5493   47.5150   17.9082 C   0  0  0  0  0  0  0  0  0  0  0  0
   24.6203   47.2191   18.9072 C   0  0  0  0  0  0  0  0  0  0  0  0
   24.6470   45.9700   19.5102 C   0  0  0  0  0  0  0  0  0  0  0  0
 19 20  1  0  0  0
 20 15  1  0  0  0
 15 16  2  0  0  0
 15 17  1  0  0  0
 17  1  1  0  0  0
  1  2  1  0  0  0
  1  9  1  0  0  0
  2  3  1  0  0  0
  2  4  1  0  0  0
  4  5  1  0  0  0
  4  6  1  0  0  0
  6 21  1  0  0  0
  6  7  1  0  0  0
 21 22  1  0  0  0
  7  8  1  0  0  0
  7  9  2  0  0  0
  8 11  2  0  0  0
  9 10  1  0  0  0
 10 11  1  0  0  0
 11 24  1  0  0  0
 24 25  1  0  0  0
 25 26  1  0  0  0
 26 27  2  0  0  0
 26 31  1  0  0  0
 27 28  1  0  0  0
 28 29  2  0  0  0
 29 30  1  0  0  0
 30 31  2  0  0  0
 17 18  1  0  0  0
  3 12  1  0  0  0
  5 13  1  0  0  0
 22 23  1  0  0  0
 10 14  1  0  0  0
M  CHG 1   7   1
M  END
> <minimizedAffinity>
-8.13350

$$$$
