4XIT_40Z_A_301


 34 38  0  0  0  0  0  0  0  0999 V2000
    2.3571   -8.8857  -25.5014 N   0  0  0  0  0  0  0  0  0  0  0  0
    6.1339  -11.5854  -24.3420 C   0  0  0  0  0  0  0  0  0  0  0  0
    7.2579  -12.5402  -24.5310 C   0  0  0  0  0  0  0  0  0  0  0  0
    6.9538  -13.9940  -24.8223 C   0  0  0  0  0  0  0  0  0  0  0  0
    5.6463  -14.2693  -25.5825 C   0  0  0  0  0  0  0  0  0  0  0  0
    4.5109  -13.4898  -24.9104 C   0  0  0  0  0  0  0  0  0  0  0  0
    5.3275  -15.7604  -25.5396 C   0  0  0  0  0  0  0  0  0  0  0  0
    0.5039  -12.2674  -23.7594 C   0  0  0  0  0  0  0  0  0  0  0  0
    0.3701  -10.1937  -24.9489 C   0  0  0  0  0  0  0  0  0  0  0  0
    3.2629   -7.9609  -24.8107 C   0  0  0  0  0  0  0  0  0  0  0  0
   -0.1857  -13.7110  -23.1048 Cl  0  0  0  0  0  0  0  0  0  0  0  0
    1.8758  -12.1473  -23.6810 C   0  0  0  0  0  0  0  0  0  0  0  0
   -0.2788  -11.2983  -24.3919 C   0  0  0  0  0  0  0  0  0  0  0  0
    1.7598  -10.0598  -24.8996 C   0  0  0  0  0  0  0  0  0  0  0  0
    4.0586   -8.5700  -23.6625 C   0  0  0  0  0  0  0  0  0  0  0  0
    4.6639   -9.9070  -23.9752 C   0  0  0  0  0  0  0  0  0  0  0  0
    2.5297  -11.0708  -24.2812 C   0  0  0  0  0  0  0  0  0  0  0  0
    3.9678  -11.0559  -24.2768 N   0  0  0  0  0  0  0  0  0  0  0  0
    4.8593  -12.0865  -24.5095 C   0  0  0  0  0  0  0  0  0  0  0  0
    5.7857  -13.8446  -27.0485 C   0  0  0  0  0  0  0  0  0  0  0  0
    8.4263  -12.1772  -24.4927 O   0  0  0  0  0  0  0  0  0  0  0  0
    6.0085  -10.1806  -24.0032 C   0  0  0  0  0  0  0  0  0  0  0  0
    7.1688   -9.2571  -23.7565 C   0  0  0  0  0  0  0  0  0  0  0  0
   -1.7688  -11.3652  -24.5346 C   0  0  0  0  0  0  0  0  0  0  0  0
   -2.2865  -11.2821  -25.7505 N   0  0  0  0  0  0  0  0  0  0  0  0
   -2.4710  -11.5012  -23.5216 O   0  0  0  0  0  0  0  0  0  0  0  0
   -3.2623  -11.3232  -25.8740 H   0  0  0  0  0  0  0  0  0  0  0  0
   -1.6955  -11.1792  -26.5312 H   0  0  0  0  0  0  0  0  0  0  0  0
    1.9032   -8.5577  -26.8444 C   0  0  0  0  0  0  0  0  0  0  0  0
    2.6402   -7.8843  -27.9397 C   0  0  0  0  0  0  0  0  0  0  0  0
    3.0771   -8.2775  -29.1432 C   0  0  0  0  0  0  0  0  0  0  0  0
    3.7677   -7.1998  -29.6925 C   0  0  0  0  0  0  0  0  0  0  0  0
    3.0187   -6.6050  -27.7085 O   0  0  0  0  0  0  0  0  0  0  0  0
    3.7128   -6.2235  -28.8008 C   0  0  0  0  0  0  0  0  0  0  0  0
 34 33  1  0  0  0
 34 32  2  0  0  0
 33 30  1  0  0  0
 32 31  1  0  0  0
 30 31  2  0  0  0
 30 29  1  0  0  0
 20  5  1  0  0  0
 29  1  1  0  0  0
 26 24  2  0  0  0
  7  5  1  0  0  0
  5  6  1  0  0  0
  5  4  1  0  0  0
  1 14  1  0  0  0
  1 10  1  0  0  0
  9 14  2  0  0  0
  9 13  1  0  0  0
 14 17  1  0  0  0
  6 19  1  0  0  0
 24 13  1  0  0  0
 24 25  1  0  0  0
  4  3  1  0  0  0
 10 15  1  0  0  0
 13  8  2  0  0  0
 19 18  1  0  0  0
 19  2  2  0  0  0
 17 18  1  0  0  0
 17 12  2  0  0  0
  3 21  2  0  0  0
  3  2  1  0  0  0
 18 16  1  0  0  0
  2 22  1  0  0  0
  8 12  1  0  0  0
  8 11  1  0  0  0
 16 22  2  0  0  0
 16 15  1  0  0  0
 22 23  1  0  0  0
 25 27  1  0  0  0
 25 28  1  0  0  0
M  END
> <minimizedAffinity>
-13.41421

$$$$
4XIT_40Z_A_301


 34 38  0  0  0  0  0  0  0  0999 V2000
    2.7062   -8.8988  -25.5065 N   0  0  0  0  0  0  0  0  0  0  0  0
    6.3997  -11.7168  -24.3604 C   0  0  0  0  0  0  0  0  0  0  0  0
    7.5009  -12.6966  -24.5561 C   0  0  0  0  0  0  0  0  0  0  0  0
    7.1627  -14.1363  -24.8783 C   0  0  0  0  0  0  0  0  0  0  0  0
    5.8568  -14.3632  -25.6570 C   0  0  0  0  0  0  0  0  0  0  0  0
    4.7347  -13.5675  -24.9818 C   0  0  0  0  0  0  0  0  0  0  0  0
    5.4994  -15.8461  -25.6461 C   0  0  0  0  0  0  0  0  0  0  0  0
    0.7482  -12.2639  -23.8489 C   0  0  0  0  0  0  0  0  0  0  0  0
    0.6804  -10.1652  -24.9997 C   0  0  0  0  0  0  0  0  0  0  0  0
    3.6279   -8.0111  -24.7889 C   0  0  0  0  0  0  0  0  0  0  0  0
    0.0147  -13.7013  -23.2291 Cl  0  0  0  0  0  0  0  0  0  0  0  0
    2.1217  -12.1808  -23.7540 C   0  0  0  0  0  0  0  0  0  0  0  0
   -0.0026  -11.2630  -24.4706 C   0  0  0  0  0  0  0  0  0  0  0  0
    2.0725  -10.0683  -24.9335 C   0  0  0  0  0  0  0  0  0  0  0  0
    4.3953   -8.6621  -23.6445 C   0  0  0  0  0  0  0  0  0  0  0  0
    4.9694  -10.0081  -23.9765 C   0  0  0  0  0  0  0  0  0  0  0  0
    2.8095  -11.1104  -24.3268 C   0  0  0  0  0  0  0  0  0  0  0  0
    4.2473  -11.1327  -24.3073 N   0  0  0  0  0  0  0  0  0  0  0  0
    5.1146  -12.1815  -24.5505 C   0  0  0  0  0  0  0  0  0  0  0  0
    6.0229  -13.9147  -27.1131 C   0  0  0  0  0  0  0  0  0  0  0  0
    8.6777  -12.3648  -24.4988 O   0  0  0  0  0  0  0  0  0  0  0  0
    6.3068  -10.3159  -23.9960 C   0  0  0  0  0  0  0  0  0  0  0  0
    7.4876   -9.4275  -23.7197 C   0  0  0  0  0  0  0  0  0  0  0  0
   -1.4922  -11.2887  -24.6299 C   0  0  0  0  0  0  0  0  0  0  0  0
   -1.9931  -11.2195  -25.8537 N   0  0  0  0  0  0  0  0  0  0  0  0
   -2.2098  -11.3791  -23.6226 O   0  0  0  0  0  0  0  0  0  0  0  0
   -2.9683  -11.2343  -25.9881 H   0  0  0  0  0  0  0  0  0  0  0  0
   -1.3903  -11.1532  -26.6293 H   0  0  0  0  0  0  0  0  0  0  0  0
    2.2753   -8.5339  -26.8476 C   0  0  0  0  0  0  0  0  0  0  0  0
    0.9689   -7.9948  -27.2933 C   0  0  0  0  0  0  0  0  0  0  0  0
    0.2176   -8.1696  -28.3883 C   0  0  0  0  0  0  0  0  0  0  0  0
   -0.8872   -7.3318  -28.2563 C   0  0  0  0  0  0  0  0  0  0  0  0
    0.3839   -7.0893  -26.4740 O   0  0  0  0  0  0  0  0  0  0  0  0
   -0.7458   -6.7013  -27.1014 C   0  0  0  0  0  0  0  0  0  0  0  0
 34 33  1  0  0  0
 34 32  2  0  0  0
 33 30  1  0  0  0
 32 31  1  0  0  0
 30 31  2  0  0  0
 30 29  1  0  0  0
 20  5  1  0  0  0
 29  1  1  0  0  0
 26 24  2  0  0  0
  7  5  1  0  0  0
  5  6  1  0  0  0
  5  4  1  0  0  0
  1 14  1  0  0  0
  1 10  1  0  0  0
  9 14  2  0  0  0
  9 13  1  0  0  0
 14 17  1  0  0  0
  6 19  1  0  0  0
 24 13  1  0  0  0
 24 25  1  0  0  0
  4  3  1  0  0  0
 10 15  1  0  0  0
 13  8  2  0  0  0
 19 18  1  0  0  0
 19  2  2  0  0  0
 17 18  1  0  0  0
 17 12  2  0  0  0
  3 21  2  0  0  0
  3  2  1  0  0  0
 18 16  1  0  0  0
  2 22  1  0  0  0
  8 12  1  0  0  0
  8 11  1  0  0  0
 16 22  2  0  0  0
 16 15  1  0  0  0
 22 23  1  0  0  0
 25 27  1  0  0  0
 25 28  1  0  0  0
M  END
> <minimizedAffinity>
-12.40258

$$$$
