1BV9_XV6_A_638


 58 64  0  0  0  0  0  0  0  0999 V2000
   -8.2830   14.1115   28.0384 O   0  0  0  0  0  0  0  0  0  0  0  0
  -10.2202   19.3489   26.9101 O   0  0  0  0  0  0  0  0  0  0  0  0
  -11.7443   18.4936   29.1027 O   0  0  0  0  0  0  0  0  0  0  0  0
   -8.6202   16.0169   27.0057 N   0  0  0  0  0  0  0  0  0  0  0  0
   -9.5617   15.5181   29.1270 N   0  0  0  0  0  0  0  0  0  0  0  0
   -8.8072   15.2089   28.0666 C   0  0  0  0  0  0  0  0  0  0  0  0
   -8.8494   17.4866   26.9656 C   0  0  0  0  0  0  0  0  0  0  0  0
  -10.2275   18.0178   27.3198 C   0  0  0  0  0  0  0  0  0  0  0  0
  -10.5247   17.8781   28.7933 C   0  0  0  0  0  0  0  0  0  0  0  0
  -10.7531   16.4118   29.0716 C   0  0  0  0  0  0  0  0  0  0  0  0
  -10.0261   19.3939   25.9608 H   0  0  0  0  0  0  0  0  0  0  0  0
  -11.6733   19.4483   28.9468 H   0  0  0  0  0  0  0  0  0  0  0  0
   -8.0678   15.3900   25.7805 C   0  0  0  0  0  0  0  0  0  0  0  0
   -8.7502   15.7986   24.5001 C   0  0  0  0  0  0  0  0  0  0  0  0
   -7.9670   16.3509   23.4748 C   0  0  0  0  0  0  0  0  0  0  0  0
   -8.5859   16.7802   22.2812 C   0  0  0  0  0  0  0  0  0  0  0  0
   -9.9839   16.6561   22.1139 C   0  0  0  0  0  0  0  0  0  0  0  0
  -10.7761   16.0987   23.1444 C   0  0  0  0  0  0  0  0  0  0  0  0
  -10.1528   15.6630   24.3353 C   0  0  0  0  0  0  0  0  0  0  0  0
   -7.7621   17.3259   21.1576 C   0  0  0  0  0  0  0  0  0  0  0  0
   -8.1634   18.1869   20.3885 O   0  0  0  0  0  0  0  0  0  0  0  0
   -6.5453   16.7551   21.0302 N   0  0  0  0  0  0  0  0  0  0  0  0
   -6.2462   16.1079   21.7091 H   0  0  0  0  0  0  0  0  0  0  0  0
   -5.9994   17.0582   18.6155 N   0  0  0  0  0  0  0  0  0  0  0  0
   -5.6563   17.0735   19.9065 C   0  0  0  0  0  0  0  0  0  0  0  0
   -4.9795   17.4553   17.7785 C   0  0  0  0  0  0  0  0  0  0  0  0
   -4.0571   17.5747   20.0546 S   0  0  0  0  0  0  0  0  0  0  0  0
   -3.7755   17.7962   18.4087 C   0  0  0  0  0  0  0  0  0  0  0  0
   -9.3573   14.6982   30.3292 C   0  0  0  0  0  0  0  0  0  0  0  0
   -9.3705   15.4015   31.6457 C   0  0  0  0  0  0  0  0  0  0  0  0
  -10.2089   14.9036   32.6414 C   0  0  0  0  0  0  0  0  0  0  0  0
  -10.2991   15.5698   33.8760 C   0  0  0  0  0  0  0  0  0  0  0  0
   -9.5377   16.7294   34.1124 C   0  0  0  0  0  0  0  0  0  0  0  0
   -8.6671   17.2347   33.1203 C   0  0  0  0  0  0  0  0  0  0  0  0
   -8.5892   16.5615   31.8833 C   0  0  0  0  0  0  0  0  0  0  0  0
  -11.2217   15.0677   34.9287 C   0  0  0  0  0  0  0  0  0  0  0  0
  -11.7129   15.7931   35.7718 O   0  0  0  0  0  0  0  0  0  0  0  0
  -11.4972   13.7534   34.8729 N   0  0  0  0  0  0  0  0  0  0  0  0
  -11.0741   13.2133   34.1668 H   0  0  0  0  0  0  0  0  0  0  0  0
  -13.7099   12.8267   35.5883 N   0  0  0  0  0  0  0  0  0  0  0  0
  -12.4076   13.0836   35.8254 C   0  0  0  0  0  0  0  0  0  0  0  0
  -14.3196   12.1575   36.6281 C   0  0  0  0  0  0  0  0  0  0  0  0
  -11.9683   12.4910   37.3576 S   0  0  0  0  0  0  0  0  0  0  0  0
  -13.4914   11.8655   37.7383 C   0  0  0  0  0  0  0  0  0  0  0  0
   -7.6610   18.2032   27.6329 C   0  0  0  0  0  0  0  0  0  0  0  0
   -6.3744   18.0640   26.8459 C   0  0  0  0  0  0  0  0  0  0  0  0
   -5.3244   17.2643   27.3526 C   0  0  0  0  0  0  0  0  0  0  0  0
   -4.1512   17.1048   26.5956 C   0  0  0  0  0  0  0  0  0  0  0  0
   -4.0398   17.7442   25.3426 C   0  0  0  0  0  0  0  0  0  0  0  0
   -5.0800   18.5436   24.8380 C   0  0  0  0  0  0  0  0  0  0  0  0
   -6.2510   18.7003   25.5971 C   0  0  0  0  0  0  0  0  0  0  0  0
  -11.8496   15.7752   28.1759 C   0  0  0  0  0  0  0  0  0  0  0  0
  -12.3900   14.4853   28.7611 C   0  0  0  0  0  0  0  0  0  0  0  0
  -13.1262   14.5196   29.9771 C   0  0  0  0  0  0  0  0  0  0  0  0
  -13.5873   13.3198   30.5560 C   0  0  0  0  0  0  0  0  0  0  0  0
  -13.3047   12.0866   29.9056 C   0  0  0  0  0  0  0  0  0  0  0  0
  -12.5742   12.0567   28.6865 C   0  0  0  0  0  0  0  0  0  0  0  0
  -12.1171   13.2616   28.1166 C   0  0  0  0  0  0  0  0  0  0  0  0
  1  6  2  0  0  0
  2  8  1  0  0  0
  3  9  1  0  0  0
  4  6  1  0  0  0
  4 13  1  0  0  0
  4  7  1  0  0  0
  5  6  1  0  0  0
  5 10  1  0  0  0
  5 29  1  0  0  0
 13 14  1  0  0  0
  7  8  1  0  0  0
  7 45  1  0  0  0
  8  9  1  0  0  0
  9 10  1  0  0  0
 10 52  1  0  0  0
 29 30  1  0  0  0
 45 46  1  0  0  0
 46 47  2  0  0  0
 46 51  1  0  0  0
 47 48  1  0  0  0
 48 49  2  0  0  0
 49 50  1  0  0  0
 50 51  2  0  0  0
 52 53  1  0  0  0
 53 54  2  0  0  0
 53 58  1  0  0  0
 54 55  1  0  0  0
 55 56  2  0  0  0
 56 57  1  0  0  0
 57 58  2  0  0  0
 14 15  2  0  0  0
 14 19  1  0  0  0
 15 16  1  0  0  0
 16 17  2  0  0  0
 16 20  1  0  0  0
 17 18  1  0  0  0
 18 19  2  0  0  0
 20 21  2  0  0  0
 20 22  1  0  0  0
 22 25  1  0  0  0
 24 25  2  0  0  0
 24 26  1  0  0  0
 25 27  1  0  0  0
 26 28  2  0  0  0
 27 28  1  0  0  0
 30 31  2  0  0  0
 30 35  1  0  0  0
 31 32  1  0  0  0
 32 33  2  0  0  0
 32 36  1  0  0  0
 33 34  1  0  0  0
 34 35  2  0  0  0
 36 37  2  0  0  0
 36 38  1  0  0  0
 38 41  1  0  0  0
 40 41  2  0  0  0
 40 42  1  0  0  0
 41 43  1  0  0  0
 42 44  2  0  0  0
 43 44  1  0  0  0
  2 11  1  0  0  0
  3 12  1  0  0  0
 22 23  1  0  0  0
 38 39  1  0  0  0
M  END
> <minimizedAffinity>
-13.71548

$$$$
1BV9_XV6_A_638


 58 64  0  0  0  0  0  0  0  0999 V2000
   -8.2943   14.1358   27.7980 O   0  0  0  0  0  0  0  0  0  0  0  0
  -11.7577   18.4817   29.0526 O   0  0  0  0  0  0  0  0  0  0  0  0
  -10.2240   19.4062   26.8951 O   0  0  0  0  0  0  0  0  0  0  0  0
   -9.7485   15.3834   28.8654 N   0  0  0  0  0  0  0  0  0  0  0  0
   -8.8231   15.9947   26.7666 N   0  0  0  0  0  0  0  0  0  0  0  0
   -8.9572   15.1559   27.7999 C   0  0  0  0  0  0  0  0  0  0  0  0
  -10.8833   16.3437   28.9317 C   0  0  0  0  0  0  0  0  0  0  0  0
  -10.6164   17.8073   28.6257 C   0  0  0  0  0  0  0  0  0  0  0  0
  -10.3360   18.0354   27.1599 C   0  0  0  0  0  0  0  0  0  0  0  0
   -8.9647   17.4747   26.8692 C   0  0  0  0  0  0  0  0  0  0  0  0
  -11.9013   18.3091   29.9962 H   0  0  0  0  0  0  0  0  0  0  0  0
  -11.0763   19.8384   27.0615 H   0  0  0  0  0  0  0  0  0  0  0  0
   -9.5069   14.5460   30.0653 C   0  0  0  0  0  0  0  0  0  0  0  0
   -9.4724   15.3044   31.3674 C   0  0  0  0  0  0  0  0  0  0  0  0
  -10.3577   14.9196   32.3861 C   0  0  0  0  0  0  0  0  0  0  0  0
  -10.3756   15.6384   33.6005 C   0  0  0  0  0  0  0  0  0  0  0  0
   -9.5094   16.7382   33.7952 C   0  0  0  0  0  0  0  0  0  0  0  0
   -8.6149   17.1281   32.7715 C   0  0  0  0  0  0  0  0  0  0  0  0
   -8.5940   16.4019   31.5595 C   0  0  0  0  0  0  0  0  0  0  0  0
  -11.2771   15.2131   34.7164 C   0  0  0  0  0  0  0  0  0  0  0  0
  -11.6300   15.9617   35.6158 O   0  0  0  0  0  0  0  0  0  0  0  0
  -11.6376   13.9126   34.6771 N   0  0  0  0  0  0  0  0  0  0  0  0
  -11.3751   13.3660   33.9015 H   0  0  0  0  0  0  0  0  0  0  0  0
  -13.7077   12.9777   35.7069 N   0  0  0  0  0  0  0  0  0  0  0  0
  -12.4103   13.2919   35.7595 C   0  0  0  0  0  0  0  0  0  0  0  0
  -14.1611   12.3529   36.8482 C   0  0  0  0  0  0  0  0  0  0  0  0
  -11.7776   12.8106   37.2423 S   0  0  0  0  0  0  0  0  0  0  0  0
  -13.2058   12.1610   37.8551 C   0  0  0  0  0  0  0  0  0  0  0  0
   -8.2250   15.4317   25.5481 C   0  0  0  0  0  0  0  0  0  0  0  0
   -8.8567   15.7968   24.2459 C   0  0  0  0  0  0  0  0  0  0  0  0
   -8.0249   16.2465   23.2222 C   0  0  0  0  0  0  0  0  0  0  0  0
   -8.5826   16.6589   21.9995 C   0  0  0  0  0  0  0  0  0  0  0  0
   -9.9752   16.6079   21.8032 C   0  0  0  0  0  0  0  0  0  0  0  0
  -10.8301   16.1343   22.8242 C   0  0  0  0  0  0  0  0  0  0  0  0
  -10.2600   15.7288   24.0488 C   0  0  0  0  0  0  0  0  0  0  0  0
   -7.7051   17.1779   20.9169 C   0  0  0  0  0  0  0  0  0  0  0  0
   -7.9860   18.1608   20.2585 O   0  0  0  0  0  0  0  0  0  0  0  0
   -6.5616   16.4977   20.7276 N   0  0  0  0  0  0  0  0  0  0  0  0
   -6.3830   15.7107   21.2916 H   0  0  0  0  0  0  0  0  0  0  0  0
   -5.8378   17.1054   18.4094 N   0  0  0  0  0  0  0  0  0  0  0  0
   -5.5603   16.8796   19.7096 C   0  0  0  0  0  0  0  0  0  0  0  0
   -4.7279   17.4850   17.6851 C   0  0  0  0  0  0  0  0  0  0  0  0
   -3.9050   17.1359   20.0031 S   0  0  0  0  0  0  0  0  0  0  0  0
   -3.5182   17.5673   18.4155 C   0  0  0  0  0  0  0  0  0  0  0  0
  -12.1116   15.7253   28.2390 C   0  0  0  0  0  0  0  0  0  0  0  0
  -12.5380   14.4124   28.8621 C   0  0  0  0  0  0  0  0  0  0  0  0
  -12.2476   13.1955   28.2036 C   0  0  0  0  0  0  0  0  0  0  0  0
  -12.6075   11.9798   28.8095 C   0  0  0  0  0  0  0  0  0  0  0  0
  -13.2520   11.9924   30.0647 C   0  0  0  0  0  0  0  0  0  0  0  0
  -13.5463   13.2006   30.7201 C   0  0  0  0  0  0  0  0  0  0  0  0
  -13.1848   14.4135   30.1117 C   0  0  0  0  0  0  0  0  0  0  0  0
   -7.8535   18.0490   27.7885 C   0  0  0  0  0  0  0  0  0  0  0  0
   -6.4724   17.8964   27.1822 C   0  0  0  0  0  0  0  0  0  0  0  0
   -6.1745   18.5294   25.9443 C   0  0  0  0  0  0  0  0  0  0  0  0
   -4.9103   18.3500   25.3470 C   0  0  0  0  0  0  0  0  0  0  0  0
   -3.9480   17.5317   26.0012 C   0  0  0  0  0  0  0  0  0  0  0  0
   -4.2469   16.9058   27.2420 C   0  0  0  0  0  0  0  0  0  0  0  0
   -5.5138   17.0909   27.8302 C   0  0  0  0  0  0  0  0  0  0  0  0
  1  6  2  0  0  0
  2  8  1  0  0  0
  3  9  1  0  0  0
  4  6  1  0  0  0
  4 13  1  0  0  0
  4  7  1  0  0  0
  5  6  1  0  0  0
  5 10  1  0  0  0
  5 29  1  0  0  0
 13 14  1  0  0  0
  7  8  1  0  0  0
  7 45  1  0  0  0
  8  9  1  0  0  0
  9 10  1  0  0  0
 10 52  1  0  0  0
 29 30  1  0  0  0
 45 46  1  0  0  0
 46 47  2  0  0  0
 46 51  1  0  0  0
 47 48  1  0  0  0
 48 49  2  0  0  0
 49 50  1  0  0  0
 50 51  2  0  0  0
 52 53  1  0  0  0
 53 54  2  0  0  0
 53 58  1  0  0  0
 54 55  1  0  0  0
 55 56  2  0  0  0
 56 57  1  0  0  0
 57 58  2  0  0  0
 14 15  2  0  0  0
 14 19  1  0  0  0
 15 16  1  0  0  0
 16 17  2  0  0  0
 16 20  1  0  0  0
 17 18  1  0  0  0
 18 19  2  0  0  0
 20 21  2  0  0  0
 20 22  1  0  0  0
 22 25  1  0  0  0
 24 25  2  0  0  0
 24 26  1  0  0  0
 25 27  1  0  0  0
 26 28  2  0  0  0
 27 28  1  0  0  0
 30 31  2  0  0  0
 30 35  1  0  0  0
 31 32  1  0  0  0
 32 33  2  0  0  0
 32 36  1  0  0  0
 33 34  1  0  0  0
 34 35  2  0  0  0
 36 37  2  0  0  0
 36 38  1  0  0  0
 38 41  1  0  0  0
 40 41  2  0  0  0
 40 42  1  0  0  0
 41 43  1  0  0  0
 42 44  2  0  0  0
 43 44  1  0  0  0
  2 11  1  0  0  0
  3 12  1  0  0  0
 22 23  1  0  0  0
 38 39  1  0  0  0
M  END
> <minimizedAffinity>
-13.66336

$$$$
1BV9_XV6_A_638


 58 64  0  0  0  0  0  0  0  0999 V2000
  -11.9788   18.0101   28.5520 O   0  0  0  0  0  0  0  0  0  0  0  0
   -7.4797   14.5767   27.8998 O   0  0  0  0  0  0  0  0  0  0  0  0
   -8.5609   13.8533   30.3837 O   0  0  0  0  0  0  0  0  0  0  0  0
  -10.1256   17.1551   27.7489 N   0  0  0  0  0  0  0  0  0  0  0  0
  -11.2888   16.2080   29.5888 N   0  0  0  0  0  0  0  0  0  0  0  0
  -11.1486   17.1238   28.6240 C   0  0  0  0  0  0  0  0  0  0  0  0
   -9.2164   16.0254   27.4148 C   0  0  0  0  0  0  0  0  0  0  0  0
   -8.4360   15.3634   28.5372 C   0  0  0  0  0  0  0  0  0  0  0  0
   -9.3294   14.5504   29.4427 C   0  0  0  0  0  0  0  0  0  0  0  0
  -10.1489   15.5206   30.2591 C   0  0  0  0  0  0  0  0  0  0  0  0
   -6.9288   15.1357   27.3299 H   0  0  0  0  0  0  0  0  0  0  0  0
   -8.0022   13.2044   29.9279 H   0  0  0  0  0  0  0  0  0  0  0  0
   -9.9309   18.4184   26.9969 C   0  0  0  0  0  0  0  0  0  0  0  0
   -8.5152   18.6722   26.5457 C   0  0  0  0  0  0  0  0  0  0  0  0
   -8.2140   18.5246   25.1830 C   0  0  0  0  0  0  0  0  0  0  0  0
   -6.8880   18.7159   24.7390 C   0  0  0  0  0  0  0  0  0  0  0  0
   -5.8670   19.0548   25.6559 C   0  0  0  0  0  0  0  0  0  0  0  0
   -6.1671   19.2058   27.0297 C   0  0  0  0  0  0  0  0  0  0  0  0
   -7.4970   19.0209   27.4701 C   0  0  0  0  0  0  0  0  0  0  0  0
   -6.5565   18.6115   23.2836 C   0  0  0  0  0  0  0  0  0  0  0  0
   -7.2031   19.1662   22.4072 O   0  0  0  0  0  0  0  0  0  0  0  0
   -5.5042   17.8120   23.0075 N   0  0  0  0  0  0  0  0  0  0  0  0
   -4.9810   17.4348   23.7513 H   0  0  0  0  0  0  0  0  0  0  0  0
   -5.9040   16.9060   20.7185 N   0  0  0  0  0  0  0  0  0  0  0  0
   -5.1193   17.4903   21.6282 C   0  0  0  0  0  0  0  0  0  0  0  0
   -5.3015   16.7754   19.4863 C   0  0  0  0  0  0  0  0  0  0  0  0
   -3.6329   17.8586   20.9313 S   0  0  0  0  0  0  0  0  0  0  0  0
   -3.9907   17.2621   19.3972 C   0  0  0  0  0  0  0  0  0  0  0  0
  -12.6228   16.1056   30.1964 C   0  0  0  0  0  0  0  0  0  0  0  0
  -13.0830   14.7467   30.6084 C   0  0  0  0  0  0  0  0  0  0  0  0
  -13.1272   14.4598   31.9714 C   0  0  0  0  0  0  0  0  0  0  0  0
  -13.4960   13.1737   32.4028 C   0  0  0  0  0  0  0  0  0  0  0  0
  -13.8309   12.1806   31.4637 C   0  0  0  0  0  0  0  0  0  0  0  0
  -13.8112   12.4622   30.0788 C   0  0  0  0  0  0  0  0  0  0  0  0
  -13.4340   13.7542   29.6574 C   0  0  0  0  0  0  0  0  0  0  0  0
  -13.5065   12.8483   33.8538 C   0  0  0  0  0  0  0  0  0  0  0  0
  -14.5030   12.9519   34.5428 O   0  0  0  0  0  0  0  0  0  0  0  0
  -12.3392   12.4070   34.3528 N   0  0  0  0  0  0  0  0  0  0  0  0
  -11.5646   12.3394   33.7490 H   0  0  0  0  0  0  0  0  0  0  0  0
  -12.1574   10.7477   36.2184 N   0  0  0  0  0  0  0  0  0  0  0  0
  -12.1678   12.0189   35.7688 C   0  0  0  0  0  0  0  0  0  0  0  0
  -11.9419   10.6643   37.5776 C   0  0  0  0  0  0  0  0  0  0  0  0
  -11.9180   13.0945   37.0620 S   0  0  0  0  0  0  0  0  0  0  0  0
  -11.7751   11.8995   38.2485 C   0  0  0  0  0  0  0  0  0  0  0  0
   -9.9305   15.0717   26.4393 C   0  0  0  0  0  0  0  0  0  0  0  0
   -9.6881   15.4275   24.9873 C   0  0  0  0  0  0  0  0  0  0  0  0
   -8.4595   15.0868   24.3765 C   0  0  0  0  0  0  0  0  0  0  0  0
   -8.2594   15.3810   23.0170 C   0  0  0  0  0  0  0  0  0  0  0  0
   -9.2871   16.0108   22.2832 C   0  0  0  0  0  0  0  0  0  0  0  0
  -10.5082   16.3550   22.8885 C   0  0  0  0  0  0  0  0  0  0  0  0
  -10.7046   16.0591   24.2471 C   0  0  0  0  0  0  0  0  0  0  0  0
   -9.2909   16.5555   31.0354 C   0  0  0  0  0  0  0  0  0  0  0  0
   -9.4192   16.3948   32.5374 C   0  0  0  0  0  0  0  0  0  0  0  0
  -10.3429   15.4523   33.0670 C   0  0  0  0  0  0  0  0  0  0  0  0
  -10.5068   15.3334   34.4620 C   0  0  0  0  0  0  0  0  0  0  0  0
   -9.7372   16.1663   35.3208 C   0  0  0  0  0  0  0  0  0  0  0  0
   -8.8099   17.1028   34.7880 C   0  0  0  0  0  0  0  0  0  0  0  0
   -8.6541   17.2144   33.3921 C   0  0  0  0  0  0  0  0  0  0  0  0
  1  6  2  0  0  0
  2  8  1  0  0  0
  3  9  1  0  0  0
  4  6  1  0  0  0
  4 13  1  0  0  0
  4  7  1  0  0  0
  5  6  1  0  0  0
  5 10  1  0  0  0
  5 29  1  0  0  0
 13 14  1  0  0  0
  7  8  1  0  0  0
  7 45  1  0  0  0
  8  9  1  0  0  0
  9 10  1  0  0  0
 10 52  1  0  0  0
 29 30  1  0  0  0
 45 46  1  0  0  0
 46 47  2  0  0  0
 46 51  1  0  0  0
 47 48  1  0  0  0
 48 49  2  0  0  0
 49 50  1  0  0  0
 50 51  2  0  0  0
 52 53  1  0  0  0
 53 54  2  0  0  0
 53 58  1  0  0  0
 54 55  1  0  0  0
 55 56  2  0  0  0
 56 57  1  0  0  0
 57 58  2  0  0  0
 14 15  2  0  0  0
 14 19  1  0  0  0
 15 16  1  0  0  0
 16 17  2  0  0  0
 16 20  1  0  0  0
 17 18  1  0  0  0
 18 19  2  0  0  0
 20 21  2  0  0  0
 20 22  1  0  0  0
 22 25  1  0  0  0
 24 25  2  0  0  0
 24 26  1  0  0  0
 25 27  1  0  0  0
 26 28  2  0  0  0
 27 28  1  0  0  0
 30 31  2  0  0  0
 30 35  1  0  0  0
 31 32  1  0  0  0
 32 33  2  0  0  0
 32 36  1  0  0  0
 33 34  1  0  0  0
 34 35  2  0  0  0
 36 37  2  0  0  0
 36 38  1  0  0  0
 38 41  1  0  0  0
 40 41  2  0  0  0
 40 42  1  0  0  0
 41 43  1  0  0  0
 42 44  2  0  0  0
 43 44  1  0  0  0
  2 11  1  0  0  0
  3 12  1  0  0  0
 22 23  1  0  0  0
 38 39  1  0  0  0
M  END
> <minimizedAffinity>
-10.71899

$$$$
