5HVA_DUP_C_201
  RCSB PDB12061718043D
Coordinates from PDB:5HVA:C:201 Model:1 without hydrogens
 28 29  0  0  0  0            999 V2000
   30.7540 -182.6880   31.8510   O 0  0  0  0  0  0  0  0  0  0  0  0
   30.2300 -183.0560   30.8320   C 0  0  0  0  0  0  0  0  0  0  0  0
   30.9730 -183.4070   29.7500   C 0  0  0  0  0  0  0  0  0  0  0  0
   30.3620 -183.8130   28.5980   C 0  0  0  0  0  0  0  0  0  0  0  0
   28.9060 -183.1260   30.7480   N 0  0  0  0  0  0  0  0  0  0  0  0
   28.2980 -183.5380   29.6110   C 0  0  0  0  0  0  0  0  0  0  0  0
   27.1140 -183.5980   29.5750   O 0  0  0  0  0  0  0  0  0  0  0  0
   29.0340 -183.8670   28.5240   N 0  0  0  0  0  0  0  0  0  0  0  0
   28.3950 -184.3480   27.3120   C 0  0  0  0  0  0  0  0  0  0  0  0
   27.7850 -183.4260   26.5760   C 0  0  0  0  0  0  0  0  0  0  0  0
   28.0400 -183.8600   25.0370   C 0  0  0  0  0  0  0  0  0  0  0  0
   27.1870 -184.9460   24.7050   O 0  0  0  0  0  0  0  0  0  0  0  0
   29.5310 -184.9580   26.3820   O 0  0  0  0  0  0  0  0  0  0  0  0
   29.3400 -184.2770   25.0300   C 0  0  0  0  0  0  0  0  0  0  0  0
   30.2630 -183.0720   24.9700   C 0  0  0  0  0  0  0  0  0  0  0  0
   31.5010 -183.4220   25.5040   O 0  0  0  0  0  0  0  0  0  0  0  0
   32.8630 -182.9530   24.7050   P 0  0  0  0  0  0  0  0  0  0  0  0
   32.8550 -181.4550   24.5020   O 0  0  0  0  0  0  0  0  0  0  0  0
   34.0550 -183.4010   25.5150   O 0  0  0  0  0  0  0  0  0  0  0  0
   32.9250 -183.8460   23.2540   N 0  0  0  0  0  0  0  0  0  0  0  0
   32.4010 -183.3110   21.7270   P 0  0  0  0  0  0  0  0  0  0  0  0
   31.5890 -184.4140   21.0880   O 0  0  0  0  0  0  0  0  0  0  0  0
   31.5540 -182.0640   21.7970   O 0  0  0  0  0  0  0  0  0  0  0  0
   33.7550 -183.0420   20.8410   O 0  0  0  0  0  0  0  0  0  0  0  0
   34.5650 -181.6120   20.8830   P 0  0  0  0  0  0  0  0  0  0  0  0
   34.2920 -180.8800   19.5880   O 0  0  0  0  0  0  0  0  0  0  0  0
   36.0510 -181.8350   21.0530   O 0  0  0  0  0  0  0  0  0  0  0  0
   34.0070 -180.7620   21.9910   O 0  0  0  0  0  0  0  0  0  0  0  0
  1  2  2  0  0  0  0
  2  3  1  0  0  0  0
  2  5  1  0  0  0  0
  3  4  2  0  0  0  0
  4  8  1  0  0  0  0
  5  6  1  0  0  0  0
  6  7  2  0  0  0  0
  6  8  1  0  0  0  0
  8  9  1  0  0  0  0
  9 10  1  0  0  0  0
  9 13  1  0  0  0  0
 10 11  1  0  0  0  0
 11 12  1  0  0  0  0
 11 14  1  0  0  0  0
 13 14  1  0  0  0  0
 14 15  1  0  0  0  0
 15 16  1  0  0  0  0
 16 17  1  0  0  0  0
 17 18  2  0  0  0  0
 17 19  1  0  0  0  0
 17 20  1  0  0  0  0
 20 21  1  0  0  0  0
 21 22  2  0  0  0  0
 21 23  1  0  0  0  0
 21 24  1  0  0  0  0
 24 25  1  0  0  0  0
 25 26  2  0  0  0  0
 25 27  1  0  0  0  0
 25 28  1  0  0  0  0
A    1
O4
A    2
C4
A    3
C5
A    4
C6
A    5
N3
A    6
C2
A    7
O2
A    8
N1
A    9
C1'
A   10
C2'
A   11
C3'
A   12
O3'
A   13
O4'
A   14
C4'
A   15
C5'
A   16
O5'
A   17
PA
A   18
O1A
A   19
O2A
A   20
N3A
A   21
PB
A   22
O1B
A   23
O2B
A   24
O3B
A   25
PG
A   26
O2G
A   27
O1G
A   28
O3G
M  END
>  <InstanceId>
5HVA_DUP_C_201

>  <ChemCompId>
DUP

>  <PdbId>
5HVA

>  <ChainId>
C

>  <ResidueNumber>
201

>  <InsertionCode>


>  <Model>
1

>  <AltIds>


>  <MissingHeavyAtoms>
0

>  <ObservedFormula>
C9 N3 O13 P3

>  <Name>
2'-DEOXYURIDINE 5'-ALPHA,BETA-IMIDO-TRIPHOSPHATE

>  <SystematicName>
[(2R,3S,5R)-5-(2,4-dioxopyrimidin-1-yl)-3-hydroxy-oxolan-2-yl]methoxy-N-(hydroxy-phosphonooxy-phosphoryl)phosphonamidic acid

>  <Synonyms>


>  <Type>
NON-POLYMER

>  <Formula>
C9 H16 N3 O13 P3

>  <MolecularWeight>
467.157

>  <ModifiedDate>
2011-06-04

>  <Parent>


>  <OneLetterCode>


>  <SubcomponentList>


>  <AmbiguousFlag>
N

>  <InChI>
InChI=1S/C9H16N3O13P3/c13-5-3-8(12-2-1-7(14)10-9(12)15)24-6(5)4-23-26(16,17)11-27(18,19)25-28(20,21)22/h1-2,5-6,8,13H,3-4H2,(H,10,14,15)(H2,20,21,22)(H3,11,16,17,18,19)/t5-,6+,8+/m0/s1

>  <InChIKey>
XZLLMTSKYYYJLH-SHYZEUOFSA-N

>  <SMILES>
C1[C@@H]([C@H](O[C@H]1N2C=CC(=O)NC2=O)CO[P@](=O)(N[P@@](=O)(O)OP(=O)(O)O)O)O

$$$$
