1GNM_U0E_A_100


 54 54  0  0  0  0  0  0  0  0999 V2000
  -11.0736   14.9733   32.0782 C   0  0  0  0  0  0  0  0  0  0  0  0
  -11.7755   14.7368   29.7646 C   0  0  0  0  0  0  0  0  0  0  0  0
  -11.4787   15.5131   30.7790 N   0  0  0  0  0  0  0  0  0  0  0  0
  -11.7337   13.5014   29.7944 O   0  0  0  0  0  0  0  0  0  0  0  0
  -11.5298   16.4894   30.6633 H   0  0  0  0  0  0  0  0  0  0  0  0
  -12.1774   15.4749   28.4979 C   0  0  0  0  0  0  0  0  0  0  0  0
  -13.2383   14.6371   27.7771 C   0  0  0  0  0  0  0  0  0  0  0  0
  -14.3752   15.4841   27.1995 C   0  0  0  0  0  0  0  0  0  0  0  0
  -12.6725   13.8512   26.5866 C   0  0  0  0  0  0  0  0  0  0  0  0
  -10.9313   15.6923   27.6243 C   0  0  0  0  0  0  0  0  0  0  0  0
  -10.0766   16.9628   27.7713 C   0  0  0  0  0  0  0  0  0  0  0  0
  -10.8812   17.8968   28.4587 O   0  0  0  0  0  0  0  0  0  0  0  0
  -11.6687   18.0970   27.9290 H   0  0  0  0  0  0  0  0  0  0  0  0
   -9.5377   17.5823   26.4643 C   0  0  0  0  0  0  0  0  0  0  0  0
   -6.7883   19.9968   27.5085 C   0  0  0  0  0  0  0  0  0  0  0  0
   -7.4394   18.6320   27.2842 C   0  0  0  0  0  0  0  0  0  0  0  0
   -8.6301   18.7230   26.7053 N   0  0  0  0  0  0  0  0  0  0  0  0
   -6.8337   17.5945   27.6070 O   0  0  0  0  0  0  0  0  0  0  0  0
   -8.9302   19.6147   26.4156 H   0  0  0  0  0  0  0  0  0  0  0  0
   -8.7331   16.4731   25.7351 C   0  0  0  0  0  0  0  0  0  0  0  0
   -9.0013   16.5411   24.2154 C   0  0  0  0  0  0  0  0  0  0  0  0
   -7.8425   17.2805   23.5430 C   0  0  0  0  0  0  0  0  0  0  0  0
   -8.1065   17.4043   22.0432 C   0  0  0  0  0  0  0  0  0  0  0  0
   -8.2752   16.0231   21.4039 C   0  0  0  0  0  0  0  0  0  0  0  0
   -9.4161   15.2492   22.0747 C   0  0  0  0  0  0  0  0  0  0  0  0
   -9.1825   15.1446   23.5880 C   0  0  0  0  0  0  0  0  0  0  0  0
  -12.3159   14.6412   32.9031 C   0  0  0  0  0  0  0  0  0  0  0  0
  -12.4775   13.3481   33.1128 N   0  0  0  0  0  0  0  0  0  0  0  0
  -13.0698   15.5390   33.3091 O   0  0  0  0  0  0  0  0  0  0  0  0
  -11.8057   12.7287   32.7465 H   0  0  0  0  0  0  0  0  0  0  0  0
  -13.6072   12.7847   33.8640 C   0  0  0  0  0  0  0  0  0  0  0  0
  -13.1903   12.5118   35.3118 C   0  0  0  0  0  0  0  0  0  0  0  0
  -11.9084   12.2891   35.6319 N   0  0  0  0  0  0  0  0  0  0  0  0
  -14.0292   12.4917   36.2253 O   0  0  0  0  0  0  0  0  0  0  0  0
  -11.2172   12.2981   34.9309 H   0  0  0  0  0  0  0  0  0  0  0  0
  -11.6577   12.1165   36.5682 H   0  0  0  0  0  0  0  0  0  0  0  0
  -14.0512   11.4675   33.2209 C   0  0  0  0  0  0  0  0  0  0  0  0
  -13.5320   11.2904   31.7917 C   0  0  0  0  0  0  0  0  0  0  0  0
  -14.6220   11.4747   30.7306 C   0  0  0  0  0  0  0  0  0  0  0  0
  -14.7488   12.8645   30.2681 N   0  0  0  0  0  0  0  0  0  0  0  0
  -14.2247   13.1383   29.4809 H   0  0  0  0  0  0  0  0  0  0  0  0
  -15.5338   13.7833   30.8512 C   0  0  0  0  0  0  0  0  0  0  0  0
  -16.7435   13.4555   31.3252 N   0  0  0  0  0  0  0  0  0  0  0  0
  -15.1945   15.0701   31.0076 N   0  0  0  0  0  0  0  0  0  0  0  0
  -17.0675   12.5290   31.2491 H   0  0  0  0  0  0  0  0  0  0  0  0
  -14.3213   15.3916   30.6860 H   0  0  0  0  0  0  0  0  0  0  0  0
  -15.8184   15.6942   31.4442 H   0  0  0  0  0  0  0  0  0  0  0  0
  -10.2004   15.9893   32.8123 C   0  0  0  0  0  0  0  0  0  0  0  0
   -9.2299   15.3375   33.7941 C   0  0  0  0  0  0  0  0  0  0  0  0
   -9.5832   15.6389   35.2475 C   0  0  0  0  0  0  0  0  0  0  0  0
  -10.8459   15.6607   35.6305 N   0  0  0  0  0  0  0  0  0  0  0  0
   -8.6878   15.8636   36.0609 O   0  0  0  0  0  0  0  0  0  0  0  0
  -11.5612   15.4807   34.9784 H   0  0  0  0  0  0  0  0  0  0  0  0
  -11.0726   15.8570   36.5682 H   0  0  0  0  0  0  0  0  0  0  0  0
 15 16  1  0  0  0
 16 17  1  0  0  0
 16 18  2  0  0  0
 14 20  1  0  0  0
 14 11  1  0  0  0
 14 17  1  0  0  0
 20 21  1  0  0  0
 21 22  1  0  0  0
 21 26  1  0  0  0
 22 23  1  0  0  0
 23 24  1  0  0  0
 24 25  1  0  0  0
 25 26  1  0  0  0
 11 10  1  0  0  0
 11 12  1  0  0  0
 10  6  1  0  0  0
  6  7  1  0  0  0
  6  2  1  0  0  0
  7  8  1  0  0  0
  7  9  1  0  0  0
  2  3  1  0  0  0
  2  4  2  0  0  0
  1 48  1  0  0  0
  1 27  1  0  0  0
  1  3  1  0  0  0
 48 49  1  0  0  0
 49 50  1  0  0  0
 50 51  1  0  0  0
 50 52  2  0  0  0
 27 28  1  0  0  0
 27 29  2  0  0  0
 31 32  1  0  0  0
 31 37  1  0  0  0
 31 28  1  0  0  0
 32 33  1  0  0  0
 32 34  2  0  0  0
 37 38  1  0  0  0
 38 39  1  0  0  0
 39 40  1  0  0  0
 42 40  1  0  0  0
 42 43  2  0  0  0
 42 44  1  0  0  0
 17 19  1  0  0  0
  3  5  1  0  0  0
 51 53  1  0  0  0
 51 54  1  0  0  0
 28 30  1  0  0  0
 33 35  1  0  0  0
 33 36  1  0  0  0
 40 41  1  0  0  0
 43 45  1  0  0  0
 44 46  1  0  0  0
 44 47  1  0  0  0
 12 13  1  0  0  0
M  END
> <minimizedAffinity>
-9.00020

$$$$
1GNM_U0E_A_100


 54 54  0  0  0  0  0  0  0  0999 V2000
   -8.6085   15.3000   24.2718 C   0  0  0  0  0  0  0  0  0  0  0  0
   -9.3302   14.8080   26.5386 C   0  0  0  0  0  0  0  0  0  0  0  0
   -9.6250   15.1926   25.3200 N   0  0  0  0  0  0  0  0  0  0  0  0
   -8.1961   14.4926   26.9167 O   0  0  0  0  0  0  0  0  0  0  0  0
  -10.5590   15.4160   25.1032 H   0  0  0  0  0  0  0  0  0  0  0  0
  -10.5136   14.7594   27.4915 C   0  0  0  0  0  0  0  0  0  0  0  0
  -11.7385   14.2857   26.7026 C   0  0  0  0  0  0  0  0  0  0  0  0
  -12.1405   12.8462   27.0342 C   0  0  0  0  0  0  0  0  0  0  0  0
  -12.9901   15.1300   26.9773 C   0  0  0  0  0  0  0  0  0  0  0  0
  -10.7302   16.1554   28.0978 C   0  0  0  0  0  0  0  0  0  0  0  0
  -10.2541   16.4783   29.5245 C   0  0  0  0  0  0  0  0  0  0  0  0
   -8.9010   16.0808   29.5836 O   0  0  0  0  0  0  0  0  0  0  0  0
   -8.8379   15.1250   29.4307 H   0  0  0  0  0  0  0  0  0  0  0  0
  -11.0514   15.8312   30.6769 C   0  0  0  0  0  0  0  0  0  0  0  0
  -13.8024   13.2434   30.2140 C   0  0  0  0  0  0  0  0  0  0  0  0
  -13.0163   14.3329   30.9433 C   0  0  0  0  0  0  0  0  0  0  0  0
  -12.0416   14.8431   30.2013 N   0  0  0  0  0  0  0  0  0  0  0  0
  -13.3441   14.6695   32.0951 O   0  0  0  0  0  0  0  0  0  0  0  0
  -11.9733   14.5414   29.2666 H   0  0  0  0  0  0  0  0  0  0  0  0
  -10.0265   15.0902   31.5768 C   0  0  0  0  0  0  0  0  0  0  0  0
  -10.1391   15.5981   33.0313 C   0  0  0  0  0  0  0  0  0  0  0  0
  -10.0079   14.4057   33.9813 C   0  0  0  0  0  0  0  0  0  0  0  0
  -10.1643   14.8745   35.4270 C   0  0  0  0  0  0  0  0  0  0  0  0
   -9.1092   15.9281   35.7753 C   0  0  0  0  0  0  0  0  0  0  0  0
   -9.2020   17.1260   34.8231 C   0  0  0  0  0  0  0  0  0  0  0  0
   -9.0798   16.6677   33.3635 C   0  0  0  0  0  0  0  0  0  0  0  0
   -8.0017   16.7020   24.2906 C   0  0  0  0  0  0  0  0  0  0  0  0
   -6.6827   16.7047   24.2410 N   0  0  0  0  0  0  0  0  0  0  0  0
   -8.7246   17.7084   24.3516 O   0  0  0  0  0  0  0  0  0  0  0  0
   -6.2163   15.8394   24.1856 H   0  0  0  0  0  0  0  0  0  0  0  0
   -5.8741   17.9308   24.2640 C   0  0  0  0  0  0  0  0  0  0  0  0
   -5.5161   18.3499   22.8356 C   0  0  0  0  0  0  0  0  0  0  0  0
   -5.2857   17.4353   21.8839 N   0  0  0  0  0  0  0  0  0  0  0  0
   -5.4320   19.5474   22.5231 O   0  0  0  0  0  0  0  0  0  0  0  0
   -5.3442   16.4762   22.0983 H   0  0  0  0  0  0  0  0  0  0  0  0
   -5.0579   17.7224   20.9701 H   0  0  0  0  0  0  0  0  0  0  0  0
   -4.5803   17.6832   25.0454 C   0  0  0  0  0  0  0  0  0  0  0  0
   -4.3132   18.7418   26.1185 C   0  0  0  0  0  0  0  0  0  0  0  0
   -5.4493   19.7615   26.2508 C   0  0  0  0  0  0  0  0  0  0  0  0
   -6.3116   19.5176   27.4164 N   0  0  0  0  0  0  0  0  0  0  0  0
   -6.1645   20.0646   28.2216 H   0  0  0  0  0  0  0  0  0  0  0  0
   -7.2866   18.5963   27.4517 C   0  0  0  0  0  0  0  0  0  0  0  0
   -8.5445   18.9106   27.1136 N   0  0  0  0  0  0  0  0  0  0  0  0
   -7.1008   17.3206   27.8171 N   0  0  0  0  0  0  0  0  0  0  0  0
   -8.7641   19.8284   26.8332 H   0  0  0  0  0  0  0  0  0  0  0  0
   -6.2047   17.0094   28.0804 H   0  0  0  0  0  0  0  0  0  0  0  0
   -7.8605   16.6944   27.8223 H   0  0  0  0  0  0  0  0  0  0  0  0
   -9.2353   15.0071   22.9098 C   0  0  0  0  0  0  0  0  0  0  0  0
   -8.5028   15.6939   21.7598 C   0  0  0  0  0  0  0  0  0  0  0  0
   -9.3980   16.6673   20.9989 C   0  0  0  0  0  0  0  0  0  0  0  0
  -10.6416   16.3340   20.7092 N   0  0  0  0  0  0  0  0  0  0  0  0
   -8.9567   17.7628   20.6544 O   0  0  0  0  0  0  0  0  0  0  0  0
  -10.9933   15.4569   20.9856 H   0  0  0  0  0  0  0  0  0  0  0  0
  -11.2177   16.9623   20.2167 H   0  0  0  0  0  0  0  0  0  0  0  0
 15 16  1  0  0  0
 16 17  1  0  0  0
 16 18  2  0  0  0
 14 20  1  0  0  0
 14 11  1  0  0  0
 14 17  1  0  0  0
 20 21  1  0  0  0
 21 22  1  0  0  0
 21 26  1  0  0  0
 22 23  1  0  0  0
 23 24  1  0  0  0
 24 25  1  0  0  0
 25 26  1  0  0  0
 11 10  1  0  0  0
 11 12  1  0  0  0
 10  6  1  0  0  0
  6  7  1  0  0  0
  6  2  1  0  0  0
  7  8  1  0  0  0
  7  9  1  0  0  0
  2  3  1  0  0  0
  2  4  2  0  0  0
  1 48  1  0  0  0
  1 27  1  0  0  0
  1  3  1  0  0  0
 48 49  1  0  0  0
 49 50  1  0  0  0
 50 51  1  0  0  0
 50 52  2  0  0  0
 27 28  1  0  0  0
 27 29  2  0  0  0
 31 32  1  0  0  0
 31 37  1  0  0  0
 31 28  1  0  0  0
 32 33  1  0  0  0
 32 34  2  0  0  0
 37 38  1  0  0  0
 38 39  1  0  0  0
 39 40  1  0  0  0
 42 40  1  0  0  0
 42 43  2  0  0  0
 42 44  1  0  0  0
 17 19  1  0  0  0
  3  5  1  0  0  0
 51 53  1  0  0  0
 51 54  1  0  0  0
 28 30  1  0  0  0
 33 35  1  0  0  0
 33 36  1  0  0  0
 40 41  1  0  0  0
 43 45  1  0  0  0
 44 46  1  0  0  0
 44 47  1  0  0  0
 12 13  1  0  0  0
M  END
> <minimizedAffinity>
-8.99549

$$$$
1GNM_U0E_A_100


 54 54  0  0  0  0  0  0  0  0999 V2000
   -8.1721   15.3265   24.6167 C   0  0  0  0  0  0  0  0  0  0  0  0
   -9.0748   14.7892   26.8071 C   0  0  0  0  0  0  0  0  0  0  0  0
   -9.2577   15.2597   25.5967 N   0  0  0  0  0  0  0  0  0  0  0  0
   -7.9987   14.3532   27.2321 O   0  0  0  0  0  0  0  0  0  0  0  0
  -10.1530   15.5779   25.3390 H   0  0  0  0  0  0  0  0  0  0  0  0
  -10.3153   14.8008   27.6857 C   0  0  0  0  0  0  0  0  0  0  0  0
  -11.5017   14.3319   26.8374 C   0  0  0  0  0  0  0  0  0  0  0  0
  -11.9675   12.9180   27.1944 C   0  0  0  0  0  0  0  0  0  0  0  0
  -12.7418   15.2209   27.0002 C   0  0  0  0  0  0  0  0  0  0  0  0
  -10.5314   16.2208   28.2338 C   0  0  0  0  0  0  0  0  0  0  0  0
  -10.9390   16.4470   29.6997 C   0  0  0  0  0  0  0  0  0  0  0  0
  -10.8280   17.8359   29.9256 O   0  0  0  0  0  0  0  0  0  0  0  0
   -9.9063   18.1112   29.8006 H   0  0  0  0  0  0  0  0  0  0  0  0
  -10.1366   15.6675   30.7632 C   0  0  0  0  0  0  0  0  0  0  0  0
   -9.4629   16.9117   34.2955 C   0  0  0  0  0  0  0  0  0  0  0  0
   -9.2041   16.1004   33.0259 C   0  0  0  0  0  0  0  0  0  0  0  0
  -10.0722   16.3728   32.0599 N   0  0  0  0  0  0  0  0  0  0  0  0
   -8.2397   15.3164   32.9759 O   0  0  0  0  0  0  0  0  0  0  0  0
  -10.7200   17.0970   32.2186 H   0  0  0  0  0  0  0  0  0  0  0  0
  -10.8706   14.3180   30.9857 C   0  0  0  0  0  0  0  0  0  0  0  0
  -12.3960   14.5529   31.0499 C   0  0  0  0  0  0  0  0  0  0  0  0
  -13.0955   13.4805   30.2117 C   0  0  0  0  0  0  0  0  0  0  0  0
  -14.6046   13.7189   30.2188 C   0  0  0  0  0  0  0  0  0  0  0  0
  -15.1534   13.6935   31.6481 C   0  0  0  0  0  0  0  0  0  0  0  0
  -14.4530   14.7437   32.5182 C   0  0  0  0  0  0  0  0  0  0  0  0
  -12.9321   14.5382   32.4952 C   0  0  0  0  0  0  0  0  0  0  0  0
   -7.6876   16.7699   24.4888 C   0  0  0  0  0  0  0  0  0  0  0  0
   -6.4893   16.8760   23.9459 N   0  0  0  0  0  0  0  0  0  0  0  0
   -8.3912   17.7149   24.8777 O   0  0  0  0  0  0  0  0  0  0  0  0
   -6.0288   16.0517   23.6673 H   0  0  0  0  0  0  0  0  0  0  0  0
   -5.8066   18.1595   23.7354 C   0  0  0  0  0  0  0  0  0  0  0  0
   -6.0317   18.6442   22.3005 C   0  0  0  0  0  0  0  0  0  0  0  0
   -5.0645   18.5473   21.3782 N   0  0  0  0  0  0  0  0  0  0  0  0
   -7.1163   19.1374   21.9554 O   0  0  0  0  0  0  0  0  0  0  0  0
   -4.1917   18.1607   21.6190 H   0  0  0  0  0  0  0  0  0  0  0  0
   -5.2268   18.8628   20.4599 H   0  0  0  0  0  0  0  0  0  0  0  0
   -4.3025   17.9905   23.9697 C   0  0  0  0  0  0  0  0  0  0  0  0
   -3.8881   18.2382   25.4224 C   0  0  0  0  0  0  0  0  0  0  0  0
   -4.5382   19.4872   26.0270 C   0  0  0  0  0  0  0  0  0  0  0  0
   -5.2223   19.2230   27.3012 N   0  0  0  0  0  0  0  0  0  0  0  0
   -4.7423   19.4331   28.1347 H   0  0  0  0  0  0  0  0  0  0  0  0
   -6.4597   18.7134   27.3998 C   0  0  0  0  0  0  0  0  0  0  0  0
   -7.5397   19.4895   27.2367 N   0  0  0  0  0  0  0  0  0  0  0  0
   -6.7226   17.4261   27.6628 N   0  0  0  0  0  0  0  0  0  0  0  0
   -7.4319   20.4482   27.0405 H   0  0  0  0  0  0  0  0  0  0  0  0
   -5.9831   16.7899   27.7959 H   0  0  0  0  0  0  0  0  0  0  0  0
   -7.6552   17.1164   27.7228 H   0  0  0  0  0  0  0  0  0  0  0  0
   -8.6599   14.8049   23.2663 C   0  0  0  0  0  0  0  0  0  0  0  0
   -9.8713   15.5689   22.7377 C   0  0  0  0  0  0  0  0  0  0  0  0
   -9.7104   15.9744   21.2756 C   0  0  0  0  0  0  0  0  0  0  0  0
  -10.7520   15.9562   20.4657 N   0  0  0  0  0  0  0  0  0  0  0  0
   -8.6065   16.3163   20.8535 O   0  0  0  0  0  0  0  0  0  0  0  0
  -11.6347   15.6824   20.8050 H   0  0  0  0  0  0  0  0  0  0  0  0
  -10.6465   16.2165   19.5221 H   0  0  0  0  0  0  0  0  0  0  0  0
 15 16  1  0  0  0
 16 17  1  0  0  0
 16 18  2  0  0  0
 14 20  1  0  0  0
 14 11  1  0  0  0
 14 17  1  0  0  0
 20 21  1  0  0  0
 21 22  1  0  0  0
 21 26  1  0  0  0
 22 23  1  0  0  0
 23 24  1  0  0  0
 24 25  1  0  0  0
 25 26  1  0  0  0
 11 10  1  0  0  0
 11 12  1  0  0  0
 10  6  1  0  0  0
  6  7  1  0  0  0
  6  2  1  0  0  0
  7  8  1  0  0  0
  7  9  1  0  0  0
  2  3  1  0  0  0
  2  4  2  0  0  0
  1 48  1  0  0  0
  1 27  1  0  0  0
  1  3  1  0  0  0
 48 49  1  0  0  0
 49 50  1  0  0  0
 50 51  1  0  0  0
 50 52  2  0  0  0
 27 28  1  0  0  0
 27 29  2  0  0  0
 31 32  1  0  0  0
 31 37  1  0  0  0
 31 28  1  0  0  0
 32 33  1  0  0  0
 32 34  2  0  0  0
 37 38  1  0  0  0
 38 39  1  0  0  0
 39 40  1  0  0  0
 42 40  1  0  0  0
 42 43  2  0  0  0
 42 44  1  0  0  0
 17 19  1  0  0  0
  3  5  1  0  0  0
 51 53  1  0  0  0
 51 54  1  0  0  0
 28 30  1  0  0  0
 33 35  1  0  0  0
 33 36  1  0  0  0
 40 41  1  0  0  0
 43 45  1  0  0  0
 44 46  1  0  0  0
 44 47  1  0  0  0
 12 13  1  0  0  0
M  END
> <minimizedAffinity>
-8.77890

$$$$
1GNM_U0E_A_100


 54 54  0  0  0  0  0  0  0  0999 V2000
   -8.3641   15.3543   24.6307 C   0  0  0  0  0  0  0  0  0  0  0  0
   -9.1621   14.6826   26.8247 C   0  0  0  0  0  0  0  0  0  0  0  0
   -9.3655   15.3227   25.6983 N   0  0  0  0  0  0  0  0  0  0  0  0
   -8.1363   14.0458   27.0911 O   0  0  0  0  0  0  0  0  0  0  0  0
  -10.2182   15.7968   25.5665 H   0  0  0  0  0  0  0  0  0  0  0  0
  -10.3117   14.7632   27.8159 C   0  0  0  0  0  0  0  0  0  0  0  0
  -11.3058   13.6467   27.4809 C   0  0  0  0  0  0  0  0  0  0  0  0
  -11.9392   13.0195   28.7255 C   0  0  0  0  0  0  0  0  0  0  0  0
  -12.4846   14.1319   26.6265 C   0  0  0  0  0  0  0  0  0  0  0  0
  -10.9617   16.1532   27.7221 C   0  0  0  0  0  0  0  0  0  0  0  0
  -10.2321   17.4022   28.2455 C   0  0  0  0  0  0  0  0  0  0  0  0
  -10.1751   18.3038   27.1610 O   0  0  0  0  0  0  0  0  0  0  0  0
   -9.6618   17.9089   26.4388 H   0  0  0  0  0  0  0  0  0  0  0  0
   -8.8205   17.1785   28.8283 C   0  0  0  0  0  0  0  0  0  0  0  0
   -5.7096   18.6944   27.2460 C   0  0  0  0  0  0  0  0  0  0  0  0
   -6.6012   17.5742   27.7818 C   0  0  0  0  0  0  0  0  0  0  0  0
   -7.7927   18.0110   28.1699 N   0  0  0  0  0  0  0  0  0  0  0  0
   -6.1890   16.4006   27.7855 O   0  0  0  0  0  0  0  0  0  0  0  0
   -8.0072   18.9580   28.0073 H   0  0  0  0  0  0  0  0  0  0  0  0
   -8.8793   17.5821   30.3260 C   0  0  0  0  0  0  0  0  0  0  0  0
   -9.0683   16.3247   31.2031 C   0  0  0  0  0  0  0  0  0  0  0  0
   -8.1693   16.4439   32.4357 C   0  0  0  0  0  0  0  0  0  0  0  0
   -8.3010   15.1890   33.2972 C   0  0  0  0  0  0  0  0  0  0  0  0
   -9.7527   14.9804   33.7376 C   0  0  0  0  0  0  0  0  0  0  0  0
  -10.6809   14.8808   32.5215 C   0  0  0  0  0  0  0  0  0  0  0  0
  -10.5361   16.1199   31.6275 C   0  0  0  0  0  0  0  0  0  0  0  0
   -7.7699   16.7582   24.5293 C   0  0  0  0  0  0  0  0  0  0  0  0
   -6.6365   16.8018   23.8542 N   0  0  0  0  0  0  0  0  0  0  0  0
   -8.3369   17.7294   25.0531 O   0  0  0  0  0  0  0  0  0  0  0  0
   -6.2866   15.9631   23.4756 H   0  0  0  0  0  0  0  0  0  0  0  0
   -5.8699   18.0360   23.6380 C   0  0  0  0  0  0  0  0  0  0  0  0
   -6.1737   18.6057   22.2496 C   0  0  0  0  0  0  0  0  0  0  0  0
   -5.3315   18.4161   21.2249 N   0  0  0  0  0  0  0  0  0  0  0  0
   -7.2086   19.2561   22.0383 O   0  0  0  0  0  0  0  0  0  0  0  0
   -4.5010   17.9044   21.3585 H   0  0  0  0  0  0  0  0  0  0  0  0
   -5.5431   18.7884   20.3384 H   0  0  0  0  0  0  0  0  0  0  0  0
   -4.3706   17.7375   23.7324 C   0  0  0  0  0  0  0  0  0  0  0  0
   -3.5531   18.9211   24.2560 C   0  0  0  0  0  0  0  0  0  0  0  0
   -2.1289   18.5317   24.6660 C   0  0  0  0  0  0  0  0  0  0  0  0
   -1.2216   18.3710   23.5203 N   0  0  0  0  0  0  0  0  0  0  0  0
   -1.0093   17.4562   23.2247 H   0  0  0  0  0  0  0  0  0  0  0  0
   -0.6646   19.3927   22.8521 C   0  0  0  0  0  0  0  0  0  0  0  0
   -0.4985   20.5881   23.4342 N   0  0  0  0  0  0  0  0  0  0  0  0
   -0.2384   19.3168   21.5840 N   0  0  0  0  0  0  0  0  0  0  0  0
   -0.7858   20.7262   24.3656 H   0  0  0  0  0  0  0  0  0  0  0  0
   -0.3248   18.4723   21.0854 H   0  0  0  0  0  0  0  0  0  0  0  0
    0.1610   20.1055   21.1508 H   0  0  0  0  0  0  0  0  0  0  0  0
   -9.0064   14.9488   23.3053 C   0  0  0  0  0  0  0  0  0  0  0  0
   -9.9903   15.9910   22.7796 C   0  0  0  0  0  0  0  0  0  0  0  0
   -9.8278   16.2415   21.2833 C   0  0  0  0  0  0  0  0  0  0  0  0
   -9.1410   17.2850   20.8581 N   0  0  0  0  0  0  0  0  0  0  0  0
  -10.3406   15.4691   20.4745 O   0  0  0  0  0  0  0  0  0  0  0  0
   -8.7313   17.9021   21.5067 H   0  0  0  0  0  0  0  0  0  0  0  0
   -9.0383   17.4464   19.8924 H   0  0  0  0  0  0  0  0  0  0  0  0
 15 16  1  0  0  0
 16 17  1  0  0  0
 16 18  2  0  0  0
 14 20  1  0  0  0
 14 11  1  0  0  0
 14 17  1  0  0  0
 20 21  1  0  0  0
 21 22  1  0  0  0
 21 26  1  0  0  0
 22 23  1  0  0  0
 23 24  1  0  0  0
 24 25  1  0  0  0
 25 26  1  0  0  0
 11 10  1  0  0  0
 11 12  1  0  0  0
 10  6  1  0  0  0
  6  7  1  0  0  0
  6  2  1  0  0  0
  7  8  1  0  0  0
  7  9  1  0  0  0
  2  3  1  0  0  0
  2  4  2  0  0  0
  1 48  1  0  0  0
  1 27  1  0  0  0
  1  3  1  0  0  0
 48 49  1  0  0  0
 49 50  1  0  0  0
 50 51  1  0  0  0
 50 52  2  0  0  0
 27 28  1  0  0  0
 27 29  2  0  0  0
 31 32  1  0  0  0
 31 37  1  0  0  0
 31 28  1  0  0  0
 32 33  1  0  0  0
 32 34  2  0  0  0
 37 38  1  0  0  0
 38 39  1  0  0  0
 39 40  1  0  0  0
 42 40  1  0  0  0
 42 43  2  0  0  0
 42 44  1  0  0  0
 17 19  1  0  0  0
  3  5  1  0  0  0
 51 53  1  0  0  0
 51 54  1  0  0  0
 28 30  1  0  0  0
 33 35  1  0  0  0
 33 36  1  0  0  0
 40 41  1  0  0  0
 43 45  1  0  0  0
 44 46  1  0  0  0
 44 47  1  0  0  0
 12 13  1  0  0  0
M  END
> <minimizedAffinity>
-8.66897

$$$$
1GNM_U0E_A_100


 54 54  0  0  0  0  0  0  0  0999 V2000
   -9.0880   15.9719   30.5729 C   0  0  0  0  0  0  0  0  0  0  0  0
   -8.2777   15.9309   28.2832 C   0  0  0  0  0  0  0  0  0  0  0  0
   -8.5451   16.6104   29.3725 N   0  0  0  0  0  0  0  0  0  0  0  0
   -8.4400   14.7111   28.1630 O   0  0  0  0  0  0  0  0  0  0  0  0
   -8.3755   17.5801   29.3834 H   0  0  0  0  0  0  0  0  0  0  0  0
   -7.7235   16.7624   27.1376 C   0  0  0  0  0  0  0  0  0  0  0  0
   -6.5261   17.5590   27.6658 C   0  0  0  0  0  0  0  0  0  0  0  0
   -5.1819   16.9917   27.2023 C   0  0  0  0  0  0  0  0  0  0  0  0
   -6.5302   19.0222   27.2034 C   0  0  0  0  0  0  0  0  0  0  0  0
   -8.8309   17.6845   26.6022 C   0  0  0  0  0  0  0  0  0  0  0  0
   -9.5089   17.4009   25.2509 C   0  0  0  0  0  0  0  0  0  0  0  0
  -10.4671   16.3945   25.4987 O   0  0  0  0  0  0  0  0  0  0  0  0
  -10.0200   15.5921   25.8104 H   0  0  0  0  0  0  0  0  0  0  0  0
   -8.5801   16.9798   24.0922 C   0  0  0  0  0  0  0  0  0  0  0  0
  -10.0090   15.5084   20.8872 C   0  0  0  0  0  0  0  0  0  0  0  0
   -9.2141   15.5075   22.1930 C   0  0  0  0  0  0  0  0  0  0  0  0
   -9.3215   16.6513   22.8571 N   0  0  0  0  0  0  0  0  0  0  0  0
   -8.5893   14.4890   22.5388 O   0  0  0  0  0  0  0  0  0  0  0  0
   -9.9397   17.3298   22.5013 H   0  0  0  0  0  0  0  0  0  0  0  0
   -7.6550   18.1891   23.7905 C   0  0  0  0  0  0  0  0  0  0  0  0
   -6.3585   17.7022   23.1062 C   0  0  0  0  0  0  0  0  0  0  0  0
   -6.4401   18.0218   21.6119 C   0  0  0  0  0  0  0  0  0  0  0  0
   -5.1892   17.5064   20.9020 C   0  0  0  0  0  0  0  0  0  0  0  0
   -3.9268   18.1386   21.4950 C   0  0  0  0  0  0  0  0  0  0  0  0
   -3.8309   17.8540   22.9984 C   0  0  0  0  0  0  0  0  0  0  0  0
   -5.0956   18.3363   23.7221 C   0  0  0  0  0  0  0  0  0  0  0  0
  -10.5957   15.7828   30.4135 C   0  0  0  0  0  0  0  0  0  0  0  0
  -11.1200   14.9634   31.3055 N   0  0  0  0  0  0  0  0  0  0  0  0
  -11.2188   16.3643   29.5120 O   0  0  0  0  0  0  0  0  0  0  0  0
  -10.5241   14.5665   31.9812 H   0  0  0  0  0  0  0  0  0  0  0  0
  -12.5459   14.6126   31.3431 C   0  0  0  0  0  0  0  0  0  0  0  0
  -13.1979   15.2011   32.5973 C   0  0  0  0  0  0  0  0  0  0  0  0
  -14.5307   15.2543   32.7236 N   0  0  0  0  0  0  0  0  0  0  0  0
  -12.5080   15.6420   33.5292 O   0  0  0  0  0  0  0  0  0  0  0  0
  -15.1075   14.9129   32.0025 H   0  0  0  0  0  0  0  0  0  0  0  0
  -14.9333   15.6349   33.5375 H   0  0  0  0  0  0  0  0  0  0  0  0
  -12.7038   13.0895   31.3724 C   0  0  0  0  0  0  0  0  0  0  0  0
  -12.8098   12.4684   29.9772 C   0  0  0  0  0  0  0  0  0  0  0  0
  -13.8356   13.1733   29.0833 C   0  0  0  0  0  0  0  0  0  0  0  0
  -13.3758   13.3399   27.6968 N   0  0  0  0  0  0  0  0  0  0  0  0
  -13.7088   12.7060   27.0211 H   0  0  0  0  0  0  0  0  0  0  0  0
  -12.5308   14.3015   27.2944 C   0  0  0  0  0  0  0  0  0  0  0  0
  -12.9563   15.5578   27.1048 N   0  0  0  0  0  0  0  0  0  0  0  0
  -11.2282   14.1025   27.0513 N   0  0  0  0  0  0  0  0  0  0  0  0
  -13.9008   15.7867   27.2620 H   0  0  0  0  0  0  0  0  0  0  0  0
  -10.8371   13.2064   27.1672 H   0  0  0  0  0  0  0  0  0  0  0  0
  -10.6622   14.8523   26.7570 H   0  0  0  0  0  0  0  0  0  0  0  0
   -8.7837   16.8304   31.7994 C   0  0  0  0  0  0  0  0  0  0  0  0
   -8.1180   16.0422   32.9247 C   0  0  0  0  0  0  0  0  0  0  0  0
   -9.1128   15.6047   33.9957 C   0  0  0  0  0  0  0  0  0  0  0  0
   -9.6359   16.4961   34.8162 N   0  0  0  0  0  0  0  0  0  0  0  0
   -9.4242   14.4185   34.0934 O   0  0  0  0  0  0  0  0  0  0  0  0
   -9.3857   17.4449   34.7367 H   0  0  0  0  0  0  0  0  0  0  0  0
  -10.2764   16.2122   35.5079 H   0  0  0  0  0  0  0  0  0  0  0  0
 15 16  1  0  0  0
 16 17  1  0  0  0
 16 18  2  0  0  0
 14 20  1  0  0  0
 14 11  1  0  0  0
 14 17  1  0  0  0
 20 21  1  0  0  0
 21 22  1  0  0  0
 21 26  1  0  0  0
 22 23  1  0  0  0
 23 24  1  0  0  0
 24 25  1  0  0  0
 25 26  1  0  0  0
 11 10  1  0  0  0
 11 12  1  0  0  0
 10  6  1  0  0  0
  6  7  1  0  0  0
  6  2  1  0  0  0
  7  8  1  0  0  0
  7  9  1  0  0  0
  2  3  1  0  0  0
  2  4  2  0  0  0
  1 48  1  0  0  0
  1 27  1  0  0  0
  1  3  1  0  0  0
 48 49  1  0  0  0
 49 50  1  0  0  0
 50 51  1  0  0  0
 50 52  2  0  0  0
 27 28  1  0  0  0
 27 29  2  0  0  0
 31 32  1  0  0  0
 31 37  1  0  0  0
 31 28  1  0  0  0
 32 33  1  0  0  0
 32 34  2  0  0  0
 37 38  1  0  0  0
 38 39  1  0  0  0
 39 40  1  0  0  0
 42 40  1  0  0  0
 42 43  2  0  0  0
 42 44  1  0  0  0
 17 19  1  0  0  0
  3  5  1  0  0  0
 51 53  1  0  0  0
 51 54  1  0  0  0
 28 30  1  0  0  0
 33 35  1  0  0  0
 33 36  1  0  0  0
 40 41  1  0  0  0
 43 45  1  0  0  0
 44 46  1  0  0  0
 44 47  1  0  0  0
 12 13  1  0  0  0
M  END
> <minimizedAffinity>
-8.51864

$$$$
1GNM_U0E_A_100


 54 54  0  0  0  0  0  0  0  0999 V2000
   -6.0148   18.3784   24.4675 C   0  0  0  0  0  0  0  0  0  0  0  0
   -7.7762   16.7164   24.2768 C   0  0  0  0  0  0  0  0  0  0  0  0
   -6.4985   17.0012   24.3550 N   0  0  0  0  0  0  0  0  0  0  0  0
   -8.6823   17.5573   24.3015 O   0  0  0  0  0  0  0  0  0  0  0  0
   -5.8441   16.2659   24.3376 H   0  0  0  0  0  0  0  0  0  0  0  0
   -8.0891   15.2332   24.1621 C   0  0  0  0  0  0  0  0  0  0  0  0
   -8.6632   14.9763   22.7652 C   0  0  0  0  0  0  0  0  0  0  0  0
  -10.0537   15.5868   22.5710 C   0  0  0  0  0  0  0  0  0  0  0  0
   -7.7992   15.5705   21.6448 C   0  0  0  0  0  0  0  0  0  0  0  0
   -9.0818   14.8405   25.2682 C   0  0  0  0  0  0  0  0  0  0  0  0
   -8.7233   15.0267   26.7525 C   0  0  0  0  0  0  0  0  0  0  0  0
   -7.8579   13.9611   27.0814 O   0  0  0  0  0  0  0  0  0  0  0  0
   -8.3240   13.1184   26.9651 H   0  0  0  0  0  0  0  0  0  0  0  0
   -9.9060   15.0789   27.7428 C   0  0  0  0  0  0  0  0  0  0  0  0
   -9.5788   16.2020   31.3637 C   0  0  0  0  0  0  0  0  0  0  0  0
  -10.0806   15.3354   30.2087 C   0  0  0  0  0  0  0  0  0  0  0  0
   -9.5335   15.6670   29.0461 N   0  0  0  0  0  0  0  0  0  0  0  0
  -10.8889   14.4157   30.4282 O   0  0  0  0  0  0  0  0  0  0  0  0
   -8.8286   16.3542   29.0524 H   0  0  0  0  0  0  0  0  0  0  0  0
  -10.9944   15.9811   27.1017 C   0  0  0  0  0  0  0  0  0  0  0  0
  -12.3196   15.1976   26.9745 C   0  0  0  0  0  0  0  0  0  0  0  0
  -12.0079   13.6994   26.9714 C   0  0  0  0  0  0  0  0  0  0  0  0
  -13.2991   12.9012   26.7977 C   0  0  0  0  0  0  0  0  0  0  0  0
  -14.2907   13.2180   27.9207 C   0  0  0  0  0  0  0  0  0  0  0  0
  -14.6037   14.7182   27.9626 C   0  0  0  0  0  0  0  0  0  0  0  0
  -13.3129   15.5365   28.1036 C   0  0  0  0  0  0  0  0  0  0  0  0
   -5.0721   18.6852   23.3050 C   0  0  0  0  0  0  0  0  0  0  0  0
   -4.9667   17.6953   22.4383 N   0  0  0  0  0  0  0  0  0  0  0  0
   -4.4835   19.7749   23.2326 O   0  0  0  0  0  0  0  0  0  0  0  0
   -5.4918   16.8780   22.5977 H   0  0  0  0  0  0  0  0  0  0  0  0
   -4.1071   17.7491   21.2484 C   0  0  0  0  0  0  0  0  0  0  0  0
   -4.8520   17.1814   20.0371 C   0  0  0  0  0  0  0  0  0  0  0  0
   -5.7105   17.9356   19.3376 N   0  0  0  0  0  0  0  0  0  0  0  0
   -4.6780   16.0087   19.6720 O   0  0  0  0  0  0  0  0  0  0  0  0
   -5.8717   18.8705   19.6006 H   0  0  0  0  0  0  0  0  0  0  0  0
   -6.1801   17.5549   18.5606 H   0  0  0  0  0  0  0  0  0  0  0  0
   -2.8427   16.9178   21.4851 C   0  0  0  0  0  0  0  0  0  0  0  0
   -1.6044   17.4956   20.7950 C   0  0  0  0  0  0  0  0  0  0  0  0
   -0.8310   18.4811   21.6775 C   0  0  0  0  0  0  0  0  0  0  0  0
   -0.5371   17.9496   23.0164 N   0  0  0  0  0  0  0  0  0  0  0  0
   -0.2331   17.0158   23.0855 H   0  0  0  0  0  0  0  0  0  0  0  0
   -0.6572   18.6572   24.1502 C   0  0  0  0  0  0  0  0  0  0  0  0
   -1.8461   18.7985   24.7518 N   0  0  0  0  0  0  0  0  0  0  0  0
    0.3643   19.2687   24.7651 N   0  0  0  0  0  0  0  0  0  0  0  0
   -2.6475   18.3793   24.3629 H   0  0  0  0  0  0  0  0  0  0  0  0
    1.2713   19.2129   24.3864 H   0  0  0  0  0  0  0  0  0  0  0  0
    0.2078   19.7738   25.5955 H   0  0  0  0  0  0  0  0  0  0  0  0
   -5.2966   18.5683   25.8024 C   0  0  0  0  0  0  0  0  0  0  0  0
   -6.0773   17.9952   26.9826 C   0  0  0  0  0  0  0  0  0  0  0  0
   -7.2824   18.8539   27.3547 C   0  0  0  0  0  0  0  0  0  0  0  0
   -7.1845   20.1699   27.3470 N   0  0  0  0  0  0  0  0  0  0  0  0
   -8.3448   18.3160   27.6638 O   0  0  0  0  0  0  0  0  0  0  0  0
   -6.3337   20.5988   27.0993 H   0  0  0  0  0  0  0  0  0  0  0  0
   -7.9624   20.7227   27.5889 H   0  0  0  0  0  0  0  0  0  0  0  0
 15 16  1  0  0  0
 16 17  1  0  0  0
 16 18  2  0  0  0
 14 20  1  0  0  0
 14 11  1  0  0  0
 14 17  1  0  0  0
 20 21  1  0  0  0
 21 22  1  0  0  0
 21 26  1  0  0  0
 22 23  1  0  0  0
 23 24  1  0  0  0
 24 25  1  0  0  0
 25 26  1  0  0  0
 11 10  1  0  0  0
 11 12  1  0  0  0
 10  6  1  0  0  0
  6  7  1  0  0  0
  6  2  1  0  0  0
  7  8  1  0  0  0
  7  9  1  0  0  0
  2  3  1  0  0  0
  2  4  2  0  0  0
  1 48  1  0  0  0
  1 27  1  0  0  0
  1  3  1  0  0  0
 48 49  1  0  0  0
 49 50  1  0  0  0
 50 51  1  0  0  0
 50 52  2  0  0  0
 27 28  1  0  0  0
 27 29  2  0  0  0
 31 32  1  0  0  0
 31 37  1  0  0  0
 31 28  1  0  0  0
 32 33  1  0  0  0
 32 34  2  0  0  0
 37 38  1  0  0  0
 38 39  1  0  0  0
 39 40  1  0  0  0
 42 40  1  0  0  0
 42 43  2  0  0  0
 42 44  1  0  0  0
 17 19  1  0  0  0
  3  5  1  0  0  0
 51 53  1  0  0  0
 51 54  1  0  0  0
 28 30  1  0  0  0
 33 35  1  0  0  0
 33 36  1  0  0  0
 40 41  1  0  0  0
 43 45  1  0  0  0
 44 46  1  0  0  0
 44 47  1  0  0  0
 12 13  1  0  0  0
M  END
> <minimizedAffinity>
-8.24229

$$$$
1GNM_U0E_A_100


 54 54  0  0  0  0  0  0  0  0999 V2000
   -6.0191   18.4022   24.4832 C   0  0  0  0  0  0  0  0  0  0  0  0
   -7.7657   16.7253   24.2859 C   0  0  0  0  0  0  0  0  0  0  0  0
   -6.4906   17.0210   24.3668 N   0  0  0  0  0  0  0  0  0  0  0  0
   -8.6791   17.5583   24.3112 O   0  0  0  0  0  0  0  0  0  0  0  0
   -5.8298   16.2915   24.3487 H   0  0  0  0  0  0  0  0  0  0  0  0
   -8.0655   15.2398   24.1673 C   0  0  0  0  0  0  0  0  0  0  0  0
   -8.6304   14.9803   22.7671 C   0  0  0  0  0  0  0  0  0  0  0  0
  -10.0136   15.6023   22.5580 C   0  0  0  0  0  0  0  0  0  0  0  0
   -7.7518   15.5603   21.6507 C   0  0  0  0  0  0  0  0  0  0  0  0
   -9.0604   14.8369   25.2679 C   0  0  0  0  0  0  0  0  0  0  0  0
   -8.7073   15.0152   26.7544 C   0  0  0  0  0  0  0  0  0  0  0  0
   -7.8426   13.9483   27.0806 O   0  0  0  0  0  0  0  0  0  0  0  0
   -8.3079   13.1060   26.9581 H   0  0  0  0  0  0  0  0  0  0  0  0
   -9.8936   15.0616   27.7407 C   0  0  0  0  0  0  0  0  0  0  0  0
   -9.5730   16.1264   31.3798 C   0  0  0  0  0  0  0  0  0  0  0  0
  -10.0778   15.2824   30.2094 C   0  0  0  0  0  0  0  0  0  0  0  0
   -9.5216   15.6260   29.0546 N   0  0  0  0  0  0  0  0  0  0  0  0
  -10.8964   14.3678   30.4110 O   0  0  0  0  0  0  0  0  0  0  0  0
   -8.8099   16.3059   29.0747 H   0  0  0  0  0  0  0  0  0  0  0  0
  -10.9721   15.9825   27.1096 C   0  0  0  0  0  0  0  0  0  0  0  0
  -12.3043   15.2133   26.9691 C   0  0  0  0  0  0  0  0  0  0  0  0
  -12.0087   13.7118   26.9689 C   0  0  0  0  0  0  0  0  0  0  0  0
  -13.3066   12.9276   26.7822 C   0  0  0  0  0  0  0  0  0  0  0  0
  -14.3058   13.2549   27.8955 C   0  0  0  0  0  0  0  0  0  0  0  0
  -14.6031   14.7584   27.9345 C   0  0  0  0  0  0  0  0  0  0  0  0
  -13.3050   15.5628   28.0884 C   0  0  0  0  0  0  0  0  0  0  0  0
   -5.0851   18.7229   23.3174 C   0  0  0  0  0  0  0  0  0  0  0  0
   -4.9400   17.7220   22.4693 N   0  0  0  0  0  0  0  0  0  0  0  0
   -4.5376   19.8325   23.2264 O   0  0  0  0  0  0  0  0  0  0  0  0
   -5.4346   16.8886   22.6425 H   0  0  0  0  0  0  0  0  0  0  0  0
   -4.0794   17.7864   21.2806 C   0  0  0  0  0  0  0  0  0  0  0  0
   -4.8006   17.1730   20.0773 C   0  0  0  0  0  0  0  0  0  0  0  0
   -5.6842   17.8846   19.3643 N   0  0  0  0  0  0  0  0  0  0  0  0
   -4.5835   16.0018   19.7311 O   0  0  0  0  0  0  0  0  0  0  0  0
   -5.8796   18.8171   19.6121 H   0  0  0  0  0  0  0  0  0  0  0  0
   -6.1379   17.4749   18.5926 H   0  0  0  0  0  0  0  0  0  0  0  0
   -2.7873   17.0041   21.5339 C   0  0  0  0  0  0  0  0  0  0  0  0
   -1.5538   17.6606   20.9088 C   0  0  0  0  0  0  0  0  0  0  0  0
   -0.7197   16.6897   20.0663 C   0  0  0  0  0  0  0  0  0  0  0  0
   -1.4910   16.0480   18.9916 N   0  0  0  0  0  0  0  0  0  0  0  0
   -2.0052   16.6272   18.3838 H   0  0  0  0  0  0  0  0  0  0  0  0
   -1.5382   14.7227   18.7870 C   0  0  0  0  0  0  0  0  0  0  0  0
   -1.2050   13.8629   19.7592 N   0  0  0  0  0  0  0  0  0  0  0  0
   -1.9085   14.1544   17.6314 N   0  0  0  0  0  0  0  0  0  0  0  0
   -0.9214   14.2008   20.6393 H   0  0  0  0  0  0  0  0  0  0  0  0
   -2.1686   14.7176   16.8670 H   0  0  0  0  0  0  0  0  0  0  0  0
   -1.9203   13.1736   17.5468 H   0  0  0  0  0  0  0  0  0  0  0  0
   -5.2961   18.5926   25.8154 C   0  0  0  0  0  0  0  0  0  0  0  0
   -6.0574   17.9921   26.9946 C   0  0  0  0  0  0  0  0  0  0  0  0
   -7.2679   18.8311   27.3931 C   0  0  0  0  0  0  0  0  0  0  0  0
   -7.1917   20.1485   27.3835 N   0  0  0  0  0  0  0  0  0  0  0  0
   -8.3143   18.2760   27.7255 O   0  0  0  0  0  0  0  0  0  0  0  0
   -6.3536   20.5912   27.1173 H   0  0  0  0  0  0  0  0  0  0  0  0
   -7.9729   20.6886   27.6425 H   0  0  0  0  0  0  0  0  0  0  0  0
 15 16  1  0  0  0
 16 17  1  0  0  0
 16 18  2  0  0  0
 14 20  1  0  0  0
 14 11  1  0  0  0
 14 17  1  0  0  0
 20 21  1  0  0  0
 21 22  1  0  0  0
 21 26  1  0  0  0
 22 23  1  0  0  0
 23 24  1  0  0  0
 24 25  1  0  0  0
 25 26  1  0  0  0
 11 10  1  0  0  0
 11 12  1  0  0  0
 10  6  1  0  0  0
  6  7  1  0  0  0
  6  2  1  0  0  0
  7  8  1  0  0  0
  7  9  1  0  0  0
  2  3  1  0  0  0
  2  4  2  0  0  0
  1 48  1  0  0  0
  1 27  1  0  0  0
  1  3  1  0  0  0
 48 49  1  0  0  0
 49 50  1  0  0  0
 50 51  1  0  0  0
 50 52  2  0  0  0
 27 28  1  0  0  0
 27 29  2  0  0  0
 31 32  1  0  0  0
 31 37  1  0  0  0
 31 28  1  0  0  0
 32 33  1  0  0  0
 32 34  2  0  0  0
 37 38  1  0  0  0
 38 39  1  0  0  0
 39 40  1  0  0  0
 42 40  1  0  0  0
 42 43  2  0  0  0
 42 44  1  0  0  0
 17 19  1  0  0  0
  3  5  1  0  0  0
 51 53  1  0  0  0
 51 54  1  0  0  0
 28 30  1  0  0  0
 33 35  1  0  0  0
 33 36  1  0  0  0
 40 41  1  0  0  0
 43 45  1  0  0  0
 44 46  1  0  0  0
 44 47  1  0  0  0
 12 13  1  0  0  0
M  END
> <minimizedAffinity>
-8.19676

$$$$
1GNM_U0E_A_100


 54 54  0  0  0  0  0  0  0  0999 V2000
   -5.6843   18.2054   24.2563 C   0  0  0  0  0  0  0  0  0  0  0  0
   -7.7741   16.9703   24.1641 C   0  0  0  0  0  0  0  0  0  0  0  0
   -6.4707   16.9933   24.0203 N   0  0  0  0  0  0  0  0  0  0  0  0
   -8.4554   17.9400   24.5164 O   0  0  0  0  0  0  0  0  0  0  0  0
   -6.0067   16.1698   23.7450 H   0  0  0  0  0  0  0  0  0  0  0  0
   -8.4201   15.6255   23.8727 C   0  0  0  0  0  0  0  0  0  0  0  0
   -8.9414   15.6520   22.4323 C   0  0  0  0  0  0  0  0  0  0  0  0
   -7.8304   15.4796   21.3933 C   0  0  0  0  0  0  0  0  0  0  0  0
   -9.9479   14.5312   22.1397 C   0  0  0  0  0  0  0  0  0  0  0  0
   -9.5511   15.3798   24.8845 C   0  0  0  0  0  0  0  0  0  0  0  0
   -9.2735   15.3961   26.3974 C   0  0  0  0  0  0  0  0  0  0  0  0
   -8.3045   14.3958   26.6270 O   0  0  0  0  0  0  0  0  0  0  0  0
   -8.6656   13.5317   26.3743 H   0  0  0  0  0  0  0  0  0  0  0  0
  -10.4914   15.1815   27.3209 C   0  0  0  0  0  0  0  0  0  0  0  0
  -13.5644   13.1442   26.3798 C   0  0  0  0  0  0  0  0  0  0  0  0
  -12.7855   14.2555   27.0837 C   0  0  0  0  0  0  0  0  0  0  0  0
  -11.5079   14.2889   26.7267 N   0  0  0  0  0  0  0  0  0  0  0  0
  -13.3716   15.0246   27.8663 O   0  0  0  0  0  0  0  0  0  0  0  0
  -11.2163   13.6748   26.0146 H   0  0  0  0  0  0  0  0  0  0  0  0
   -9.9639   14.5128   28.6186 C   0  0  0  0  0  0  0  0  0  0  0  0
  -10.0630   15.5039   29.7993 C   0  0  0  0  0  0  0  0  0  0  0  0
  -10.6004   14.7597   31.0237 C   0  0  0  0  0  0  0  0  0  0  0  0
  -10.7542   15.7296   32.1942 C   0  0  0  0  0  0  0  0  0  0  0  0
   -9.4138   16.3852   32.5381 C   0  0  0  0  0  0  0  0  0  0  0  0
   -8.8395   17.1196   31.3211 C   0  0  0  0  0  0  0  0  0  0  0  0
   -8.7097   16.1661   30.1254 C   0  0  0  0  0  0  0  0  0  0  0  0
   -4.8448   18.5186   23.0188 C   0  0  0  0  0  0  0  0  0  0  0  0
   -4.6392   17.4701   22.2439 N   0  0  0  0  0  0  0  0  0  0  0  0
   -4.4183   19.6650   22.8117 O   0  0  0  0  0  0  0  0  0  0  0  0
   -5.0373   16.6094   22.5084 H   0  0  0  0  0  0  0  0  0  0  0  0
   -3.8476   17.5199   21.0075 C   0  0  0  0  0  0  0  0  0  0  0  0
   -4.7287   17.1665   19.8061 C   0  0  0  0  0  0  0  0  0  0  0  0
   -5.4410   18.1068   19.1706 N   0  0  0  0  0  0  0  0  0  0  0  0
   -4.8038   16.0004   19.3898 O   0  0  0  0  0  0  0  0  0  0  0  0
   -5.4040   19.0423   19.4754 H   0  0  0  0  0  0  0  0  0  0  0  0
   -6.0014   17.8623   18.3990 H   0  0  0  0  0  0  0  0  0  0  0  0
   -2.6962   16.5133   21.0889 C   0  0  0  0  0  0  0  0  0  0  0  0
   -1.4509   17.0776   21.7777 C   0  0  0  0  0  0  0  0  0  0  0  0
   -1.3528   16.6842   23.2555 C   0  0  0  0  0  0  0  0  0  0  0  0
   -1.5005   17.8270   24.1685 N   0  0  0  0  0  0  0  0  0  0  0  0
   -2.0858   17.7183   24.9527 H   0  0  0  0  0  0  0  0  0  0  0  0
   -0.8878   19.0089   24.0004 C   0  0  0  0  0  0  0  0  0  0  0  0
   -1.5436   20.0583   23.4865 N   0  0  0  0  0  0  0  0  0  0  0  0
    0.3929   19.2423   24.3179 N   0  0  0  0  0  0  0  0  0  0  0  0
   -2.4891   19.9690   23.2272 H   0  0  0  0  0  0  0  0  0  0  0  0
    0.9441   18.5222   24.7011 H   0  0  0  0  0  0  0  0  0  0  0  0
    0.7826   20.1339   24.1680 H   0  0  0  0  0  0  0  0  0  0  0  0
   -4.7858   18.0109   25.4764 C   0  0  0  0  0  0  0  0  0  0  0  0
   -5.1381   18.9493   26.6280 C   0  0  0  0  0  0  0  0  0  0  0  0
   -6.5077   18.6450   27.2278 C   0  0  0  0  0  0  0  0  0  0  0  0
   -7.4467   19.5721   27.2366 N   0  0  0  0  0  0  0  0  0  0  0  0
   -6.7333   17.5337   27.7050 O   0  0  0  0  0  0  0  0  0  0  0  0
   -7.2645   20.4609   26.8543 H   0  0  0  0  0  0  0  0  0  0  0  0
   -8.3294   19.3750   27.6255 H   0  0  0  0  0  0  0  0  0  0  0  0
 15 16  1  0  0  0
 16 17  1  0  0  0
 16 18  2  0  0  0
 14 20  1  0  0  0
 14 11  1  0  0  0
 14 17  1  0  0  0
 20 21  1  0  0  0
 21 22  1  0  0  0
 21 26  1  0  0  0
 22 23  1  0  0  0
 23 24  1  0  0  0
 24 25  1  0  0  0
 25 26  1  0  0  0
 11 10  1  0  0  0
 11 12  1  0  0  0
 10  6  1  0  0  0
  6  7  1  0  0  0
  6  2  1  0  0  0
  7  8  1  0  0  0
  7  9  1  0  0  0
  2  3  1  0  0  0
  2  4  2  0  0  0
  1 48  1  0  0  0
  1 27  1  0  0  0
  1  3  1  0  0  0
 48 49  1  0  0  0
 49 50  1  0  0  0
 50 51  1  0  0  0
 50 52  2  0  0  0
 27 28  1  0  0  0
 27 29  2  0  0  0
 31 32  1  0  0  0
 31 37  1  0  0  0
 31 28  1  0  0  0
 32 33  1  0  0  0
 32 34  2  0  0  0
 37 38  1  0  0  0
 38 39  1  0  0  0
 39 40  1  0  0  0
 42 40  1  0  0  0
 42 43  2  0  0  0
 42 44  1  0  0  0
 17 19  1  0  0  0
  3  5  1  0  0  0
 51 53  1  0  0  0
 51 54  1  0  0  0
 28 30  1  0  0  0
 33 35  1  0  0  0
 33 36  1  0  0  0
 40 41  1  0  0  0
 43 45  1  0  0  0
 44 46  1  0  0  0
 44 47  1  0  0  0
 12 13  1  0  0  0
M  END
> <minimizedAffinity>
-8.01180

$$$$
1GNM_U0E_A_100


 54 54  0  0  0  0  0  0  0  0999 V2000
   -8.1240   16.7813   23.6456 C   0  0  0  0  0  0  0  0  0  0  0  0
   -6.0158   17.8749   24.1563 C   0  0  0  0  0  0  0  0  0  0  0  0
   -6.9245   16.9798   24.4612 N   0  0  0  0  0  0  0  0  0  0  0  0
   -6.0691   18.6163   23.1683 O   0  0  0  0  0  0  0  0  0  0  0  0
   -6.7961   16.4240   25.2636 H   0  0  0  0  0  0  0  0  0  0  0  0
   -4.8421   17.9402   25.1202 C   0  0  0  0  0  0  0  0  0  0  0  0
   -5.3949   18.2137   26.5226 C   0  0  0  0  0  0  0  0  0  0  0  0
   -5.1746   17.0462   27.4880 C   0  0  0  0  0  0  0  0  0  0  0  0
   -4.7408   19.4269   27.1972 C   0  0  0  0  0  0  0  0  0  0  0  0
   -3.8749   19.0440   24.6627 C   0  0  0  0  0  0  0  0  0  0  0  0
   -2.4660   18.6966   24.1523 C   0  0  0  0  0  0  0  0  0  0  0  0
   -1.9151   19.9052   23.6747 O   0  0  0  0  0  0  0  0  0  0  0  0
   -2.4525   20.2369   22.9384 H   0  0  0  0  0  0  0  0  0  0  0  0
   -2.3799   17.6044   23.0651 C   0  0  0  0  0  0  0  0  0  0  0  0
   -4.1213   17.7765   19.6861 C   0  0  0  0  0  0  0  0  0  0  0  0
   -3.3684   17.1118   20.8386 C   0  0  0  0  0  0  0  0  0  0  0  0
   -3.1706   17.9341   21.8612 N   0  0  0  0  0  0  0  0  0  0  0  0
   -3.0436   15.9137   20.7589 O   0  0  0  0  0  0  0  0  0  0  0  0
   -3.5802   18.8281   21.8144 H   0  0  0  0  0  0  0  0  0  0  0  0
   -0.8889   17.4977   22.6468 C   0  0  0  0  0  0  0  0  0  0  0  0
   -0.2843   16.1819   23.1846 C   0  0  0  0  0  0  0  0  0  0  0  0
   -1.3855   15.3843   23.8866 C   0  0  0  0  0  0  0  0  0  0  0  0
   -0.8026   14.0984   24.4708 C   0  0  0  0  0  0  0  0  0  0  0  0
   -0.1664   13.2408   23.3733 C   0  0  0  0  0  0  0  0  0  0  0  0
    0.9263   14.0239   22.6363 C   0  0  0  0  0  0  0  0  0  0  0  0
    0.3644   15.3356   22.0712 C   0  0  0  0  0  0  0  0  0  0  0  0
   -9.3302   16.5593   24.5567 C   0  0  0  0  0  0  0  0  0  0  0  0
   -9.0102   16.4323   25.8309 N   0  0  0  0  0  0  0  0  0  0  0  0
  -10.4791   16.5076   24.0914 O   0  0  0  0  0  0  0  0  0  0  0  0
   -8.0608   16.5004   26.0824 H   0  0  0  0  0  0  0  0  0  0  0  0
   -9.9962   16.1946   26.8934 C   0  0  0  0  0  0  0  0  0  0  0  0
   -9.9306   17.3189   27.9308 C   0  0  0  0  0  0  0  0  0  0  0  0
  -11.0174   18.0396   28.2389 N   0  0  0  0  0  0  0  0  0  0  0  0
   -8.8695   17.5897   28.5134 O   0  0  0  0  0  0  0  0  0  0  0  0
  -11.8755   17.8506   27.7950 H   0  0  0  0  0  0  0  0  0  0  0  0
  -10.9577   18.7581   28.9093 H   0  0  0  0  0  0  0  0  0  0  0  0
   -9.6976   14.8629   27.5884 C   0  0  0  0  0  0  0  0  0  0  0  0
  -10.9556   14.1532   28.0956 C   0  0  0  0  0  0  0  0  0  0  0  0
  -11.9477   13.8185   26.9767 C   0  0  0  0  0  0  0  0  0  0  0  0
  -13.3264   14.2242   27.2868 N   0  0  0  0  0  0  0  0  0  0  0  0
  -14.0565   13.8042   26.7771 H   0  0  0  0  0  0  0  0  0  0  0  0
  -13.6523   15.1308   28.2208 C   0  0  0  0  0  0  0  0  0  0  0  0
  -13.5947   16.4433   27.9571 N   0  0  0  0  0  0  0  0  0  0  0  0
  -14.0505   14.8200   29.4619 N   0  0  0  0  0  0  0  0  0  0  0  0
  -13.3111   16.7546   27.0672 H   0  0  0  0  0  0  0  0  0  0  0  0
  -14.1191   13.8766   29.7351 H   0  0  0  0  0  0  0  0  0  0  0  0
  -14.2744   15.5350   30.1006 H   0  0  0  0  0  0  0  0  0  0  0  0
   -7.9275   15.5837   22.7177 C   0  0  0  0  0  0  0  0  0  0  0  0
   -7.8641   15.9791   21.2444 C   0  0  0  0  0  0  0  0  0  0  0  0
   -8.9692   16.9570   20.8567 C   0  0  0  0  0  0  0  0  0  0  0  0
  -10.2341   16.5875   20.9272 N   0  0  0  0  0  0  0  0  0  0  0  0
   -8.6777   18.0901   20.4762 O   0  0  0  0  0  0  0  0  0  0  0  0
  -10.4657   15.6804   21.2318 H   0  0  0  0  0  0  0  0  0  0  0  0
  -10.9461   17.2189   20.6750 H   0  0  0  0  0  0  0  0  0  0  0  0
 15 16  1  0  0  0
 16 17  1  0  0  0
 16 18  2  0  0  0
 14 20  1  0  0  0
 14 11  1  0  0  0
 14 17  1  0  0  0
 20 21  1  0  0  0
 21 22  1  0  0  0
 21 26  1  0  0  0
 22 23  1  0  0  0
 23 24  1  0  0  0
 24 25  1  0  0  0
 25 26  1  0  0  0
 11 10  1  0  0  0
 11 12  1  0  0  0
 10  6  1  0  0  0
  6  7  1  0  0  0
  6  2  1  0  0  0
  7  8  1  0  0  0
  7  9  1  0  0  0
  2  3  1  0  0  0
  2  4  2  0  0  0
  1 48  1  0  0  0
  1 27  1  0  0  0
  1  3  1  0  0  0
 48 49  1  0  0  0
 49 50  1  0  0  0
 50 51  1  0  0  0
 50 52  2  0  0  0
 27 28  1  0  0  0
 27 29  2  0  0  0
 31 32  1  0  0  0
 31 37  1  0  0  0
 31 28  1  0  0  0
 32 33  1  0  0  0
 32 34  2  0  0  0
 37 38  1  0  0  0
 38 39  1  0  0  0
 39 40  1  0  0  0
 42 40  1  0  0  0
 42 43  2  0  0  0
 42 44  1  0  0  0
 17 19  1  0  0  0
  3  5  1  0  0  0
 51 53  1  0  0  0
 51 54  1  0  0  0
 28 30  1  0  0  0
 33 35  1  0  0  0
 33 36  1  0  0  0
 40 41  1  0  0  0
 43 45  1  0  0  0
 44 46  1  0  0  0
 44 47  1  0  0  0
 12 13  1  0  0  0
M  END
> <minimizedAffinity>
-7.99428

$$$$
1GNM_U0E_A_100


 54 54  0  0  0  0  0  0  0  0999 V2000
   -8.4431   17.1607   23.6107 C   0  0  0  0  0  0  0  0  0  0  0  0
   -6.4446   18.0230   22.5319 C   0  0  0  0  0  0  0  0  0  0  0  0
   -7.0041   17.1558   23.3411 N   0  0  0  0  0  0  0  0  0  0  0  0
   -7.0586   18.9039   21.9190 O   0  0  0  0  0  0  0  0  0  0  0  0
   -6.4388   16.4804   23.7810 H   0  0  0  0  0  0  0  0  0  0  0  0
   -4.9405   17.8665   22.3770 C   0  0  0  0  0  0  0  0  0  0  0  0
   -4.2605   18.8834   23.2993 C   0  0  0  0  0  0  0  0  0  0  0  0
   -5.2102   19.9869   23.7725 C   0  0  0  0  0  0  0  0  0  0  0  0
   -3.7039   18.2497   24.5812 C   0  0  0  0  0  0  0  0  0  0  0  0
   -4.5597   18.0878   20.9041 C   0  0  0  0  0  0  0  0  0  0  0  0
   -4.2191   16.8984   19.9901 C   0  0  0  0  0  0  0  0  0  0  0  0
   -5.1456   15.8827   20.3100 O   0  0  0  0  0  0  0  0  0  0  0  0
   -5.0310   15.6208   21.2369 H   0  0  0  0  0  0  0  0  0  0  0  0
   -2.7777   16.3539   20.0810 C   0  0  0  0  0  0  0  0  0  0  0  0
   -1.1392   14.4669   17.2115 C   0  0  0  0  0  0  0  0  0  0  0  0
   -1.6314   14.6823   18.6427 C   0  0  0  0  0  0  0  0  0  0  0  0
   -2.2839   15.8282   18.7914 N   0  0  0  0  0  0  0  0  0  0  0  0
   -1.4300   13.8101   19.5064 O   0  0  0  0  0  0  0  0  0  0  0  0
   -2.4510   16.3668   17.9845 H   0  0  0  0  0  0  0  0  0  0  0  0
   -1.8694   17.5426   20.4952 C   0  0  0  0  0  0  0  0  0  0  0  0
   -1.2483   17.2717   21.8834 C   0  0  0  0  0  0  0  0  0  0  0  0
   -1.7157   15.8992   22.3730 C   0  0  0  0  0  0  0  0  0  0  0  0
   -1.1537   15.6268   23.7674 C   0  0  0  0  0  0  0  0  0  0  0  0
    0.3768   15.6755   23.7570 C   0  0  0  0  0  0  0  0  0  0  0  0
    0.8742   17.0333   23.2477 C   0  0  0  0  0  0  0  0  0  0  0  0
    0.2917   17.3373   21.8606 C   0  0  0  0  0  0  0  0  0  0  0  0
   -8.6880   17.5423   25.0697 C   0  0  0  0  0  0  0  0  0  0  0  0
   -7.5806   17.8105   25.7360 N   0  0  0  0  0  0  0  0  0  0  0  0
   -9.8377   17.5774   25.5347 O   0  0  0  0  0  0  0  0  0  0  0  0
   -6.7229   17.7573   25.2557 H   0  0  0  0  0  0  0  0  0  0  0  0
   -7.5608   18.1842   27.1564 C   0  0  0  0  0  0  0  0  0  0  0  0
   -6.7040   19.4371   27.3572 C   0  0  0  0  0  0  0  0  0  0  0  0
   -7.2679   20.6322   27.5791 N   0  0  0  0  0  0  0  0  0  0  0  0
   -5.4655   19.3768   27.3211 O   0  0  0  0  0  0  0  0  0  0  0  0
   -8.2483   20.7150   27.6138 H   0  0  0  0  0  0  0  0  0  0  0  0
   -6.7018   21.4274   27.7073 H   0  0  0  0  0  0  0  0  0  0  0  0
   -6.9662   17.0410   27.9843 C   0  0  0  0  0  0  0  0  0  0  0  0
   -7.9723   16.4115   28.9513 C   0  0  0  0  0  0  0  0  0  0  0  0
   -8.9157   15.4145   28.2701 C   0  0  0  0  0  0  0  0  0  0  0  0
  -10.2431   15.9782   27.9841 N   0  0  0  0  0  0  0  0  0  0  0  0
  -10.6583   15.7639   27.1175 H   0  0  0  0  0  0  0  0  0  0  0  0
  -10.9243   16.7664   28.8298 C   0  0  0  0  0  0  0  0  0  0  0  0
  -11.2646   18.0157   28.4850 N   0  0  0  0  0  0  0  0  0  0  0  0
  -11.3134   16.3920   30.0562 N   0  0  0  0  0  0  0  0  0  0  0  0
  -11.0156   18.3671   27.5997 H   0  0  0  0  0  0  0  0  0  0  0  0
  -11.1021   15.4885   30.3853 H   0  0  0  0  0  0  0  0  0  0  0  0
  -11.8105   17.0205   30.6282 H   0  0  0  0  0  0  0  0  0  0  0  0
   -9.0311   15.7826   23.3128 C   0  0  0  0  0  0  0  0  0  0  0  0
   -8.5390   15.2013   21.9897 C   0  0  0  0  0  0  0  0  0  0  0  0
   -9.0121   16.0117   20.7866 C   0  0  0  0  0  0  0  0  0  0  0  0
  -10.2799   16.3628   20.6829 N   0  0  0  0  0  0  0  0  0  0  0  0
   -8.2088   16.3352   19.9127 O   0  0  0  0  0  0  0  0  0  0  0  0
  -10.9215   16.1032   21.3831 H   0  0  0  0  0  0  0  0  0  0  0  0
  -10.5843   16.8843   19.9053 H   0  0  0  0  0  0  0  0  0  0  0  0
 15 16  1  0  0  0
 16 17  1  0  0  0
 16 18  2  0  0  0
 14 20  1  0  0  0
 14 11  1  0  0  0
 14 17  1  0  0  0
 20 21  1  0  0  0
 21 22  1  0  0  0
 21 26  1  0  0  0
 22 23  1  0  0  0
 23 24  1  0  0  0
 24 25  1  0  0  0
 25 26  1  0  0  0
 11 10  1  0  0  0
 11 12  1  0  0  0
 10  6  1  0  0  0
  6  7  1  0  0  0
  6  2  1  0  0  0
  7  8  1  0  0  0
  7  9  1  0  0  0
  2  3  1  0  0  0
  2  4  2  0  0  0
  1 48  1  0  0  0
  1 27  1  0  0  0
  1  3  1  0  0  0
 48 49  1  0  0  0
 49 50  1  0  0  0
 50 51  1  0  0  0
 50 52  2  0  0  0
 27 28  1  0  0  0
 27 29  2  0  0  0
 31 32  1  0  0  0
 31 37  1  0  0  0
 31 28  1  0  0  0
 32 33  1  0  0  0
 32 34  2  0  0  0
 37 38  1  0  0  0
 38 39  1  0  0  0
 39 40  1  0  0  0
 42 40  1  0  0  0
 42 43  2  0  0  0
 42 44  1  0  0  0
 17 19  1  0  0  0
  3  5  1  0  0  0
 51 53  1  0  0  0
 51 54  1  0  0  0
 28 30  1  0  0  0
 33 35  1  0  0  0
 33 36  1  0  0  0
 40 41  1  0  0  0
 43 45  1  0  0  0
 44 46  1  0  0  0
 44 47  1  0  0  0
 12 13  1  0  0  0
M  END
> <minimizedAffinity>
-7.90216

$$$$
