3W37_ACR_A_1001
  RCSB PDB12061711183D
Coordinates from PDB:3W37:A:1001 Model:1 without hydrogens
 44 47  0  0  0  0            999 V2000
   -0.3310   -7.3210  -21.5390   C 0  0  0  0  0  0  0  0  0  0  0  0
    0.0430   -8.5600  -22.3890   C 0  0  0  0  0  0  0  0  0  0  0  0
   -1.1120   -8.9100  -23.3300   C 0  0  0  0  0  0  0  0  0  0  0  0
   -2.2520   -9.4630  -22.4840   C 0  0  0  0  0  0  0  0  0  0  0  0
   -2.5620   -8.5160  -21.3760   C 0  0  0  0  0  0  0  0  0  0  0  0
   -3.8920   -8.6690  -20.7060   C 0  0  0  0  0  0  0  0  0  0  0  0
   -1.6970   -7.5810  -20.9190   C 0  0  0  0  0  0  0  0  0  0  0  0
    1.2480   -8.3150  -23.1330   O 0  0  0  0  0  0  0  0  0  0  0  0
   -0.7750   -9.9810  -24.2340   O 0  0  0  0  0  0  0  0  0  0  0  0
   -3.4070   -9.6300  -23.3300   O 0  0  0  0  0  0  0  0  0  0  0  0
   -3.7380   -9.7540  -19.7730   O 0  0  0  0  0  0  0  0  0  0  0  0
   -0.6000   -1.8880  -20.8330   C 0  0  0  0  0  0  0  0  0  0  0  0
    0.3150   -2.8630  -20.1110   C 0  0  0  0  0  0  0  0  0  0  0  0
    0.7010   -4.0530  -21.0030   C 0  0  0  0  0  0  0  0  0  0  0  0
   -0.5630   -4.7860  -21.4080   C 0  0  0  0  0  0  0  0  0  0  0  0
   -1.4260   -3.7650  -22.1510   C 0  0  0  0  0  0  0  0  0  0  0  0
   -2.7640   -4.3860  -22.4880   C 0  0  0  0  0  0  0  0  0  0  0  0
   -0.3100   -5.9980  -22.2220   N 0  0  0  0  0  0  0  0  0  0  0  0
    1.4950   -2.1520  -19.6970   O 0  0  0  0  0  0  0  0  0  0  0  0
    1.4930   -4.8700  -20.1470   O 0  0  0  0  0  0  0  0  0  0  0  0
   -1.7280   -2.6190  -21.3120   O 0  0  0  0  0  0  0  0  0  0  0  0
   -0.3520    2.0770  -24.2980   C 0  0  0  0  0  0  0  0  0  0  0  0
   -1.0890    2.0370  -22.9880   C 0  0  0  0  0  0  0  0  0  0  0  0
   -0.4090    1.0430  -22.0570   C 0  0  0  0  0  0  0  0  0  0  0  0
   -0.4910   -0.3360  -22.6990   C 0  0  0  0  0  0  0  0  0  0  0  0
    0.3180   -0.2670  -23.9770   C 0  0  0  0  0  0  0  0  0  0  0  0
    0.2880   -1.6140  -24.6990   C 0  0  0  0  0  0  0  0  0  0  0  0
   -1.0410    3.3420  -22.3980   O 0  0  0  0  0  0  0  0  0  0  0  0
   -1.2220    1.0580  -20.8850   O 0  0  0  0  0  0  0  0  0  0  0  0
    0.1660   -1.3230  -21.8940   O 0  0  0  0  0  0  0  0  0  0  0  0
   -0.2330    0.7400  -24.8430   O 0  0  0  0  0  0  0  0  0  0  0  0
   -1.0650   -1.8830  -25.1140   O 0  0  0  0  0  0  0  0  0  0  0  0
    3.8780    4.6730  -26.1260   C 0  0  0  0  0  0  0  0  0  0  0  0
    2.4350    4.9730  -26.5390   C 0  0  0  0  0  0  0  0  0  0  0  0
    1.3920    4.4790  -25.5260   C 0  0  0  0  0  0  0  0  0  0  0  0
    1.6540    3.0350  -25.1110   C 0  0  0  0  0  0  0  0  0  0  0  0
    3.1090    2.8610  -24.7320   C 0  0  0  0  0  0  0  0  0  0  0  0
    3.2860    1.3790  -24.4840   C 0  0  0  0  0  0  0  0  0  0  0  0
    4.2950    5.4270  -24.9710   O 0  0  0  0  0  0  0  0  0  0  0  0
    2.2390    6.3840  -26.7260   O 0  0  0  0  0  0  0  0  0  0  0  0
    0.1080    4.5320  -26.1580   O 0  0  0  0  0  0  0  0  0  0  0  0
    0.9100    2.6320  -23.9500   O 0  0  0  0  0  0  0  0  0  0  0  0
    3.9790    3.2850  -25.7950   O 0  0  0  0  0  0  0  0  0  0  0  0
    4.4930    1.1990  -23.7850   O 0  0  0  0  0  0  0  0  0  0  0  0
  1  2  1  0  0  0  0
  1  7  1  0  0  0  0
  1 18  1  0  0  0  0
  2  3  1  0  0  0  0
  2  8  1  0  0  0  0
  3  4  1  0  0  0  0
  3  9  1  0  0  0  0
  4  5  1  0  0  0  0
  4 10  1  0  0  0  0
  5  6  1  0  0  0  0
  5  7  2  0  0  0  0
  6 11  1  0  0  0  0
 12 13  1  0  0  0  0
 12 21  1  0  0  0  0
 12 30  1  0  0  0  0
 13 14  1  0  0  0  0
 13 19  1  0  0  0  0
 14 15  1  0  0  0  0
 14 20  1  0  0  0  0
 15 16  1  0  0  0  0
 15 18  1  0  0  0  0
 16 17  1  0  0  0  0
 16 21  1  0  0  0  0
 22 23  1  0  0  0  0
 22 31  1  0  0  0  0
 22 42  1  0  0  0  0
 23 24  1  0  0  0  0
 23 28  1  0  0  0  0
 24 25  1  0  0  0  0
 24 29  1  0  0  0  0
 25 26  1  0  0  0  0
 25 30  1  0  0  0  0
 26 27  1  0  0  0  0
 26 31  1  0  0  0  0
 27 32  1  0  0  0  0
 33 34  1  0  0  0  0
 33 39  1  0  0  0  0
 33 43  1  0  0  0  0
 34 35  1  0  0  0  0
 34 40  1  0  0  0  0
 35 36  1  0  0  0  0
 35 41  1  0  0  0  0
 36 37  1  0  0  0  0
 36 42  1  0  0  0  0
 37 38  1  0  0  0  0
 37 43  1  0  0  0  0
 38 44  1  0  0  0  0
A    1
C1A
A    2
C2A
A    3
C3A
A    4
C4A
A    5
C5A
A    6
C6A
A    7
C7A
A    8
O2A
A    9
O3A
A   10
O4A
A   11
O6A
A   12
C1B
A   13
C2B
A   14
C3B
A   15
C4B
A   16
C5B
A   17
C6B
A   18
N4B
A   19
O2B
A   20
O3B
A   21
O5B
A   22
C1C
A   23
C2C
A   24
C3C
A   25
C4C
A   26
C5C
A   27
C6C
A   28
O2C
A   29
O3C
A   30
O4C
A   31
O5C
A   32
O6C
A   33
C1D
A   34
C2D
A   35
C3D
A   36
C4D
A   37
C5D
A   38
C6D
A   39
O1D
A   40
O2D
A   41
O3D
A   42
O4D
A   43
O5D
A   44
O6D
M  END
>  <InstanceId>
3W37_ACR_A_1001

>  <ChemCompId>
ACR

>  <PdbId>
3W37

>  <ChainId>
A

>  <ResidueNumber>
1001

>  <InsertionCode>


>  <Model>
1

>  <AltIds>


>  <MissingHeavyAtoms>
0

>  <ObservedFormula>
C25 N O18

>  <Name>
ALPHA-ACARBOSE

>  <SystematicName>
(2S,3R,4R,5S,6R)-5-[(2R,3R,4R,5S,6R)-5-[(2R,3R,4S,5S,6R)-3,4-dihydroxy-6-methyl-5-[[(1S,4R,5S,6S)-4,5,6-trihydroxy-3-(hydroxymethyl)cyclohex-2-en-1-yl]amino]oxan-2-yl]oxy-3,4-dihydroxy-6-(hydroxymethyl)oxan-2-yl]oxy-6-(hydroxymethyl)oxane-2,3,4-triol

>  <Synonyms>
1,4-DEOXY-4-((5-HYDROXYMETHYL-2,3,4-TRIHYDROXYCYCLOHEX-5,6-ENYL)AMINO)FRUCTOSE

>  <Type>
SACCHARIDE

>  <Formula>
C25 H43 N O18

>  <MolecularWeight>
645.605

>  <ModifiedDate>
2011-06-04

>  <Parent>


>  <OneLetterCode>


>  <SubcomponentList>


>  <AmbiguousFlag>
N

>  <InChI>
InChI=1S/C25H43NO18/c1-6-11(26-8-2-7(3-27)12(30)15(33)13(8)31)14(32)19(37)24(40-6)43-22-10(5-29)42-25(20(38)17(22)35)44-21-9(4-28)41-23(39)18(36)16(21)34/h2,6,8-39H,3-5H2,1H3/t6-,8+,9-,10-,11-,12-,13+,14+,15+,16-,17-,18-,19-,20-,21-,22-,23+,24-,25-/m1/s1

>  <InChIKey>
XUFXOAAUWZOOIT-WVJZLWNXSA-N

>  <SMILES>
C[C@@H]1[C@H]([C@@H]([C@H]([C@H](O1)O[C@@H]2[C@H](O[C@@H]([C@@H]([C@H]2O)O)O[C@@H]3[C@H](O[C@@H]([C@@H]([C@H]3O)O)O)CO)CO)O)O)N[C@H]4C=C([C@H]([C@@H]([C@H]4O)O)O)CO

$$$$
