3W37_ACR_A_1001


 58 61  0  0  0  0  0  0  0  0999 V2000
    3.2524    2.4571  -21.5604 C   0  0  0  0  0  0  0  0  0  0  0  0
    2.4267    2.2716  -20.3176 C   0  0  0  0  0  0  0  0  0  0  0  0
    2.0670    0.8002  -20.1661 C   0  0  0  0  0  0  0  0  0  0  0  0
    1.2255    0.3946  -21.3694 C   0  0  0  0  0  0  0  0  0  0  0  0
    2.1157    0.5331  -22.5863 C   0  0  0  0  0  0  0  0  0  0  0  0
    3.2053    2.6837  -19.1874 O   0  0  0  0  0  0  0  0  0  0  0  0
    1.2513    0.7643  -18.9965 O   0  0  0  0  0  0  0  0  0  0  0  0
    2.5636    1.8944  -22.7040 O   0  0  0  0  0  0  0  0  0  0  0  0
    4.0138    2.1499  -19.1398 H   0  0  0  0  0  0  0  0  0  0  0  0
    0.4982    1.3654  -19.1089 H   0  0  0  0  0  0  0  0  0  0  0  0
    1.3493    0.1508  -23.8524 C   0  0  0  0  0  0  0  0  0  0  0  0
    1.3571   -1.2841  -23.9789 O   0  0  0  0  0  0  0  0  0  0  0  0
    2.2730   -1.5989  -24.0334 H   0  0  0  0  0  0  0  0  0  0  0  0
    0.8797   -0.9951  -21.3159 O   0  0  0  0  0  0  0  0  0  0  0  0
   -0.3350   -1.3208  -20.6449 C   0  0  0  0  0  0  0  0  0  0  0  0
   -0.0075   -2.4497  -19.6819 C   0  0  0  0  0  0  0  0  0  0  0  0
    0.3969   -3.7340  -20.4221 C   0  0  0  0  0  0  0  0  0  0  0  0
   -0.7573   -4.1701  -21.3034 C   0  0  0  0  0  0  0  0  0  0  0  0
   -1.0195   -3.0094  -22.2643 C   0  0  0  0  0  0  0  0  0  0  0  0
   -2.2397   -3.3167  -23.1047 C   0  0  0  0  0  0  0  0  0  0  0  0
    1.0627   -2.0151  -18.8246 O   0  0  0  0  0  0  0  0  0  0  0  0
    0.6004   -4.6750  -19.3731 O   0  0  0  0  0  0  0  0  0  0  0  0
   -1.3389   -1.7897  -21.5441 O   0  0  0  0  0  0  0  0  0  0  0  0
    1.8444   -1.8108  -19.3615 H   0  0  0  0  0  0  0  0  0  0  0  0
   -0.2052   -4.7407  -18.8369 H   0  0  0  0  0  0  0  0  0  0  0  0
   -0.5065   -5.4415  -22.0219 N   0  0  0  0  0  0  0  0  0  0  0  0
   -1.1725   -5.4897  -22.7929 H   0  0  0  0  0  0  0  0  0  0  0  0
   -0.6213   -6.7150  -21.2589 C   0  0  0  0  0  0  0  0  0  0  0  0
   -0.3023   -8.0250  -22.0203 C   0  0  0  0  0  0  0  0  0  0  0  0
   -1.4544   -8.3668  -22.9678 C   0  0  0  0  0  0  0  0  0  0  0  0
   -2.6440   -8.7982  -22.1194 C   0  0  0  0  0  0  0  0  0  0  0  0
   -2.9224   -7.7665  -21.0809 C   0  0  0  0  0  0  0  0  0  0  0  0
   -2.0140   -6.8559  -20.6601 C   0  0  0  0  0  0  0  0  0  0  0  0
    0.9316   -7.8977  -22.7461 O   0  0  0  0  0  0  0  0  0  0  0  0
   -1.1611   -9.5106  -23.7945 O   0  0  0  0  0  0  0  0  0  0  0  0
   -3.7875   -8.9516  -22.9835 O   0  0  0  0  0  0  0  0  0  0  0  0
    0.8528   -7.1807  -23.3946 H   0  0  0  0  0  0  0  0  0  0  0  0
   -1.0026  -10.2844  -23.2314 H   0  0  0  0  0  0  0  0  0  0  0  0
   -3.9749   -8.1082  -23.4246 H   0  0  0  0  0  0  0  0  0  0  0  0
   -4.2739   -7.7996  -20.4379 C   0  0  0  0  0  0  0  0  0  0  0  0
   -4.5210   -9.1806  -20.1165 O   0  0  0  0  0  0  0  0  0  0  0  0
   -4.4801   -9.7133  -20.9261 H   0  0  0  0  0  0  0  0  0  0  0  0
    4.4579    1.7646  -21.2623 O   0  0  0  0  0  0  0  0  0  0  0  0
    6.8432    4.6582  -23.1720 C   0  0  0  0  0  0  0  0  0  0  0  0
    6.2881    3.5584  -24.0804 C   0  0  0  0  0  0  0  0  0  0  0  0
    5.1736    2.7282  -23.4272 C   0  0  0  0  0  0  0  0  0  0  0  0
    5.5652    2.2676  -22.0270 C   0  0  0  0  0  0  0  0  0  0  0  0
    6.1025    3.4360  -21.2289 C   0  0  0  0  0  0  0  0  0  0  0  0
    5.8869    5.7056  -22.9173 O   0  0  0  0  0  0  0  0  0  0  0  0
    5.7711    4.1145  -25.3001 O   0  0  0  0  0  0  0  0  0  0  0  0
    4.9646    1.5636  -24.2341 O   0  0  0  0  0  0  0  0  0  0  0  0
    7.1927    4.0770  -21.9125 O   0  0  0  0  0  0  0  0  0  0  0  0
    5.1141    5.3345  -22.4634 H   0  0  0  0  0  0  0  0  0  0  0  0
    5.0221    4.6967  -25.0980 H   0  0  0  0  0  0  0  0  0  0  0  0
    5.7844    1.0467  -24.2743 H   0  0  0  0  0  0  0  0  0  0  0  0
    6.5915    2.8426  -19.9259 C   0  0  0  0  0  0  0  0  0  0  0  0
    5.8028    3.3704  -18.8879 O   0  0  0  0  0  0  0  0  0  0  0  0
    5.8846    4.3369  -18.8791 H   0  0  0  0  0  0  0  0  0  0  0  0
 28 29  1  0  0  0
 28 33  1  0  0  0
 28 26  1  0  0  0
 29 30  1  0  0  0
 29 34  1  0  0  0
 30 31  1  0  0  0
 30 35  1  0  0  0
 31 32  1  0  0  0
 31 36  1  0  0  0
 32 40  1  0  0  0
 32 33  2  0  0  0
 40 41  1  0  0  0
 15 16  1  0  0  0
 15 23  1  0  0  0
 15 14  1  0  0  0
 16 17  1  0  0  0
 16 21  1  0  0  0
 17 18  1  0  0  0
 17 22  1  0  0  0
 18 19  1  0  0  0
 18 26  1  0  0  0
 19 20  1  0  0  0
 19 23  1  0  0  0
  1  2  1  0  0  0
  1  8  1  0  0  0
  1 43  1  0  0  0
  2  3  1  0  0  0
  2  6  1  0  0  0
  3  4  1  0  0  0
  3  7  1  0  0  0
  4  5  1  0  0  0
  4 14  1  0  0  0
  5 11  1  0  0  0
  5  8  1  0  0  0
 11 12  1  0  0  0
 44 45  1  0  0  0
 44 49  1  0  0  0
 44 52  1  0  0  0
 45 46  1  0  0  0
 45 50  1  0  0  0
 46 47  1  0  0  0
 46 51  1  0  0  0
 47 48  1  0  0  0
 47 43  1  0  0  0
 48 56  1  0  0  0
 48 52  1  0  0  0
 56 57  1  0  0  0
 34 37  1  0  0  0
 35 38  1  0  0  0
 36 39  1  0  0  0
 41 42  1  0  0  0
 26 27  1  0  0  0
 21 24  1  0  0  0
 22 25  1  0  0  0
  6  9  1  0  0  0
  7 10  1  0  0  0
 12 13  1  0  0  0
 49 53  1  0  0  0
 50 54  1  0  0  0
 51 55  1  0  0  0
 57 58  1  0  0  0
M  END
> <minimizedAffinity>
-9.82753

$$$$
3W37_ACR_A_1001


 58 61  0  0  0  0  0  0  0  0999 V2000
    1.3922    2.5911  -20.7168 C   0  0  0  0  0  0  0  0  0  0  0  0
   -0.0561    2.3404  -21.0336 C   0  0  0  0  0  0  0  0  0  0  0  0
   -0.3392    0.8470  -20.9511 C   0  0  0  0  0  0  0  0  0  0  0  0
    0.5128    0.1472  -22.0023 C   0  0  0  0  0  0  0  0  0  0  0  0
    1.9572    0.3696  -21.6066 C   0  0  0  0  0  0  0  0  0  0  0  0
   -0.8598    3.0252  -20.0648 O   0  0  0  0  0  0  0  0  0  0  0  0
   -1.7129    0.7366  -21.3190 O   0  0  0  0  0  0  0  0  0  0  0  0
    2.2359    1.7798  -21.5704 O   0  0  0  0  0  0  0  0  0  0  0  0
   -0.6454    2.6976  -19.1773 H   0  0  0  0  0  0  0  0  0  0  0  0
   -1.8468    1.1358  -22.1928 H   0  0  0  0  0  0  0  0  0  0  0  0
    2.8936   -0.2964  -22.6148 C   0  0  0  0  0  0  0  0  0  0  0  0
    3.2911   -1.5797  -22.0948 O   0  0  0  0  0  0  0  0  0  0  0  0
    3.7441   -1.4583  -21.2457 H   0  0  0  0  0  0  0  0  0  0  0  0
    0.3280   -1.2733  -21.9583 O   0  0  0  0  0  0  0  0  0  0  0  0
   -0.5241   -1.7701  -20.9294 C   0  0  0  0  0  0  0  0  0  0  0  0
    0.2982   -2.7688  -20.1320 C   0  0  0  0  0  0  0  0  0  0  0  0
    0.6726   -4.0006  -20.9705 C   0  0  0  0  0  0  0  0  0  0  0  0
   -0.6024   -4.6813  -21.4291 C   0  0  0  0  0  0  0  0  0  0  0  0
   -1.3693   -3.6399  -22.2456 C   0  0  0  0  0  0  0  0  0  0  0  0
   -2.7161   -4.2031  -22.6433 C   0  0  0  0  0  0  0  0  0  0  0  0
    1.4877   -2.1057  -19.6687 O   0  0  0  0  0  0  0  0  0  0  0  0
    1.3727   -4.8317  -20.0504 O   0  0  0  0  0  0  0  0  0  0  0  0
   -1.6592   -2.4575  -21.4540 O   0  0  0  0  0  0  0  0  0  0  0  0
    2.0032   -1.7970  -20.4302 H   0  0  0  0  0  0  0  0  0  0  0  0
    0.8092   -5.0085  -19.2809 H   0  0  0  0  0  0  0  0  0  0  0  0
   -0.3661   -5.9264  -22.1968 N   0  0  0  0  0  0  0  0  0  0  0  0
   -1.0352   -5.9386  -22.9666 H   0  0  0  0  0  0  0  0  0  0  0  0
   -0.4904   -7.2272  -21.4829 C   0  0  0  0  0  0  0  0  0  0  0  0
   -0.1245   -8.5054  -22.2764 C   0  0  0  0  0  0  0  0  0  0  0  0
   -1.2357   -8.8292  -23.2776 C   0  0  0  0  0  0  0  0  0  0  0  0
   -2.4495   -9.3057  -22.4896 C   0  0  0  0  0  0  0  0  0  0  0  0
   -2.7809   -8.3147  -21.4273 C   0  0  0  0  0  0  0  0  0  0  0  0
   -1.9021   -7.4073  -20.9418 C   0  0  0  0  0  0  0  0  0  0  0  0
    1.1334   -8.3365  -22.9508 O   0  0  0  0  0  0  0  0  0  0  0  0
   -0.8955   -9.9395  -24.1315 O   0  0  0  0  0  0  0  0  0  0  0  0
   -3.5579   -9.4440  -23.4006 O   0  0  0  0  0  0  0  0  0  0  0  0
    1.0682   -7.5984  -23.5767 H   0  0  0  0  0  0  0  0  0  0  0  0
   -0.7466  -10.7303  -23.5898 H   0  0  0  0  0  0  0  0  0  0  0  0
   -3.7411   -8.5884  -23.8191 H   0  0  0  0  0  0  0  0  0  0  0  0
   -4.1547   -8.3882  -20.8368 C   0  0  0  0  0  0  0  0  0  0  0  0
   -4.0304   -9.2018  -19.6562 O   0  0  0  0  0  0  0  0  0  0  0  0
   -3.6821  -10.0738  -19.8996 H   0  0  0  0  0  0  0  0  0  0  0  0
    1.4989    2.2244  -19.3472 O   0  0  0  0  0  0  0  0  0  0  0  0
    4.7240    4.8908  -18.9017 C   0  0  0  0  0  0  0  0  0  0  0  0
    5.1024    3.4116  -19.0095 C   0  0  0  0  0  0  0  0  0  0  0  0
    3.9522    2.5184  -19.4967 C   0  0  0  0  0  0  0  0  0  0  0  0
    2.6632    2.7972  -18.7307 C   0  0  0  0  0  0  0  0  0  0  0  0
    2.3987    4.2869  -18.6868 C   0  0  0  0  0  0  0  0  0  0  0  0
    4.4806    5.4984  -20.1855 O   0  0  0  0  0  0  0  0  0  0  0  0
    6.2135    3.2313  -19.9024 O   0  0  0  0  0  0  0  0  0  0  0  0
    4.3236    1.1562  -19.2573 O   0  0  0  0  0  0  0  0  0  0  0  0
    3.5198    4.9995  -18.1373 O   0  0  0  0  0  0  0  0  0  0  0  0
    3.7360    5.0523  -20.6184 H   0  0  0  0  0  0  0  0  0  0  0  0
    5.9578    3.5070  -20.7966 H   0  0  0  0  0  0  0  0  0  0  0  0
    4.4691    1.0228  -18.3076 H   0  0  0  0  0  0  0  0  0  0  0  0
    1.1929    4.4554  -17.7885 C   0  0  0  0  0  0  0  0  0  0  0  0
    1.3435    3.5839  -16.6951 O   0  0  0  0  0  0  0  0  0  0  0  0
    1.4097    2.6709  -17.0161 H   0  0  0  0  0  0  0  0  0  0  0  0
 28 29  1  0  0  0
 28 33  1  0  0  0
 28 26  1  0  0  0
 29 30  1  0  0  0
 29 34  1  0  0  0
 30 31  1  0  0  0
 30 35  1  0  0  0
 31 32  1  0  0  0
 31 36  1  0  0  0
 32 40  1  0  0  0
 32 33  2  0  0  0
 40 41  1  0  0  0
 15 16  1  0  0  0
 15 23  1  0  0  0
 15 14  1  0  0  0
 16 17  1  0  0  0
 16 21  1  0  0  0
 17 18  1  0  0  0
 17 22  1  0  0  0
 18 19  1  0  0  0
 18 26  1  0  0  0
 19 20  1  0  0  0
 19 23  1  0  0  0
  1  2  1  0  0  0
  1  8  1  0  0  0
  1 43  1  0  0  0
  2  3  1  0  0  0
  2  6  1  0  0  0
  3  4  1  0  0  0
  3  7  1  0  0  0
  4  5  1  0  0  0
  4 14  1  0  0  0
  5 11  1  0  0  0
  5  8  1  0  0  0
 11 12  1  0  0  0
 44 45  1  0  0  0
 44 49  1  0  0  0
 44 52  1  0  0  0
 45 46  1  0  0  0
 45 50  1  0  0  0
 46 47  1  0  0  0
 46 51  1  0  0  0
 47 48  1  0  0  0
 47 43  1  0  0  0
 48 56  1  0  0  0
 48 52  1  0  0  0
 56 57  1  0  0  0
 34 37  1  0  0  0
 35 38  1  0  0  0
 36 39  1  0  0  0
 41 42  1  0  0  0
 26 27  1  0  0  0
 21 24  1  0  0  0
 22 25  1  0  0  0
  6  9  1  0  0  0
  7 10  1  0  0  0
 12 13  1  0  0  0
 49 53  1  0  0  0
 50 54  1  0  0  0
 51 55  1  0  0  0
 57 58  1  0  0  0
M  END
> <minimizedAffinity>
-9.76399

$$$$
3W37_ACR_A_1001


 58 61  0  0  0  0  0  0  0  0999 V2000
    1.6619    2.7008  -22.3331 C   0  0  0  0  0  0  0  0  0  0  0  0
    0.8260    2.4283  -21.1133 C   0  0  0  0  0  0  0  0  0  0  0  0
    0.8772    0.9420  -20.7887 C   0  0  0  0  0  0  0  0  0  0  0  0
    0.2770    0.1819  -21.9645 C   0  0  0  0  0  0  0  0  0  0  0  0
    1.1857    0.4309  -23.1497 C   0  0  0  0  0  0  0  0  0  0  0  0
    1.3698    3.1685  -20.0134 O   0  0  0  0  0  0  0  0  0  0  0  0
    0.0151    0.8066  -19.6603 O   0  0  0  0  0  0  0  0  0  0  0  0
    1.2469    1.8413  -23.4229 O   0  0  0  0  0  0  0  0  0  0  0  0
    2.2883    2.8955  -19.8626 H   0  0  0  0  0  0  0  0  0  0  0  0
   -0.8638    1.1522  -19.8816 H   0  0  0  0  0  0  0  0  0  0  0  0
    0.6558   -0.2926  -24.3876 C   0  0  0  0  0  0  0  0  0  0  0  0
    1.0408   -1.6786  -24.3099 O   0  0  0  0  0  0  0  0  0  0  0  0
    2.0079   -1.7439  -24.2717 H   0  0  0  0  0  0  0  0  0  0  0  0
    0.3265   -1.2337  -21.7469 O   0  0  0  0  0  0  0  0  0  0  0  0
   -0.5575   -1.7543  -20.7573 C   0  0  0  0  0  0  0  0  0  0  0  0
    0.2419   -2.7655  -19.9526 C   0  0  0  0  0  0  0  0  0  0  0  0
    0.6498   -3.9789  -20.8022 C   0  0  0  0  0  0  0  0  0  0  0  0
   -0.6059   -4.6551  -21.3170 C   0  0  0  0  0  0  0  0  0  0  0  0
   -1.3495   -3.6005  -22.1381 C   0  0  0  0  0  0  0  0  0  0  0  0
   -2.6797   -4.1609  -22.5922 C   0  0  0  0  0  0  0  0  0  0  0  0
    1.4122   -2.1073  -19.4364 O   0  0  0  0  0  0  0  0  0  0  0  0
    1.3223   -4.8256  -19.8757 O   0  0  0  0  0  0  0  0  0  0  0  0
   -1.6712   -2.4354  -21.3335 O   0  0  0  0  0  0  0  0  0  0  0  0
    1.9517   -1.7815  -20.1737 H   0  0  0  0  0  0  0  0  0  0  0  0
    0.7339   -5.0198  -19.1293 H   0  0  0  0  0  0  0  0  0  0  0  0
   -0.3383   -5.8837  -22.1008 N   0  0  0  0  0  0  0  0  0  0  0  0
   -0.9792   -5.8818  -22.8944 H   0  0  0  0  0  0  0  0  0  0  0  0
   -0.4843   -7.1991  -21.4185 C   0  0  0  0  0  0  0  0  0  0  0  0
   -0.1147   -8.4622  -22.2343 C   0  0  0  0  0  0  0  0  0  0  0  0
   -1.2114   -8.7548  -23.2607 C   0  0  0  0  0  0  0  0  0  0  0  0
   -2.4417   -9.2393  -22.5038 C   0  0  0  0  0  0  0  0  0  0  0  0
   -2.7835   -8.2696  -21.4252 C   0  0  0  0  0  0  0  0  0  0  0  0
   -1.9061   -7.3802  -20.9050 C   0  0  0  0  0  0  0  0  0  0  0  0
    1.1556   -8.2881  -22.8838 O   0  0  0  0  0  0  0  0  0  0  0  0
   -0.8652   -9.8484  -24.1336 O   0  0  0  0  0  0  0  0  0  0  0  0
   -3.5357   -9.3486  -23.4360 O   0  0  0  0  0  0  0  0  0  0  0  0
    1.1063   -7.5357  -23.4940 H   0  0  0  0  0  0  0  0  0  0  0  0
   -0.7314  -10.6522  -23.6074 H   0  0  0  0  0  0  0  0  0  0  0  0
   -3.7055   -8.4823  -23.8381 H   0  0  0  0  0  0  0  0  0  0  0  0
   -4.1674   -8.3455  -20.8594 C   0  0  0  0  0  0  0  0  0  0  0  0
   -4.0968   -9.2920  -19.7774 O   0  0  0  0  0  0  0  0  0  0  0  0
   -3.7846  -10.1461  -20.1149 H   0  0  0  0  0  0  0  0  0  0  0  0
    2.9852    2.4176  -21.8965 O   0  0  0  0  0  0  0  0  0  0  0  0
    6.7097    4.3332  -22.3063 C   0  0  0  0  0  0  0  0  0  0  0  0
    5.5545    5.2293  -21.8533 C   0  0  0  0  0  0  0  0  0  0  0  0
    4.3128    4.4471  -21.4009 C   0  0  0  0  0  0  0  0  0  0  0  0
    3.9314    3.3689  -22.4098 C   0  0  0  0  0  0  0  0  0  0  0  0
    5.1515    2.5551  -22.7841 C   0  0  0  0  0  0  0  0  0  0  0  0
    7.2875    3.5789  -21.2230 O   0  0  0  0  0  0  0  0  0  0  0  0
    5.9618    6.0810  -20.7703 O   0  0  0  0  0  0  0  0  0  0  0  0
    3.2229    5.3713  -21.3072 O   0  0  0  0  0  0  0  0  0  0  0  0
    6.2119    3.3971  -23.2667 O   0  0  0  0  0  0  0  0  0  0  0  0
    6.6148    2.9931  -20.8419 H   0  0  0  0  0  0  0  0  0  0  0  0
    6.1950    5.5375  -20.0015 H   0  0  0  0  0  0  0  0  0  0  0  0
    3.0645    5.7735  -22.1756 H   0  0  0  0  0  0  0  0  0  0  0  0
    4.6926    1.6250  -23.8857 C   0  0  0  0  0  0  0  0  0  0  0  0
    3.9431    2.3808  -24.8050 O   0  0  0  0  0  0  0  0  0  0  0  0
    3.1840    2.7803  -24.3522 H   0  0  0  0  0  0  0  0  0  0  0  0
 28 29  1  0  0  0
 28 33  1  0  0  0
 28 26  1  0  0  0
 29 30  1  0  0  0
 29 34  1  0  0  0
 30 31  1  0  0  0
 30 35  1  0  0  0
 31 32  1  0  0  0
 31 36  1  0  0  0
 32 40  1  0  0  0
 32 33  2  0  0  0
 40 41  1  0  0  0
 15 16  1  0  0  0
 15 23  1  0  0  0
 15 14  1  0  0  0
 16 17  1  0  0  0
 16 21  1  0  0  0
 17 18  1  0  0  0
 17 22  1  0  0  0
 18 19  1  0  0  0
 18 26  1  0  0  0
 19 20  1  0  0  0
 19 23  1  0  0  0
  1  2  1  0  0  0
  1  8  1  0  0  0
  1 43  1  0  0  0
  2  3  1  0  0  0
  2  6  1  0  0  0
  3  4  1  0  0  0
  3  7  1  0  0  0
  4  5  1  0  0  0
  4 14  1  0  0  0
  5 11  1  0  0  0
  5  8  1  0  0  0
 11 12  1  0  0  0
 44 45  1  0  0  0
 44 49  1  0  0  0
 44 52  1  0  0  0
 45 46  1  0  0  0
 45 50  1  0  0  0
 46 47  1  0  0  0
 46 51  1  0  0  0
 47 48  1  0  0  0
 47 43  1  0  0  0
 48 56  1  0  0  0
 48 52  1  0  0  0
 56 57  1  0  0  0
 34 37  1  0  0  0
 35 38  1  0  0  0
 36 39  1  0  0  0
 41 42  1  0  0  0
 26 27  1  0  0  0
 21 24  1  0  0  0
 22 25  1  0  0  0
  6  9  1  0  0  0
  7 10  1  0  0  0
 12 13  1  0  0  0
 49 53  1  0  0  0
 50 54  1  0  0  0
 51 55  1  0  0  0
 57 58  1  0  0  0
M  END
> <minimizedAffinity>
-9.73932

$$$$
3W37_ACR_A_1001


 58 61  0  0  0  0  0  0  0  0999 V2000
    2.3736    2.5051  -22.9094 C   0  0  0  0  0  0  0  0  0  0  0  0
    1.8713    2.3312  -21.5028 C   0  0  0  0  0  0  0  0  0  0  0  0
    1.7534    0.8462  -21.1895 C   0  0  0  0  0  0  0  0  0  0  0  0
    0.7317    0.2428  -22.1448 C   0  0  0  0  0  0  0  0  0  0  0  0
    1.3083    0.3800  -23.5381 C   0  0  0  0  0  0  0  0  0  0  0  0
    2.8154    2.9273  -20.6047 O   0  0  0  0  0  0  0  0  0  0  0  0
    1.2248    0.8152  -19.8650 O   0  0  0  0  0  0  0  0  0  0  0  0
    1.5336    1.7694  -23.8323 O   0  0  0  0  0  0  0  0  0  0  0  0
    3.6788    2.4984  -20.7116 H   0  0  0  0  0  0  0  0  0  0  0  0
    0.3919    1.3117  -19.8376 H   0  0  0  0  0  0  0  0  0  0  0  0
    0.3423   -0.1968  -24.5728 C   0  0  0  0  0  0  0  0  0  0  0  0
    0.6513   -1.5909  -24.7630 O   0  0  0  0  0  0  0  0  0  0  0  0
    1.5663   -1.6801  -25.0722 H   0  0  0  0  0  0  0  0  0  0  0  0
    0.5949   -1.1682  -21.9346 O   0  0  0  0  0  0  0  0  0  0  0  0
   -0.3783   -1.5749  -20.9758 C   0  0  0  0  0  0  0  0  0  0  0  0
    0.2804   -2.6417  -20.1173 C   0  0  0  0  0  0  0  0  0  0  0  0
    0.6000   -3.9092  -20.9248 C   0  0  0  0  0  0  0  0  0  0  0  0
   -0.6943   -4.4687  -21.4822 C   0  0  0  0  0  0  0  0  0  0  0  0
   -1.2925   -3.3647  -22.3555 C   0  0  0  0  0  0  0  0  0  0  0  0
   -2.6518   -3.8001  -22.8578 C   0  0  0  0  0  0  0  0  0  0  0  0
    1.4880   -2.0916  -19.5618 O   0  0  0  0  0  0  0  0  0  0  0  0
    1.1439   -4.7969  -19.9533 O   0  0  0  0  0  0  0  0  0  0  0  0
   -1.5293   -2.1548  -21.5882 O   0  0  0  0  0  0  0  0  0  0  0  0
    2.0883   -1.8384  -20.2804 H   0  0  0  0  0  0  0  0  0  0  0  0
    0.5078   -4.9141  -19.2304 H   0  0  0  0  0  0  0  0  0  0  0  0
   -0.5186   -5.7358  -22.2300 N   0  0  0  0  0  0  0  0  0  0  0  0
   -1.2462   -5.7690  -22.9441 H   0  0  0  0  0  0  0  0  0  0  0  0
   -0.5858   -7.0153  -21.4714 C   0  0  0  0  0  0  0  0  0  0  0  0
   -0.1354   -8.2988  -22.2112 C   0  0  0  0  0  0  0  0  0  0  0  0
   -1.2078   -8.7186  -23.2191 C   0  0  0  0  0  0  0  0  0  0  0  0
   -2.4088   -9.2331  -22.4355 C   0  0  0  0  0  0  0  0  0  0  0  0
   -2.8143   -8.2247  -21.4159 C   0  0  0  0  0  0  0  0  0  0  0  0
   -1.9957   -7.2536  -20.9487 C   0  0  0  0  0  0  0  0  0  0  0  0
    1.1242   -8.0849  -22.8693 O   0  0  0  0  0  0  0  0  0  0  0  0
   -0.7912   -9.8381  -24.0259 O   0  0  0  0  0  0  0  0  0  0  0  0
   -3.4902   -9.4645  -23.3600 O   0  0  0  0  0  0  0  0  0  0  0  0
    1.0310   -7.3741  -23.5228 H   0  0  0  0  0  0  0  0  0  0  0  0
   -0.6100  -10.5998  -23.4531 H   0  0  0  0  0  0  0  0  0  0  0  0
   -3.7117   -8.6356  -23.8125 H   0  0  0  0  0  0  0  0  0  0  0  0
   -4.1932   -8.3528  -20.8472 C   0  0  0  0  0  0  0  0  0  0  0  0
   -4.0481   -9.1183  -19.6371 O   0  0  0  0  0  0  0  0  0  0  0  0
   -3.6489   -9.9778  -19.8441 H   0  0  0  0  0  0  0  0  0  0  0  0
    3.6967    1.9872  -22.8539 O   0  0  0  0  0  0  0  0  0  0  0  0
    5.6795    5.4021  -24.3088 C   0  0  0  0  0  0  0  0  0  0  0  0
    4.8458    4.6357  -25.3386 C   0  0  0  0  0  0  0  0  0  0  0  0
    3.8889    3.6108  -24.7125 C   0  0  0  0  0  0  0  0  0  0  0  0
    4.5985    2.7376  -23.6829 C   0  0  0  0  0  0  0  0  0  0  0  0
    5.3909    3.6037  -22.7275 C   0  0  0  0  0  0  0  0  0  0  0  0
    4.8844    6.2872  -23.4959 O   0  0  0  0  0  0  0  0  0  0  0  0
    4.0671    5.5383  -26.1405 O   0  0  0  0  0  0  0  0  0  0  0  0
    3.4113    2.7600  -25.7607 O   0  0  0  0  0  0  0  0  0  0  0  0
    6.3053    4.4584  -23.4346 O   0  0  0  0  0  0  0  0  0  0  0  0
    4.2333    5.7700  -22.9964 H   0  0  0  0  0  0  0  0  0  0  0  0
    3.4309    6.0052  -25.5765 H   0  0  0  0  0  0  0  0  0  0  0  0
    4.1612    2.3051  -26.1750 H   0  0  0  0  0  0  0  0  0  0  0  0
    6.1617    2.6384  -21.8539 C   0  0  0  0  0  0  0  0  0  0  0  0
    5.4942    2.5451  -20.6196 O   0  0  0  0  0  0  0  0  0  0  0  0
    5.4502    3.4227  -20.2086 H   0  0  0  0  0  0  0  0  0  0  0  0
 28 29  1  0  0  0
 28 33  1  0  0  0
 28 26  1  0  0  0
 29 30  1  0  0  0
 29 34  1  0  0  0
 30 31  1  0  0  0
 30 35  1  0  0  0
 31 32  1  0  0  0
 31 36  1  0  0  0
 32 40  1  0  0  0
 32 33  2  0  0  0
 40 41  1  0  0  0
 15 16  1  0  0  0
 15 23  1  0  0  0
 15 14  1  0  0  0
 16 17  1  0  0  0
 16 21  1  0  0  0
 17 18  1  0  0  0
 17 22  1  0  0  0
 18 19  1  0  0  0
 18 26  1  0  0  0
 19 20  1  0  0  0
 19 23  1  0  0  0
  1  2  1  0  0  0
  1  8  1  0  0  0
  1 43  1  0  0  0
  2  3  1  0  0  0
  2  6  1  0  0  0
  3  4  1  0  0  0
  3  7  1  0  0  0
  4  5  1  0  0  0
  4 14  1  0  0  0
  5 11  1  0  0  0
  5  8  1  0  0  0
 11 12  1  0  0  0
 44 45  1  0  0  0
 44 49  1  0  0  0
 44 52  1  0  0  0
 45 46  1  0  0  0
 45 50  1  0  0  0
 46 47  1  0  0  0
 46 51  1  0  0  0
 47 48  1  0  0  0
 47 43  1  0  0  0
 48 56  1  0  0  0
 48 52  1  0  0  0
 56 57  1  0  0  0
 34 37  1  0  0  0
 35 38  1  0  0  0
 36 39  1  0  0  0
 41 42  1  0  0  0
 26 27  1  0  0  0
 21 24  1  0  0  0
 22 25  1  0  0  0
  6  9  1  0  0  0
  7 10  1  0  0  0
 12 13  1  0  0  0
 49 53  1  0  0  0
 50 54  1  0  0  0
 51 55  1  0  0  0
 57 58  1  0  0  0
M  END
> <minimizedAffinity>
-9.72219

$$$$
3W37_ACR_A_1001


 58 61  0  0  0  0  0  0  0  0999 V2000
    2.7178    2.1044  -22.0383 C   0  0  0  0  0  0  0  0  0  0  0  0
    3.3562    0.7777  -21.7328 C   0  0  0  0  0  0  0  0  0  0  0  0
    2.4253   -0.3432  -22.1736 C   0  0  0  0  0  0  0  0  0  0  0  0
    1.1375   -0.2305  -21.3677 C   0  0  0  0  0  0  0  0  0  0  0  0
    0.4977    1.0856  -21.7564 C   0  0  0  0  0  0  0  0  0  0  0  0
    4.5845    0.6836  -22.4649 O   0  0  0  0  0  0  0  0  0  0  0  0
    3.1118   -1.5323  -21.7868 O   0  0  0  0  0  0  0  0  0  0  0  0
    1.3949    2.1670  -21.4511 O   0  0  0  0  0  0  0  0  0  0  0  0
    4.4017    0.7611  -23.4144 H   0  0  0  0  0  0  0  0  0  0  0  0
    3.3017   -1.5013  -20.8361 H   0  0  0  0  0  0  0  0  0  0  0  0
   -0.8073    1.2904  -20.9873 C   0  0  0  0  0  0  0  0  0  0  0  0
   -0.5252    1.2202  -19.5764 O   0  0  0  0  0  0  0  0  0  0  0  0
   -0.1442    0.3534  -19.3656 H   0  0  0  0  0  0  0  0  0  0  0  0
    0.1922   -1.2347  -21.7571 O   0  0  0  0  0  0  0  0  0  0  0  0
   -0.6065   -1.7913  -20.7159 C   0  0  0  0  0  0  0  0  0  0  0  0
    0.2739   -2.7894  -19.9826 C   0  0  0  0  0  0  0  0  0  0  0  0
    0.6541   -3.9809  -20.8751 C   0  0  0  0  0  0  0  0  0  0  0  0
   -0.6157   -4.6855  -21.3109 C   0  0  0  0  0  0  0  0  0  0  0  0
   -1.4428   -3.6423  -22.0638 C   0  0  0  0  0  0  0  0  0  0  0  0
   -2.7858   -4.2339  -22.4323 C   0  0  0  0  0  0  0  0  0  0  0  0
    1.4592   -2.1052  -19.5396 O   0  0  0  0  0  0  0  0  0  0  0  0
    1.4120   -4.8195  -20.0091 O   0  0  0  0  0  0  0  0  0  0  0  0
   -1.7389   -2.4962  -21.2229 O   0  0  0  0  0  0  0  0  0  0  0  0
    1.9371   -1.7558  -20.3081 H   0  0  0  0  0  0  0  0  0  0  0  0
    0.8825   -5.0388  -19.2265 H   0  0  0  0  0  0  0  0  0  0  0  0
   -0.3705   -5.8968  -22.1282 N   0  0  0  0  0  0  0  0  0  0  0  0
   -1.0419   -5.8846  -22.8961 H   0  0  0  0  0  0  0  0  0  0  0  0
   -0.4807   -7.2261  -21.4664 C   0  0  0  0  0  0  0  0  0  0  0  0
   -0.0883   -8.4669  -22.3055 C   0  0  0  0  0  0  0  0  0  0  0  0
   -1.1860   -8.7683  -23.3283 C   0  0  0  0  0  0  0  0  0  0  0  0
   -2.3988   -9.2934  -22.5703 C   0  0  0  0  0  0  0  0  0  0  0  0
   -2.7544   -8.3495  -21.4734 C   0  0  0  0  0  0  0  0  0  0  0  0
   -1.8938   -7.4485  -20.9453 C   0  0  0  0  0  0  0  0  0  0  0  0
    1.1724   -8.2529  -22.9615 O   0  0  0  0  0  0  0  0  0  0  0  0
   -0.8215   -9.8393  -24.2215 O   0  0  0  0  0  0  0  0  0  0  0  0
   -3.4973   -9.4130  -23.4959 O   0  0  0  0  0  0  0  0  0  0  0  0
    1.1009   -7.4920  -23.5590 H   0  0  0  0  0  0  0  0  0  0  0  0
   -0.6650  -10.6482  -23.7095 H   0  0  0  0  0  0  0  0  0  0  0  0
   -3.6903   -8.5446  -23.8825 H   0  0  0  0  0  0  0  0  0  0  0  0
   -4.1317   -8.4667  -20.8986 C   0  0  0  0  0  0  0  0  0  0  0  0
   -3.9696   -9.1099  -19.6213 O   0  0  0  0  0  0  0  0  0  0  0  0
   -3.5428   -9.9721  -19.7453 H   0  0  0  0  0  0  0  0  0  0  0  0
    2.6792    2.1328  -23.4594 O   0  0  0  0  0  0  0  0  0  0  0  0
    3.7177    4.9781  -26.3809 C   0  0  0  0  0  0  0  0  0  0  0  0
    4.7406    4.7824  -25.2591 C   0  0  0  0  0  0  0  0  0  0  0  0
    4.4896    3.5257  -24.4130 C   0  0  0  0  0  0  0  0  0  0  0  0
    3.0316    3.4257  -23.9770 C   0  0  0  0  0  0  0  0  0  0  0  0
    2.1197    3.6412  -25.1656 C   0  0  0  0  0  0  0  0  0  0  0  0
    3.8216    3.9755  -27.4106 O   0  0  0  0  0  0  0  0  0  0  0  0
    6.0732    4.7015  -25.7901 O   0  0  0  0  0  0  0  0  0  0  0  0
    5.2984    3.6220  -23.2351 O   0  0  0  0  0  0  0  0  0  0  0  0
    2.4041    4.8883  -25.8217 O   0  0  0  0  0  0  0  0  0  0  0  0
    3.6504    3.1005  -27.0284 H   0  0  0  0  0  0  0  0  0  0  0  0
    6.1479    3.9191  -26.3586 H   0  0  0  0  0  0  0  0  0  0  0  0
    5.0486    4.4149  -22.7353 H   0  0  0  0  0  0  0  0  0  0  0  0
    0.7176    3.6679  -24.5978 C   0  0  0  0  0  0  0  0  0  0  0  0
    0.7350    4.4676  -23.4411 O   0  0  0  0  0  0  0  0  0  0  0  0
    1.3600    4.0949  -22.7997 H   0  0  0  0  0  0  0  0  0  0  0  0
 28 29  1  0  0  0
 28 33  1  0  0  0
 28 26  1  0  0  0
 29 30  1  0  0  0
 29 34  1  0  0  0
 30 31  1  0  0  0
 30 35  1  0  0  0
 31 32  1  0  0  0
 31 36  1  0  0  0
 32 40  1  0  0  0
 32 33  2  0  0  0
 40 41  1  0  0  0
 15 16  1  0  0  0
 15 23  1  0  0  0
 15 14  1  0  0  0
 16 17  1  0  0  0
 16 21  1  0  0  0
 17 18  1  0  0  0
 17 22  1  0  0  0
 18 19  1  0  0  0
 18 26  1  0  0  0
 19 20  1  0  0  0
 19 23  1  0  0  0
  1  2  1  0  0  0
  1  8  1  0  0  0
  1 43  1  0  0  0
  2  3  1  0  0  0
  2  6  1  0  0  0
  3  4  1  0  0  0
  3  7  1  0  0  0
  4  5  1  0  0  0
  4 14  1  0  0  0
  5 11  1  0  0  0
  5  8  1  0  0  0
 11 12  1  0  0  0
 44 45  1  0  0  0
 44 49  1  0  0  0
 44 52  1  0  0  0
 45 46  1  0  0  0
 45 50  1  0  0  0
 46 47  1  0  0  0
 46 51  1  0  0  0
 47 48  1  0  0  0
 47 43  1  0  0  0
 48 56  1  0  0  0
 48 52  1  0  0  0
 56 57  1  0  0  0
 34 37  1  0  0  0
 35 38  1  0  0  0
 36 39  1  0  0  0
 41 42  1  0  0  0
 26 27  1  0  0  0
 21 24  1  0  0  0
 22 25  1  0  0  0
  6  9  1  0  0  0
  7 10  1  0  0  0
 12 13  1  0  0  0
 49 53  1  0  0  0
 50 54  1  0  0  0
 51 55  1  0  0  0
 57 58  1  0  0  0
M  END
> <minimizedAffinity>
-9.63678

$$$$
3W37_ACR_A_1001


 58 61  0  0  0  0  0  0  0  0999 V2000
   -1.2808    1.5721  -24.6149 C   0  0  0  0  0  0  0  0  0  0  0  0
   -2.1188    1.5266  -23.3673 C   0  0  0  0  0  0  0  0  0  0  0  0
   -1.3203    0.8753  -22.2469 C   0  0  0  0  0  0  0  0  0  0  0  0
   -1.0005   -0.5540  -22.6656 C   0  0  0  0  0  0  0  0  0  0  0  0
   -0.1032   -0.4581  -23.8815 C   0  0  0  0  0  0  0  0  0  0  0  0
   -2.4483    2.8693  -22.9904 O   0  0  0  0  0  0  0  0  0  0  0  0
   -2.2306    0.8443  -21.1491 O   0  0  0  0  0  0  0  0  0  0  0  0
   -0.7872    0.2473  -24.9313 O   0  0  0  0  0  0  0  0  0  0  0  0
   -1.6327    3.3702  -22.8327 H   0  0  0  0  0  0  0  0  0  0  0  0
   -3.0370    0.3731  -21.4109 H   0  0  0  0  0  0  0  0  0  0  0  0
    0.2674   -1.8546  -24.3805 C   0  0  0  0  0  0  0  0  0  0  0  0
    1.4670   -2.2804  -23.7060 O   0  0  0  0  0  0  0  0  0  0  0  0
    2.1839   -1.6552  -23.8959 H   0  0  0  0  0  0  0  0  0  0  0  0
   -0.2127   -1.2218  -21.6719 O   0  0  0  0  0  0  0  0  0  0  0  0
   -0.9292   -1.8523  -20.6133 C   0  0  0  0  0  0  0  0  0  0  0  0
    0.0609   -2.7586  -19.9010 C   0  0  0  0  0  0  0  0  0  0  0  0
    0.5353   -3.9085  -20.8030 C   0  0  0  0  0  0  0  0  0  0  0  0
   -0.6693   -4.7344  -21.2103 C   0  0  0  0  0  0  0  0  0  0  0  0
   -1.6113   -3.7780  -21.9433 C   0  0  0  0  0  0  0  0  0  0  0  0
   -2.8981   -4.4984  -22.2816 C   0  0  0  0  0  0  0  0  0  0  0  0
    1.1835   -1.9612  -19.4847 O   0  0  0  0  0  0  0  0  0  0  0  0
    1.3909   -4.6678  -19.9552 O   0  0  0  0  0  0  0  0  0  0  0  0
   -1.9986   -2.6651  -21.0949 O   0  0  0  0  0  0  0  0  0  0  0  0
    1.6073   -1.5679  -20.2635 H   0  0  0  0  0  0  0  0  0  0  0  0
    0.9034   -4.9368  -19.1609 H   0  0  0  0  0  0  0  0  0  0  0  0
   -0.3256   -5.9171  -22.0341 N   0  0  0  0  0  0  0  0  0  0  0  0
   -0.9379   -5.9058  -22.8498 H   0  0  0  0  0  0  0  0  0  0  0  0
   -0.4427   -7.2651  -21.4126 C   0  0  0  0  0  0  0  0  0  0  0  0
   -0.0836   -8.4838  -22.2977 C   0  0  0  0  0  0  0  0  0  0  0  0
   -1.2040   -8.7374  -23.3088 C   0  0  0  0  0  0  0  0  0  0  0  0
   -2.4101   -9.2697  -22.5451 C   0  0  0  0  0  0  0  0  0  0  0  0
   -2.7321   -8.3564  -21.4125 C   0  0  0  0  0  0  0  0  0  0  0  0
   -1.8491   -7.4846  -20.8724 C   0  0  0  0  0  0  0  0  0  0  0  0
    1.1679   -8.2663  -22.9701 O   0  0  0  0  0  0  0  0  0  0  0  0
   -0.8713   -9.7843  -24.2421 O   0  0  0  0  0  0  0  0  0  0  0  0
   -3.5269   -9.3446  -23.4533 O   0  0  0  0  0  0  0  0  0  0  0  0
    1.0964   -7.4860  -23.5418 H   0  0  0  0  0  0  0  0  0  0  0  0
   -0.7170  -10.6111  -23.7589 H   0  0  0  0  0  0  0  0  0  0  0  0
   -3.7145   -8.4617  -23.8086 H   0  0  0  0  0  0  0  0  0  0  0  0
   -4.1002   -8.4729  -20.8159 C   0  0  0  0  0  0  0  0  0  0  0  0
   -3.9620   -9.3574  -19.6890 O   0  0  0  0  0  0  0  0  0  0  0  0
   -3.6122  -10.2110  -19.9890 H   0  0  0  0  0  0  0  0  0  0  0  0
   -0.2329    2.4715  -24.2762 O   0  0  0  0  0  0  0  0  0  0  0  0
    2.5829    4.6226  -26.5464 C   0  0  0  0  0  0  0  0  0  0  0  0
    1.2021    4.4647  -27.1877 C   0  0  0  0  0  0  0  0  0  0  0  0
    0.1241    3.9755  -26.2096 C   0  0  0  0  0  0  0  0  0  0  0  0
    0.6011    2.7693  -25.4074 C   0  0  0  0  0  0  0  0  0  0  0  0
    1.9735    3.0414  -24.8299 C   0  0  0  0  0  0  0  0  0  0  0  0
    2.6314    5.6954  -25.5856 O   0  0  0  0  0  0  0  0  0  0  0  0
    0.7562    5.7071  -27.7550 O   0  0  0  0  0  0  0  0  0  0  0  0
   -1.0152    3.5734  -26.9784 O   0  0  0  0  0  0  0  0  0  0  0  0
    2.9078    3.4115  -25.8579 O   0  0  0  0  0  0  0  0  0  0  0  0
    2.0097    5.5117  -24.8641 H   0  0  0  0  0  0  0  0  0  0  0  0
    0.6492    6.3646  -27.0499 H   0  0  0  0  0  0  0  0  0  0  0  0
   -0.7622    2.8562  -27.5805 H   0  0  0  0  0  0  0  0  0  0  0  0
    2.4051    1.7411  -24.1879 C   0  0  0  0  0  0  0  0  0  0  0  0
    2.2931    1.8895  -22.7938 O   0  0  0  0  0  0  0  0  0  0  0  0
    2.8562    2.6228  -22.5004 H   0  0  0  0  0  0  0  0  0  0  0  0
 28 29  1  0  0  0
 28 33  1  0  0  0
 28 26  1  0  0  0
 29 30  1  0  0  0
 29 34  1  0  0  0
 30 31  1  0  0  0
 30 35  1  0  0  0
 31 32  1  0  0  0
 31 36  1  0  0  0
 32 40  1  0  0  0
 32 33  2  0  0  0
 40 41  1  0  0  0
 15 16  1  0  0  0
 15 23  1  0  0  0
 15 14  1  0  0  0
 16 17  1  0  0  0
 16 21  1  0  0  0
 17 18  1  0  0  0
 17 22  1  0  0  0
 18 19  1  0  0  0
 18 26  1  0  0  0
 19 20  1  0  0  0
 19 23  1  0  0  0
  1  2  1  0  0  0
  1  8  1  0  0  0
  1 43  1  0  0  0
  2  3  1  0  0  0
  2  6  1  0  0  0
  3  4  1  0  0  0
  3  7  1  0  0  0
  4  5  1  0  0  0
  4 14  1  0  0  0
  5 11  1  0  0  0
  5  8  1  0  0  0
 11 12  1  0  0  0
 44 45  1  0  0  0
 44 49  1  0  0  0
 44 52  1  0  0  0
 45 46  1  0  0  0
 45 50  1  0  0  0
 46 47  1  0  0  0
 46 51  1  0  0  0
 47 48  1  0  0  0
 47 43  1  0  0  0
 48 56  1  0  0  0
 48 52  1  0  0  0
 56 57  1  0  0  0
 34 37  1  0  0  0
 35 38  1  0  0  0
 36 39  1  0  0  0
 41 42  1  0  0  0
 26 27  1  0  0  0
 21 24  1  0  0  0
 22 25  1  0  0  0
  6  9  1  0  0  0
  7 10  1  0  0  0
 12 13  1  0  0  0
 49 53  1  0  0  0
 50 54  1  0  0  0
 51 55  1  0  0  0
 57 58  1  0  0  0
M  END
> <minimizedAffinity>
-9.09747

$$$$
3W37_ACR_A_1001


 58 61  0  0  0  0  0  0  0  0999 V2000
    0.1842    2.9699  -21.3310 C   0  0  0  0  0  0  0  0  0  0  0  0
   -1.0199    2.3437  -21.9782 C   0  0  0  0  0  0  0  0  0  0  0  0
   -1.0385    0.8526  -21.6725 C   0  0  0  0  0  0  0  0  0  0  0  0
    0.2131    0.2316  -22.2793 C   0  0  0  0  0  0  0  0  0  0  0  0
    1.3939    0.8408  -21.5533 C   0  0  0  0  0  0  0  0  0  0  0  0
   -2.1979    2.9500  -21.4321 O   0  0  0  0  0  0  0  0  0  0  0  0
   -2.1826    0.3717  -22.3757 O   0  0  0  0  0  0  0  0  0  0  0  0
    1.3862    2.2675  -21.7318 O   0  0  0  0  0  0  0  0  0  0  0  0
   -2.2181    2.8106  -20.4724 H   0  0  0  0  0  0  0  0  0  0  0  0
   -2.1047    0.6009  -23.3150 H   0  0  0  0  0  0  0  0  0  0  0  0
    2.7045    0.2782  -22.1033 C   0  0  0  0  0  0  0  0  0  0  0  0
    3.2964   -0.5712  -21.1016 O   0  0  0  0  0  0  0  0  0  0  0  0
    3.4643   -0.0547  -20.2979 H   0  0  0  0  0  0  0  0  0  0  0  0
    0.2850   -1.1717  -21.9975 O   0  0  0  0  0  0  0  0  0  0  0  0
   -0.5714   -1.6558  -20.9659 C   0  0  0  0  0  0  0  0  0  0  0  0
    0.2635   -2.6025  -20.1199 C   0  0  0  0  0  0  0  0  0  0  0  0
    0.6862   -3.8521  -20.9077 C   0  0  0  0  0  0  0  0  0  0  0  0
   -0.5613   -4.5837  -21.3631 C   0  0  0  0  0  0  0  0  0  0  0  0
   -1.3417   -3.5934  -22.2288 C   0  0  0  0  0  0  0  0  0  0  0  0
   -2.6654   -4.2076  -22.6288 C   0  0  0  0  0  0  0  0  0  0  0  0
    1.4261   -1.8906  -19.6606 O   0  0  0  0  0  0  0  0  0  0  0  0
    1.3924   -4.6305  -19.9470 O   0  0  0  0  0  0  0  0  0  0  0  0
   -1.6778   -2.3925  -21.4848 O   0  0  0  0  0  0  0  0  0  0  0  0
    1.9465   -1.5946  -20.4238 H   0  0  0  0  0  0  0  0  0  0  0  0
    0.8203   -4.7959  -19.1813 H   0  0  0  0  0  0  0  0  0  0  0  0
   -0.2775   -5.8479  -22.0820 N   0  0  0  0  0  0  0  0  0  0  0  0
   -0.8675   -5.8617  -22.9140 H   0  0  0  0  0  0  0  0  0  0  0  0
   -0.5000   -7.1319  -21.3616 C   0  0  0  0  0  0  0  0  0  0  0  0
   -0.3280   -8.4372  -22.1765 C   0  0  0  0  0  0  0  0  0  0  0  0
   -1.5287   -8.6295  -23.1056 C   0  0  0  0  0  0  0  0  0  0  0  0
   -2.7360   -8.9746  -22.2427 C   0  0  0  0  0  0  0  0  0  0  0  0
   -2.8887   -7.9603  -21.1617 C   0  0  0  0  0  0  0  0  0  0  0  0
   -1.8862   -7.1589  -20.7326 C   0  0  0  0  0  0  0  0  0  0  0  0
    0.8962   -8.4035  -22.9287 O   0  0  0  0  0  0  0  0  0  0  0  0
   -1.3675   -9.7647  -23.9792 O   0  0  0  0  0  0  0  0  0  0  0  0
   -3.9077   -8.9835  -23.0821 O   0  0  0  0  0  0  0  0  0  0  0  0
    0.8738   -7.6584  -23.5494 H   0  0  0  0  0  0  0  0  0  0  0  0
   -1.2733  -10.5707  -23.4479 H   0  0  0  0  0  0  0  0  0  0  0  0
   -4.0211   -8.1100  -23.4883 H   0  0  0  0  0  0  0  0  0  0  0  0
   -4.2224   -7.8858  -20.4859 C   0  0  0  0  0  0  0  0  0  0  0  0
   -4.7081   -9.2394  -20.4276 O   0  0  0  0  0  0  0  0  0  0  0  0
   -4.7649   -9.6014  -21.3258 H   0  0  0  0  0  0  0  0  0  0  0  0
   -0.0810    2.8355  -19.9406 O   0  0  0  0  0  0  0  0  0  0  0  0
    0.1462    5.4076  -16.6175 C   0  0  0  0  0  0  0  0  0  0  0  0
   -0.6195    5.9562  -17.8239 C   0  0  0  0  0  0  0  0  0  0  0  0
   -0.9626    4.8863  -18.8707 C   0  0  0  0  0  0  0  0  0  0  0  0
    0.2517    4.0306  -19.2160 C   0  0  0  0  0  0  0  0  0  0  0  0
    0.9262    3.5530  -17.9480 C   0  0  0  0  0  0  0  0  0  0  0  0
   -0.6537    4.5283  -15.8030 O   0  0  0  0  0  0  0  0  0  0  0  0
   -1.8449    6.5823  -17.4107 O   0  0  0  0  0  0  0  0  0  0  0  0
   -1.3838    5.5588  -20.0628 O   0  0  0  0  0  0  0  0  0  0  0  0
    1.2673    4.6561  -17.0916 O   0  0  0  0  0  0  0  0  0  0  0  0
   -0.9289    3.7613  -16.3292 H   0  0  0  0  0  0  0  0  0  0  0  0
   -2.4257    5.9198  -17.0050 H   0  0  0  0  0  0  0  0  0  0  0  0
   -0.6644    6.1229  -20.3872 H   0  0  0  0  0  0  0  0  0  0  0  0
    2.1852    2.8477  -18.4027 C   0  0  0  0  0  0  0  0  0  0  0  0
    3.2568    3.3397  -17.6363 O   0  0  0  0  0  0  0  0  0  0  0  0
    3.3329    4.2981  -17.7646 H   0  0  0  0  0  0  0  0  0  0  0  0
 28 29  1  0  0  0
 28 33  1  0  0  0
 28 26  1  0  0  0
 29 30  1  0  0  0
 29 34  1  0  0  0
 30 31  1  0  0  0
 30 35  1  0  0  0
 31 32  1  0  0  0
 31 36  1  0  0  0
 32 40  1  0  0  0
 32 33  2  0  0  0
 40 41  1  0  0  0
 15 16  1  0  0  0
 15 23  1  0  0  0
 15 14  1  0  0  0
 16 17  1  0  0  0
 16 21  1  0  0  0
 17 18  1  0  0  0
 17 22  1  0  0  0
 18 19  1  0  0  0
 18 26  1  0  0  0
 19 20  1  0  0  0
 19 23  1  0  0  0
  1  2  1  0  0  0
  1  8  1  0  0  0
  1 43  1  0  0  0
  2  3  1  0  0  0
  2  6  1  0  0  0
  3  4  1  0  0  0
  3  7  1  0  0  0
  4  5  1  0  0  0
  4 14  1  0  0  0
  5 11  1  0  0  0
  5  8  1  0  0  0
 11 12  1  0  0  0
 44 45  1  0  0  0
 44 49  1  0  0  0
 44 52  1  0  0  0
 45 46  1  0  0  0
 45 50  1  0  0  0
 46 47  1  0  0  0
 46 51  1  0  0  0
 47 48  1  0  0  0
 47 43  1  0  0  0
 48 56  1  0  0  0
 48 52  1  0  0  0
 56 57  1  0  0  0
 34 37  1  0  0  0
 35 38  1  0  0  0
 36 39  1  0  0  0
 41 42  1  0  0  0
 26 27  1  0  0  0
 21 24  1  0  0  0
 22 25  1  0  0  0
  6  9  1  0  0  0
  7 10  1  0  0  0
 12 13  1  0  0  0
 49 53  1  0  0  0
 50 54  1  0  0  0
 51 55  1  0  0  0
 57 58  1  0  0  0
M  END
> <minimizedAffinity>
-8.91814

$$$$
3W37_ACR_A_1001


 58 61  0  0  0  0  0  0  0  0999 V2000
    2.4836    2.0846  -21.7469 C   0  0  0  0  0  0  0  0  0  0  0  0
    3.1621    0.7530  -21.5818 C   0  0  0  0  0  0  0  0  0  0  0  0
    2.2289   -0.3511  -22.0586 C   0  0  0  0  0  0  0  0  0  0  0  0
    0.9860   -0.3304  -21.1781 C   0  0  0  0  0  0  0  0  0  0  0  0
    0.3016    0.9971  -21.4268 C   0  0  0  0  0  0  0  0  0  0  0  0
    4.3494    0.7438  -22.3842 O   0  0  0  0  0  0  0  0  0  0  0  0
    2.9575   -1.5508  -21.8044 O   0  0  0  0  0  0  0  0  0  0  0  0
    1.1944    2.0715  -21.0861 O   0  0  0  0  0  0  0  0  0  0  0  0
    4.1128    0.8906  -23.3133 H   0  0  0  0  0  0  0  0  0  0  0  0
    3.1993   -1.5895  -20.8658 H   0  0  0  0  0  0  0  0  0  0  0  0
   -0.9622    1.1119  -20.5747 C   0  0  0  0  0  0  0  0  0  0  0  0
   -1.3519    2.4975  -20.5150 O   0  0  0  0  0  0  0  0  0  0  0  0
   -0.6342    3.0186  -20.1222 H   0  0  0  0  0  0  0  0  0  0  0  0
    0.0390   -1.3225  -21.5939 O   0  0  0  0  0  0  0  0  0  0  0  0
   -0.7281   -1.9383  -20.5624 C   0  0  0  0  0  0  0  0  0  0  0  0
    0.2036   -2.9033  -19.8484 C   0  0  0  0  0  0  0  0  0  0  0  0
    0.6426   -4.0571  -20.7631 C   0  0  0  0  0  0  0  0  0  0  0  0
   -0.5903   -4.8177  -21.2106 C   0  0  0  0  0  0  0  0  0  0  0  0
   -1.4711   -3.8046  -21.9435 C   0  0  0  0  0  0  0  0  0  0  0  0
   -2.7828   -4.4574  -22.3216 C   0  0  0  0  0  0  0  0  0  0  0  0
    1.3531   -2.1675  -19.3941 O   0  0  0  0  0  0  0  0  0  0  0  0
    1.4440   -4.8716  -19.9135 O   0  0  0  0  0  0  0  0  0  0  0  0
   -1.8239   -2.6908  -21.0813 O   0  0  0  0  0  0  0  0  0  0  0  0
    1.8110   -1.7800  -20.1564 H   0  0  0  0  0  0  0  0  0  0  0  0
    0.9280   -5.1321  -19.1346 H   0  0  0  0  0  0  0  0  0  0  0  0
   -0.2849   -5.9997  -22.0505 N   0  0  0  0  0  0  0  0  0  0  0  0
   -0.9071   -5.9659  -22.8580 H   0  0  0  0  0  0  0  0  0  0  0  0
   -0.4257   -7.3509  -21.4409 C   0  0  0  0  0  0  0  0  0  0  0  0
   -0.0925   -8.5681  -22.3382 C   0  0  0  0  0  0  0  0  0  0  0  0
   -1.2208   -8.7910  -23.3479 C   0  0  0  0  0  0  0  0  0  0  0  0
   -2.4343   -9.3073  -22.5851 C   0  0  0  0  0  0  0  0  0  0  0  0
   -2.7353   -8.3985  -21.4431 C   0  0  0  0  0  0  0  0  0  0  0  0
   -1.8343   -7.5486  -20.8981 C   0  0  0  0  0  0  0  0  0  0  0  0
    1.1607   -8.3682  -23.0128 O   0  0  0  0  0  0  0  0  0  0  0  0
   -0.9109   -9.8355  -24.2917 O   0  0  0  0  0  0  0  0  0  0  0  0
   -3.5552   -9.3528  -23.4902 O   0  0  0  0  0  0  0  0  0  0  0  0
    1.1023   -7.5814  -23.5771 H   0  0  0  0  0  0  0  0  0  0  0  0
   -0.7708  -10.6695  -23.8166 H   0  0  0  0  0  0  0  0  0  0  0  0
   -3.7271   -8.4633  -23.8369 H   0  0  0  0  0  0  0  0  0  0  0  0
   -4.1035   -8.4945  -20.8431 C   0  0  0  0  0  0  0  0  0  0  0  0
   -3.9767   -9.3845  -19.7192 O   0  0  0  0  0  0  0  0  0  0  0  0
   -3.6416  -10.2427  -20.0226 H   0  0  0  0  0  0  0  0  0  0  0  0
    2.3656    2.2224  -23.1572 O   0  0  0  0  0  0  0  0  0  0  0  0
    3.0489    6.3714  -22.9882 C   0  0  0  0  0  0  0  0  0  0  0  0
    1.5890    5.9375  -22.8356 C   0  0  0  0  0  0  0  0  0  0  0  0
    1.4205    4.4342  -22.5720 C   0  0  0  0  0  0  0  0  0  0  0  0
    2.2397    3.5985  -23.5501 C   0  0  0  0  0  0  0  0  0  0  0  0
    3.6573    4.1243  -23.6194 C   0  0  0  0  0  0  0  0  0  0  0  0
    3.7938    6.2621  -21.7595 O   0  0  0  0  0  0  0  0  0  0  0  0
    0.9526    6.6506  -21.7629 O   0  0  0  0  0  0  0  0  0  0  0  0
    0.0388    4.1084  -22.7607 O   0  0  0  0  0  0  0  0  0  0  0  0
    3.6791    5.5227  -23.9520 O   0  0  0  0  0  0  0  0  0  0  0  0
    3.8081    5.3360  -21.4713 H   0  0  0  0  0  0  0  0  0  0  0  0
    1.3862    6.4275  -20.9243 H   0  0  0  0  0  0  0  0  0  0  0  0
   -0.2213    4.3177  -23.6715 H   0  0  0  0  0  0  0  0  0  0  0  0
    4.3299    3.3256  -24.7143 C   0  0  0  0  0  0  0  0  0  0  0  0
    5.3594    2.5687  -24.1269 O   0  0  0  0  0  0  0  0  0  0  0  0
    5.9923    3.1637  -23.6954 H   0  0  0  0  0  0  0  0  0  0  0  0
 28 29  1  0  0  0
 28 33  1  0  0  0
 28 26  1  0  0  0
 29 30  1  0  0  0
 29 34  1  0  0  0
 30 31  1  0  0  0
 30 35  1  0  0  0
 31 32  1  0  0  0
 31 36  1  0  0  0
 32 40  1  0  0  0
 32 33  2  0  0  0
 40 41  1  0  0  0
 15 16  1  0  0  0
 15 23  1  0  0  0
 15 14  1  0  0  0
 16 17  1  0  0  0
 16 21  1  0  0  0
 17 18  1  0  0  0
 17 22  1  0  0  0
 18 19  1  0  0  0
 18 26  1  0  0  0
 19 20  1  0  0  0
 19 23  1  0  0  0
  1  2  1  0  0  0
  1  8  1  0  0  0
  1 43  1  0  0  0
  2  3  1  0  0  0
  2  6  1  0  0  0
  3  4  1  0  0  0
  3  7  1  0  0  0
  4  5  1  0  0  0
  4 14  1  0  0  0
  5 11  1  0  0  0
  5  8  1  0  0  0
 11 12  1  0  0  0
 44 45  1  0  0  0
 44 49  1  0  0  0
 44 52  1  0  0  0
 45 46  1  0  0  0
 45 50  1  0  0  0
 46 47  1  0  0  0
 46 51  1  0  0  0
 47 48  1  0  0  0
 47 43  1  0  0  0
 48 56  1  0  0  0
 48 52  1  0  0  0
 56 57  1  0  0  0
 34 37  1  0  0  0
 35 38  1  0  0  0
 36 39  1  0  0  0
 41 42  1  0  0  0
 26 27  1  0  0  0
 21 24  1  0  0  0
 22 25  1  0  0  0
  6  9  1  0  0  0
  7 10  1  0  0  0
 12 13  1  0  0  0
 49 53  1  0  0  0
 50 54  1  0  0  0
 51 55  1  0  0  0
 57 58  1  0  0  0
M  END
> <minimizedAffinity>
-8.79722

$$$$
3W37_ACR_A_1001


 58 61  0  0  0  0  0  0  0  0999 V2000
   -3.2644   -0.2924  -26.0171 C   0  0  0  0  0  0  0  0  0  0  0  0
   -4.1789   -0.5337  -24.8482 C   0  0  0  0  0  0  0  0  0  0  0  0
   -3.3841   -0.4227  -23.5547 C   0  0  0  0  0  0  0  0  0  0  0  0
   -2.3157   -1.5085  -23.5636 C   0  0  0  0  0  0  0  0  0  0  0  0
   -1.3826   -1.1879  -24.7121 C   0  0  0  0  0  0  0  0  0  0  0  0
   -5.2040    0.4677  -24.8572 O   0  0  0  0  0  0  0  0  0  0  0  0
   -4.3391   -0.7201  -22.5377 O   0  0  0  0  0  0  0  0  0  0  0  0
   -2.1211   -1.1793  -25.9458 O   0  0  0  0  0  0  0  0  0  0  0  0
   -4.7981    1.3464  -24.7941 H   0  0  0  0  0  0  0  0  0  0  0  0
   -4.7330   -1.5899  -22.7084 H   0  0  0  0  0  0  0  0  0  0  0  0
   -0.2730   -2.2353  -24.8044 C   0  0  0  0  0  0  0  0  0  0  0  0
    0.8149   -1.8287  -23.9520 O   0  0  0  0  0  0  0  0  0  0  0  0
    1.1456   -0.9636  -24.2404 H   0  0  0  0  0  0  0  0  0  0  0  0
   -1.4981   -1.4416  -22.3884 O   0  0  0  0  0  0  0  0  0  0  0  0
   -2.0063   -2.0896  -21.2250 C   0  0  0  0  0  0  0  0  0  0  0  0
   -0.7992   -2.5363  -20.4171 C   0  0  0  0  0  0  0  0  0  0  0  0
    0.0140   -3.6134  -21.1515 C   0  0  0  0  0  0  0  0  0  0  0  0
   -0.8784   -4.8155  -21.3919 C   0  0  0  0  0  0  0  0  0  0  0  0
   -2.0543   -4.3103  -22.2293 C   0  0  0  0  0  0  0  0  0  0  0  0
   -3.0579   -5.4274  -22.4146 C   0  0  0  0  0  0  0  0  0  0  0  0
    0.0234   -1.3844  -20.1609 O   0  0  0  0  0  0  0  0  0  0  0  0
    1.0464   -3.9416  -20.2274 O   0  0  0  0  0  0  0  0  0  0  0  0
   -2.7726   -3.2500  -21.5451 O   0  0  0  0  0  0  0  0  0  0  0  0
    0.3201   -1.0052  -21.0030 H   0  0  0  0  0  0  0  0  0  0  0  0
    0.6511   -4.2205  -19.3867 H   0  0  0  0  0  0  0  0  0  0  0  0
   -0.1809   -5.9509  -22.0399 N   0  0  0  0  0  0  0  0  0  0  0  0
   -0.5629   -6.0430  -22.9812 H   0  0  0  0  0  0  0  0  0  0  0  0
   -0.2678   -7.2902  -21.3951 C   0  0  0  0  0  0  0  0  0  0  0  0
    0.0395   -8.5217  -22.2819 C   0  0  0  0  0  0  0  0  0  0  0  0
   -1.1346   -8.7847  -23.2275 C   0  0  0  0  0  0  0  0  0  0  0  0
   -2.2991   -9.3028  -22.3927 C   0  0  0  0  0  0  0  0  0  0  0  0
   -2.5568   -8.3735  -21.2566 C   0  0  0  0  0  0  0  0  0  0  0  0
   -1.6436   -7.4977  -20.7768 C   0  0  0  0  0  0  0  0  0  0  0  0
    1.2534   -8.3174  -23.0239 O   0  0  0  0  0  0  0  0  0  0  0  0
   -0.8557   -9.8450  -24.1633 O   0  0  0  0  0  0  0  0  0  0  0  0
   -3.4636   -9.3858  -23.2381 O   0  0  0  0  0  0  0  0  0  0  0  0
    1.1532   -7.5444  -23.6012 H   0  0  0  0  0  0  0  0  0  0  0  0
   -0.6778  -10.6659  -23.6782 H   0  0  0  0  0  0  0  0  0  0  0  0
   -3.6677   -8.5071  -23.5945 H   0  0  0  0  0  0  0  0  0  0  0  0
   -3.8909   -8.4774  -20.5855 C   0  0  0  0  0  0  0  0  0  0  0  0
   -3.7179   -9.4232  -19.5145 O   0  0  0  0  0  0  0  0  0  0  0  0
   -3.4161  -10.2707  -19.8772 H   0  0  0  0  0  0  0  0  0  0  0  0
   -2.8972    1.0737  -25.8725 O   0  0  0  0  0  0  0  0  0  0  0  0
   -1.3895    3.8916  -28.6104 C   0  0  0  0  0  0  0  0  0  0  0  0
   -2.2237    2.7621  -29.2198 C   0  0  0  0  0  0  0  0  0  0  0  0
   -3.0195    1.9585  -28.1811 C   0  0  0  0  0  0  0  0  0  0  0  0
   -2.1450    1.5463  -27.0015 C   0  0  0  0  0  0  0  0  0  0  0  0
   -1.3679    2.7405  -26.4908 C   0  0  0  0  0  0  0  0  0  0  0  0
   -2.2002    4.9500  -28.0636 O   0  0  0  0  0  0  0  0  0  0  0  0
   -3.1511    3.2764  -30.1891 O   0  0  0  0  0  0  0  0  0  0  0  0
   -3.4936    0.7669  -28.8184 O   0  0  0  0  0  0  0  0  0  0  0  0
   -0.6038    3.3540  -27.5427 O   0  0  0  0  0  0  0  0  0  0  0  0
   -2.7537    4.5973  -27.3493 H   0  0  0  0  0  0  0  0  0  0  0  0
   -3.7827    3.8676  -29.7503 H   0  0  0  0  0  0  0  0  0  0  0  0
   -2.7383    0.2466  -29.1340 H   0  0  0  0  0  0  0  0  0  0  0  0
   -0.4362    2.1919  -25.4324 C   0  0  0  0  0  0  0  0  0  0  0  0
   -1.0637    2.3447  -24.1831 O   0  0  0  0  0  0  0  0  0  0  0  0
   -1.2485    3.2840  -24.0268 H   0  0  0  0  0  0  0  0  0  0  0  0
 28 29  1  0  0  0
 28 33  1  0  0  0
 28 26  1  0  0  0
 29 30  1  0  0  0
 29 34  1  0  0  0
 30 31  1  0  0  0
 30 35  1  0  0  0
 31 32  1  0  0  0
 31 36  1  0  0  0
 32 40  1  0  0  0
 32 33  2  0  0  0
 40 41  1  0  0  0
 15 16  1  0  0  0
 15 23  1  0  0  0
 15 14  1  0  0  0
 16 17  1  0  0  0
 16 21  1  0  0  0
 17 18  1  0  0  0
 17 22  1  0  0  0
 18 19  1  0  0  0
 18 26  1  0  0  0
 19 20  1  0  0  0
 19 23  1  0  0  0
  1  2  1  0  0  0
  1  8  1  0  0  0
  1 43  1  0  0  0
  2  3  1  0  0  0
  2  6  1  0  0  0
  3  4  1  0  0  0
  3  7  1  0  0  0
  4  5  1  0  0  0
  4 14  1  0  0  0
  5 11  1  0  0  0
  5  8  1  0  0  0
 11 12  1  0  0  0
 44 45  1  0  0  0
 44 49  1  0  0  0
 44 52  1  0  0  0
 45 46  1  0  0  0
 45 50  1  0  0  0
 46 47  1  0  0  0
 46 51  1  0  0  0
 47 48  1  0  0  0
 47 43  1  0  0  0
 48 56  1  0  0  0
 48 52  1  0  0  0
 56 57  1  0  0  0
 34 37  1  0  0  0
 35 38  1  0  0  0
 36 39  1  0  0  0
 41 42  1  0  0  0
 26 27  1  0  0  0
 21 24  1  0  0  0
 22 25  1  0  0  0
  6  9  1  0  0  0
  7 10  1  0  0  0
 12 13  1  0  0  0
 49 53  1  0  0  0
 50 54  1  0  0  0
 51 55  1  0  0  0
 57 58  1  0  0  0
M  END
> <minimizedAffinity>
-8.60193

$$$$
3W37_ACR_A_1001


 58 61  0  0  0  0  0  0  0  0999 V2000
   -4.2305   -0.1344  -26.8159 C   0  0  0  0  0  0  0  0  0  0  0  0
   -4.6130    0.4091  -25.4671 C   0  0  0  0  0  0  0  0  0  0  0  0
   -3.3614    0.8797  -24.7396 C   0  0  0  0  0  0  0  0  0  0  0  0
   -2.4541   -0.3266  -24.5341 C   0  0  0  0  0  0  0  0  0  0  0  0
   -2.0417   -0.7975  -25.9128 C   0  0  0  0  0  0  0  0  0  0  0  0
   -5.4928    1.5239  -25.6577 O   0  0  0  0  0  0  0  0  0  0  0  0
   -3.8451    1.3176  -23.4712 O   0  0  0  0  0  0  0  0  0  0  0  0
   -3.2106   -1.1530  -26.6709 O   0  0  0  0  0  0  0  0  0  0  0  0
   -5.0431    2.2048  -26.1822 H   0  0  0  0  0  0  0  0  0  0  0  0
   -4.3265    0.5936  -23.0412 H   0  0  0  0  0  0  0  0  0  0  0  0
   -1.1279   -2.0183  -25.8066 C   0  0  0  0  0  0  0  0  0  0  0  0
    0.2200   -1.5649  -25.5770 O   0  0  0  0  0  0  0  0  0  0  0  0
    0.5007   -0.9990  -26.3131 H   0  0  0  0  0  0  0  0  0  0  0  0
   -1.2319    0.0478  -23.8862 O   0  0  0  0  0  0  0  0  0  0  0  0
   -1.2097   -0.0576  -22.4649 C   0  0  0  0  0  0  0  0  0  0  0  0
   -0.0052   -0.9149  -22.1139 C   0  0  0  0  0  0  0  0  0  0  0  0
   -0.1628   -2.3573  -22.6192 C   0  0  0  0  0  0  0  0  0  0  0  0
   -1.3931   -2.9656  -21.9748 C   0  0  0  0  0  0  0  0  0  0  0  0
   -2.5697   -2.0791  -22.3862 C   0  0  0  0  0  0  0  0  0  0  0  0
   -3.8251   -2.5503  -21.6851 C   0  0  0  0  0  0  0  0  0  0  0  0
    1.1633   -0.3115  -22.6969 O   0  0  0  0  0  0  0  0  0  0  0  0
    1.0136   -3.0073  -22.1488 O   0  0  0  0  0  0  0  0  0  0  0  0
   -2.3731   -0.7069  -21.9540 O   0  0  0  0  0  0  0  0  0  0  0  0
    1.0617   -0.2755  -23.6609 H   0  0  0  0  0  0  0  0  0  0  0  0
    1.0743   -2.9087  -21.1858 H   0  0  0  0  0  0  0  0  0  0  0  0
   -1.6121   -4.3851  -22.3389 N   0  0  0  0  0  0  0  0  0  0  0  0
   -2.5136   -4.4403  -22.8128 H   0  0  0  0  0  0  0  0  0  0  0  0
   -1.6247   -5.3974  -21.2469 C   0  0  0  0  0  0  0  0  0  0  0  0
   -0.3854   -6.3175  -21.1232 C   0  0  0  0  0  0  0  0  0  0  0  0
   -0.4059   -7.3660  -22.2378 C   0  0  0  0  0  0  0  0  0  0  0  0
   -1.5340   -8.3448  -21.9371 C   0  0  0  0  0  0  0  0  0  0  0  0
   -2.8018   -7.5964  -21.7063 C   0  0  0  0  0  0  0  0  0  0  0  0
   -2.8534   -6.2895  -21.3589 C   0  0  0  0  0  0  0  0  0  0  0  0
    0.8240   -5.5429  -21.1766 O   0  0  0  0  0  0  0  0  0  0  0  0
    0.7869   -8.1753  -22.2486 O   0  0  0  0  0  0  0  0  0  0  0  0
   -1.6805   -9.2307  -23.0646 O   0  0  0  0  0  0  0  0  0  0  0  0
    0.8735   -5.0788  -22.0270 H   0  0  0  0  0  0  0  0  0  0  0  0
    0.8670   -8.6444  -21.4034 H   0  0  0  0  0  0  0  0  0  0  0  0
   -1.8853   -8.7124  -23.8585 H   0  0  0  0  0  0  0  0  0  0  0  0
   -4.0766   -8.3741  -21.8119 C   0  0  0  0  0  0  0  0  0  0  0  0
   -4.3879   -8.7995  -20.4727 O   0  0  0  0  0  0  0  0  0  0  0  0
   -3.6551   -9.3305  -20.1235 H   0  0  0  0  0  0  0  0  0  0  0  0
   -3.7539    1.0112  -27.5103 O   0  0  0  0  0  0  0  0  0  0  0  0
   -6.3906    2.4029  -30.4802 C   0  0  0  0  0  0  0  0  0  0  0  0
   -6.4217    0.8938  -30.2266 C   0  0  0  0  0  0  0  0  0  0  0  0
   -5.7064    0.4744  -28.9340 C   0  0  0  0  0  0  0  0  0  0  0  0
   -4.3272    1.1158  -28.8235 C   0  0  0  0  0  0  0  0  0  0  0  0
   -4.4231    2.6010  -29.0991 C   0  0  0  0  0  0  0  0  0  0  0  0
   -7.1746    3.1445  -29.5253 O   0  0  0  0  0  0  0  0  0  0  0  0
   -7.7742    0.4134  -30.1617 O   0  0  0  0  0  0  0  0  0  0  0  0
   -5.5323   -0.9465  -28.9708 O   0  0  0  0  0  0  0  0  0  0  0  0
   -5.0381    2.8562  -30.3732 O   0  0  0  0  0  0  0  0  0  0  0  0
   -6.8160    3.0052  -28.6349 H   0  0  0  0  0  0  0  0  0  0  0  0
   -8.2259    0.8202  -29.4058 H   0  0  0  0  0  0  0  0  0  0  0  0
   -4.9944   -1.1865  -29.7415 H   0  0  0  0  0  0  0  0  0  0  0  0
   -2.9954    3.1017  -29.1087 C   0  0  0  0  0  0  0  0  0  0  0  0
   -2.1868    2.0914  -29.6595 O   0  0  0  0  0  0  0  0  0  0  0  0
   -2.2664    1.2861  -29.1246 H   0  0  0  0  0  0  0  0  0  0  0  0
 28 29  1  0  0  0
 28 33  1  0  0  0
 28 26  1  0  0  0
 29 30  1  0  0  0
 29 34  1  0  0  0
 30 31  1  0  0  0
 30 35  1  0  0  0
 31 32  1  0  0  0
 31 36  1  0  0  0
 32 40  1  0  0  0
 32 33  2  0  0  0
 40 41  1  0  0  0
 15 16  1  0  0  0
 15 23  1  0  0  0
 15 14  1  0  0  0
 16 17  1  0  0  0
 16 21  1  0  0  0
 17 18  1  0  0  0
 17 22  1  0  0  0
 18 19  1  0  0  0
 18 26  1  0  0  0
 19 20  1  0  0  0
 19 23  1  0  0  0
  1  2  1  0  0  0
  1  8  1  0  0  0
  1 43  1  0  0  0
  2  3  1  0  0  0
  2  6  1  0  0  0
  3  4  1  0  0  0
  3  7  1  0  0  0
  4  5  1  0  0  0
  4 14  1  0  0  0
  5 11  1  0  0  0
  5  8  1  0  0  0
 11 12  1  0  0  0
 44 45  1  0  0  0
 44 49  1  0  0  0
 44 52  1  0  0  0
 45 46  1  0  0  0
 45 50  1  0  0  0
 46 47  1  0  0  0
 46 51  1  0  0  0
 47 48  1  0  0  0
 47 43  1  0  0  0
 48 56  1  0  0  0
 48 52  1  0  0  0
 56 57  1  0  0  0
 34 37  1  0  0  0
 35 38  1  0  0  0
 36 39  1  0  0  0
 41 42  1  0  0  0
 26 27  1  0  0  0
 21 24  1  0  0  0
 22 25  1  0  0  0
  6  9  1  0  0  0
  7 10  1  0  0  0
 12 13  1  0  0  0
 49 53  1  0  0  0
 50 54  1  0  0  0
 51 55  1  0  0  0
 57 58  1  0  0  0
M  END
> <minimizedAffinity>
-8.46263

$$$$
