3JYR_ACR_A_371


 58 61  0  0  0  0  0  0  0  0999 V2000
   15.9222   -4.3127   12.4710 C   0  0  0  0  0  0  0  0  0  0  0  0
   15.1719   -4.7982   13.7074 C   0  0  0  0  0  0  0  0  0  0  0  0
   16.1771   -5.4730   14.6386 C   0  0  0  0  0  0  0  0  0  0  0  0
   16.8321   -6.6749   13.9355 C   0  0  0  0  0  0  0  0  0  0  0  0
   17.4514   -6.2249   12.6035 C   0  0  0  0  0  0  0  0  0  0  0  0
   14.5604   -3.6622   14.3434 O   0  0  0  0  0  0  0  0  0  0  0  0
   15.5147   -5.8696   15.8602 O   0  0  0  0  0  0  0  0  0  0  0  0
   16.4908   -5.4637   11.8475 O   0  0  0  0  0  0  0  0  0  0  0  0
   15.2448   -3.0166   14.5795 H   0  0  0  0  0  0  0  0  0  0  0  0
   14.8048   -6.4975   15.6539 H   0  0  0  0  0  0  0  0  0  0  0  0
   17.8695   -7.4315   11.7626 C   0  0  0  0  0  0  0  0  0  0  0  0
   18.5603   -6.9472   10.6006 O   0  0  0  0  0  0  0  0  0  0  0  0
   17.9728   -6.3643   10.0947 H   0  0  0  0  0  0  0  0  0  0  0  0
   17.8825   -7.1894   14.7360 O   0  0  0  0  0  0  0  0  0  0  0  0
   17.5669   -8.3741   15.4574 C   0  0  0  0  0  0  0  0  0  0  0  0
   18.1209   -8.2846   16.8832 C   0  0  0  0  0  0  0  0  0  0  0  0
   19.6588   -8.2379   16.8623 C   0  0  0  0  0  0  0  0  0  0  0  0
   20.3025   -9.3220   15.9862 C   0  0  0  0  0  0  0  0  0  0  0  0
   19.5894   -9.4457   14.6330 C   0  0  0  0  0  0  0  0  0  0  0  0
   20.0271  -10.7289   13.9148 C   0  0  0  0  0  0  0  0  0  0  0  0
   17.6084   -7.1280   17.5586 O   0  0  0  0  0  0  0  0  0  0  0  0
   20.1478   -8.3233   18.2164 O   0  0  0  0  0  0  0  0  0  0  0  0
   18.1606   -9.4695   14.7671 O   0  0  0  0  0  0  0  0  0  0  0  0
   17.8871   -6.3279   17.0863 H   0  0  0  0  0  0  0  0  0  0  0  0
   19.8823   -9.1723   18.6031 H   0  0  0  0  0  0  0  0  0  0  0  0
   21.7128   -8.9935   15.7269 N   0  0  0  0  0  0  0  0  0  0  0  0
   21.9927   -9.5148   14.8961 H   0  0  0  0  0  0  0  0  0  0  0  0
   22.7049   -9.2679   16.7561 C   0  0  0  0  0  0  0  0  0  0  0  0
   23.8052   -8.1863   16.8257 C   0  0  0  0  0  0  0  0  0  0  0  0
   24.9864   -8.5143   15.9238 C   0  0  0  0  0  0  0  0  0  0  0  0
   25.6107   -9.8778   16.2291 C   0  0  0  0  0  0  0  0  0  0  0  0
   24.5661  -10.9488   16.3490 C   0  0  0  0  0  0  0  0  0  0  0  0
   23.2673  -10.6690   16.5546 C   0  0  0  0  0  0  0  0  0  0  0  0
   23.3176   -6.8988   16.4177 O   0  0  0  0  0  0  0  0  0  0  0  0
   25.9803   -7.4884   16.0693 O   0  0  0  0  0  0  0  0  0  0  0  0
   26.5269  -10.2034   15.1693 O   0  0  0  0  0  0  0  0  0  0  0  0
   23.0444   -6.9364   15.4878 H   0  0  0  0  0  0  0  0  0  0  0  0
   26.2935   -7.4694   16.9872 H   0  0  0  0  0  0  0  0  0  0  0  0
   26.0459  -10.2475   14.3282 H   0  0  0  0  0  0  0  0  0  0  0  0
   24.9852  -12.3950   16.2428 C   0  0  0  0  0  0  0  0  0  0  0  0
   23.9532  -13.1100   15.5589 O   0  0  0  0  0  0  0  0  0  0  0  0
   23.1227  -13.0313   16.0539 H   0  0  0  0  0  0  0  0  0  0  0  0
   16.9476   -3.3999   12.8629 O   0  0  0  0  0  0  0  0  0  0  0  0
   18.2273    0.3504   11.6476 C   0  0  0  0  0  0  0  0  0  0  0  0
   16.7476    0.0323   11.4641 C   0  0  0  0  0  0  0  0  0  0  0  0
   16.3254   -1.1800   12.2976 C   0  0  0  0  0  0  0  0  0  0  0  0
   17.2254   -2.3602   11.9395 C   0  0  0  0  0  0  0  0  0  0  0  0
   18.6978   -1.9673   12.1105 C   0  0  0  0  0  0  0  0  0  0  0  0
   18.4767    0.7491   12.9913 O   0  0  0  0  0  0  0  0  0  0  0  0
   16.0235    1.1971   11.8597 O   0  0  0  0  0  0  0  0  0  0  0  0
   14.9608   -1.5229   12.0471 O   0  0  0  0  0  0  0  0  0  0  0  0
   19.0292   -0.7897   11.3349 O   0  0  0  0  0  0  0  0  0  0  0  0
   18.2432    0.0244   13.5923 H   0  0  0  0  0  0  0  0  0  0  0  0
   16.2244    1.4037   12.7859 H   0  0  0  0  0  0  0  0  0  0  0  0
   14.8500   -1.7447   11.1093 H   0  0  0  0  0  0  0  0  0  0  0  0
   19.6412   -3.1202   11.7193 C   0  0  0  0  0  0  0  0  0  0  0  0
   19.0345   -3.9248   10.6878 O   0  0  0  0  0  0  0  0  0  0  0  0
   18.2006   -4.2961   11.0160 H   0  0  0  0  0  0  0  0  0  0  0  0
 28 29  1  0  0  0
 28 33  1  0  0  0
 28 26  1  0  0  0
 29 30  1  0  0  0
 29 34  1  0  0  0
 30 31  1  0  0  0
 30 35  1  0  0  0
 31 32  1  0  0  0
 31 36  1  0  0  0
 32 40  1  0  0  0
 32 33  2  0  0  0
 40 41  1  0  0  0
 15 16  1  0  0  0
 15 23  1  0  0  0
 15 14  1  0  0  0
 16 17  1  0  0  0
 16 21  1  0  0  0
 17 18  1  0  0  0
 17 22  1  0  0  0
 18 19  1  0  0  0
 18 26  1  0  0  0
 19 20  1  0  0  0
 19 23  1  0  0  0
  1  2  1  0  0  0
  1  8  1  0  0  0
  1 43  1  0  0  0
  2  3  1  0  0  0
  2  6  1  0  0  0
  3  4  1  0  0  0
  3  7  1  0  0  0
  4  5  1  0  0  0
  4 14  1  0  0  0
  5 11  1  0  0  0
  5  8  1  0  0  0
 11 12  1  0  0  0
 44 45  1  0  0  0
 44 49  1  0  0  0
 44 52  1  0  0  0
 45 46  1  0  0  0
 45 50  1  0  0  0
 46 47  1  0  0  0
 46 51  1  0  0  0
 47 48  1  0  0  0
 47 43  1  0  0  0
 48 56  1  0  0  0
 48 52  1  0  0  0
 56 57  1  0  0  0
 34 37  1  0  0  0
 35 38  1  0  0  0
 36 39  1  0  0  0
 41 42  1  0  0  0
 26 27  1  0  0  0
 21 24  1  0  0  0
 22 25  1  0  0  0
  6  9  1  0  0  0
  7 10  1  0  0  0
 12 13  1  0  0  0
 49 53  1  0  0  0
 50 54  1  0  0  0
 51 55  1  0  0  0
 57 58  1  0  0  0
M  END
> <minimizedAffinity>
-12.22117

$$$$
3JYR_ACR_A_371


 58 61  0  0  0  0  0  0  0  0999 V2000
   26.0658    0.0377   16.8468 C   0  0  0  0  0  0  0  0  0  0  0  0
   26.6915   -0.5926   15.6065 C   0  0  0  0  0  0  0  0  0  0  0  0
   25.6012   -0.7401   14.5471 C   0  0  0  0  0  0  0  0  0  0  0  0
   24.4726   -1.6484   15.0661 C   0  0  0  0  0  0  0  0  0  0  0  0
   23.9445   -1.1098   16.4045 C   0  0  0  0  0  0  0  0  0  0  0  0
   27.7485    0.2663   15.1439 O   0  0  0  0  0  0  0  0  0  0  0  0
   26.1784   -1.2561   13.3269 O   0  0  0  0  0  0  0  0  0  0  0  0
   25.0439   -0.8506   17.2978 O   0  0  0  0  0  0  0  0  0  0  0  0
   27.3881    1.1450   14.9468 H   0  0  0  0  0  0  0  0  0  0  0  0
   26.5719   -2.1260   13.4979 H   0  0  0  0  0  0  0  0  0  0  0  0
   23.0186   -2.1264   17.0729 C   0  0  0  0  0  0  0  0  0  0  0  0
   22.8759   -1.7590   18.4537 O   0  0  0  0  0  0  0  0  0  0  0  0
   23.7474   -1.7577   18.8796 H   0  0  0  0  0  0  0  0  0  0  0  0
   23.3889   -1.6426   14.1526 O   0  0  0  0  0  0  0  0  0  0  0  0
   23.3634   -2.7329   13.2393 C   0  0  0  0  0  0  0  0  0  0  0  0
   23.0177   -2.2327   11.8329 C   0  0  0  0  0  0  0  0  0  0  0  0
   21.5892   -1.6616   11.7996 C   0  0  0  0  0  0  0  0  0  0  0  0
   20.5365   -2.5809   12.4349 C   0  0  0  0  0  0  0  0  0  0  0  0
   21.0273   -3.1563   13.7702 C   0  0  0  0  0  0  0  0  0  0  0  0
   20.1173   -4.3058   14.2223 C   0  0  0  0  0  0  0  0  0  0  0  0
   23.9513   -1.2328   11.4027 O   0  0  0  0  0  0  0  0  0  0  0  0
   21.2391   -1.3569   10.4341 O   0  0  0  0  0  0  0  0  0  0  0  0
   22.3725   -3.6505   13.6922 O   0  0  0  0  0  0  0  0  0  0  0  0
   23.9086   -0.4713   12.0021 H   0  0  0  0  0  0  0  0  0  0  0  0
   21.2445   -2.1726    9.9092 H   0  0  0  0  0  0  0  0  0  0  0  0
   19.2974   -1.8311   12.6926 N   0  0  0  0  0  0  0  0  0  0  0  0
   18.8810   -2.2239   13.5369 H   0  0  0  0  0  0  0  0  0  0  0  0
   18.2570   -1.8105   11.6748 C   0  0  0  0  0  0  0  0  0  0  0  0
   17.8426   -0.3771   11.2762 C   0  0  0  0  0  0  0  0  0  0  0  0
   16.6960    0.1443   12.1305 C   0  0  0  0  0  0  0  0  0  0  0  0
   15.4614   -0.7590   12.0894 C   0  0  0  0  0  0  0  0  0  0  0  0
   15.8248   -2.2004   12.2972 C   0  0  0  0  0  0  0  0  0  0  0  0
   17.0793   -2.6573   12.1392 C   0  0  0  0  0  0  0  0  0  0  0  0
   18.9254    0.5543   11.4230 O   0  0  0  0  0  0  0  0  0  0  0  0
   16.3425    1.4607   11.6793 O   0  0  0  0  0  0  0  0  0  0  0  0
   14.5523   -0.3297   13.1179 O   0  0  0  0  0  0  0  0  0  0  0  0
   19.1836    0.6054   12.3567 H   0  0  0  0  0  0  0  0  0  0  0  0
   16.0409    1.4167   10.7584 H   0  0  0  0  0  0  0  0  0  0  0  0
   14.9831   -0.4079   13.9835 H   0  0  0  0  0  0  0  0  0  0  0  0
   14.7443   -3.1781   12.6907 C   0  0  0  0  0  0  0  0  0  0  0  0
   14.7077   -3.2527   14.1180 O   0  0  0  0  0  0  0  0  0  0  0  0
   15.5708   -3.5472   14.4486 H   0  0  0  0  0  0  0  0  0  0  0  0
   25.5089    1.3077   16.5073 O   0  0  0  0  0  0  0  0  0  0  0  0
   28.2561    3.6055   18.5933 C   0  0  0  0  0  0  0  0  0  0  0  0
   27.1436    2.9520   19.4056 C   0  0  0  0  0  0  0  0  0  0  0  0
   26.4563    1.8331   18.6194 C   0  0  0  0  0  0  0  0  0  0  0  0
   25.9553    2.4003   17.2934 C   0  0  0  0  0  0  0  0  0  0  0  0
   27.1101    3.0729   16.5414 C   0  0  0  0  0  0  0  0  0  0  0  0
   29.2960    2.6651   18.3467 O   0  0  0  0  0  0  0  0  0  0  0  0
   27.7471    2.4405   20.5939 O   0  0  0  0  0  0  0  0  0  0  0  0
   25.3580    1.2907   19.3557 O   0  0  0  0  0  0  0  0  0  0  0  0
   27.7510    4.0909   17.3484 O   0  0  0  0  0  0  0  0  0  0  0  0
   28.9432    1.9192   17.8368 H   0  0  0  0  0  0  0  0  0  0  0  0
   28.4320    1.7958   20.3570 H   0  0  0  0  0  0  0  0  0  0  0  0
   24.7060    1.9887   19.5250 H   0  0  0  0  0  0  0  0  0  0  0  0
   26.6364    3.6948   15.2143 C   0  0  0  0  0  0  0  0  0  0  0  0
   26.6511    2.6996   14.1709 O   0  0  0  0  0  0  0  0  0  0  0  0
   27.5537    2.3629   14.0579 H   0  0  0  0  0  0  0  0  0  0  0  0
 28 29  1  0  0  0
 28 33  1  0  0  0
 28 26  1  0  0  0
 29 30  1  0  0  0
 29 34  1  0  0  0
 30 31  1  0  0  0
 30 35  1  0  0  0
 31 32  1  0  0  0
 31 36  1  0  0  0
 32 40  1  0  0  0
 32 33  2  0  0  0
 40 41  1  0  0  0
 15 16  1  0  0  0
 15 23  1  0  0  0
 15 14  1  0  0  0
 16 17  1  0  0  0
 16 21  1  0  0  0
 17 18  1  0  0  0
 17 22  1  0  0  0
 18 19  1  0  0  0
 18 26  1  0  0  0
 19 20  1  0  0  0
 19 23  1  0  0  0
  1  2  1  0  0  0
  1  8  1  0  0  0
  1 43  1  0  0  0
  2  3  1  0  0  0
  2  6  1  0  0  0
  3  4  1  0  0  0
  3  7  1  0  0  0
  4  5  1  0  0  0
  4 14  1  0  0  0
  5 11  1  0  0  0
  5  8  1  0  0  0
 11 12  1  0  0  0
 44 45  1  0  0  0
 44 49  1  0  0  0
 44 52  1  0  0  0
 45 46  1  0  0  0
 45 50  1  0  0  0
 46 47  1  0  0  0
 46 51  1  0  0  0
 47 48  1  0  0  0
 47 43  1  0  0  0
 48 56  1  0  0  0
 48 52  1  0  0  0
 56 57  1  0  0  0
 34 37  1  0  0  0
 35 38  1  0  0  0
 36 39  1  0  0  0
 41 42  1  0  0  0
 26 27  1  0  0  0
 21 24  1  0  0  0
 22 25  1  0  0  0
  6  9  1  0  0  0
  7 10  1  0  0  0
 12 13  1  0  0  0
 49 53  1  0  0  0
 50 54  1  0  0  0
 51 55  1  0  0  0
 57 58  1  0  0  0
M  END
> <minimizedAffinity>
-9.87867

$$$$
3JYR_ACR_A_371


 58 61  0  0  0  0  0  0  0  0999 V2000
   26.4323   -0.6978   13.1940 C   0  0  0  0  0  0  0  0  0  0  0  0
   26.3040   -1.8394   12.1902 C   0  0  0  0  0  0  0  0  0  0  0  0
   24.8192   -2.0589   11.9076 C   0  0  0  0  0  0  0  0  0  0  0  0
   24.0793   -2.4345   13.2037 C   0  0  0  0  0  0  0  0  0  0  0  0
   24.3376   -1.3677   14.2785 C   0  0  0  0  0  0  0  0  0  0  0  0
   27.0093   -1.4724   10.9915 O   0  0  0  0  0  0  0  0  0  0  0  0
   24.6646   -3.0778   10.8945 O   0  0  0  0  0  0  0  0  0  0  0  0
   25.7498   -1.1042   14.3797 O   0  0  0  0  0  0  0  0  0  0  0  0
   26.6373   -0.6498   10.6366 H   0  0  0  0  0  0  0  0  0  0  0  0
   25.0520   -3.9091   11.2102 H   0  0  0  0  0  0  0  0  0  0  0  0
   23.8436   -1.8418   15.6456 C   0  0  0  0  0  0  0  0  0  0  0  0
   22.5136   -1.3359   15.8389 O   0  0  0  0  0  0  0  0  0  0  0  0
   22.5270   -0.3669   15.7968 H   0  0  0  0  0  0  0  0  0  0  0  0
   22.6818   -2.4675   12.9701 O   0  0  0  0  0  0  0  0  0  0  0  0
   22.2312   -1.6601   11.8890 C   0  0  0  0  0  0  0  0  0  0  0  0
   21.4271   -0.4694   12.4216 C   0  0  0  0  0  0  0  0  0  0  0  0
   20.1394   -0.9534   13.1109 C   0  0  0  0  0  0  0  0  0  0  0  0
   19.3299   -1.9600   12.2812 C   0  0  0  0  0  0  0  0  0  0  0  0
   20.2357   -3.0328   11.6617 C   0  0  0  0  0  0  0  0  0  0  0  0
   19.4716   -3.8227   10.5912 C   0  0  0  0  0  0  0  0  0  0  0  0
   22.2094    0.3048   13.3410 O   0  0  0  0  0  0  0  0  0  0  0  0
   19.3310    0.1920   13.4489 O   0  0  0  0  0  0  0  0  0  0  0  0
   21.4111   -2.4742   11.0564 O   0  0  0  0  0  0  0  0  0  0  0  0
   22.4537   -0.2459   14.1012 H   0  0  0  0  0  0  0  0  0  0  0  0
   19.0755    0.6583   12.6376 H   0  0  0  0  0  0  0  0  0  0  0  0
   18.3398   -2.6387   13.1316 N   0  0  0  0  0  0  0  0  0  0  0  0
   18.6911   -2.5987   14.0884 H   0  0  0  0  0  0  0  0  0  0  0  0
   18.0055   -4.0288   12.8585 C   0  0  0  0  0  0  0  0  0  0  0  0
   16.5258   -4.2173   12.4579 C   0  0  0  0  0  0  0  0  0  0  0  0
   15.6365   -4.4807   13.6647 C   0  0  0  0  0  0  0  0  0  0  0  0
   16.0866   -5.6910   14.4858 C   0  0  0  0  0  0  0  0  0  0  0  0
   17.5618   -5.6544   14.7600 C   0  0  0  0  0  0  0  0  0  0  0  0
   18.4081   -4.8884   14.0496 C   0  0  0  0  0  0  0  0  0  0  0  0
   15.9968   -3.0564   11.7990 O   0  0  0  0  0  0  0  0  0  0  0  0
   14.2887   -4.6821   13.2127 O   0  0  0  0  0  0  0  0  0  0  0  0
   15.3577   -5.6929   15.7258 O   0  0  0  0  0  0  0  0  0  0  0  0
   16.0096   -2.3036   12.4106 H   0  0  0  0  0  0  0  0  0  0  0  0
   14.2547   -5.4594   12.6335 H   0  0  0  0  0  0  0  0  0  0  0  0
   15.5509   -4.8782   16.2156 H   0  0  0  0  0  0  0  0  0  0  0  0
   18.1217   -6.5129   15.8681 C   0  0  0  0  0  0  0  0  0  0  0  0
   19.4097   -6.0023   16.2212 O   0  0  0  0  0  0  0  0  0  0  0  0
   19.9908   -6.0260   15.4449 H   0  0  0  0  0  0  0  0  0  0  0  0
   25.8356    0.4815   12.6542 O   0  0  0  0  0  0  0  0  0  0  0  0
   26.6356    4.5340   12.3137 C   0  0  0  0  0  0  0  0  0  0  0  0
   27.6154    3.5776   11.6428 C   0  0  0  0  0  0  0  0  0  0  0  0
   27.0170    2.1776   11.4870 C   0  0  0  0  0  0  0  0  0  0  0  0
   26.5627    1.6819   12.8577 C   0  0  0  0  0  0  0  0  0  0  0  0
   25.6094    2.7007   13.4940 C   0  0  0  0  0  0  0  0  0  0  0  0
   25.5000    4.7329   11.4785 O   0  0  0  0  0  0  0  0  0  0  0  0
   27.9323    4.1388   10.3690 O   0  0  0  0  0  0  0  0  0  0  0  0
   27.9759    1.2693   10.9411 O   0  0  0  0  0  0  0  0  0  0  0  0
   26.2113    4.0158   13.5754 O   0  0  0  0  0  0  0  0  0  0  0  0
   25.0507    3.8851   11.3365 H   0  0  0  0  0  0  0  0  0  0  0  0
   27.1208    4.2319    9.8458 H   0  0  0  0  0  0  0  0  0  0  0  0
   28.7398    1.2094   11.5359 H   0  0  0  0  0  0  0  0  0  0  0  0
   25.1595    2.2559   14.8982 C   0  0  0  0  0  0  0  0  0  0  0  0
   23.7214    2.1628   14.9483 O   0  0  0  0  0  0  0  0  0  0  0  0
   23.3341    3.0302   14.7522 H   0  0  0  0  0  0  0  0  0  0  0  0
 28 29  1  0  0  0
 28 33  1  0  0  0
 28 26  1  0  0  0
 29 30  1  0  0  0
 29 34  1  0  0  0
 30 31  1  0  0  0
 30 35  1  0  0  0
 31 32  1  0  0  0
 31 36  1  0  0  0
 32 40  1  0  0  0
 32 33  2  0  0  0
 40 41  1  0  0  0
 15 16  1  0  0  0
 15 23  1  0  0  0
 15 14  1  0  0  0
 16 17  1  0  0  0
 16 21  1  0  0  0
 17 18  1  0  0  0
 17 22  1  0  0  0
 18 19  1  0  0  0
 18 26  1  0  0  0
 19 20  1  0  0  0
 19 23  1  0  0  0
  1  2  1  0  0  0
  1  8  1  0  0  0
  1 43  1  0  0  0
  2  3  1  0  0  0
  2  6  1  0  0  0
  3  4  1  0  0  0
  3  7  1  0  0  0
  4  5  1  0  0  0
  4 14  1  0  0  0
  5 11  1  0  0  0
  5  8  1  0  0  0
 11 12  1  0  0  0
 44 45  1  0  0  0
 44 49  1  0  0  0
 44 52  1  0  0  0
 45 46  1  0  0  0
 45 50  1  0  0  0
 46 47  1  0  0  0
 46 51  1  0  0  0
 47 48  1  0  0  0
 47 43  1  0  0  0
 48 56  1  0  0  0
 48 52  1  0  0  0
 56 57  1  0  0  0
 34 37  1  0  0  0
 35 38  1  0  0  0
 36 39  1  0  0  0
 41 42  1  0  0  0
 26 27  1  0  0  0
 21 24  1  0  0  0
 22 25  1  0  0  0
  6  9  1  0  0  0
  7 10  1  0  0  0
 12 13  1  0  0  0
 49 53  1  0  0  0
 50 54  1  0  0  0
 51 55  1  0  0  0
 57 58  1  0  0  0
M  END
> <minimizedAffinity>
-9.71603

$$$$
3JYR_ACR_A_371


 58 61  0  0  0  0  0  0  0  0999 V2000
   23.9153   -1.4278   14.0450 C   0  0  0  0  0  0  0  0  0  0  0  0
   23.4912   -0.9026   12.6769 C   0  0  0  0  0  0  0  0  0  0  0  0
   22.0703   -0.3555   12.7978 C   0  0  0  0  0  0  0  0  0  0  0  0
   21.1049   -1.4705   13.2372 C   0  0  0  0  0  0  0  0  0  0  0  0
   21.6140   -2.1190   14.5335 C   0  0  0  0  0  0  0  0  0  0  0  0
   24.4106    0.1305   12.2814 O   0  0  0  0  0  0  0  0  0  0  0  0
   21.6678    0.2288   11.5388 O   0  0  0  0  0  0  0  0  0  0  0  0
   23.0040   -2.4690   14.3947 O   0  0  0  0  0  0  0  0  0  0  0  0
   24.4072    0.8378   12.9452 H   0  0  0  0  0  0  0  0  0  0  0  0
   21.6866   -0.4503   10.8465 H   0  0  0  0  0  0  0  0  0  0  0  0
   20.8318   -3.3947   14.8473 C   0  0  0  0  0  0  0  0  0  0  0  0
   21.3292   -3.9298   16.0836 O   0  0  0  0  0  0  0  0  0  0  0  0
   22.2759   -4.1216   15.9952 H   0  0  0  0  0  0  0  0  0  0  0  0
   19.8275   -0.9224   13.5138 O   0  0  0  0  0  0  0  0  0  0  0  0
   18.9056   -0.9636   12.4312 C   0  0  0  0  0  0  0  0  0  0  0  0
   17.4689   -0.9241   12.9623 C   0  0  0  0  0  0  0  0  0  0  0  0
   17.1629   -2.1884   13.7843 C   0  0  0  0  0  0  0  0  0  0  0  0
   17.5568   -3.4966   13.0840 C   0  0  0  0  0  0  0  0  0  0  0  0
   18.9513   -3.3958   12.4513 C   0  0  0  0  0  0  0  0  0  0  0  0
   19.1894   -4.5720   11.4954 C   0  0  0  0  0  0  0  0  0  0  0  0
   17.2539    0.2432   13.7671 O   0  0  0  0  0  0  0  0  0  0  0  0
   15.7615   -2.1970   14.1247 O   0  0  0  0  0  0  0  0  0  0  0  0
   19.1331   -2.1754   11.7181 O   0  0  0  0  0  0  0  0  0  0  0  0
   17.8479    0.2213   14.5336 H   0  0  0  0  0  0  0  0  0  0  0  0
   15.2318   -2.2359   13.3130 H   0  0  0  0  0  0  0  0  0  0  0  0
   17.5773   -4.6040   14.0521 N   0  0  0  0  0  0  0  0  0  0  0  0
   18.5566   -4.8086   14.2506 H   0  0  0  0  0  0  0  0  0  0  0  0
   16.9419   -5.8652   13.6992 C   0  0  0  0  0  0  0  0  0  0  0  0
   15.7685   -6.2235   14.6374 C   0  0  0  0  0  0  0  0  0  0  0  0
   16.2236   -7.0512   15.8307 C   0  0  0  0  0  0  0  0  0  0  0  0
   16.9454   -8.3382   15.4248 C   0  0  0  0  0  0  0  0  0  0  0  0
   17.9879   -8.0793   14.3766 C   0  0  0  0  0  0  0  0  0  0  0  0
   17.9977   -6.9608   13.6307 C   0  0  0  0  0  0  0  0  0  0  0  0
   15.1281   -5.0521   15.1660 O   0  0  0  0  0  0  0  0  0  0  0  0
   15.0787   -7.3763   16.6338 O   0  0  0  0  0  0  0  0  0  0  0  0
   17.5588   -8.9020   16.5972 O   0  0  0  0  0  0  0  0  0  0  0  0
   15.7591   -4.5569   15.7116 H   0  0  0  0  0  0  0  0  0  0  0  0
   14.4585   -7.9091   16.1119 H   0  0  0  0  0  0  0  0  0  0  0  0
   18.1995   -8.2716   16.9618 H   0  0  0  0  0  0  0  0  0  0  0  0
   19.0626   -9.1130   14.1424 C   0  0  0  0  0  0  0  0  0  0  0  0
   20.3227   -8.4405   14.0780 O   0  0  0  0  0  0  0  0  0  0  0  0
   20.3078   -7.7944   13.3547 H   0  0  0  0  0  0  0  0  0  0  0  0
   23.8553   -0.3699   15.0019 O   0  0  0  0  0  0  0  0  0  0  0  0
   25.9843    1.0106   18.2791 C   0  0  0  0  0  0  0  0  0  0  0  0
   26.5736    1.2962   16.9023 C   0  0  0  0  0  0  0  0  0  0  0  0
   25.5328    1.1101   15.7956 C   0  0  0  0  0  0  0  0  0  0  0  0
   24.9495   -0.2969   15.9009 C   0  0  0  0  0  0  0  0  0  0  0  0
   24.4061   -0.5345   17.3151 C   0  0  0  0  0  0  0  0  0  0  0  0
   24.9766    1.9683   18.5858 O   0  0  0  0  0  0  0  0  0  0  0  0
   27.0508    2.6413   16.9292 O   0  0  0  0  0  0  0  0  0  0  0  0
   26.1200    1.2916   14.5053 O   0  0  0  0  0  0  0  0  0  0  0  0
   25.4205   -0.3012   18.3225 O   0  0  0  0  0  0  0  0  0  0  0  0
   24.2640    1.9091   17.9303 H   0  0  0  0  0  0  0  0  0  0  0  0
   26.3147    3.2416   17.1259 H   0  0  0  0  0  0  0  0  0  0  0  0
   26.8233    0.6364   14.3752 H   0  0  0  0  0  0  0  0  0  0  0  0
   23.8446   -1.9598   17.4745 C   0  0  0  0  0  0  0  0  0  0  0  0
   22.5059   -1.9052   18.0078 O   0  0  0  0  0  0  0  0  0  0  0  0
   22.5211   -1.4724   18.8758 H   0  0  0  0  0  0  0  0  0  0  0  0
 28 29  1  0  0  0
 28 33  1  0  0  0
 28 26  1  0  0  0
 29 30  1  0  0  0
 29 34  1  0  0  0
 30 31  1  0  0  0
 30 35  1  0  0  0
 31 32  1  0  0  0
 31 36  1  0  0  0
 32 40  1  0  0  0
 32 33  2  0  0  0
 40 41  1  0  0  0
 15 16  1  0  0  0
 15 23  1  0  0  0
 15 14  1  0  0  0
 16 17  1  0  0  0
 16 21  1  0  0  0
 17 18  1  0  0  0
 17 22  1  0  0  0
 18 19  1  0  0  0
 18 26  1  0  0  0
 19 20  1  0  0  0
 19 23  1  0  0  0
  1  2  1  0  0  0
  1  8  1  0  0  0
  1 43  1  0  0  0
  2  3  1  0  0  0
  2  6  1  0  0  0
  3  4  1  0  0  0
  3  7  1  0  0  0
  4  5  1  0  0  0
  4 14  1  0  0  0
  5 11  1  0  0  0
  5  8  1  0  0  0
 11 12  1  0  0  0
 44 45  1  0  0  0
 44 49  1  0  0  0
 44 52  1  0  0  0
 45 46  1  0  0  0
 45 50  1  0  0  0
 46 47  1  0  0  0
 46 51  1  0  0  0
 47 48  1  0  0  0
 47 43  1  0  0  0
 48 56  1  0  0  0
 48 52  1  0  0  0
 56 57  1  0  0  0
 34 37  1  0  0  0
 35 38  1  0  0  0
 36 39  1  0  0  0
 41 42  1  0  0  0
 26 27  1  0  0  0
 21 24  1  0  0  0
 22 25  1  0  0  0
  6  9  1  0  0  0
  7 10  1  0  0  0
 12 13  1  0  0  0
 49 53  1  0  0  0
 50 54  1  0  0  0
 51 55  1  0  0  0
 57 58  1  0  0  0
M  END
> <minimizedAffinity>
-9.68051

$$$$
3JYR_ACR_A_371


 58 61  0  0  0  0  0  0  0  0999 V2000
   25.2460   -3.9417   16.6080 C   0  0  0  0  0  0  0  0  0  0  0  0
   24.1548   -3.0126   17.1310 C   0  0  0  0  0  0  0  0  0  0  0  0
   23.3742   -2.4752   15.9331 C   0  0  0  0  0  0  0  0  0  0  0  0
   24.3083   -1.6880   14.9973 C   0  0  0  0  0  0  0  0  0  0  0  0
   25.5026   -2.5663   14.5943 C   0  0  0  0  0  0  0  0  0  0  0  0
   23.2996   -3.7648   18.0095 O   0  0  0  0  0  0  0  0  0  0  0  0
   22.2769   -1.6575   16.3977 O   0  0  0  0  0  0  0  0  0  0  0  0
   26.0929   -3.1605   15.7658 O   0  0  0  0  0  0  0  0  0  0  0  0
   22.9195   -4.5152   17.5264 H   0  0  0  0  0  0  0  0  0  0  0  0
   22.6245   -0.9101   16.9090 H   0  0  0  0  0  0  0  0  0  0  0  0
   26.5761   -1.7356   13.8906 C   0  0  0  0  0  0  0  0  0  0  0  0
   26.8374   -2.3356   12.6124 O   0  0  0  0  0  0  0  0  0  0  0  0
   27.1395   -3.2486   12.7395 H   0  0  0  0  0  0  0  0  0  0  0  0
   23.6203   -1.3408   13.8079 O   0  0  0  0  0  0  0  0  0  0  0  0
   23.4507   -2.4028   12.8767 C   0  0  0  0  0  0  0  0  0  0  0  0
   23.3144   -1.8410   11.4577 C   0  0  0  0  0  0  0  0  0  0  0  0
   22.0310   -1.0017   11.3309 C   0  0  0  0  0  0  0  0  0  0  0  0
   20.7752   -1.6991   11.8728 C   0  0  0  0  0  0  0  0  0  0  0  0
   21.0441   -2.3627   13.2301 C   0  0  0  0  0  0  0  0  0  0  0  0
   19.8967   -3.3134   13.5956 C   0  0  0  0  0  0  0  0  0  0  0  0
   24.4542   -1.0418   11.1132 O   0  0  0  0  0  0  0  0  0  0  0  0
   21.8492   -0.6309    9.9492 O   0  0  0  0  0  0  0  0  0  0  0  0
   22.2693   -3.1102   13.2411 O   0  0  0  0  0  0  0  0  0  0  0  0
   24.5162   -0.2882   11.7208 H   0  0  0  0  0  0  0  0  0  0  0  0
   21.7345   -1.4306    9.4122 H   0  0  0  0  0  0  0  0  0  0  0  0
   19.6902   -0.7222   12.0530 N   0  0  0  0  0  0  0  0  0  0  0  0
   19.4084   -0.7665   13.0323 H   0  0  0  0  0  0  0  0  0  0  0  0
   18.4796   -0.8528   11.2554 C   0  0  0  0  0  0  0  0  0  0  0  0
   17.4507    0.2611   11.5484 C   0  0  0  0  0  0  0  0  0  0  0  0
   16.4858   -0.1303   12.6584 C   0  0  0  0  0  0  0  0  0  0  0  0
   15.7376   -1.4332   12.3679 C   0  0  0  0  0  0  0  0  0  0  0  0
   16.6705   -2.5141   11.9051 C   0  0  0  0  0  0  0  0  0  0  0  0
   17.9031   -2.2508   11.4376 C   0  0  0  0  0  0  0  0  0  0  0  0
   18.0849    1.4812   11.9620 O   0  0  0  0  0  0  0  0  0  0  0  0
   15.5405    0.9336   12.8481 O   0  0  0  0  0  0  0  0  0  0  0  0
   15.0661   -1.8472   13.5705 O   0  0  0  0  0  0  0  0  0  0  0  0
   18.5571    1.3334   12.7963 H   0  0  0  0  0  0  0  0  0  0  0  0
   15.0311    1.0627   12.0328 H   0  0  0  0  0  0  0  0  0  0  0  0
   15.7203   -1.9977   14.2707 H   0  0  0  0  0  0  0  0  0  0  0  0
   16.2096   -3.9505   11.9578 C   0  0  0  0  0  0  0  0  0  0  0  0
   16.4326   -4.4428   13.2814 O   0  0  0  0  0  0  0  0  0  0  0  0
   17.3767   -4.3797   13.4951 H   0  0  0  0  0  0  0  0  0  0  0  0
   24.6509   -5.0070   15.8670 O   0  0  0  0  0  0  0  0  0  0  0  0
   24.8153   -9.1412   15.6218 C   0  0  0  0  0  0  0  0  0  0  0  0
   24.2704   -8.5470   16.9159 C   0  0  0  0  0  0  0  0  0  0  0  0
   23.8836   -7.0766   16.7402 C   0  0  0  0  0  0  0  0  0  0  0  0
   25.0926   -6.3103   16.2093 C   0  0  0  0  0  0  0  0  0  0  0  0
   25.6142   -6.9756   14.9298 C   0  0  0  0  0  0  0  0  0  0  0  0
   23.7944   -9.1669   14.6300 O   0  0  0  0  0  0  0  0  0  0  0  0
   23.1347   -9.3301   17.2829 O   0  0  0  0  0  0  0  0  0  0  0  0
   23.4607   -6.5071   17.9810 O   0  0  0  0  0  0  0  0  0  0  0  0
   25.9218   -8.3748   15.1435 O   0  0  0  0  0  0  0  0  0  0  0  0
   23.4967   -8.2617   14.4488 H   0  0  0  0  0  0  0  0  0  0  0  0
   22.4730   -9.2918   16.5746 H   0  0  0  0  0  0  0  0  0  0  0  0
   24.1859   -6.5566   18.6233 H   0  0  0  0  0  0  0  0  0  0  0  0
   26.8612   -6.2549   14.3841 C   0  0  0  0  0  0  0  0  0  0  0  0
   26.4744   -5.2880   13.3866 O   0  0  0  0  0  0  0  0  0  0  0  0
   26.0250   -5.7399   12.6554 H   0  0  0  0  0  0  0  0  0  0  0  0
 28 29  1  0  0  0
 28 33  1  0  0  0
 28 26  1  0  0  0
 29 30  1  0  0  0
 29 34  1  0  0  0
 30 31  1  0  0  0
 30 35  1  0  0  0
 31 32  1  0  0  0
 31 36  1  0  0  0
 32 40  1  0  0  0
 32 33  2  0  0  0
 40 41  1  0  0  0
 15 16  1  0  0  0
 15 23  1  0  0  0
 15 14  1  0  0  0
 16 17  1  0  0  0
 16 21  1  0  0  0
 17 18  1  0  0  0
 17 22  1  0  0  0
 18 19  1  0  0  0
 18 26  1  0  0  0
 19 20  1  0  0  0
 19 23  1  0  0  0
  1  2  1  0  0  0
  1  8  1  0  0  0
  1 43  1  0  0  0
  2  3  1  0  0  0
  2  6  1  0  0  0
  3  4  1  0  0  0
  3  7  1  0  0  0
  4  5  1  0  0  0
  4 14  1  0  0  0
  5 11  1  0  0  0
  5  8  1  0  0  0
 11 12  1  0  0  0
 44 45  1  0  0  0
 44 49  1  0  0  0
 44 52  1  0  0  0
 45 46  1  0  0  0
 45 50  1  0  0  0
 46 47  1  0  0  0
 46 51  1  0  0  0
 47 48  1  0  0  0
 47 43  1  0  0  0
 48 56  1  0  0  0
 48 52  1  0  0  0
 56 57  1  0  0  0
 34 37  1  0  0  0
 35 38  1  0  0  0
 36 39  1  0  0  0
 41 42  1  0  0  0
 26 27  1  0  0  0
 21 24  1  0  0  0
 22 25  1  0  0  0
  6  9  1  0  0  0
  7 10  1  0  0  0
 12 13  1  0  0  0
 49 53  1  0  0  0
 50 54  1  0  0  0
 51 55  1  0  0  0
 57 58  1  0  0  0
M  END
> <minimizedAffinity>
-9.60900

$$$$
3JYR_ACR_A_371


 58 61  0  0  0  0  0  0  0  0999 V2000
   18.3880   -2.0190   13.4536 C   0  0  0  0  0  0  0  0  0  0  0  0
   19.2949   -0.7945   13.5274 C   0  0  0  0  0  0  0  0  0  0  0  0
   20.6309   -1.1531   12.8800 C   0  0  0  0  0  0  0  0  0  0  0  0
   21.2913   -2.3223   13.6318 C   0  0  0  0  0  0  0  0  0  0  0  0
   20.3188   -3.5093   13.7057 C   0  0  0  0  0  0  0  0  0  0  0  0
   18.6557    0.2876   12.8278 O   0  0  0  0  0  0  0  0  0  0  0  0
   21.4855    0.0121   12.8559 O   0  0  0  0  0  0  0  0  0  0  0  0
   19.0345   -3.0633   14.1805 O   0  0  0  0  0  0  0  0  0  0  0  0
   18.4932    0.0265   11.9078 H   0  0  0  0  0  0  0  0  0  0  0  0
   21.6457    0.3143   13.7636 H   0  0  0  0  0  0  0  0  0  0  0  0
   20.8367   -4.5778   14.6690 C   0  0  0  0  0  0  0  0  0  0  0  0
   20.0314   -5.7551   14.5036 O   0  0  0  0  0  0  0  0  0  0  0  0
   19.1045   -5.5423   14.6945 H   0  0  0  0  0  0  0  0  0  0  0  0
   22.4401   -2.7621   12.9278 O   0  0  0  0  0  0  0  0  0  0  0  0
   23.5493   -1.8722   12.9665 C   0  0  0  0  0  0  0  0  0  0  0  0
   24.4787   -2.1385   11.7779 C   0  0  0  0  0  0  0  0  0  0  0  0
   25.1002   -3.5422   11.8832 C   0  0  0  0  0  0  0  0  0  0  0  0
   25.7063   -3.8529   13.2591 C   0  0  0  0  0  0  0  0  0  0  0  0
   24.7713   -3.4164   14.3950 C   0  0  0  0  0  0  0  0  0  0  0  0
   25.5168   -3.4333   15.7358 C   0  0  0  0  0  0  0  0  0  0  0  0
   23.7703   -2.0121   10.5374 O   0  0  0  0  0  0  0  0  0  0  0  0
   26.0910   -3.6940   10.8463 O   0  0  0  0  0  0  0  0  0  0  0  0
   24.2402   -2.0987   14.1913 O   0  0  0  0  0  0  0  0  0  0  0  0
   23.0576   -2.6693   10.5036 H   0  0  0  0  0  0  0  0  0  0  0  0
   26.7999   -3.0453   10.9790 H   0  0  0  0  0  0  0  0  0  0  0  0
   25.9408   -5.2987   13.3954 N   0  0  0  0  0  0  0  0  0  0  0  0
   25.8744   -5.5194   14.3891 H   0  0  0  0  0  0  0  0  0  0  0  0
   27.1953   -5.8611   12.9173 C   0  0  0  0  0  0  0  0  0  0  0  0
   26.9862   -6.9869   11.8808 C   0  0  0  0  0  0  0  0  0  0  0  0
   26.8884   -8.3566   12.5371 C   0  0  0  0  0  0  0  0  0  0  0  0
   28.1074   -8.6949   13.3983 C   0  0  0  0  0  0  0  0  0  0  0  0
   28.4704   -7.5601   14.3111 C   0  0  0  0  0  0  0  0  0  0  0  0
   28.0363   -6.3041   14.1074 C   0  0  0  0  0  0  0  0  0  0  0  0
   25.7791   -6.8024   11.1254 O   0  0  0  0  0  0  0  0  0  0  0  0
   26.7332   -9.3515   11.5137 O   0  0  0  0  0  0  0  0  0  0  0  0
   27.8028   -9.8682   14.1724 O   0  0  0  0  0  0  0  0  0  0  0  0
   25.0148   -6.8482   11.7210 H   0  0  0  0  0  0  0  0  0  0  0  0
   27.5122   -9.3453   10.9358 H   0  0  0  0  0  0  0  0  0  0  0  0
   27.0405   -9.6890   14.7448 H   0  0  0  0  0  0  0  0  0  0  0  0
   29.3616   -7.8325   15.4985 C   0  0  0  0  0  0  0  0  0  0  0  0
   28.5468   -8.3263   16.5645 O   0  0  0  0  0  0  0  0  0  0  0  0
   27.8726   -7.6658   16.7887 H   0  0  0  0  0  0  0  0  0  0  0  0
   18.2085   -2.3982   12.0890 O   0  0  0  0  0  0  0  0  0  0  0  0
   14.3994   -3.8380   12.8614 C   0  0  0  0  0  0  0  0  0  0  0  0
   15.4602   -4.8628   12.4753 C   0  0  0  0  0  0  0  0  0  0  0  0
   16.8725   -4.2891   12.6127 C   0  0  0  0  0  0  0  0  0  0  0  0
   16.9664   -3.0106   11.7836 C   0  0  0  0  0  0  0  0  0  0  0  0
   15.8548   -2.0371   12.1937 C   0  0  0  0  0  0  0  0  0  0  0  0
   14.5113   -3.5185   14.2442 O   0  0  0  0  0  0  0  0  0  0  0  0
   15.2823   -5.9855   13.3389 O   0  0  0  0  0  0  0  0  0  0  0  0
   17.8518   -5.2273   12.1617 O   0  0  0  0  0  0  0  0  0  0  0  0
   14.5453   -2.6470   12.0864 O   0  0  0  0  0  0  0  0  0  0  0  0
   15.3849   -3.1341   14.4175 H   0  0  0  0  0  0  0  0  0  0  0  0
   15.3875   -5.7038   14.2612 H   0  0  0  0  0  0  0  0  0  0  0  0
   17.6962   -5.4328   11.2266 H   0  0  0  0  0  0  0  0  0  0  0  0
   15.8900   -0.7487   11.3506 C   0  0  0  0  0  0  0  0  0  0  0  0
   15.8083    0.4056   12.2110 O   0  0  0  0  0  0  0  0  0  0  0  0
   14.9777    0.3778   12.7113 H   0  0  0  0  0  0  0  0  0  0  0  0
 28 29  1  0  0  0
 28 33  1  0  0  0
 28 26  1  0  0  0
 29 30  1  0  0  0
 29 34  1  0  0  0
 30 31  1  0  0  0
 30 35  1  0  0  0
 31 32  1  0  0  0
 31 36  1  0  0  0
 32 40  1  0  0  0
 32 33  2  0  0  0
 40 41  1  0  0  0
 15 16  1  0  0  0
 15 23  1  0  0  0
 15 14  1  0  0  0
 16 17  1  0  0  0
 16 21  1  0  0  0
 17 18  1  0  0  0
 17 22  1  0  0  0
 18 19  1  0  0  0
 18 26  1  0  0  0
 19 20  1  0  0  0
 19 23  1  0  0  0
  1  2  1  0  0  0
  1  8  1  0  0  0
  1 43  1  0  0  0
  2  3  1  0  0  0
  2  6  1  0  0  0
  3  4  1  0  0  0
  3  7  1  0  0  0
  4  5  1  0  0  0
  4 14  1  0  0  0
  5 11  1  0  0  0
  5  8  1  0  0  0
 11 12  1  0  0  0
 44 45  1  0  0  0
 44 49  1  0  0  0
 44 52  1  0  0  0
 45 46  1  0  0  0
 45 50  1  0  0  0
 46 47  1  0  0  0
 46 51  1  0  0  0
 47 48  1  0  0  0
 47 43  1  0  0  0
 48 56  1  0  0  0
 48 52  1  0  0  0
 56 57  1  0  0  0
 34 37  1  0  0  0
 35 38  1  0  0  0
 36 39  1  0  0  0
 41 42  1  0  0  0
 26 27  1  0  0  0
 21 24  1  0  0  0
 22 25  1  0  0  0
  6  9  1  0  0  0
  7 10  1  0  0  0
 12 13  1  0  0  0
 49 53  1  0  0  0
 50 54  1  0  0  0
 51 55  1  0  0  0
 57 58  1  0  0  0
M  END
> <minimizedAffinity>
-9.51297

$$$$
3JYR_ACR_A_371


 58 61  0  0  0  0  0  0  0  0999 V2000
   26.1746   -1.7950   15.8718 C   0  0  0  0  0  0  0  0  0  0  0  0
   24.9678   -1.6328   16.7908 C   0  0  0  0  0  0  0  0  0  0  0  0
   23.7046   -1.8323   15.9557 C   0  0  0  0  0  0  0  0  0  0  0  0
   23.6355   -0.7815   14.8336 C   0  0  0  0  0  0  0  0  0  0  0  0
   24.9241   -0.8261   13.9983 C   0  0  0  0  0  0  0  0  0  0  0  0
   25.0568   -2.6167   17.8361 O   0  0  0  0  0  0  0  0  0  0  0  0
   22.5428   -1.7700   16.8129 O   0  0  0  0  0  0  0  0  0  0  0  0
   26.0732   -0.7880   14.8656 O   0  0  0  0  0  0  0  0  0  0  0  0
   25.0823   -3.5036   17.4441 H   0  0  0  0  0  0  0  0  0  0  0  0
   22.5036   -0.9008   17.2417 H   0  0  0  0  0  0  0  0  0  0  0  0
   25.0019    0.3735   13.0535 C   0  0  0  0  0  0  0  0  0  0  0  0
   25.3744   -0.1072   11.7526 O   0  0  0  0  0  0  0  0  0  0  0  0
   26.2324   -0.5563   11.8072 H   0  0  0  0  0  0  0  0  0  0  0  0
   22.5577   -1.0760   13.9614 O   0  0  0  0  0  0  0  0  0  0  0  0
   22.7615   -2.1944   13.1063 C   0  0  0  0  0  0  0  0  0  0  0  0
   22.0840   -1.9522   11.7535 C   0  0  0  0  0  0  0  0  0  0  0  0
   20.5572   -1.8632   11.9232 C   0  0  0  0  0  0  0  0  0  0  0  0
   19.9554   -3.0074   12.7513 C   0  0  0  0  0  0  0  0  0  0  0  0
   20.7834   -3.2814   14.0139 C   0  0  0  0  0  0  0  0  0  0  0  0
   20.3646   -4.6145   14.6475 C   0  0  0  0  0  0  0  0  0  0  0  0
   22.5763   -0.7512   11.1436 O   0  0  0  0  0  0  0  0  0  0  0  0
   19.9444   -1.8037   10.6191 O   0  0  0  0  0  0  0  0  0  0  0  0
   22.1921   -3.3335   13.7444 O   0  0  0  0  0  0  0  0  0  0  0  0
   22.3720    0.0075   11.7124 H   0  0  0  0  0  0  0  0  0  0  0  0
   20.1414   -2.6189   10.1318 H   0  0  0  0  0  0  0  0  0  0  0  0
   18.5879   -2.6647   13.1715 N   0  0  0  0  0  0  0  0  0  0  0  0
   18.4855   -2.9767   14.1372 H   0  0  0  0  0  0  0  0  0  0  0  0
   17.4610   -3.2075   12.4270 C   0  0  0  0  0  0  0  0  0  0  0  0
   16.1513   -3.2071   13.2455 C   0  0  0  0  0  0  0  0  0  0  0  0
   15.9640   -4.5013   14.0242 C   0  0  0  0  0  0  0  0  0  0  0  0
   15.9916   -5.7446   13.1323 C   0  0  0  0  0  0  0  0  0  0  0  0
   17.1546   -5.7179   12.1840 C   0  0  0  0  0  0  0  0  0  0  0  0
   17.8243   -4.5882   11.8964 C   0  0  0  0  0  0  0  0  0  0  0  0
   16.1187   -2.1385   14.2040 O   0  0  0  0  0  0  0  0  0  0  0  0
   14.7135   -4.4430   14.7273 O   0  0  0  0  0  0  0  0  0  0  0  0
   16.0746   -6.9056   13.9771 O   0  0  0  0  0  0  0  0  0  0  0  0
   16.8321   -2.2615   14.8497 H   0  0  0  0  0  0  0  0  0  0  0  0
   13.9872   -4.3632   14.0892 H   0  0  0  0  0  0  0  0  0  0  0  0
   16.8886   -6.8652   14.5031 H   0  0  0  0  0  0  0  0  0  0  0  0
   17.5875   -7.0029   11.5207 C   0  0  0  0  0  0  0  0  0  0  0  0
   18.3869   -7.7382   12.4504 O   0  0  0  0  0  0  0  0  0  0  0  0
   19.1589   -7.2081   12.7030 H   0  0  0  0  0  0  0  0  0  0  0  0
   26.1532   -3.0946   15.2810 O   0  0  0  0  0  0  0  0  0  0  0  0
   28.7830   -6.1847   14.4359 C   0  0  0  0  0  0  0  0  0  0  0  0
   28.7672   -5.6633   15.8686 C   0  0  0  0  0  0  0  0  0  0  0  0
   27.5111   -4.8359   16.1519 C   0  0  0  0  0  0  0  0  0  0  0  0
   27.4189   -3.7136   15.1209 C   0  0  0  0  0  0  0  0  0  0  0  0
   27.4751   -4.2976   13.7041 C   0  0  0  0  0  0  0  0  0  0  0  0
   27.7118   -7.1014   14.2394 O   0  0  0  0  0  0  0  0  0  0  0  0
   28.8262   -6.8051   16.7233 O   0  0  0  0  0  0  0  0  0  0  0  0
   27.5520   -4.2780   17.4671 O   0  0  0  0  0  0  0  0  0  0  0  0
   28.6606   -5.1063   13.5071 O   0  0  0  0  0  0  0  0  0  0  0  0
   26.8672   -6.6490   14.3905 H   0  0  0  0  0  0  0  0  0  0  0  0
   28.0624   -7.3777   16.5511 H   0  0  0  0  0  0  0  0  0  0  0  0
   28.3242   -3.6966   17.5479 H   0  0  0  0  0  0  0  0  0  0  0  0
   27.4258   -3.1921   12.6329 C   0  0  0  0  0  0  0  0  0  0  0  0
   28.1356   -2.0254   13.0959 O   0  0  0  0  0  0  0  0  0  0  0  0
   27.7215   -1.6965   13.9091 H   0  0  0  0  0  0  0  0  0  0  0  0
 28 29  1  0  0  0
 28 33  1  0  0  0
 28 26  1  0  0  0
 29 30  1  0  0  0
 29 34  1  0  0  0
 30 31  1  0  0  0
 30 35  1  0  0  0
 31 32  1  0  0  0
 31 36  1  0  0  0
 32 40  1  0  0  0
 32 33  2  0  0  0
 40 41  1  0  0  0
 15 16  1  0  0  0
 15 23  1  0  0  0
 15 14  1  0  0  0
 16 17  1  0  0  0
 16 21  1  0  0  0
 17 18  1  0  0  0
 17 22  1  0  0  0
 18 19  1  0  0  0
 18 26  1  0  0  0
 19 20  1  0  0  0
 19 23  1  0  0  0
  1  2  1  0  0  0
  1  8  1  0  0  0
  1 43  1  0  0  0
  2  3  1  0  0  0
  2  6  1  0  0  0
  3  4  1  0  0  0
  3  7  1  0  0  0
  4  5  1  0  0  0
  4 14  1  0  0  0
  5 11  1  0  0  0
  5  8  1  0  0  0
 11 12  1  0  0  0
 44 45  1  0  0  0
 44 49  1  0  0  0
 44 52  1  0  0  0
 45 46  1  0  0  0
 45 50  1  0  0  0
 46 47  1  0  0  0
 46 51  1  0  0  0
 47 48  1  0  0  0
 47 43  1  0  0  0
 48 56  1  0  0  0
 48 52  1  0  0  0
 56 57  1  0  0  0
 34 37  1  0  0  0
 35 38  1  0  0  0
 36 39  1  0  0  0
 41 42  1  0  0  0
 26 27  1  0  0  0
 21 24  1  0  0  0
 22 25  1  0  0  0
  6  9  1  0  0  0
  7 10  1  0  0  0
 12 13  1  0  0  0
 49 53  1  0  0  0
 50 54  1  0  0  0
 51 55  1  0  0  0
 57 58  1  0  0  0
M  END
> <minimizedAffinity>
-9.46937

$$$$
3JYR_ACR_A_371


 58 61  0  0  0  0  0  0  0  0999 V2000
   18.4667   -2.0824   13.4626 C   0  0  0  0  0  0  0  0  0  0  0  0
   19.3381   -0.8315   13.5204 C   0  0  0  0  0  0  0  0  0  0  0  0
   20.7050   -1.1772   12.9332 C   0  0  0  0  0  0  0  0  0  0  0  0
   21.3689   -2.2988   13.7514 C   0  0  0  0  0  0  0  0  0  0  0  0
   20.4259   -3.5085   13.8376 C   0  0  0  0  0  0  0  0  0  0  0  0
   18.6958    0.2056   12.7583 O   0  0  0  0  0  0  0  0  0  0  0  0
   21.5291    0.0093   12.8936 O   0  0  0  0  0  0  0  0  0  0  0  0
   19.1144   -3.0805   14.2507 O   0  0  0  0  0  0  0  0  0  0  0  0
   18.5726   -0.0940   11.8440 H   0  0  0  0  0  0  0  0  0  0  0  0
   21.6493    0.3497   13.7940 H   0  0  0  0  0  0  0  0  0  0  0  0
   20.9373   -4.5255   14.8583 C   0  0  0  0  0  0  0  0  0  0  0  0
   20.4068   -5.8133   14.5088 O   0  0  0  0  0  0  0  0  0  0  0  0
   19.4375   -5.7769   14.5177 H   0  0  0  0  0  0  0  0  0  0  0  0
   22.5529   -2.7328   13.1045 O   0  0  0  0  0  0  0  0  0  0  0  0
   23.6313   -1.8056   13.1335 C   0  0  0  0  0  0  0  0  0  0  0  0
   24.9019   -2.4595   12.5806 C   0  0  0  0  0  0  0  0  0  0  0  0
   25.3547   -3.6138   13.4917 C   0  0  0  0  0  0  0  0  0  0  0  0
   25.4138   -3.2448   14.9808 C   0  0  0  0  0  0  0  0  0  0  0  0
   24.1676   -2.4611   15.4140 C   0  0  0  0  0  0  0  0  0  0  0  0
   24.3882   -1.8292   16.7946 C   0  0  0  0  0  0  0  0  0  0  0  0
   24.6876   -2.9464   11.2488 O   0  0  0  0  0  0  0  0  0  0  0  0
   26.6362   -4.0938   13.0366 O   0  0  0  0  0  0  0  0  0  0  0  0
   23.8285   -1.4170   14.4895 O   0  0  0  0  0  0  0  0  0  0  0  0
   23.9923   -3.6228   11.2598 H   0  0  0  0  0  0  0  0  0  0  0  0
   27.2924   -3.3832   13.1103 H   0  0  0  0  0  0  0  0  0  0  0  0
   25.4918   -4.4625   15.8025 N   0  0  0  0  0  0  0  0  0  0  0  0
   26.4597   -4.7827   15.7703 H   0  0  0  0  0  0  0  0  0  0  0  0
   24.6546   -5.6030   15.4602 C   0  0  0  0  0  0  0  0  0  0  0  0
   23.7020   -6.0074   16.6066 C   0  0  0  0  0  0  0  0  0  0  0  0
   24.3293   -7.0388   17.5334 C   0  0  0  0  0  0  0  0  0  0  0  0
   24.7871   -8.3014   16.7997 C   0  0  0  0  0  0  0  0  0  0  0  0
   25.5764   -7.9681   15.5674 C   0  0  0  0  0  0  0  0  0  0  0  0
   25.5356   -6.7538   14.9919 C   0  0  0  0  0  0  0  0  0  0  0  0
   23.3386   -4.8836   17.4231 O   0  0  0  0  0  0  0  0  0  0  0  0
   23.3761   -7.3923   18.5473 O   0  0  0  0  0  0  0  0  0  0  0  0
   25.5918   -9.0817   17.7009 O   0  0  0  0  0  0  0  0  0  0  0  0
   24.1313   -4.5269   17.8536 H   0  0  0  0  0  0  0  0  0  0  0  0
   22.5951   -7.7905   18.1321 H   0  0  0  0  0  0  0  0  0  0  0  0
   26.3665   -8.5650   17.9725 H   0  0  0  0  0  0  0  0  0  0  0  0
   26.4436   -9.0343   14.9433 C   0  0  0  0  0  0  0  0  0  0  0  0
   26.2234   -9.0188   13.5307 O   0  0  0  0  0  0  0  0  0  0  0  0
   25.2865   -9.1911   13.3476 H   0  0  0  0  0  0  0  0  0  0  0  0
   18.3453   -2.5172   12.1082 O   0  0  0  0  0  0  0  0  0  0  0  0
   14.7157   -4.3576   12.8942 C   0  0  0  0  0  0  0  0  0  0  0  0
   15.8663   -5.2575   12.4570 C   0  0  0  0  0  0  0  0  0  0  0  0
   17.2163   -4.5488   12.5904 C   0  0  0  0  0  0  0  0  0  0  0  0
   17.1652   -3.2419   11.8029 C   0  0  0  0  0  0  0  0  0  0  0  0
   15.9698   -2.3989   12.2631 C   0  0  0  0  0  0  0  0  0  0  0  0
   14.8220   -4.0720   14.2848 O   0  0  0  0  0  0  0  0  0  0  0  0
   15.8188   -6.4189   13.2856 O   0  0  0  0  0  0  0  0  0  0  0  0
   18.2758   -5.3687   12.0927 O   0  0  0  0  0  0  0  0  0  0  0  0
   14.7263   -3.1342   12.1568 O   0  0  0  0  0  0  0  0  0  0  0  0
   15.6558   -3.6071   14.4566 H   0  0  0  0  0  0  0  0  0  0  0  0
   15.9131   -6.1572   14.2149 H   0  0  0  0  0  0  0  0  0  0  0  0
   18.1234   -5.5594   11.1539 H   0  0  0  0  0  0  0  0  0  0  0  0
   15.8591   -1.0877   11.4628 C   0  0  0  0  0  0  0  0  0  0  0  0
   15.7262    0.0300   12.3642 O   0  0  0  0  0  0  0  0  0  0  0  0
   14.9262   -0.0811   12.9012 H   0  0  0  0  0  0  0  0  0  0  0  0
 28 29  1  0  0  0
 28 33  1  0  0  0
 28 26  1  0  0  0
 29 30  1  0  0  0
 29 34  1  0  0  0
 30 31  1  0  0  0
 30 35  1  0  0  0
 31 32  1  0  0  0
 31 36  1  0  0  0
 32 40  1  0  0  0
 32 33  2  0  0  0
 40 41  1  0  0  0
 15 16  1  0  0  0
 15 23  1  0  0  0
 15 14  1  0  0  0
 16 17  1  0  0  0
 16 21  1  0  0  0
 17 18  1  0  0  0
 17 22  1  0  0  0
 18 19  1  0  0  0
 18 26  1  0  0  0
 19 20  1  0  0  0
 19 23  1  0  0  0
  1  2  1  0  0  0
  1  8  1  0  0  0
  1 43  1  0  0  0
  2  3  1  0  0  0
  2  6  1  0  0  0
  3  4  1  0  0  0
  3  7  1  0  0  0
  4  5  1  0  0  0
  4 14  1  0  0  0
  5 11  1  0  0  0
  5  8  1  0  0  0
 11 12  1  0  0  0
 44 45  1  0  0  0
 44 49  1  0  0  0
 44 52  1  0  0  0
 45 46  1  0  0  0
 45 50  1  0  0  0
 46 47  1  0  0  0
 46 51  1  0  0  0
 47 48  1  0  0  0
 47 43  1  0  0  0
 48 56  1  0  0  0
 48 52  1  0  0  0
 56 57  1  0  0  0
 34 37  1  0  0  0
 35 38  1  0  0  0
 36 39  1  0  0  0
 41 42  1  0  0  0
 26 27  1  0  0  0
 21 24  1  0  0  0
 22 25  1  0  0  0
  6  9  1  0  0  0
  7 10  1  0  0  0
 12 13  1  0  0  0
 49 53  1  0  0  0
 50 54  1  0  0  0
 51 55  1  0  0  0
 57 58  1  0  0  0
M  END
> <minimizedAffinity>
-9.36004

$$$$
3JYR_ACR_A_371


 58 61  0  0  0  0  0  0  0  0999 V2000
   26.6630    1.2642   13.7240 C   0  0  0  0  0  0  0  0  0  0  0  0
   25.4660    1.4976   12.8074 C   0  0  0  0  0  0  0  0  0  0  0  0
   24.3499    0.5452   13.2317 C   0  0  0  0  0  0  0  0  0  0  0  0
   24.8160   -0.9154   13.0992 C   0  0  0  0  0  0  0  0  0  0  0  0
   26.1172   -1.1206   13.8897 C   0  0  0  0  0  0  0  0  0  0  0  0
   25.0529    2.8690   12.9394 O   0  0  0  0  0  0  0  0  0  0  0  0
   23.1691    0.7991   12.4383 O   0  0  0  0  0  0  0  0  0  0  0  0
   27.0668   -0.0933   13.5479 O   0  0  0  0  0  0  0  0  0  0  0  0
   24.8265    3.0509   13.8649 H   0  0  0  0  0  0  0  0  0  0  0  0
   23.3712    0.6510   11.5012 H   0  0  0  0  0  0  0  0  0  0  0  0
   26.7448   -2.4758   13.5624 C   0  0  0  0  0  0  0  0  0  0  0  0
   26.2527   -3.4356   14.5104 O   0  0  0  0  0  0  0  0  0  0  0  0
   26.4915   -3.1554   15.4078 H   0  0  0  0  0  0  0  0  0  0  0  0
   23.8442   -1.7850   13.6544 O   0  0  0  0  0  0  0  0  0  0  0  0
   23.0454   -1.2177   14.6857 C   0  0  0  0  0  0  0  0  0  0  0  0
   23.1261   -2.0816   15.9486 C   0  0  0  0  0  0  0  0  0  0  0  0
   22.5087   -3.4679   15.6941 C   0  0  0  0  0  0  0  0  0  0  0  0
   21.1246   -3.4206   15.0314 C   0  0  0  0  0  0  0  0  0  0  0  0
   21.0933   -2.4184   13.8696 C   0  0  0  0  0  0  0  0  0  0  0  0
   19.6463   -2.1479   13.4376 C   0  0  0  0  0  0  0  0  0  0  0  0
   24.4854   -2.2267   16.3820 O   0  0  0  0  0  0  0  0  0  0  0  0
   22.4498   -4.1897   16.9412 O   0  0  0  0  0  0  0  0  0  0  0  0
   21.7035   -1.1650   14.2110 O   0  0  0  0  0  0  0  0  0  0  0  0
   24.9995   -2.6720   15.6903 H   0  0  0  0  0  0  0  0  0  0  0  0
   21.8723   -3.7174   17.5612 H   0  0  0  0  0  0  0  0  0  0  0  0
   20.7725   -4.7451   14.4970 N   0  0  0  0  0  0  0  0  0  0  0  0
   20.5545   -4.6197   13.5085 H   0  0  0  0  0  0  0  0  0  0  0  0
   19.6609   -5.4751   15.0888 C   0  0  0  0  0  0  0  0  0  0  0  0
   20.0893   -6.8375   15.6769 C   0  0  0  0  0  0  0  0  0  0  0  0
   19.9820   -7.9600   14.6547 C   0  0  0  0  0  0  0  0  0  0  0  0
   18.5781   -8.0951   14.0608 C   0  0  0  0  0  0  0  0  0  0  0  0
   18.0317   -6.7659   13.6278 C   0  0  0  0  0  0  0  0  0  0  0  0
   18.5382   -5.6007   14.0673 C   0  0  0  0  0  0  0  0  0  0  0  0
   21.4510   -6.8204   16.1319 O   0  0  0  0  0  0  0  0  0  0  0  0
   20.3587   -9.1957   15.2813 O   0  0  0  0  0  0  0  0  0  0  0  0
   18.6472   -8.9869   12.9345 O   0  0  0  0  0  0  0  0  0  0  0  0
   22.0416   -6.6618   15.3789 H   0  0  0  0  0  0  0  0  0  0  0  0
   19.7483   -9.3878   16.0103 H   0  0  0  0  0  0  0  0  0  0  0  0
   19.2480   -8.6194   12.2675 H   0  0  0  0  0  0  0  0  0  0  0  0
   16.8658   -6.7311   12.6697 C   0  0  0  0  0  0  0  0  0  0  0  0
   17.3504   -7.0568   11.3647 O   0  0  0  0  0  0  0  0  0  0  0  0
   18.0273   -6.4139   11.1013 H   0  0  0  0  0  0  0  0  0  0  0  0
   26.2793    1.4989   15.0790 O   0  0  0  0  0  0  0  0  0  0  0  0
   27.6469    3.5495   18.4112 C   0  0  0  0  0  0  0  0  0  0  0  0
   27.4496    4.3593   17.1345 C   0  0  0  0  0  0  0  0  0  0  0  0
   26.5803    3.6098   16.1220 C   0  0  0  0  0  0  0  0  0  0  0  0
   27.2042    2.2421   15.8557 C   0  0  0  0  0  0  0  0  0  0  0  0
   27.4088    1.4929   17.1780 C   0  0  0  0  0  0  0  0  0  0  0  0
   26.4010    3.3829   19.0796 O   0  0  0  0  0  0  0  0  0  0  0  0
   26.8360    5.5899   17.5176 O   0  0  0  0  0  0  0  0  0  0  0  0
   26.4785    4.3385   14.8967 O   0  0  0  0  0  0  0  0  0  0  0  0
   28.1999    2.2667   18.1125 O   0  0  0  0  0  0  0  0  0  0  0  0
   25.7871    2.9007   18.5038 H   0  0  0  0  0  0  0  0  0  0  0  0
   25.9873    5.4070   17.9503 H   0  0  0  0  0  0  0  0  0  0  0  0
   27.3625    4.4522   14.5138 H   0  0  0  0  0  0  0  0  0  0  0  0
   28.0750    0.1222   16.9556 C   0  0  0  0  0  0  0  0  0  0  0  0
   27.0871   -0.9250   17.0379 O   0  0  0  0  0  0  0  0  0  0  0  0
   26.6750   -0.9124   17.9159 H   0  0  0  0  0  0  0  0  0  0  0  0
 28 29  1  0  0  0
 28 33  1  0  0  0
 28 26  1  0  0  0
 29 30  1  0  0  0
 29 34  1  0  0  0
 30 31  1  0  0  0
 30 35  1  0  0  0
 31 32  1  0  0  0
 31 36  1  0  0  0
 32 40  1  0  0  0
 32 33  2  0  0  0
 40 41  1  0  0  0
 15 16  1  0  0  0
 15 23  1  0  0  0
 15 14  1  0  0  0
 16 17  1  0  0  0
 16 21  1  0  0  0
 17 18  1  0  0  0
 17 22  1  0  0  0
 18 19  1  0  0  0
 18 26  1  0  0  0
 19 20  1  0  0  0
 19 23  1  0  0  0
  1  2  1  0  0  0
  1  8  1  0  0  0
  1 43  1  0  0  0
  2  3  1  0  0  0
  2  6  1  0  0  0
  3  4  1  0  0  0
  3  7  1  0  0  0
  4  5  1  0  0  0
  4 14  1  0  0  0
  5 11  1  0  0  0
  5  8  1  0  0  0
 11 12  1  0  0  0
 44 45  1  0  0  0
 44 49  1  0  0  0
 44 52  1  0  0  0
 45 46  1  0  0  0
 45 50  1  0  0  0
 46 47  1  0  0  0
 46 51  1  0  0  0
 47 48  1  0  0  0
 47 43  1  0  0  0
 48 56  1  0  0  0
 48 52  1  0  0  0
 56 57  1  0  0  0
 34 37  1  0  0  0
 35 38  1  0  0  0
 36 39  1  0  0  0
 41 42  1  0  0  0
 26 27  1  0  0  0
 21 24  1  0  0  0
 22 25  1  0  0  0
  6  9  1  0  0  0
  7 10  1  0  0  0
 12 13  1  0  0  0
 49 53  1  0  0  0
 50 54  1  0  0  0
 51 55  1  0  0  0
 57 58  1  0  0  0
M  END
> <minimizedAffinity>
-9.32725

$$$$
3JYR_ACR_A_371


 58 61  0  0  0  0  0  0  0  0999 V2000
   27.6915   -7.0686   13.7967 C   0  0  0  0  0  0  0  0  0  0  0  0
   27.4444   -8.4467   14.4025 C   0  0  0  0  0  0  0  0  0  0  0  0
   25.9461   -8.7347   14.3322 C   0  0  0  0  0  0  0  0  0  0  0  0
   25.1619   -7.6789   15.1312 C   0  0  0  0  0  0  0  0  0  0  0  0
   25.5296   -6.2719   14.6357 C   0  0  0  0  0  0  0  0  0  0  0  0
   28.1927   -9.4159   13.6479 O   0  0  0  0  0  0  0  0  0  0  0  0
   25.6864  -10.0699   14.8204 O   0  0  0  0  0  0  0  0  0  0  0  0
   26.9616   -6.1281   14.5838 O   0  0  0  0  0  0  0  0  0  0  0  0
   27.9155   -9.3864   12.7188 H   0  0  0  0  0  0  0  0  0  0  0  0
   25.9782  -10.1394   15.7428 H   0  0  0  0  0  0  0  0  0  0  0  0
   24.9784   -5.2017   15.5784 C   0  0  0  0  0  0  0  0  0  0  0  0
   23.7341   -4.7302   15.0385 O   0  0  0  0  0  0  0  0  0  0  0  0
   23.8843   -4.3625   14.1535 H   0  0  0  0  0  0  0  0  0  0  0  0
   23.7705   -7.8491   14.9213 O   0  0  0  0  0  0  0  0  0  0  0  0
   23.0006   -8.0382   16.1023 C   0  0  0  0  0  0  0  0  0  0  0  0
   22.2829   -9.3911   16.0511 C   0  0  0  0  0  0  0  0  0  0  0  0
   21.2546   -9.4130   14.9066 C   0  0  0  0  0  0  0  0  0  0  0  0
   20.3282   -8.1891   14.8788 C   0  0  0  0  0  0  0  0  0  0  0  0
   21.1132   -6.8870   15.0871 C   0  0  0  0  0  0  0  0  0  0  0  0
   20.1531   -5.7263   15.3784 C   0  0  0  0  0  0  0  0  0  0  0  0
   23.2223  -10.4613   15.8815 O   0  0  0  0  0  0  0  0  0  0  0  0
   20.4853  -10.6299   14.9924 O   0  0  0  0  0  0  0  0  0  0  0  0
   22.0500   -6.9797   16.1705 O   0  0  0  0  0  0  0  0  0  0  0  0
   23.6928  -10.3484   15.0407 H   0  0  0  0  0  0  0  0  0  0  0  0
   19.9967  -10.6451   15.8302 H   0  0  0  0  0  0  0  0  0  0  0  0
   19.6418   -8.1018   13.5806 N   0  0  0  0  0  0  0  0  0  0  0  0
   19.8165   -7.1665   13.2131 H   0  0  0  0  0  0  0  0  0  0  0  0
   18.2038   -8.3200   13.5234 C   0  0  0  0  0  0  0  0  0  0  0  0
   17.5131   -7.4559   12.4457 C   0  0  0  0  0  0  0  0  0  0  0  0
   17.0553   -6.1132   12.9972 C   0  0  0  0  0  0  0  0  0  0  0  0
   16.1187   -6.2492   14.1998 C   0  0  0  0  0  0  0  0  0  0  0  0
   16.6563   -7.2193   15.2112 C   0  0  0  0  0  0  0  0  0  0  0  0
   17.6072   -8.1208   14.9106 C   0  0  0  0  0  0  0  0  0  0  0  0
   18.3882   -7.1740   11.3428 O   0  0  0  0  0  0  0  0  0  0  0  0
   16.3922   -5.3844   11.9529 O   0  0  0  0  0  0  0  0  0  0  0  0
   15.9622   -4.9517   14.8004 O   0  0  0  0  0  0  0  0  0  0  0  0
   19.1433   -6.6511   11.6547 H   0  0  0  0  0  0  0  0  0  0  0  0
   15.6092   -5.8772   11.6615 H   0  0  0  0  0  0  0  0  0  0  0  0
   16.8265   -4.6263   15.0970 H   0  0  0  0  0  0  0  0  0  0  0  0
   16.1068   -7.1905   16.6168 C   0  0  0  0  0  0  0  0  0  0  0  0
   16.6981   -6.0854   17.3048 O   0  0  0  0  0  0  0  0  0  0  0  0
   17.6622   -6.1911   17.3178 H   0  0  0  0  0  0  0  0  0  0  0  0
   27.2313   -7.0518   12.4453 O   0  0  0  0  0  0  0  0  0  0  0  0
   29.9646   -4.1161   11.4015 C   0  0  0  0  0  0  0  0  0  0  0  0
   28.4919   -3.8083   11.1542 C   0  0  0  0  0  0  0  0  0  0  0  0
   27.5802   -4.7608   11.9315 C   0  0  0  0  0  0  0  0  0  0  0  0
   27.9458   -6.1977   11.5673 C   0  0  0  0  0  0  0  0  0  0  0  0
   29.4423   -6.4339   11.8043 C   0  0  0  0  0  0  0  0  0  0  0  0
   30.2906   -3.8727   12.7657 O   0  0  0  0  0  0  0  0  0  0  0  0
   28.2793   -2.4568   11.5617 O   0  0  0  0  0  0  0  0  0  0  0  0
   26.2060   -4.5210   11.6207 O   0  0  0  0  0  0  0  0  0  0  0  0
   30.2545   -5.4775   11.0804 O   0  0  0  0  0  0  0  0  0  0  0  0
   29.7580   -4.4513   13.3336 H   0  0  0  0  0  0  0  0  0  0  0  0
   28.5032   -2.3633   12.5009 H   0  0  0  0  0  0  0  0  0  0  0  0
   26.0590   -4.6647   10.6727 H   0  0  0  0  0  0  0  0  0  0  0  0
   29.8601   -7.8628   11.4095 C   0  0  0  0  0  0  0  0  0  0  0  0
   28.7770   -8.5205   10.7213 O   0  0  0  0  0  0  0  0  0  0  0  0
   28.0038   -8.5671   11.3052 H   0  0  0  0  0  0  0  0  0  0  0  0
 28 29  1  0  0  0
 28 33  1  0  0  0
 28 26  1  0  0  0
 29 30  1  0  0  0
 29 34  1  0  0  0
 30 31  1  0  0  0
 30 35  1  0  0  0
 31 32  1  0  0  0
 31 36  1  0  0  0
 32 40  1  0  0  0
 32 33  2  0  0  0
 40 41  1  0  0  0
 15 16  1  0  0  0
 15 23  1  0  0  0
 15 14  1  0  0  0
 16 17  1  0  0  0
 16 21  1  0  0  0
 17 18  1  0  0  0
 17 22  1  0  0  0
 18 19  1  0  0  0
 18 26  1  0  0  0
 19 20  1  0  0  0
 19 23  1  0  0  0
  1  2  1  0  0  0
  1  8  1  0  0  0
  1 43  1  0  0  0
  2  3  1  0  0  0
  2  6  1  0  0  0
  3  4  1  0  0  0
  3  7  1  0  0  0
  4  5  1  0  0  0
  4 14  1  0  0  0
  5 11  1  0  0  0
  5  8  1  0  0  0
 11 12  1  0  0  0
 44 45  1  0  0  0
 44 49  1  0  0  0
 44 52  1  0  0  0
 45 46  1  0  0  0
 45 50  1  0  0  0
 46 47  1  0  0  0
 46 51  1  0  0  0
 47 48  1  0  0  0
 47 43  1  0  0  0
 48 56  1  0  0  0
 48 52  1  0  0  0
 56 57  1  0  0  0
 34 37  1  0  0  0
 35 38  1  0  0  0
 36 39  1  0  0  0
 41 42  1  0  0  0
 26 27  1  0  0  0
 21 24  1  0  0  0
 22 25  1  0  0  0
  6  9  1  0  0  0
  7 10  1  0  0  0
 12 13  1  0  0  0
 49 53  1  0  0  0
 50 54  1  0  0  0
 51 55  1  0  0  0
 57 58  1  0  0  0
M  END
> <minimizedAffinity>
-9.23996

$$$$
