3JYR_ACR_A_371
  RCSB PDB12061709213D
Coordinates from PDB:3JYR:A:371 Model:1 without hydrogens
 44 47  0  0  0  0            999 V2000
   22.3770   -8.7970   17.0440   C 0  0  0  0  0  0  0  0  0  0  0  0
   23.4350   -7.7180   17.3630   C 0  0  0  0  0  0  0  0  0  0  0  0
   24.6690   -7.8500   16.4820   C 0  0  0  0  0  0  0  0  0  0  0  0
   25.3240   -9.2300   16.5740   C 0  0  0  0  0  0  0  0  0  0  0  0
   24.3120  -10.3310   16.4460   C 0  0  0  0  0  0  0  0  0  0  0  0
   24.7850  -11.7240   16.1080   C 0  0  0  0  0  0  0  0  0  0  0  0
   22.9960  -10.1250   16.6280   C 0  0  0  0  0  0  0  0  0  0  0  0
   22.9240   -6.3910   17.1640   O 0  0  0  0  0  0  0  0  0  0  0  0
   25.6190   -6.8420   16.8600   O 0  0  0  0  0  0  0  0  0  0  0  0
   26.3010   -9.3380   15.5240   O 0  0  0  0  0  0  0  0  0  0  0  0
   24.9570  -12.4460   17.3300   O 0  0  0  0  0  0  0  0  0  0  0  0
   17.3090   -8.1560   15.2270   C 0  0  0  0  0  0  0  0  0  0  0  0
   17.6650   -8.0190   16.7110   C 0  0  0  0  0  0  0  0  0  0  0  0
   19.1810   -7.8220   16.8860   C 0  0  0  0  0  0  0  0  0  0  0  0
   20.0340   -8.8340   16.1080   C 0  0  0  0  0  0  0  0  0  0  0  0
   19.5150   -9.0210   14.6760   C 0  0  0  0  0  0  0  0  0  0  0  0
   20.1640  -10.2520   14.0300   C 0  0  0  0  0  0  0  0  0  0  0  0
   21.4270   -8.3680   16.0280   N 0  0  0  0  0  0  0  0  0  0  0  0
   16.9600   -6.9210   17.3060   O 0  0  0  0  0  0  0  0  0  0  0  0
   19.4990   -7.8650   18.2920   O 0  0  0  0  0  0  0  0  0  0  0  0
   18.0900   -9.1850   14.6270   O 0  0  0  0  0  0  0  0  0  0  0  0
   15.6510   -4.1670   12.1430   C 0  0  0  0  0  0  0  0  0  0  0  0
   14.8650   -4.6500   13.3580   C 0  0  0  0  0  0  0  0  0  0  0  0
   15.8500   -5.2780   14.3420   C 0  0  0  0  0  0  0  0  0  0  0  0
   16.5660   -6.4740   13.6900   C 0  0  0  0  0  0  0  0  0  0  0  0
   17.2260   -6.0320   12.3750   C 0  0  0  0  0  0  0  0  0  0  0  0
   17.7110   -7.2420   11.5760   C 0  0  0  0  0  0  0  0  0  0  0  0
   14.1970   -3.5200   13.9460   O 0  0  0  0  0  0  0  0  0  0  0  0
   15.1500   -5.6700   15.5440   O 0  0  0  0  0  0  0  0  0  0  0  0
   17.5970   -6.9430   14.5420   O 0  0  0  0  0  0  0  0  0  0  0  0
   16.2760   -5.3130   11.5660   O 0  0  0  0  0  0  0  0  0  0  0  0
   18.7060   -6.7910   10.6440   O 0  0  0  0  0  0  0  0  0  0  0  0
   17.9050    0.5850   11.5080   C 0  0  0  0  0  0  0  0  0  0  0  0
   16.4010    0.3700   11.6360   C 0  0  0  0  0  0  0  0  0  0  0  0
   16.0800   -0.9150   12.4030   C 0  0  0  0  0  0  0  0  0  0  0  0
   16.7810   -2.0850   11.7170   C 0  0  0  0  0  0  0  0  0  0  0  0
   18.2810   -1.7940   11.5870   C 0  0  0  0  0  0  0  0  0  0  0  0
   19.0190   -2.9350   10.8620   C 0  0  0  0  0  0  0  0  0  0  0  0
   18.4780    0.7960   12.7940   O 0  0  0  0  0  0  0  0  0  0  0  0
   15.8780    1.5110   12.3160   O 0  0  0  0  0  0  0  0  0  0  0  0
   14.6710   -1.1520   12.4370   O 0  0  0  0  0  0  0  0  0  0  0  0
   16.6340   -3.2180   12.5570   O 0  0  0  0  0  0  0  0  0  0  0  0
   18.5240   -0.5460   10.8930   O 0  0  0  0  0  0  0  0  0  0  0  0
   20.4440   -2.7750   11.0140   O 0  0  0  0  0  0  0  0  0  0  0  0
  1  2  1  0  0  0  0
  1  7  1  0  0  0  0
  1 18  1  0  0  0  0
  2  3  1  0  0  0  0
  2  8  1  0  0  0  0
  3  4  1  0  0  0  0
  3  9  1  0  0  0  0
  4  5  1  0  0  0  0
  4 10  1  0  0  0  0
  5  6  1  0  0  0  0
  5  7  2  0  0  0  0
  6 11  1  0  0  0  0
 12 13  1  0  0  0  0
 12 21  1  0  0  0  0
 12 30  1  0  0  0  0
 13 14  1  0  0  0  0
 13 19  1  0  0  0  0
 14 15  1  0  0  0  0
 14 20  1  0  0  0  0
 15 16  1  0  0  0  0
 15 18  1  0  0  0  0
 16 17  1  0  0  0  0
 16 21  1  0  0  0  0
 22 23  1  0  0  0  0
 22 31  1  0  0  0  0
 22 42  1  0  0  0  0
 23 24  1  0  0  0  0
 23 28  1  0  0  0  0
 24 25  1  0  0  0  0
 24 29  1  0  0  0  0
 25 26  1  0  0  0  0
 25 30  1  0  0  0  0
 26 27  1  0  0  0  0
 26 31  1  0  0  0  0
 27 32  1  0  0  0  0
 33 34  1  0  0  0  0
 33 39  1  0  0  0  0
 33 43  1  0  0  0  0
 34 35  1  0  0  0  0
 34 40  1  0  0  0  0
 35 36  1  0  0  0  0
 35 41  1  0  0  0  0
 36 37  1  0  0  0  0
 36 42  1  0  0  0  0
 37 38  1  0  0  0  0
 37 43  1  0  0  0  0
 38 44  1  0  0  0  0
A    1
C1A
A    2
C2A
A    3
C3A
A    4
C4A
A    5
C5A
A    6
C6A
A    7
C7A
A    8
O2A
A    9
O3A
A   10
O4A
A   11
O6A
A   12
C1B
A   13
C2B
A   14
C3B
A   15
C4B
A   16
C5B
A   17
C6B
A   18
N4B
A   19
O2B
A   20
O3B
A   21
O5B
A   22
C1C
A   23
C2C
A   24
C3C
A   25
C4C
A   26
C5C
A   27
C6C
A   28
O2C
A   29
O3C
A   30
O4C
A   31
O5C
A   32
O6C
A   33
C1D
A   34
C2D
A   35
C3D
A   36
C4D
A   37
C5D
A   38
C6D
A   39
O1D
A   40
O2D
A   41
O3D
A   42
O4D
A   43
O5D
A   44
O6D
M  END
>  <InstanceId>
3JYR_ACR_A_371

>  <ChemCompId>
ACR

>  <PdbId>
3JYR

>  <ChainId>
A

>  <ResidueNumber>
371

>  <InsertionCode>


>  <Model>
1

>  <AltIds>


>  <MissingHeavyAtoms>
0

>  <ObservedFormula>
C25 N O18

>  <Name>
ALPHA-ACARBOSE

>  <SystematicName>
(2S,3R,4R,5S,6R)-5-[(2R,3R,4R,5S,6R)-5-[(2R,3R,4S,5S,6R)-3,4-dihydroxy-6-methyl-5-[[(1S,4R,5S,6S)-4,5,6-trihydroxy-3-(hydroxymethyl)cyclohex-2-en-1-yl]amino]oxan-2-yl]oxy-3,4-dihydroxy-6-(hydroxymethyl)oxan-2-yl]oxy-6-(hydroxymethyl)oxane-2,3,4-triol

>  <Synonyms>
1,4-DEOXY-4-((5-HYDROXYMETHYL-2,3,4-TRIHYDROXYCYCLOHEX-5,6-ENYL)AMINO)FRUCTOSE

>  <Type>
SACCHARIDE

>  <Formula>
C25 H43 N O18

>  <MolecularWeight>
645.605

>  <ModifiedDate>
2011-06-04

>  <Parent>


>  <OneLetterCode>


>  <SubcomponentList>


>  <AmbiguousFlag>
N

>  <InChI>
InChI=1S/C25H43NO18/c1-6-11(26-8-2-7(3-27)12(30)15(33)13(8)31)14(32)19(37)24(40-6)43-22-10(5-29)42-25(20(38)17(22)35)44-21-9(4-28)41-23(39)18(36)16(21)34/h2,6,8-39H,3-5H2,1H3/t6-,8+,9-,10-,11-,12-,13+,14+,15+,16-,17-,18-,19-,20-,21-,22-,23+,24-,25-/m1/s1

>  <InChIKey>
XUFXOAAUWZOOIT-WVJZLWNXSA-N

>  <SMILES>
C[C@@H]1[C@H]([C@@H]([C@H]([C@H](O1)O[C@@H]2[C@H](O[C@@H]([C@@H]([C@H]2O)O)O[C@@H]3[C@H](O[C@@H]([C@@H]([C@H]3O)O)O)CO)CO)O)O)N[C@H]4C=C([C@H]([C@@H]([C@H]4O)O)O)CO

$$$$
