4I54_1C1_A_501


 35 37  0  0  0  0  0  0  0  0999 V2000
   -2.4926  -14.0557  -12.4399 C   0  0  0  0  0  0  0  0  0  0  0  0
   -3.1035  -13.5336  -13.7004 C   0  0  0  0  0  0  0  0  0  0  0  0
   -4.1052  -14.5942  -14.1138 C   0  0  0  0  0  0  0  0  0  0  0  0
   -4.9699  -14.6342  -15.3349 C   0  0  0  0  0  0  0  0  0  0  0  0
   -5.8375  -15.7401  -15.4825 C   0  0  0  0  0  0  0  0  0  0  0  0
   -5.9164  -16.7788  -14.5469 C   0  0  0  0  0  0  0  0  0  0  0  0
   -5.0987  -16.7625  -13.3807 C   0  0  0  0  0  0  0  0  0  0  0  0
   -4.1565  -15.6046  -13.1940 C   0  0  0  0  0  0  0  0  0  0  0  0
   -3.1970  -15.2905  -12.0660 C   0  0  0  0  0  0  0  0  0  0  0  0
   -4.0204  -15.0156  -10.8929 N   0  0  0  0  0  0  0  0  0  0  0  0
   -3.5653  -15.3577   -9.5528 C   0  0  0  0  0  0  0  0  0  0  0  0
   -2.3709  -15.4788   -9.3453 O   0  0  0  0  0  0  0  0  0  0  0  0
   -4.9007  -14.5906  -11.0099 H   0  0  0  0  0  0  0  0  0  0  0  0
   -4.5497  -15.1475   -8.4394 C   0  0  0  0  0  0  0  0  0  0  0  0
   -5.6003  -14.5525   -8.7178 O   0  0  0  0  0  0  0  0  0  0  0  0
   -4.1207  -15.4083   -7.0675 N   0  0  0  0  0  0  0  0  0  0  0  0
   -3.4029  -16.0671   -6.9260 H   0  0  0  0  0  0  0  0  0  0  0  0
   -4.6829  -14.7609   -5.9067 C   0  0  0  0  0  0  0  0  0  0  0  0
   -5.9951  -14.7834   -5.7273 C   0  0  0  0  0  0  0  0  0  0  0  0
   -6.6191  -14.4802   -4.5321 C   0  0  0  0  0  0  0  0  0  0  0  0
   -7.9333  -14.4871   -4.3112 F   0  0  0  0  0  0  0  0  0  0  0  0
   -5.7072  -14.1353   -3.4629 C   0  0  0  0  0  0  0  0  0  0  0  0
   -6.4775  -13.7346   -1.9714 Cl  0  0  0  0  0  0  0  0  0  0  0  0
   -4.3125  -14.1074   -3.6719 C   0  0  0  0  0  0  0  0  0  0  0  0
   -3.8382  -14.4299   -4.9305 C   0  0  0  0  0  0  0  0  0  0  0  0
   -1.0001  -14.2472  -12.6705 C   0  0  0  0  0  0  0  0  0  0  0  0
   -0.2400  -14.2089  -11.4182 N   0  0  0  0  0  0  0  0  0  0  0  0
   -0.1854  -13.3773  -10.8941 H   0  0  0  0  0  0  0  0  0  0  0  0
    0.0250  -16.5753  -11.3627 N   0  0  0  0  0  0  0  0  0  0  0  0
    0.4379  -15.4229  -10.9551 C   0  0  0  0  0  0  0  0  0  0  0  0
    1.4731  -15.3294  -10.1200 N   0  0  0  0  0  0  0  0  0  0  0  0
    0.4747  -17.3958  -11.0565 H   0  0  0  0  0  0  0  0  0  0  0  0
   -0.7398  -16.6341  -11.9798 H   0  0  0  0  0  0  0  0  0  0  0  0
    1.7809  -14.4455   -9.8145 H   0  0  0  0  0  0  0  0  0  0  0  0
    1.9297  -16.1442   -9.8088 H   0  0  0  0  0  0  0  0  0  0  0  0
 31 30  2  0  0  0
 30 27  1  0  0  0
 30 29  1  0  0  0
 27 26  1  0  0  0
 26  1  1  0  0  0
 25 24  2  0  0  0
 25 18  1  0  0  0
 24 22  1  0  0  0
  1  2  1  0  0  0
  1  9  1  0  0  0
 12 11  2  0  0  0
 18 16  1  0  0  0
 18 19  2  0  0  0
 16 14  1  0  0  0
 22 23  1  0  0  0
 22 20  2  0  0  0
 11 14  1  0  0  0
 11 10  1  0  0  0
  2  3  1  0  0  0
  9 10  1  0  0  0
  9  8  1  0  0  0
 14 15  2  0  0  0
 19 20  1  0  0  0
 20 21  1  0  0  0
  3  8  2  0  0  0
  3  4  1  0  0  0
  8  7  1  0  0  0
  4  5  2  0  0  0
  7  6  2  0  0  0
  5  6  1  0  0  0
 29 32  1  0  0  0
 29 33  1  0  0  0
 27 28  1  0  0  0
 10 13  1  0  0  0
 16 17  1  0  0  0
 31 34  1  0  0  0
 31 35  1  0  0  0
M  CHG 1  31   1
M  END
> <minimizedAffinity>
-9.65171

$$$$
4I54_1C1_A_501


 35 37  0  0  0  0  0  0  0  0999 V2000
   -3.8185  -14.6233  -13.3192 C   0  0  0  0  0  0  0  0  0  0  0  0
   -4.4413  -15.6136  -14.2499 C   0  0  0  0  0  0  0  0  0  0  0  0
   -4.0828  -16.9683  -13.6706 C   0  0  0  0  0  0  0  0  0  0  0  0
   -4.3908  -18.3270  -14.2176 C   0  0  0  0  0  0  0  0  0  0  0  0
   -3.9513  -19.4443  -13.4719 C   0  0  0  0  0  0  0  0  0  0  0  0
   -3.2525  -19.3288  -12.2641 C   0  0  0  0  0  0  0  0  0  0  0  0
   -2.9449  -18.0453  -11.7287 C   0  0  0  0  0  0  0  0  0  0  0  0
   -3.3899  -16.8325  -12.4997 C   0  0  0  0  0  0  0  0  0  0  0  0
   -3.2430  -15.3592  -12.1845 C   0  0  0  0  0  0  0  0  0  0  0  0
   -4.0663  -15.1087  -11.0059 N   0  0  0  0  0  0  0  0  0  0  0  0
   -3.5415  -15.3035   -9.6617 C   0  0  0  0  0  0  0  0  0  0  0  0
   -2.3368  -15.2652   -9.4845 O   0  0  0  0  0  0  0  0  0  0  0  0
   -4.9946  -14.8021  -11.1219 H   0  0  0  0  0  0  0  0  0  0  0  0
   -4.5181  -15.1406   -8.5336 C   0  0  0  0  0  0  0  0  0  0  0  0
   -5.5959  -14.5875   -8.7936 O   0  0  0  0  0  0  0  0  0  0  0  0
   -4.0597  -15.3918   -7.1695 N   0  0  0  0  0  0  0  0  0  0  0  0
   -3.3136  -16.0215   -7.0421 H   0  0  0  0  0  0  0  0  0  0  0  0
   -4.6316  -14.7750   -5.9968 C   0  0  0  0  0  0  0  0  0  0  0  0
   -5.9458  -14.7966   -5.8321 C   0  0  0  0  0  0  0  0  0  0  0  0
   -6.5813  -14.5245   -4.6356 C   0  0  0  0  0  0  0  0  0  0  0  0
   -7.8978  -14.5318   -4.4290 F   0  0  0  0  0  0  0  0  0  0  0  0
   -5.6796  -14.2142   -3.5473 C   0  0  0  0  0  0  0  0  0  0  0  0
   -6.4642  -13.8524   -2.0534 Cl  0  0  0  0  0  0  0  0  0  0  0  0
   -4.2826  -14.1867   -3.7406 C   0  0  0  0  0  0  0  0  0  0  0  0
   -3.7961  -14.4756   -5.0026 C   0  0  0  0  0  0  0  0  0  0  0  0
   -2.7996  -13.8035  -14.0985 C   0  0  0  0  0  0  0  0  0  0  0  0
   -2.6864  -12.4351  -13.5868 N   0  0  0  0  0  0  0  0  0  0  0  0
   -1.8377  -12.1152  -13.2038 H   0  0  0  0  0  0  0  0  0  0  0  0
   -4.2447  -10.9378  -12.5852 N   0  0  0  0  0  0  0  0  0  0  0  0
   -3.8513  -11.5481  -13.6517 C   0  0  0  0  0  0  0  0  0  0  0  0
   -4.4938  -11.3774  -14.8075 N   0  0  0  0  0  0  0  0  0  0  0  0
   -5.0262  -10.3401  -12.6200 H   0  0  0  0  0  0  0  0  0  0  0  0
   -3.7633  -11.0697  -11.7367 H   0  0  0  0  0  0  0  0  0  0  0  0
   -4.1861  -11.8474  -15.6159 H   0  0  0  0  0  0  0  0  0  0  0  0
   -5.2760  -10.7812  -14.8525 H   0  0  0  0  0  0  0  0  0  0  0  0
 31 30  2  0  0  0
 30 27  1  0  0  0
 30 29  1  0  0  0
 27 26  1  0  0  0
 26  1  1  0  0  0
 25 24  2  0  0  0
 25 18  1  0  0  0
 24 22  1  0  0  0
  1  2  1  0  0  0
  1  9  1  0  0  0
 12 11  2  0  0  0
 18 16  1  0  0  0
 18 19  2  0  0  0
 16 14  1  0  0  0
 22 23  1  0  0  0
 22 20  2  0  0  0
 11 14  1  0  0  0
 11 10  1  0  0  0
  2  3  1  0  0  0
  9 10  1  0  0  0
  9  8  1  0  0  0
 14 15  2  0  0  0
 19 20  1  0  0  0
 20 21  1  0  0  0
  3  8  2  0  0  0
  3  4  1  0  0  0
  8  7  1  0  0  0
  4  5  2  0  0  0
  7  6  2  0  0  0
  5  6  1  0  0  0
 29 32  1  0  0  0
 29 33  1  0  0  0
 27 28  1  0  0  0
 10 13  1  0  0  0
 16 17  1  0  0  0
 31 34  1  0  0  0
 31 35  1  0  0  0
M  CHG 1  31   1
M  END
> <minimizedAffinity>
-9.30926

$$$$
4I54_1C1_A_501


 35 37  0  0  0  0  0  0  0  0999 V2000
   -1.6135  -15.1675  -11.5165 C   0  0  0  0  0  0  0  0  0  0  0  0
   -0.7060  -14.0846  -12.0050 C   0  0  0  0  0  0  0  0  0  0  0  0
   -1.5988  -13.1695  -12.8205 C   0  0  0  0  0  0  0  0  0  0  0  0
   -1.2196  -11.9485  -13.5986 C   0  0  0  0  0  0  0  0  0  0  0  0
   -2.2534  -11.2570  -14.2700 C   0  0  0  0  0  0  0  0  0  0  0  0
   -3.5925  -11.6642  -14.2343 C   0  0  0  0  0  0  0  0  0  0  0  0
   -3.9738  -12.8260  -13.5039 C   0  0  0  0  0  0  0  0  0  0  0  0
   -2.8984  -13.5925  -12.7831 C   0  0  0  0  0  0  0  0  0  0  0  0
   -2.9875  -14.8284  -11.9134 C   0  0  0  0  0  0  0  0  0  0  0  0
   -3.7298  -14.4362  -10.7198 N   0  0  0  0  0  0  0  0  0  0  0  0
   -4.2115  -15.4283   -9.7690 C   0  0  0  0  0  0  0  0  0  0  0  0
   -3.6654  -16.5162   -9.7198 O   0  0  0  0  0  0  0  0  0  0  0  0
   -3.9084  -13.4823  -10.5541 H   0  0  0  0  0  0  0  0  0  0  0  0
   -5.0728  -14.9182   -8.6505 C   0  0  0  0  0  0  0  0  0  0  0  0
   -5.7292  -13.8897   -8.8658 O   0  0  0  0  0  0  0  0  0  0  0  0
   -4.8967  -15.4871   -7.3165 N   0  0  0  0  0  0  0  0  0  0  0  0
   -4.5568  -16.4085   -7.2492 H   0  0  0  0  0  0  0  0  0  0  0  0
   -5.1899  -14.7831   -6.0912 C   0  0  0  0  0  0  0  0  0  0  0  0
   -6.4510  -14.6534   -5.7073 C   0  0  0  0  0  0  0  0  0  0  0  0
   -6.8390  -14.2842   -4.4335 C   0  0  0  0  0  0  0  0  0  0  0  0
   -8.0937  -14.1389   -4.0085 F   0  0  0  0  0  0  0  0  0  0  0  0
   -5.7361  -14.0522   -3.5261 C   0  0  0  0  0  0  0  0  0  0  0  0
   -6.2095  -13.5703   -1.9380 Cl  0  0  0  0  0  0  0  0  0  0  0  0
   -4.3981  -14.1860   -3.9523 C   0  0  0  0  0  0  0  0  0  0  0  0
   -4.1690  -14.5566   -5.2650 C   0  0  0  0  0  0  0  0  0  0  0  0
   -1.1239  -16.4960  -12.0758 C   0  0  0  0  0  0  0  0  0  0  0  0
   -2.2267  -17.3260  -12.5682 N   0  0  0  0  0  0  0  0  0  0  0  0
   -2.7741  -17.0263  -13.3296 H   0  0  0  0  0  0  0  0  0  0  0  0
   -3.0255  -19.5697  -12.5983 N   0  0  0  0  0  0  0  0  0  0  0  0
   -2.5051  -18.6076  -11.9140 C   0  0  0  0  0  0  0  0  0  0  0  0
   -2.2194  -18.7710  -10.6219 N   0  0  0  0  0  0  0  0  0  0  0  0
   -3.2157  -20.4339  -12.1667 H   0  0  0  0  0  0  0  0  0  0  0  0
   -3.2323  -19.4397  -13.5520 H   0  0  0  0  0  0  0  0  0  0  0  0
   -1.8224  -18.0309  -10.1082 H   0  0  0  0  0  0  0  0  0  0  0  0
   -2.4053  -19.6317  -10.1817 H   0  0  0  0  0  0  0  0  0  0  0  0
 31 30  2  0  0  0
 30 27  1  0  0  0
 30 29  1  0  0  0
 27 26  1  0  0  0
 26  1  1  0  0  0
 25 24  2  0  0  0
 25 18  1  0  0  0
 24 22  1  0  0  0
  1  2  1  0  0  0
  1  9  1  0  0  0
 12 11  2  0  0  0
 18 16  1  0  0  0
 18 19  2  0  0  0
 16 14  1  0  0  0
 22 23  1  0  0  0
 22 20  2  0  0  0
 11 14  1  0  0  0
 11 10  1  0  0  0
  2  3  1  0  0  0
  9 10  1  0  0  0
  9  8  1  0  0  0
 14 15  2  0  0  0
 19 20  1  0  0  0
 20 21  1  0  0  0
  3  8  2  0  0  0
  3  4  1  0  0  0
  8  7  1  0  0  0
  4  5  2  0  0  0
  7  6  2  0  0  0
  5  6  1  0  0  0
 29 32  1  0  0  0
 29 33  1  0  0  0
 27 28  1  0  0  0
 10 13  1  0  0  0
 16 17  1  0  0  0
 31 34  1  0  0  0
 31 35  1  0  0  0
M  CHG 1  31   1
M  END
> <minimizedAffinity>
-8.54985

$$$$
4I54_1C1_A_501


 35 37  0  0  0  0  0  0  0  0999 V2000
   -2.8630  -13.2817  -12.5983 C   0  0  0  0  0  0  0  0  0  0  0  0
   -3.6965  -13.2449  -13.8387 C   0  0  0  0  0  0  0  0  0  0  0  0
   -4.2657  -14.6447  -13.9648 C   0  0  0  0  0  0  0  0  0  0  0  0
   -5.1278  -15.2060  -15.0519 C   0  0  0  0  0  0  0  0  0  0  0  0
   -5.5400  -16.5521  -14.9267 C   0  0  0  0  0  0  0  0  0  0  0  0
   -5.1787  -17.3635  -13.8444 C   0  0  0  0  0  0  0  0  0  0  0  0
   -4.3549  -16.8505  -12.8018 C   0  0  0  0  0  0  0  0  0  0  0  0
   -3.8900  -15.4235  -12.9055 C   0  0  0  0  0  0  0  0  0  0  0  0
   -3.0452  -14.5941  -11.9620 C   0  0  0  0  0  0  0  0  0  0  0  0
   -3.8403  -14.4143  -10.7515 N   0  0  0  0  0  0  0  0  0  0  0  0
   -3.6465  -15.2657   -9.5863 C   0  0  0  0  0  0  0  0  0  0  0  0
   -2.5802  -15.8365   -9.4400 O   0  0  0  0  0  0  0  0  0  0  0  0
   -4.5209  -13.7036  -10.7222 H   0  0  0  0  0  0  0  0  0  0  0  0
   -4.6086  -15.0722   -8.4506 C   0  0  0  0  0  0  0  0  0  0  0  0
   -5.6669  -14.4781   -8.7005 O   0  0  0  0  0  0  0  0  0  0  0  0
   -4.1505  -15.3470   -7.0909 N   0  0  0  0  0  0  0  0  0  0  0  0
   -3.4276  -16.0045   -6.9717 H   0  0  0  0  0  0  0  0  0  0  0  0
   -4.6912  -14.7151   -5.9114 C   0  0  0  0  0  0  0  0  0  0  0  0
   -6.0024  -14.7132   -5.7237 C   0  0  0  0  0  0  0  0  0  0  0  0
   -6.6121  -14.4249   -4.5176 C   0  0  0  0  0  0  0  0  0  0  0  0
   -7.9247  -14.4084   -4.2881 F   0  0  0  0  0  0  0  0  0  0  0  0
   -5.6863  -14.1254   -3.4467 C   0  0  0  0  0  0  0  0  0  0  0  0
   -6.4382  -13.7435   -1.9410 Cl  0  0  0  0  0  0  0  0  0  0  0  0
   -4.2926  -14.1230   -3.6644 C   0  0  0  0  0  0  0  0  0  0  0  0
   -3.8333  -14.4259   -4.9333 C   0  0  0  0  0  0  0  0  0  0  0  0
   -1.4200  -12.9795  -12.9777 C   0  0  0  0  0  0  0  0  0  0  0  0
   -1.1916  -13.1060  -14.4196 N   0  0  0  0  0  0  0  0  0  0  0  0
   -1.3179  -13.9725  -14.8696 H   0  0  0  0  0  0  0  0  0  0  0  0
   -1.5467  -11.4607  -16.1048 N   0  0  0  0  0  0  0  0  0  0  0  0
   -0.7730  -11.9277  -15.1840 C   0  0  0  0  0  0  0  0  0  0  0  0
    0.3991  -11.3477  -14.9237 N   0  0  0  0  0  0  0  0  0  0  0  0
   -1.2732  -10.6695  -16.6230 H   0  0  0  0  0  0  0  0  0  0  0  0
   -2.4105  -11.8954  -16.2892 H   0  0  0  0  0  0  0  0  0  0  0  0
    0.9825  -11.7115  -14.2190 H   0  0  0  0  0  0  0  0  0  0  0  0
    0.6809  -10.5557  -15.4360 H   0  0  0  0  0  0  0  0  0  0  0  0
 31 30  2  0  0  0
 30 27  1  0  0  0
 30 29  1  0  0  0
 27 26  1  0  0  0
 26  1  1  0  0  0
 25 24  2  0  0  0
 25 18  1  0  0  0
 24 22  1  0  0  0
  1  2  1  0  0  0
  1  9  1  0  0  0
 12 11  2  0  0  0
 18 16  1  0  0  0
 18 19  2  0  0  0
 16 14  1  0  0  0
 22 23  1  0  0  0
 22 20  2  0  0  0
 11 14  1  0  0  0
 11 10  1  0  0  0
  2  3  1  0  0  0
  9 10  1  0  0  0
  9  8  1  0  0  0
 14 15  2  0  0  0
 19 20  1  0  0  0
 20 21  1  0  0  0
  3  8  2  0  0  0
  3  4  1  0  0  0
  8  7  1  0  0  0
  4  5  2  0  0  0
  7  6  2  0  0  0
  5  6  1  0  0  0
 29 32  1  0  0  0
 29 33  1  0  0  0
 27 28  1  0  0  0
 10 13  1  0  0  0
 16 17  1  0  0  0
 31 34  1  0  0  0
 31 35  1  0  0  0
M  CHG 1  31   1
M  END
> <minimizedAffinity>
-8.52096

$$$$
4I54_1C1_A_501


 35 37  0  0  0  0  0  0  0  0999 V2000
   -1.9657  -15.8025  -13.1406 C   0  0  0  0  0  0  0  0  0  0  0  0
   -1.0153  -16.8336  -13.6586 C   0  0  0  0  0  0  0  0  0  0  0  0
    0.1475  -16.8124  -12.6856 C   0  0  0  0  0  0  0  0  0  0  0  0
    1.4207  -17.5975  -12.7375 C   0  0  0  0  0  0  0  0  0  0  0  0
    2.3493  -17.4023  -11.6900 C   0  0  0  0  0  0  0  0  0  0  0  0
    2.1261  -16.5191  -10.6268 C   0  0  0  0  0  0  0  0  0  0  0  0
    0.9235  -15.7587  -10.5611 C   0  0  0  0  0  0  0  0  0  0  0  0
   -0.0851  -15.9344  -11.6635 C   0  0  0  0  0  0  0  0  0  0  0  0
   -1.4469  -15.3030  -11.8593 C   0  0  0  0  0  0  0  0  0  0  0  0
   -2.2936  -15.8152  -10.7867 N   0  0  0  0  0  0  0  0  0  0  0  0
   -3.3044  -14.9781  -10.1562 C   0  0  0  0  0  0  0  0  0  0  0  0
   -3.7429  -14.0182  -10.7648 O   0  0  0  0  0  0  0  0  0  0  0  0
   -2.1791  -16.7448  -10.4835 H   0  0  0  0  0  0  0  0  0  0  0  0
   -4.0233  -15.5711   -8.9795 C   0  0  0  0  0  0  0  0  0  0  0  0
   -4.9923  -16.3050   -9.2196 O   0  0  0  0  0  0  0  0  0  0  0  0
   -3.7229  -15.0583   -7.6450 N   0  0  0  0  0  0  0  0  0  0  0  0
   -2.8310  -14.6715   -7.4894 H   0  0  0  0  0  0  0  0  0  0  0  0
   -4.6512  -15.0833   -6.5403 C   0  0  0  0  0  0  0  0  0  0  0  0
   -4.2065  -15.3875   -5.3302 C   0  0  0  0  0  0  0  0  0  0  0  0
   -4.9092  -15.1503   -4.1642 C   0  0  0  0  0  0  0  0  0  0  0  0
   -4.5002  -15.4438   -2.9303 F   0  0  0  0  0  0  0  0  0  0  0  0
   -6.1960  -14.5216   -4.3699 C   0  0  0  0  0  0  0  0  0  0  0  0
   -7.0908  -14.2399   -2.9213 Cl  0  0  0  0  0  0  0  0  0  0  0  0
   -6.6595  -14.2117   -5.6656 C   0  0  0  0  0  0  0  0  0  0  0  0
   -5.8417  -14.5177   -6.7381 C   0  0  0  0  0  0  0  0  0  0  0  0
   -2.1284  -14.7210  -14.1996 C   0  0  0  0  0  0  0  0  0  0  0  0
   -3.2943  -13.8709  -13.9439 N   0  0  0  0  0  0  0  0  0  0  0  0
   -4.1952  -14.2643  -13.8900 H   0  0  0  0  0  0  0  0  0  0  0  0
   -2.6380  -11.7268  -14.7472 N   0  0  0  0  0  0  0  0  0  0  0  0
   -3.1037  -12.4283  -13.7696 C   0  0  0  0  0  0  0  0  0  0  0  0
   -3.4121  -11.8521  -12.6073 N   0  0  0  0  0  0  0  0  0  0  0  0
   -2.5068  -10.7571  -14.6385 H   0  0  0  0  0  0  0  0  0  0  0  0
   -2.4138  -12.1612  -15.6017 H   0  0  0  0  0  0  0  0  0  0  0  0
   -3.7669  -12.3958  -11.8672 H   0  0  0  0  0  0  0  0  0  0  0  0
   -3.2851  -10.8830  -12.4893 H   0  0  0  0  0  0  0  0  0  0  0  0
 31 30  2  0  0  0
 30 27  1  0  0  0
 30 29  1  0  0  0
 27 26  1  0  0  0
 26  1  1  0  0  0
 25 24  2  0  0  0
 25 18  1  0  0  0
 24 22  1  0  0  0
  1  2  1  0  0  0
  1  9  1  0  0  0
 12 11  2  0  0  0
 18 16  1  0  0  0
 18 19  2  0  0  0
 16 14  1  0  0  0
 22 23  1  0  0  0
 22 20  2  0  0  0
 11 14  1  0  0  0
 11 10  1  0  0  0
  2  3  1  0  0  0
  9 10  1  0  0  0
  9  8  1  0  0  0
 14 15  2  0  0  0
 19 20  1  0  0  0
 20 21  1  0  0  0
  3  8  2  0  0  0
  3  4  1  0  0  0
  8  7  1  0  0  0
  4  5  2  0  0  0
  7  6  2  0  0  0
  5  6  1  0  0  0
 29 32  1  0  0  0
 29 33  1  0  0  0
 27 28  1  0  0  0
 10 13  1  0  0  0
 16 17  1  0  0  0
 31 34  1  0  0  0
 31 35  1  0  0  0
M  CHG 1  31   1
M  END
> <minimizedAffinity>
-8.40446

$$$$
4I54_1C1_A_501


 35 37  0  0  0  0  0  0  0  0999 V2000
   -2.4437  -16.6158  -13.4139 C   0  0  0  0  0  0  0  0  0  0  0  0
   -1.3272  -17.5868  -13.6263 C   0  0  0  0  0  0  0  0  0  0  0  0
   -0.2545  -17.1655  -12.6407 C   0  0  0  0  0  0  0  0  0  0  0  0
    1.1128  -17.7429  -12.4479 C   0  0  0  0  0  0  0  0  0  0  0  0
    1.9250  -17.1717  -11.4421 C   0  0  0  0  0  0  0  0  0  0  0  0
    1.5057  -16.1069  -10.6355 C   0  0  0  0  0  0  0  0  0  0  0  0
    0.2104  -15.5395  -10.8061 C   0  0  0  0  0  0  0  0  0  0  0  0
   -0.6793  -16.1167  -11.8731 C   0  0  0  0  0  0  0  0  0  0  0  0
   -2.0949  -15.7582  -12.2723 C   0  0  0  0  0  0  0  0  0  0  0  0
   -2.9437  -16.1242  -11.1430 N   0  0  0  0  0  0  0  0  0  0  0  0
   -3.4081  -15.1250  -10.1912 C   0  0  0  0  0  0  0  0  0  0  0  0
   -3.4574  -13.9572  -10.5345 O   0  0  0  0  0  0  0  0  0  0  0  0
   -3.2074  -17.0651  -11.0225 H   0  0  0  0  0  0  0  0  0  0  0  0
   -4.1652  -15.6378   -9.0009 C   0  0  0  0  0  0  0  0  0  0  0  0
   -5.2135  -16.2601   -9.2222 O   0  0  0  0  0  0  0  0  0  0  0  0
   -3.7846  -15.1642   -7.6724 N   0  0  0  0  0  0  0  0  0  0  0  0
   -2.8528  -14.8782   -7.5340 H   0  0  0  0  0  0  0  0  0  0  0  0
   -4.6887  -15.0893   -6.5500 C   0  0  0  0  0  0  0  0  0  0  0  0
   -4.2209  -15.3015   -5.3291 C   0  0  0  0  0  0  0  0  0  0  0  0
   -4.8951  -14.9632   -4.1712 C   0  0  0  0  0  0  0  0  0  0  0  0
   -4.4624  -15.1624   -2.9267 F   0  0  0  0  0  0  0  0  0  0  0  0
   -6.1793  -14.3367   -4.3995 C   0  0  0  0  0  0  0  0  0  0  0  0
   -7.0389  -13.9291   -2.9596 Cl  0  0  0  0  0  0  0  0  0  0  0  0
   -6.6677  -14.1253   -5.7058 C   0  0  0  0  0  0  0  0  0  0  0  0
   -5.8770  -14.5263   -6.7673 C   0  0  0  0  0  0  0  0  0  0  0  0
   -2.6696  -15.8495  -14.7098 C   0  0  0  0  0  0  0  0  0  0  0  0
   -3.0387  -16.7361  -15.8166 N   0  0  0  0  0  0  0  0  0  0  0  0
   -2.3801  -17.3640  -16.1926 H   0  0  0  0  0  0  0  0  0  0  0  0
   -5.4043  -16.6656  -15.5482 N   0  0  0  0  0  0  0  0  0  0  0  0
   -4.3995  -16.6773  -16.3575 C   0  0  0  0  0  0  0  0  0  0  0  0
   -4.5900  -16.6356  -17.6765 N   0  0  0  0  0  0  0  0  0  0  0  0
   -6.3218  -16.6262  -15.9030 H   0  0  0  0  0  0  0  0  0  0  0  0
   -5.2535  -16.6960  -14.5758 H   0  0  0  0  0  0  0  0  0  0  0  0
   -3.8169  -16.6449  -18.2860 H   0  0  0  0  0  0  0  0  0  0  0  0
   -5.5037  -16.5953  -18.0409 H   0  0  0  0  0  0  0  0  0  0  0  0
 31 30  2  0  0  0
 30 27  1  0  0  0
 30 29  1  0  0  0
 27 26  1  0  0  0
 26  1  1  0  0  0
 25 24  2  0  0  0
 25 18  1  0  0  0
 24 22  1  0  0  0
  1  2  1  0  0  0
  1  9  1  0  0  0
 12 11  2  0  0  0
 18 16  1  0  0  0
 18 19  2  0  0  0
 16 14  1  0  0  0
 22 23  1  0  0  0
 22 20  2  0  0  0
 11 14  1  0  0  0
 11 10  1  0  0  0
  2  3  1  0  0  0
  9 10  1  0  0  0
  9  8  1  0  0  0
 14 15  2  0  0  0
 19 20  1  0  0  0
 20 21  1  0  0  0
  3  8  2  0  0  0
  3  4  1  0  0  0
  8  7  1  0  0  0
  4  5  2  0  0  0
  7  6  2  0  0  0
  5  6  1  0  0  0
 29 32  1  0  0  0
 29 33  1  0  0  0
 27 28  1  0  0  0
 10 13  1  0  0  0
 16 17  1  0  0  0
 31 34  1  0  0  0
 31 35  1  0  0  0
M  CHG 1  31   1
M  END
> <minimizedAffinity>
-7.45583

$$$$
4I54_1C1_A_501


 35 37  0  0  0  0  0  0  0  0999 V2000
   -1.4019  -14.9039  -11.9550 C   0  0  0  0  0  0  0  0  0  0  0  0
   -0.7013  -13.7335  -12.5666 C   0  0  0  0  0  0  0  0  0  0  0  0
   -1.7715  -13.0158  -13.3660 C   0  0  0  0  0  0  0  0  0  0  0  0
   -1.6310  -11.8060  -14.2360 C   0  0  0  0  0  0  0  0  0  0  0  0
   -2.7974  -11.3204  -14.8694 C   0  0  0  0  0  0  0  0  0  0  0  0
   -4.0544  -11.9175  -14.7157 C   0  0  0  0  0  0  0  0  0  0  0  0
   -4.2090  -13.0723  -13.8964 C   0  0  0  0  0  0  0  0  0  0  0  0
   -2.9871  -13.6226  -13.2126 C   0  0  0  0  0  0  0  0  0  0  0  0
   -2.8334  -14.7982  -12.2712 C   0  0  0  0  0  0  0  0  0  0  0  0
   -3.5510  -14.4422  -11.0514 N   0  0  0  0  0  0  0  0  0  0  0  0
   -4.1820  -15.4587  -10.2215 C   0  0  0  0  0  0  0  0  0  0  0  0
   -3.7821  -16.6077  -10.2849 O   0  0  0  0  0  0  0  0  0  0  0  0
   -3.6097  -13.4964  -10.7844 H   0  0  0  0  0  0  0  0  0  0  0  0
   -5.0002  -14.9629   -9.0649 C   0  0  0  0  0  0  0  0  0  0  0  0
   -5.3198  -13.7658   -9.0698 O   0  0  0  0  0  0  0  0  0  0  0  0
   -5.1494  -15.8231   -7.8936 N   0  0  0  0  0  0  0  0  0  0  0  0
   -5.0848  -16.7966   -8.0249 H   0  0  0  0  0  0  0  0  0  0  0  0
   -5.3855  -15.3354   -6.5559 C   0  0  0  0  0  0  0  0  0  0  0  0
   -4.3499  -15.0578   -5.7780 C   0  0  0  0  0  0  0  0  0  0  0  0
   -4.4303  -14.3103   -4.6185 C   0  0  0  0  0  0  0  0  0  0  0  0
   -3.4158  -14.0121   -3.8075 F   0  0  0  0  0  0  0  0  0  0  0  0
   -5.7630  -13.8355   -4.3153 C   0  0  0  0  0  0  0  0  0  0  0  0
   -5.8780  -12.9183   -2.8580 Cl  0  0  0  0  0  0  0  0  0  0  0  0
   -6.8574  -14.1468   -5.1491 C   0  0  0  0  0  0  0  0  0  0  0  0
   -6.6181  -14.9137   -6.2749 C   0  0  0  0  0  0  0  0  0  0  0  0
   -0.7522  -16.1795  -12.4730 C   0  0  0  0  0  0  0  0  0  0  0  0
    0.0998  -16.8129  -11.4629 N   0  0  0  0  0  0  0  0  0  0  0  0
   -0.1833  -17.6482  -11.0254 H   0  0  0  0  0  0  0  0  0  0  0  0
    2.4204  -16.4256  -11.8347 N   0  0  0  0  0  0  0  0  0  0  0  0
    1.3784  -16.1886  -11.1117 C   0  0  0  0  0  0  0  0  0  0  0  0
    1.4563  -15.3824  -10.0525 N   0  0  0  0  0  0  0  0  0  0  0  0
    3.2831  -16.0103  -11.6058 H   0  0  0  0  0  0  0  0  0  0  0  0
    2.3527  -17.0217  -12.6152 H   0  0  0  0  0  0  0  0  0  0  0  0
    0.6557  -15.2076   -9.5069 H   0  0  0  0  0  0  0  0  0  0  0  0
    2.3145  -14.9619   -9.8161 H   0  0  0  0  0  0  0  0  0  0  0  0
 31 30  2  0  0  0
 30 27  1  0  0  0
 30 29  1  0  0  0
 27 26  1  0  0  0
 26  1  1  0  0  0
 25 24  2  0  0  0
 25 18  1  0  0  0
 24 22  1  0  0  0
  1  2  1  0  0  0
  1  9  1  0  0  0
 12 11  2  0  0  0
 18 16  1  0  0  0
 18 19  2  0  0  0
 16 14  1  0  0  0
 22 23  1  0  0  0
 22 20  2  0  0  0
 11 14  1  0  0  0
 11 10  1  0  0  0
  2  3  1  0  0  0
  9 10  1  0  0  0
  9  8  1  0  0  0
 14 15  2  0  0  0
 19 20  1  0  0  0
 20 21  1  0  0  0
  3  8  2  0  0  0
  3  4  1  0  0  0
  8  7  1  0  0  0
  4  5  2  0  0  0
  7  6  2  0  0  0
  5  6  1  0  0  0
 29 32  1  0  0  0
 29 33  1  0  0  0
 27 28  1  0  0  0
 10 13  1  0  0  0
 16 17  1  0  0  0
 31 34  1  0  0  0
 31 35  1  0  0  0
M  CHG 1  31   1
M  END
> <minimizedAffinity>
-7.17667

$$$$
4I54_1C1_A_501


 35 37  0  0  0  0  0  0  0  0999 V2000
   -1.2730  -16.1240  -13.3017 C   0  0  0  0  0  0  0  0  0  0  0  0
   -1.6167  -15.3813  -14.5527 C   0  0  0  0  0  0  0  0  0  0  0  0
   -3.1077  -15.5920  -14.7312 C   0  0  0  0  0  0  0  0  0  0  0  0
   -3.9878  -15.1254  -15.8483 C   0  0  0  0  0  0  0  0  0  0  0  0
   -5.3623  -15.4456  -15.7717 C   0  0  0  0  0  0  0  0  0  0  0  0
   -5.9196  -16.1687  -14.7101 C   0  0  0  0  0  0  0  0  0  0  0  0
   -5.0988  -16.6262  -13.6396 C   0  0  0  0  0  0  0  0  0  0  0  0
   -3.6287  -16.3110  -13.6915 C   0  0  0  0  0  0  0  0  0  0  0  0
   -2.5206  -16.6275  -12.7098 C   0  0  0  0  0  0  0  0  0  0  0  0
   -2.8065  -15.8531  -11.5063 N   0  0  0  0  0  0  0  0  0  0  0  0
   -3.6324  -16.3954  -10.4367 C   0  0  0  0  0  0  0  0  0  0  0  0
   -3.7433  -17.6037  -10.3282 O   0  0  0  0  0  0  0  0  0  0  0  0
   -2.4338  -14.9464  -11.4158 H   0  0  0  0  0  0  0  0  0  0  0  0
   -3.9642  -15.4607   -9.3101 C   0  0  0  0  0  0  0  0  0  0  0  0
   -3.0453  -14.7551   -8.8711 O   0  0  0  0  0  0  0  0  0  0  0  0
   -5.2469  -15.6145   -8.6280 N   0  0  0  0  0  0  0  0  0  0  0  0
   -5.9952  -16.0044   -9.1352 H   0  0  0  0  0  0  0  0  0  0  0  0
   -5.4859  -15.2309   -7.2574 C   0  0  0  0  0  0  0  0  0  0  0  0
   -4.6015  -15.5658   -6.3299 C   0  0  0  0  0  0  0  0  0  0  0  0
   -4.5549  -15.0079   -5.0664 C   0  0  0  0  0  0  0  0  0  0  0  0
   -3.6860  -15.3186   -4.1051 F   0  0  0  0  0  0  0  0  0  0  0  0
   -5.5655  -13.9996   -4.8305 C   0  0  0  0  0  0  0  0  0  0  0  0
   -5.5291  -13.3113   -3.2483 Cl  0  0  0  0  0  0  0  0  0  0  0  0
   -6.5059  -13.6601   -5.8255 C   0  0  0  0  0  0  0  0  0  0  0  0
   -6.4285  -14.3138   -7.0419 C   0  0  0  0  0  0  0  0  0  0  0  0
   -0.2741  -17.2187  -13.6496 C   0  0  0  0  0  0  0  0  0  0  0  0
   -0.0013  -18.0980  -12.5095 N   0  0  0  0  0  0  0  0  0  0  0  0
   -0.6861  -18.7308  -12.1936 H   0  0  0  0  0  0  0  0  0  0  0  0
    1.8055  -16.8708  -11.5593 N   0  0  0  0  0  0  0  0  0  0  0  0
    1.3028  -18.0243  -11.8448 C   0  0  0  0  0  0  0  0  0  0  0  0
    1.9584  -19.1446  -11.5399 N   0  0  0  0  0  0  0  0  0  0  0  0
    2.6810  -16.8123  -11.1129 H   0  0  0  0  0  0  0  0  0  0  0  0
    1.3135  -16.0493  -11.7878 H   0  0  0  0  0  0  0  0  0  0  0  0
    1.5666  -20.0201  -11.7618 H   0  0  0  0  0  0  0  0  0  0  0  0
    2.8342  -19.0963  -11.0928 H   0  0  0  0  0  0  0  0  0  0  0  0
 31 30  2  0  0  0
 30 27  1  0  0  0
 30 29  1  0  0  0
 27 26  1  0  0  0
 26  1  1  0  0  0
 25 24  2  0  0  0
 25 18  1  0  0  0
 24 22  1  0  0  0
  1  2  1  0  0  0
  1  9  1  0  0  0
 12 11  2  0  0  0
 18 16  1  0  0  0
 18 19  2  0  0  0
 16 14  1  0  0  0
 22 23  1  0  0  0
 22 20  2  0  0  0
 11 14  1  0  0  0
 11 10  1  0  0  0
  2  3  1  0  0  0
  9 10  1  0  0  0
  9  8  1  0  0  0
 14 15  2  0  0  0
 19 20  1  0  0  0
 20 21  1  0  0  0
  3  8  2  0  0  0
  3  4  1  0  0  0
  8  7  1  0  0  0
  4  5  2  0  0  0
  7  6  2  0  0  0
  5  6  1  0  0  0
 29 32  1  0  0  0
 29 33  1  0  0  0
 27 28  1  0  0  0
 10 13  1  0  0  0
 16 17  1  0  0  0
 31 34  1  0  0  0
 31 35  1  0  0  0
M  CHG 1  31   1
M  END
> <minimizedAffinity>
-7.05362

$$$$
4I54_1C1_A_501


 35 37  0  0  0  0  0  0  0  0999 V2000
   -1.7401  -17.1895  -11.5300 C   0  0  0  0  0  0  0  0  0  0  0  0
   -0.5155  -16.6099  -12.1616 C   0  0  0  0  0  0  0  0  0  0  0  0
   -0.9369  -15.2305  -12.6298 C   0  0  0  0  0  0  0  0  0  0  0  0
   -0.1350  -14.2170  -13.3846 C   0  0  0  0  0  0  0  0  0  0  0  0
   -0.7625  -12.9888  -13.6936 C   0  0  0  0  0  0  0  0  0  0  0  0
   -2.0805  -12.6914  -13.3264 C   0  0  0  0  0  0  0  0  0  0  0  0
   -2.8625  -13.6438  -12.6121 C   0  0  0  0  0  0  0  0  0  0  0  0
   -2.2301  -14.9660  -12.2730 C   0  0  0  0  0  0  0  0  0  0  0  0
   -2.7811  -16.1520  -11.5104 C   0  0  0  0  0  0  0  0  0  0  0  0
   -2.9619  -15.7048  -10.1331 N   0  0  0  0  0  0  0  0  0  0  0  0
   -4.2545  -15.8024   -9.4700 C   0  0  0  0  0  0  0  0  0  0  0  0
   -5.0689  -16.6129   -9.8752 O   0  0  0  0  0  0  0  0  0  0  0  0
   -2.1950  -15.3298   -9.6427 H   0  0  0  0  0  0  0  0  0  0  0  0
   -4.3509  -15.1925   -8.1019 C   0  0  0  0  0  0  0  0  0  0  0  0
   -3.3160  -15.1633   -7.4213 O   0  0  0  0  0  0  0  0  0  0  0  0
   -5.6752  -14.9143   -7.5515 N   0  0  0  0  0  0  0  0  0  0  0  0
   -6.4101  -14.7407   -8.1831 H   0  0  0  0  0  0  0  0  0  0  0  0
   -5.9738  -14.8779   -6.1399 C   0  0  0  0  0  0  0  0  0  0  0  0
   -4.9977  -15.0830   -5.2683 C   0  0  0  0  0  0  0  0  0  0  0  0
   -5.0825  -14.7759   -3.9236 C   0  0  0  0  0  0  0  0  0  0  0  0
   -4.1274  -14.9693   -3.0147 F   0  0  0  0  0  0  0  0  0  0  0  0
   -6.3469  -14.1915   -3.5319 C   0  0  0  0  0  0  0  0  0  0  0  0
   -6.4708  -13.8234   -1.8503 Cl  0  0  0  0  0  0  0  0  0  0  0  0
   -7.3800  -13.9873   -4.4703 C   0  0  0  0  0  0  0  0  0  0  0  0
   -7.1461  -14.3537   -5.7833 C   0  0  0  0  0  0  0  0  0  0  0  0
   -2.1355  -18.4402  -12.3027 C   0  0  0  0  0  0  0  0  0  0  0  0
   -3.5173  -18.3749  -12.7862 N   0  0  0  0  0  0  0  0  0  0  0  0
   -4.2670  -18.3425  -12.1488 H   0  0  0  0  0  0  0  0  0  0  0  0
   -4.6873  -19.1207  -14.7222 N   0  0  0  0  0  0  0  0  0  0  0  0
   -3.7704  -18.3583  -14.2297 C   0  0  0  0  0  0  0  0  0  0  0  0
   -3.0554  -17.5583  -15.0213 N   0  0  0  0  0  0  0  0  0  0  0  0
   -4.8638  -19.1158  -15.6907 H   0  0  0  0  0  0  0  0  0  0  0  0
   -5.2104  -19.7075  -14.1295 H   0  0  0  0  0  0  0  0  0  0  0  0
   -2.3579  -16.9801  -14.6361 H   0  0  0  0  0  0  0  0  0  0  0  0
   -3.2250  -17.5458  -15.9910 H   0  0  0  0  0  0  0  0  0  0  0  0
 31 30  2  0  0  0
 30 27  1  0  0  0
 30 29  1  0  0  0
 27 26  1  0  0  0
 26  1  1  0  0  0
 25 24  2  0  0  0
 25 18  1  0  0  0
 24 22  1  0  0  0
  1  2  1  0  0  0
  1  9  1  0  0  0
 12 11  2  0  0  0
 18 16  1  0  0  0
 18 19  2  0  0  0
 16 14  1  0  0  0
 22 23  1  0  0  0
 22 20  2  0  0  0
 11 14  1  0  0  0
 11 10  1  0  0  0
  2  3  1  0  0  0
  9 10  1  0  0  0
  9  8  1  0  0  0
 14 15  2  0  0  0
 19 20  1  0  0  0
 20 21  1  0  0  0
  3  8  2  0  0  0
  3  4  1  0  0  0
  8  7  1  0  0  0
  4  5  2  0  0  0
  7  6  2  0  0  0
  5  6  1  0  0  0
 29 32  1  0  0  0
 29 33  1  0  0  0
 27 28  1  0  0  0
 10 13  1  0  0  0
 16 17  1  0  0  0
 31 34  1  0  0  0
 31 35  1  0  0  0
M  CHG 1  31   1
M  END
> <minimizedAffinity>
-6.98209

$$$$
4I54_1C1_A_501


 35 37  0  0  0  0  0  0  0  0999 V2000
   -2.2588  -15.6655  -13.8355 C   0  0  0  0  0  0  0  0  0  0  0  0
   -1.0766  -14.9513  -14.4072 C   0  0  0  0  0  0  0  0  0  0  0  0
   -1.3920  -13.4784  -14.2327 C   0  0  0  0  0  0  0  0  0  0  0  0
   -0.5905  -12.2946  -14.6759 C   0  0  0  0  0  0  0  0  0  0  0  0
   -1.1038  -11.0120  -14.3776 C   0  0  0  0  0  0  0  0  0  0  0  0
   -2.3104  -10.8122  -13.6960 C   0  0  0  0  0  0  0  0  0  0  0  0
   -3.0908  -11.9250  -13.2700 C   0  0  0  0  0  0  0  0  0  0  0  0
   -2.5797  -13.3061  -13.5775 C   0  0  0  0  0  0  0  0  0  0  0  0
   -3.1542  -14.6648  -13.2376 C   0  0  0  0  0  0  0  0  0  0  0  0
   -3.0811  -14.7884  -11.7853 N   0  0  0  0  0  0  0  0  0  0  0  0
   -3.9430  -15.7117  -11.0608 C   0  0  0  0  0  0  0  0  0  0  0  0
   -4.4179  -16.6660  -11.6506 O   0  0  0  0  0  0  0  0  0  0  0  0
   -2.4366  -14.2368  -11.2858 H   0  0  0  0  0  0  0  0  0  0  0  0
   -3.8695  -15.6576   -9.5626 C   0  0  0  0  0  0  0  0  0  0  0  0
   -3.3069  -16.6009   -8.9893 O   0  0  0  0  0  0  0  0  0  0  0  0
   -4.6732  -14.6616   -8.8581 N   0  0  0  0  0  0  0  0  0  0  0  0
   -4.9019  -13.8317   -9.3357 H   0  0  0  0  0  0  0  0  0  0  0  0
   -5.1529  -14.8179   -7.5059 C   0  0  0  0  0  0  0  0  0  0  0  0
   -4.2951  -15.1424   -6.5502 C   0  0  0  0  0  0  0  0  0  0  0  0
   -4.5585  -15.0219   -5.1990 C   0  0  0  0  0  0  0  0  0  0  0  0
   -3.7264  -15.3399   -4.2078 F   0  0  0  0  0  0  0  0  0  0  0  0
   -5.8720  -14.4938   -4.9001 C   0  0  0  0  0  0  0  0  0  0  0  0
   -6.2188  -14.3588   -3.2149 Cl  0  0  0  0  0  0  0  0  0  0  0  0
   -6.7777  -14.1610   -5.9290 C   0  0  0  0  0  0  0  0  0  0  0  0
   -6.3696  -14.3450   -7.2376 C   0  0  0  0  0  0  0  0  0  0  0  0
   -2.9079  -16.4859  -14.9414 C   0  0  0  0  0  0  0  0  0  0  0  0
   -4.3436  -16.2163  -15.0568 N   0  0  0  0  0  0  0  0  0  0  0  0
   -4.6701  -15.2937  -15.1635 H   0  0  0  0  0  0  0  0  0  0  0  0
   -5.1420  -18.3230  -15.8299 N   0  0  0  0  0  0  0  0  0  0  0  0
   -5.2880  -17.3362  -15.0117 C   0  0  0  0  0  0  0  0  0  0  0  0
   -6.2871  -17.3288  -14.1287 N   0  0  0  0  0  0  0  0  0  0  0  0
   -5.7718  -19.0793  -15.8063 H   0  0  0  0  0  0  0  0  0  0  0  0
   -4.4007  -18.3198  -16.4778 H   0  0  0  0  0  0  0  0  0  0  0  0
   -6.3902  -16.5712  -13.5085 H   0  0  0  0  0  0  0  0  0  0  0  0
   -6.9216  -18.0808  -14.0970 H   0  0  0  0  0  0  0  0  0  0  0  0
 31 30  2  0  0  0
 30 27  1  0  0  0
 30 29  1  0  0  0
 27 26  1  0  0  0
 26  1  1  0  0  0
 25 24  2  0  0  0
 25 18  1  0  0  0
 24 22  1  0  0  0
  1  2  1  0  0  0
  1  9  1  0  0  0
 12 11  2  0  0  0
 18 16  1  0  0  0
 18 19  2  0  0  0
 16 14  1  0  0  0
 22 23  1  0  0  0
 22 20  2  0  0  0
 11 14  1  0  0  0
 11 10  1  0  0  0
  2  3  1  0  0  0
  9 10  1  0  0  0
  9  8  1  0  0  0
 14 15  2  0  0  0
 19 20  1  0  0  0
 20 21  1  0  0  0
  3  8  2  0  0  0
  3  4  1  0  0  0
  8  7  1  0  0  0
  4  5  2  0  0  0
  7  6  2  0  0  0
  5  6  1  0  0  0
 29 32  1  0  0  0
 29 33  1  0  0  0
 27 28  1  0  0  0
 10 13  1  0  0  0
 16 17  1  0  0  0
 31 34  1  0  0  0
 31 35  1  0  0  0
M  CHG 1  31   1
M  END
> <minimizedAffinity>
-6.87510

$$$$
