4I54_1C1_A_501
  RCSB PDB12061712573D
Coordinates from PDB:4I54:A:501 Model:1 without hydrogens
 28 30  0  0  0  0            999 V2000
    1.2740  -15.2430  -10.4490   N 0  0  0  0  0  0  0  0  0  0  0  0
    0.6000  -15.0000  -11.5220   C 0  0  0  0  0  0  0  0  0  0  0  0
   -0.2250  -13.7910  -11.5970   N 0  0  0  0  0  0  0  0  0  0  0  0
   -1.0110  -13.5350  -12.8070   C 0  0  0  0  0  0  0  0  0  0  0  0
   -2.5080  -13.5520  -12.5310   C 0  0  0  0  0  0  0  0  0  0  0  0
   -3.2220  -13.0970  -13.7630   C 0  0  0  0  0  0  0  0  0  0  0  0
   -4.0830  -14.2770  -14.1700   C 0  0  0  0  0  0  0  0  0  0  0  0
   -4.9710  -14.4140  -15.3670   C 0  0  0  0  0  0  0  0  0  0  0  0
   -5.6850  -15.6250  -15.5130   C 0  0  0  0  0  0  0  0  0  0  0  0
   -5.5940  -16.6800  -14.5970   C 0  0  0  0  0  0  0  0  0  0  0  0
   -4.7510  -16.5720  -13.4540   C 0  0  0  0  0  0  0  0  0  0  0  0
   -3.9690  -15.3000  -13.2700   C 0  0  0  0  0  0  0  0  0  0  0  0
   -3.0270  -14.8770  -12.1630   C 0  0  0  0  0  0  0  0  0  0  0  0
   -3.8440  -14.7360  -10.9620   N 0  0  0  0  0  0  0  0  0  0  0  0
   -3.4230  -15.3060   -9.6900   C 0  0  0  0  0  0  0  0  0  0  0  0
   -2.2400  -15.5290   -9.5030   O 0  0  0  0  0  0  0  0  0  0  0  0
   -4.4040  -15.2100   -8.5580   C 0  0  0  0  0  0  0  0  0  0  0  0
   -5.4940  -14.6720   -8.7980   O 0  0  0  0  0  0  0  0  0  0  0  0
   -3.9410  -15.5040   -7.2040   N 0  0  0  0  0  0  0  0  0  0  0  0
   -4.5280  -14.9470   -6.0090   C 0  0  0  0  0  0  0  0  0  0  0  0
   -5.8440  -14.8140   -5.9380   C 0  0  0  0  0  0  0  0  0  0  0  0
   -6.5380  -14.5910   -4.7640   C 0  0  0  0  0  0  0  0  0  0  0  0
   -7.8580  -14.4480   -4.6500   F 0  0  0  0  0  0  0  0  0  0  0  0
   -5.6980  -14.5200   -3.5880   C 0  0  0  0  0  0  0  0  0  0  0  0
   -6.5530  -14.2210   -2.1190  Cl 0  0  0  0  0  0  0  0  0  0  0  0
   -4.2970  -14.6550   -3.6810   C 0  0  0  0  0  0  0  0  0  0  0  0
   -3.7470  -14.8680   -4.9320   C 0  0  0  0  0  0  0  0  0  0  0  0
    0.6480  -15.8380  -12.5580   N 0  3  0  0  0  0  0  0  0  0  0  0
 28  2  2  0  0  0  0
  2  3  1  0  0  0  0
  2  1  1  0  0  0  0
  3  4  1  0  0  0  0
  4  5  1  0  0  0  0
 27 26  2  0  0  0  0
 27 20  1  0  0  0  0
 26 24  1  0  0  0  0
  5  6  1  0  0  0  0
  5 13  1  0  0  0  0
 16 15  2  0  0  0  0
 20 19  1  0  0  0  0
 20 21  2  0  0  0  0
 19 17  1  0  0  0  0
 24 25  1  0  0  0  0
 24 22  2  0  0  0  0
 15 17  1  0  0  0  0
 15 14  1  0  0  0  0
  6  7  1  0  0  0  0
 13 14  1  0  0  0  0
 13 12  1  0  0  0  0
 17 18  2  0  0  0  0
 21 22  1  0  0  0  0
 22 23  1  0  0  0  0
  7 12  2  0  0  0  0
  7  8  1  0  0  0  0
 12 11  1  0  0  0  0
  8  9  2  0  0  0  0
 11 10  2  0  0  0  0
  9 10  1  0  0  0  0
M  CHG  1  28   1
A    1
N01
A    2
C02
A    3
N03
A    4
C04
A    5
C05
A    6
C06
A    7
C07
A    8
C08
A    9
C09
A   10
C10
A   11
C11
A   12
C12
A   13
C13
A   14
N14
A   15
C15
A   16
O16
A   17
C17
A   18
O18
A   19
N19
A   20
C20
A   21
C21
A   22
C22
A   23
F23
A   24
C24
A   25
CL1
A   26
C26
A   27
C27
A   28
N28
M  END
>  <InstanceId>
4I54_1C1_A_501

>  <ChemCompId>
1C1

>  <PdbId>
4I54

>  <ChainId>
A

>  <ResidueNumber>
501

>  <InsertionCode>


>  <Model>
1

>  <AltIds>


>  <MissingHeavyAtoms>
0

>  <ObservedFormula>
C19 N5 O2 F Cl

>  <Name>
amino({[(1R,2R)-1-({[(4-chloro-3-fluorophenyl)amino](oxo)acetyl}amino)-2,3-dihydro-1H-inden-2-yl]methyl}amino)methaniminium

>  <SystematicName>
[azanyl-[[(1R,2R)-1-[[2-[(4-chloranyl-3-fluoranyl-phenyl)amino]-2-oxidanylidene-ethanoyl]amino]-2,3-dihydro-1H-inden-2-yl]methylamino]methylidene]azanium

>  <Synonyms>
[amino({[(1R,2R)-1-{[(4-chloro-3- fluorophenyl)carbamoyl]formamido}-2,3-dihydro-1H- inden-2-yl]methyl}amino)methylidene]azanium

>  <Type>
NON-POLYMER

>  <Formula>
C19 H20 Cl F N5 O2

>  <MolecularWeight>
404.846

>  <ModifiedDate>
2013-05-24

>  <Parent>


>  <OneLetterCode>


>  <SubcomponentList>


>  <AmbiguousFlag>
N

>  <InChI>
InChI=1S/C19H19ClFN5O2/c20-14-6-5-12(8-15(14)21)25-17(27)18(28)26-16-11(9-24-19(22)23)7-10-3-1-2-4-13(10)16/h1-6,8,11,16H,7,9H2,(H,25,27)(H,26,28)(H4,22,23,24)/p+1/t11-,16-/m1/s1

>  <InChIKey>
PZYMVIYVOCOSHZ-BDJLRTHQSA-O

>  <SMILES>
c1ccc2c(c1)C[C@@H]([C@H]2NC(=O)C(=O)Nc3ccc(c(c3)F)Cl)CNC(=[NH2+])N

$$$$
