3M40_J45_A_263
  RCSB PDB12061709423D
Coordinates from PDB:3M40:A:263 Model:1 without hydrogens
 21 22  0  0  0  0            999 V2000
   -5.9300    7.8370   11.2480   N 0  0  0  0  0  0  0  0  0  0  0  0
   -6.5420    6.9080   11.9300   C 0  0  0  0  0  0  0  0  0  0  0  0
   -5.8370    6.1600   12.7740   N 0  0  0  0  0  0  0  0  0  0  0  0
   -4.5230    6.3650   13.0740   C 0  0  0  0  0  0  0  0  0  0  0  0
   -3.8360    7.3330   12.2880   C 0  0  0  0  0  0  0  0  0  0  0  0
   -4.6610    8.0930   11.3950   C 0  0  0  0  0  0  0  0  0  0  0  0
   -3.7620    5.4360   13.8720   N 0  0  0  0  0  0  0  0  0  0  0  0
   -4.3490    4.3860   14.5900   C 0  0  0  0  0  0  0  0  0  0  0  0
   -3.5010    3.4090   15.0890   C 0  0  0  0  0  0  0  0  0  0  0  0
   -4.0420    2.3570   15.7990   C 0  0  0  0  0  0  0  0  0  0  0  0
   -5.4080    2.2540   16.0090   C 0  0  0  0  0  0  0  0  0  0  0  0
   -6.2560    3.2220   15.4900   C 0  0  0  0  0  0  0  0  0  0  0  0
   -5.7310    4.2920   14.7190   C 0  0  0  0  0  0  0  0  0  0  0  0
   -6.0150    0.8830   16.8730   S 0  0  0  0  0  0  0  0  0  0  0  0
   -5.4480    0.9490   18.2350   O 0  0  0  0  0  0  0  0  0  0  0  0
   -7.4980    0.8850   16.7420   O 0  0  0  0  0  0  0  0  0  0  0  0
   -5.3330   -0.4870   16.1380   N 0  0  0  0  0  0  0  0  0  0  0  0
   -2.3700    7.4570   12.5160   N 0  3  0  0  0  0  0  0  0  0  0  0
   -2.1510    7.5690   13.6740   O 0  5  0  0  0  0  0  0  0  0  0  0
   -1.8910    7.3250   11.4390   O 0  0  0  0  0  0  0  0  0  0  0  0
   -4.1880    9.4210   10.3890  Cl 0  0  0  0  0  0  0  0  0  0  0  0
  1  2  2  0  0  0  0
  1  6  1  0  0  0  0
  2  3  1  0  0  0  0
  3  4  2  0  0  0  0
  4  5  1  0  0  0  0
  4  7  1  0  0  0  0
  5  6  2  0  0  0  0
  5 18  1  0  0  0  0
  6 21  1  0  0  0  0
  7  8  1  0  0  0  0
  8  9  2  0  0  0  0
  8 13  1  0  0  0  0
  9 10  1  0  0  0  0
 10 11  2  0  0  0  0
 11 12  1  0  0  0  0
 11 14  1  0  0  0  0
 12 13  2  0  0  0  0
 14 15  2  0  0  0  0
 14 16  2  0  0  0  0
 14 17  1  0  0  0  0
 18 19  1  0  0  0  0
 18 20  2  0  0  0  0
M  CHG  2  18   1  19  -1
A    1
N1
A    2
C2
A    3
N3
A    4
C4
A    5
C5
A    6
C6
A    7
N7
A    8
C8
A    9
C9
A   10
C10
A   11
C11
A   12
C12
A   13
C13
A   14
S14
A   15
O15
A   16
O16
A   17
N17
A   18
N18
A   19
O19
A   20
O20
A   21
CL21
M  END
>  <InstanceId>
3M40_J45_A_263

>  <ChemCompId>
J45

>  <PdbId>
3M40

>  <ChainId>
A

>  <ResidueNumber>
263

>  <InsertionCode>


>  <Model>
1

>  <AltIds>


>  <MissingHeavyAtoms>
0

>  <ObservedFormula>
C10 N5 O4 S Cl

>  <Name>
4-[(6-chloro-5-nitropyrimidin-4-yl)amino]benzenesulfonamide

>  <SystematicName>
4-[(6-chloro-5-nitro-pyrimidin-4-yl)amino]benzenesulfonamide

>  <Synonyms>


>  <Type>
NON-POLYMER

>  <Formula>
C10 H8 Cl N5 O4 S

>  <MolecularWeight>
329.72

>  <ModifiedDate>
2011-06-04

>  <Parent>


>  <OneLetterCode>


>  <SubcomponentList>


>  <AmbiguousFlag>
N

>  <InChI>
InChI=1S/C10H8ClN5O4S/c11-9-8(16(17)18)10(14-5-13-9)15-6-1-3-7(4-2-6)21(12,19)20/h1-5H,(H2,12,19,20)(H,13,14,15)

>  <InChIKey>
DCTSAUVMCCOZNV-UHFFFAOYSA-N

>  <SMILES>
c1cc(ccc1Nc2c(c(ncn2)Cl)[N+](=O)[O-])S(=O)(=O)N

$$$$
