2IDW_017_B_401
  RCSB PDB12061705543D
Coordinates from PDB:2IDW:B:401 Model:1 without hydrogens
 38 41  0  0  0  0            999 V2000
   15.3690   36.5220   17.9520   N 0  0  0  0  0  0  0  0  0  0  0  0
   15.9710   35.5180   17.2530   C 0  0  0  0  0  0  0  0  0  0  0  0
   15.5780   34.1640   17.3890   C 0  0  0  0  0  0  0  0  0  0  0  0
   16.2710   33.1730   16.6660   C 0  0  0  0  0  0  0  0  0  0  0  0
   17.3250   33.5760   15.8080   C 0  0  0  0  0  0  0  0  0  0  0  0
   17.7210   34.8920   15.7080   C 0  0  0  0  0  0  0  0  0  0  0  0
   17.0080   35.8800   16.3990   C 0  0  0  0  0  0  0  0  0  0  0  0
   18.3100   32.3420   14.8990   S 0  0  0  0  0  0  0  0  0  0  0  0
   17.4960   31.2130   14.4070   O 0  0  0  0  0  0  0  0  0  0  0  0
   19.0020   33.1840   13.9170   O 0  0  0  0  0  0  0  0  0  0  0  0
   19.5470   31.7050   15.8720   N 0  0  0  0  0  0  0  0  0  0  0  0
   20.3850   32.7190   16.5390   C 0  0  0  0  0  0  0  0  0  0  0  0
   21.8640   32.3260   16.5690   C 0  0  0  0  0  0  0  0  0  0  0  0
   22.4090   32.2810   15.1420   C 0  0  0  0  0  0  0  0  0  0  0  0
   22.5990   33.3500   17.4220   C 0  0  0  0  0  0  0  0  0  0  0  0
   19.2170   30.4480   16.6290   C 0  0  0  0  0  0  0  0  0  0  0  0
   20.0820   29.3110   16.0150   C 0  0  0  0  0  0  0  0  0  0  0  0
   19.9920   28.1990   16.9290   O 0  0  0  0  0  0  0  0  0  0  0  0
   19.6830   28.8680   14.6060   C 0  0  0  0  0  0  0  0  0  0  0  0
   20.6790   27.9400   14.0990   N 0  0  0  0  0  0  0  0  0  0  0  0
   21.5310   28.2870   13.1310   C 0  0  0  0  0  0  0  0  0  0  0  0
   21.6160   29.3430   12.5260   O 0  0  0  0  0  0  0  0  0  0  0  0
   22.3860   27.2350   12.8840   O 0  0  0  0  0  0  0  0  0  0  0  0
   23.2070   27.3160   11.7000   C 0  0  0  0  0  0  0  0  0  0  0  0
   24.5260   26.6250   12.0470   C 0  0  0  0  0  0  0  0  0  0  0  0
   24.2540   25.2370   11.9650   O 0  0  0  0  0  0  0  0  0  0  0  0
   23.2570   25.0460   10.9730   C 0  0  0  0  0  0  0  0  0  0  0  0
   22.2290   24.2290   11.5270   O 0  0  0  0  0  0  0  0  0  0  0  0
   20.9860   24.9640   11.5690   C 0  0  0  0  0  0  0  0  0  0  0  0
   21.1760   26.1630   10.6050   C 0  0  0  0  0  0  0  0  0  0  0  0
   22.6530   26.3780   10.6130   C 0  0  0  0  0  0  0  0  0  0  0  0
   18.3040   28.1780   14.5230   C 0  0  0  0  0  0  0  0  0  0  0  0
   17.8700   26.3610   12.8110   C 0  0  0  0  0  0  0  0  0  0  0  0
   17.5890   25.9580   11.5090   C 0  0  0  0  0  0  0  0  0  0  0  0
   17.4630   26.8810   10.4860   C 0  0  0  0  0  0  0  0  0  0  0  0
   17.5580   28.2440   10.8030   C 0  0  0  0  0  0  0  0  0  0  0  0
   17.8340   28.6820   12.0820   C 0  0  0  0  0  0  0  0  0  0  0  0
   17.9850   27.7310   13.1140   C 0  0  0  0  0  0  0  0  0  0  0  0
  1  2  1  0  0  0  0
  2  3  2  0  0  0  0
  2  7  1  0  0  0  0
  3  4  1  0  0  0  0
  4  5  2  0  0  0  0
  5  6  1  0  0  0  0
  5  8  1  0  0  0  0
  6  7  2  0  0  0  0
  8  9  2  0  0  0  0
  8 10  2  0  0  0  0
  8 11  1  0  0  0  0
 11 12  1  0  0  0  0
 11 16  1  0  0  0  0
 12 13  1  0  0  0  0
 13 14  1  0  0  0  0
 13 15  1  0  0  0  0
 16 17  1  0  0  0  0
 17 18  1  0  0  0  0
 17 19  1  0  0  0  0
 19 20  1  0  0  0  0
 19 32  1  0  0  0  0
 20 21  1  0  0  0  0
 21 22  2  0  0  0  0
 21 23  1  0  0  0  0
 23 24  1  0  0  0  0
 24 25  1  0  0  0  0
 24 31  1  0  0  0  0
 25 26  1  0  0  0  0
 26 27  1  0  0  0  0
 27 28  1  0  0  0  0
 27 31  1  0  0  0  0
 28 29  1  0  0  0  0
 29 30  1  0  0  0  0
 30 31  1  0  0  0  0
 32 38  1  0  0  0  0
 33 34  2  0  0  0  0
 33 38  1  0  0  0  0
 34 35  1  0  0  0  0
 35 36  2  0  0  0  0
 36 37  1  0  0  0  0
 37 38  2  0  0  0  0
A    1
N1
A    2
C2
A    3
C3
A    4
C4
A    5
C5
A    6
C6
A    7
C7
A    8
S8
A    9
O9
A   10
O10
A   11
N11
A   12
C12
A   13
C13
A   14
C14
A   15
C15
A   16
C16
A   17
C17
A   18
O18
A   19
C19
A   20
N20
A   21
C21
A   22
O22
A   23
O23
A   24
C24
A   25
C25
A   26
O26
A   27
C27
A   28
O28
A   29
C29
A   30
C30
A   31
C31
A   32
C32
A   33
C33
A   34
C34
A   35
C35
A   36
C36
A   37
C37
A   38
C38
M  END
>  <InstanceId>
2IDW_017_B_401

>  <ChemCompId>
017

>  <PdbId>
2IDW

>  <ChainId>
B

>  <ResidueNumber>
401

>  <InsertionCode>


>  <Model>
1

>  <AltIds>


>  <MissingHeavyAtoms>
0

>  <ObservedFormula>
C27 N3 O7 S

>  <Name>
(3R,3AS,6AR)-HEXAHYDROFURO[2,3-B]FURAN-3-YL(1S,2R)-3-[[(4-AMINOPHENYL)SULFONYL](ISOBUTYL)AMINO]-1-BENZYL-2-HYDROXYPROPYLCARBAMATE

>  <SystematicName>
[(3R,3aS,6aR)-2,3,3a,4,5,6a-hexahydrofuro[2,3-b]furan-3-yl] N-[(2S,3R)-4-[(4-aminophenyl)sulfonyl-(2-methylpropyl)amino]-3-hydroxy-1-phenyl-butan-2-yl]carbamate

>  <Synonyms>
Darunavir, TMC114, UIC-94017

>  <Type>
NON-POLYMER

>  <Formula>
C27 H37 N3 O7 S

>  <MolecularWeight>
547.664

>  <ModifiedDate>
2011-06-04

>  <Parent>


>  <OneLetterCode>


>  <SubcomponentList>


>  <AmbiguousFlag>
N

>  <InChI>
InChI=1S/C27H37N3O7S/c1-18(2)15-30(38(33,34)21-10-8-20(28)9-11-21)16-24(31)23(14-19-6-4-3-5-7-19)29-27(32)37-25-17-36-26-22(25)12-13-35-26/h3-11,18,22-26,31H,12-17,28H2,1-2H3,(H,29,32)/t22-,23-,24+,25-,26+/m0/s1

>  <InChIKey>
CJBJHOAVZSMMDJ-HEXNFIEUSA-N

>  <SMILES>
CC(C)C[N@@](C[C@H]([C@H](Cc1ccccc1)NC(=O)O[C@H]2CO[C@@H]3[C@H]2CCO3)O)S(=O)(=O)c4ccc(cc4)N

$$$$
