3TWP_SAL_A_404
  RCSB PDB12061710573D
Coordinates from PDB:3TWP:A:404 Model:1 without hydrogens
 10 10  0  0  0  0            999 V2000
   46.8140   -4.9660   28.7010   C 0  0  0  0  0  0  0  0  0  0  0  0
   47.0460   -3.8410   29.2000   O 0  0  0  0  0  0  0  0  0  0  0  0
   46.1440   -5.8970   29.2330   O 0  0  0  0  0  0  0  0  0  0  0  0
   47.3840   -5.1900   27.3160   C 0  0  0  0  0  0  0  0  0  0  0  0
   47.0140   -6.3310   26.5960   C 0  0  0  0  0  0  0  0  0  0  0  0
   47.5590   -6.5220   25.3250   C 0  0  0  0  0  0  0  0  0  0  0  0
   48.4350   -5.5650   24.7990   C 0  0  0  0  0  0  0  0  0  0  0  0
   48.8070   -4.4230   25.5260   C 0  0  0  0  0  0  0  0  0  0  0  0
   48.2710   -4.2340   26.7990   C 0  0  0  0  0  0  0  0  0  0  0  0
   46.1390   -7.2580   27.1340   O 0  0  0  0  0  0  0  0  0  0  0  0
  1  2  2  0  0  0  0
  1  3  1  0  0  0  0
  1  4  1  0  0  0  0
  4  5  1  0  0  0  0
  4  9  2  0  0  0  0
  5  6  2  0  0  0  0
  5 10  1  0  0  0  0
  6  7  1  0  0  0  0
  7  8  2  0  0  0  0
  8  9  1  0  0  0  0
A    1
C1'
A    2
O1'
A    3
O2'
A    4
C1
A    5
C2
A    6
C3
A    7
C4
A    8
C5
A    9
C6
A   10
O2
M  END
>  <InstanceId>
3TWP_SAL_A_404

>  <ChemCompId>
SAL

>  <PdbId>
3TWP

>  <ChainId>
A

>  <ResidueNumber>
404

>  <InsertionCode>


>  <Model>
1

>  <AltIds>


>  <MissingHeavyAtoms>
0

>  <ObservedFormula>
C7 O3

>  <Name>
2-HYDROXYBENZOIC ACID

>  <SystematicName>
2-hydroxybenzoic acid

>  <Synonyms>
SALICYLIC ACID

>  <Type>
NON-POLYMER

>  <Formula>
C7 H6 O3

>  <MolecularWeight>
138.121

>  <ModifiedDate>
2011-06-04

>  <Parent>


>  <OneLetterCode>


>  <SubcomponentList>


>  <AmbiguousFlag>
N

>  <InChI>
InChI=1S/C7H6O3/c8-6-4-2-1-3-5(6)7(9)10/h1-4,8H,(H,9,10)

>  <InChIKey>
YGSDEFSMJLZEOE-UHFFFAOYSA-N

>  <SMILES>
c1ccc(c(c1)C(=O)O)O

$$$$
