5L4J_6JD_A_201
  RCSB PDB12061718423D
Coordinates from PDB:5L4J:A:201 Model:1 without hydrogens
 17 18  0  0  0  0            999 V2000
  -41.4930   -1.3160   68.4570   O 0  0  0  0  0  0  0  0  0  0  0  0
  -42.3750   -0.2180   68.6590   S 0  0  0  0  0  0  0  0  0  0  0  0
  -41.9950    1.0670   68.1830   O 0  0  0  0  0  0  0  0  0  0  0  0
  -43.9080   -0.6500   67.9140   C 0  0  0  0  0  0  0  0  0  0  0  0
  -44.5200   -1.8930   68.1850   C 0  0  0  0  0  0  0  0  0  0  0  0
  -45.7370   -2.2060   67.5700   C 0  0  0  0  0  0  0  0  0  0  0  0
  -46.3320   -1.3120   66.6890   C 0  0  0  0  0  0  0  0  0  0  0  0
  -47.5260   -1.6200   66.0780   O 0  0  0  0  0  0  0  0  0  0  0  0
  -45.7260   -0.0910   66.4130   C 0  0  0  0  0  0  0  0  0  0  0  0
  -44.5140    0.2460   67.0180   C 0  0  0  0  0  0  0  0  0  0  0  0
  -42.6470   -0.0940   70.3920   C 0  0  0  0  0  0  0  0  0  0  0  0
  -42.2910    1.0820   71.0780   C 0  0  0  0  0  0  0  0  0  0  0  0
  -42.5060    1.1670   72.4610   C 0  0  0  0  0  0  0  0  0  0  0  0
  -43.0630    0.0980   73.1550   C 0  0  0  0  0  0  0  0  0  0  0  0
  -43.2770    0.1710   74.5120   O 0  0  0  0  0  0  0  0  0  0  0  0
  -43.4100   -1.0650   72.4780   C 0  0  0  0  0  0  0  0  0  0  0  0
  -43.1990   -1.1590   71.1040   C 0  0  0  0  0  0  0  0  0  0  0  0
  8  7  1  0  0  0  0
  7  9  2  0  0  0  0
  7  6  1  0  0  0  0
  9 10  1  0  0  0  0
  6  5  2  0  0  0  0
 10  4  2  0  0  0  0
  5  4  1  0  0  0  0
  4  2  1  0  0  0  0
  2  3  2  0  0  0  0
  2  1  2  0  0  0  0
  2 11  1  0  0  0  0
 11 12  2  0  0  0  0
 11 17  1  0  0  0  0
 12 13  1  0  0  0  0
 17 16  2  0  0  0  0
 13 14  2  0  0  0  0
 16 14  1  0  0  0  0
 14 15  1  0  0  0  0
A    1
O01
A    2
S02
A    3
O03
A    4
C04
A    5
C05
A    6
C06
A    7
C07
A    8
O08
A    9
C09
A   10
C10
A   11
C11
A   12
C12
A   13
C13
A   14
C14
A   15
O15
A   16
C16
A   17
C17
M  END
>  <InstanceId>
5L4J_6JD_A_201

>  <ChemCompId>
6JD

>  <PdbId>
5L4J

>  <ChainId>
A

>  <ResidueNumber>
201

>  <InsertionCode>


>  <Model>
1

>  <AltIds>


>  <MissingHeavyAtoms>
0

>  <ObservedFormula>
C12 O4 S

>  <Name>
4-(4-hydroxyphenyl)sulfonylphenol

>  <SystematicName>
4-(4-hydroxyphenyl)sulfonylphenol

>  <Synonyms>


>  <Type>
NON-POLYMER

>  <Formula>
C12 H10 O4 S

>  <MolecularWeight>
250.27

>  <ModifiedDate>
2016-10-07

>  <Parent>


>  <OneLetterCode>


>  <SubcomponentList>


>  <AmbiguousFlag>
N

>  <InChI>
InChI=1S/C12H10O4S/c13-9-1-5-11(6-2-9)17(15,16)12-7-3-10(14)4-8-12/h1-8,13-14H

>  <InChIKey>
VPWNQTHUCYMVMZ-UHFFFAOYSA-N

>  <SMILES>
c1cc(ccc1O)S(=O)(=O)c2ccc(cc2)O

$$$$
