3EEB_IHP_A_210


 48 48  0  0  0  0  0  0  0  0999 V2000
  -48.9809   -2.3146    3.9722 C   0  0  0  0  0  0  0  0  0  0  0  0
  -47.6994   -2.3111    4.7902 C   0  0  0  0  0  0  0  0  0  0  0  0
  -46.8455   -3.5097    4.4074 C   0  0  0  0  0  0  0  0  0  0  0  0
  -46.5291   -3.5223    2.9011 C   0  0  0  0  0  0  0  0  0  0  0  0
  -47.8515   -3.5340    2.1273 C   0  0  0  0  0  0  0  0  0  0  0  0
  -48.6599   -2.2887    2.4828 C   0  0  0  0  0  0  0  0  0  0  0  0
  -49.7412   -1.1656    4.2965 O   0  0  0  0  0  0  0  0  0  0  0  0
  -51.0858   -1.2369    5.1960 P   0  0  0  0  0  0  0  0  0  0  0  0
  -50.5190   -0.9550    6.5653 O   0  0  0  0  0  0  0  0  0  0  0  0
  -51.5991   -2.6265    4.9844 O   0  0  0  0  0  0  0  0  0  0  0  0
  -52.0082   -0.1765    4.6664 O   0  0  0  0  0  0  0  0  0  0  0  0
  -50.9637   -3.2643    5.3454 H   0  0  0  0  0  0  0  0  0  0  0  0
  -51.6237    0.6986    4.8318 H   0  0  0  0  0  0  0  0  0  0  0  0
  -46.9603   -1.1297    4.5200 O   0  0  0  0  0  0  0  0  0  0  0  0
  -46.7070    0.0043    5.6392 P   0  0  0  0  0  0  0  0  0  0  0  0
  -45.7770   -0.6980    6.5802 O   0  0  0  0  0  0  0  0  0  0  0  0
  -46.0698    1.1259    4.8606 O   0  0  0  0  0  0  0  0  0  0  0  0
  -48.0561    0.3841    6.1894 O   0  0  0  0  0  0  0  0  0  0  0  0
  -45.2060    0.8375    4.5264 H   0  0  0  0  0  0  0  0  0  0  0  0
  -48.4273   -0.3651    6.6811 H   0  0  0  0  0  0  0  0  0  0  0  0
  -45.6691   -3.5021    5.2023 O   0  0  0  0  0  0  0  0  0  0  0  0
  -45.5806   -4.3819    6.5427 P   0  0  0  0  0  0  0  0  0  0  0  0
  -46.8099   -5.2632    6.4814 O   0  0  0  0  0  0  0  0  0  0  0  0
  -45.5839   -3.3396    7.6437 O   0  0  0  0  0  0  0  0  0  0  0  0
  -44.3161   -5.1871    6.3885 O   0  0  0  0  0  0  0  0  0  0  0  0
  -46.4398   -2.8832    7.6543 H   0  0  0  0  0  0  0  0  0  0  0  0
  -44.4223   -5.8196    5.6607 H   0  0  0  0  0  0  0  0  0  0  0  0
  -45.7338   -4.6718    2.6159 O   0  0  0  0  0  0  0  0  0  0  0  0
  -44.1454   -4.6016    2.3348 P   0  0  0  0  0  0  0  0  0  0  0  0
  -43.9036   -5.5719    1.2091 O   0  0  0  0  0  0  0  0  0  0  0  0
  -43.8851   -3.1536    1.9728 O   0  0  0  0  0  0  0  0  0  0  0  0
  -43.5086   -4.9488    3.6743 O   0  0  0  0  0  0  0  0  0  0  0  0
  -44.2985   -2.9545    1.1182 H   0  0  0  0  0  0  0  0  0  0  0  0
  -43.6872   -5.8784    3.8860 H   0  0  0  0  0  0  0  0  0  0  0  0
  -47.6668   -3.5655    0.7136 O   0  0  0  0  0  0  0  0  0  0  0  0
  -48.4582   -4.5873   -0.2412 P   0  0  0  0  0  0  0  0  0  0  0  0
  -48.9855   -5.6381    0.6986 O   0  0  0  0  0  0  0  0  0  0  0  0
  -49.5448   -3.8295   -0.9515 O   0  0  0  0  0  0  0  0  0  0  0  0
  -47.3451   -5.0834   -1.1407 O   0  0  0  0  0  0  0  0  0  0  0  0
  -50.2153   -3.5479   -0.3096 H   0  0  0  0  0  0  0  0  0  0  0  0
  -46.6878   -5.5593   -0.6094 H   0  0  0  0  0  0  0  0  0  0  0  0
  -49.8723   -2.2075    1.7284 O   0  0  0  0  0  0  0  0  0  0  0  0
  -50.3127   -0.8662    0.9382 P   0  0  0  0  0  0  0  0  0  0  0  0
  -50.7352   -1.2831   -0.4451 O   0  0  0  0  0  0  0  0  0  0  0  0
  -51.4697   -0.3452    1.7664 O   0  0  0  0  0  0  0  0  0  0  0  0
  -49.0927    0.0179    0.9132 O   0  0  0  0  0  0  0  0  0  0  0  0
  -52.2064   -0.9748    1.7249 H   0  0  0  0  0  0  0  0  0  0  0  0
  -48.4075   -0.3922    0.3626 H   0  0  0  0  0  0  0  0  0  0  0  0
  1  2  1  0  0  0
  1  6  1  0  0  0
  1  7  1  0  0  0
  2  3  1  0  0  0
  2 14  1  0  0  0
  3  4  1  0  0  0
  3 21  1  0  0  0
  4  5  1  0  0  0
  4 28  1  0  0  0
  5  6  1  0  0  0
  5 35  1  0  0  0
  6 42  1  0  0  0
  7  8  1  0  0  0
  8  9  2  0  0  0
  8 10  1  0  0  0
  8 11  1  0  0  0
 14 15  1  0  0  0
 15 16  2  0  0  0
 15 17  1  0  0  0
 15 18  1  0  0  0
 21 22  1  0  0  0
 22 23  2  0  0  0
 22 24  1  0  0  0
 22 25  1  0  0  0
 28 29  1  0  0  0
 29 30  2  0  0  0
 29 31  1  0  0  0
 29 32  1  0  0  0
 35 36  1  0  0  0
 36 37  2  0  0  0
 36 38  1  0  0  0
 36 39  1  0  0  0
 42 43  1  0  0  0
 43 44  2  0  0  0
 43 45  1  0  0  0
 43 46  1  0  0  0
 10 12  1  0  0  0
 11 13  1  0  0  0
 17 19  1  0  0  0
 18 20  1  0  0  0
 24 26  1  0  0  0
 25 27  1  0  0  0
 31 33  1  0  0  0
 32 34  1  0  0  0
 38 40  1  0  0  0
 39 41  1  0  0  0
 45 47  1  0  0  0
 46 48  1  0  0  0
M  END
> <minimizedAffinity>
-9.24195

$$$$
3EEB_IHP_A_210


 48 48  0  0  0  0  0  0  0  0999 V2000
  -47.3331   -2.0258    4.4549 C   0  0  0  0  0  0  0  0  0  0  0  0
  -48.6526   -1.9827    3.7010 C   0  0  0  0  0  0  0  0  0  0  0  0
  -48.4050   -2.2381    2.2226 C   0  0  0  0  0  0  0  0  0  0  0  0
  -47.6901   -3.5815    1.9913 C   0  0  0  0  0  0  0  0  0  0  0  0
  -46.3673   -3.5669    2.7642 C   0  0  0  0  0  0  0  0  0  0  0  0
  -46.6495   -3.3725    4.2519 C   0  0  0  0  0  0  0  0  0  0  0  0
  -47.5819   -1.8425    5.8361 O   0  0  0  0  0  0  0  0  0  0  0  0
  -47.2290   -0.4639    6.6088 P   0  0  0  0  0  0  0  0  0  0  0  0
  -45.7239   -0.5515    6.6595 O   0  0  0  0  0  0  0  0  0  0  0  0
  -47.9268   -0.5895    7.9266 O   0  0  0  0  0  0  0  0  0  0  0  0
  -47.7661    0.6504    5.7568 O   0  0  0  0  0  0  0  0  0  0  0  0
  -47.5382   -1.3221    8.4297 H   0  0  0  0  0  0  0  0  0  0  0  0
  -47.2768    0.6820    4.9198 H   0  0  0  0  0  0  0  0  0  0  0  0
  -49.5193   -2.9943    4.1916 O   0  0  0  0  0  0  0  0  0  0  0  0
  -50.8114   -2.6586    5.0973 P   0  0  0  0  0  0  0  0  0  0  0  0
  -51.5851   -3.9384    5.0113 O   0  0  0  0  0  0  0  0  0  0  0  0
  -50.2220   -2.3813    6.4559 O   0  0  0  0  0  0  0  0  0  0  0  0
  -51.4617   -1.4409    4.4962 O   0  0  0  0  0  0  0  0  0  0  0  0
  -49.8154   -3.1906    6.8033 H   0  0  0  0  0  0  0  0  0  0  0  0
  -51.8259   -1.6653    3.6256 H   0  0  0  0  0  0  0  0  0  0  0  0
  -49.6451   -2.1653    1.5349 O   0  0  0  0  0  0  0  0  0  0  0  0
  -50.1558   -0.7762    0.9118 P   0  0  0  0  0  0  0  0  0  0  0  0
  -50.6446   -1.1551   -0.4700 O   0  0  0  0  0  0  0  0  0  0  0  0
  -48.9163    0.0962    0.9448 O   0  0  0  0  0  0  0  0  0  0  0  0
  -51.2948   -0.3533    1.8034 O   0  0  0  0  0  0  0  0  0  0  0  0
  -48.2508   -0.2645    0.3383 H   0  0  0  0  0  0  0  0  0  0  0  0
  -52.0313   -0.9767    1.7047 H   0  0  0  0  0  0  0  0  0  0  0  0
  -47.4872   -3.7501    0.5893 O   0  0  0  0  0  0  0  0  0  0  0  0
  -48.3829   -4.7367   -0.3224 P   0  0  0  0  0  0  0  0  0  0  0  0
  -48.9592   -5.7426    0.6384 O   0  0  0  0  0  0  0  0  0  0  0  0
  -49.4136   -3.8315   -0.9658 O   0  0  0  0  0  0  0  0  0  0  0  0
  -47.4103   -5.2767   -1.3631 O   0  0  0  0  0  0  0  0  0  0  0  0
  -50.0213   -3.4996   -0.2866 H   0  0  0  0  0  0  0  0  0  0  0  0
  -46.7606   -5.8524   -0.9304 H   0  0  0  0  0  0  0  0  0  0  0  0
  -45.6151   -4.7671    2.5992 O   0  0  0  0  0  0  0  0  0  0  0  0
  -44.0295   -4.7673    2.3386 P   0  0  0  0  0  0  0  0  0  0  0  0
  -43.6983   -3.3228    2.0752 O   0  0  0  0  0  0  0  0  0  0  0  0
  -43.3471   -5.3179    3.5595 O   0  0  0  0  0  0  0  0  0  0  0  0
  -43.9258   -5.6459    1.1091 O   0  0  0  0  0  0  0  0  0  0  0  0
  -43.4589   -4.6999    4.2988 H   0  0  0  0  0  0  0  0  0  0  0  0
  -44.3888   -5.2226    0.3692 H   0  0  0  0  0  0  0  0  0  0  0  0
  -45.4526   -3.4296    5.0329 O   0  0  0  0  0  0  0  0  0  0  0  0
  -45.3365   -4.3243    6.3758 P   0  0  0  0  0  0  0  0  0  0  0  0
  -46.4955   -5.2848    6.3724 O   0  0  0  0  0  0  0  0  0  0  0  0
  -44.0026   -5.0231    6.2074 O   0  0  0  0  0  0  0  0  0  0  0  0
  -45.4112   -3.3540    7.5263 O   0  0  0  0  0  0  0  0  0  0  0  0
  -44.0464   -5.6246    5.4477 H   0  0  0  0  0  0  0  0  0  0  0  0
  -46.2955   -2.9566    7.5573 H   0  0  0  0  0  0  0  0  0  0  0  0
  1  2  1  0  0  0
  1  6  1  0  0  0
  1  7  1  0  0  0
  2  3  1  0  0  0
  2 14  1  0  0  0
  3  4  1  0  0  0
  3 21  1  0  0  0
  4  5  1  0  0  0
  4 28  1  0  0  0
  5  6  1  0  0  0
  5 35  1  0  0  0
  6 42  1  0  0  0
  7  8  1  0  0  0
  8  9  2  0  0  0
  8 10  1  0  0  0
  8 11  1  0  0  0
 14 15  1  0  0  0
 15 16  2  0  0  0
 15 17  1  0  0  0
 15 18  1  0  0  0
 21 22  1  0  0  0
 22 23  2  0  0  0
 22 24  1  0  0  0
 22 25  1  0  0  0
 28 29  1  0  0  0
 29 30  2  0  0  0
 29 31  1  0  0  0
 29 32  1  0  0  0
 35 36  1  0  0  0
 36 37  2  0  0  0
 36 38  1  0  0  0
 36 39  1  0  0  0
 42 43  1  0  0  0
 43 44  2  0  0  0
 43 45  1  0  0  0
 43 46  1  0  0  0
 10 12  1  0  0  0
 11 13  1  0  0  0
 17 19  1  0  0  0
 18 20  1  0  0  0
 24 26  1  0  0  0
 25 27  1  0  0  0
 31 33  1  0  0  0
 32 34  1  0  0  0
 38 40  1  0  0  0
 39 41  1  0  0  0
 45 47  1  0  0  0
 46 48  1  0  0  0
M  END
> <minimizedAffinity>
-8.82748

$$$$
3EEB_IHP_A_210


 48 48  0  0  0  0  0  0  0  0999 V2000
  -47.8226   -3.7845    2.3171 C   0  0  0  0  0  0  0  0  0  0  0  0
  -48.7028   -2.5637    2.5325 C   0  0  0  0  0  0  0  0  0  0  0  0
  -48.9463   -2.3655    4.0204 C   0  0  0  0  0  0  0  0  0  0  0  0
  -47.6249   -2.2272    4.7976 C   0  0  0  0  0  0  0  0  0  0  0  0
  -46.7836   -3.4840    4.5524 C   0  0  0  0  0  0  0  0  0  0  0  0
  -46.5011   -3.6235    3.0585 C   0  0  0  0  0  0  0  0  0  0  0  0
  -47.5570   -3.9265    0.9342 O   0  0  0  0  0  0  0  0  0  0  0  0
  -48.5206   -4.7722   -0.0550 P   0  0  0  0  0  0  0  0  0  0  0  0
  -49.0874   -5.7851    0.9087 O   0  0  0  0  0  0  0  0  0  0  0  0
  -47.5942   -5.3198   -1.0947 O   0  0  0  0  0  0  0  0  0  0  0  0
  -49.5229   -3.7990   -0.6066 O   0  0  0  0  0  0  0  0  0  0  0  0
  -46.9732   -5.9393   -0.6805 H   0  0  0  0  0  0  0  0  0  0  0  0
  -50.0925   -3.4800    0.1109 H   0  0  0  0  0  0  0  0  0  0  0  0
  -48.0526   -1.4076    2.0268 O   0  0  0  0  0  0  0  0  0  0  0  0
  -48.7875   -0.3691    1.0348 P   0  0  0  0  0  0  0  0  0  0  0  0
  -48.7405   -1.1066   -0.2682 O   0  0  0  0  0  0  0  0  0  0  0  0
  -50.1680   -0.2412    1.6248 O   0  0  0  0  0  0  0  0  0  0  0  0
  -48.0144    0.9212    1.1026 O   0  0  0  0  0  0  0  0  0  0  0  0
  -50.6275   -1.0930    1.5597 H   0  0  0  0  0  0  0  0  0  0  0  0
  -47.1355    0.7924    0.7131 H   0  0  0  0  0  0  0  0  0  0  0  0
  -49.7922   -1.2388    4.1963 O   0  0  0  0  0  0  0  0  0  0  0  0
  -51.1717   -1.3690    5.0078 P   0  0  0  0  0  0  0  0  0  0  0  0
  -51.4334   -2.8597    5.0438 O   0  0  0  0  0  0  0  0  0  0  0  0
  -52.1442   -0.5597    4.1723 O   0  0  0  0  0  0  0  0  0  0  0  0
  -50.8602   -0.8301    6.3802 O   0  0  0  0  0  0  0  0  0  0  0  0
  -52.2723   -0.9936    3.3143 H   0  0  0  0  0  0  0  0  0  0  0  0
  -50.2324   -1.4210    6.8247 H   0  0  0  0  0  0  0  0  0  0  0  0
  -47.9299   -2.0505    6.1799 O   0  0  0  0  0  0  0  0  0  0  0  0
  -47.2170   -0.9387    7.1087 P   0  0  0  0  0  0  0  0  0  0  0  0
  -47.1421   -1.5613    8.4776 O   0  0  0  0  0  0  0  0  0  0  0  0
  -45.8686   -0.7053    6.4583 O   0  0  0  0  0  0  0  0  0  0  0  0
  -48.1044    0.2920    6.9739 O   0  0  0  0  0  0  0  0  0  0  0  0
  -45.3208   -1.4998    6.5557 H   0  0  0  0  0  0  0  0  0  0  0  0
  -48.9608    0.1210    7.3962 H   0  0  0  0  0  0  0  0  0  0  0  0
  -45.5391   -3.4631    5.2484 O   0  0  0  0  0  0  0  0  0  0  0  0
  -45.2182   -4.4443    6.4797 P   0  0  0  0  0  0  0  0  0  0  0  0
  -46.4696   -5.2666    6.6326 O   0  0  0  0  0  0  0  0  0  0  0  0
  -44.0090   -5.2661    6.1301 O   0  0  0  0  0  0  0  0  0  0  0  0
  -45.0028   -3.4547    7.6060 O   0  0  0  0  0  0  0  0  0  0  0  0
  -44.2282   -5.8712    5.4043 H   0  0  0  0  0  0  0  0  0  0  0  0
  -45.8251   -2.9669    7.7695 H   0  0  0  0  0  0  0  0  0  0  0  0
  -45.6511   -4.7395    2.7793 O   0  0  0  0  0  0  0  0  0  0  0  0
  -44.1054   -4.5615    2.3359 P   0  0  0  0  0  0  0  0  0  0  0  0
  -43.8624   -5.4984    1.1831 O   0  0  0  0  0  0  0  0  0  0  0  0
  -44.0325   -3.1047    1.9256 O   0  0  0  0  0  0  0  0  0  0  0  0
  -43.2841   -4.9290    3.5446 O   0  0  0  0  0  0  0  0  0  0  0  0
  -44.5885   -2.9607    1.1439 H   0  0  0  0  0  0  0  0  0  0  0  0
  -43.3908   -5.8746    3.7327 H   0  0  0  0  0  0  0  0  0  0  0  0
  1  2  1  0  0  0
  1  6  1  0  0  0
  1  7  1  0  0  0
  2  3  1  0  0  0
  2 14  1  0  0  0
  3  4  1  0  0  0
  3 21  1  0  0  0
  4  5  1  0  0  0
  4 28  1  0  0  0
  5  6  1  0  0  0
  5 35  1  0  0  0
  6 42  1  0  0  0
  7  8  1  0  0  0
  8  9  2  0  0  0
  8 10  1  0  0  0
  8 11  1  0  0  0
 14 15  1  0  0  0
 15 16  2  0  0  0
 15 17  1  0  0  0
 15 18  1  0  0  0
 21 22  1  0  0  0
 22 23  2  0  0  0
 22 24  1  0  0  0
 22 25  1  0  0  0
 28 29  1  0  0  0
 29 30  2  0  0  0
 29 31  1  0  0  0
 29 32  1  0  0  0
 35 36  1  0  0  0
 36 37  2  0  0  0
 36 38  1  0  0  0
 36 39  1  0  0  0
 42 43  1  0  0  0
 43 44  2  0  0  0
 43 45  1  0  0  0
 43 46  1  0  0  0
 10 12  1  0  0  0
 11 13  1  0  0  0
 17 19  1  0  0  0
 18 20  1  0  0  0
 24 26  1  0  0  0
 25 27  1  0  0  0
 31 33  1  0  0  0
 32 34  1  0  0  0
 38 40  1  0  0  0
 39 41  1  0  0  0
 45 47  1  0  0  0
 46 48  1  0  0  0
M  END
> <minimizedAffinity>
-8.72296

$$$$
3EEB_IHP_A_210


 48 48  0  0  0  0  0  0  0  0999 V2000
  -47.2077   -2.7242    4.5329 C   0  0  0  0  0  0  0  0  0  0  0  0
  -47.0371   -4.2119    4.2699 C   0  0  0  0  0  0  0  0  0  0  0  0
  -48.1443   -4.6980    3.3479 C   0  0  0  0  0  0  0  0  0  0  0  0
  -48.1670   -3.9109    2.0253 C   0  0  0  0  0  0  0  0  0  0  0  0
  -48.3490   -2.4243    2.3481 C   0  0  0  0  0  0  0  0  0  0  0  0
  -47.1911   -1.9480    3.2218 C   0  0  0  0  0  0  0  0  0  0  0  0
  -46.1412   -2.2717    5.3460 O   0  0  0  0  0  0  0  0  0  0  0  0
  -46.3807   -1.5794    6.7902 P   0  0  0  0  0  0  0  0  0  0  0  0
  -45.0940   -1.9427    7.4890 O   0  0  0  0  0  0  0  0  0  0  0  0
  -47.6119   -2.2449    7.3197 O   0  0  0  0  0  0  0  0  0  0  0  0
  -46.5639   -0.1111    6.5325 O   0  0  0  0  0  0  0  0  0  0  0  0
  -47.4329   -3.1870    7.4657 H   0  0  0  0  0  0  0  0  0  0  0  0
  -45.7362    0.2632    6.1922 H   0  0  0  0  0  0  0  0  0  0  0  0
  -45.7895   -4.4473    3.6350 O   0  0  0  0  0  0  0  0  0  0  0  0
  -44.6561   -5.3940    4.2845 P   0  0  0  0  0  0  0  0  0  0  0  0
  -43.7379   -5.6128    3.1214 O   0  0  0  0  0  0  0  0  0  0  0  0
  -44.0744   -4.5392    5.3805 O   0  0  0  0  0  0  0  0  0  0  0  0
  -45.3595   -6.6122    4.8213 O   0  0  0  0  0  0  0  0  0  0  0  0
  -43.6328   -3.7690    4.9899 H   0  0  0  0  0  0  0  0  0  0  0  0
  -45.7167   -7.1307    4.0835 H   0  0  0  0  0  0  0  0  0  0  0  0
  -47.9819   -6.0929    3.1389 O   0  0  0  0  0  0  0  0  0  0  0  0
  -49.1799   -7.1138    3.4574 P   0  0  0  0  0  0  0  0  0  0  0  0
  -48.8351   -7.6642    4.8249 O   0  0  0  0  0  0  0  0  0  0  0  0
  -49.0995   -8.1105    2.3178 O   0  0  0  0  0  0  0  0  0  0  0  0
  -50.4146   -6.2511    3.5051 O   0  0  0  0  0  0  0  0  0  0  0  0
  -48.2703   -8.6097    2.3827 H   0  0  0  0  0  0  0  0  0  0  0  0
  -50.3628   -5.6542    4.2679 H   0  0  0  0  0  0  0  0  0  0  0  0
  -49.2289   -4.4154    1.2172 O   0  0  0  0  0  0  0  0  0  0  0  0
  -49.0032   -5.0301   -0.2586 P   0  0  0  0  0  0  0  0  0  0  0  0
  -49.3421   -6.4915   -0.1304 O   0  0  0  0  0  0  0  0  0  0  0  0
  -49.9500   -4.2489   -1.1467 O   0  0  0  0  0  0  0  0  0  0  0  0
  -47.5532   -4.6993   -0.5882 O   0  0  0  0  0  0  0  0  0  0  0  0
  -50.8659   -4.4743   -0.9202 H   0  0  0  0  0  0  0  0  0  0  0  0
  -46.9655   -5.2094   -0.0092 H   0  0  0  0  0  0  0  0  0  0  0  0
  -48.4024   -1.6057    1.1816 O   0  0  0  0  0  0  0  0  0  0  0  0
  -49.7044   -0.7547    0.7788 P   0  0  0  0  0  0  0  0  0  0  0  0
  -50.2026   -1.4146   -0.4790 O   0  0  0  0  0  0  0  0  0  0  0  0
  -50.6879   -0.8249    1.9134 O   0  0  0  0  0  0  0  0  0  0  0  0
  -49.1079    0.6181    0.5466 O   0  0  0  0  0  0  0  0  0  0  0  0
  -51.0220   -1.7318    1.9961 H   0  0  0  0  0  0  0  0  0  0  0  0
  -48.4873    0.5792   -0.1979 H   0  0  0  0  0  0  0  0  0  0  0  0
  -47.2681   -0.5451    3.4895 O   0  0  0  0  0  0  0  0  0  0  0  0
  -46.1321    0.4949    2.9942 P   0  0  0  0  0  0  0  0  0  0  0  0
  -44.9278   -0.3168    2.5983 O   0  0  0  0  0  0  0  0  0  0  0  0
  -46.7863    1.1785    1.8108 O   0  0  0  0  0  0  0  0  0  0  0  0
  -45.8474    1.3883    4.1738 O   0  0  0  0  0  0  0  0  0  0  0  0
  -46.9312    0.5312    1.1030 H   0  0  0  0  0  0  0  0  0  0  0  0
  -45.4312    0.8691    4.8796 H   0  0  0  0  0  0  0  0  0  0  0  0
  1  2  1  0  0  0
  1  6  1  0  0  0
  1  7  1  0  0  0
  2  3  1  0  0  0
  2 14  1  0  0  0
  3  4  1  0  0  0
  3 21  1  0  0  0
  4  5  1  0  0  0
  4 28  1  0  0  0
  5  6  1  0  0  0
  5 35  1  0  0  0
  6 42  1  0  0  0
  7  8  1  0  0  0
  8  9  2  0  0  0
  8 10  1  0  0  0
  8 11  1  0  0  0
 14 15  1  0  0  0
 15 16  2  0  0  0
 15 17  1  0  0  0
 15 18  1  0  0  0
 21 22  1  0  0  0
 22 23  2  0  0  0
 22 24  1  0  0  0
 22 25  1  0  0  0
 28 29  1  0  0  0
 29 30  2  0  0  0
 29 31  1  0  0  0
 29 32  1  0  0  0
 35 36  1  0  0  0
 36 37  2  0  0  0
 36 38  1  0  0  0
 36 39  1  0  0  0
 42 43  1  0  0  0
 43 44  2  0  0  0
 43 45  1  0  0  0
 43 46  1  0  0  0
 10 12  1  0  0  0
 11 13  1  0  0  0
 17 19  1  0  0  0
 18 20  1  0  0  0
 24 26  1  0  0  0
 25 27  1  0  0  0
 31 33  1  0  0  0
 32 34  1  0  0  0
 38 40  1  0  0  0
 39 41  1  0  0  0
 45 47  1  0  0  0
 46 48  1  0  0  0
M  END
> <minimizedAffinity>
-8.61394

$$$$
3EEB_IHP_A_210


 48 48  0  0  0  0  0  0  0  0999 V2000
  -46.4307   -3.4101    2.8625 C   0  0  0  0  0  0  0  0  0  0  0  0
  -46.6062   -3.4586    4.3719 C   0  0  0  0  0  0  0  0  0  0  0  0
  -47.4353   -2.2685    4.8284 C   0  0  0  0  0  0  0  0  0  0  0  0
  -48.8028   -2.2263    4.1230 C   0  0  0  0  0  0  0  0  0  0  0  0
  -48.5671   -2.1698    2.6102 C   0  0  0  0  0  0  0  0  0  0  0  0
  -47.7881   -3.4070    2.1701 C   0  0  0  0  0  0  0  0  0  0  0  0
  -45.7058   -4.5511    2.4430 O   0  0  0  0  0  0  0  0  0  0  0  0
  -44.0903   -4.5638    2.3322 P   0  0  0  0  0  0  0  0  0  0  0  0
  -43.8196   -3.1061    2.0535 O   0  0  0  0  0  0  0  0  0  0  0  0
  -43.8046   -5.5003    1.2006 O   0  0  0  0  0  0  0  0  0  0  0  0
  -43.5774   -5.0573    3.6548 O   0  0  0  0  0  0  0  0  0  0  0  0
  -44.1579   -5.1295    0.3769 H   0  0  0  0  0  0  0  0  0  0  0  0
  -43.7913   -4.4113    4.3460 H   0  0  0  0  0  0  0  0  0  0  0  0
  -47.2895   -4.6478    4.7380 O   0  0  0  0  0  0  0  0  0  0  0  0
  -46.5442   -5.8841    5.4581 P   0  0  0  0  0  0  0  0  0  0  0  0
  -47.6279   -6.4207    6.3422 O   0  0  0  0  0  0  0  0  0  0  0  0
  -46.1782   -6.7874    4.3090 O   0  0  0  0  0  0  0  0  0  0  0  0
  -45.3322   -5.3199    6.1509 O   0  0  0  0  0  0  0  0  0  0  0  0
  -46.9868   -7.1264    3.8941 H   0  0  0  0  0  0  0  0  0  0  0  0
  -45.6146   -4.7469    6.8809 H   0  0  0  0  0  0  0  0  0  0  0  0
  -47.5624   -2.3185    6.2416 O   0  0  0  0  0  0  0  0  0  0  0  0
  -46.9227   -1.1692    7.1627 P   0  0  0  0  0  0  0  0  0  0  0  0
  -45.8556   -0.5510    6.2847 O   0  0  0  0  0  0  0  0  0  0  0  0
  -46.4090   -1.9342    8.3667 O   0  0  0  0  0  0  0  0  0  0  0  0
  -48.0550   -0.2073    7.4153 O   0  0  0  0  0  0  0  0  0  0  0  0
  -45.6861   -2.5202    8.0931 H   0  0  0  0  0  0  0  0  0  0  0  0
  -48.3036    0.2250    6.5833 H   0  0  0  0  0  0  0  0  0  0  0  0
  -49.5195   -1.0865    4.5943 O   0  0  0  0  0  0  0  0  0  0  0  0
  -50.8337   -1.1905    5.5266 P   0  0  0  0  0  0  0  0  0  0  0  0
  -50.8514    0.0876    6.3225 O   0  0  0  0  0  0  0  0  0  0  0  0
  -51.9842   -1.3301    4.5508 O   0  0  0  0  0  0  0  0  0  0  0  0
  -50.6349   -2.4766    6.3183 O   0  0  0  0  0  0  0  0  0  0  0  0
  -52.0929   -0.5014    4.0583 H   0  0  0  0  0  0  0  0  0  0  0  0
  -49.8950   -2.3652    6.9355 H   0  0  0  0  0  0  0  0  0  0  0  0
  -49.7794   -2.1084    1.8617 O   0  0  0  0  0  0  0  0  0  0  0  0
  -50.2359   -0.7941    1.0579 P   0  0  0  0  0  0  0  0  0  0  0  0
  -49.0063    0.0739    1.0401 O   0  0  0  0  0  0  0  0  0  0  0  0
  -50.6874   -1.2090   -0.3145 O   0  0  0  0  0  0  0  0  0  0  0  0
  -51.3389   -0.2628    1.9498 O   0  0  0  0  0  0  0  0  0  0  0  0
  -49.9267   -1.5356   -0.8201 H   0  0  0  0  0  0  0  0  0  0  0  0
  -50.9680   -0.0184    2.8121 H   0  0  0  0  0  0  0  0  0  0  0  0
  -47.6074   -3.4460    0.7518 O   0  0  0  0  0  0  0  0  0  0  0  0
  -48.3690   -4.5192   -0.1892 P   0  0  0  0  0  0  0  0  0  0  0  0
  -47.3518   -5.0647   -1.1555 O   0  0  0  0  0  0  0  0  0  0  0  0
  -48.8483   -5.5623    0.7997 O   0  0  0  0  0  0  0  0  0  0  0  0
  -49.4597   -3.7522   -0.8913 O   0  0  0  0  0  0  0  0  0  0  0  0
  -48.0831   -6.0032    1.2009 H   0  0  0  0  0  0  0  0  0  0  0  0
  -49.0628   -3.1108   -1.5012 H   0  0  0  0  0  0  0  0  0  0  0  0
  1  2  1  0  0  0
  1  6  1  0  0  0
  1  7  1  0  0  0
  2  3  1  0  0  0
  2 14  1  0  0  0
  3  4  1  0  0  0
  3 21  1  0  0  0
  4  5  1  0  0  0
  4 28  1  0  0  0
  5  6  1  0  0  0
  5 35  1  0  0  0
  6 42  1  0  0  0
  7  8  1  0  0  0
  8  9  2  0  0  0
  8 10  1  0  0  0
  8 11  1  0  0  0
 14 15  1  0  0  0
 15 16  2  0  0  0
 15 17  1  0  0  0
 15 18  1  0  0  0
 21 22  1  0  0  0
 22 23  2  0  0  0
 22 24  1  0  0  0
 22 25  1  0  0  0
 28 29  1  0  0  0
 29 30  2  0  0  0
 29 31  1  0  0  0
 29 32  1  0  0  0
 35 36  1  0  0  0
 36 37  2  0  0  0
 36 38  1  0  0  0
 36 39  1  0  0  0
 42 43  1  0  0  0
 43 44  2  0  0  0
 43 45  1  0  0  0
 43 46  1  0  0  0
 10 12  1  0  0  0
 11 13  1  0  0  0
 17 19  1  0  0  0
 18 20  1  0  0  0
 24 26  1  0  0  0
 25 27  1  0  0  0
 31 33  1  0  0  0
 32 34  1  0  0  0
 38 40  1  0  0  0
 39 41  1  0  0  0
 45 47  1  0  0  0
 46 48  1  0  0  0
M  END
> <minimizedAffinity>
-8.58509

$$$$
3EEB_IHP_A_210


 48 48  0  0  0  0  0  0  0  0999 V2000
  -48.4235   -2.2357    2.4854 C   0  0  0  0  0  0  0  0  0  0  0  0
  -47.6190   -3.4821    2.1531 C   0  0  0  0  0  0  0  0  0  0  0  0
  -46.3840   -3.5442    3.0381 C   0  0  0  0  0  0  0  0  0  0  0  0
  -46.7551   -3.5186    4.5317 C   0  0  0  0  0  0  0  0  0  0  0  0
  -47.5546   -2.2419    4.8116 C   0  0  0  0  0  0  0  0  0  0  0  0
  -48.8196   -2.2362    3.9568 C   0  0  0  0  0  0  0  0  0  0  0  0
  -49.5979   -2.2175    1.6955 O   0  0  0  0  0  0  0  0  0  0  0  0
  -50.0496   -0.9208    0.8371 P   0  0  0  0  0  0  0  0  0  0  0  0
  -50.2998   -1.5528   -0.5096 O   0  0  0  0  0  0  0  0  0  0  0  0
  -48.8713   -0.0011    0.9087 O   0  0  0  0  0  0  0  0  0  0  0  0
  -51.2738   -0.3703    1.5110 O   0  0  0  0  0  0  0  0  0  0  0  0
  -48.1150   -0.4090    0.4587 H   0  0  0  0  0  0  0  0  0  0  0  0
  -52.0006   -1.0078    1.4320 H   0  0  0  0  0  0  0  0  0  0  0  0
  -48.4037   -4.6396    2.3970 O   0  0  0  0  0  0  0  0  0  0  0  0
  -49.1937   -5.4099    1.2201 P   0  0  0  0  0  0  0  0  0  0  0  0
  -48.2757   -5.2084    0.0537 O   0  0  0  0  0  0  0  0  0  0  0  0
  -49.2606   -6.8306    1.7174 O   0  0  0  0  0  0  0  0  0  0  0  0
  -50.5549   -4.7743    1.1190 O   0  0  0  0  0  0  0  0  0  0  0  0
  -48.3645   -7.1985    1.7665 H   0  0  0  0  0  0  0  0  0  0  0  0
  -50.4636   -3.8642    0.7961 H   0  0  0  0  0  0  0  0  0  0  0  0
  -45.6341   -4.6990    2.6917 O   0  0  0  0  0  0  0  0  0  0  0  0
  -44.0798   -4.5810    2.3059 P   0  0  0  0  0  0  0  0  0  0  0  0
  -43.9334   -5.4888    1.1033 O   0  0  0  0  0  0  0  0  0  0  0  0
  -43.3732   -5.0502    3.5626 O   0  0  0  0  0  0  0  0  0  0  0  0
  -43.8876   -3.1339    1.9317 O   0  0  0  0  0  0  0  0  0  0  0  0
  -43.5635   -5.9901    3.7088 H   0  0  0  0  0  0  0  0  0  0  0  0
  -44.3797   -2.9423    1.1180 H   0  0  0  0  0  0  0  0  0  0  0  0
  -45.5526   -3.5738    5.2973 O   0  0  0  0  0  0  0  0  0  0  0  0
  -45.3195   -4.6192    6.5054 P   0  0  0  0  0  0  0  0  0  0  0  0
  -46.5114   -5.5384    6.4636 O   0  0  0  0  0  0  0  0  0  0  0  0
  -44.0033   -5.2943    6.1778 O   0  0  0  0  0  0  0  0  0  0  0  0
  -45.1859   -3.7423    7.7438 O   0  0  0  0  0  0  0  0  0  0  0  0
  -44.1109   -5.8465    5.3877 H   0  0  0  0  0  0  0  0  0  0  0  0
  -46.0383   -3.3207    7.9350 H   0  0  0  0  0  0  0  0  0  0  0  0
  -47.9326   -2.1129    6.1805 O   0  0  0  0  0  0  0  0  0  0  0  0
  -47.2140   -1.0849    7.1849 P   0  0  0  0  0  0  0  0  0  0  0  0
  -47.3406   -1.7382    8.5350 O   0  0  0  0  0  0  0  0  0  0  0  0
  -45.7878   -0.9083    6.7442 O   0  0  0  0  0  0  0  0  0  0  0  0
  -48.0796    0.1478    7.0255 O   0  0  0  0  0  0  0  0  0  0  0  0
  -45.3030   -1.7377    6.8778 H   0  0  0  0  0  0  0  0  0  0  0  0
  -48.9796   -0.0475    7.3302 H   0  0  0  0  0  0  0  0  0  0  0  0
  -49.6455   -1.1023    4.2356 O   0  0  0  0  0  0  0  0  0  0  0  0
  -51.0631   -1.2312    5.0044 P   0  0  0  0  0  0  0  0  0  0  0  0
  -51.4025   -2.6963    5.0696 O   0  0  0  0  0  0  0  0  0  0  0  0
  -50.7673   -0.6424    6.3689 O   0  0  0  0  0  0  0  0  0  0  0  0
  -52.0552   -0.4585    4.1740 O   0  0  0  0  0  0  0  0  0  0  0  0
  -50.1229   -1.2020    6.8297 H   0  0  0  0  0  0  0  0  0  0  0  0
  -52.1822   -0.9059    3.3228 H   0  0  0  0  0  0  0  0  0  0  0  0
  1  2  1  0  0  0
  1  6  1  0  0  0
  1  7  1  0  0  0
  2  3  1  0  0  0
  2 14  1  0  0  0
  3  4  1  0  0  0
  3 21  1  0  0  0
  4  5  1  0  0  0
  4 28  1  0  0  0
  5  6  1  0  0  0
  5 35  1  0  0  0
  6 42  1  0  0  0
  7  8  1  0  0  0
  8  9  2  0  0  0
  8 10  1  0  0  0
  8 11  1  0  0  0
 14 15  1  0  0  0
 15 16  2  0  0  0
 15 17  1  0  0  0
 15 18  1  0  0  0
 21 22  1  0  0  0
 22 23  2  0  0  0
 22 24  1  0  0  0
 22 25  1  0  0  0
 28 29  1  0  0  0
 29 30  2  0  0  0
 29 31  1  0  0  0
 29 32  1  0  0  0
 35 36  1  0  0  0
 36 37  2  0  0  0
 36 38  1  0  0  0
 36 39  1  0  0  0
 42 43  1  0  0  0
 43 44  2  0  0  0
 43 45  1  0  0  0
 43 46  1  0  0  0
 10 12  1  0  0  0
 11 13  1  0  0  0
 17 19  1  0  0  0
 18 20  1  0  0  0
 24 26  1  0  0  0
 25 27  1  0  0  0
 31 33  1  0  0  0
 32 34  1  0  0  0
 38 40  1  0  0  0
 39 41  1  0  0  0
 45 47  1  0  0  0
 46 48  1  0  0  0
M  END
> <minimizedAffinity>
-8.37962

$$$$
3EEB_IHP_A_210


 48 48  0  0  0  0  0  0  0  0999 V2000
  -47.2650   -1.7797    2.6728 C   0  0  0  0  0  0  0  0  0  0  0  0
  -48.2926   -2.2076    1.6372 C   0  0  0  0  0  0  0  0  0  0  0  0
  -48.2574   -3.7193    1.4769 C   0  0  0  0  0  0  0  0  0  0  0  0
  -48.5034   -4.4373    2.8161 C   0  0  0  0  0  0  0  0  0  0  0  0
  -47.4382   -3.9769    3.8165 C   0  0  0  0  0  0  0  0  0  0  0  0
  -47.5378   -2.4653    4.0060 C   0  0  0  0  0  0  0  0  0  0  0  0
  -47.3453   -0.3782    2.8542 O   0  0  0  0  0  0  0  0  0  0  0  0
  -46.1059    0.6134    2.5339 P   0  0  0  0  0  0  0  0  0  0  0  0
  -46.2406    1.6009    3.6665 O   0  0  0  0  0  0  0  0  0  0  0  0
  -46.4057    1.1517    1.1703 O   0  0  0  0  0  0  0  0  0  0  0  0
  -44.8640   -0.2302    2.5791 O   0  0  0  0  0  0  0  0  0  0  0  0
  -47.2148    1.6857    1.2042 H   0  0  0  0  0  0  0  0  0  0  0  0
  -44.7224   -0.5490    3.4842 H   0  0  0  0  0  0  0  0  0  0  0  0
  -49.5925   -1.8326    2.0670 O   0  0  0  0  0  0  0  0  0  0  0  0
  -50.4807   -0.7415    1.2775 P   0  0  0  0  0  0  0  0  0  0  0  0
  -51.4737   -0.3408    2.3250 O   0  0  0  0  0  0  0  0  0  0  0  0
  -49.4832    0.3318    0.9268 O   0  0  0  0  0  0  0  0  0  0  0  0
  -51.0343   -1.4289    0.0577 O   0  0  0  0  0  0  0  0  0  0  0  0
  -49.1544    0.7459    1.7401 H   0  0  0  0  0  0  0  0  0  0  0  0
  -51.6696   -2.1093    0.3303 H   0  0  0  0  0  0  0  0  0  0  0  0
  -49.2033   -4.0934    0.4864 O   0  0  0  0  0  0  0  0  0  0  0  0
  -48.7804   -5.0543   -0.7287 P   0  0  0  0  0  0  0  0  0  0  0  0
  -49.5757   -4.5267   -1.9038 O   0  0  0  0  0  0  0  0  0  0  0  0
  -49.1829   -6.4316   -0.2391 O   0  0  0  0  0  0  0  0  0  0  0  0
  -47.3036   -4.8144   -0.9095 O   0  0  0  0  0  0  0  0  0  0  0  0
  -50.1484   -6.4767   -0.1584 H   0  0  0  0  0  0  0  0  0  0  0  0
  -47.1594   -3.9080   -1.2235 H   0  0  0  0  0  0  0  0  0  0  0  0
  -48.4508   -5.8449    2.5906 O   0  0  0  0  0  0  0  0  0  0  0  0
  -49.6407   -6.8534    3.0079 P   0  0  0  0  0  0  0  0  0  0  0  0
  -50.8975   -6.2181    2.4752 O   0  0  0  0  0  0  0  0  0  0  0  0
  -49.2792   -8.1663    2.3438 O   0  0  0  0  0  0  0  0  0  0  0  0
  -49.5292   -6.9632    4.5232 O   0  0  0  0  0  0  0  0  0  0  0  0
  -49.3568   -8.0740    1.3814 H   0  0  0  0  0  0  0  0  0  0  0  0
  -49.7645   -6.1133    4.9272 H   0  0  0  0  0  0  0  0  0  0  0  0
  -47.5674   -4.6025    5.0916 O   0  0  0  0  0  0  0  0  0  0  0  0
  -46.3795   -5.4483    5.7662 P   0  0  0  0  0  0  0  0  0  0  0  0
  -47.0714   -6.6420    6.3679 O   0  0  0  0  0  0  0  0  0  0  0  0
  -45.3898   -5.8152    4.6960 O   0  0  0  0  0  0  0  0  0  0  0  0
  -45.8583   -4.4680    6.7966 O   0  0  0  0  0  0  0  0  0  0  0  0
  -45.7981   -6.4429    4.0794 H   0  0  0  0  0  0  0  0  0  0  0  0
  -46.5529   -4.2839    7.4481 H   0  0  0  0  0  0  0  0  0  0  0  0
  -46.6163   -1.9903    4.9914 O   0  0  0  0  0  0  0  0  0  0  0  0
  -47.0578   -0.9783    6.1738 P   0  0  0  0  0  0  0  0  0  0  0  0
  -47.1685   -1.7903    7.4365 O   0  0  0  0  0  0  0  0  0  0  0  0
  -45.9138    0.0142    6.2201 O   0  0  0  0  0  0  0  0  0  0  0  0
  -48.3866   -0.4058    5.7528 O   0  0  0  0  0  0  0  0  0  0  0  0
  -45.1032   -0.4396    6.4992 H   0  0  0  0  0  0  0  0  0  0  0  0
  -49.0556   -1.1083    5.7518 H   0  0  0  0  0  0  0  0  0  0  0  0
  1  2  1  0  0  0
  1  6  1  0  0  0
  1  7  1  0  0  0
  2  3  1  0  0  0
  2 14  1  0  0  0
  3  4  1  0  0  0
  3 21  1  0  0  0
  4  5  1  0  0  0
  4 28  1  0  0  0
  5  6  1  0  0  0
  5 35  1  0  0  0
  6 42  1  0  0  0
  7  8  1  0  0  0
  8  9  2  0  0  0
  8 10  1  0  0  0
  8 11  1  0  0  0
 14 15  1  0  0  0
 15 16  2  0  0  0
 15 17  1  0  0  0
 15 18  1  0  0  0
 21 22  1  0  0  0
 22 23  2  0  0  0
 22 24  1  0  0  0
 22 25  1  0  0  0
 28 29  1  0  0  0
 29 30  2  0  0  0
 29 31  1  0  0  0
 29 32  1  0  0  0
 35 36  1  0  0  0
 36 37  2  0  0  0
 36 38  1  0  0  0
 36 39  1  0  0  0
 42 43  1  0  0  0
 43 44  2  0  0  0
 43 45  1  0  0  0
 43 46  1  0  0  0
 10 12  1  0  0  0
 11 13  1  0  0  0
 17 19  1  0  0  0
 18 20  1  0  0  0
 24 26  1  0  0  0
 25 27  1  0  0  0
 31 33  1  0  0  0
 32 34  1  0  0  0
 38 40  1  0  0  0
 39 41  1  0  0  0
 45 47  1  0  0  0
 46 48  1  0  0  0
M  END
> <minimizedAffinity>
-8.27917

$$$$
3EEB_IHP_A_210


 48 48  0  0  0  0  0  0  0  0999 V2000
  -46.9910   -4.2434    4.5969 C   0  0  0  0  0  0  0  0  0  0  0  0
  -46.6753   -4.2520    3.1097 C   0  0  0  0  0  0  0  0  0  0  0  0
  -47.9001   -3.8091    2.3249 C   0  0  0  0  0  0  0  0  0  0  0  0
  -48.3859   -2.4179    2.7696 C   0  0  0  0  0  0  0  0  0  0  0  0
  -48.6965   -2.4686    4.2691 C   0  0  0  0  0  0  0  0  0  0  0  0
  -47.4346   -2.8537    5.0373 C   0  0  0  0  0  0  0  0  0  0  0  0
  -45.8285   -4.6030    5.3198 O   0  0  0  0  0  0  0  0  0  0  0  0
  -45.6711   -6.0355    6.0584 P   0  0  0  0  0  0  0  0  0  0  0  0
  -44.3887   -6.5293    5.4360 O   0  0  0  0  0  0  0  0  0  0  0  0
  -46.9059   -6.7878    5.6733 O   0  0  0  0  0  0  0  0  0  0  0  0
  -45.5861   -5.7478    7.5301 O   0  0  0  0  0  0  0  0  0  0  0  0
  -46.9045   -6.9432    4.7158 H   0  0  0  0  0  0  0  0  0  0  0  0
  -44.7686   -5.2607    7.7177 H   0  0  0  0  0  0  0  0  0  0  0  0
  -45.6171   -3.3457    2.8381 O   0  0  0  0  0  0  0  0  0  0  0  0
  -44.1424   -3.8436    2.4140 P   0  0  0  0  0  0  0  0  0  0  0  0
  -44.4540   -4.8418    1.3414 O   0  0  0  0  0  0  0  0  0  0  0  0
  -43.4798   -2.5855    1.9157 O   0  0  0  0  0  0  0  0  0  0  0  0
  -43.4878   -4.3805    3.6591 O   0  0  0  0  0  0  0  0  0  0  0  0
  -43.9327   -2.2767    1.1155 H   0  0  0  0  0  0  0  0  0  0  0  0
  -43.9454   -5.1874    3.9428 H   0  0  0  0  0  0  0  0  0  0  0  0
  -47.5920   -3.8518    0.9395 O   0  0  0  0  0  0  0  0  0  0  0  0
  -48.4462   -4.7721   -0.0615 P   0  0  0  0  0  0  0  0  0  0  0  0
  -48.9931   -5.8677    0.8286 O   0  0  0  0  0  0  0  0  0  0  0  0
  -47.4198   -5.2190   -1.0841 O   0  0  0  0  0  0  0  0  0  0  0  0
  -49.5440   -3.8713   -0.5660 O   0  0  0  0  0  0  0  0  0  0  0  0
  -46.7640   -5.7908   -0.6553 H   0  0  0  0  0  0  0  0  0  0  0  0
  -50.1406   -3.6479    0.1655 H   0  0  0  0  0  0  0  0  0  0  0  0
  -49.5349   -2.0722    1.9980 O   0  0  0  0  0  0  0  0  0  0  0  0
  -49.6429   -0.7150    1.1303 P   0  0  0  0  0  0  0  0  0  0  0  0
  -49.7630   -1.1724   -0.2992 O   0  0  0  0  0  0  0  0  0  0  0  0
  -50.8772   -0.0173    1.6645 O   0  0  0  0  0  0  0  0  0  0  0  0
  -48.3829    0.0632    1.4870 O   0  0  0  0  0  0  0  0  0  0  0  0
  -51.6663   -0.5288    1.4265 H   0  0  0  0  0  0  0  0  0  0  0  0
  -47.6065   -0.4002    1.1360 H   0  0  0  0  0  0  0  0  0  0  0  0
  -49.1753   -1.2258    4.7789 O   0  0  0  0  0  0  0  0  0  0  0  0
  -50.6407   -1.0571    5.4158 P   0  0  0  0  0  0  0  0  0  0  0  0
  -50.5817    0.2646    6.1337 O   0  0  0  0  0  0  0  0  0  0  0  0
  -51.6491   -1.0807    4.3013 O   0  0  0  0  0  0  0  0  0  0  0  0
  -50.7040   -2.2496    6.3476 O   0  0  0  0  0  0  0  0  0  0  0  0
  -51.5436   -0.2875    3.7529 H   0  0  0  0  0  0  0  0  0  0  0  0
  -50.0255   -2.1593    7.0349 H   0  0  0  0  0  0  0  0  0  0  0  0
  -47.6471   -2.8396    6.4517 O   0  0  0  0  0  0  0  0  0  0  0  0
  -46.9716   -1.7319    7.4181 P   0  0  0  0  0  0  0  0  0  0  0  0
  -45.8016   -1.1460    6.6739 O   0  0  0  0  0  0  0  0  0  0  0  0
  -48.0894   -0.7300    7.6242 O   0  0  0  0  0  0  0  0  0  0  0  0
  -46.5386   -2.4732    8.6565 O   0  0  0  0  0  0  0  0  0  0  0  0
  -48.3011   -0.3034    6.7792 H   0  0  0  0  0  0  0  0  0  0  0  0
  -45.8237   -3.0890    8.4314 H   0  0  0  0  0  0  0  0  0  0  0  0
  1  2  1  0  0  0
  1  6  1  0  0  0
  1  7  1  0  0  0
  2  3  1  0  0  0
  2 14  1  0  0  0
  3  4  1  0  0  0
  3 21  1  0  0  0
  4  5  1  0  0  0
  4 28  1  0  0  0
  5  6  1  0  0  0
  5 35  1  0  0  0
  6 42  1  0  0  0
  7  8  1  0  0  0
  8  9  2  0  0  0
  8 10  1  0  0  0
  8 11  1  0  0  0
 14 15  1  0  0  0
 15 16  2  0  0  0
 15 17  1  0  0  0
 15 18  1  0  0  0
 21 22  1  0  0  0
 22 23  2  0  0  0
 22 24  1  0  0  0
 22 25  1  0  0  0
 28 29  1  0  0  0
 29 30  2  0  0  0
 29 31  1  0  0  0
 29 32  1  0  0  0
 35 36  1  0  0  0
 36 37  2  0  0  0
 36 38  1  0  0  0
 36 39  1  0  0  0
 42 43  1  0  0  0
 43 44  2  0  0  0
 43 45  1  0  0  0
 43 46  1  0  0  0
 10 12  1  0  0  0
 11 13  1  0  0  0
 17 19  1  0  0  0
 18 20  1  0  0  0
 24 26  1  0  0  0
 25 27  1  0  0  0
 31 33  1  0  0  0
 32 34  1  0  0  0
 38 40  1  0  0  0
 39 41  1  0  0  0
 45 47  1  0  0  0
 46 48  1  0  0  0
M  END
> <minimizedAffinity>
-8.26240

$$$$
3EEB_IHP_A_210


 48 48  0  0  0  0  0  0  0  0999 V2000
  -46.7178   -3.9614    4.0619 C   0  0  0  0  0  0  0  0  0  0  0  0
  -46.9281   -2.4646    4.2254 C   0  0  0  0  0  0  0  0  0  0  0  0
  -47.2258   -1.8396    2.8715 C   0  0  0  0  0  0  0  0  0  0  0  0
  -48.4499   -2.4909    2.2034 C   0  0  0  0  0  0  0  0  0  0  0  0
  -48.1812   -3.9921    2.0560 C   0  0  0  0  0  0  0  0  0  0  0  0
  -47.9485   -4.6050    3.4348 C   0  0  0  0  0  0  0  0  0  0  0  0
  -46.4970   -4.5405    5.3344 O   0  0  0  0  0  0  0  0  0  0  0  0
  -45.0279   -4.6215    6.0108 P   0  0  0  0  0  0  0  0  0  0  0  0
  -45.1131   -5.9608    6.7000 O   0  0  0  0  0  0  0  0  0  0  0  0
  -44.9721   -3.4324    6.9175 O   0  0  0  0  0  0  0  0  0  0  0  0
  -44.0369   -4.5557    4.8841 O   0  0  0  0  0  0  0  0  0  0  0  0
  -45.6315   -3.5316    7.6219 H   0  0  0  0  0  0  0  0  0  0  0  0
  -44.1203   -5.3499    4.3334 H   0  0  0  0  0  0  0  0  0  0  0  0
  -48.0343   -2.2258    5.0824 O   0  0  0  0  0  0  0  0  0  0  0  0
  -47.9485   -1.2220    6.3423 P   0  0  0  0  0  0  0  0  0  0  0  0
  -46.4679   -1.0683    6.5098 O   0  0  0  0  0  0  0  0  0  0  0  0
  -48.6478    0.0178    5.8482 O   0  0  0  0  0  0  0  0  0  0  0  0
  -48.6863   -1.8814    7.4772 O   0  0  0  0  0  0  0  0  0  0  0  0
  -48.1390    0.4076    5.1202 H   0  0  0  0  0  0  0  0  0  0  0  0
  -48.2017   -2.6719    7.7619 H   0  0  0  0  0  0  0  0  0  0  0  0
  -47.3903   -0.4399    3.0435 O   0  0  0  0  0  0  0  0  0  0  0  0
  -46.1273    0.5489    2.9668 P   0  0  0  0  0  0  0  0  0  0  0  0
  -44.9729   -0.3625    2.6085 O   0  0  0  0  0  0  0  0  0  0  0  0
  -46.0715    1.1502    4.3574 O   0  0  0  0  0  0  0  0  0  0  0  0
  -46.4519    1.4968    1.8411 O   0  0  0  0  0  0  0  0  0  0  0  0
  -45.8565    0.4571    5.0011 H   0  0  0  0  0  0  0  0  0  0  0  0
  -46.4616    1.0108    1.0017 H   0  0  0  0  0  0  0  0  0  0  0  0
  -48.6648   -1.8609    0.9416 O   0  0  0  0  0  0  0  0  0  0  0  0
  -49.7675   -0.7055    0.7054 P   0  0  0  0  0  0  0  0  0  0  0  0
  -50.5419   -1.1452   -0.5087 O   0  0  0  0  0  0  0  0  0  0  0  0
  -50.5787   -0.6844    1.9849 O   0  0  0  0  0  0  0  0  0  0  0  0
  -48.9511    0.5723    0.5597 O   0  0  0  0  0  0  0  0  0  0  0  0
  -51.0898   -1.5056    2.0573 H   0  0  0  0  0  0  0  0  0  0  0  0
  -48.4406    0.5376   -0.2643 H   0  0  0  0  0  0  0  0  0  0  0  0
  -49.2545   -4.6887    1.4263 O   0  0  0  0  0  0  0  0  0  0  0  0
  -49.1979   -5.1634   -0.1077 P   0  0  0  0  0  0  0  0  0  0  0  0
  -47.7372   -5.0898   -0.4636 O   0  0  0  0  0  0  0  0  0  0  0  0
  -49.7591   -6.5551   -0.1958 O   0  0  0  0  0  0  0  0  0  0  0  0
  -50.0397   -4.1010   -0.7837 O   0  0  0  0  0  0  0  0  0  0  0  0
  -49.1648   -7.1727    0.2585 H   0  0  0  0  0  0  0  0  0  0  0  0
  -49.6117   -3.2365   -0.6826 H   0  0  0  0  0  0  0  0  0  0  0  0
  -47.7700   -6.0223    3.3644 O   0  0  0  0  0  0  0  0  0  0  0  0
  -48.9665   -7.0631    3.6848 P   0  0  0  0  0  0  0  0  0  0  0  0
  -49.1631   -7.9078    2.4545 O   0  0  0  0  0  0  0  0  0  0  0  0
  -48.4241   -7.8586    4.8548 O   0  0  0  0  0  0  0  0  0  0  0  0
  -50.1773   -6.2193    3.9894 O   0  0  0  0  0  0  0  0  0  0  0  0
  -47.6503   -8.3684    4.5682 H   0  0  0  0  0  0  0  0  0  0  0  0
  -50.4533   -5.7485    3.1875 H   0  0  0  0  0  0  0  0  0  0  0  0
  1  2  1  0  0  0
  1  6  1  0  0  0
  1  7  1  0  0  0
  2  3  1  0  0  0
  2 14  1  0  0  0
  3  4  1  0  0  0
  3 21  1  0  0  0
  4  5  1  0  0  0
  4 28  1  0  0  0
  5  6  1  0  0  0
  5 35  1  0  0  0
  6 42  1  0  0  0
  7  8  1  0  0  0
  8  9  2  0  0  0
  8 10  1  0  0  0
  8 11  1  0  0  0
 14 15  1  0  0  0
 15 16  2  0  0  0
 15 17  1  0  0  0
 15 18  1  0  0  0
 21 22  1  0  0  0
 22 23  2  0  0  0
 22 24  1  0  0  0
 22 25  1  0  0  0
 28 29  1  0  0  0
 29 30  2  0  0  0
 29 31  1  0  0  0
 29 32  1  0  0  0
 35 36  1  0  0  0
 36 37  2  0  0  0
 36 38  1  0  0  0
 36 39  1  0  0  0
 42 43  1  0  0  0
 43 44  2  0  0  0
 43 45  1  0  0  0
 43 46  1  0  0  0
 10 12  1  0  0  0
 11 13  1  0  0  0
 17 19  1  0  0  0
 18 20  1  0  0  0
 24 26  1  0  0  0
 25 27  1  0  0  0
 31 33  1  0  0  0
 32 34  1  0  0  0
 38 40  1  0  0  0
 39 41  1  0  0  0
 45 47  1  0  0  0
 46 48  1  0  0  0
M  END
> <minimizedAffinity>
-8.16922

$$$$
3EEB_IHP_A_210


 48 48  0  0  0  0  0  0  0  0999 V2000
  -48.0259   -3.8875    1.8652 C   0  0  0  0  0  0  0  0  0  0  0  0
  -48.0106   -4.7897    3.0888 C   0  0  0  0  0  0  0  0  0  0  0  0
  -46.9284   -4.3267    4.0515 C   0  0  0  0  0  0  0  0  0  0  0  0
  -47.1264   -2.8566    4.4623 C   0  0  0  0  0  0  0  0  0  0  0  0
  -47.1253   -1.9943    3.1959 C   0  0  0  0  0  0  0  0  0  0  0  0
  -48.2602   -2.4391    2.2766 C   0  0  0  0  0  0  0  0  0  0  0  0
  -49.0725   -4.2932    1.0030 O   0  0  0  0  0  0  0  0  0  0  0  0
  -48.7968   -4.9808   -0.4370 P   0  0  0  0  0  0  0  0  0  0  0  0
  -49.7130   -4.1644   -1.3144 O   0  0  0  0  0  0  0  0  0  0  0  0
  -49.1931   -6.4111   -0.2457 O   0  0  0  0  0  0  0  0  0  0  0  0
  -47.3323   -4.8035   -0.7193 O   0  0  0  0  0  0  0  0  0  0  0  0
  -50.1452   -6.4617   -0.0675 H   0  0  0  0  0  0  0  0  0  0  0  0
  -47.1369   -3.8603   -0.8334 H   0  0  0  0  0  0  0  0  0  0  0  0
  -49.2626   -4.7183    3.7539 O   0  0  0  0  0  0  0  0  0  0  0  0
  -50.1812   -6.0204    4.0057 P   0  0  0  0  0  0  0  0  0  0  0  0
  -49.9116   -6.8271    2.7726 O   0  0  0  0  0  0  0  0  0  0  0  0
  -49.6102   -6.6105    5.2690 O   0  0  0  0  0  0  0  0  0  0  0  0
  -51.5928   -5.5302    4.1902 O   0  0  0  0  0  0  0  0  0  0  0  0
  -48.7031   -6.9119    5.1038 H   0  0  0  0  0  0  0  0  0  0  0  0
  -51.9183   -5.1600    3.3548 H   0  0  0  0  0  0  0  0  0  0  0  0
  -46.9132   -5.1990    5.1717 O   0  0  0  0  0  0  0  0  0  0  0  0
  -45.6510   -6.1516    5.4510 P   0  0  0  0  0  0  0  0  0  0  0  0
  -46.2438   -7.3354    6.1850 O   0  0  0  0  0  0  0  0  0  0  0  0
  -44.7283   -5.2739    6.2738 O   0  0  0  0  0  0  0  0  0  0  0  0
  -45.1568   -6.5423    4.0819 O   0  0  0  0  0  0  0  0  0  0  0  0
  -45.1416   -5.0842    7.1306 H   0  0  0  0  0  0  0  0  0  0  0  0
  -45.8201   -7.0995    3.6456 H   0  0  0  0  0  0  0  0  0  0  0  0
  -46.0767   -2.4920    5.3570 O   0  0  0  0  0  0  0  0  0  0  0  0
  -46.3398   -1.9078    6.8391 P   0  0  0  0  0  0  0  0  0  0  0  0
  -44.9707   -1.7408    7.4430 O   0  0  0  0  0  0  0  0  0  0  0  0
  -47.0805   -0.6060    6.6106 O   0  0  0  0  0  0  0  0  0  0  0  0
  -47.2470   -2.9397    7.4967 O   0  0  0  0  0  0  0  0  0  0  0  0
  -46.4854    0.0354    6.1919 H   0  0  0  0  0  0  0  0  0  0  0  0
  -46.7536   -3.7636    7.6335 H   0  0  0  0  0  0  0  0  0  0  0  0
  -47.2842   -0.6041    3.4711 O   0  0  0  0  0  0  0  0  0  0  0  0
  -46.1722    0.4889    3.0830 P   0  0  0  0  0  0  0  0  0  0  0  0
  -44.9898   -0.3291    2.6375 O   0  0  0  0  0  0  0  0  0  0  0  0
  -46.7274    1.3670    1.9966 O   0  0  0  0  0  0  0  0  0  0  0  0
  -45.9594    1.1874    4.4101 O   0  0  0  0  0  0  0  0  0  0  0  0
  -46.8337    0.8480    1.1841 H   0  0  0  0  0  0  0  0  0  0  0  0
  -45.6013    0.5563    5.0538 H   0  0  0  0  0  0  0  0  0  0  0  0
  -48.3558   -1.6151    1.1115 O   0  0  0  0  0  0  0  0  0  0  0  0
  -49.6525   -0.6980    0.8031 P   0  0  0  0  0  0  0  0  0  0  0  0
  -50.6109   -0.8827    1.9491 O   0  0  0  0  0  0  0  0  0  0  0  0
  -49.0762    0.7022    0.7480 O   0  0  0  0  0  0  0  0  0  0  0  0
  -50.2206   -1.2092   -0.4956 O   0  0  0  0  0  0  0  0  0  0  0  0
  -48.7359    0.9465    1.6229 H   0  0  0  0  0  0  0  0  0  0  0  0
  -50.5647   -2.1070   -0.3669 H   0  0  0  0  0  0  0  0  0  0  0  0
  1  2  1  0  0  0
  1  6  1  0  0  0
  1  7  1  0  0  0
  2  3  1  0  0  0
  2 14  1  0  0  0
  3  4  1  0  0  0
  3 21  1  0  0  0
  4  5  1  0  0  0
  4 28  1  0  0  0
  5  6  1  0  0  0
  5 35  1  0  0  0
  6 42  1  0  0  0
  7  8  1  0  0  0
  8  9  2  0  0  0
  8 10  1  0  0  0
  8 11  1  0  0  0
 14 15  1  0  0  0
 15 16  2  0  0  0
 15 17  1  0  0  0
 15 18  1  0  0  0
 21 22  1  0  0  0
 22 23  2  0  0  0
 22 24  1  0  0  0
 22 25  1  0  0  0
 28 29  1  0  0  0
 29 30  2  0  0  0
 29 31  1  0  0  0
 29 32  1  0  0  0
 35 36  1  0  0  0
 36 37  2  0  0  0
 36 38  1  0  0  0
 36 39  1  0  0  0
 42 43  1  0  0  0
 43 44  2  0  0  0
 43 45  1  0  0  0
 43 46  1  0  0  0
 10 12  1  0  0  0
 11 13  1  0  0  0
 17 19  1  0  0  0
 18 20  1  0  0  0
 24 26  1  0  0  0
 25 27  1  0  0  0
 31 33  1  0  0  0
 32 34  1  0  0  0
 38 40  1  0  0  0
 39 41  1  0  0  0
 45 47  1  0  0  0
 46 48  1  0  0  0
M  END
> <minimizedAffinity>
-8.02735

$$$$
