3VJC_ZGA_A_400


 54 56  0  0  0  0  0  0  0  0999 V2000
   15.8754   60.4998   55.1592 O   0  0  0  0  0  0  0  0  0  0  0  0
   20.6612   61.8425   54.8323 O   0  0  0  0  0  0  0  0  0  0  0  0
   17.8656   62.4047   55.2766 O   0  0  0  0  0  0  0  0  0  0  0  0
   18.5911   61.5753   53.2450 O   0  0  0  0  0  0  0  0  0  0  0  0
   16.7147   60.6021   54.0110 C   0  0  0  0  0  0  0  0  0  0  0  0
   18.6147   61.4589   56.0394 C   0  0  0  0  0  0  0  0  0  0  0  0
   17.8530   59.5788   54.0715 C   0  0  0  0  0  0  0  0  0  0  0  0
   19.7028   60.8342   55.1607 C   0  0  0  0  0  0  0  0  0  0  0  0
   17.4355   61.9506   53.9869 C   0  0  0  0  0  0  0  0  0  0  0  0
   19.1269   60.3887   53.8147 C   0  0  0  0  0  0  0  0  0  0  0  0
   15.4277   59.6393   55.1568 H   0  0  0  0  0  0  0  0  0  0  0  0
   21.0718   62.1754   55.6456 H   0  0  0  0  0  0  0  0  0  0  0  0
   20.5790   60.5005   51.9647 O   0  0  0  0  0  0  0  0  0  0  0  0
   20.5871   58.6012   53.0267 O   0  0  0  0  0  0  0  0  0  0  0  0
   20.1659   59.7796   52.8941 C   0  0  0  0  0  0  0  0  0  0  0  0
   20.2708   58.0668   53.7284 H   0  0  0  0  0  0  0  0  0  0  0  0
   19.8433   58.8721   56.5408 O   0  0  0  0  0  0  0  0  0  0  0  0
   21.7042   59.8095   55.8878 O   0  0  0  0  0  0  0  0  0  0  0  0
   20.4564   59.7620   55.9133 C   0  0  0  0  0  0  0  0  0  0  0  0
   18.9064   58.8609   56.5425 H   0  0  0  0  0  0  0  0  0  0  0  0
   20.1341   61.7075   57.8449 O   0  0  0  0  0  0  0  0  0  0  0  0
   18.6212   63.2653   57.5885 O   0  0  0  0  0  0  0  0  0  0  0  0
   19.1567   62.1930   57.2345 C   0  0  0  0  0  0  0  0  0  0  0  0
   20.5140   60.9014   57.5552 H   0  0  0  0  0  0  0  0  0  0  0  0
   16.7159   63.1308   53.3519 C   0  0  0  0  0  0  0  0  0  0  0  0
   15.6310   62.7152   52.3782 C   0  0  0  0  0  0  0  0  0  0  0  0
   17.0897   61.5877   50.6193 C   0  0  0  0  0  0  0  0  0  0  0  0
   16.1770   62.5231   50.9615 C   0  0  0  0  0  0  0  0  0  0  0  0
   15.6345   63.4933   49.9530 C   0  0  0  0  0  0  0  0  0  0  0  0
   17.1473   65.2773   48.9262 C   0  0  0  0  0  0  0  0  0  0  0  0
   16.6544   63.8296   48.8699 C   0  0  0  0  0  0  0  0  0  0  0  0
   15.9590   63.5871   47.5357 C   0  0  0  0  0  0  0  0  0  0  0  0
   18.3207   61.2055   44.8337 C   0  0  0  0  0  0  0  0  0  0  0  0
   17.9106   60.6923   46.0646 C   0  0  0  0  0  0  0  0  0  0  0  0
   17.9787   62.5100   44.4836 C   0  0  0  0  0  0  0  0  0  0  0  0
   17.1348   61.4733   46.9144 C   0  0  0  0  0  0  0  0  0  0  0  0
   17.1918   63.2987   45.3287 C   0  0  0  0  0  0  0  0  0  0  0  0
   16.7737   62.7728   46.5488 C   0  0  0  0  0  0  0  0  0  0  0  0
   15.2115   64.7121   50.5704 O   0  0  0  0  0  0  0  0  0  0  0  0
   13.3958   65.8742   49.1819 C   0  0  0  0  0  0  0  0  0  0  0  0
   13.0514   64.6948   51.2489 O   0  0  0  0  0  0  0  0  0  0  0  0
   13.8200   65.0823   50.3901 C   0  0  0  0  0  0  0  0  0  0  0  0
   17.6560   58.5962   53.0642 O   0  0  0  0  0  0  0  0  0  0  0  0
   15.9646   57.3954   54.1556 O   0  0  0  0  0  0  0  0  0  0  0  0
   16.4097   57.8627   53.1106 C   0  0  0  0  0  0  0  0  0  0  0  0
   15.7205   57.7391   51.8147 C   0  0  0  0  0  0  0  0  0  0  0  0
   14.9260   58.7226   51.4157 C   0  0  0  0  0  0  0  0  0  0  0  0
   12.8291   58.0957   50.3942 C   0  0  0  0  0  0  0  0  0  0  0  0
   14.2323   58.6093   50.0818 C   0  0  0  0  0  0  0  0  0  0  0  0
   14.2185   59.9696   49.3836 C   0  0  0  0  0  0  0  0  0  0  0  0
   14.5772   58.7852   47.1506 C   0  0  0  0  0  0  0  0  0  0  0  0
   13.9486   59.9768   47.8752 C   0  0  0  0  0  0  0  0  0  0  0  0
   11.8618   58.8769   46.8810 C   0  0  0  0  0  0  0  0  0  0  0  0
   12.4466   60.0788   47.6012 C   0  0  0  0  0  0  0  0  0  0  0  0
 27 28  2  0  0  0
 53 54  1  0  0  0
 40 42  1  0  0  0
 48 49  1  0  0  0
 51 52  1  0  0  0
 30 31  1  0  0  0
 41 42  2  0  0  0
 44 45  2  0  0  0
 21 23  1  0  0  0
 17 19  1  0  0  0
 13 15  2  0  0  0
 22 23  2  0  0  0
 18 19  2  0  0  0
 14 15  1  0  0  0
  1  5  1  0  0  0
  2  8  1  0  0  0
 46 47  2  0  0  0
 46 45  1  0  0  0
 47 49  1  0  0  0
 33 34  2  0  0  0
 33 35  1  0  0  0
 34 36  1  0  0  0
 35 37  2  0  0  0
 36 38  2  0  0  0
 37 38  1  0  0  0
 54 52  1  0  0  0
 26 25  1  0  0  0
 26 28  1  0  0  0
 25  9  1  0  0  0
 32 38  1  0  0  0
 32 31  1  0  0  0
 50 49  1  0  0  0
 50 52  1  0  0  0
 39 42  1  0  0  0
 39 29  1  0  0  0
 43 45  1  0  0  0
 43  7  1  0  0  0
  3  6  1  0  0  0
  3  9  1  0  0  0
  4  9  1  0  0  0
  4 10  1  0  0  0
 28 29  1  0  0  0
 23  6  1  0  0  0
 19  8  1  0  0  0
 15 10  1  0  0  0
 31 29  1  0  0  0
  5  7  1  0  0  0
  5  9  1  0  0  0
  6  8  1  0  0  0
  7 10  1  0  0  0
  8 10  1  0  0  0
 21 24  1  0  0  0
 17 20  1  0  0  0
 14 16  1  0  0  0
  1 11  1  0  0  0
  2 12  1  0  0  0
M  END
> <minimizedAffinity>
-10.53181

$$$$
3VJC_ZGA_A_400


 54 56  0  0  0  0  0  0  0  0999 V2000
   16.1511   59.9496   55.0217 O   0  0  0  0  0  0  0  0  0  0  0  0
   20.6966   61.9845   54.9206 O   0  0  0  0  0  0  0  0  0  0  0  0
   17.8434   62.1037   55.3368 O   0  0  0  0  0  0  0  0  0  0  0  0
   18.7089   61.5528   53.2658 O   0  0  0  0  0  0  0  0  0  0  0  0
   16.9825   60.2630   53.9064 C   0  0  0  0  0  0  0  0  0  0  0  0
   18.7107   61.2163   56.0424 C   0  0  0  0  0  0  0  0  0  0  0  0
   18.2557   59.4113   53.9158 C   0  0  0  0  0  0  0  0  0  0  0  0
   19.8896   60.8263   55.1455 C   0  0  0  0  0  0  0  0  0  0  0  0
   17.5011   61.6982   54.0053 C   0  0  0  0  0  0  0  0  0  0  0  0
   19.4026   60.4130   53.7548 C   0  0  0  0  0  0  0  0  0  0  0  0
   15.8325   59.0369   54.9412 H   0  0  0  0  0  0  0  0  0  0  0  0
   21.0437   62.3061   55.7674 H   0  0  0  0  0  0  0  0  0  0  0  0
   20.4790   60.5053   51.6627 O   0  0  0  0  0  0  0  0  0  0  0  0
   21.4703   59.2680   53.1533 O   0  0  0  0  0  0  0  0  0  0  0  0
   20.5312   60.0348   52.8161 C   0  0  0  0  0  0  0  0  0  0  0  0
   21.5013   58.9192   54.0224 H   0  0  0  0  0  0  0  0  0  0  0  0
   20.3385   58.6924   56.1548 O   0  0  0  0  0  0  0  0  0  0  0  0
   21.9596   60.1527   56.0649 O   0  0  0  0  0  0  0  0  0  0  0  0
   20.7798   59.8158   55.8311 C   0  0  0  0  0  0  0  0  0  0  0  0
   19.4488   58.4666   55.9669 H   0  0  0  0  0  0  0  0  0  0  0  0
   19.1820   63.1709   57.3025 O   0  0  0  0  0  0  0  0  0  0  0  0
   19.4001   61.2477   58.3198 O   0  0  0  0  0  0  0  0  0  0  0  0
   19.1246   61.9218   57.3042 C   0  0  0  0  0  0  0  0  0  0  0  0
   18.9693   63.6486   56.5250 H   0  0  0  0  0  0  0  0  0  0  0  0
   16.6273   62.8106   53.4460 C   0  0  0  0  0  0  0  0  0  0  0  0
   16.8922   63.0993   51.9817 C   0  0  0  0  0  0  0  0  0  0  0  0
   15.1099   61.4295   51.2551 C   0  0  0  0  0  0  0  0  0  0  0  0
   15.7537   62.6051   51.0863 C   0  0  0  0  0  0  0  0  0  0  0  0
   15.4102   63.5305   49.9558 C   0  0  0  0  0  0  0  0  0  0  0  0
   17.1933   65.0332   48.9126 C   0  0  0  0  0  0  0  0  0  0  0  0
   16.5437   63.6478   48.9420 C   0  0  0  0  0  0  0  0  0  0  0  0
   15.9319   63.3506   47.5782 C   0  0  0  0  0  0  0  0  0  0  0  0
   18.4705   61.2252   44.8235 C   0  0  0  0  0  0  0  0  0  0  0  0
   18.0422   62.5230   44.5426 C   0  0  0  0  0  0  0  0  0  0  0  0
   18.0560   60.6029   45.9991 C   0  0  0  0  0  0  0  0  0  0  0  0
   17.2362   63.1965   45.4541 C   0  0  0  0  0  0  0  0  0  0  0  0
   17.2526   61.2764   46.9246 C   0  0  0  0  0  0  0  0  0  0  0  0
   16.8425   62.5774   46.6434 C   0  0  0  0  0  0  0  0  0  0  0  0
   15.0884   64.8415   50.4285 O   0  0  0  0  0  0  0  0  0  0  0  0
   12.5720   64.7686   50.9161 C   0  0  0  0  0  0  0  0  0  0  0  0
   13.6553   66.1859   49.3037 O   0  0  0  0  0  0  0  0  0  0  0  0
   13.7465   65.3200   50.1523 C   0  0  0  0  0  0  0  0  0  0  0  0
   18.2166   58.4950   52.8305 O   0  0  0  0  0  0  0  0  0  0  0  0
   18.9342   56.6014   54.0109 O   0  0  0  0  0  0  0  0  0  0  0  0
   18.1820   57.0893   53.1713 C   0  0  0  0  0  0  0  0  0  0  0  0
   17.1687   56.3052   52.4447 C   0  0  0  0  0  0  0  0  0  0  0  0
   16.0323   56.8931   52.0971 C   0  0  0  0  0  0  0  0  0  0  0  0
   14.4072   57.0717   50.3194 C   0  0  0  0  0  0  0  0  0  0  0  0
   14.9993   56.1002   51.3373 C   0  0  0  0  0  0  0  0  0  0  0  0
   15.6543   54.8856   50.6787 C   0  0  0  0  0  0  0  0  0  0  0  0
   16.4965   52.5966   51.4329 C   0  0  0  0  0  0  0  0  0  0  0  0
   15.2829   53.5063   51.2334 C   0  0  0  0  0  0  0  0  0  0  0  0
   12.9973   53.2885   52.3653 C   0  0  0  0  0  0  0  0  0  0  0  0
   14.4642   53.6494   52.5181 C   0  0  0  0  0  0  0  0  0  0  0  0
 27 28  2  0  0  0
 53 54  1  0  0  0
 40 42  1  0  0  0
 48 49  1  0  0  0
 51 52  1  0  0  0
 30 31  1  0  0  0
 41 42  2  0  0  0
 44 45  2  0  0  0
 21 23  1  0  0  0
 17 19  1  0  0  0
 13 15  2  0  0  0
 22 23  2  0  0  0
 18 19  2  0  0  0
 14 15  1  0  0  0
  1  5  1  0  0  0
  2  8  1  0  0  0
 46 47  2  0  0  0
 46 45  1  0  0  0
 47 49  1  0  0  0
 33 34  2  0  0  0
 33 35  1  0  0  0
 34 36  1  0  0  0
 35 37  2  0  0  0
 36 38  2  0  0  0
 37 38  1  0  0  0
 54 52  1  0  0  0
 26 25  1  0  0  0
 26 28  1  0  0  0
 25  9  1  0  0  0
 32 38  1  0  0  0
 32 31  1  0  0  0
 50 49  1  0  0  0
 50 52  1  0  0  0
 39 42  1  0  0  0
 39 29  1  0  0  0
 43 45  1  0  0  0
 43  7  1  0  0  0
  3  6  1  0  0  0
  3  9  1  0  0  0
  4  9  1  0  0  0
  4 10  1  0  0  0
 28 29  1  0  0  0
 23  6  1  0  0  0
 19  8  1  0  0  0
 15 10  1  0  0  0
 31 29  1  0  0  0
  5  7  1  0  0  0
  5  9  1  0  0  0
  6  8  1  0  0  0
  7 10  1  0  0  0
  8 10  1  0  0  0
 21 24  1  0  0  0
 17 20  1  0  0  0
 14 16  1  0  0  0
  1 11  1  0  0  0
  2 12  1  0  0  0
M  END
> <minimizedAffinity>
-10.50262

$$$$
3VJC_ZGA_A_400


 54 56  0  0  0  0  0  0  0  0999 V2000
   15.9548   60.0434   53.7036 O   0  0  0  0  0  0  0  0  0  0  0  0
   20.4825   61.8320   54.7590 O   0  0  0  0  0  0  0  0  0  0  0  0
   17.7019   62.1477   54.0541 O   0  0  0  0  0  0  0  0  0  0  0  0
   19.1468   61.0023   52.6606 O   0  0  0  0  0  0  0  0  0  0  0  0
   17.1524   60.0003   52.9308 C   0  0  0  0  0  0  0  0  0  0  0  0
   18.1496   61.4748   55.2306 C   0  0  0  0  0  0  0  0  0  0  0  0
   18.2217   59.1505   53.6244 C   0  0  0  0  0  0  0  0  0  0  0  0
   19.5033   60.8105   54.9609 C   0  0  0  0  0  0  0  0  0  0  0  0
   17.7884   61.3881   52.8417 C   0  0  0  0  0  0  0  0  0  0  0  0
   19.4745   60.0307   53.6445 C   0  0  0  0  0  0  0  0  0  0  0  0
   15.5668   59.1555   53.7485 H   0  0  0  0  0  0  0  0  0  0  0  0
   20.5562   62.3723   55.5612 H   0  0  0  0  0  0  0  0  0  0  0  0
   21.1324   59.3552   52.1150 O   0  0  0  0  0  0  0  0  0  0  0  0
   21.5252   58.8281   54.1894 O   0  0  0  0  0  0  0  0  0  0  0  0
   20.7973   59.3671   53.3158 C   0  0  0  0  0  0  0  0  0  0  0  0
   21.2651   58.8420   55.0895 H   0  0  0  0  0  0  0  0  0  0  0  0
   19.2652   59.0800   56.6109 O   0  0  0  0  0  0  0  0  0  0  0  0
   21.0541   60.3305   56.6780 O   0  0  0  0  0  0  0  0  0  0  0  0
   19.9630   60.0132   56.1595 C   0  0  0  0  0  0  0  0  0  0  0  0
   18.4506   58.8638   56.2016 H   0  0  0  0  0  0  0  0  0  0  0  0
   19.2260   62.5869   57.0293 O   0  0  0  0  0  0  0  0  0  0  0  0
   17.2012   63.2364   56.5192 O   0  0  0  0  0  0  0  0  0  0  0  0
   18.1928   62.4996   56.3301 C   0  0  0  0  0  0  0  0  0  0  0  0
   19.9534   62.0202   56.8631 H   0  0  0  0  0  0  0  0  0  0  0  0
   17.3138   62.3187   51.7360 C   0  0  0  0  0  0  0  0  0  0  0  0
   16.9712   61.5926   50.4502 C   0  0  0  0  0  0  0  0  0  0  0  0
   14.5094   60.9570   50.2812 C   0  0  0  0  0  0  0  0  0  0  0  0
   15.5167   61.8226   50.0336 C   0  0  0  0  0  0  0  0  0  0  0  0
   15.2835   63.1010   49.2827 C   0  0  0  0  0  0  0  0  0  0  0  0
   16.9945   64.9751   48.9892 C   0  0  0  0  0  0  0  0  0  0  0  0
   16.5367   63.5802   48.5572 C   0  0  0  0  0  0  0  0  0  0  0  0
   16.1911   63.6020   47.0730 C   0  0  0  0  0  0  0  0  0  0  0  0
   18.6949   61.1965   44.5244 C   0  0  0  0  0  0  0  0  0  0  0  0
   18.3089   62.4806   44.1387 C   0  0  0  0  0  0  0  0  0  0  0  0
   18.2489   60.6796   45.7390 C   0  0  0  0  0  0  0  0  0  0  0  0
   17.5134   63.2459   44.9847 C   0  0  0  0  0  0  0  0  0  0  0  0
   17.4560   61.4458   46.5990 C   0  0  0  0  0  0  0  0  0  0  0  0
   17.0883   62.7326   46.2128 C   0  0  0  0  0  0  0  0  0  0  0  0
   14.8353   64.1462   50.1500 O   0  0  0  0  0  0  0  0  0  0  0  0
   13.1903   65.8088   49.0988 C   0  0  0  0  0  0  0  0  0  0  0  0
   12.6089   63.9541   50.5145 O   0  0  0  0  0  0  0  0  0  0  0  0
   13.4723   64.6070   49.9609 C   0  0  0  0  0  0  0  0  0  0  0  0
   18.4385   57.9634   52.8743 O   0  0  0  0  0  0  0  0  0  0  0  0
   19.0917   56.7613   54.7775 O   0  0  0  0  0  0  0  0  0  0  0  0
   18.6497   56.7488   53.6316 C   0  0  0  0  0  0  0  0  0  0  0  0
   18.2789   55.5111   52.9244 C   0  0  0  0  0  0  0  0  0  0  0  0
   17.6584   55.6023   51.7564 C   0  0  0  0  0  0  0  0  0  0  0  0
   17.5354   53.2038   52.0115 C   0  0  0  0  0  0  0  0  0  0  0  0
   17.2928   54.3387   51.0197 C   0  0  0  0  0  0  0  0  0  0  0  0
   15.8389   54.4095   50.5516 C   0  0  0  0  0  0  0  0  0  0  0  0
   14.4115   56.5028   50.8658 C   0  0  0  0  0  0  0  0  0  0  0  0
   14.8519   55.1602   51.4520 C   0  0  0  0  0  0  0  0  0  0  0  0
   13.9493   53.1988   52.8271 C   0  0  0  0  0  0  0  0  0  0  0  0
   13.6548   54.2699   51.7920 C   0  0  0  0  0  0  0  0  0  0  0  0
 27 28  2  0  0  0
 53 54  1  0  0  0
 40 42  1  0  0  0
 48 49  1  0  0  0
 51 52  1  0  0  0
 30 31  1  0  0  0
 41 42  2  0  0  0
 44 45  2  0  0  0
 21 23  1  0  0  0
 17 19  1  0  0  0
 13 15  2  0  0  0
 22 23  2  0  0  0
 18 19  2  0  0  0
 14 15  1  0  0  0
  1  5  1  0  0  0
  2  8  1  0  0  0
 46 47  2  0  0  0
 46 45  1  0  0  0
 47 49  1  0  0  0
 33 34  2  0  0  0
 33 35  1  0  0  0
 34 36  1  0  0  0
 35 37  2  0  0  0
 36 38  2  0  0  0
 37 38  1  0  0  0
 54 52  1  0  0  0
 26 25  1  0  0  0
 26 28  1  0  0  0
 25  9  1  0  0  0
 32 38  1  0  0  0
 32 31  1  0  0  0
 50 49  1  0  0  0
 50 52  1  0  0  0
 39 42  1  0  0  0
 39 29  1  0  0  0
 43 45  1  0  0  0
 43  7  1  0  0  0
  3  6  1  0  0  0
  3  9  1  0  0  0
  4  9  1  0  0  0
  4 10  1  0  0  0
 28 29  1  0  0  0
 23  6  1  0  0  0
 19  8  1  0  0  0
 15 10  1  0  0  0
 31 29  1  0  0  0
  5  7  1  0  0  0
  5  9  1  0  0  0
  6  8  1  0  0  0
  7 10  1  0  0  0
  8 10  1  0  0  0
 21 24  1  0  0  0
 17 20  1  0  0  0
 14 16  1  0  0  0
  1 11  1  0  0  0
  2 12  1  0  0  0
M  END
> <minimizedAffinity>
-10.49082

$$$$
3VJC_ZGA_A_400


 54 56  0  0  0  0  0  0  0  0999 V2000
   15.9607   60.0524   53.8978 O   0  0  0  0  0  0  0  0  0  0  0  0
   20.5225   61.8504   54.7755 O   0  0  0  0  0  0  0  0  0  0  0  0
   17.7081   62.1613   54.2178 O   0  0  0  0  0  0  0  0  0  0  0  0
   19.0900   61.0653   52.7243 O   0  0  0  0  0  0  0  0  0  0  0  0
   17.1187   60.0398   53.0658 C   0  0  0  0  0  0  0  0  0  0  0  0
   18.2185   61.4613   55.3522 C   0  0  0  0  0  0  0  0  0  0  0  0
   18.2271   59.1810   53.6826 C   0  0  0  0  0  0  0  0  0  0  0  0
   19.5617   60.8157   54.9981 C   0  0  0  0  0  0  0  0  0  0  0  0
   17.7397   61.4348   52.9826 C   0  0  0  0  0  0  0  0  0  0  0  0
   19.4732   60.0708   53.6642 C   0  0  0  0  0  0  0  0  0  0  0  0
   15.5818   59.1604   53.9380 H   0  0  0  0  0  0  0  0  0  0  0  0
   20.6321   62.3700   55.5873 H   0  0  0  0  0  0  0  0  0  0  0  0
   21.0335   59.4041   52.0319 O   0  0  0  0  0  0  0  0  0  0  0  0
   21.5800   58.9149   54.0806 O   0  0  0  0  0  0  0  0  0  0  0  0
   20.7826   59.4273   53.2528 C   0  0  0  0  0  0  0  0  0  0  0  0
   21.3830   58.9371   54.9964 H   0  0  0  0  0  0  0  0  0  0  0  0
   19.4393   59.0123   56.5813 O   0  0  0  0  0  0  0  0  0  0  0  0
   21.1774   60.3322   56.6533 O   0  0  0  0  0  0  0  0  0  0  0  0
   20.0861   59.9910   56.1506 C   0  0  0  0  0  0  0  0  0  0  0  0
   18.6230   58.7790   56.1847 H   0  0  0  0  0  0  0  0  0  0  0  0
   19.3757   62.5360   57.1231 O   0  0  0  0  0  0  0  0  0  0  0  0
   17.3221   63.1786   56.7344 O   0  0  0  0  0  0  0  0  0  0  0  0
   18.3090   62.4570   56.4753 C   0  0  0  0  0  0  0  0  0  0  0  0
   20.0986   61.9812   56.9049 H   0  0  0  0  0  0  0  0  0  0  0  0
   17.2041   62.3903   51.9271 C   0  0  0  0  0  0  0  0  0  0  0  0
   17.4125   61.8930   50.5104 C   0  0  0  0  0  0  0  0  0  0  0  0
   15.8570   63.4721   49.2536 C   0  0  0  0  0  0  0  0  0  0  0  0
   16.2204   62.2202   49.6082 C   0  0  0  0  0  0  0  0  0  0  0  0
   15.4414   61.0205   49.1538 C   0  0  0  0  0  0  0  0  0  0  0  0
   14.6713   59.6473   47.1421 C   0  0  0  0  0  0  0  0  0  0  0  0
   15.4691   60.8556   47.6378 C   0  0  0  0  0  0  0  0  0  0  0  0
   16.9334   60.6835   47.2518 C   0  0  0  0  0  0  0  0  0  0  0  0
   18.2828   63.0157   43.8917 C   0  0  0  0  0  0  0  0  0  0  0  0
   18.8637   61.7808   44.1822 C   0  0  0  0  0  0  0  0  0  0  0  0
   17.2683   63.5085   44.7097 C   0  0  0  0  0  0  0  0  0  0  0  0
   18.4011   61.0372   45.2625 C   0  0  0  0  0  0  0  0  0  0  0  0
   16.7918   62.7631   45.7927 C   0  0  0  0  0  0  0  0  0  0  0  0
   17.3668   61.5243   46.0661 C   0  0  0  0  0  0  0  0  0  0  0  0
   14.0768   61.0886   49.5767 O   0  0  0  0  0  0  0  0  0  0  0  0
   13.1833   61.9648   51.8148 C   0  0  0  0  0  0  0  0  0  0  0  0
   14.1381   59.7915   51.4315 O   0  0  0  0  0  0  0  0  0  0  0  0
   13.8241   60.8801   50.9904 C   0  0  0  0  0  0  0  0  0  0  0  0
   18.4149   58.0160   52.8910 O   0  0  0  0  0  0  0  0  0  0  0  0
   18.7872   56.7034   54.7970 O   0  0  0  0  0  0  0  0  0  0  0  0
   18.5103   56.7593   53.6016 C   0  0  0  0  0  0  0  0  0  0  0  0
   18.2351   55.5670   52.7817 C   0  0  0  0  0  0  0  0  0  0  0  0
   18.5132   55.6029   51.4859 C   0  0  0  0  0  0  0  0  0  0  0  0
   19.5831   54.0482   49.9787 C   0  0  0  0  0  0  0  0  0  0  0  0
   18.2503   54.3790   50.6455 C   0  0  0  0  0  0  0  0  0  0  0  0
   17.7360   53.2409   51.5277 C   0  0  0  0  0  0  0  0  0  0  0  0
   15.6678   52.1686   52.5720 C   0  0  0  0  0  0  0  0  0  0  0  0
   16.2825   52.8011   51.3221 C   0  0  0  0  0  0  0  0  0  0  0  0
   14.2392   54.3028   51.6717 C   0  0  0  0  0  0  0  0  0  0  0  0
   15.4391   53.9678   50.8037 C   0  0  0  0  0  0  0  0  0  0  0  0
 27 28  2  0  0  0
 53 54  1  0  0  0
 40 42  1  0  0  0
 48 49  1  0  0  0
 51 52  1  0  0  0
 30 31  1  0  0  0
 41 42  2  0  0  0
 44 45  2  0  0  0
 21 23  1  0  0  0
 17 19  1  0  0  0
 13 15  2  0  0  0
 22 23  2  0  0  0
 18 19  2  0  0  0
 14 15  1  0  0  0
  1  5  1  0  0  0
  2  8  1  0  0  0
 46 47  2  0  0  0
 46 45  1  0  0  0
 47 49  1  0  0  0
 33 34  2  0  0  0
 33 35  1  0  0  0
 34 36  1  0  0  0
 35 37  2  0  0  0
 36 38  2  0  0  0
 37 38  1  0  0  0
 54 52  1  0  0  0
 26 25  1  0  0  0
 26 28  1  0  0  0
 25  9  1  0  0  0
 32 38  1  0  0  0
 32 31  1  0  0  0
 50 49  1  0  0  0
 50 52  1  0  0  0
 39 42  1  0  0  0
 39 29  1  0  0  0
 43 45  1  0  0  0
 43  7  1  0  0  0
  3  6  1  0  0  0
  3  9  1  0  0  0
  4  9  1  0  0  0
  4 10  1  0  0  0
 28 29  1  0  0  0
 23  6  1  0  0  0
 19  8  1  0  0  0
 15 10  1  0  0  0
 31 29  1  0  0  0
  5  7  1  0  0  0
  5  9  1  0  0  0
  6  8  1  0  0  0
  7 10  1  0  0  0
  8 10  1  0  0  0
 21 24  1  0  0  0
 17 20  1  0  0  0
 14 16  1  0  0  0
  1 11  1  0  0  0
  2 12  1  0  0  0
M  END
> <minimizedAffinity>
-10.17986

$$$$
3VJC_ZGA_A_400


 54 56  0  0  0  0  0  0  0  0999 V2000
   14.0898   62.3107   52.9612 O   0  0  0  0  0  0  0  0  0  0  0  0
   18.6091   61.8540   55.0059 O   0  0  0  0  0  0  0  0  0  0  0  0
   16.2918   63.3865   54.2251 O   0  0  0  0  0  0  0  0  0  0  0  0
   17.5672   62.2908   52.6396 O   0  0  0  0  0  0  0  0  0  0  0  0
   15.3500   62.0724   52.3380 C   0  0  0  0  0  0  0  0  0  0  0  0
   16.2388   62.2604   55.1007 C   0  0  0  0  0  0  0  0  0  0  0  0
   15.9201   60.7137   52.7568 C   0  0  0  0  0  0  0  0  0  0  0  0
   17.3386   61.2628   54.7242 C   0  0  0  0  0  0  0  0  0  0  0  0
   16.3945   63.0752   52.8298 C   0  0  0  0  0  0  0  0  0  0  0  0
   17.3509   61.0096   53.2151 C   0  0  0  0  0  0  0  0  0  0  0  0
   13.4417   61.6659   52.6371 H   0  0  0  0  0  0  0  0  0  0  0  0
   18.6740   62.0442   55.9548 H   0  0  0  0  0  0  0  0  0  0  0  0
   19.4935   60.5455   52.3561 O   0  0  0  0  0  0  0  0  0  0  0  0
   18.2885   58.7934   52.8179 O   0  0  0  0  0  0  0  0  0  0  0  0
   18.4351   60.0427   52.7818 C   0  0  0  0  0  0  0  0  0  0  0  0
   17.4894   58.4246   53.1395 H   0  0  0  0  0  0  0  0  0  0  0  0
   16.3425   59.1804   55.3917 O   0  0  0  0  0  0  0  0  0  0  0  0
   18.1166   59.8661   56.4643 O   0  0  0  0  0  0  0  0  0  0  0  0
   17.2528   60.0167   55.5749 C   0  0  0  0  0  0  0  0  0  0  0  0
   15.7076   59.3192   54.7167 H   0  0  0  0  0  0  0  0  0  0  0  0
   15.5324   62.4219   57.3602 O   0  0  0  0  0  0  0  0  0  0  0  0
   17.2907   63.5832   56.7761 O   0  0  0  0  0  0  0  0  0  0  0  0
   16.3640   62.7907   56.5022 C   0  0  0  0  0  0  0  0  0  0  0  0
   14.8484   61.8265   57.1241 H   0  0  0  0  0  0  0  0  0  0  0  0
   16.4884   64.4138   52.1133 C   0  0  0  0  0  0  0  0  0  0  0  0
   17.4303   64.3909   50.9258 C   0  0  0  0  0  0  0  0  0  0  0  0
   17.2697   65.3674   48.5778 C   0  0  0  0  0  0  0  0  0  0  0  0
   16.7068   64.7111   49.6158 C   0  0  0  0  0  0  0  0  0  0  0  0
   15.2766   64.2580   49.5727 C   0  0  0  0  0  0  0  0  0  0  0  0
   13.6721   62.5629   48.5343 C   0  0  0  0  0  0  0  0  0  0  0  0
   15.0117   63.2943   48.4206 C   0  0  0  0  0  0  0  0  0  0  0  0
   16.1443   62.2750   48.4450 C   0  0  0  0  0  0  0  0  0  0  0  0
   18.0788   61.5173   44.6722 C   0  0  0  0  0  0  0  0  0  0  0  0
   18.0083   60.5243   45.6497 C   0  0  0  0  0  0  0  0  0  0  0  0
   17.5345   62.7742   44.9274 C   0  0  0  0  0  0  0  0  0  0  0  0
   17.3645   60.7858   46.8544 C   0  0  0  0  0  0  0  0  0  0  0  0
   16.8782   63.0424   46.1327 C   0  0  0  0  0  0  0  0  0  0  0  0
   16.7988   62.0403   47.0969 C   0  0  0  0  0  0  0  0  0  0  0  0
   14.3778   65.3642   49.4532 O   0  0  0  0  0  0  0  0  0  0  0  0
   11.9852   66.1293   49.9683 C   0  0  0  0  0  0  0  0  0  0  0  0
   13.3394   64.7055   51.3544 O   0  0  0  0  0  0  0  0  0  0  0  0
   13.2286   65.3655   50.3393 C   0  0  0  0  0  0  0  0  0  0  0  0
   15.9085   59.8346   51.6406 O   0  0  0  0  0  0  0  0  0  0  0  0
   15.2053   57.8815   52.7292 O   0  0  0  0  0  0  0  0  0  0  0  0
   15.1043   58.6385   51.7672 C   0  0  0  0  0  0  0  0  0  0  0  0
   14.1541   58.4169   50.6638 C   0  0  0  0  0  0  0  0  0  0  0  0
   14.4491   58.8886   49.4603 C   0  0  0  0  0  0  0  0  0  0  0  0
   12.1332   59.1422   48.8234 C   0  0  0  0  0  0  0  0  0  0  0  0
   13.4885   58.6488   48.3233 C   0  0  0  0  0  0  0  0  0  0  0  0
   13.9613   59.3943   47.0748 C   0  0  0  0  0  0  0  0  0  0  0  0
   15.1491   57.6661   45.6187 C   0  0  0  0  0  0  0  0  0  0  0  0
   13.9580   58.6164   45.7546 C   0  0  0  0  0  0  0  0  0  0  0  0
   12.4872   57.1772   44.2320 C   0  0  0  0  0  0  0  0  0  0  0  0
   12.6262   57.8866   45.5672 C   0  0  0  0  0  0  0  0  0  0  0  0
 27 28  2  0  0  0
 53 54  1  0  0  0
 40 42  1  0  0  0
 48 49  1  0  0  0
 51 52  1  0  0  0
 30 31  1  0  0  0
 41 42  2  0  0  0
 44 45  2  0  0  0
 21 23  1  0  0  0
 17 19  1  0  0  0
 13 15  2  0  0  0
 22 23  2  0  0  0
 18 19  2  0  0  0
 14 15  1  0  0  0
  1  5  1  0  0  0
  2  8  1  0  0  0
 46 47  2  0  0  0
 46 45  1  0  0  0
 47 49  1  0  0  0
 33 34  2  0  0  0
 33 35  1  0  0  0
 34 36  1  0  0  0
 35 37  2  0  0  0
 36 38  2  0  0  0
 37 38  1  0  0  0
 54 52  1  0  0  0
 26 25  1  0  0  0
 26 28  1  0  0  0
 25  9  1  0  0  0
 32 38  1  0  0  0
 32 31  1  0  0  0
 50 49  1  0  0  0
 50 52  1  0  0  0
 39 42  1  0  0  0
 39 29  1  0  0  0
 43 45  1  0  0  0
 43  7  1  0  0  0
  3  6  1  0  0  0
  3  9  1  0  0  0
  4  9  1  0  0  0
  4 10  1  0  0  0
 28 29  1  0  0  0
 23  6  1  0  0  0
 19  8  1  0  0  0
 15 10  1  0  0  0
 31 29  1  0  0  0
  5  7  1  0  0  0
  5  9  1  0  0  0
  6  8  1  0  0  0
  7 10  1  0  0  0
  8 10  1  0  0  0
 21 24  1  0  0  0
 17 20  1  0  0  0
 14 16  1  0  0  0
  1 11  1  0  0  0
  2 12  1  0  0  0
M  END
> <minimizedAffinity>
-10.02861

$$$$
3VJC_ZGA_A_400


 54 56  0  0  0  0  0  0  0  0999 V2000
   16.0449   60.3526   55.3858 O   0  0  0  0  0  0  0  0  0  0  0  0
   20.7726   61.8384   54.8817 O   0  0  0  0  0  0  0  0  0  0  0  0
   17.9978   62.2938   55.5307 O   0  0  0  0  0  0  0  0  0  0  0  0
   18.6166   61.6374   53.4029 O   0  0  0  0  0  0  0  0  0  0  0  0
   16.8109   60.5619   54.2014 C   0  0  0  0  0  0  0  0  0  0  0  0
   18.8115   61.3133   56.1741 C   0  0  0  0  0  0  0  0  0  0  0  0
   17.9722   59.5665   54.1169 C   0  0  0  0  0  0  0  0  0  0  0  0
   19.8575   60.7840   55.1881 C   0  0  0  0  0  0  0  0  0  0  0  0
   17.5002   61.9265   54.2377 C   0  0  0  0  0  0  0  0  0  0  0  0
   19.2108   60.4258   53.8482 C   0  0  0  0  0  0  0  0  0  0  0  0
   15.6162   59.4834   55.3442 H   0  0  0  0  0  0  0  0  0  0  0  0
   21.2246   62.1200   55.6924 H   0  0  0  0  0  0  0  0  0  0  0  0
   20.4966   60.6901   51.8935 O   0  0  0  0  0  0  0  0  0  0  0  0
   20.7048   58.7604   52.8773 O   0  0  0  0  0  0  0  0  0  0  0  0
   20.2048   59.9140   52.8245 C   0  0  0  0  0  0  0  0  0  0  0  0
   20.4797   58.1839   53.5809 H   0  0  0  0  0  0  0  0  0  0  0  0
   20.1495   58.5890   56.1211 O   0  0  0  0  0  0  0  0  0  0  0  0
   21.8905   59.9023   56.0087 O   0  0  0  0  0  0  0  0  0  0  0  0
   20.6777   59.6784   55.8113 C   0  0  0  0  0  0  0  0  0  0  0  0
   19.2370   58.4486   55.9614 H   0  0  0  0  0  0  0  0  0  0  0  0
   19.9846   63.0716   57.2522 O   0  0  0  0  0  0  0  0  0  0  0  0
   19.3177   61.4026   58.4976 O   0  0  0  0  0  0  0  0  0  0  0  0
   19.4091   61.9698   57.3877 C   0  0  0  0  0  0  0  0  0  0  0  0
   20.0370   63.4720   56.4066 H   0  0  0  0  0  0  0  0  0  0  0  0
   16.7187   63.1320   53.7377 C   0  0  0  0  0  0  0  0  0  0  0  0
   16.8229   63.3314   52.2386 C   0  0  0  0  0  0  0  0  0  0  0  0
   14.3155   63.7844   52.2191 C   0  0  0  0  0  0  0  0  0  0  0  0
   15.4461   63.4190   51.5762 C   0  0  0  0  0  0  0  0  0  0  0  0
   15.4319   63.0313   50.1263 C   0  0  0  0  0  0  0  0  0  0  0  0
   15.5981   60.6175   50.9460 C   0  0  0  0  0  0  0  0  0  0  0  0
   14.9990   61.5832   49.9211 C   0  0  0  0  0  0  0  0  0  0  0  0
   15.4679   61.1892   48.5255 C   0  0  0  0  0  0  0  0  0  0  0  0
   12.6095   58.7093   46.4688 C   0  0  0  0  0  0  0  0  0  0  0  0
   12.1943   59.6226   47.4383 C   0  0  0  0  0  0  0  0  0  0  0  0
   13.9662   58.5844   46.1771 C   0  0  0  0  0  0  0  0  0  0  0  0
   13.1329   60.4249   48.0782 C   0  0  0  0  0  0  0  0  0  0  0  0
   14.9153   59.3933   46.8099 C   0  0  0  0  0  0  0  0  0  0  0  0
   14.4902   60.3134   47.7653 C   0  0  0  0  0  0  0  0  0  0  0  0
   16.7156   63.2099   49.5216 O   0  0  0  0  0  0  0  0  0  0  0  0
   16.7450   64.3941   47.2473 C   0  0  0  0  0  0  0  0  0  0  0  0
   17.1673   65.4240   49.3787 O   0  0  0  0  0  0  0  0  0  0  0  0
   16.9042   64.4208   48.7443 C   0  0  0  0  0  0  0  0  0  0  0  0
   17.7355   58.6571   53.0511 O   0  0  0  0  0  0  0  0  0  0  0  0
   18.5234   56.7775   54.2087 O   0  0  0  0  0  0  0  0  0  0  0  0
   17.7416   57.2499   53.3875 C   0  0  0  0  0  0  0  0  0  0  0  0
   16.7315   56.4443   52.6803 C   0  0  0  0  0  0  0  0  0  0  0  0
   15.8193   57.0636   51.9441 C   0  0  0  0  0  0  0  0  0  0  0  0
   14.2671   57.1513   50.0958 C   0  0  0  0  0  0  0  0  0  0  0  0
   14.7942   56.2428   51.2036 C   0  0  0  0  0  0  0  0  0  0  0  0
   15.4401   54.9676   50.6605 C   0  0  0  0  0  0  0  0  0  0  0  0
   15.8923   52.7375   51.8180 C   0  0  0  0  0  0  0  0  0  0  0  0
   14.8564   53.6329   51.1360 C   0  0  0  0  0  0  0  0  0  0  0  0
   13.5041   52.8859   53.1771 C   0  0  0  0  0  0  0  0  0  0  0  0
   13.6366   53.8705   52.0288 C   0  0  0  0  0  0  0  0  0  0  0  0
 27 28  2  0  0  0
 53 54  1  0  0  0
 40 42  1  0  0  0
 48 49  1  0  0  0
 51 52  1  0  0  0
 30 31  1  0  0  0
 41 42  2  0  0  0
 44 45  2  0  0  0
 21 23  1  0  0  0
 17 19  1  0  0  0
 13 15  2  0  0  0
 22 23  2  0  0  0
 18 19  2  0  0  0
 14 15  1  0  0  0
  1  5  1  0  0  0
  2  8  1  0  0  0
 46 47  2  0  0  0
 46 45  1  0  0  0
 47 49  1  0  0  0
 33 34  2  0  0  0
 33 35  1  0  0  0
 34 36  1  0  0  0
 35 37  2  0  0  0
 36 38  2  0  0  0
 37 38  1  0  0  0
 54 52  1  0  0  0
 26 25  1  0  0  0
 26 28  1  0  0  0
 25  9  1  0  0  0
 32 38  1  0  0  0
 32 31  1  0  0  0
 50 49  1  0  0  0
 50 52  1  0  0  0
 39 42  1  0  0  0
 39 29  1  0  0  0
 43 45  1  0  0  0
 43  7  1  0  0  0
  3  6  1  0  0  0
  3  9  1  0  0  0
  4  9  1  0  0  0
  4 10  1  0  0  0
 28 29  1  0  0  0
 23  6  1  0  0  0
 19  8  1  0  0  0
 15 10  1  0  0  0
 31 29  1  0  0  0
  5  7  1  0  0  0
  5  9  1  0  0  0
  6  8  1  0  0  0
  7 10  1  0  0  0
  8 10  1  0  0  0
 21 24  1  0  0  0
 17 20  1  0  0  0
 14 16  1  0  0  0
  1 11  1  0  0  0
  2 12  1  0  0  0
M  END
> <minimizedAffinity>
-9.76450

$$$$
3VJC_ZGA_A_400


 54 56  0  0  0  0  0  0  0  0999 V2000
   17.7051   62.1922   54.2753 O   0  0  0  0  0  0  0  0  0  0  0  0
   18.5452   57.5339   52.7237 O   0  0  0  0  0  0  0  0  0  0  0  0
   18.7527   60.4002   52.4601 O   0  0  0  0  0  0  0  0  0  0  0  0
   16.6852   59.3678   52.4925 O   0  0  0  0  0  0  0  0  0  0  0  0
   16.7942   61.2328   53.7433 C   0  0  0  0  0  0  0  0  0  0  0  0
   19.2421   59.6705   53.5850 C   0  0  0  0  0  0  0  0  0  0  0  0
   16.6604   60.0269   54.6786 C   0  0  0  0  0  0  0  0  0  0  0  0
   18.3667   58.4353   53.8185 C   0  0  0  0  0  0  0  0  0  0  0  0
   17.3382   60.6320   52.4466 C   0  0  0  0  0  0  0  0  0  0  0  0
   16.8822   58.8051   53.7825 C   0  0  0  0  0  0  0  0  0  0  0  0
   17.3431   62.5614   55.0960 H   0  0  0  0  0  0  0  0  0  0  0  0
   19.4730   57.2539   52.6834 H   0  0  0  0  0  0  0  0  0  0  0  0
   15.5711   57.0305   52.9607 O   0  0  0  0  0  0  0  0  0  0  0  0
   15.5910   57.2325   55.1272 O   0  0  0  0  0  0  0  0  0  0  0  0
   15.9662   57.6150   53.9885 C   0  0  0  0  0  0  0  0  0  0  0  0
   15.8933   57.6780   55.8942 H   0  0  0  0  0  0  0  0  0  0  0  0
   18.4147   58.0485   56.1896 O   0  0  0  0  0  0  0  0  0  0  0  0
   19.5689   56.7141   54.9030 O   0  0  0  0  0  0  0  0  0  0  0  0
   18.8037   57.6890   55.0578 C   0  0  0  0  0  0  0  0  0  0  0  0
   17.8405   58.7839   56.2760 H   0  0  0  0  0  0  0  0  0  0  0  0
   21.4804   59.2605   54.2573 O   0  0  0  0  0  0  0  0  0  0  0  0
   21.0431   59.1552   52.1175 O   0  0  0  0  0  0  0  0  0  0  0  0
   20.6810   59.3406   53.2991 C   0  0  0  0  0  0  0  0  0  0  0  0
   21.1786   59.4048   55.1326 H   0  0  0  0  0  0  0  0  0  0  0  0
   17.0523   61.3680   51.1464 C   0  0  0  0  0  0  0  0  0  0  0  0
   15.6910   62.0344   51.1243 C   0  0  0  0  0  0  0  0  0  0  0  0
   14.6251   61.0851   49.0135 C   0  0  0  0  0  0  0  0  0  0  0  0
   15.1250   62.1320   49.7057 C   0  0  0  0  0  0  0  0  0  0  0  0
   15.1917   63.5065   49.1067 C   0  0  0  0  0  0  0  0  0  0  0  0
   17.1925   65.0754   48.8589 C   0  0  0  0  0  0  0  0  0  0  0  0
   16.5262   63.7705   48.4168 C   0  0  0  0  0  0  0  0  0  0  0  0
   16.2308   63.8380   46.9232 C   0  0  0  0  0  0  0  0  0  0  0  0
   18.6598   61.1129   44.6375 C   0  0  0  0  0  0  0  0  0  0  0  0
   18.1214   60.7297   45.8663 C   0  0  0  0  0  0  0  0  0  0  0  0
   18.4250   62.3984   44.1540 C   0  0  0  0  0  0  0  0  0  0  0  0
   17.3265   61.6203   46.5797 C   0  0  0  0  0  0  0  0  0  0  0  0
   17.6199   63.2968   44.8613 C   0  0  0  0  0  0  0  0  0  0  0  0
   17.0736   62.9005   46.0797 C   0  0  0  0  0  0  0  0  0  0  0  0
   14.9841   64.5209   50.0934 O   0  0  0  0  0  0  0  0  0  0  0  0
   12.5641   64.6397   50.9330 C   0  0  0  0  0  0  0  0  0  0  0  0
   13.5984   66.1685   49.3919 O   0  0  0  0  0  0  0  0  0  0  0  0
   13.6892   65.1760   50.0884 C   0  0  0  0  0  0  0  0  0  0  0  0
   15.3596   60.0170   55.2499 O   0  0  0  0  0  0  0  0  0  0  0  0
   15.8486   61.5542   56.9505 O   0  0  0  0  0  0  0  0  0  0  0  0
   15.0369   61.1080   56.1438 C   0  0  0  0  0  0  0  0  0  0  0  0
   13.6723   61.6420   55.9947 C   0  0  0  0  0  0  0  0  0  0  0  0
   13.1869   62.4322   56.9422 C   0  0  0  0  0  0  0  0  0  0  0  0
   11.8639   63.9119   55.5662 C   0  0  0  0  0  0  0  0  0  0  0  0
   11.7974   62.9961   56.7858 C   0  0  0  0  0  0  0  0  0  0  0  0
   10.7893   61.8595   56.6131 C   0  0  0  0  0  0  0  0  0  0  0  0
    8.3190   62.4312   56.3158 C   0  0  0  0  0  0  0  0  0  0  0  0
    9.4256   62.0274   57.2917 C   0  0  0  0  0  0  0  0  0  0  0  0
    9.8373   59.5281   57.6617 C   0  0  0  0  0  0  0  0  0  0  0  0
    9.0586   60.7646   58.0740 C   0  0  0  0  0  0  0  0  0  0  0  0
 27 28  2  0  0  0
 53 54  1  0  0  0
 40 42  1  0  0  0
 48 49  1  0  0  0
 51 52  1  0  0  0
 30 31  1  0  0  0
 41 42  2  0  0  0
 44 45  2  0  0  0
 21 23  1  0  0  0
 17 19  1  0  0  0
 13 15  2  0  0  0
 22 23  2  0  0  0
 18 19  2  0  0  0
 14 15  1  0  0  0
  1  5  1  0  0  0
  2  8  1  0  0  0
 46 47  2  0  0  0
 46 45  1  0  0  0
 47 49  1  0  0  0
 33 34  2  0  0  0
 33 35  1  0  0  0
 34 36  1  0  0  0
 35 37  2  0  0  0
 36 38  2  0  0  0
 37 38  1  0  0  0
 54 52  1  0  0  0
 26 25  1  0  0  0
 26 28  1  0  0  0
 25  9  1  0  0  0
 32 38  1  0  0  0
 32 31  1  0  0  0
 50 49  1  0  0  0
 50 52  1  0  0  0
 39 42  1  0  0  0
 39 29  1  0  0  0
 43 45  1  0  0  0
 43  7  1  0  0  0
  3  6  1  0  0  0
  3  9  1  0  0  0
  4  9  1  0  0  0
  4 10  1  0  0  0
 28 29  1  0  0  0
 23  6  1  0  0  0
 19  8  1  0  0  0
 15 10  1  0  0  0
 31 29  1  0  0  0
  5  7  1  0  0  0
  5  9  1  0  0  0
  6  8  1  0  0  0
  7 10  1  0  0  0
  8 10  1  0  0  0
 21 24  1  0  0  0
 17 20  1  0  0  0
 14 16  1  0  0  0
  1 11  1  0  0  0
  2 12  1  0  0  0
M  END
> <minimizedAffinity>
-9.74847

$$$$
3VJC_ZGA_A_400


 54 56  0  0  0  0  0  0  0  0999 V2000
   16.0398   58.8751   54.3288 O   0  0  0  0  0  0  0  0  0  0  0  0
   20.1308   61.7170   54.3321 O   0  0  0  0  0  0  0  0  0  0  0  0
   17.3240   61.2650   53.8364 O   0  0  0  0  0  0  0  0  0  0  0  0
   18.9293   60.0189   52.7356 O   0  0  0  0  0  0  0  0  0  0  0  0
   17.1951   58.8069   53.4958 C   0  0  0  0  0  0  0  0  0  0  0  0
   17.9386   61.1056   55.1147 C   0  0  0  0  0  0  0  0  0  0  0  0
   18.4386   58.4421   54.3125 C   0  0  0  0  0  0  0  0  0  0  0  0
   19.3911   60.6532   54.9355 C   0  0  0  0  0  0  0  0  0  0  0  0
   17.5270   60.1833   52.9181 C   0  0  0  0  0  0  0  0  0  0  0  0
   19.4823   59.4976   53.9364 C   0  0  0  0  0  0  0  0  0  0  0  0
   15.8456   57.9941   54.6851 H   0  0  0  0  0  0  0  0  0  0  0  0
   20.1167   62.4921   54.9152 H   0  0  0  0  0  0  0  0  0  0  0  0
   21.4194   59.3198   52.6098 O   0  0  0  0  0  0  0  0  0  0  0  0
   21.5386   58.3375   54.5478 O   0  0  0  0  0  0  0  0  0  0  0  0
   20.9025   59.0211   53.7043 C   0  0  0  0  0  0  0  0  0  0  0  0
   21.1420   58.1178   55.3678 H   0  0  0  0  0  0  0  0  0  0  0  0
   21.1953   60.8084   56.5150 O   0  0  0  0  0  0  0  0  0  0  0  0
   19.3926   59.7296   57.1106 O   0  0  0  0  0  0  0  0  0  0  0  0
   20.0439   60.3878   56.2723 C   0  0  0  0  0  0  0  0  0  0  0  0
   21.6607   61.2999   55.8671 H   0  0  0  0  0  0  0  0  0  0  0  0
   18.4771   62.6116   56.8676 O   0  0  0  0  0  0  0  0  0  0  0  0
   17.0270   63.2880   55.3773 O   0  0  0  0  0  0  0  0  0  0  0  0
   17.8039   62.4207   55.8311 C   0  0  0  0  0  0  0  0  0  0  0  0
   19.0512   61.9417   57.1832 H   0  0  0  0  0  0  0  0  0  0  0  0
   16.8350   60.5997   51.6291 C   0  0  0  0  0  0  0  0  0  0  0  0
   15.3289   60.4368   51.6802 C   0  0  0  0  0  0  0  0  0  0  0  0
   14.5751   58.3442   50.4369 C   0  0  0  0  0  0  0  0  0  0  0  0
   14.7942   59.6770   50.4640 C   0  0  0  0  0  0  0  0  0  0  0  0
   14.5499   60.5353   49.2573 C   0  0  0  0  0  0  0  0  0  0  0  0
   12.1130   61.2806   49.4349 C   0  0  0  0  0  0  0  0  0  0  0  0
   13.5858   61.6803   49.5500 C   0  0  0  0  0  0  0  0  0  0  0  0
   13.8918   62.7702   48.5295 C   0  0  0  0  0  0  0  0  0  0  0  0
   17.3501   65.1357   49.5272 C   0  0  0  0  0  0  0  0  0  0  0  0
   16.4511   64.7342   50.5158 C   0  0  0  0  0  0  0  0  0  0  0  0
   17.1154   64.7838   48.1997 C   0  0  0  0  0  0  0  0  0  0  0  0
   15.3499   63.9570   50.1733 C   0  0  0  0  0  0  0  0  0  0  0  0
   16.0152   63.9954   47.8483 C   0  0  0  0  0  0  0  0  0  0  0  0
   15.1314   63.5859   48.8440 C   0  0  0  0  0  0  0  0  0  0  0  0
   14.0281   59.7721   48.1660 O   0  0  0  0  0  0  0  0  0  0  0  0
   16.1038   60.3859   46.7912 C   0  0  0  0  0  0  0  0  0  0  0  0
   14.7387   58.4299   46.4866 O   0  0  0  0  0  0  0  0  0  0  0  0
   14.9509   59.4645   47.0890 C   0  0  0  0  0  0  0  0  0  0  0  0
   18.8723   57.1380   53.9518 O   0  0  0  0  0  0  0  0  0  0  0  0
   17.4931   55.9212   55.4048 O   0  0  0  0  0  0  0  0  0  0  0  0
   17.9849   56.0452   54.2861 C   0  0  0  0  0  0  0  0  0  0  0  0
   17.7126   55.1134   53.1784 C   0  0  0  0  0  0  0  0  0  0  0  0
   18.1619   55.4103   51.9668 C   0  0  0  0  0  0  0  0  0  0  0  0
   19.1959   54.4150   50.0243 C   0  0  0  0  0  0  0  0  0  0  0  0
   17.9017   54.4511   50.8330 C   0  0  0  0  0  0  0  0  0  0  0  0
   17.5169   53.0793   51.3880 C   0  0  0  0  0  0  0  0  0  0  0  0
   15.4869   52.1385   52.6177 C   0  0  0  0  0  0  0  0  0  0  0  0
   16.0403   52.6796   51.2982 C   0  0  0  0  0  0  0  0  0  0  0  0
   14.1738   54.3717   51.7519 C   0  0  0  0  0  0  0  0  0  0  0  0
   15.2023   53.8445   50.7672 C   0  0  0  0  0  0  0  0  0  0  0  0
 27 28  2  0  0  0
 53 54  1  0  0  0
 40 42  1  0  0  0
 48 49  1  0  0  0
 51 52  1  0  0  0
 30 31  1  0  0  0
 41 42  2  0  0  0
 44 45  2  0  0  0
 21 23  1  0  0  0
 17 19  1  0  0  0
 13 15  2  0  0  0
 22 23  2  0  0  0
 18 19  2  0  0  0
 14 15  1  0  0  0
  1  5  1  0  0  0
  2  8  1  0  0  0
 46 47  2  0  0  0
 46 45  1  0  0  0
 47 49  1  0  0  0
 33 34  2  0  0  0
 33 35  1  0  0  0
 34 36  1  0  0  0
 35 37  2  0  0  0
 36 38  2  0  0  0
 37 38  1  0  0  0
 54 52  1  0  0  0
 26 25  1  0  0  0
 26 28  1  0  0  0
 25  9  1  0  0  0
 32 38  1  0  0  0
 32 31  1  0  0  0
 50 49  1  0  0  0
 50 52  1  0  0  0
 39 42  1  0  0  0
 39 29  1  0  0  0
 43 45  1  0  0  0
 43  7  1  0  0  0
  3  6  1  0  0  0
  3  9  1  0  0  0
  4  9  1  0  0  0
  4 10  1  0  0  0
 28 29  1  0  0  0
 23  6  1  0  0  0
 19  8  1  0  0  0
 15 10  1  0  0  0
 31 29  1  0  0  0
  5  7  1  0  0  0
  5  9  1  0  0  0
  6  8  1  0  0  0
  7 10  1  0  0  0
  8 10  1  0  0  0
 21 24  1  0  0  0
 17 20  1  0  0  0
 14 16  1  0  0  0
  1 11  1  0  0  0
  2 12  1  0  0  0
M  END
> <minimizedAffinity>
-9.35464

$$$$
3VJC_ZGA_A_400


 54 56  0  0  0  0  0  0  0  0999 V2000
   11.8590   60.7939   53.0338 O   0  0  0  0  0  0  0  0  0  0  0  0
   11.5476   65.0795   55.5538 O   0  0  0  0  0  0  0  0  0  0  0  0
   11.2211   63.4726   53.1790 O   0  0  0  0  0  0  0  0  0  0  0  0
   13.3123   63.7802   54.1136 O   0  0  0  0  0  0  0  0  0  0  0  0
   12.8971   61.6630   53.4816 C   0  0  0  0  0  0  0  0  0  0  0  0
   10.6001   63.1743   54.4291 C   0  0  0  0  0  0  0  0  0  0  0  0
   12.9479   61.7128   55.0118 C   0  0  0  0  0  0  0  0  0  0  0  0
   11.4960   63.6512   55.5764 C   0  0  0  0  0  0  0  0  0  0  0  0
   12.6037   63.1084   53.0776 C   0  0  0  0  0  0  0  0  0  0  0  0
   12.9434   63.2041   55.3592 C   0  0  0  0  0  0  0  0  0  0  0  0
   12.0628   59.8834   53.2990 H   0  0  0  0  0  0  0  0  0  0  0  0
   10.6560   65.4374   55.6867 H   0  0  0  0  0  0  0  0  0  0  0  0
   14.4317   64.7726   56.2912 O   0  0  0  0  0  0  0  0  0  0  0  0
   14.1256   62.9760   57.4802 O   0  0  0  0  0  0  0  0  0  0  0  0
   13.8811   63.6664   56.4569 C   0  0  0  0  0  0  0  0  0  0  0  0
   13.7070   62.1457   57.5962 H   0  0  0  0  0  0  0  0  0  0  0  0
   10.6496   62.0763   57.1817 O   0  0  0  0  0  0  0  0  0  0  0  0
   10.6898   64.1892   57.7316 O   0  0  0  0  0  0  0  0  0  0  0  0
   10.9093   63.2693   56.9156 C   0  0  0  0  0  0  0  0  0  0  0  0
   10.8248   61.4066   56.5502 H   0  0  0  0  0  0  0  0  0  0  0  0
    9.1799   65.0630   54.2138 O   0  0  0  0  0  0  0  0  0  0  0  0
    8.2266   63.1324   54.5956 O   0  0  0  0  0  0  0  0  0  0  0  0
    9.2471   63.8301   54.4121 C   0  0  0  0  0  0  0  0  0  0  0  0
    9.9632   65.5593   54.0795 H   0  0  0  0  0  0  0  0  0  0  0  0
   13.0520   63.5667   51.6982 C   0  0  0  0  0  0  0  0  0  0  0  0
   14.4270   64.2047   51.6984 C   0  0  0  0  0  0  0  0  0  0  0  0
   14.7437   65.2992   49.4192 C   0  0  0  0  0  0  0  0  0  0  0  0
   15.0133   64.3004   50.2880 C   0  0  0  0  0  0  0  0  0  0  0  0
   15.9129   63.1588   49.9138 C   0  0  0  0  0  0  0  0  0  0  0  0
   14.2382   61.5370   48.8692 C   0  0  0  0  0  0  0  0  0  0  0  0
   15.4468   62.4490   48.6467 C   0  0  0  0  0  0  0  0  0  0  0  0
   16.6260   61.6119   48.1656 C   0  0  0  0  0  0  0  0  0  0  0  0
   17.8990   62.6911   44.1950 C   0  0  0  0  0  0  0  0  0  0  0  0
   17.1673   63.5853   44.9772 C   0  0  0  0  0  0  0  0  0  0  0  0
   18.2041   61.4278   44.6970 C   0  0  0  0  0  0  0  0  0  0  0  0
   16.7807   63.2218   46.2627 C   0  0  0  0  0  0  0  0  0  0  0  0
   17.8264   61.0578   45.9916 C   0  0  0  0  0  0  0  0  0  0  0  0
   17.1096   61.9625   46.7713 C   0  0  0  0  0  0  0  0  0  0  0  0
   16.0034   62.1939   50.9656 O   0  0  0  0  0  0  0  0  0  0  0  0
   17.8573   60.7936   52.0509 C   0  0  0  0  0  0  0  0  0  0  0  0
   17.7972   63.1939   51.9191 O   0  0  0  0  0  0  0  0  0  0  0  0
   17.2658   62.1271   51.6784 C   0  0  0  0  0  0  0  0  0  0  0  0
   14.1385   61.0826   55.4635 O   0  0  0  0  0  0  0  0  0  0  0  0
   13.1058   59.5190   56.8716 O   0  0  0  0  0  0  0  0  0  0  0  0
   13.9914   59.7722   56.0589 C   0  0  0  0  0  0  0  0  0  0  0  0
   14.9738   58.7749   55.6008 C   0  0  0  0  0  0  0  0  0  0  0  0
   15.4048   58.8292   54.3482 C   0  0  0  0  0  0  0  0  0  0  0  0
   16.3829   56.6924   54.9053 C   0  0  0  0  0  0  0  0  0  0  0  0
   16.4240   57.8220   53.8793 C   0  0  0  0  0  0  0  0  0  0  0  0
   16.0772   57.3471   52.4679 C   0  0  0  0  0  0  0  0  0  0  0  0
   15.7641   55.3694   50.8840 C   0  0  0  0  0  0  0  0  0  0  0  0
   16.5409   55.9414   52.0711 C   0  0  0  0  0  0  0  0  0  0  0  0
   18.5163   54.8250   50.8861 C   0  0  0  0  0  0  0  0  0  0  0  0
   18.0504   55.9271   51.8208 C   0  0  0  0  0  0  0  0  0  0  0  0
 27 28  2  0  0  0
 53 54  1  0  0  0
 40 42  1  0  0  0
 48 49  1  0  0  0
 51 52  1  0  0  0
 30 31  1  0  0  0
 41 42  2  0  0  0
 44 45  2  0  0  0
 21 23  1  0  0  0
 17 19  1  0  0  0
 13 15  2  0  0  0
 22 23  2  0  0  0
 18 19  2  0  0  0
 14 15  1  0  0  0
  1  5  1  0  0  0
  2  8  1  0  0  0
 46 47  2  0  0  0
 46 45  1  0  0  0
 47 49  1  0  0  0
 33 34  2  0  0  0
 33 35  1  0  0  0
 34 36  1  0  0  0
 35 37  2  0  0  0
 36 38  2  0  0  0
 37 38  1  0  0  0
 54 52  1  0  0  0
 26 25  1  0  0  0
 26 28  1  0  0  0
 25  9  1  0  0  0
 32 38  1  0  0  0
 32 31  1  0  0  0
 50 49  1  0  0  0
 50 52  1  0  0  0
 39 42  1  0  0  0
 39 29  1  0  0  0
 43 45  1  0  0  0
 43  7  1  0  0  0
  3  6  1  0  0  0
  3  9  1  0  0  0
  4  9  1  0  0  0
  4 10  1  0  0  0
 28 29  1  0  0  0
 23  6  1  0  0  0
 19  8  1  0  0  0
 15 10  1  0  0  0
 31 29  1  0  0  0
  5  7  1  0  0  0
  5  9  1  0  0  0
  6  8  1  0  0  0
  7 10  1  0  0  0
  8 10  1  0  0  0
 21 24  1  0  0  0
 17 20  1  0  0  0
 14 16  1  0  0  0
  1 11  1  0  0  0
  2 12  1  0  0  0
M  END
> <minimizedAffinity>
-9.28942

$$$$
3VJC_ZGA_A_400


 54 56  0  0  0  0  0  0  0  0999 V2000
   11.8627   60.5642   53.4764 O   0  0  0  0  0  0  0  0  0  0  0  0
   11.5487   65.0413   55.6374 O   0  0  0  0  0  0  0  0  0  0  0  0
   11.1125   63.2174   53.4439 O   0  0  0  0  0  0  0  0  0  0  0  0
   13.2539   63.6907   54.1732 O   0  0  0  0  0  0  0  0  0  0  0  0
   12.8906   61.5106   53.7610 C   0  0  0  0  0  0  0  0  0  0  0  0
   10.6065   63.0070   54.7619 C   0  0  0  0  0  0  0  0  0  0  0  0
   13.0591   61.6985   55.2720 C   0  0  0  0  0  0  0  0  0  0  0  0
   11.5664   63.6198   55.7864 C   0  0  0  0  0  0  0  0  0  0  0  0
   12.4985   62.9013   53.2605 C   0  0  0  0  0  0  0  0  0  0  0  0
   13.0117   63.2135   55.4897 C   0  0  0  0  0  0  0  0  0  0  0  0
   12.1293   59.6898   53.8008 H   0  0  0  0  0  0  0  0  0  0  0  0
   10.6543   65.3736   55.8123 H   0  0  0  0  0  0  0  0  0  0  0  0
   14.4393   64.9482   56.1942 O   0  0  0  0  0  0  0  0  0  0  0  0
   14.4175   63.1946   57.4825 O   0  0  0  0  0  0  0  0  0  0  0  0
   14.0100   63.8090   56.4627 C   0  0  0  0  0  0  0  0  0  0  0  0
   14.0891   62.3387   57.6762 H   0  0  0  0  0  0  0  0  0  0  0  0
   10.8934   62.1634   57.5753 O   0  0  0  0  0  0  0  0  0  0  0  0
   10.9393   64.3130   57.9567 O   0  0  0  0  0  0  0  0  0  0  0  0
   11.1054   63.3355   57.1972 C   0  0  0  0  0  0  0  0  0  0  0  0
   11.0265   61.4490   56.9838 H   0  0  0  0  0  0  0  0  0  0  0  0
    9.0845   64.8073   54.4918 O   0  0  0  0  0  0  0  0  0  0  0  0
    8.2598   62.8882   55.1383 O   0  0  0  0  0  0  0  0  0  0  0  0
    9.2269   63.6039   54.8005 C   0  0  0  0  0  0  0  0  0  0  0  0
    9.8294   65.3183   54.2426 H   0  0  0  0  0  0  0  0  0  0  0  0
   12.8148   63.2525   51.8146 C   0  0  0  0  0  0  0  0  0  0  0  0
   14.1065   62.6335   51.3185 C   0  0  0  0  0  0  0  0  0  0  0  0
   13.7571   63.3481   48.8977 C   0  0  0  0  0  0  0  0  0  0  0  0
   14.0863   62.4034   49.8056 C   0  0  0  0  0  0  0  0  0  0  0  0
   14.4398   61.0058   49.3881 C   0  0  0  0  0  0  0  0  0  0  0  0
   14.6996   59.6195   47.2582 C   0  0  0  0  0  0  0  0  0  0  0  0
   14.9792   60.9491   47.9625 C   0  0  0  0  0  0  0  0  0  0  0  0
   16.4856   61.1562   48.0654 C   0  0  0  0  0  0  0  0  0  0  0  0
   18.4730   62.1961   44.3885 C   0  0  0  0  0  0  0  0  0  0  0  0
   18.7289   60.9773   45.0177 C   0  0  0  0  0  0  0  0  0  0  0  0
   17.5791   63.0948   44.9669 C   0  0  0  0  0  0  0  0  0  0  0  0
   18.0635   60.6553   46.1957 C   0  0  0  0  0  0  0  0  0  0  0  0
   16.8998   62.7750   46.1466 C   0  0  0  0  0  0  0  0  0  0  0  0
   17.1497   61.5495   46.7596 C   0  0  0  0  0  0  0  0  0  0  0  0
   13.3141   60.1284   49.4812 O   0  0  0  0  0  0  0  0  0  0  0  0
   14.5788   58.4027   50.8947 C   0  0  0  0  0  0  0  0  0  0  0  0
   12.2867   59.0645   51.1956 O   0  0  0  0  0  0  0  0  0  0  0  0
   13.3252   59.1718   50.5724 C   0  0  0  0  0  0  0  0  0  0  0  0
   14.3100   61.1594   55.6762 O   0  0  0  0  0  0  0  0  0  0  0  0
   14.0429   58.8343   55.5462 O   0  0  0  0  0  0  0  0  0  0  0  0
   14.6392   59.8423   55.1758 C   0  0  0  0  0  0  0  0  0  0  0  0
   15.7279   59.8158   54.1841 C   0  0  0  0  0  0  0  0  0  0  0  0
   16.5116   58.7482   54.1221 C   0  0  0  0  0  0  0  0  0  0  0  0
   17.9240   60.1677   52.7716 C   0  0  0  0  0  0  0  0  0  0  0  0
   17.6161   58.7082   53.0965 C   0  0  0  0  0  0  0  0  0  0  0  0
   18.8263   57.9639   53.6618 C   0  0  0  0  0  0  0  0  0  0  0  0
   19.3830   57.4581   56.1015 C   0  0  0  0  0  0  0  0  0  0  0  0
   19.4191   58.4904   54.9732 C   0  0  0  0  0  0  0  0  0  0  0  0
   21.1579   60.2830   55.5351 C   0  0  0  0  0  0  0  0  0  0  0  0
   20.8325   59.0293   54.7427 C   0  0  0  0  0  0  0  0  0  0  0  0
 27 28  2  0  0  0
 53 54  1  0  0  0
 40 42  1  0  0  0
 48 49  1  0  0  0
 51 52  1  0  0  0
 30 31  1  0  0  0
 41 42  2  0  0  0
 44 45  2  0  0  0
 21 23  1  0  0  0
 17 19  1  0  0  0
 13 15  2  0  0  0
 22 23  2  0  0  0
 18 19  2  0  0  0
 14 15  1  0  0  0
  1  5  1  0  0  0
  2  8  1  0  0  0
 46 47  2  0  0  0
 46 45  1  0  0  0
 47 49  1  0  0  0
 33 34  2  0  0  0
 33 35  1  0  0  0
 34 36  1  0  0  0
 35 37  2  0  0  0
 36 38  2  0  0  0
 37 38  1  0  0  0
 54 52  1  0  0  0
 26 25  1  0  0  0
 26 28  1  0  0  0
 25  9  1  0  0  0
 32 38  1  0  0  0
 32 31  1  0  0  0
 50 49  1  0  0  0
 50 52  1  0  0  0
 39 42  1  0  0  0
 39 29  1  0  0  0
 43 45  1  0  0  0
 43  7  1  0  0  0
  3  6  1  0  0  0
  3  9  1  0  0  0
  4  9  1  0  0  0
  4 10  1  0  0  0
 28 29  1  0  0  0
 23  6  1  0  0  0
 19  8  1  0  0  0
 15 10  1  0  0  0
 31 29  1  0  0  0
  5  7  1  0  0  0
  5  9  1  0  0  0
  6  8  1  0  0  0
  7 10  1  0  0  0
  8 10  1  0  0  0
 21 24  1  0  0  0
 17 20  1  0  0  0
 14 16  1  0  0  0
  1 11  1  0  0  0
  2 12  1  0  0  0
M  END
> <minimizedAffinity>
-8.79615

$$$$
