2UXI_G50_A_1211


 24 25  0  0  0  0  0  0  0  0999 V2000
   14.4371   34.1525   -1.1437 C   0  0  0  0  0  0  0  0  0  0  0  0
   13.9948   32.9926   -1.7644 C   0  0  0  0  0  0  0  0  0  0  0  0
   14.1989   32.7875   -3.1119 C   0  0  0  0  0  0  0  0  0  0  0  0
   14.8461   33.7692   -3.8514 C   0  0  0  0  0  0  0  0  0  0  0  0
   15.3062   34.9622   -3.2563 C   0  0  0  0  0  0  0  0  0  0  0  0
   15.0955   35.1421   -1.8754 C   0  0  0  0  0  0  0  0  0  0  0  0
   15.5011   36.2508   -1.2019 O   0  0  0  0  0  0  0  0  0  0  0  0
   13.3548   32.0517   -1.0610 O   0  0  0  0  0  0  0  0  0  0  0  0
   15.0025   33.5035   -5.1632 O   0  0  0  0  0  0  0  0  0  0  0  0
   15.9466   36.9384   -1.6567 H   0  0  0  0  0  0  0  0  0  0  0  0
   13.2062   32.1724   -0.1437 H   0  0  0  0  0  0  0  0  0  0  0  0
   14.6821   32.6983   -5.5196 H   0  0  0  0  0  0  0  0  0  0  0  0
   16.0299   36.0196   -4.1471 C   0  0  0  0  0  0  0  0  0  0  0  0
   15.3528   36.6505   -4.9588 O   0  0  0  0  0  0  0  0  0  0  0  0
   17.5532   36.3373   -4.0540 C   0  0  0  0  0  0  0  0  0  0  0  0
   17.7669   37.8319   -3.4850 C   0  0  0  0  0  0  0  0  0  0  0  0
   19.2172   38.3100   -3.7585 C   0  0  0  0  0  0  0  0  0  0  0  0
   19.4667   39.6863   -3.7352 C   0  0  0  0  0  0  0  0  0  0  0  0
   20.7482   40.1702   -3.9418 C   0  0  0  0  0  0  0  0  0  0  0  0
   21.7920   39.3011   -4.2023 C   0  0  0  0  0  0  0  0  0  0  0  0
   21.5620   37.9137   -4.2366 C   0  0  0  0  0  0  0  0  0  0  0  0
   20.2739   37.4112   -4.0087 C   0  0  0  0  0  0  0  0  0  0  0  0
   23.0261   39.8461   -4.4005 O   0  0  0  0  0  0  0  0  0  0  0  0
   23.1381   40.7759   -4.3697 H   0  0  0  0  0  0  0  0  0  0  0  0
  2  1  2  0  0  0
  3  2  1  0  0  0
  3  4  2  0  0  0
  5  4  1  0  0  0
  6  5  2  0  0  0
  1  6  1  0  0  0
  5 13  1  0  0  0
 13 15  1  0  0  0
 15 16  1  0  0  0
  6  7  1  0  0  0
 13 14  2  0  0  0
 16 17  1  0  0  0
 17 18  1  0  0  0
 18 19  2  0  0  0
 19 20  1  0  0  0
 20 21  2  0  0  0
 17 22  2  0  0  0
 21 22  1  0  0  0
 20 23  1  0  0  0
  2  8  1  0  0  0
  4  9  1  0  0  0
  7 10  1  0  0  0
 23 24  1  0  0  0
  8 11  1  0  0  0
  9 12  1  0  0  0
M  END
> <minimizedAffinity>
-7.79983

$$$$
2UXI_G50_A_1211


 24 25  0  0  0  0  0  0  0  0999 V2000
   15.6858   30.4196   -7.1389 C   0  0  0  0  0  0  0  0  0  0  0  0
   14.6341   30.6233   -8.0214 C   0  0  0  0  0  0  0  0  0  0  0  0
   13.3887   30.9988   -7.5656 C   0  0  0  0  0  0  0  0  0  0  0  0
   13.1925   31.1595   -6.1999 C   0  0  0  0  0  0  0  0  0  0  0  0
   14.2360   30.9576   -5.2728 C   0  0  0  0  0  0  0  0  0  0  0  0
   15.5019   30.5858   -5.7654 C   0  0  0  0  0  0  0  0  0  0  0  0
   16.5761   30.3700   -4.9610 O   0  0  0  0  0  0  0  0  0  0  0  0
   14.8124   30.4524   -9.3362 O   0  0  0  0  0  0  0  0  0  0  0  0
   11.9482   31.5190   -5.8276 O   0  0  0  0  0  0  0  0  0  0  0  0
   16.4943   30.4711   -4.0331 H   0  0  0  0  0  0  0  0  0  0  0  0
   15.6515   30.1973   -9.6659 H   0  0  0  0  0  0  0  0  0  0  0  0
   11.2828   31.6432   -6.4755 H   0  0  0  0  0  0  0  0  0  0  0  0
   13.9451   31.1610   -3.7532 C   0  0  0  0  0  0  0  0  0  0  0  0
   12.9228   30.6562   -3.2889 O   0  0  0  0  0  0  0  0  0  0  0  0
   14.8827   31.9468   -2.7869 C   0  0  0  0  0  0  0  0  0  0  0  0
   14.0983   33.2178   -2.1763 C   0  0  0  0  0  0  0  0  0  0  0  0
   14.8229   34.5341   -2.5623 C   0  0  0  0  0  0  0  0  0  0  0  0
   14.8544   34.8901   -3.9148 C   0  0  0  0  0  0  0  0  0  0  0  0
   15.4603   36.0697   -4.3154 C   0  0  0  0  0  0  0  0  0  0  0  0
   16.0669   36.8963   -3.3874 C   0  0  0  0  0  0  0  0  0  0  0  0
   16.0526   36.5543   -2.0231 C   0  0  0  0  0  0  0  0  0  0  0  0
   15.4247   35.3739   -1.6033 C   0  0  0  0  0  0  0  0  0  0  0  0
   16.6481   38.0391   -3.8520 O   0  0  0  0  0  0  0  0  0  0  0  0
   16.6366   38.2312   -4.7690 H   0  0  0  0  0  0  0  0  0  0  0  0
  2  1  2  0  0  0
  3  2  1  0  0  0
  3  4  2  0  0  0
  5  4  1  0  0  0
  6  5  2  0  0  0
  1  6  1  0  0  0
  5 13  1  0  0  0
 13 15  1  0  0  0
 15 16  1  0  0  0
  6  7  1  0  0  0
 13 14  2  0  0  0
 16 17  1  0  0  0
 17 18  1  0  0  0
 18 19  2  0  0  0
 19 20  1  0  0  0
 20 21  2  0  0  0
 17 22  2  0  0  0
 21 22  1  0  0  0
 20 23  1  0  0  0
  2  8  1  0  0  0
  4  9  1  0  0  0
  7 10  1  0  0  0
 23 24  1  0  0  0
  8 11  1  0  0  0
  9 12  1  0  0  0
M  END
> <minimizedAffinity>
-7.61034

$$$$
2UXI_G50_A_1211


 24 25  0  0  0  0  0  0  0  0999 V2000
   15.6190   30.5731   -7.1057 C   0  0  0  0  0  0  0  0  0  0  0  0
   14.5943   30.6382   -8.0396 C   0  0  0  0  0  0  0  0  0  0  0  0
   13.3031   30.9301   -7.6562 C   0  0  0  0  0  0  0  0  0  0  0  0
   13.0335   31.1472   -6.3110 C   0  0  0  0  0  0  0  0  0  0  0  0
   14.0478   31.0855   -5.3329 C   0  0  0  0  0  0  0  0  0  0  0  0
   15.3609   30.7970   -5.7525 C   0  0  0  0  0  0  0  0  0  0  0  0
   16.4124   30.7176   -4.8948 O   0  0  0  0  0  0  0  0  0  0  0  0
   14.8447   30.4123   -9.3342 O   0  0  0  0  0  0  0  0  0  0  0  0
   11.7483   31.4187   -6.0099 O   0  0  0  0  0  0  0  0  0  0  0  0
   16.2812   30.8613   -3.9782 H   0  0  0  0  0  0  0  0  0  0  0  0
   15.7159   30.2123   -9.6150 H   0  0  0  0  0  0  0  0  0  0  0  0
   11.1044   31.4504   -6.6899 H   0  0  0  0  0  0  0  0  0  0  0  0
   13.6735   31.3452   -3.8404 C   0  0  0  0  0  0  0  0  0  0  0  0
   13.0142   30.4874   -3.2533 O   0  0  0  0  0  0  0  0  0  0  0  0
   14.1033   32.6156   -3.0455 C   0  0  0  0  0  0  0  0  0  0  0  0
   14.0976   32.2993   -1.4633 C   0  0  0  0  0  0  0  0  0  0  0  0
   15.3869   31.5356   -1.0622 C   0  0  0  0  0  0  0  0  0  0  0  0
   15.2696   30.5016   -0.1272 C   0  0  0  0  0  0  0  0  0  0  0  0
   16.3815   29.7643    0.2460 C   0  0  0  0  0  0  0  0  0  0  0  0
   17.6265   30.0594   -0.2787 C   0  0  0  0  0  0  0  0  0  0  0  0
   17.7681   31.0992   -1.2155 C   0  0  0  0  0  0  0  0  0  0  0  0
   16.6472   31.8385   -1.6164 C   0  0  0  0  0  0  0  0  0  0  0  0
   18.6778   29.2964    0.1361 O   0  0  0  0  0  0  0  0  0  0  0  0
   18.5422   28.6126    0.7622 H   0  0  0  0  0  0  0  0  0  0  0  0
  2  1  2  0  0  0
  3  2  1  0  0  0
  3  4  2  0  0  0
  5  4  1  0  0  0
  6  5  2  0  0  0
  1  6  1  0  0  0
  5 13  1  0  0  0
 13 15  1  0  0  0
 15 16  1  0  0  0
  6  7  1  0  0  0
 13 14  2  0  0  0
 16 17  1  0  0  0
 17 18  1  0  0  0
 18 19  2  0  0  0
 19 20  1  0  0  0
 20 21  2  0  0  0
 17 22  2  0  0  0
 21 22  1  0  0  0
 20 23  1  0  0  0
  2  8  1  0  0  0
  4  9  1  0  0  0
  7 10  1  0  0  0
 23 24  1  0  0  0
  8 11  1  0  0  0
  9 12  1  0  0  0
M  END
> <minimizedAffinity>
-7.59820

$$$$
2UXI_G50_A_1211


 24 25  0  0  0  0  0  0  0  0999 V2000
   16.9731   30.3266   -0.0997 C   0  0  0  0  0  0  0  0  0  0  0  0
   18.0728   29.8509   -0.8001 C   0  0  0  0  0  0  0  0  0  0  0  0
   17.9458   29.3944   -2.0944 C   0  0  0  0  0  0  0  0  0  0  0  0
   16.6914   29.4032   -2.6908 C   0  0  0  0  0  0  0  0  0  0  0  0
   15.5504   29.8754   -2.0092 C   0  0  0  0  0  0  0  0  0  0  0  0
   15.7094   30.3473   -0.6918 C   0  0  0  0  0  0  0  0  0  0  0  0
   14.6786   30.8271    0.0531 O   0  0  0  0  0  0  0  0  0  0  0  0
   19.2802   29.8232   -0.2247 O   0  0  0  0  0  0  0  0  0  0  0  0
   16.6422   28.9346   -3.9533 O   0  0  0  0  0  0  0  0  0  0  0  0
   13.8144   30.8578   -0.3077 H   0  0  0  0  0  0  0  0  0  0  0  0
   19.3873   30.1291    0.6545 H   0  0  0  0  0  0  0  0  0  0  0  0
   17.4239   28.6299   -4.3707 H   0  0  0  0  0  0  0  0  0  0  0  0
   14.1733   29.8607   -2.7429 C   0  0  0  0  0  0  0  0  0  0  0  0
   13.7021   28.7696   -3.0638 O   0  0  0  0  0  0  0  0  0  0  0  0
   13.3515   31.1435   -3.0735 C   0  0  0  0  0  0  0  0  0  0  0  0
   14.2509   32.1601   -3.9460 C   0  0  0  0  0  0  0  0  0  0  0  0
   14.3209   31.6865   -5.4216 C   0  0  0  0  0  0  0  0  0  0  0  0
   15.5860   31.5048   -5.9901 C   0  0  0  0  0  0  0  0  0  0  0  0
   15.7106   31.0536   -7.2940 C   0  0  0  0  0  0  0  0  0  0  0  0
   14.5864   30.8047   -8.0599 C   0  0  0  0  0  0  0  0  0  0  0  0
   13.3045   30.9869   -7.5100 C   0  0  0  0  0  0  0  0  0  0  0  0
   13.1658   31.4230   -6.1855 C   0  0  0  0  0  0  0  0  0  0  0  0
   14.7825   30.3672   -9.3365 O   0  0  0  0  0  0  0  0  0  0  0  0
   15.6529   30.2586   -9.6659 H   0  0  0  0  0  0  0  0  0  0  0  0
  2  1  2  0  0  0
  3  2  1  0  0  0
  3  4  2  0  0  0
  5  4  1  0  0  0
  6  5  2  0  0  0
  1  6  1  0  0  0
  5 13  1  0  0  0
 13 15  1  0  0  0
 15 16  1  0  0  0
  6  7  1  0  0  0
 13 14  2  0  0  0
 16 17  1  0  0  0
 17 18  1  0  0  0
 18 19  2  0  0  0
 19 20  1  0  0  0
 20 21  2  0  0  0
 17 22  2  0  0  0
 21 22  1  0  0  0
 20 23  1  0  0  0
  2  8  1  0  0  0
  4  9  1  0  0  0
  7 10  1  0  0  0
 23 24  1  0  0  0
  8 11  1  0  0  0
  9 12  1  0  0  0
M  END
> <minimizedAffinity>
-7.57228

$$$$
2UXI_G50_A_1211


 24 25  0  0  0  0  0  0  0  0999 V2000
   21.5340   37.3035   -5.1109 C   0  0  0  0  0  0  0  0  0  0  0  0
   21.6779   38.6806   -5.2071 C   0  0  0  0  0  0  0  0  0  0  0  0
   20.6429   39.5267   -4.8716 C   0  0  0  0  0  0  0  0  0  0  0  0
   19.4390   38.9808   -4.4452 C   0  0  0  0  0  0  0  0  0  0  0  0
   19.2542   37.5866   -4.3387 C   0  0  0  0  0  0  0  0  0  0  0  0
   20.3313   36.7443   -4.6763 C   0  0  0  0  0  0  0  0  0  0  0  0
   20.2623   35.3887   -4.6062 O   0  0  0  0  0  0  0  0  0  0  0  0
   22.8291   39.2115   -5.6343 O   0  0  0  0  0  0  0  0  0  0  0  0
   18.4706   39.8679   -4.1430 O   0  0  0  0  0  0  0  0  0  0  0  0
   19.4726   34.9740   -4.3192 H   0  0  0  0  0  0  0  0  0  0  0  0
   23.5446   38.6532   -5.8672 H   0  0  0  0  0  0  0  0  0  0  0  0
   18.6340   40.7867   -4.2274 H   0  0  0  0  0  0  0  0  0  0  0  0
   17.8762   37.0434   -3.8477 C   0  0  0  0  0  0  0  0  0  0  0  0
   17.4568   37.4344   -2.7584 O   0  0  0  0  0  0  0  0  0  0  0  0
   16.9920   36.0528   -4.6647 C   0  0  0  0  0  0  0  0  0  0  0  0
   15.4471   36.2084   -4.2260 C   0  0  0  0  0  0  0  0  0  0  0  0
   14.9994   34.9827   -3.3871 C   0  0  0  0  0  0  0  0  0  0  0  0
   14.9188   35.1354   -1.9989 C   0  0  0  0  0  0  0  0  0  0  0  0
   14.4953   34.0849   -1.2013 C   0  0  0  0  0  0  0  0  0  0  0  0
   14.1744   32.8630   -1.7639 C   0  0  0  0  0  0  0  0  0  0  0  0
   14.2546   32.6857   -3.1571 C   0  0  0  0  0  0  0  0  0  0  0  0
   14.6618   33.7473   -3.9761 C   0  0  0  0  0  0  0  0  0  0  0  0
   13.7695   31.8718   -0.9195 O   0  0  0  0  0  0  0  0  0  0  0  0
   13.7295   32.0296    0.0032 H   0  0  0  0  0  0  0  0  0  0  0  0
  2  1  2  0  0  0
  3  2  1  0  0  0
  3  4  2  0  0  0
  5  4  1  0  0  0
  6  5  2  0  0  0
  1  6  1  0  0  0
  5 13  1  0  0  0
 13 15  1  0  0  0
 15 16  1  0  0  0
  6  7  1  0  0  0
 13 14  2  0  0  0
 16 17  1  0  0  0
 17 18  1  0  0  0
 18 19  2  0  0  0
 19 20  1  0  0  0
 20 21  2  0  0  0
 17 22  2  0  0  0
 21 22  1  0  0  0
 20 23  1  0  0  0
  2  8  1  0  0  0
  4  9  1  0  0  0
  7 10  1  0  0  0
 23 24  1  0  0  0
  8 11  1  0  0  0
  9 12  1  0  0  0
M  END
> <minimizedAffinity>
-7.51821

$$$$
2UXI_G50_A_1211


 24 25  0  0  0  0  0  0  0  0999 V2000
   13.2651   30.9692   -7.6554 C   0  0  0  0  0  0  0  0  0  0  0  0
   14.5600   30.6674   -8.0535 C   0  0  0  0  0  0  0  0  0  0  0  0
   15.5945   30.6441   -7.1431 C   0  0  0  0  0  0  0  0  0  0  0  0
   15.3268   30.9418   -5.8130 C   0  0  0  0  0  0  0  0  0  0  0  0
   14.0248   31.2569   -5.3719 C   0  0  0  0  0  0  0  0  0  0  0  0
   12.9834   31.2623   -6.3202 C   0  0  0  0  0  0  0  0  0  0  0  0
   11.6932   31.5481   -6.0024 O   0  0  0  0  0  0  0  0  0  0  0  0
   14.8269   30.3976   -9.3363 O   0  0  0  0  0  0  0  0  0  0  0  0
   16.3877   30.9079   -4.9826 O   0  0  0  0  0  0  0  0  0  0  0  0
   11.4624   31.7502   -5.1170 H   0  0  0  0  0  0  0  0  0  0  0  0
   14.1374   30.4083   -9.9707 H   0  0  0  0  0  0  0  0  0  0  0  0
   17.2369   30.6939   -5.3159 H   0  0  0  0  0  0  0  0  0  0  0  0
   13.7963   31.5761   -3.8616 C   0  0  0  0  0  0  0  0  0  0  0  0
   13.0943   30.8041   -3.2085 O   0  0  0  0  0  0  0  0  0  0  0  0
   14.4214   32.8019   -3.1287 C   0  0  0  0  0  0  0  0  0  0  0  0
   14.2382   34.1291   -4.0277 C   0  0  0  0  0  0  0  0  0  0  0  0
   15.6102   34.8139   -4.2627 C   0  0  0  0  0  0  0  0  0  0  0  0
   16.3806   34.3787   -5.3462 C   0  0  0  0  0  0  0  0  0  0  0  0
   17.6003   34.9742   -5.6235 C   0  0  0  0  0  0  0  0  0  0  0  0
   18.0854   35.9868   -4.8162 C   0  0  0  0  0  0  0  0  0  0  0  0
   17.3299   36.4355   -3.7177 C   0  0  0  0  0  0  0  0  0  0  0  0
   16.0853   35.8549   -3.4394 C   0  0  0  0  0  0  0  0  0  0  0  0
   19.2947   36.5246   -5.1447 O   0  0  0  0  0  0  0  0  0  0  0  0
   19.7674   36.1977   -5.8847 H   0  0  0  0  0  0  0  0  0  0  0  0
  2  1  2  0  0  0
  3  2  1  0  0  0
  3  4  2  0  0  0
  5  4  1  0  0  0
  6  5  2  0  0  0
  1  6  1  0  0  0
  5 13  1  0  0  0
 13 15  1  0  0  0
 15 16  1  0  0  0
  6  7  1  0  0  0
 13 14  2  0  0  0
 16 17  1  0  0  0
 17 18  1  0  0  0
 18 19  2  0  0  0
 19 20  1  0  0  0
 20 21  2  0  0  0
 17 22  2  0  0  0
 21 22  1  0  0  0
 20 23  1  0  0  0
  2  8  1  0  0  0
  4  9  1  0  0  0
  7 10  1  0  0  0
 23 24  1  0  0  0
  8 11  1  0  0  0
  9 12  1  0  0  0
M  END
> <minimizedAffinity>
-7.49612

$$$$
2UXI_G50_A_1211


 24 25  0  0  0  0  0  0  0  0999 V2000
   16.0552   28.6294   -1.3249 C   0  0  0  0  0  0  0  0  0  0  0  0
   14.9554   28.6410   -0.4783 C   0  0  0  0  0  0  0  0  0  0  0  0
   13.7610   29.2027   -0.8752 C   0  0  0  0  0  0  0  0  0  0  0  0
   13.6732   29.7742   -2.1381 C   0  0  0  0  0  0  0  0  0  0  0  0
   14.7704   29.7849   -3.0243 C   0  0  0  0  0  0  0  0  0  0  0  0
   15.9759   29.1939   -2.5988 C   0  0  0  0  0  0  0  0  0  0  0  0
   17.0917   29.1460   -3.3736 O   0  0  0  0  0  0  0  0  0  0  0  0
   15.0394   28.1082    0.7460 O   0  0  0  0  0  0  0  0  0  0  0  0
   12.4782   30.3113   -2.4537 O   0  0  0  0  0  0  0  0  0  0  0  0
   17.0799   29.5138   -4.2353 H   0  0  0  0  0  0  0  0  0  0  0  0
   15.8427   27.7215    1.0345 H   0  0  0  0  0  0  0  0  0  0  0  0
   11.7742   30.2834   -1.8359 H   0  0  0  0  0  0  0  0  0  0  0  0
   14.5985   30.4401   -4.4301 C   0  0  0  0  0  0  0  0  0  0  0  0
   13.9069   29.8508   -5.2606 O   0  0  0  0  0  0  0  0  0  0  0  0
   15.2333   31.8050   -4.8357 C   0  0  0  0  0  0  0  0  0  0  0  0
   14.1282   32.9759   -4.7290 C   0  0  0  0  0  0  0  0  0  0  0  0
   14.6185   34.0934   -3.7713 C   0  0  0  0  0  0  0  0  0  0  0  0
   14.5227   33.8627   -2.3948 C   0  0  0  0  0  0  0  0  0  0  0  0
   14.9733   34.8117   -1.4918 C   0  0  0  0  0  0  0  0  0  0  0  0
   15.4970   36.0112   -1.9385 C   0  0  0  0  0  0  0  0  0  0  0  0
   15.5967   36.2664   -3.3182 C   0  0  0  0  0  0  0  0  0  0  0  0
   15.1633   35.3055   -4.2416 C   0  0  0  0  0  0  0  0  0  0  0  0
   15.9170   36.9013   -0.9947 O   0  0  0  0  0  0  0  0  0  0  0  0
   15.8332   36.6938   -0.0848 H   0  0  0  0  0  0  0  0  0  0  0  0
  2  1  2  0  0  0
  3  2  1  0  0  0
  3  4  2  0  0  0
  5  4  1  0  0  0
  6  5  2  0  0  0
  1  6  1  0  0  0
  5 13  1  0  0  0
 13 15  1  0  0  0
 15 16  1  0  0  0
  6  7  1  0  0  0
 13 14  2  0  0  0
 16 17  1  0  0  0
 17 18  1  0  0  0
 18 19  2  0  0  0
 19 20  1  0  0  0
 20 21  2  0  0  0
 17 22  2  0  0  0
 21 22  1  0  0  0
 20 23  1  0  0  0
  2  8  1  0  0  0
  4  9  1  0  0  0
  7 10  1  0  0  0
 23 24  1  0  0  0
  8 11  1  0  0  0
  9 12  1  0  0  0
M  END
> <minimizedAffinity>
-7.47671

$$$$
2UXI_G50_A_1211


 24 25  0  0  0  0  0  0  0  0999 V2000
   20.7676   40.0520   -4.2964 C   0  0  0  0  0  0  0  0  0  0  0  0
   21.9852   39.3862   -4.3210 C   0  0  0  0  0  0  0  0  0  0  0  0
   22.0452   38.0138   -4.2090 C   0  0  0  0  0  0  0  0  0  0  0  0
   20.8640   37.2990   -4.0563 C   0  0  0  0  0  0  0  0  0  0  0  0
   19.6087   37.9410   -4.0230 C   0  0  0  0  0  0  0  0  0  0  0  0
   19.5741   39.3432   -4.1513 C   0  0  0  0  0  0  0  0  0  0  0  0
   18.4198   40.0605   -4.1362 O   0  0  0  0  0  0  0  0  0  0  0  0
   23.1273   40.0708   -4.4496 O   0  0  0  0  0  0  0  0  0  0  0  0
   21.0008   35.9630   -3.9445 O   0  0  0  0  0  0  0  0  0  0  0  0
   17.5971   39.6223   -4.0406 H   0  0  0  0  0  0  0  0  0  0  0  0
   23.1077   41.0044   -4.5272 H   0  0  0  0  0  0  0  0  0  0  0  0
   21.8535   35.5755   -3.9716 H   0  0  0  0  0  0  0  0  0  0  0  0
   18.3221   37.0743   -3.8538 C   0  0  0  0  0  0  0  0  0  0  0  0
   18.0549   36.2598   -4.7373 O   0  0  0  0  0  0  0  0  0  0  0  0
   17.3692   37.1651   -2.6233 C   0  0  0  0  0  0  0  0  0  0  0  0
   15.8339   37.0823   -3.1126 C   0  0  0  0  0  0  0  0  0  0  0  0
   15.2874   35.6420   -2.9295 C   0  0  0  0  0  0  0  0  0  0  0  0
   14.8828   34.9464   -4.0738 C   0  0  0  0  0  0  0  0  0  0  0  0
   14.4154   33.6460   -3.9752 C   0  0  0  0  0  0  0  0  0  0  0  0
   14.3153   33.0289   -2.7417 C   0  0  0  0  0  0  0  0  0  0  0  0
   14.7106   33.7124   -1.5775 C   0  0  0  0  0  0  0  0  0  0  0  0
   15.2045   35.0208   -1.6668 C   0  0  0  0  0  0  0  0  0  0  0  0
   13.8427   31.7500   -2.7177 O   0  0  0  0  0  0  0  0  0  0  0  0
   13.5895   31.3291   -3.5157 H   0  0  0  0  0  0  0  0  0  0  0  0
  2  1  2  0  0  0
  3  2  1  0  0  0
  3  4  2  0  0  0
  5  4  1  0  0  0
  6  5  2  0  0  0
  1  6  1  0  0  0
  5 13  1  0  0  0
 13 15  1  0  0  0
 15 16  1  0  0  0
  6  7  1  0  0  0
 13 14  2  0  0  0
 16 17  1  0  0  0
 17 18  1  0  0  0
 18 19  2  0  0  0
 19 20  1  0  0  0
 20 21  2  0  0  0
 17 22  2  0  0  0
 21 22  1  0  0  0
 20 23  1  0  0  0
  2  8  1  0  0  0
  4  9  1  0  0  0
  7 10  1  0  0  0
 23 24  1  0  0  0
  8 11  1  0  0  0
  9 12  1  0  0  0
M  END
> <minimizedAffinity>
-7.44456

$$$$
2UXI_G50_A_1211


 24 25  0  0  0  0  0  0  0  0999 V2000
   17.7160   30.4115   -2.0084 C   0  0  0  0  0  0  0  0  0  0  0  0
   18.0988   30.0982   -0.7116 C   0  0  0  0  0  0  0  0  0  0  0  0
   17.1629   29.9652    0.2914 C   0  0  0  0  0  0  0  0  0  0  0  0
   15.8214   30.1632   -0.0097 C   0  0  0  0  0  0  0  0  0  0  0  0
   15.3950   30.4865   -1.3146 C   0  0  0  0  0  0  0  0  0  0  0  0
   16.3703   30.6049   -2.3238 C   0  0  0  0  0  0  0  0  0  0  0  0
   16.0687   30.9086   -3.6139 O   0  0  0  0  0  0  0  0  0  0  0  0
   19.3909   29.9241   -0.4118 O   0  0  0  0  0  0  0  0  0  0  0  0
   14.9654   30.0252    1.0219 O   0  0  0  0  0  0  0  0  0  0  0  0
   15.1770   31.0462   -3.8667 H   0  0  0  0  0  0  0  0  0  0  0  0
   20.0425   30.0102   -1.0796 H   0  0  0  0  0  0  0  0  0  0  0  0
   15.2896   29.8095    1.8742 H   0  0  0  0  0  0  0  0  0  0  0  0
   13.8711   30.6900   -1.5818 C   0  0  0  0  0  0  0  0  0  0  0  0
   13.1524   29.6910   -1.6132 O   0  0  0  0  0  0  0  0  0  0  0  0
   13.2042   32.0836   -1.7898 C   0  0  0  0  0  0  0  0  0  0  0  0
   14.0029   33.2039   -0.9469 C   0  0  0  0  0  0  0  0  0  0  0  0
   14.5997   34.2718   -1.9008 C   0  0  0  0  0  0  0  0  0  0  0  0
   14.4779   34.0587   -3.2780 C   0  0  0  0  0  0  0  0  0  0  0  0
   14.9642   34.9929   -4.1779 C   0  0  0  0  0  0  0  0  0  0  0  0
   15.6020   36.1342   -3.7271 C   0  0  0  0  0  0  0  0  0  0  0  0
   15.7411   36.3653   -2.3465 C   0  0  0  0  0  0  0  0  0  0  0  0
   15.2347   35.4375   -1.4264 C   0  0  0  0  0  0  0  0  0  0  0  0
   16.0601   37.0086   -4.6679 O   0  0  0  0  0  0  0  0  0  0  0  0
   15.9481   36.8182   -5.5785 H   0  0  0  0  0  0  0  0  0  0  0  0
  2  1  2  0  0  0
  3  2  1  0  0  0
  3  4  2  0  0  0
  5  4  1  0  0  0
  6  5  2  0  0  0
  1  6  1  0  0  0
  5 13  1  0  0  0
 13 15  1  0  0  0
 15 16  1  0  0  0
  6  7  1  0  0  0
 13 14  2  0  0  0
 16 17  1  0  0  0
 17 18  1  0  0  0
 18 19  2  0  0  0
 19 20  1  0  0  0
 20 21  2  0  0  0
 17 22  2  0  0  0
 21 22  1  0  0  0
 20 23  1  0  0  0
  2  8  1  0  0  0
  4  9  1  0  0  0
  7 10  1  0  0  0
 23 24  1  0  0  0
  8 11  1  0  0  0
  9 12  1  0  0  0
M  END
> <minimizedAffinity>
-7.41139

$$$$
2UXI_G50_A_1211


 24 25  0  0  0  0  0  0  0  0999 V2000
   14.2652   32.3098   -5.4022 C   0  0  0  0  0  0  0  0  0  0  0  0
   14.5536   31.0766   -5.9701 C   0  0  0  0  0  0  0  0  0  0  0  0
   15.7830   30.8296   -6.5423 C   0  0  0  0  0  0  0  0  0  0  0  0
   16.7340   31.8419   -6.5564 C   0  0  0  0  0  0  0  0  0  0  0  0
   16.4758   33.1088   -5.9928 C   0  0  0  0  0  0  0  0  0  0  0  0
   15.2160   33.3316   -5.4040 C   0  0  0  0  0  0  0  0  0  0  0  0
   14.8646   34.5124   -4.8298 O   0  0  0  0  0  0  0  0  0  0  0  0
   13.6354   30.1038   -5.9755 O   0  0  0  0  0  0  0  0  0  0  0  0
   17.9084   31.5311   -7.1397 O   0  0  0  0  0  0  0  0  0  0  0  0
   15.4743   35.2236   -4.8103 H   0  0  0  0  0  0  0  0  0  0  0  0
   12.7936   30.2520   -5.5915 H   0  0  0  0  0  0  0  0  0  0  0  0
   18.0398   30.6772   -7.5025 H   0  0  0  0  0  0  0  0  0  0  0  0
   17.5928   34.1975   -6.0400 C   0  0  0  0  0  0  0  0  0  0  0  0
   17.8688   34.6939   -7.1321 O   0  0  0  0  0  0  0  0  0  0  0  0
   18.3630   34.7068   -4.7839 C   0  0  0  0  0  0  0  0  0  0  0  0
   17.9621   36.2399   -4.4803 C   0  0  0  0  0  0  0  0  0  0  0  0
   19.2205   37.1456   -4.5303 C   0  0  0  0  0  0  0  0  0  0  0  0
   20.3476   36.6615   -5.2027 C   0  0  0  0  0  0  0  0  0  0  0  0
   21.4898   37.4385   -5.3065 C   0  0  0  0  0  0  0  0  0  0  0  0
   21.5409   38.6909   -4.7221 C   0  0  0  0  0  0  0  0  0  0  0  0
   20.4211   39.1945   -4.0357 C   0  0  0  0  0  0  0  0  0  0  0  0
   19.2529   38.4262   -3.9419 C   0  0  0  0  0  0  0  0  0  0  0  0
   22.6980   39.3993   -4.8594 O   0  0  0  0  0  0  0  0  0  0  0  0
   23.4220   39.0284   -5.3243 H   0  0  0  0  0  0  0  0  0  0  0  0
  2  1  2  0  0  0
  3  2  1  0  0  0
  3  4  2  0  0  0
  5  4  1  0  0  0
  6  5  2  0  0  0
  1  6  1  0  0  0
  5 13  1  0  0  0
 13 15  1  0  0  0
 15 16  1  0  0  0
  6  7  1  0  0  0
 13 14  2  0  0  0
 16 17  1  0  0  0
 17 18  1  0  0  0
 18 19  2  0  0  0
 19 20  1  0  0  0
 20 21  2  0  0  0
 17 22  2  0  0  0
 21 22  1  0  0  0
 20 23  1  0  0  0
  2  8  1  0  0  0
  4  9  1  0  0  0
  7 10  1  0  0  0
 23 24  1  0  0  0
  8 11  1  0  0  0
  9 12  1  0  0  0
M  END
> <minimizedAffinity>
-7.40890

$$$$
