1CPS_CPM_A_588


 19 19  0  0  0  0  0  0  0  0999 V2000
   -2.1491   30.0458   -7.2908 C   0  0  0  0  0  0  0  0  0  0  0  0
   -0.5711   29.5087   -7.5252 C   0  0  0  0  0  0  0  0  0  0  0  0
   -0.3210   28.6089   -8.5532 O   0  0  0  0  0  0  0  0  0  0  0  0
    0.2316   30.0881   -6.6307 O   0  0  0  0  0  0  0  0  0  0  0  0
   -0.1229   30.6817   -5.9983 H   0  0  0  0  0  0  0  0  0  0  0  0
   -2.0725   30.7292   -5.8007 C   0  0  0  0  0  0  0  0  0  0  0  0
   -2.5700   29.5302   -4.6417 S   0  0  0  0  0  0  0  0  0  0  0  0
   -3.7794   28.7199   -5.3529 N   0  0  0  0  0  0  0  0  0  0  0  0
   -1.3517   28.6603   -4.1635 N   0  0  0  0  0  0  0  0  0  0  0  0
   -3.2316   30.3738   -3.2607 C   0  0  0  0  0  0  0  0  0  0  0  0
   -3.6038   28.1784   -6.1561 H   0  0  0  0  0  0  0  0  0  0  0  0
   -0.8529   28.1130   -4.8122 H   0  0  0  0  0  0  0  0  0  0  0  0
   -2.1764   31.5219   -8.0882 C   0  0  0  0  0  0  0  0  0  0  0  0
   -2.2090   30.9604   -9.6596 C   0  0  0  0  0  0  0  0  0  0  0  0
   -0.9794   31.4469  -10.5153 C   0  0  0  0  0  0  0  0  0  0  0  0
   -3.3670   30.0839  -10.0759 C   0  0  0  0  0  0  0  0  0  0  0  0
   -1.2053   30.8192  -11.9941 C   0  0  0  0  0  0  0  0  0  0  0  0
   -3.4106   29.5536  -11.6147 C   0  0  0  0  0  0  0  0  0  0  0  0
   -2.1062   30.1370  -12.3183 C   0  0  0  0  0  0  0  0  0  0  0  0
  6  1  1  0  0  0
  6  7  1  0  0  0
  1  2  1  0  0  0
  1 13  1  0  0  0
  2  3  2  0  0  0
  2  4  1  0  0  0
 13 14  1  0  0  0
 14 15  2  0  0  0
 14 16  1  0  0  0
 15 17  1  0  0  0
 16 18  2  0  0  0
 17 19  2  0  0  0
 18 19  1  0  0  0
  7  8  2  0  0  0
  7  9  2  0  0  0
  7 10  1  0  0  0
  4  5  1  0  0  0
  8 11  1  0  0  0
  9 12  1  0  0  0
M  END
> <minimizedAffinity>
-7.47604

$$$$
1CPS_CPM_A_588


 19 19  0  0  0  0  0  0  0  0999 V2000
   -2.1619   30.1113   -7.3225 C   0  0  0  0  0  0  0  0  0  0  0  0
   -0.5540   29.6412   -7.4881 C   0  0  0  0  0  0  0  0  0  0  0  0
   -0.2390   28.6703   -8.4300 O   0  0  0  0  0  0  0  0  0  0  0  0
    0.2012   30.3381   -6.6372 O   0  0  0  0  0  0  0  0  0  0  0  0
   -0.1950   30.9645   -6.0639 H   0  0  0  0  0  0  0  0  0  0  0  0
   -2.1774   30.8002   -5.8331 C   0  0  0  0  0  0  0  0  0  0  0  0
   -2.6105   29.5675   -4.6837 S   0  0  0  0  0  0  0  0  0  0  0  0
   -3.7944   28.7167   -5.3905 N   0  0  0  0  0  0  0  0  0  0  0  0
   -1.3516   28.7428   -4.2313 N   0  0  0  0  0  0  0  0  0  0  0  0
   -3.2888   30.3660   -3.2840 C   0  0  0  0  0  0  0  0  0  0  0  0
   -3.6067   28.1929   -6.2027 H   0  0  0  0  0  0  0  0  0  0  0  0
   -0.8388   28.2246   -4.8930 H   0  0  0  0  0  0  0  0  0  0  0  0
   -2.2179   31.5834   -8.1258 C   0  0  0  0  0  0  0  0  0  0  0  0
   -2.2538   31.0148   -9.6946 C   0  0  0  0  0  0  0  0  0  0  0  0
   -3.5721   30.2231  -10.0350 C   0  0  0  0  0  0  0  0  0  0  0  0
   -1.0666   31.3067  -10.5823 C   0  0  0  0  0  0  0  0  0  0  0  0
   -3.4045   29.7446  -11.5760 C   0  0  0  0  0  0  0  0  0  0  0  0
   -1.0916   30.7339  -12.1062 C   0  0  0  0  0  0  0  0  0  0  0  0
   -2.4809   29.9718  -12.2671 C   0  0  0  0  0  0  0  0  0  0  0  0
  6  1  1  0  0  0
  6  7  1  0  0  0
  1  2  1  0  0  0
  1 13  1  0  0  0
  2  3  2  0  0  0
  2  4  1  0  0  0
 13 14  1  0  0  0
 14 15  2  0  0  0
 14 16  1  0  0  0
 15 17  1  0  0  0
 16 18  2  0  0  0
 17 19  2  0  0  0
 18 19  1  0  0  0
  7  8  2  0  0  0
  7  9  2  0  0  0
  7 10  1  0  0  0
  4  5  1  0  0  0
  8 11  1  0  0  0
  9 12  1  0  0  0
M  END
> <minimizedAffinity>
-7.38109

$$$$
1CPS_CPM_A_588


 19 19  0  0  0  0  0  0  0  0999 V2000
   -2.2774   30.4709   -5.8652 C   0  0  0  0  0  0  0  0  0  0  0  0
   -0.7801   30.3990   -5.0995 C   0  0  0  0  0  0  0  0  0  0  0  0
   -0.7321   30.0020   -3.7694 O   0  0  0  0  0  0  0  0  0  0  0  0
    0.1761   30.7466   -5.9626 O   0  0  0  0  0  0  0  0  0  0  0  0
   -0.0497   30.9904   -6.8387 H   0  0  0  0  0  0  0  0  0  0  0  0
   -2.3030   29.0726   -6.7240 C   0  0  0  0  0  0  0  0  0  0  0  0
   -1.9990   29.4691   -8.3910 S   0  0  0  0  0  0  0  0  0  0  0  0
   -0.4553   29.0553   -8.6573 N   0  0  0  0  0  0  0  0  0  0  0  0
   -3.0598   28.8003   -9.3381 N   0  0  0  0  0  0  0  0  0  0  0  0
   -2.1219   31.2058   -8.5512 C   0  0  0  0  0  0  0  0  0  0  0  0
   -0.1841   28.1101   -8.6111 H   0  0  0  0  0  0  0  0  0  0  0  0
   -3.1344   27.8195   -9.3787 H   0  0  0  0  0  0  0  0  0  0  0  0
   -3.3366   29.9013   -4.6951 C   0  0  0  0  0  0  0  0  0  0  0  0
   -3.7717   31.3619   -4.0146 C   0  0  0  0  0  0  0  0  0  0  0  0
   -4.1172   32.4641   -5.0854 C   0  0  0  0  0  0  0  0  0  0  0  0
   -3.7851   31.4664   -2.5075 C   0  0  0  0  0  0  0  0  0  0  0  0
   -4.4899   33.7937   -4.2339 C   0  0  0  0  0  0  0  0  0  0  0  0
   -4.1886   32.8971   -1.8433 C   0  0  0  0  0  0  0  0  0  0  0  0
   -4.5006   33.8753   -3.0611 C   0  0  0  0  0  0  0  0  0  0  0  0
  6  1  1  0  0  0
  6  7  1  0  0  0
  1  2  1  0  0  0
  1 13  1  0  0  0
  2  3  2  0  0  0
  2  4  1  0  0  0
 13 14  1  0  0  0
 14 15  2  0  0  0
 14 16  1  0  0  0
 15 17  1  0  0  0
 16 18  2  0  0  0
 17 19  2  0  0  0
 18 19  1  0  0  0
  7  8  2  0  0  0
  7  9  2  0  0  0
  7 10  1  0  0  0
  4  5  1  0  0  0
  8 11  1  0  0  0
  9 12  1  0  0  0
M  END
> <minimizedAffinity>
-6.66550

$$$$
1CPS_CPM_A_588


 19 19  0  0  0  0  0  0  0  0999 V2000
   -1.7263   30.2766  -10.6050 C   0  0  0  0  0  0  0  0  0  0  0  0
   -3.3393   29.8027  -10.6897 C   0  0  0  0  0  0  0  0  0  0  0  0
   -4.2056   30.5338  -11.4922 O   0  0  0  0  0  0  0  0  0  0  0  0
   -3.5240   28.7218   -9.9297 O   0  0  0  0  0  0  0  0  0  0  0  0
   -2.8065   28.3595   -9.4481 H   0  0  0  0  0  0  0  0  0  0  0  0
   -1.4765   30.9470  -12.0820 C   0  0  0  0  0  0  0  0  0  0  0  0
   -0.6820   29.7595  -13.0753 S   0  0  0  0  0  0  0  0  0  0  0  0
    0.5451   29.1991  -12.1779 N   0  0  0  0  0  0  0  0  0  0  0  0
   -1.6984   28.6796  -13.5953 N   0  0  0  0  0  0  0  0  0  0  0  0
    0.0004   30.5942  -14.4517 C   0  0  0  0  0  0  0  0  0  0  0  0
    0.3612   28.6960  -11.3519 H   0  0  0  0  0  0  0  0  0  0  0  0
   -2.1817   28.1096  -12.9544 H   0  0  0  0  0  0  0  0  0  0  0  0
   -1.8005   31.7587   -9.8219 C   0  0  0  0  0  0  0  0  0  0  0  0
   -1.8575   31.2105   -8.2466 C   0  0  0  0  0  0  0  0  0  0  0  0
   -0.8860   30.0002   -7.9779 C   0  0  0  0  0  0  0  0  0  0  0  0
   -2.7970   31.9037   -7.2877 C   0  0  0  0  0  0  0  0  0  0  0  0
   -1.1027   29.6087   -6.4185 C   0  0  0  0  0  0  0  0  0  0  0  0
   -2.8689   31.3555   -5.7563 C   0  0  0  0  0  0  0  0  0  0  0  0
   -1.8335   30.1481   -5.6720 C   0  0  0  0  0  0  0  0  0  0  0  0
  6  1  1  0  0  0
  6  7  1  0  0  0
  1  2  1  0  0  0
  1 13  1  0  0  0
  2  3  2  0  0  0
  2  4  1  0  0  0
 13 14  1  0  0  0
 14 15  2  0  0  0
 14 16  1  0  0  0
 15 17  1  0  0  0
 16 18  2  0  0  0
 17 19  2  0  0  0
 18 19  1  0  0  0
  7  8  2  0  0  0
  7  9  2  0  0  0
  7 10  1  0  0  0
  4  5  1  0  0  0
  8 11  1  0  0  0
  9 12  1  0  0  0
M  END
> <minimizedAffinity>
-6.62245

$$$$
1CPS_CPM_A_588


 19 19  0  0  0  0  0  0  0  0999 V2000
   -1.6863   30.3151  -10.4750 C   0  0  0  0  0  0  0  0  0  0  0  0
   -3.2722   29.7953  -10.6951 C   0  0  0  0  0  0  0  0  0  0  0  0
   -4.0668   30.4591  -11.6208 O   0  0  0  0  0  0  0  0  0  0  0  0
   -3.5114   28.7526   -9.8978 O   0  0  0  0  0  0  0  0  0  0  0  0
   -2.8395   28.4357   -9.3267 H   0  0  0  0  0  0  0  0  0  0  0  0
   -1.3454   31.0291  -11.9127 C   0  0  0  0  0  0  0  0  0  0  0  0
   -0.6975   29.8082  -12.9701 S   0  0  0  0  0  0  0  0  0  0  0  0
    0.5306   29.1384  -12.1527 N   0  0  0  0  0  0  0  0  0  0  0  0
   -1.8190   28.8186  -13.4521 N   0  0  0  0  0  0  0  0  0  0  0  0
   -0.0296   30.6204  -14.3670 C   0  0  0  0  0  0  0  0  0  0  0  0
    0.3543   28.6321  -11.3270 H   0  0  0  0  0  0  0  0  0  0  0  0
   -2.3086   28.2720  -12.7958 H   0  0  0  0  0  0  0  0  0  0  0  0
   -1.8676   31.7744   -9.6670 C   0  0  0  0  0  0  0  0  0  0  0  0
   -1.9471   31.1912   -8.1052 C   0  0  0  0  0  0  0  0  0  0  0  0
   -2.9372   32.0063   -7.1908 C   0  0  0  0  0  0  0  0  0  0  0  0
   -1.0950   29.9952   -7.7503 C   0  0  0  0  0  0  0  0  0  0  0  0
   -2.8564   31.3036   -5.7308 C   0  0  0  0  0  0  0  0  0  0  0  0
   -1.1557   29.4390   -6.2213 C   0  0  0  0  0  0  0  0  0  0  0  0
   -2.1935   30.3728   -5.4544 C   0  0  0  0  0  0  0  0  0  0  0  0
  6  1  1  0  0  0
  6  7  1  0  0  0
  1  2  1  0  0  0
  1 13  1  0  0  0
  2  3  2  0  0  0
  2  4  1  0  0  0
 13 14  1  0  0  0
 14 15  2  0  0  0
 14 16  1  0  0  0
 15 17  1  0  0  0
 16 18  2  0  0  0
 17 19  2  0  0  0
 18 19  1  0  0  0
  7  8  2  0  0  0
  7  9  2  0  0  0
  7 10  1  0  0  0
  4  5  1  0  0  0
  8 11  1  0  0  0
  9 12  1  0  0  0
M  END
> <minimizedAffinity>
-6.52797

$$$$
1CPS_CPM_A_588


 19 19  0  0  0  0  0  0  0  0999 V2000
   -2.2966   30.8195   -5.2568 C   0  0  0  0  0  0  0  0  0  0  0  0
   -2.7062   29.2254   -4.9035 C   0  0  0  0  0  0  0  0  0  0  0  0
   -4.0321   28.8344   -5.0379 O   0  0  0  0  0  0  0  0  0  0  0  0
   -1.6102   28.5561   -4.5417 O   0  0  0  0  0  0  0  0  0  0  0  0
   -0.7831   28.9952   -4.5072 H   0  0  0  0  0  0  0  0  0  0  0  0
   -2.3739   30.8496   -6.8958 C   0  0  0  0  0  0  0  0  0  0  0  0
   -0.8226   30.3531   -7.5086 S   0  0  0  0  0  0  0  0  0  0  0  0
   -0.5341   31.3150   -8.7800 N   0  0  0  0  0  0  0  0  0  0  0  0
    0.2681   30.3686   -6.3774 N   0  0  0  0  0  0  0  0  0  0  0  0
   -0.9891   28.7173   -8.1030 C   0  0  0  0  0  0  0  0  0  0  0  0
   -0.4100   32.2825   -8.6471 H   0  0  0  0  0  0  0  0  0  0  0  0
    0.4956   31.2126   -5.9244 H   0  0  0  0  0  0  0  0  0  0  0  0
   -3.7461   31.6421   -5.0626 C   0  0  0  0  0  0  0  0  0  0  0  0
   -3.3898   32.4529   -3.6480 C   0  0  0  0  0  0  0  0  0  0  0  0
   -3.9008   31.7033   -2.3604 C   0  0  0  0  0  0  0  0  0  0  0  0
   -2.6478   33.7650   -3.7500 C   0  0  0  0  0  0  0  0  0  0  0  0
   -3.4795   32.6500   -1.1121 C   0  0  0  0  0  0  0  0  0  0  0  0
   -2.3188   34.5671   -2.3718 C   0  0  0  0  0  0  0  0  0  0  0  0
   -2.9020   33.6710   -1.1912 C   0  0  0  0  0  0  0  0  0  0  0  0
  6  1  1  0  0  0
  6  7  1  0  0  0
  1  2  1  0  0  0
  1 13  1  0  0  0
  2  3  2  0  0  0
  2  4  1  0  0  0
 13 14  1  0  0  0
 14 15  2  0  0  0
 14 16  1  0  0  0
 15 17  1  0  0  0
 16 18  2  0  0  0
 17 19  2  0  0  0
 18 19  1  0  0  0
  7  8  2  0  0  0
  7  9  2  0  0  0
  7 10  1  0  0  0
  4  5  1  0  0  0
  8 11  1  0  0  0
  9 12  1  0  0  0
M  END
> <minimizedAffinity>
-6.43296

$$$$
1CPS_CPM_A_588


 19 19  0  0  0  0  0  0  0  0999 V2000
   -1.8872   30.1992   -7.0609 C   0  0  0  0  0  0  0  0  0  0  0  0
   -0.2467   30.0689   -6.7070 C   0  0  0  0  0  0  0  0  0  0  0  0
    0.2943   30.9102   -5.7434 O   0  0  0  0  0  0  0  0  0  0  0  0
    0.2923   29.1036   -7.4538 O   0  0  0  0  0  0  0  0  0  0  0  0
   -0.2390   28.6319   -8.0646 H   0  0  0  0  0  0  0  0  0  0  0  0
   -2.0921   29.0518   -8.2162 C   0  0  0  0  0  0  0  0  0  0  0  0
   -2.1925   29.8601   -9.7539 S   0  0  0  0  0  0  0  0  0  0  0  0
   -0.6916   29.8153  -10.3626 N   0  0  0  0  0  0  0  0  0  0  0  0
   -3.3156   29.2315  -10.6556 N   0  0  0  0  0  0  0  0  0  0  0  0
   -2.5940   31.5335   -9.4451 C   0  0  0  0  0  0  0  0  0  0  0  0
   -0.2834   28.9522  -10.6028 H   0  0  0  0  0  0  0  0  0  0  0  0
   -3.2548   28.2885  -10.9318 H   0  0  0  0  0  0  0  0  0  0  0  0
   -2.6147   29.2793   -5.8610 C   0  0  0  0  0  0  0  0  0  0  0  0
   -3.1630   30.5196   -4.8881 C   0  0  0  0  0  0  0  0  0  0  0  0
   -3.3560   31.8758   -5.6656 C   0  0  0  0  0  0  0  0  0  0  0  0
   -3.4036   30.2216   -3.4266 C   0  0  0  0  0  0  0  0  0  0  0  0
   -3.8669   32.9427   -4.5554 C   0  0  0  0  0  0  0  0  0  0  0  0
   -3.9178   31.4365   -2.4725 C   0  0  0  0  0  0  0  0  0  0  0  0
   -4.0544   32.7110   -3.4181 C   0  0  0  0  0  0  0  0  0  0  0  0
  6  1  1  0  0  0
  6  7  1  0  0  0
  1  2  1  0  0  0
  1 13  1  0  0  0
  2  3  2  0  0  0
  2  4  1  0  0  0
 13 14  1  0  0  0
 14 15  2  0  0  0
 14 16  1  0  0  0
 15 17  1  0  0  0
 16 18  2  0  0  0
 17 19  2  0  0  0
 18 19  1  0  0  0
  7  8  2  0  0  0
  7  9  2  0  0  0
  7 10  1  0  0  0
  4  5  1  0  0  0
  8 11  1  0  0  0
  9 12  1  0  0  0
M  END
> <minimizedAffinity>
-6.26607

$$$$
1CPS_CPM_A_588


 19 19  0  0  0  0  0  0  0  0999 V2000
   -2.5257   31.1705   -2.8441 C   0  0  0  0  0  0  0  0  0  0  0  0
   -3.9717   31.7157   -2.1768 C   0  0  0  0  0  0  0  0  0  0  0  0
   -3.9607   32.8904   -1.4359 O   0  0  0  0  0  0  0  0  0  0  0  0
   -4.9556   30.8767   -2.5057 O   0  0  0  0  0  0  0  0  0  0  0  0
   -4.7708   30.1180   -3.0236 H   0  0  0  0  0  0  0  0  0  0  0  0
   -2.9007   31.0319   -4.4357 C   0  0  0  0  0  0  0  0  0  0  0  0
   -2.7794   29.3496   -4.8640 S   0  0  0  0  0  0  0  0  0  0  0  0
   -1.5485   28.7692   -3.9849 N   0  0  0  0  0  0  0  0  0  0  0  0
   -4.1566   28.6148   -4.6819 N   0  0  0  0  0  0  0  0  0  0  0  0
   -2.3190   29.2659   -6.5486 C   0  0  0  0  0  0  0  0  0  0  0  0
   -1.6182   28.7338   -3.0035 H   0  0  0  0  0  0  0  0  0  0  0  0
   -4.5725   28.5624   -3.7912 H   0  0  0  0  0  0  0  0  0  0  0  0
   -1.6447   32.5820   -3.0605 C   0  0  0  0  0  0  0  0  0  0  0  0
   -0.2588   32.1441   -2.2401 C   0  0  0  0  0  0  0  0  0  0  0  0
    0.8681   31.5821   -3.1862 C   0  0  0  0  0  0  0  0  0  0  0  0
   -0.2354   32.3244   -0.7402 C   0  0  0  0  0  0  0  0  0  0  0  0
    2.1049   31.2011   -2.2081 C   0  0  0  0  0  0  0  0  0  0  0  0
    1.1083   31.8772    0.0633 C   0  0  0  0  0  0  0  0  0  0  0  0
    2.1235   31.3414   -1.0409 C   0  0  0  0  0  0  0  0  0  0  0  0
  6  1  1  0  0  0
  6  7  1  0  0  0
  1  2  1  0  0  0
  1 13  1  0  0  0
  2  3  2  0  0  0
  2  4  1  0  0  0
 13 14  1  0  0  0
 14 15  2  0  0  0
 14 16  1  0  0  0
 15 17  1  0  0  0
 16 18  2  0  0  0
 17 19  2  0  0  0
 18 19  1  0  0  0
  7  8  2  0  0  0
  7  9  2  0  0  0
  7 10  1  0  0  0
  4  5  1  0  0  0
  8 11  1  0  0  0
  9 12  1  0  0  0
M  END
> <minimizedAffinity>
-6.21197

$$$$
1CPS_CPM_A_588


 19 19  0  0  0  0  0  0  0  0999 V2000
   -2.0307   30.6916   -5.1826 C   0  0  0  0  0  0  0  0  0  0  0  0
   -2.5553   29.1447   -4.7758 C   0  0  0  0  0  0  0  0  0  0  0  0
   -3.8743   28.7991   -5.0404 O   0  0  0  0  0  0  0  0  0  0  0  0
   -1.5423   28.4591   -4.2431 O   0  0  0  0  0  0  0  0  0  0  0  0
   -0.7045   28.8656   -4.1398 H   0  0  0  0  0  0  0  0  0  0  0  0
   -2.4981   30.8228   -6.7503 C   0  0  0  0  0  0  0  0  0  0  0  0
   -1.2831   30.0548   -7.7313 S   0  0  0  0  0  0  0  0  0  0  0  0
    0.0338   29.9630   -6.7920 N   0  0  0  0  0  0  0  0  0  0  0  0
   -1.8019   28.6921   -8.3174 N   0  0  0  0  0  0  0  0  0  0  0  0
   -0.9184   31.1323   -9.0590 C   0  0  0  0  0  0  0  0  0  0  0  0
    0.0247   29.3988   -5.9853 H   0  0  0  0  0  0  0  0  0  0  0  0
   -2.0571   27.9604   -7.7101 H   0  0  0  0  0  0  0  0  0  0  0  0
   -3.2642   31.6783   -4.6165 C   0  0  0  0  0  0  0  0  0  0  0  0
   -2.6227   32.0540   -3.1223 C   0  0  0  0  0  0  0  0  0  0  0  0
   -1.0501   31.9739   -3.0870 C   0  0  0  0  0  0  0  0  0  0  0  0
   -3.5794   32.4139   -2.0097 C   0  0  0  0  0  0  0  0  0  0  0  0
   -0.6312   32.3492   -1.5653 C   0  0  0  0  0  0  0  0  0  0  0  0
   -2.9555   32.7596   -0.5460 C   0  0  0  0  0  0  0  0  0  0  0  0
   -1.3754   32.6295   -0.6993 C   0  0  0  0  0  0  0  0  0  0  0  0
  6  1  1  0  0  0
  6  7  1  0  0  0
  1  2  1  0  0  0
  1 13  1  0  0  0
  2  3  2  0  0  0
  2  4  1  0  0  0
 13 14  1  0  0  0
 14 15  2  0  0  0
 14 16  1  0  0  0
 15 17  1  0  0  0
 16 18  2  0  0  0
 17 19  2  0  0  0
 18 19  1  0  0  0
  7  8  2  0  0  0
  7  9  2  0  0  0
  7 10  1  0  0  0
  4  5  1  0  0  0
  8 11  1  0  0  0
  9 12  1  0  0  0
M  END
> <minimizedAffinity>
-6.13113

$$$$
1CPS_CPM_A_588


 19 19  0  0  0  0  0  0  0  0999 V2000
   -2.0356   30.4892   -6.9229 C   0  0  0  0  0  0  0  0  0  0  0  0
   -0.4256   30.2493   -6.4939 C   0  0  0  0  0  0  0  0  0  0  0  0
    0.0751   30.9239   -5.3878 O   0  0  0  0  0  0  0  0  0  0  0  0
    0.1335   29.3814   -7.3389 O   0  0  0  0  0  0  0  0  0  0  0  0
   -0.3701   29.0217   -8.0424 H   0  0  0  0  0  0  0  0  0  0  0  0
   -2.5659   31.5082   -5.7508 C   0  0  0  0  0  0  0  0  0  0  0  0
   -3.2862   30.5423   -4.4952 S   0  0  0  0  0  0  0  0  0  0  0  0
   -2.1757   30.4697   -3.3176 N   0  0  0  0  0  0  0  0  0  0  0  0
   -4.6913   31.1079   -4.0767 N   0  0  0  0  0  0  0  0  0  0  0  0
   -3.4994   28.9268   -5.1288 C   0  0  0  0  0  0  0  0  0  0  0  0
   -1.9167   31.2873   -2.8341 H   0  0  0  0  0  0  0  0  0  0  0  0
   -4.7642   32.0130   -3.6961 H   0  0  0  0  0  0  0  0  0  0  0  0
   -1.9490   31.6947   -8.0867 C   0  0  0  0  0  0  0  0  0  0  0  0
   -2.5286   30.8298   -9.3911 C   0  0  0  0  0  0  0  0  0  0  0  0
   -2.6036   31.6820  -10.7136 C   0  0  0  0  0  0  0  0  0  0  0  0
   -2.9052   29.3831   -9.1722 C   0  0  0  0  0  0  0  0  0  0  0  0
   -3.2013   30.6804  -11.8411 C   0  0  0  0  0  0  0  0  0  0  0  0
   -3.4910   28.5449  -10.4392 C   0  0  0  0  0  0  0  0  0  0  0  0
   -3.4943   29.5545  -11.6711 C   0  0  0  0  0  0  0  0  0  0  0  0
  6  1  1  0  0  0
  6  7  1  0  0  0
  1  2  1  0  0  0
  1 13  1  0  0  0
  2  3  2  0  0  0
  2  4  1  0  0  0
 13 14  1  0  0  0
 14 15  2  0  0  0
 14 16  1  0  0  0
 15 17  1  0  0  0
 16 18  2  0  0  0
 17 19  2  0  0  0
 18 19  1  0  0  0
  7  8  2  0  0  0
  7  9  2  0  0  0
  7 10  1  0  0  0
  4  5  1  0  0  0
  8 11  1  0  0  0
  9 12  1  0  0  0
M  END
> <minimizedAffinity>
-6.09008

$$$$
