5TYA_7QS_A_302
  RCSB PDB12061719463D
Coordinates from PDB:5TYA:A:302 Model:1 without hydrogens
 13 14  0  0  0  0            999 V2000
   -4.4910    5.7220   13.6180   C 0  0  0  0  0  0  0  0  0  0  0  0
   -3.2980    5.1990   14.0370   C 0  0  0  0  0  0  0  0  0  0  0  0
   -5.6180    5.1010   14.0210   C 0  0  0  0  0  0  0  0  0  0  0  0
   -3.2730    4.0770   14.8460   C 0  0  0  0  0  0  0  0  0  0  0  0
   -5.6300    3.9940   14.8260   C 0  0  0  0  0  0  0  0  0  0  0  0
   -4.4270    3.4760   15.2620   C 0  0  0  0  0  0  0  0  0  0  0  0
   -4.8330    1.0040   15.4670   C 0  0  0  0  0  0  0  0  0  0  0  0
   -6.4380    1.1140   16.9990   C 0  0  0  0  0  0  0  0  0  0  0  0
   -4.3750    2.2540   16.1990   C 0  0  0  0  0  0  0  0  0  0  0  0
   -5.8260    0.4320   16.0490   N 0  0  0  0  0  0  0  0  0  0  0  0
   -4.2390    0.6010   14.4670   O 0  0  0  0  0  0  0  0  0  0  0  0
   -7.5670    0.9660   17.4520   O 0  0  0  0  0  0  0  0  0  0  0  0
   -5.5850    2.5000   17.5840   S 0  0  0  0  0  0  0  0  0  0  0  0
  1  3  2  0  0  0  0
  1  2  1  0  0  0  0
  3  5  1  0  0  0  0
  2  4  2  0  0  0  0
 11  7  2  0  0  0  0
  5  6  2  0  0  0  0
  4  6  1  0  0  0  0
  6  9  1  0  0  0  0
  7 10  1  0  0  0  0
  7  9  1  0  0  0  0
 10  8  1  0  0  0  0
  9 13  1  0  0  0  0
  8 12  2  0  0  0  0
  8 13  1  0  0  0  0
A    1
C1
A    2
C2
A    3
C6
A    4
C3
A    5
C5
A    6
C4
A    7
C8
A    8
C11
A    9
C7
A   10
N10
A   11
O9
A   12
O12
A   13
S13
M  END
>  <InstanceId>
5TYA_7QS_A_302

>  <ChemCompId>
7QS

>  <PdbId>
5TYA

>  <ChainId>
A

>  <ResidueNumber>
302

>  <InsertionCode>


>  <Model>
1

>  <AltIds>


>  <MissingHeavyAtoms>
0

>  <ObservedFormula>
C9 N O2 S

>  <Name>
(5R)-5-phenyl-1,3-thiazolidine-2,4-dione

>  <SystematicName>
(5~{R})-5-phenyl-1,3-thiazolidine-2,4-dione

>  <Synonyms>


>  <Type>
NON-POLYMER

>  <Formula>
C9 H7 N O2 S

>  <MolecularWeight>
193.222

>  <ModifiedDate>
2017-08-25

>  <Parent>


>  <OneLetterCode>


>  <SubcomponentList>


>  <AmbiguousFlag>
N

>  <InChI>
InChI=1S/C9H7NO2S/c11-8-7(13-9(12)10-8)6-4-2-1-3-5-6/h1-5,7H,(H,10,11,12)/t7-/m1/s1

>  <InChIKey>
CJOPVUUYQFODBM-SSDOTTSWSA-N

>  <SMILES>
c1ccc(cc1)[C@@H]2C(=O)NC(=O)S2

$$$$
