5H5F_SAM_A_301
  RCSB PDB12061717563D
Coordinates from PDB:5H5F:A:301 Model:1 without hydrogens
 27 29  0  0  0  0            999 V2000
  -20.3380   29.1720   28.7760   N 0  0  0  0  0  0  0  0  0  0  0  0
  -21.1800   28.1720   28.1250   C 0  0  0  0  0  0  0  0  0  0  0  0
  -22.6450   28.5200   28.2650   C 0  0  0  0  0  0  0  0  0  0  0  0
  -23.4620   28.0680   27.4300   O 0  0  0  0  0  0  0  0  0  0  0  0
  -23.0190   29.2580   29.2020   O 0  5  0  0  0  0  0  0  0  0  0  0
  -20.8590   26.7850   28.7190   C 0  0  0  0  0  0  0  0  0  0  0  0
  -19.5130   26.2480   28.2060   C 0  0  0  0  0  0  0  0  0  0  0  0
  -18.9270   24.8380   28.9160   S 0  3  0  0  0  0  0  0  0  0  0  0
  -17.5430   25.3500   29.6600   C 0  0  0  0  0  0  0  0  0  0  0  0
  -18.4640   23.8100   27.6860   C 0  0  0  0  0  0  0  0  0  0  0  0
  -19.5290   22.8820   27.0670   C 0  0  0  0  0  0  0  0  0  0  0  0
  -19.8160   21.7540   27.9050   O 0  0  0  0  0  0  0  0  0  0  0  0
  -20.8740   23.5410   26.7970   C 0  0  0  0  0  0  0  0  0  0  0  0
  -20.9300   24.1700   25.5160   O 0  0  0  0  0  0  0  0  0  0  0  0
  -21.8750   22.4190   26.9230   C 0  0  0  0  0  0  0  0  0  0  0  0
  -21.9540   21.7010   25.6850   O 0  0  0  0  0  0  0  0  0  0  0  0
  -21.2290   21.5110   27.9430   C 0  0  0  0  0  0  0  0  0  0  0  0
  -21.7250   21.8140   29.3120   N 0  0  0  0  0  0  0  0  0  0  0  0
  -21.0330   22.4010   30.3110   C 0  0  0  0  0  0  0  0  0  0  0  0
  -21.7820   22.4910   31.4420   N 0  0  0  0  0  0  0  0  0  0  0  0
  -22.9800   21.9370   31.1670   C 0  0  0  0  0  0  0  0  0  0  0  0
  -24.2380   21.6950   31.9020   C 0  0  0  0  0  0  0  0  0  0  0  0
  -24.3820   22.0700   33.1970   N 0  0  0  0  0  0  0  0  0  0  0  0
  -25.2430   21.0940   31.2320   N 0  0  0  0  0  0  0  0  0  0  0  0
  -25.1150   20.7030   29.9550   C 0  0  0  0  0  0  0  0  0  0  0  0
  -24.0080   20.8920   29.2240   N 0  0  0  0  0  0  0  0  0  0  0  0
  -22.9270   21.4900   29.7690   C 0  0  0  0  0  0  0  0  0  0  0  0
  1  2  1  0  0  0  0
  2  3  1  0  0  0  0
  2  6  1  0  0  0  0
  3  4  2  0  0  0  0
  3  5  1  0  0  0  0
  6  7  1  0  0  0  0
  7  8  1  0  0  0  0
  8  9  1  0  0  0  0
  8 10  1  0  0  0  0
 10 11  1  0  0  0  0
 11 12  1  0  0  0  0
 11 13  1  0  0  0  0
 12 17  1  0  0  0  0
 13 14  1  0  0  0  0
 13 15  1  0  0  0  0
 15 16  1  0  0  0  0
 15 17  1  0  0  0  0
 17 18  1  0  0  0  0
 18 19  1  0  0  0  0
 18 27  1  0  0  0  0
 19 20  2  0  0  0  0
 20 21  1  0  0  0  0
 21 22  1  0  0  0  0
 21 27  2  0  0  0  0
 22 23  1  0  0  0  0
 22 24  2  0  0  0  0
 24 25  1  0  0  0  0
 25 26  2  0  0  0  0
 26 27  1  0  0  0  0
M  CHG  2   5  -1   8   1
A    1
N
A    2
CA
A    3
C
A    4
O
A    5
OXT
A    6
CB
A    7
CG
A    8
SD
A    9
CE
A   10
C5'
A   11
C4'
A   12
O4'
A   13
C3'
A   14
O3'
A   15
C2'
A   16
O2'
A   17
C1'
A   18
N9
A   19
C8
A   20
N7
A   21
C5
A   22
C6
A   23
N6
A   24
N1
A   25
C2
A   26
N3
A   27
C4
M  END
>  <InstanceId>
5H5F_SAM_A_301

>  <ChemCompId>
SAM

>  <PdbId>
5H5F

>  <ChainId>
A

>  <ResidueNumber>
301

>  <InsertionCode>


>  <Model>
1

>  <AltIds>


>  <MissingHeavyAtoms>
0

>  <ObservedFormula>
C15 N6 O5 S

>  <Name>
S-ADENOSYLMETHIONINE

>  <SystematicName>
(2S)-2-amino-4-[[(2S,3S,4R,5R)-5-(6-aminopurin-9-yl)-3,4-dihydroxy-oxolan-2-yl]methyl-methyl-sulfonio]butanoate

>  <Synonyms>


>  <Type>
NON-POLYMER

>  <Formula>
C15 H22 N6 O5 S

>  <MolecularWeight>
398.437

>  <ModifiedDate>
2011-06-04

>  <Parent>


>  <OneLetterCode>


>  <SubcomponentList>


>  <AmbiguousFlag>
N

>  <InChI>
InChI=1S/C15H22N6O5S/c1-27(3-2-7(16)15(24)25)4-8-10(22)11(23)14(26-8)21-6-20-9-12(17)18-5-19-13(9)21/h5-8,10-11,14,22-23H,2-4,16H2,1H3,(H2-,17,18,19,24,25)/t7-,8+,10+,11+,14+,27-/m0/s1

>  <InChIKey>
MEFKEPWMEQBLKI-FCKMPRQPSA-N

>  <SMILES>
C[S@@+](CC[C@@H](C(=O)[O-])N)C[C@@H]1[C@H]([C@H]([C@@H](O1)n2cnc3c2ncnc3N)O)O

$$$$
