3G30_G30_A_1


 19 20  0  0  0  0  0  0  0  0999 V2000
   25.1293   41.7433   94.9073 N   0  0  0  0  0  0  0  0  0  0  0  0
   24.0667   41.9794   95.6845 C   0  0  0  0  0  0  0  0  0  0  0  0
   24.1043   41.7644   96.8944 O   0  0  0  0  0  0  0  0  0  0  0  0
   24.9488   41.4237   93.9937 H   0  0  0  0  0  0  0  0  0  0  0  0
   29.3477   40.2056   96.6985 F   0  0  0  0  0  0  0  0  0  0  0  0
   28.5837   41.1697   96.1364 C   0  0  0  0  0  0  0  0  0  0  0  0
   29.1515   42.4169   95.8728 C   0  0  0  0  0  0  0  0  0  0  0  0
   28.4035   43.4404   95.3045 C   0  0  0  0  0  0  0  0  0  0  0  0
   27.0620   43.2179   94.9811 C   0  0  0  0  0  0  0  0  0  0  0  0
   26.3337   44.1935   94.4203 F   0  0  0  0  0  0  0  0  0  0  0  0
   27.2362   40.9059   95.8288 C   0  0  0  0  0  0  0  0  0  0  0  0
   26.4323   41.9010   95.2542 C   0  0  0  0  0  0  0  0  0  0  0  0
   22.8040   42.5819   95.0643 C   0  0  0  0  0  0  0  0  0  0  0  0
   21.6943   41.7779   94.3166 C   0  0  0  0  0  0  0  0  0  0  0  0
   21.5834   42.0449   95.8156 C   0  0  0  0  0  0  0  0  0  0  0  0
   21.8084   40.2856   94.0474 C   0  0  0  0  0  0  0  0  0  0  0  0
   22.2213   39.5073   94.9528 O   0  0  0  0  0  0  0  0  0  0  0  0
   21.4376   39.8532   92.9342 O   0  0  0  0  0  0  0  0  0  0  0  0
   22.4942   39.8535   95.7796 H   0  0  0  0  0  0  0  0  0  0  0  0
  6  5  1  0  0  0
  7  6  2  0  0  0
  6 11  1  0  0  0
  8  7  1  0  0  0
  8  9  2  0  0  0
 10  9  1  0  0  0
  9 12  1  0  0  0
 12 11  2  0  0  0
 12  1  1  0  0  0
  1  2  1  0  0  0
 13  2  1  0  0  0
  2  3  2  0  0  0
 14 13  1  0  0  0
 13 15  1  0  0  0
 16 14  1  0  0  0
 14 15  1  0  0  0
 18 16  2  0  0  0
 17 16  1  0  0  0
  1  4  1  0  0  0
 17 19  1  0  0  0
M  END
> <minimizedAffinity>
-6.62022

$$$$
3G30_G30_A_1


 19 20  0  0  0  0  0  0  0  0999 V2000
   21.0825   41.7731   94.1061 N   0  0  0  0  0  0  0  0  0  0  0  0
   21.9785   40.9293   94.6298 C   0  0  0  0  0  0  0  0  0  0  0  0
   22.1809   39.8255   94.1275 O   0  0  0  0  0  0  0  0  0  0  0  0
   20.5834   42.3391   94.7384 H   0  0  0  0  0  0  0  0  0  0  0  0
   19.0894   40.3925   89.9241 F   0  0  0  0  0  0  0  0  0  0  0  0
   19.7967   41.2798   90.6600 C   0  0  0  0  0  0  0  0  0  0  0  0
   20.2626   42.4462   90.0516 C   0  0  0  0  0  0  0  0  0  0  0  0
   21.0007   43.3822   90.7652 C   0  0  0  0  0  0  0  0  0  0  0  0
   21.2749   43.1602   92.1176 C   0  0  0  0  0  0  0  0  0  0  0  0
   21.9747   44.0623   92.8198 F   0  0  0  0  0  0  0  0  0  0  0  0
   20.0536   41.0170   92.0183 C   0  0  0  0  0  0  0  0  0  0  0  0
   20.7937   41.9258   92.7885 C   0  0  0  0  0  0  0  0  0  0  0  0
   22.8055   41.3707   95.8394 C   0  0  0  0  0  0  0  0  0  0  0  0
   24.2771   41.8887   95.7855 C   0  0  0  0  0  0  0  0  0  0  0  0
   23.1065   42.8658   95.7096 C   0  0  0  0  0  0  0  0  0  0  0  0
   25.0843   41.9219   94.4971 C   0  0  0  0  0  0  0  0  0  0  0  0
   25.8993   40.9931   94.2350 O   0  0  0  0  0  0  0  0  0  0  0  0
   24.8811   42.8581   93.6934 O   0  0  0  0  0  0  0  0  0  0  0  0
   26.0358   40.3015   94.8522 H   0  0  0  0  0  0  0  0  0  0  0  0
  6  5  1  0  0  0
  7  6  2  0  0  0
  6 11  1  0  0  0
  8  7  1  0  0  0
  8  9  2  0  0  0
 10  9  1  0  0  0
  9 12  1  0  0  0
 12 11  2  0  0  0
 12  1  1  0  0  0
  1  2  1  0  0  0
 13  2  1  0  0  0
  2  3  2  0  0  0
 14 13  1  0  0  0
 13 15  1  0  0  0
 16 14  1  0  0  0
 14 15  1  0  0  0
 18 16  2  0  0  0
 17 16  1  0  0  0
  1  4  1  0  0  0
 17 19  1  0  0  0
M  END
> <minimizedAffinity>
-6.60305

$$$$
3G30_G30_A_1


 19 20  0  0  0  0  0  0  0  0999 V2000
   21.7247   42.8684   92.9705 N   0  0  0  0  0  0  0  0  0  0  0  0
   21.8698   42.4364   91.7130 C   0  0  0  0  0  0  0  0  0  0  0  0
   22.9849   42.2491   91.2304 O   0  0  0  0  0  0  0  0  0  0  0  0
   20.9671   43.4716   93.1480 H   0  0  0  0  0  0  0  0  0  0  0  0
   23.2810   39.9639   96.5075 F   0  0  0  0  0  0  0  0  0  0  0  0
   23.3478   41.1243   95.8158 C   0  0  0  0  0  0  0  0  0  0  0  0
   24.2973   42.0788   96.1834 C   0  0  0  0  0  0  0  0  0  0  0  0
   24.3972   43.2888   95.5080 C   0  0  0  0  0  0  0  0  0  0  0  0
   23.5407   43.5540   94.4358 C   0  0  0  0  0  0  0  0  0  0  0  0
   23.6364   44.7124   93.7681 F   0  0  0  0  0  0  0  0  0  0  0  0
   22.4650   41.3536   94.7444 C   0  0  0  0  0  0  0  0  0  0  0  0
   22.5193   42.5569   94.0262 C   0  0  0  0  0  0  0  0  0  0  0  0
   20.6249   42.1149   90.8830 C   0  0  0  0  0  0  0  0  0  0  0  0
   19.8248   40.7756   90.9386 C   0  0  0  0  0  0  0  0  0  0  0  0
   19.4324   41.9522   91.8287 C   0  0  0  0  0  0  0  0  0  0  0  0
   20.2707   39.5926   91.7836 C   0  0  0  0  0  0  0  0  0  0  0  0
   19.6573   39.3082   92.8507 O   0  0  0  0  0  0  0  0  0  0  0  0
   21.2181   38.8901   91.3684 O   0  0  0  0  0  0  0  0  0  0  0  0
   18.9502   39.8490   93.1430 H   0  0  0  0  0  0  0  0  0  0  0  0
  6  5  1  0  0  0
  7  6  2  0  0  0
  6 11  1  0  0  0
  8  7  1  0  0  0
  8  9  2  0  0  0
 10  9  1  0  0  0
  9 12  1  0  0  0
 12 11  2  0  0  0
 12  1  1  0  0  0
  1  2  1  0  0  0
 13  2  1  0  0  0
  2  3  2  0  0  0
 14 13  1  0  0  0
 13 15  1  0  0  0
 16 14  1  0  0  0
 14 15  1  0  0  0
 18 16  2  0  0  0
 17 16  1  0  0  0
  1  4  1  0  0  0
 17 19  1  0  0  0
M  END
> <minimizedAffinity>
-6.60193

$$$$
3G30_G30_A_1


 19 20  0  0  0  0  0  0  0  0999 V2000
   21.6163   43.4367   91.9551 N   0  0  0  0  0  0  0  0  0  0  0  0
   21.6640   42.4816   91.0200 C   0  0  0  0  0  0  0  0  0  0  0  0
   22.7318   41.9713   90.6871 O   0  0  0  0  0  0  0  0  0  0  0  0
   20.9386   44.1409   91.8360 H   0  0  0  0  0  0  0  0  0  0  0  0
   25.3612   45.2053   94.4482 F   0  0  0  0  0  0  0  0  0  0  0  0
   24.2779   44.4010   94.3547 C   0  0  0  0  0  0  0  0  0  0  0  0
   23.9224   43.6126   95.4501 C   0  0  0  0  0  0  0  0  0  0  0  0
   22.8231   42.7648   95.3974 C   0  0  0  0  0  0  0  0  0  0  0  0
   22.0522   42.7049   94.2331 C   0  0  0  0  0  0  0  0  0  0  0  0
   20.9814   41.9005   94.1750 F   0  0  0  0  0  0  0  0  0  0  0  0
   23.5301   44.3678   93.1632 C   0  0  0  0  0  0  0  0  0  0  0  0
   22.4104   43.5308   93.0520 C   0  0  0  0  0  0  0  0  0  0  0  0
   20.3602   41.9764   90.3979 C   0  0  0  0  0  0  0  0  0  0  0  0
   19.6168   40.6645   90.8020 C   0  0  0  0  0  0  0  0  0  0  0  0
   19.2664   41.9925   91.4685 C   0  0  0  0  0  0  0  0  0  0  0  0
   20.1805   39.6878   91.8221 C   0  0  0  0  0  0  0  0  0  0  0  0
   21.3487   39.2279   91.6820 O   0  0  0  0  0  0  0  0  0  0  0  0
   19.4801   39.3982   92.8167 O   0  0  0  0  0  0  0  0  0  0  0  0
   21.8557   39.4584   90.9285 H   0  0  0  0  0  0  0  0  0  0  0  0
  6  5  1  0  0  0
  7  6  2  0  0  0
  6 11  1  0  0  0
  8  7  1  0  0  0
  8  9  2  0  0  0
 10  9  1  0  0  0
  9 12  1  0  0  0
 12 11  2  0  0  0
 12  1  1  0  0  0
  1  2  1  0  0  0
 13  2  1  0  0  0
  2  3  2  0  0  0
 14 13  1  0  0  0
 13 15  1  0  0  0
 16 14  1  0  0  0
 14 15  1  0  0  0
 18 16  2  0  0  0
 17 16  1  0  0  0
  1  4  1  0  0  0
 17 19  1  0  0  0
M  END
> <minimizedAffinity>
-6.52001

$$$$
3G30_G30_A_1


 19 20  0  0  0  0  0  0  0  0999 V2000
   24.7246   43.2491   94.5948 N   0  0  0  0  0  0  0  0  0  0  0  0
   23.7702   42.8808   93.7331 C   0  0  0  0  0  0  0  0  0  0  0  0
   24.0540   42.4434   92.6197 O   0  0  0  0  0  0  0  0  0  0  0  0
   24.5229   44.0150   95.1796 H   0  0  0  0  0  0  0  0  0  0  0  0
   29.4569   42.8390   93.6978 F   0  0  0  0  0  0  0  0  0  0  0  0
   28.3347   42.4304   94.3326 C   0  0  0  0  0  0  0  0  0  0  0  0
   28.4093   41.3510   95.2141 C   0  0  0  0  0  0  0  0  0  0  0  0
   27.2815   40.8904   95.8819 C   0  0  0  0  0  0  0  0  0  0  0  0
   26.0517   41.5223   95.6774 C   0  0  0  0  0  0  0  0  0  0  0  0
   24.9591   41.0953   96.3261 F   0  0  0  0  0  0  0  0  0  0  0  0
   27.1154   43.0919   94.0965 C   0  0  0  0  0  0  0  0  0  0  0  0
   25.9439   42.6709   94.7422 C   0  0  0  0  0  0  0  0  0  0  0  0
   22.3036   42.9511   94.1645 C   0  0  0  0  0  0  0  0  0  0  0  0
   21.3696   41.7207   94.3898 C   0  0  0  0  0  0  0  0  0  0  0  0
   22.1676   42.3125   95.5489 C   0  0  0  0  0  0  0  0  0  0  0  0
   21.8158   40.2945   94.1080 C   0  0  0  0  0  0  0  0  0  0  0  0
   22.5629   39.6898   94.9278 O   0  0  0  0  0  0  0  0  0  0  0  0
   21.3845   39.7300   93.0790 O   0  0  0  0  0  0  0  0  0  0  0  0
   22.8745   40.1327   95.6925 H   0  0  0  0  0  0  0  0  0  0  0  0
  6  5  1  0  0  0
  7  6  2  0  0  0
  6 11  1  0  0  0
  8  7  1  0  0  0
  8  9  2  0  0  0
 10  9  1  0  0  0
  9 12  1  0  0  0
 12 11  2  0  0  0
 12  1  1  0  0  0
  1  2  1  0  0  0
 13  2  1  0  0  0
  2  3  2  0  0  0
 14 13  1  0  0  0
 13 15  1  0  0  0
 16 14  1  0  0  0
 14 15  1  0  0  0
 18 16  2  0  0  0
 17 16  1  0  0  0
  1  4  1  0  0  0
 17 19  1  0  0  0
M  END
> <minimizedAffinity>
-6.51793

$$$$
3G30_G30_A_1


 19 20  0  0  0  0  0  0  0  0999 V2000
   21.2389   42.2105   92.5442 N   0  0  0  0  0  0  0  0  0  0  0  0
   22.5110   42.6003   92.6821 C   0  0  0  0  0  0  0  0  0  0  0  0
   23.3591   42.3098   91.8407 O   0  0  0  0  0  0  0  0  0  0  0  0
   20.7512   41.9872   93.3698 H   0  0  0  0  0  0  0  0  0  0  0  0
   18.6980   43.9577   88.8215 F   0  0  0  0  0  0  0  0  0  0  0  0
   19.2801   42.9262   89.4746 C   0  0  0  0  0  0  0  0  0  0  0  0
   19.1972   41.6447   88.9283 C   0  0  0  0  0  0  0  0  0  0  0  0
   19.7721   40.5534   89.5676 C   0  0  0  0  0  0  0  0  0  0  0  0
   20.4540   40.7398   90.7733 C   0  0  0  0  0  0  0  0  0  0  0  0
   21.0242   39.6967   91.3928 F   0  0  0  0  0  0  0  0  0  0  0  0
   19.9548   43.1560   90.6878 C   0  0  0  0  0  0  0  0  0  0  0  0
   20.5542   42.0924   91.3780 C   0  0  0  0  0  0  0  0  0  0  0  0
   22.9022   43.4714   93.8779 C   0  0  0  0  0  0  0  0  0  0  0  0
   22.7433   43.0687   95.3777 C   0  0  0  0  0  0  0  0  0  0  0  0
   24.0450   42.7867   94.6315 C   0  0  0  0  0  0  0  0  0  0  0  0
   22.0827   41.7685   95.8083 C   0  0  0  0  0  0  0  0  0  0  0  0
   20.8687   41.7589   96.1574 O   0  0  0  0  0  0  0  0  0  0  0  0
   22.7555   40.7157   95.7579 O   0  0  0  0  0  0  0  0  0  0  0  0
   20.3837   42.5600   96.1880 H   0  0  0  0  0  0  0  0  0  0  0  0
  6  5  1  0  0  0
  7  6  2  0  0  0
  6 11  1  0  0  0
  8  7  1  0  0  0
  8  9  2  0  0  0
 10  9  1  0  0  0
  9 12  1  0  0  0
 12 11  2  0  0  0
 12  1  1  0  0  0
  1  2  1  0  0  0
 13  2  1  0  0  0
  2  3  2  0  0  0
 14 13  1  0  0  0
 13 15  1  0  0  0
 16 14  1  0  0  0
 14 15  1  0  0  0
 18 16  2  0  0  0
 17 16  1  0  0  0
  1  4  1  0  0  0
 17 19  1  0  0  0
M  END
> <minimizedAffinity>
-6.41306

$$$$
3G30_G30_A_1


 19 20  0  0  0  0  0  0  0  0999 V2000
   21.7039   41.7662   92.6839 N   0  0  0  0  0  0  0  0  0  0  0  0
   22.8088   42.5177   92.7428 C   0  0  0  0  0  0  0  0  0  0  0  0
   23.6284   42.5151   91.8264 O   0  0  0  0  0  0  0  0  0  0  0  0
   21.3787   41.3880   93.5326 H   0  0  0  0  0  0  0  0  0  0  0  0
   20.0154   38.7710   89.2861 F   0  0  0  0  0  0  0  0  0  0  0  0
   20.0997   40.0017   89.8404 C   0  0  0  0  0  0  0  0  0  0  0  0
   19.4022   41.0586   89.2538 C   0  0  0  0  0  0  0  0  0  0  0  0
   19.4657   42.3418   89.7826 C   0  0  0  0  0  0  0  0  0  0  0  0
   20.2322   42.5800   90.9269 C   0  0  0  0  0  0  0  0  0  0  0  0
   20.2906   43.8111   91.4540 F   0  0  0  0  0  0  0  0  0  0  0  0
   20.8849   40.2000   90.9911 C   0  0  0  0  0  0  0  0  0  0  0  0
   20.9869   41.4738   91.5689 C   0  0  0  0  0  0  0  0  0  0  0  0
   23.0249   43.4391   93.9454 C   0  0  0  0  0  0  0  0  0  0  0  0
   22.6939   43.0798   95.4281 C   0  0  0  0  0  0  0  0  0  0  0  0
   24.0850   42.8165   94.8571 C   0  0  0  0  0  0  0  0  0  0  0  0
   22.0223   41.7734   95.8211 C   0  0  0  0  0  0  0  0  0  0  0  0
   20.8248   41.7715   96.2232 O   0  0  0  0  0  0  0  0  0  0  0  0
   22.6674   40.7106   95.6871 O   0  0  0  0  0  0  0  0  0  0  0  0
   20.3606   42.5800   96.3163 H   0  0  0  0  0  0  0  0  0  0  0  0
  6  5  1  0  0  0
  7  6  2  0  0  0
  6 11  1  0  0  0
  8  7  1  0  0  0
  8  9  2  0  0  0
 10  9  1  0  0  0
  9 12  1  0  0  0
 12 11  2  0  0  0
 12  1  1  0  0  0
  1  2  1  0  0  0
 13  2  1  0  0  0
  2  3  2  0  0  0
 14 13  1  0  0  0
 13 15  1  0  0  0
 16 14  1  0  0  0
 14 15  1  0  0  0
 18 16  2  0  0  0
 17 16  1  0  0  0
  1  4  1  0  0  0
 17 19  1  0  0  0
M  END
> <minimizedAffinity>
-6.39417

$$$$
3G30_G30_A_1


 19 20  0  0  0  0  0  0  0  0999 V2000
   24.9963   41.7912   95.2209 N   0  0  0  0  0  0  0  0  0  0  0  0
   24.4105   42.8840   94.7194 C   0  0  0  0  0  0  0  0  0  0  0  0
   24.6536   44.0003   95.1736 O   0  0  0  0  0  0  0  0  0  0  0  0
   24.4580   40.9670   95.2375 H   0  0  0  0  0  0  0  0  0  0  0  0
   28.3256   42.1874   98.7032 F   0  0  0  0  0  0  0  0  0  0  0  0
   27.9737   41.8781   97.4345 C   0  0  0  0  0  0  0  0  0  0  0  0
   28.9543   41.4270   96.5498 C   0  0  0  0  0  0  0  0  0  0  0  0
   28.6416   41.1058   95.2348 C   0  0  0  0  0  0  0  0  0  0  0  0
   27.3221   41.2259   94.7896 C   0  0  0  0  0  0  0  0  0  0  0  0
   27.0058   40.9063   93.5268 F   0  0  0  0  0  0  0  0  0  0  0  0
   26.6345   42.0158   97.0251 C   0  0  0  0  0  0  0  0  0  0  0  0
   26.2600   41.7066   95.7095 C   0  0  0  0  0  0  0  0  0  0  0  0
   23.4671   42.7458   93.5223 C   0  0  0  0  0  0  0  0  0  0  0  0
   22.2203   41.8085   93.4599 C   0  0  0  0  0  0  0  0  0  0  0  0
   22.0817   43.2552   93.9273 C   0  0  0  0  0  0  0  0  0  0  0  0
   21.8637   40.8482   94.5837 C   0  0  0  0  0  0  0  0  0  0  0  0
   22.4300   39.7215   94.6590 O   0  0  0  0  0  0  0  0  0  0  0  0
   21.0414   41.2243   95.4474 O   0  0  0  0  0  0  0  0  0  0  0  0
   23.0430   39.4603   94.0003 H   0  0  0  0  0  0  0  0  0  0  0  0
  6  5  1  0  0  0
  7  6  2  0  0  0
  6 11  1  0  0  0
  8  7  1  0  0  0
  8  9  2  0  0  0
 10  9  1  0  0  0
  9 12  1  0  0  0
 12 11  2  0  0  0
 12  1  1  0  0  0
  1  2  1  0  0  0
 13  2  1  0  0  0
  2  3  2  0  0  0
 14 13  1  0  0  0
 13 15  1  0  0  0
 16 14  1  0  0  0
 14 15  1  0  0  0
 18 16  2  0  0  0
 17 16  1  0  0  0
  1  4  1  0  0  0
 17 19  1  0  0  0
M  END
> <minimizedAffinity>
-6.38570

$$$$
3G30_G30_A_1


 19 20  0  0  0  0  0  0  0  0999 V2000
   20.9506   41.6114   93.8516 N   0  0  0  0  0  0  0  0  0  0  0  0
   21.9182   40.9803   94.5258 C   0  0  0  0  0  0  0  0  0  0  0  0
   22.3508   39.8933   94.1479 O   0  0  0  0  0  0  0  0  0  0  0  0
   20.3038   42.1288   94.3836 H   0  0  0  0  0  0  0  0  0  0  0  0
   21.5048   43.4349   89.4091 F   0  0  0  0  0  0  0  0  0  0  0  0
   21.0353   42.4807   90.2447 C   0  0  0  0  0  0  0  0  0  0  0  0
   20.3271   41.4023   89.7125 C   0  0  0  0  0  0  0  0  0  0  0  0
   19.8183   40.4029   90.5326 C   0  0  0  0  0  0  0  0  0  0  0  0
   20.0256   40.4702   91.9132 C   0  0  0  0  0  0  0  0  0  0  0  0
   19.5509   39.5051   92.7133 F   0  0  0  0  0  0  0  0  0  0  0  0
   21.2630   42.5874   91.6292 C   0  0  0  0  0  0  0  0  0  0  0  0
   20.7728   41.6086   92.5058 C   0  0  0  0  0  0  0  0  0  0  0  0
   22.5356   41.6519   95.7546 C   0  0  0  0  0  0  0  0  0  0  0  0
   23.9803   42.2384   95.8317 C   0  0  0  0  0  0  0  0  0  0  0  0
   22.8035   43.1230   95.4277 C   0  0  0  0  0  0  0  0  0  0  0  0
   24.9733   42.1157   94.6866 C   0  0  0  0  0  0  0  0  0  0  0  0
   25.4187   40.9820   94.3518 O   0  0  0  0  0  0  0  0  0  0  0  0
   25.2913   43.1519   94.0631 O   0  0  0  0  0  0  0  0  0  0  0  0
   25.1670   40.2188   94.8335 H   0  0  0  0  0  0  0  0  0  0  0  0
  6  5  1  0  0  0
  7  6  2  0  0  0
  6 11  1  0  0  0
  8  7  1  0  0  0
  8  9  2  0  0  0
 10  9  1  0  0  0
  9 12  1  0  0  0
 12 11  2  0  0  0
 12  1  1  0  0  0
  1  2  1  0  0  0
 13  2  1  0  0  0
  2  3  2  0  0  0
 14 13  1  0  0  0
 13 15  1  0  0  0
 16 14  1  0  0  0
 14 15  1  0  0  0
 18 16  2  0  0  0
 17 16  1  0  0  0
  1  4  1  0  0  0
 17 19  1  0  0  0
M  END
> <minimizedAffinity>
-6.28678

$$$$
3G30_G30_A_1


 19 20  0  0  0  0  0  0  0  0999 V2000
   25.3384   43.2033   94.7699 N   0  0  0  0  0  0  0  0  0  0  0  0
   24.5573   42.5723   93.8863 C   0  0  0  0  0  0  0  0  0  0  0  0
   25.0253   42.0847   92.8593 O   0  0  0  0  0  0  0  0  0  0  0  0
   24.9441   43.9727   95.2408 H   0  0  0  0  0  0  0  0  0  0  0  0
   28.8076   40.2038   96.2981 F   0  0  0  0  0  0  0  0  0  0  0  0
   28.4082   41.4094   95.8332 C   0  0  0  0  0  0  0  0  0  0  0  0
   29.3608   42.4107   95.6394 C   0  0  0  0  0  0  0  0  0  0  0  0
   28.9964   43.6673   95.1721 C   0  0  0  0  0  0  0  0  0  0  0  0
   27.6556   43.9337   94.8809 C   0  0  0  0  0  0  0  0  0  0  0  0
   27.2937   45.1381   94.4168 F   0  0  0  0  0  0  0  0  0  0  0  0
   27.0479   41.6379   95.5550 C   0  0  0  0  0  0  0  0  0  0  0  0
   26.6213   42.8870   95.0813 C   0  0  0  0  0  0  0  0  0  0  0  0
   23.0666   42.4053   94.1893 C   0  0  0  0  0  0  0  0  0  0  0  0
   22.4758   41.6666   95.4312 C   0  0  0  0  0  0  0  0  0  0  0  0
   22.7377   43.1700   95.4738 C   0  0  0  0  0  0  0  0  0  0  0  0
   23.3504   40.9437   96.4435 C   0  0  0  0  0  0  0  0  0  0  0  0
   23.3968   39.6813   96.4551 O   0  0  0  0  0  0  0  0  0  0  0  0
   24.0511   41.6296   97.2195 O   0  0  0  0  0  0  0  0  0  0  0  0
   22.8627   39.1875   95.8645 H   0  0  0  0  0  0  0  0  0  0  0  0
  6  5  1  0  0  0
  7  6  2  0  0  0
  6 11  1  0  0  0
  8  7  1  0  0  0
  8  9  2  0  0  0
 10  9  1  0  0  0
  9 12  1  0  0  0
 12 11  2  0  0  0
 12  1  1  0  0  0
  1  2  1  0  0  0
 13  2  1  0  0  0
  2  3  2  0  0  0
 14 13  1  0  0  0
 13 15  1  0  0  0
 16 14  1  0  0  0
 14 15  1  0  0  0
 18 16  2  0  0  0
 17 16  1  0  0  0
  1  4  1  0  0  0
 17 19  1  0  0  0
M  END
> <minimizedAffinity>
-6.22509

$$$$
