4CA7_3EF_A_1715


 56 60  0  0  0  0  0  0  0  0999 V2000
   27.5942   -3.5807    9.6097 C   0  0  0  0  0  0  0  0  0  0  0  0
   29.7303   -2.5080    9.3097 O   0  0  0  0  0  0  0  0  0  0  0  0
   29.1349   -3.5290    9.6657 C   0  0  0  0  0  0  0  0  0  0  0  0
   29.7635   -4.6497   10.0751 N   0  0  0  0  0  0  0  0  0  0  0  0
   29.2323   -5.4300   10.3548 H   0  0  0  0  0  0  0  0  0  0  0  0
   31.2527   -4.7227   10.1097 C   0  0  0  0  0  0  0  0  0  0  0  0
   31.8173   -5.2638    8.7685 C   0  0  0  0  0  0  0  0  0  0  0  0
   32.9000   -4.7722    8.3556 O   0  0  0  0  0  0  0  0  0  0  0  0
   31.1645   -6.1676    8.1908 O   0  0  0  0  0  0  0  0  0  0  0  0
   30.3644   -6.4799    8.5653 H   0  0  0  0  0  0  0  0  0  0  0  0
   31.8197   -5.6713   11.1673 C   0  0  0  0  0  0  0  0  0  0  0  0
   31.1379   -6.7692   11.6825 C   0  0  0  0  0  0  0  0  0  0  0  0
   31.4560   -8.0486   11.2120 C   0  0  0  0  0  0  0  0  0  0  0  0
   30.2087   -6.6024   12.7163 C   0  0  0  0  0  0  0  0  0  0  0  0
   30.8168   -9.1732   11.7542 C   0  0  0  0  0  0  0  0  0  0  0  0
   29.5748   -7.7233   13.2557 C   0  0  0  0  0  0  0  0  0  0  0  0
   29.8845   -8.9986   12.7836 C   0  0  0  0  0  0  0  0  0  0  0  0
   29.2568  -10.0708   13.3394 O   0  0  0  0  0  0  0  0  0  0  0  0
   29.4506  -10.9361   13.0365 H   0  0  0  0  0  0  0  0  0  0  0  0
   27.1257   -4.4691    8.4349 C   0  0  0  0  0  0  0  0  0  0  0  0
   27.0854   -6.8585    9.4376 C   0  0  0  0  0  0  0  0  0  0  0  0
   28.5966   -7.9192    8.2370 N   0  0  0  0  0  0  0  0  0  0  0  0
   28.4733   -6.4847    7.7821 O   0  0  0  0  0  0  0  0  0  0  0  0
   27.5551   -5.9438    8.5669 C   0  0  0  0  0  0  0  0  0  0  0  0
   27.7136   -8.0328    9.2279 C   0  0  0  0  0  0  0  0  0  0  0  0
   27.0501  -11.5515   11.3135 C   0  0  0  0  0  0  0  0  0  0  0  0
   27.9789  -11.5256   10.2655 C   0  0  0  0  0  0  0  0  0  0  0  0
   26.3579  -10.3862   11.6578 C   0  0  0  0  0  0  0  0  0  0  0  0
   28.2084  -10.3438    9.5494 C   0  0  0  0  0  0  0  0  0  0  0  0
   26.5953   -9.2124   10.9434 C   0  0  0  0  0  0  0  0  0  0  0  0
   27.5153   -9.1797    9.8827 C   0  0  0  0  0  0  0  0  0  0  0  0
   27.0478   -2.1532    9.3764 C   0  0  0  0  0  0  0  0  0  0  0  0
   27.8253   -1.5790   11.9179 O   0  0  0  0  0  0  0  0  0  0  0  0
   26.6967   -1.3100   11.0109 P   0  0  0  0  0  0  0  0  0  0  0  0
   25.3414   -1.7343   11.4133 O   0  0  0  0  0  0  0  0  0  0  0  0
   25.3556   -2.6730   11.6575 H   0  0  0  0  0  0  0  0  0  0  0  0
   26.6497    0.4746   10.5510 C   0  0  0  0  0  0  0  0  0  0  0  0
   24.2103    1.1644   11.6860 O   0  0  0  0  0  0  0  0  0  0  0  0
   25.2389    1.4706   12.3010 C   0  0  0  0  0  0  0  0  0  0  0  0
   26.4427    1.1596   11.8219 N   0  0  0  0  0  0  0  0  0  0  0  0
   27.2340    1.4049   12.3538 H   0  0  0  0  0  0  0  0  0  0  0  0
   25.1961    2.1258   13.5019 O   0  0  0  0  0  0  0  0  0  0  0  0
   23.9297    2.3402   14.1492 C   0  0  0  0  0  0  0  0  0  0  0  0
   24.2964    5.7158   16.6446 C   0  0  0  0  0  0  0  0  0  0  0  0
   24.6300    4.4494   17.1317 C   0  0  0  0  0  0  0  0  0  0  0  0
   23.8326    5.8676   15.3319 C   0  0  0  0  0  0  0  0  0  0  0  0
   24.5027    3.3270   16.3038 C   0  0  0  0  0  0  0  0  0  0  0  0
   23.7117    4.7432   14.4987 C   0  0  0  0  0  0  0  0  0  0  0  0
   24.0579    3.4765   14.9841 C   0  0  0  0  0  0  0  0  0  0  0  0
   27.9353    1.0544    9.8964 C   0  0  0  0  0  0  0  0  0  0  0  0
   27.6905    2.3667    9.3970 C   0  0  0  0  0  0  0  0  0  0  0  0
   26.9203    2.5612    8.2448 C   0  0  0  0  0  0  0  0  0  0  0  0
   26.6661    3.8512    7.7590 C   0  0  0  0  0  0  0  0  0  0  0  0
   27.1969    4.9744    8.4070 C   0  0  0  0  0  0  0  0  0  0  0  0
   27.9780    4.7924    9.5645 C   0  0  0  0  0  0  0  0  0  0  0  0
   28.2193    3.5012   10.0414 C   0  0  0  0  0  0  0  0  0  0  0  0
  8  7  2  0  0  0
  7  6  1  0  0  0
  7  9  1  0  0  0
  6  4  1  0  0  0
  4  3  1  0  0  0
 11  6  1  0  0  0
 12 11  1  0  0  0
 13 12  2  0  0  0
 12 14  1  0  0  0
 18 17  1  0  0  0
 15 17  2  0  0  0
 17 16  1  0  0  0
 39 38  2  0  0  0
  3  2  2  0  0  0
 33 34  2  0  0  0
 34 35  1  0  0  0
 46 44  2  0  0  0
 44 45  1  0  0  0
 55 54  2  0  0  0
 53 54  1  0  0  0
 27 26  2  0  0  0
 26 28  1  0  0  0
 47 45  2  0  0  0
 48 46  1  0  0  0
 52 53  2  0  0  0
 56 55  1  0  0  0
 27 29  1  0  0  0
 28 30  2  0  0  0
 49 47  1  0  0  0
 48 49  2  0  0  0
 51 52  1  0  0  0
 51 56  2  0  0  0
 29 31  2  0  0  0
 30 31  1  0  0  0
 25 21  1  0  0  0
 21 24  2  0  0  0
 42 43  1  0  0  0
 43 49  1  0  0  0
 24 20  1  0  0  0
 20  1  1  0  0  0
 50 37  1  0  0  0
 50 51  1  0  0  0
  1 32  1  0  0  0
 32 34  1  0  0  0
 25 22  2  0  0  0
 22 23  1  0  0  0
 37 40  1  0  0  0
 40 39  1  0  0  0
 39 42  1  0  0  0
 23 24  1  0  0  0
  3  1  1  0  0  0
 31 25  1  0  0  0
 34 37  1  0  0  0
 15 13  1  0  0  0
 16 14  2  0  0  0
 35 36  1  0  0  0
 40 41  1  0  0  0
  4  5  1  0  0  0
 18 19  1  0  0  0
  9 10  1  0  0  0
M  END
> <minimizedAffinity>
-11.89220

$$$$
4CA7_3EF_A_1715


 56 60  0  0  0  0  0  0  0  0999 V2000
   28.0777   -8.0332    8.7844 C   0  0  0  0  0  0  0  0  0  0  0  0
   27.5720   -9.9370    7.3975 O   0  0  0  0  0  0  0  0  0  0  0  0
   28.3720   -9.0301    7.6445 C   0  0  0  0  0  0  0  0  0  0  0  0
   29.5405   -8.8727    6.9897 N   0  0  0  0  0  0  0  0  0  0  0  0
   30.1334   -8.1236    7.2274 H   0  0  0  0  0  0  0  0  0  0  0  0
   29.9462   -9.8183    5.9102 C   0  0  0  0  0  0  0  0  0  0  0  0
   31.4717  -10.1030    5.9605 C   0  0  0  0  0  0  0  0  0  0  0  0
   32.2480   -9.1473    5.6990 O   0  0  0  0  0  0  0  0  0  0  0  0
   31.8315  -11.2645    6.2736 O   0  0  0  0  0  0  0  0  0  0  0  0
   31.1883  -11.9217    6.4538 H   0  0  0  0  0  0  0  0  0  0  0  0
   29.7053   -9.3049    4.4896 C   0  0  0  0  0  0  0  0  0  0  0  0
   29.2369   -8.0309    4.1850 C   0  0  0  0  0  0  0  0  0  0  0  0
   27.8557   -7.8115    4.1231 C   0  0  0  0  0  0  0  0  0  0  0  0
   30.1335   -6.9674    4.0269 C   0  0  0  0  0  0  0  0  0  0  0  0
   27.3619   -6.5238    3.8677 C   0  0  0  0  0  0  0  0  0  0  0  0
   29.6398   -5.6861    3.7744 C   0  0  0  0  0  0  0  0  0  0  0  0
   28.2643   -5.4662    3.7049 C   0  0  0  0  0  0  0  0  0  0  0  0
   27.8162   -4.2029    3.4688 O   0  0  0  0  0  0  0  0  0  0  0  0
   26.8960   -4.0339    3.4184 H   0  0  0  0  0  0  0  0  0  0  0  0
   27.2286   -8.7074    9.8860 C   0  0  0  0  0  0  0  0  0  0  0  0
   27.4199  -10.9494   11.1718 C   0  0  0  0  0  0  0  0  0  0  0  0
   29.5845  -11.1199   11.5399 N   0  0  0  0  0  0  0  0  0  0  0  0
   29.2770   -9.8524   10.7791 O   0  0  0  0  0  0  0  0  0  0  0  0
   27.9631   -9.8463   10.6209 C   0  0  0  0  0  0  0  0  0  0  0  0
   28.3987  -11.7012   11.7142 C   0  0  0  0  0  0  0  0  0  0  0  0
   27.9008  -15.3057   13.6969 C   0  0  0  0  0  0  0  0  0  0  0  0
   29.0573  -15.0791   12.9401 C   0  0  0  0  0  0  0  0  0  0  0  0
   26.9235  -14.3096   13.7881 C   0  0  0  0  0  0  0  0  0  0  0  0
   29.2351  -13.8670   12.2609 C   0  0  0  0  0  0  0  0  0  0  0  0
   27.1098  -13.1037   13.1131 C   0  0  0  0  0  0  0  0  0  0  0  0
   28.2602  -12.8721   12.3413 C   0  0  0  0  0  0  0  0  0  0  0  0
   27.2688   -6.8427    8.2195 C   0  0  0  0  0  0  0  0  0  0  0  0
   27.7314   -4.5326    6.8621 O   0  0  0  0  0  0  0  0  0  0  0  0
   28.4006   -5.3982    7.8477 P   0  0  0  0  0  0  0  0  0  0  0  0
   29.7157   -5.9782    7.5113 O   0  0  0  0  0  0  0  0  0  0  0  0
   29.6601   -6.4303    6.6549 H   0  0  0  0  0  0  0  0  0  0  0  0
   28.5259   -4.5441    9.4767 C   0  0  0  0  0  0  0  0  0  0  0  0
   28.0195   -2.5990   11.3936 O   0  0  0  0  0  0  0  0  0  0  0  0
   27.3849   -2.5420   10.3334 C   0  0  0  0  0  0  0  0  0  0  0  0
   27.5861   -3.4344    9.3647 N   0  0  0  0  0  0  0  0  0  0  0  0
   27.0735   -3.3398    8.5295 H   0  0  0  0  0  0  0  0  0  0  0  0
   26.4617   -1.5601   10.0945 O   0  0  0  0  0  0  0  0  0  0  0  0
   26.3908   -0.4232   10.9726 C   0  0  0  0  0  0  0  0  0  0  0  0
   28.2115    2.8369    9.0199 C   0  0  0  0  0  0  0  0  0  0  0  0
   28.8739    1.6087    9.0910 C   0  0  0  0  0  0  0  0  0  0  0  0
   26.9474    2.9921    9.6023 C   0  0  0  0  0  0  0  0  0  0  0  0
   28.2708    0.5270    9.7448 C   0  0  0  0  0  0  0  0  0  0  0  0
   26.3388    1.9054   10.2519 C   0  0  0  0  0  0  0  0  0  0  0  0
   26.9983    0.6719   10.3117 C   0  0  0  0  0  0  0  0  0  0  0  0
   28.1355   -5.3803   10.7279 C   0  0  0  0  0  0  0  0  0  0  0  0
   29.3001   -5.9146   11.3521 C   0  0  0  0  0  0  0  0  0  0  0  0
   29.1911   -6.7968   12.4331 C   0  0  0  0  0  0  0  0  0  0  0  0
   30.3341   -7.3350   13.0403 C   0  0  0  0  0  0  0  0  0  0  0  0
   31.6133   -6.9834   12.5894 C   0  0  0  0  0  0  0  0  0  0  0  0
   31.7371   -6.0927   11.5057 C   0  0  0  0  0  0  0  0  0  0  0  0
   30.5894   -5.5676   10.9060 C   0  0  0  0  0  0  0  0  0  0  0  0
  8  7  2  0  0  0
  7  6  1  0  0  0
  7  9  1  0  0  0
  6  4  1  0  0  0
  4  3  1  0  0  0
 11  6  1  0  0  0
 12 11  1  0  0  0
 13 12  2  0  0  0
 12 14  1  0  0  0
 18 17  1  0  0  0
 15 17  2  0  0  0
 17 16  1  0  0  0
 39 38  2  0  0  0
  3  2  2  0  0  0
 33 34  2  0  0  0
 34 35  1  0  0  0
 46 44  2  0  0  0
 44 45  1  0  0  0
 55 54  2  0  0  0
 53 54  1  0  0  0
 27 26  2  0  0  0
 26 28  1  0  0  0
 47 45  2  0  0  0
 48 46  1  0  0  0
 52 53  2  0  0  0
 56 55  1  0  0  0
 27 29  1  0  0  0
 28 30  2  0  0  0
 49 47  1  0  0  0
 48 49  2  0  0  0
 51 52  1  0  0  0
 51 56  2  0  0  0
 29 31  2  0  0  0
 30 31  1  0  0  0
 25 21  1  0  0  0
 21 24  2  0  0  0
 42 43  1  0  0  0
 43 49  1  0  0  0
 24 20  1  0  0  0
 20  1  1  0  0  0
 50 37  1  0  0  0
 50 51  1  0  0  0
  1 32  1  0  0  0
 32 34  1  0  0  0
 25 22  2  0  0  0
 22 23  1  0  0  0
 37 40  1  0  0  0
 40 39  1  0  0  0
 39 42  1  0  0  0
 23 24  1  0  0  0
  3  1  1  0  0  0
 31 25  1  0  0  0
 34 37  1  0  0  0
 15 13  1  0  0  0
 16 14  2  0  0  0
 35 36  1  0  0  0
 40 41  1  0  0  0
  4  5  1  0  0  0
 18 19  1  0  0  0
  9 10  1  0  0  0
M  END
> <minimizedAffinity>
-11.01604

$$$$
4CA7_3EF_A_1715


 56 60  0  0  0  0  0  0  0  0999 V2000
   27.0059    0.8936   10.5572 C   0  0  0  0  0  0  0  0  0  0  0  0
   28.8140   -0.0146    9.2499 O   0  0  0  0  0  0  0  0  0  0  0  0
   27.8600   -0.2606    9.9933 C   0  0  0  0  0  0  0  0  0  0  0  0
   27.4797   -1.5118   10.3231 N   0  0  0  0  0  0  0  0  0  0  0  0
   26.7142   -1.6432   10.9281 H   0  0  0  0  0  0  0  0  0  0  0  0
   28.2033   -2.6989    9.7834 C   0  0  0  0  0  0  0  0  0  0  0  0
   27.3857   -3.3880    8.6577 C   0  0  0  0  0  0  0  0  0  0  0  0
   28.0021   -4.1753    7.8932 O   0  0  0  0  0  0  0  0  0  0  0  0
   26.1593   -3.1263    8.5930 O   0  0  0  0  0  0  0  0  0  0  0  0
   25.7755   -2.5266    9.2021 H   0  0  0  0  0  0  0  0  0  0  0  0
   28.4523   -3.8113   10.8033 C   0  0  0  0  0  0  0  0  0  0  0  0
   29.4237   -4.7978   10.6666 C   0  0  0  0  0  0  0  0  0  0  0  0
   29.1066   -6.1164   11.0129 C   0  0  0  0  0  0  0  0  0  0  0  0
   30.6711   -4.4889   10.1111 C   0  0  0  0  0  0  0  0  0  0  0  0
   30.0546   -7.1347   10.8350 C   0  0  0  0  0  0  0  0  0  0  0  0
   31.6128   -5.5042    9.9332 C   0  0  0  0  0  0  0  0  0  0  0  0
   31.3019   -6.8177   10.2843 C   0  0  0  0  0  0  0  0  0  0  0  0
   32.2386   -7.7853   10.0871 O   0  0  0  0  0  0  0  0  0  0  0  0
   32.0496   -8.6740   10.3163 H   0  0  0  0  0  0  0  0  0  0  0  0
   25.7046    0.3457   11.1860 C   0  0  0  0  0  0  0  0  0  0  0  0
   25.9131    1.8173   13.3090 C   0  0  0  0  0  0  0  0  0  0  0  0
   23.8143    2.2694   13.7998 N   0  0  0  0  0  0  0  0  0  0  0  0
   23.8930    1.4096   12.5610 O   0  0  0  0  0  0  0  0  0  0  0  0
   25.1836    1.1934   12.3635 C   0  0  0  0  0  0  0  0  0  0  0  0
   25.0836    2.4571   14.1575 C   0  0  0  0  0  0  0  0  0  0  0  0
   26.0722    4.7462   17.4673 C   0  0  0  0  0  0  0  0  0  0  0  0
   27.0464    4.4536   16.5046 C   0  0  0  0  0  0  0  0  0  0  0  0
   24.7668    4.2725   17.3017 C   0  0  0  0  0  0  0  0  0  0  0  0
   26.7262    3.6764   15.3840 C   0  0  0  0  0  0  0  0  0  0  0  0
   24.4546    3.5035   16.1811 C   0  0  0  0  0  0  0  0  0  0  0  0
   25.4277    3.1941   15.2167 C   0  0  0  0  0  0  0  0  0  0  0  0
   26.6146    1.8449    9.4027 C   0  0  0  0  0  0  0  0  0  0  0  0
   28.7102    3.4156    8.6715 O   0  0  0  0  0  0  0  0  0  0  0  0
   27.5317    3.4704    9.5528 P   0  0  0  0  0  0  0  0  0  0  0  0
   27.7312    3.7017   10.9970 O   0  0  0  0  0  0  0  0  0  0  0  0
   28.3745    3.0624   11.3411 H   0  0  0  0  0  0  0  0  0  0  0  0
   26.3072    4.6934    8.9177 C   0  0  0  0  0  0  0  0  0  0  0  0
   23.6556    4.9725    9.6961 O   0  0  0  0  0  0  0  0  0  0  0  0
   24.5250    5.4646   10.4255 C   0  0  0  0  0  0  0  0  0  0  0  0
   25.8176    5.3574   10.1204 N   0  0  0  0  0  0  0  0  0  0  0  0
   26.4768    5.7467   10.7394 H   0  0  0  0  0  0  0  0  0  0  0  0
   24.2102    6.1264   11.5815 O   0  0  0  0  0  0  0  0  0  0  0  0
   25.0554    5.9806   12.7360 C   0  0  0  0  0  0  0  0  0  0  0  0
   22.8407    7.2261   16.0976 C   0  0  0  0  0  0  0  0  0  0  0  0
   22.2244    6.4676   15.0989 C   0  0  0  0  0  0  0  0  0  0  0  0
   24.1904    7.5816   15.9826 C   0  0  0  0  0  0  0  0  0  0  0  0
   22.9595    6.0585   13.9792 C   0  0  0  0  0  0  0  0  0  0  0  0
   24.9300    7.1654   14.8632 C   0  0  0  0  0  0  0  0  0  0  0  0
   24.3146    6.3951   13.8693 C   0  0  0  0  0  0  0  0  0  0  0  0
   26.8550    5.7848    7.9553 C   0  0  0  0  0  0  0  0  0  0  0  0
   26.0399    5.8744    6.7896 C   0  0  0  0  0  0  0  0  0  0  0  0
   25.9089    7.0852    6.0999 C   0  0  0  0  0  0  0  0  0  0  0  0
   25.1192    7.1734    4.9452 C   0  0  0  0  0  0  0  0  0  0  0  0
   24.4261    6.0529    4.4684 C   0  0  0  0  0  0  0  0  0  0  0  0
   24.5452    4.8297    5.1559 C   0  0  0  0  0  0  0  0  0  0  0  0
   25.3400    4.7541    6.3028 C   0  0  0  0  0  0  0  0  0  0  0  0
  8  7  2  0  0  0
  7  6  1  0  0  0
  7  9  1  0  0  0
  6  4  1  0  0  0
  4  3  1  0  0  0
 11  6  1  0  0  0
 12 11  1  0  0  0
 13 12  2  0  0  0
 12 14  1  0  0  0
 18 17  1  0  0  0
 15 17  2  0  0  0
 17 16  1  0  0  0
 39 38  2  0  0  0
  3  2  2  0  0  0
 33 34  2  0  0  0
 34 35  1  0  0  0
 46 44  2  0  0  0
 44 45  1  0  0  0
 55 54  2  0  0  0
 53 54  1  0  0  0
 27 26  2  0  0  0
 26 28  1  0  0  0
 47 45  2  0  0  0
 48 46  1  0  0  0
 52 53  2  0  0  0
 56 55  1  0  0  0
 27 29  1  0  0  0
 28 30  2  0  0  0
 49 47  1  0  0  0
 48 49  2  0  0  0
 51 52  1  0  0  0
 51 56  2  0  0  0
 29 31  2  0  0  0
 30 31  1  0  0  0
 25 21  1  0  0  0
 21 24  2  0  0  0
 42 43  1  0  0  0
 43 49  1  0  0  0
 24 20  1  0  0  0
 20  1  1  0  0  0
 50 37  1  0  0  0
 50 51  1  0  0  0
  1 32  1  0  0  0
 32 34  1  0  0  0
 25 22  2  0  0  0
 22 23  1  0  0  0
 37 40  1  0  0  0
 40 39  1  0  0  0
 39 42  1  0  0  0
 23 24  1  0  0  0
  3  1  1  0  0  0
 31 25  1  0  0  0
 34 37  1  0  0  0
 15 13  1  0  0  0
 16 14  2  0  0  0
 35 36  1  0  0  0
 40 41  1  0  0  0
  4  5  1  0  0  0
 18 19  1  0  0  0
  9 10  1  0  0  0
M  END
> <minimizedAffinity>
-10.83033

$$$$
4CA7_3EF_A_1715


 56 60  0  0  0  0  0  0  0  0999 V2000
   28.8693   -8.0567    8.5575 C   0  0  0  0  0  0  0  0  0  0  0  0
   31.1081   -8.6912    7.9342 O   0  0  0  0  0  0  0  0  0  0  0  0
   29.9253   -8.6257    7.5876 C   0  0  0  0  0  0  0  0  0  0  0  0
   29.4889   -8.9932    6.3656 N   0  0  0  0  0  0  0  0  0  0  0  0
   28.5304   -8.9252    6.1514 H   0  0  0  0  0  0  0  0  0  0  0  0
   30.4391   -9.5013    5.3345 C   0  0  0  0  0  0  0  0  0  0  0  0
   30.4826   -8.5588    4.1014 C   0  0  0  0  0  0  0  0  0  0  0  0
   31.6132   -8.1643    3.7138 O   0  0  0  0  0  0  0  0  0  0  0  0
   29.3876   -8.2638    3.5623 O   0  0  0  0  0  0  0  0  0  0  0  0
   28.5867   -8.6001    3.9136 H   0  0  0  0  0  0  0  0  0  0  0  0
   30.0757  -10.8680    4.7515 C   0  0  0  0  0  0  0  0  0  0  0  0
   30.8341  -12.0214    4.9247 C   0  0  0  0  0  0  0  0  0  0  0  0
   31.7143  -12.4146    3.9097 C   0  0  0  0  0  0  0  0  0  0  0  0
   30.7787  -12.7289    6.1314 C   0  0  0  0  0  0  0  0  0  0  0  0
   32.5251  -13.5456    4.0852 C   0  0  0  0  0  0  0  0  0  0  0  0
   31.5878  -13.8534    6.3047 C   0  0  0  0  0  0  0  0  0  0  0  0
   32.4604  -14.2517    5.2921 C   0  0  0  0  0  0  0  0  0  0  0  0
   33.2436  -15.3456    5.4980 O   0  0  0  0  0  0  0  0  0  0  0  0
   33.8365  -15.6297    4.8304 H   0  0  0  0  0  0  0  0  0  0  0  0
   27.6709   -9.0252    8.6802 C   0  0  0  0  0  0  0  0  0  0  0  0
   27.6141  -10.9312   10.4353 C   0  0  0  0  0  0  0  0  0  0  0  0
   28.9645  -12.4381    9.5660 N   0  0  0  0  0  0  0  0  0  0  0  0
   28.8649  -11.2339    8.6604 O   0  0  0  0  0  0  0  0  0  0  0  0
   28.0447  -10.3971    9.2757 C   0  0  0  0  0  0  0  0  0  0  0  0
   28.1686  -12.1496   10.5945 C   0  0  0  0  0  0  0  0  0  0  0  0
   27.6175  -14.8274   13.7085 C   0  0  0  0  0  0  0  0  0  0  0  0
   27.0239  -13.5601   13.7642 C   0  0  0  0  0  0  0  0  0  0  0  0
   28.3857  -15.1870   12.5966 C   0  0  0  0  0  0  0  0  0  0  0  0
   27.2070  -12.6439   12.7205 C   0  0  0  0  0  0  0  0  0  0  0  0
   28.5594  -14.2713   11.5593 C   0  0  0  0  0  0  0  0  0  0  0  0
   27.9787  -12.9935   11.6119 C   0  0  0  0  0  0  0  0  0  0  0  0
   28.3427   -6.7135    8.0015 C   0  0  0  0  0  0  0  0  0  0  0  0
   26.6818   -6.9559   10.1406 O   0  0  0  0  0  0  0  0  0  0  0  0
   27.1689   -5.9136    9.2214 P   0  0  0  0  0  0  0  0  0  0  0  0
   26.1891   -5.1563    8.4181 O   0  0  0  0  0  0  0  0  0  0  0  0
   25.6126   -5.7753    7.9435 H   0  0  0  0  0  0  0  0  0  0  0  0
   28.2545   -4.7213   10.1151 C   0  0  0  0  0  0  0  0  0  0  0  0
   29.0405   -2.1408    9.4535 O   0  0  0  0  0  0  0  0  0  0  0  0
   27.8927   -2.3003    9.8860 C   0  0  0  0  0  0  0  0  0  0  0  0
   27.4444   -3.5123   10.2109 N   0  0  0  0  0  0  0  0  0  0  0  0
   26.5176   -3.5961   10.5324 H   0  0  0  0  0  0  0  0  0  0  0  0
   27.0248   -1.2530   10.0387 O   0  0  0  0  0  0  0  0  0  0  0  0
   27.3218   -0.2177   10.9918 C   0  0  0  0  0  0  0  0  0  0  0  0
   28.0159    3.3530    8.8647 C   0  0  0  0  0  0  0  0  0  0  0  0
   29.0935    2.5548    9.2573 C   0  0  0  0  0  0  0  0  0  0  0  0
   26.7051    2.9755    9.1822 C   0  0  0  0  0  0  0  0  0  0  0  0
   28.8627    1.3710    9.9690 C   0  0  0  0  0  0  0  0  0  0  0  0
   26.4727    1.7845    9.8897 C   0  0  0  0  0  0  0  0  0  0  0  0
   27.5524    0.9795   10.2718 C   0  0  0  0  0  0  0  0  0  0  0  0
   28.6883   -5.1244   11.5527 C   0  0  0  0  0  0  0  0  0  0  0  0
   29.6826   -6.1443   11.5045 C   0  0  0  0  0  0  0  0  0  0  0  0
   30.8984   -5.9273   10.8460 C   0  0  0  0  0  0  0  0  0  0  0  0
   31.8839   -6.9233   10.8086 C   0  0  0  0  0  0  0  0  0  0  0  0
   31.6631   -8.1676   11.4136 C   0  0  0  0  0  0  0  0  0  0  0  0
   30.4420   -8.4009   12.0752 C   0  0  0  0  0  0  0  0  0  0  0  0
   29.4700   -7.3975   12.1096 C   0  0  0  0  0  0  0  0  0  0  0  0
  8  7  2  0  0  0
  7  6  1  0  0  0
  7  9  1  0  0  0
  6  4  1  0  0  0
  4  3  1  0  0  0
 11  6  1  0  0  0
 12 11  1  0  0  0
 13 12  2  0  0  0
 12 14  1  0  0  0
 18 17  1  0  0  0
 15 17  2  0  0  0
 17 16  1  0  0  0
 39 38  2  0  0  0
  3  2  2  0  0  0
 33 34  2  0  0  0
 34 35  1  0  0  0
 46 44  2  0  0  0
 44 45  1  0  0  0
 55 54  2  0  0  0
 53 54  1  0  0  0
 27 26  2  0  0  0
 26 28  1  0  0  0
 47 45  2  0  0  0
 48 46  1  0  0  0
 52 53  2  0  0  0
 56 55  1  0  0  0
 27 29  1  0  0  0
 28 30  2  0  0  0
 49 47  1  0  0  0
 48 49  2  0  0  0
 51 52  1  0  0  0
 51 56  2  0  0  0
 29 31  2  0  0  0
 30 31  1  0  0  0
 25 21  1  0  0  0
 21 24  2  0  0  0
 42 43  1  0  0  0
 43 49  1  0  0  0
 24 20  1  0  0  0
 20  1  1  0  0  0
 50 37  1  0  0  0
 50 51  1  0  0  0
  1 32  1  0  0  0
 32 34  1  0  0  0
 25 22  2  0  0  0
 22 23  1  0  0  0
 37 40  1  0  0  0
 40 39  1  0  0  0
 39 42  1  0  0  0
 23 24  1  0  0  0
  3  1  1  0  0  0
 31 25  1  0  0  0
 34 37  1  0  0  0
 15 13  1  0  0  0
 16 14  2  0  0  0
 35 36  1  0  0  0
 40 41  1  0  0  0
  4  5  1  0  0  0
 18 19  1  0  0  0
  9 10  1  0  0  0
M  END
> <minimizedAffinity>
-10.70592

$$$$
4CA7_3EF_A_1715


 56 60  0  0  0  0  0  0  0  0999 V2000
   27.0353   -0.0973   10.2325 C   0  0  0  0  0  0  0  0  0  0  0  0
   26.6032   -2.2121   11.3022 O   0  0  0  0  0  0  0  0  0  0  0  0
   27.3318   -1.5815   10.5309 C   0  0  0  0  0  0  0  0  0  0  0  0
   28.4258   -2.1096    9.9452 N   0  0  0  0  0  0  0  0  0  0  0  0
   28.9629   -1.5575    9.3320 H   0  0  0  0  0  0  0  0  0  0  0  0
   28.8328   -3.5190   10.2140 C   0  0  0  0  0  0  0  0  0  0  0  0
   30.1304   -3.8829    9.4432 C   0  0  0  0  0  0  0  0  0  0  0  0
   31.2199   -3.7883   10.0663 O   0  0  0  0  0  0  0  0  0  0  0  0
   30.0067   -4.2624    8.2526 O   0  0  0  0  0  0  0  0  0  0  0  0
   29.1568   -4.3053    7.8605 H   0  0  0  0  0  0  0  0  0  0  0  0
   27.8189   -4.5719    9.7633 C   0  0  0  0  0  0  0  0  0  0  0  0
   27.7156   -5.8464   10.3114 C   0  0  0  0  0  0  0  0  0  0  0  0
   28.6079   -6.2264   11.3208 C   0  0  0  0  0  0  0  0  0  0  0  0
   26.6809   -6.7033    9.9175 C   0  0  0  0  0  0  0  0  0  0  0  0
   28.4891   -7.4879   11.9222 C   0  0  0  0  0  0  0  0  0  0  0  0
   26.5633   -7.9579   10.5186 C   0  0  0  0  0  0  0  0  0  0  0  0
   27.4556   -8.3418   11.5195 C   0  0  0  0  0  0  0  0  0  0  0  0
   27.3058   -9.5671   12.0928 O   0  0  0  0  0  0  0  0  0  0  0  0
   27.8947   -9.8442   12.7669 H   0  0  0  0  0  0  0  0  0  0  0  0
   28.2187    0.5487    9.4766 C   0  0  0  0  0  0  0  0  0  0  0  0
   28.4721    3.1250    9.3542 C   0  0  0  0  0  0  0  0  0  0  0  0
   27.0374    3.6841    7.7797 N   0  0  0  0  0  0  0  0  0  0  0  0
   27.0343    2.1888    7.9893 O   0  0  0  0  0  0  0  0  0  0  0  0
   27.9154    1.9660    8.9514 C   0  0  0  0  0  0  0  0  0  0  0  0
   27.9409    4.1412    8.6453 C   0  0  0  0  0  0  0  0  0  0  0  0
   28.9077    8.1636    8.8840 C   0  0  0  0  0  0  0  0  0  0  0  0
   28.4614    7.4839   10.0244 C   0  0  0  0  0  0  0  0  0  0  0  0
   29.0347    7.4784    7.6716 C   0  0  0  0  0  0  0  0  0  0  0  0
   28.1264    6.1256    9.9556 C   0  0  0  0  0  0  0  0  0  0  0  0
   28.7038    6.1250    7.6120 C   0  0  0  0  0  0  0  0  0  0  0  0
   28.2432    5.4380    8.7472 C   0  0  0  0  0  0  0  0  0  0  0  0
   26.8507    0.6605   11.5676 C   0  0  0  0  0  0  0  0  0  0  0  0
   24.1378    0.6399   11.7502 O   0  0  0  0  0  0  0  0  0  0  0  0
   25.2344    1.6057   11.5671 P   0  0  0  0  0  0  0  0  0  0  0  0
   25.2477    2.4487   10.3554 O   0  0  0  0  0  0  0  0  0  0  0  0
   25.1649    1.8863    9.5694 H   0  0  0  0  0  0  0  0  0  0  0  0
   25.3924    2.6910   13.0490 C   0  0  0  0  0  0  0  0  0  0  0  0
   26.7119    5.1351   13.0538 O   0  0  0  0  0  0  0  0  0  0  0  0
   25.5439    5.1118   12.6473 C   0  0  0  0  0  0  0  0  0  0  0  0
   24.8549    3.9721   12.6050 N   0  0  0  0  0  0  0  0  0  0  0  0
   23.9348    3.9960   12.2558 H   0  0  0  0  0  0  0  0  0  0  0  0
   24.9074    6.2416   12.2095 O   0  0  0  0  0  0  0  0  0  0  0  0
   23.9155    6.1414   11.1728 C   0  0  0  0  0  0  0  0  0  0  0  0
   25.3785    8.2099    7.8057 C   0  0  0  0  0  0  0  0  0  0  0  0
   25.1540    6.8327    7.7343 C   0  0  0  0  0  0  0  0  0  0  0  0
   25.1269    8.9056    8.9949 C   0  0  0  0  0  0  0  0  0  0  0  0
   24.6730    6.1446    8.8553 C   0  0  0  0  0  0  0  0  0  0  0  0
   24.6375    8.2172   10.1173 C   0  0  0  0  0  0  0  0  0  0  0  0
   24.4014    6.8394   10.0407 C   0  0  0  0  0  0  0  0  0  0  0  0
   24.6042    2.2519   14.3152 C   0  0  0  0  0  0  0  0  0  0  0  0
   25.0731    2.9565   15.4619 C   0  0  0  0  0  0  0  0  0  0  0  0
   26.3686    2.7484   15.9489 C   0  0  0  0  0  0  0  0  0  0  0  0
   26.8376    3.4500   17.0680 C   0  0  0  0  0  0  0  0  0  0  0  0
   26.0095    4.3613   17.7366 C   0  0  0  0  0  0  0  0  0  0  0  0
   24.7019    4.5763   17.2600 C   0  0  0  0  0  0  0  0  0  0  0  0
   24.2486    3.8742   16.1400 C   0  0  0  0  0  0  0  0  0  0  0  0
  8  7  2  0  0  0
  7  6  1  0  0  0
  7  9  1  0  0  0
  6  4  1  0  0  0
  4  3  1  0  0  0
 11  6  1  0  0  0
 12 11  1  0  0  0
 13 12  2  0  0  0
 12 14  1  0  0  0
 18 17  1  0  0  0
 15 17  2  0  0  0
 17 16  1  0  0  0
 39 38  2  0  0  0
  3  2  2  0  0  0
 33 34  2  0  0  0
 34 35  1  0  0  0
 46 44  2  0  0  0
 44 45  1  0  0  0
 55 54  2  0  0  0
 53 54  1  0  0  0
 27 26  2  0  0  0
 26 28  1  0  0  0
 47 45  2  0  0  0
 48 46  1  0  0  0
 52 53  2  0  0  0
 56 55  1  0  0  0
 27 29  1  0  0  0
 28 30  2  0  0  0
 49 47  1  0  0  0
 48 49  2  0  0  0
 51 52  1  0  0  0
 51 56  2  0  0  0
 29 31  2  0  0  0
 30 31  1  0  0  0
 25 21  1  0  0  0
 21 24  2  0  0  0
 42 43  1  0  0  0
 43 49  1  0  0  0
 24 20  1  0  0  0
 20  1  1  0  0  0
 50 37  1  0  0  0
 50 51  1  0  0  0
  1 32  1  0  0  0
 32 34  1  0  0  0
 25 22  2  0  0  0
 22 23  1  0  0  0
 37 40  1  0  0  0
 40 39  1  0  0  0
 39 42  1  0  0  0
 23 24  1  0  0  0
  3  1  1  0  0  0
 31 25  1  0  0  0
 34 37  1  0  0  0
 15 13  1  0  0  0
 16 14  2  0  0  0
 35 36  1  0  0  0
 40 41  1  0  0  0
  4  5  1  0  0  0
 18 19  1  0  0  0
  9 10  1  0  0  0
M  END
> <minimizedAffinity>
-10.49806

$$$$
4CA7_3EF_A_1715


 56 60  0  0  0  0  0  0  0  0999 V2000
   24.5318    3.2085   13.8131 C   0  0  0  0  0  0  0  0  0  0  0  0
   25.5314    5.3950   13.6598 O   0  0  0  0  0  0  0  0  0  0  0  0
   24.4834    4.7490   13.7481 C   0  0  0  0  0  0  0  0  0  0  0  0
   23.2647    5.3202   13.8340 N   0  0  0  0  0  0  0  0  0  0  0  0
   22.4643    4.7502   13.8941 H   0  0  0  0  0  0  0  0  0  0  0  0
   23.1136    6.8039   13.8391 C   0  0  0  0  0  0  0  0  0  0  0  0
   22.0836    7.2574   14.9086 C   0  0  0  0  0  0  0  0  0  0  0  0
   21.2851    8.1767   14.5903 O   0  0  0  0  0  0  0  0  0  0  0  0
   22.1048    6.6666   16.0165 O   0  0  0  0  0  0  0  0  0  0  0  0
   22.7336    5.9902   16.1748 H   0  0  0  0  0  0  0  0  0  0  0  0
   22.5840    7.3949   12.5314 C   0  0  0  0  0  0  0  0  0  0  0  0
   23.3494    7.5695   11.3829 C   0  0  0  0  0  0  0  0  0  0  0  0
   23.6384    6.4574   10.5834 C   0  0  0  0  0  0  0  0  0  0  0  0
   23.7514    8.8516   10.9898 C   0  0  0  0  0  0  0  0  0  0  0  0
   24.3652    6.6193    9.3947 C   0  0  0  0  0  0  0  0  0  0  0  0
   24.4734    9.0108    9.8054 C   0  0  0  0  0  0  0  0  0  0  0  0
   24.7690    7.9034    9.0107 C   0  0  0  0  0  0  0  0  0  0  0  0
   25.4644    8.0951    7.8565 O   0  0  0  0  0  0  0  0  0  0  0  0
   25.6732    7.3644    7.3084 H   0  0  0  0  0  0  0  0  0  0  0  0
   24.2081    2.7175   15.2425 C   0  0  0  0  0  0  0  0  0  0  0  0
   25.9314    3.7436   16.8838 C   0  0  0  0  0  0  0  0  0  0  0  0
   24.7575    5.2901   17.9231 N   0  0  0  0  0  0  0  0  0  0  0  0
   23.9037    4.5769   16.9022 O   0  0  0  0  0  0  0  0  0  0  0  0
   24.6968    3.6735   16.3488 C   0  0  0  0  0  0  0  0  0  0  0  0
   25.9540    4.7137   17.8196 C   0  0  0  0  0  0  0  0  0  0  0  0
   29.1704    5.8323   20.1806 C   0  0  0  0  0  0  0  0  0  0  0  0
   28.8849    6.5426   19.0078 C   0  0  0  0  0  0  0  0  0  0  0  0
   28.3619    4.7544   20.5549 C   0  0  0  0  0  0  0  0  0  0  0  0
   27.8037    6.1711   18.1983 C   0  0  0  0  0  0  0  0  0  0  0  0
   27.2844    4.3936   19.7464 C   0  0  0  0  0  0  0  0  0  0  0  0
   26.9978    5.0918   18.5618 C   0  0  0  0  0  0  0  0  0  0  0  0
   25.9584    2.7311   13.4558 C   0  0  0  0  0  0  0  0  0  0  0  0
   24.4848    0.9913   11.9743 O   0  0  0  0  0  0  0  0  0  0  0  0
   25.8875    1.2108   12.3653 P   0  0  0  0  0  0  0  0  0  0  0  0
   26.5998    0.1437   13.0954 O   0  0  0  0  0  0  0  0  0  0  0  0
   26.0772   -0.1243   13.8674 H   0  0  0  0  0  0  0  0  0  0  0  0
   26.8950    1.7063   10.9031 C   0  0  0  0  0  0  0  0  0  0  0  0
   29.4158    1.0316    9.9519 O   0  0  0  0  0  0  0  0  0  0  0  0
   28.5179    0.1865    9.8539 C   0  0  0  0  0  0  0  0  0  0  0  0
   27.2881    0.4374   10.3010 N   0  0  0  0  0  0  0  0  0  0  0  0
   26.6091   -0.2710   10.2208 H   0  0  0  0  0  0  0  0  0  0  0  0
   28.7407   -1.0452    9.2999 O   0  0  0  0  0  0  0  0  0  0  0  0
   27.8411   -2.1286    9.5923 C   0  0  0  0  0  0  0  0  0  0  0  0
   30.1578   -5.4449   10.7718 C   0  0  0  0  0  0  0  0  0  0  0  0
   30.6932   -4.4966    9.8964 C   0  0  0  0  0  0  0  0  0  0  0  0
   28.8504   -5.3025   11.2533 C   0  0  0  0  0  0  0  0  0  0  0  0
   29.9210   -3.3975    9.5003 C   0  0  0  0  0  0  0  0  0  0  0  0
   28.0780   -4.1964   10.8621 C   0  0  0  0  0  0  0  0  0  0  0  0
   28.6200   -3.2405    9.9946 C   0  0  0  0  0  0  0  0  0  0  0  0
   26.1694    2.5494    9.8168 C   0  0  0  0  0  0  0  0  0  0  0  0
   26.8369    3.7941    9.6255 C   0  0  0  0  0  0  0  0  0  0  0  0
   27.1617    4.2411    8.3396 C   0  0  0  0  0  0  0  0  0  0  0  0
   27.8057    5.4711    8.1470 C   0  0  0  0  0  0  0  0  0  0  0  0
   28.1569    6.2710    9.2424 C   0  0  0  0  0  0  0  0  0  0  0  0
   27.8405    5.8306   10.5421 C   0  0  0  0  0  0  0  0  0  0  0  0
   27.1936    4.6047   10.7197 C   0  0  0  0  0  0  0  0  0  0  0  0
  8  7  2  0  0  0
  7  6  1  0  0  0
  7  9  1  0  0  0
  6  4  1  0  0  0
  4  3  1  0  0  0
 11  6  1  0  0  0
 12 11  1  0  0  0
 13 12  2  0  0  0
 12 14  1  0  0  0
 18 17  1  0  0  0
 15 17  2  0  0  0
 17 16  1  0  0  0
 39 38  2  0  0  0
  3  2  2  0  0  0
 33 34  2  0  0  0
 34 35  1  0  0  0
 46 44  2  0  0  0
 44 45  1  0  0  0
 55 54  2  0  0  0
 53 54  1  0  0  0
 27 26  2  0  0  0
 26 28  1  0  0  0
 47 45  2  0  0  0
 48 46  1  0  0  0
 52 53  2  0  0  0
 56 55  1  0  0  0
 27 29  1  0  0  0
 28 30  2  0  0  0
 49 47  1  0  0  0
 48 49  2  0  0  0
 51 52  1  0  0  0
 51 56  2  0  0  0
 29 31  2  0  0  0
 30 31  1  0  0  0
 25 21  1  0  0  0
 21 24  2  0  0  0
 42 43  1  0  0  0
 43 49  1  0  0  0
 24 20  1  0  0  0
 20  1  1  0  0  0
 50 37  1  0  0  0
 50 51  1  0  0  0
  1 32  1  0  0  0
 32 34  1  0  0  0
 25 22  2  0  0  0
 22 23  1  0  0  0
 37 40  1  0  0  0
 40 39  1  0  0  0
 39 42  1  0  0  0
 23 24  1  0  0  0
  3  1  1  0  0  0
 31 25  1  0  0  0
 34 37  1  0  0  0
 15 13  1  0  0  0
 16 14  2  0  0  0
 35 36  1  0  0  0
 40 41  1  0  0  0
  4  5  1  0  0  0
 18 19  1  0  0  0
  9 10  1  0  0  0
M  END
> <minimizedAffinity>
-10.44863

$$$$
4CA7_3EF_A_1715


 56 60  0  0  0  0  0  0  0  0999 V2000
   28.4267   -7.9234    7.9525 C   0  0  0  0  0  0  0  0  0  0  0  0
   28.5081   -7.7464    5.5514 O   0  0  0  0  0  0  0  0  0  0  0  0
   29.1480   -7.9393    6.5891 C   0  0  0  0  0  0  0  0  0  0  0  0
   30.4690   -8.2103    6.6065 N   0  0  0  0  0  0  0  0  0  0  0  0
   30.9255   -8.3467    7.4680 H   0  0  0  0  0  0  0  0  0  0  0  0
   31.2474   -8.3062    5.3380 C   0  0  0  0  0  0  0  0  0  0  0  0
   31.2846   -6.9407    4.6002 C   0  0  0  0  0  0  0  0  0  0  0  0
   31.9297   -6.0063    5.1435 O   0  0  0  0  0  0  0  0  0  0  0  0
   30.6809   -6.8621    3.5020 O   0  0  0  0  0  0  0  0  0  0  0  0
   30.2222   -7.6064    3.1652 H   0  0  0  0  0  0  0  0  0  0  0  0
   30.6681   -9.2761    4.3067 C   0  0  0  0  0  0  0  0  0  0  0  0
   30.6150  -10.6565    4.4715 C   0  0  0  0  0  0  0  0  0  0  0  0
   31.0312  -11.2123    5.6870 C   0  0  0  0  0  0  0  0  0  0  0  0
   30.0737  -11.4677    3.4670 C   0  0  0  0  0  0  0  0  0  0  0  0
   30.9382  -12.5967    5.8924 C   0  0  0  0  0  0  0  0  0  0  0  0
   29.9805  -12.8452    3.6742 C   0  0  0  0  0  0  0  0  0  0  0  0
   30.4013  -13.4025    4.8815 C   0  0  0  0  0  0  0  0  0  0  0  0
   30.2858  -14.7475    5.0552 O   0  0  0  0  0  0  0  0  0  0  0  0
   30.5627  -15.1416    5.8589 H   0  0  0  0  0  0  0  0  0  0  0  0
   27.7036   -9.2675    8.1970 C   0  0  0  0  0  0  0  0  0  0  0  0
   27.6920  -11.1233   10.0059 C   0  0  0  0  0  0  0  0  0  0  0  0
   29.5336  -10.7122   11.1415 N   0  0  0  0  0  0  0  0  0  0  0  0
   29.3728   -9.7158   10.0184 O   0  0  0  0  0  0  0  0  0  0  0  0
   28.2432  -10.0462    9.4131 C   0  0  0  0  0  0  0  0  0  0  0  0
   28.4734  -11.5114   11.0336 C   0  0  0  0  0  0  0  0  0  0  0  0
   27.8949  -14.7606   13.5395 C   0  0  0  0  0  0  0  0  0  0  0  0
   27.0628  -13.6391   13.6471 C   0  0  0  0  0  0  0  0  0  0  0  0
   28.9113  -14.7826   12.5793 C   0  0  0  0  0  0  0  0  0  0  0  0
   27.2514  -12.5323   12.8095 C   0  0  0  0  0  0  0  0  0  0  0  0
   29.0898  -13.6789   11.7458 C   0  0  0  0  0  0  0  0  0  0  0  0
   28.2687  -12.5446   11.8546 C   0  0  0  0  0  0  0  0  0  0  0  0
   27.3620   -6.8022    7.9491 C   0  0  0  0  0  0  0  0  0  0  0  0
   27.2804   -4.2230    7.0920 O   0  0  0  0  0  0  0  0  0  0  0  0
   28.1796   -5.1216    7.8353 P   0  0  0  0  0  0  0  0  0  0  0  0
   29.5412   -5.3576    7.3162 O   0  0  0  0  0  0  0  0  0  0  0  0
   29.4900   -5.6321    6.3872 H   0  0  0  0  0  0  0  0  0  0  0  0
   28.2974   -4.6014    9.6000 C   0  0  0  0  0  0  0  0  0  0  0  0
   28.8111   -1.8729    9.6799 O   0  0  0  0  0  0  0  0  0  0  0  0
   27.6327   -2.2399    9.7622 C   0  0  0  0  0  0  0  0  0  0  0  0
   27.3122   -3.5324    9.7176 N   0  0  0  0  0  0  0  0  0  0  0  0
   26.3603   -3.7788    9.7667 H   0  0  0  0  0  0  0  0  0  0  0  0
   26.6035   -1.3463    9.8872 O   0  0  0  0  0  0  0  0  0  0  0  0
   26.2677   -0.8270   11.1857 C   0  0  0  0  0  0  0  0  0  0  0  0
   25.5658    3.3071   10.7705 C   0  0  0  0  0  0  0  0  0  0  0  0
   24.8129    2.5603   11.6803 C   0  0  0  0  0  0  0  0  0  0  0  0
   26.5482    2.6860    9.9893 C   0  0  0  0  0  0  0  0  0  0  0  0
   25.0427    1.1853   11.8140 C   0  0  0  0  0  0  0  0  0  0  0  0
   26.7841    1.3082   10.1283 C   0  0  0  0  0  0  0  0  0  0  0  0
   26.0375    0.5634   11.0489 C   0  0  0  0  0  0  0  0  0  0  0  0
   27.9615   -5.6839   10.6642 C   0  0  0  0  0  0  0  0  0  0  0  0
   29.1534   -6.1551   11.2876 C   0  0  0  0  0  0  0  0  0  0  0  0
   29.0973   -7.1165   12.3032 C   0  0  0  0  0  0  0  0  0  0  0  0
   30.2686   -7.5921   12.9087 C   0  0  0  0  0  0  0  0  0  0  0  0
   31.5217   -7.0982   12.5229 C   0  0  0  0  0  0  0  0  0  0  0  0
   31.5919   -6.1268   11.5057 C   0  0  0  0  0  0  0  0  0  0  0  0
   30.4170   -5.6650   10.9066 C   0  0  0  0  0  0  0  0  0  0  0  0
  8  7  2  0  0  0
  7  6  1  0  0  0
  7  9  1  0  0  0
  6  4  1  0  0  0
  4  3  1  0  0  0
 11  6  1  0  0  0
 12 11  1  0  0  0
 13 12  2  0  0  0
 12 14  1  0  0  0
 18 17  1  0  0  0
 15 17  2  0  0  0
 17 16  1  0  0  0
 39 38  2  0  0  0
  3  2  2  0  0  0
 33 34  2  0  0  0
 34 35  1  0  0  0
 46 44  2  0  0  0
 44 45  1  0  0  0
 55 54  2  0  0  0
 53 54  1  0  0  0
 27 26  2  0  0  0
 26 28  1  0  0  0
 47 45  2  0  0  0
 48 46  1  0  0  0
 52 53  2  0  0  0
 56 55  1  0  0  0
 27 29  1  0  0  0
 28 30  2  0  0  0
 49 47  1  0  0  0
 48 49  2  0  0  0
 51 52  1  0  0  0
 51 56  2  0  0  0
 29 31  2  0  0  0
 30 31  1  0  0  0
 25 21  1  0  0  0
 21 24  2  0  0  0
 42 43  1  0  0  0
 43 49  1  0  0  0
 24 20  1  0  0  0
 20  1  1  0  0  0
 50 37  1  0  0  0
 50 51  1  0  0  0
  1 32  1  0  0  0
 32 34  1  0  0  0
 25 22  2  0  0  0
 22 23  1  0  0  0
 37 40  1  0  0  0
 40 39  1  0  0  0
 39 42  1  0  0  0
 23 24  1  0  0  0
  3  1  1  0  0  0
 31 25  1  0  0  0
 34 37  1  0  0  0
 15 13  1  0  0  0
 16 14  2  0  0  0
 35 36  1  0  0  0
 40 41  1  0  0  0
  4  5  1  0  0  0
 18 19  1  0  0  0
  9 10  1  0  0  0
M  END
> <minimizedAffinity>
-10.15262

$$$$
4CA7_3EF_A_1715


 56 60  0  0  0  0  0  0  0  0999 V2000
   27.0502    0.1086   10.4096 C   0  0  0  0  0  0  0  0  0  0  0  0
   26.4067   -2.1606   10.8991 O   0  0  0  0  0  0  0  0  0  0  0  0
   27.2143   -1.4230   10.3271 C   0  0  0  0  0  0  0  0  0  0  0  0
   28.2853   -1.8811    9.6475 N   0  0  0  0  0  0  0  0  0  0  0  0
   28.8894   -1.2421    9.2049 H   0  0  0  0  0  0  0  0  0  0  0  0
   28.5666   -3.3430    9.5575 C   0  0  0  0  0  0  0  0  0  0  0  0
   27.4095   -4.0921    8.8429 C   0  0  0  0  0  0  0  0  0  0  0  0
   27.2406   -3.8618    7.6171 O   0  0  0  0  0  0  0  0  0  0  0  0
   26.7273   -4.8902    9.5315 O   0  0  0  0  0  0  0  0  0  0  0  0
   26.9180   -5.0051   10.4417 H   0  0  0  0  0  0  0  0  0  0  0  0
   28.6971   -4.0510   10.9071 C   0  0  0  0  0  0  0  0  0  0  0  0
   29.5459   -5.1261   11.1500 C   0  0  0  0  0  0  0  0  0  0  0  0
   29.0645   -6.2214   11.8766 C   0  0  0  0  0  0  0  0  0  0  0  0
   30.8343   -5.1470   10.6024 C   0  0  0  0  0  0  0  0  0  0  0  0
   29.8873   -7.3372   12.0891 C   0  0  0  0  0  0  0  0  0  0  0  0
   31.6511   -6.2593   10.8137 C   0  0  0  0  0  0  0  0  0  0  0  0
   31.1764   -7.3489   11.5436 C   0  0  0  0  0  0  0  0  0  0  0  0
   31.9945   -8.4221   11.7211 O   0  0  0  0  0  0  0  0  0  0  0  0
   31.6947   -9.1642   12.2083 H   0  0  0  0  0  0  0  0  0  0  0  0
   28.3736    0.8147   10.0365 C   0  0  0  0  0  0  0  0  0  0  0  0
   27.6233    2.9067    8.7035 C   0  0  0  0  0  0  0  0  0  0  0  0
   28.3065    4.5693    9.9758 N   0  0  0  0  0  0  0  0  0  0  0  0
   28.6565    3.2433   10.6076 O   0  0  0  0  0  0  0  0  0  0  0  0
   28.2129    2.3238    9.7655 C   0  0  0  0  0  0  0  0  0  0  0  0
   27.6842    4.2461    8.8433 C   0  0  0  0  0  0  0  0  0  0  0  0
   26.1225    7.0483    6.2202 C   0  0  0  0  0  0  0  0  0  0  0  0
   27.3680    7.2719    6.8205 C   0  0  0  0  0  0  0  0  0  0  0  0
   25.4160    5.8747    6.5013 C   0  0  0  0  0  0  0  0  0  0  0  0
   27.9044    6.3349    7.7130 C   0  0  0  0  0  0  0  0  0  0  0  0
   25.9586    4.9443    7.3872 C   0  0  0  0  0  0  0  0  0  0  0  0
   27.2010    5.1656    8.0040 C   0  0  0  0  0  0  0  0  0  0  0  0
   26.6919    0.5021   11.8613 C   0  0  0  0  0  0  0  0  0  0  0  0
   23.9784    0.3727   11.9775 O   0  0  0  0  0  0  0  0  0  0  0  0
   25.0431    1.3879   11.9128 P   0  0  0  0  0  0  0  0  0  0  0  0
   25.0506    2.3430   10.7873 O   0  0  0  0  0  0  0  0  0  0  0  0
   25.0039    1.8561    9.9497 H   0  0  0  0  0  0  0  0  0  0  0  0
   25.1323    2.3310   13.4943 C   0  0  0  0  0  0  0  0  0  0  0  0
   27.6571    3.4512   13.7871 O   0  0  0  0  0  0  0  0  0  0  0  0
   26.7756    4.1456   13.2668 C   0  0  0  0  0  0  0  0  0  0  0  0
   25.5453    3.6681   13.0832 N   0  0  0  0  0  0  0  0  0  0  0  0
   24.8801    4.2482   12.6472 H   0  0  0  0  0  0  0  0  0  0  0  0
   27.0179    5.4240   12.8421 O   0  0  0  0  0  0  0  0  0  0  0  0
   26.0578    6.4584   13.1193 C   0  0  0  0  0  0  0  0  0  0  0  0
   24.6387    7.9387    9.4381 C   0  0  0  0  0  0  0  0  0  0  0  0
   25.8407    8.4180    9.9653 C   0  0  0  0  0  0  0  0  0  0  0  0
   23.8985    6.9734   10.1320 C   0  0  0  0  0  0  0  0  0  0  0  0
   26.3092    7.9298   11.1915 C   0  0  0  0  0  0  0  0  0  0  0  0
   24.3716    6.4780   11.3584 C   0  0  0  0  0  0  0  0  0  0  0  0
   25.5822    6.9501   11.8796 C   0  0  0  0  0  0  0  0  0  0  0  0
   23.8073    2.4627   14.2969 C   0  0  0  0  0  0  0  0  0  0  0  0
   23.8570    3.5990   15.1557 C   0  0  0  0  0  0  0  0  0  0  0  0
   24.4783    3.5227   16.4075 C   0  0  0  0  0  0  0  0  0  0  0  0
   24.5411    4.6421   17.2487 C   0  0  0  0  0  0  0  0  0  0  0  0
   23.9632    5.8583   16.8613 C   0  0  0  0  0  0  0  0  0  0  0  0
   23.3305    5.9473   15.6063 C   0  0  0  0  0  0  0  0  0  0  0  0
   23.2795    4.8252   14.7750 C   0  0  0  0  0  0  0  0  0  0  0  0
  8  7  2  0  0  0
  7  6  1  0  0  0
  7  9  1  0  0  0
  6  4  1  0  0  0
  4  3  1  0  0  0
 11  6  1  0  0  0
 12 11  1  0  0  0
 13 12  2  0  0  0
 12 14  1  0  0  0
 18 17  1  0  0  0
 15 17  2  0  0  0
 17 16  1  0  0  0
 39 38  2  0  0  0
  3  2  2  0  0  0
 33 34  2  0  0  0
 34 35  1  0  0  0
 46 44  2  0  0  0
 44 45  1  0  0  0
 55 54  2  0  0  0
 53 54  1  0  0  0
 27 26  2  0  0  0
 26 28  1  0  0  0
 47 45  2  0  0  0
 48 46  1  0  0  0
 52 53  2  0  0  0
 56 55  1  0  0  0
 27 29  1  0  0  0
 28 30  2  0  0  0
 49 47  1  0  0  0
 48 49  2  0  0  0
 51 52  1  0  0  0
 51 56  2  0  0  0
 29 31  2  0  0  0
 30 31  1  0  0  0
 25 21  1  0  0  0
 21 24  2  0  0  0
 42 43  1  0  0  0
 43 49  1  0  0  0
 24 20  1  0  0  0
 20  1  1  0  0  0
 50 37  1  0  0  0
 50 51  1  0  0  0
  1 32  1  0  0  0
 32 34  1  0  0  0
 25 22  2  0  0  0
 22 23  1  0  0  0
 37 40  1  0  0  0
 40 39  1  0  0  0
 39 42  1  0  0  0
 23 24  1  0  0  0
  3  1  1  0  0  0
 31 25  1  0  0  0
 34 37  1  0  0  0
 15 13  1  0  0  0
 16 14  2  0  0  0
 35 36  1  0  0  0
 40 41  1  0  0  0
  4  5  1  0  0  0
 18 19  1  0  0  0
  9 10  1  0  0  0
M  END
> <minimizedAffinity>
-10.09275

$$$$
4CA7_3EF_A_1715


 56 60  0  0  0  0  0  0  0  0999 V2000
   26.7727    0.9268   10.2175 C   0  0  0  0  0  0  0  0  0  0  0  0
   27.2787   -0.9291   11.6677 O   0  0  0  0  0  0  0  0  0  0  0  0
   26.9990   -0.5687   10.5208 C   0  0  0  0  0  0  0  0  0  0  0  0
   26.9147   -1.4175    9.4762 N   0  0  0  0  0  0  0  0  0  0  0  0
   26.6792   -1.0699    8.5857 H   0  0  0  0  0  0  0  0  0  0  0  0
   27.1736   -2.8757    9.6521 C   0  0  0  0  0  0  0  0  0  0  0  0
   28.6314   -3.1323   10.1203 C   0  0  0  0  0  0  0  0  0  0  0  0
   29.5595   -2.7151    9.3794 O   0  0  0  0  0  0  0  0  0  0  0  0
   28.7892   -3.7262   11.2153 O   0  0  0  0  0  0  0  0  0  0  0  0
   28.0431   -4.0058   11.7084 H   0  0  0  0  0  0  0  0  0  0  0  0
   27.0364   -3.7057    8.3746 C   0  0  0  0  0  0  0  0  0  0  0  0
   27.1955   -5.0866    8.3156 C   0  0  0  0  0  0  0  0  0  0  0  0
   27.7871   -5.6546    7.1812 C   0  0  0  0  0  0  0  0  0  0  0  0
   26.8461   -5.8855    9.4109 C   0  0  0  0  0  0  0  0  0  0  0  0
   28.0031   -7.0392    7.1230 C   0  0  0  0  0  0  0  0  0  0  0  0
   27.0635   -7.2633    9.3515 C   0  0  0  0  0  0  0  0  0  0  0  0
   27.6461   -7.8328    8.2194 C   0  0  0  0  0  0  0  0  0  0  0  0
   27.8546   -9.1776    8.1989 O   0  0  0  0  0  0  0  0  0  0  0  0
   28.2447   -9.5798    7.4479 H   0  0  0  0  0  0  0  0  0  0  0  0
   27.7638    1.4149    9.1366 C   0  0  0  0  0  0  0  0  0  0  0  0
   27.4329    3.9266    8.5902 C   0  0  0  0  0  0  0  0  0  0  0  0
   26.2361    3.8724    6.7423 N   0  0  0  0  0  0  0  0  0  0  0  0
   26.5391    2.4711    7.2158 O   0  0  0  0  0  0  0  0  0  0  0  0
   27.2471    2.6189    8.3241 C   0  0  0  0  0  0  0  0  0  0  0  0
   26.8267    4.6627    7.6373 C   0  0  0  0  0  0  0  0  0  0  0  0
   26.6610    8.7907    7.3145 C   0  0  0  0  0  0  0  0  0  0  0  0
   27.7776    8.1804    7.8996 C   0  0  0  0  0  0  0  0  0  0  0  0
   25.6109    8.0027    6.8325 C   0  0  0  0  0  0  0  0  0  0  0  0
   27.8433    6.7863    8.0194 C   0  0  0  0  0  0  0  0  0  0  0  0
   25.6858    6.6153    6.9510 C   0  0  0  0  0  0  0  0  0  0  0  0
   26.7956    5.9948    7.5477 C   0  0  0  0  0  0  0  0  0  0  0  0
   27.0254    1.7481   11.5029 C   0  0  0  0  0  0  0  0  0  0  0  0
   25.6452    1.5112   13.8337 O   0  0  0  0  0  0  0  0  0  0  0  0
   25.4305    1.9830   12.4553 P   0  0  0  0  0  0  0  0  0  0  0  0
   24.3677    1.3570   11.6445 O   0  0  0  0  0  0  0  0  0  0  0  0
   24.4798    0.3936   11.6527 H   0  0  0  0  0  0  0  0  0  0  0  0
   25.2009    3.8120   12.4278 C   0  0  0  0  0  0  0  0  0  0  0  0
   23.3855    5.2753   13.9370 O   0  0  0  0  0  0  0  0  0  0  0  0
   24.4365    4.9209   14.4847 C   0  0  0  0  0  0  0  0  0  0  0  0
   25.3463    4.2054   13.8247 N   0  0  0  0  0  0  0  0  0  0  0  0
   26.1595    3.9277   14.3052 H   0  0  0  0  0  0  0  0  0  0  0  0
   24.7121    5.2286   15.7896 O   0  0  0  0  0  0  0  0  0  0  0  0
   24.6425    4.1995   16.7919 C   0  0  0  0  0  0  0  0  0  0  0  0
   28.5152    3.6369   18.3546 C   0  0  0  0  0  0  0  0  0  0  0  0
   28.0251    2.7675   17.3767 C   0  0  0  0  0  0  0  0  0  0  0  0
   27.7214    4.6908   18.8242 C   0  0  0  0  0  0  0  0  0  0  0  0
   26.7359    2.9515   16.8616 C   0  0  0  0  0  0  0  0  0  0  0  0
   26.4310    4.8802   18.3026 C   0  0  0  0  0  0  0  0  0  0  0  0
   25.9458    4.0158   17.3140 C   0  0  0  0  0  0  0  0  0  0  0  0
   26.2273    4.6255   11.5899 C   0  0  0  0  0  0  0  0  0  0  0  0
   25.6542    5.8583   11.1621 C   0  0  0  0  0  0  0  0  0  0  0  0
   26.3309    7.0676   11.3580 C   0  0  0  0  0  0  0  0  0  0  0  0
   25.7763    8.2803   10.9260 C   0  0  0  0  0  0  0  0  0  0  0  0
   24.5201    8.3089   10.3060 C   0  0  0  0  0  0  0  0  0  0  0  0
   23.8262    7.0997   10.1074 C   0  0  0  0  0  0  0  0  0  0  0  0
   24.3928    5.8971   10.5381 C   0  0  0  0  0  0  0  0  0  0  0  0
  8  7  2  0  0  0
  7  6  1  0  0  0
  7  9  1  0  0  0
  6  4  1  0  0  0
  4  3  1  0  0  0
 11  6  1  0  0  0
 12 11  1  0  0  0
 13 12  2  0  0  0
 12 14  1  0  0  0
 18 17  1  0  0  0
 15 17  2  0  0  0
 17 16  1  0  0  0
 39 38  2  0  0  0
  3  2  2  0  0  0
 33 34  2  0  0  0
 34 35  1  0  0  0
 46 44  2  0  0  0
 44 45  1  0  0  0
 55 54  2  0  0  0
 53 54  1  0  0  0
 27 26  2  0  0  0
 26 28  1  0  0  0
 47 45  2  0  0  0
 48 46  1  0  0  0
 52 53  2  0  0  0
 56 55  1  0  0  0
 27 29  1  0  0  0
 28 30  2  0  0  0
 49 47  1  0  0  0
 48 49  2  0  0  0
 51 52  1  0  0  0
 51 56  2  0  0  0
 29 31  2  0  0  0
 30 31  1  0  0  0
 25 21  1  0  0  0
 21 24  2  0  0  0
 42 43  1  0  0  0
 43 49  1  0  0  0
 24 20  1  0  0  0
 20  1  1  0  0  0
 50 37  1  0  0  0
 50 51  1  0  0  0
  1 32  1  0  0  0
 32 34  1  0  0  0
 25 22  2  0  0  0
 22 23  1  0  0  0
 37 40  1  0  0  0
 40 39  1  0  0  0
 39 42  1  0  0  0
 23 24  1  0  0  0
  3  1  1  0  0  0
 31 25  1  0  0  0
 34 37  1  0  0  0
 15 13  1  0  0  0
 16 14  2  0  0  0
 35 36  1  0  0  0
 40 41  1  0  0  0
  4  5  1  0  0  0
 18 19  1  0  0  0
  9 10  1  0  0  0
M  END
> <minimizedAffinity>
-10.07216

$$$$
4CA7_3EF_A_1715


 56 60  0  0  0  0  0  0  0  0999 V2000
   28.0930    0.7480   10.4118 C   0  0  0  0  0  0  0  0  0  0  0  0
   25.7344    1.2375   10.3840 O   0  0  0  0  0  0  0  0  0  0  0  0
   26.8241    1.4651   10.9171 C   0  0  0  0  0  0  0  0  0  0  0  0
   26.9897    2.3559   11.9160 N   0  0  0  0  0  0  0  0  0  0  0  0
   27.8839    2.4873   12.3064 H   0  0  0  0  0  0  0  0  0  0  0  0
   25.8362    3.1445   12.4372 C   0  0  0  0  0  0  0  0  0  0  0  0
   24.8318    2.2333   13.1931 C   0  0  0  0  0  0  0  0  0  0  0  0
   25.0622    2.0010   14.4085 O   0  0  0  0  0  0  0  0  0  0  0  0
   23.8468    1.7998   12.5461 O   0  0  0  0  0  0  0  0  0  0  0  0
   23.7476    2.0196   11.6407 H   0  0  0  0  0  0  0  0  0  0  0  0
   24.9904    3.8247   11.3593 C   0  0  0  0  0  0  0  0  0  0  0  0
   24.8415    5.2020   11.2322 C   0  0  0  0  0  0  0  0  0  0  0  0
   23.8637    5.7026   10.3646 C   0  0  0  0  0  0  0  0  0  0  0  0
   25.6014    6.0710   12.0244 C   0  0  0  0  0  0  0  0  0  0  0  0
   23.6627    7.0868   10.2598 C   0  0  0  0  0  0  0  0  0  0  0  0
   25.3986    7.4483   11.9198 C   0  0  0  0  0  0  0  0  0  0  0  0
   24.4300    7.9501   11.0506 C   0  0  0  0  0  0  0  0  0  0  0  0
   24.2499    9.2974   10.9815 O   0  0  0  0  0  0  0  0  0  0  0  0
   23.6044    9.6548   10.4039 H   0  0  0  0  0  0  0  0  0  0  0  0
   28.9250    1.6909    9.5131 C   0  0  0  0  0  0  0  0  0  0  0  0
   28.0561    4.0881    9.0492 C   0  0  0  0  0  0  0  0  0  0  0  0
   26.6378    3.7831    7.3923 N   0  0  0  0  0  0  0  0  0  0  0  0
   27.2618    2.4702    7.8011 O   0  0  0  0  0  0  0  0  0  0  0  0
   28.0814    2.7647    8.7975 C   0  0  0  0  0  0  0  0  0  0  0  0
   27.1927    4.6834    8.2022 C   0  0  0  0  0  0  0  0  0  0  0  0
   26.2365    8.7059    7.9257 C   0  0  0  0  0  0  0  0  0  0  0  0
   27.2495    8.2875    8.7978 C   0  0  0  0  0  0  0  0  0  0  0  0
   25.5590    7.7646    7.1444 C   0  0  0  0  0  0  0  0  0  0  0  0
   27.5785    6.9301    8.9042 C   0  0  0  0  0  0  0  0  0  0  0  0
   25.8956    6.4156    7.2524 C   0  0  0  0  0  0  0  0  0  0  0  0
   26.9011    5.9848    8.1334 C   0  0  0  0  0  0  0  0  0  0  0  0
   27.6788   -0.4771    9.5643 C   0  0  0  0  0  0  0  0  0  0  0  0
   25.6803   -1.9005   10.7361 O   0  0  0  0  0  0  0  0  0  0  0  0
   27.1514   -1.8923   10.6710 P   0  0  0  0  0  0  0  0  0  0  0  0
   27.9200   -1.7479   11.9229 O   0  0  0  0  0  0  0  0  0  0  0  0
   27.6042   -0.9697   12.4083 H   0  0  0  0  0  0  0  0  0  0  0  0
   27.7653   -3.3748    9.7633 C   0  0  0  0  0  0  0  0  0  0  0  0
   30.0166   -4.0923    8.3032 O   0  0  0  0  0  0  0  0  0  0  0  0
   30.1487   -3.9281    9.5221 C   0  0  0  0  0  0  0  0  0  0  0  0
   29.1143   -3.5707   10.2821 N   0  0  0  0  0  0  0  0  0  0  0  0
   29.2686   -3.4316   11.2444 H   0  0  0  0  0  0  0  0  0  0  0  0
   31.3557   -4.0885   10.1473 O   0  0  0  0  0  0  0  0  0  0  0  0
   32.1617   -5.2419    9.8500 C   0  0  0  0  0  0  0  0  0  0  0  0
   30.5227   -8.5353   11.9050 C   0  0  0  0  0  0  0  0  0  0  0  0
   30.9540   -7.4135   12.6177 C   0  0  0  0  0  0  0  0  0  0  0  0
   30.6401   -8.5736   10.5100 C   0  0  0  0  0  0  0  0  0  0  0  0
   31.5038   -6.3214   11.9348 C   0  0  0  0  0  0  0  0  0  0  0  0
   31.1847   -7.4755    9.8239 C   0  0  0  0  0  0  0  0  0  0  0  0
   31.6052   -6.3472   10.5381 C   0  0  0  0  0  0  0  0  0  0  0  0
   26.9717   -4.6946    9.9771 C   0  0  0  0  0  0  0  0  0  0  0  0
   27.1093   -5.5468    8.8430 C   0  0  0  0  0  0  0  0  0  0  0  0
   26.7169   -5.1137    7.5713 C   0  0  0  0  0  0  0  0  0  0  0  0
   26.8638   -5.9442    6.4517 C   0  0  0  0  0  0  0  0  0  0  0  0
   27.3886   -7.2363    6.5865 C   0  0  0  0  0  0  0  0  0  0  0  0
   27.7826   -7.6864    7.8615 C   0  0  0  0  0  0  0  0  0  0  0  0
   27.6357   -6.8464    8.9685 C   0  0  0  0  0  0  0  0  0  0  0  0
  8  7  2  0  0  0
  7  6  1  0  0  0
  7  9  1  0  0  0
  6  4  1  0  0  0
  4  3  1  0  0  0
 11  6  1  0  0  0
 12 11  1  0  0  0
 13 12  2  0  0  0
 12 14  1  0  0  0
 18 17  1  0  0  0
 15 17  2  0  0  0
 17 16  1  0  0  0
 39 38  2  0  0  0
  3  2  2  0  0  0
 33 34  2  0  0  0
 34 35  1  0  0  0
 46 44  2  0  0  0
 44 45  1  0  0  0
 55 54  2  0  0  0
 53 54  1  0  0  0
 27 26  2  0  0  0
 26 28  1  0  0  0
 47 45  2  0  0  0
 48 46  1  0  0  0
 52 53  2  0  0  0
 56 55  1  0  0  0
 27 29  1  0  0  0
 28 30  2  0  0  0
 49 47  1  0  0  0
 48 49  2  0  0  0
 51 52  1  0  0  0
 51 56  2  0  0  0
 29 31  2  0  0  0
 30 31  1  0  0  0
 25 21  1  0  0  0
 21 24  2  0  0  0
 42 43  1  0  0  0
 43 49  1  0  0  0
 24 20  1  0  0  0
 20  1  1  0  0  0
 50 37  1  0  0  0
 50 51  1  0  0  0
  1 32  1  0  0  0
 32 34  1  0  0  0
 25 22  2  0  0  0
 22 23  1  0  0  0
 37 40  1  0  0  0
 40 39  1  0  0  0
 39 42  1  0  0  0
 23 24  1  0  0  0
  3  1  1  0  0  0
 31 25  1  0  0  0
 34 37  1  0  0  0
 15 13  1  0  0  0
 16 14  2  0  0  0
 35 36  1  0  0  0
 40 41  1  0  0  0
  4  5  1  0  0  0
 18 19  1  0  0  0
  9 10  1  0  0  0
M  END
> <minimizedAffinity>
-9.94739

$$$$
