2H6B_3C4_A_302


 14 14  0  0  0  0  0  0  0  0999 V2000
   51.5331   85.6572   26.4399 C   0  0  0  0  0  0  0  0  0  0  0  0
   50.3083   85.1290   26.4477 C   0  0  0  0  0  0  0  0  0  0  0  0
   50.1166   83.8980   26.1571 C   0  0  0  0  0  0  0  0  0  0  0  0
   51.1298   82.9362   25.7528 C   0  0  0  0  0  0  0  0  0  0  0  0
   50.8651   81.5966   25.3814 O   0  0  0  0  0  0  0  0  0  0  0  0
   53.9132   82.6292   25.3567 Cl  0  0  0  0  0  0  0  0  0  0  0  0
   52.4781   83.5619   25.7582 C   0  0  0  0  0  0  0  0  0  0  0  0
   52.6013   84.8749   26.1121 C   0  0  0  0  0  0  0  0  0  0  0  0
   49.9874   81.2693   25.4023 H   0  0  0  0  0  0  0  0  0  0  0  0
   51.6915   87.1136   26.8193 C   0  0  0  0  0  0  0  0  0  0  0  0
   53.7492   87.8573   27.6914 O   0  0  0  0  0  0  0  0  0  0  0  0
   52.6037   87.4662   27.9783 C   0  0  0  0  0  0  0  0  0  0  0  0
   52.2023   87.3728   29.1724 O   0  0  0  0  0  0  0  0  0  0  0  0
   51.3326   87.0744   29.3524 H   0  0  0  0  0  0  0  0  0  0  0  0
 11 12  2  0  0  0
 12 13  1  0  0  0
 12 10  1  0  0  0
 10  1  1  0  0  0
  1  2  2  0  0  0
  1  8  1  0  0  0
  2  3  1  0  0  0
  3  4  2  0  0  0
  4  5  1  0  0  0
  4  7  1  0  0  0
  6  7  1  0  0  0
  7  8  2  0  0  0
 13 14  1  0  0  0
  5  9  1  0  0  0
M  END
> <minimizedAffinity>
-7.18530

$$$$
2H6B_3C4_A_302


 14 14  0  0  0  0  0  0  0  0999 V2000
   51.0419   85.0423   26.0019 C   0  0  0  0  0  0  0  0  0  0  0  0
   51.2392   85.5405   24.7804 C   0  0  0  0  0  0  0  0  0  0  0  0
   51.7938   86.6810   24.6125 C   0  0  0  0  0  0  0  0  0  0  0  0
   52.2366   87.5904   25.6574 C   0  0  0  0  0  0  0  0  0  0  0  0
   52.7918   88.8716   25.4272 O   0  0  0  0  0  0  0  0  0  0  0  0
   52.4792   87.8501   28.4632 Cl  0  0  0  0  0  0  0  0  0  0  0  0
   52.0013   86.9993   27.0008 C   0  0  0  0  0  0  0  0  0  0  0  0
   51.4328   85.7613   27.0932 C   0  0  0  0  0  0  0  0  0  0  0  0
   52.9115   89.1797   24.5505 H   0  0  0  0  0  0  0  0  0  0  0  0
   50.4041   83.6758   26.1278 C   0  0  0  0  0  0  0  0  0  0  0  0
   50.9109   81.5605   25.2241 O   0  0  0  0  0  0  0  0  0  0  0  0
   51.2878   82.4492   26.0089 C   0  0  0  0  0  0  0  0  0  0  0  0
   52.3581   82.3528   26.6729 O   0  0  0  0  0  0  0  0  0  0  0  0
   52.6117   83.0416   27.2553 H   0  0  0  0  0  0  0  0  0  0  0  0
 11 12  2  0  0  0
 12 13  1  0  0  0
 12 10  1  0  0  0
 10  1  1  0  0  0
  1  2  2  0  0  0
  1  8  1  0  0  0
  2  3  1  0  0  0
  3  4  2  0  0  0
  4  5  1  0  0  0
  4  7  1  0  0  0
  6  7  1  0  0  0
  7  8  2  0  0  0
 13 14  1  0  0  0
  5  9  1  0  0  0
M  END
> <minimizedAffinity>
-6.21616

$$$$
2H6B_3C4_A_302


 14 14  0  0  0  0  0  0  0  0999 V2000
   52.1040   84.9417   25.5209 C   0  0  0  0  0  0  0  0  0  0  0  0
   52.7055   84.6470   26.6744 C   0  0  0  0  0  0  0  0  0  0  0  0
   53.0934   85.5682   27.4728 C   0  0  0  0  0  0  0  0  0  0  0  0
   52.9907   87.0024   27.2546 C   0  0  0  0  0  0  0  0  0  0  0  0
   53.4882   87.9887   28.1392 O   0  0  0  0  0  0  0  0  0  0  0  0
   52.0052   88.9407   25.4461 Cl  0  0  0  0  0  0  0  0  0  0  0  0
   52.3148   87.2888   25.9621 C   0  0  0  0  0  0  0  0  0  0  0  0
   51.9018   86.2473   25.1817 C   0  0  0  0  0  0  0  0  0  0  0  0
   53.9041   87.7337   28.9391 H   0  0  0  0  0  0  0  0  0  0  0  0
   51.6469   83.8026   24.6357 C   0  0  0  0  0  0  0  0  0  0  0  0
   50.7447   81.8856   25.6648 O   0  0  0  0  0  0  0  0  0  0  0  0
   51.7660   82.3843   25.1590 C   0  0  0  0  0  0  0  0  0  0  0  0
   52.8536   81.7480   25.0691 O   0  0  0  0  0  0  0  0  0  0  0  0
   53.6037   82.1548   24.6821 H   0  0  0  0  0  0  0  0  0  0  0  0
 11 12  2  0  0  0
 12 13  1  0  0  0
 12 10  1  0  0  0
 10  1  1  0  0  0
  1  2  2  0  0  0
  1  8  1  0  0  0
  2  3  1  0  0  0
  3  4  2  0  0  0
  4  5  1  0  0  0
  4  7  1  0  0  0
  6  7  1  0  0  0
  7  8  2  0  0  0
 13 14  1  0  0  0
  5  9  1  0  0  0
M  END
> <minimizedAffinity>
-6.18762

$$$$
2H6B_3C4_A_302


 14 14  0  0  0  0  0  0  0  0999 V2000
   52.5878   84.5722   26.3351 C   0  0  0  0  0  0  0  0  0  0  0  0
   53.1672   85.4574   27.1474 C   0  0  0  0  0  0  0  0  0  0  0  0
   53.1016   86.7132   26.9124 C   0  0  0  0  0  0  0  0  0  0  0  0
   52.4626   87.3479   25.7705 C   0  0  0  0  0  0  0  0  0  0  0  0
   52.4655   88.7402   25.5177 O   0  0  0  0  0  0  0  0  0  0  0  0
   50.9375   86.8020   23.4521 Cl  0  0  0  0  0  0  0  0  0  0  0  0
   51.8288   86.3299   24.8920 C   0  0  0  0  0  0  0  0  0  0  0  0
   51.9171   85.0102   25.2311 C   0  0  0  0  0  0  0  0  0  0  0  0
   52.8861   89.3244   26.1176 H   0  0  0  0  0  0  0  0  0  0  0  0
   52.6817   83.1033   26.6866 C   0  0  0  0  0  0  0  0  0  0  0  0
   53.1974   81.5103   25.0300 O   0  0  0  0  0  0  0  0  0  0  0  0
   52.2771   82.0803   25.6429 C   0  0  0  0  0  0  0  0  0  0  0  0
   51.0600   81.8216   25.4246 O   0  0  0  0  0  0  0  0  0  0  0  0
   50.3922   82.2703   25.9050 H   0  0  0  0  0  0  0  0  0  0  0  0
 11 12  2  0  0  0
 12 13  1  0  0  0
 12 10  1  0  0  0
 10  1  1  0  0  0
  1  2  2  0  0  0
  1  8  1  0  0  0
  2  3  1  0  0  0
  3  4  2  0  0  0
  4  5  1  0  0  0
  4  7  1  0  0  0
  6  7  1  0  0  0
  7  8  2  0  0  0
 13 14  1  0  0  0
  5  9  1  0  0  0
M  END
> <minimizedAffinity>
-6.08236

$$$$
2H6B_3C4_A_302


 14 14  0  0  0  0  0  0  0  0999 V2000
   52.9906   85.0318   26.5349 C   0  0  0  0  0  0  0  0  0  0  0  0
   53.6361   83.9761   26.0370 C   0  0  0  0  0  0  0  0  0  0  0  0
   53.0008   82.9409   25.6354 C   0  0  0  0  0  0  0  0  0  0  0  0
   51.5624   82.7332   25.6890 C   0  0  0  0  0  0  0  0  0  0  0  0
   50.9052   81.5457   25.2883 O   0  0  0  0  0  0  0  0  0  0  0  0
   49.1296   83.9927   26.3919 Cl  0  0  0  0  0  0  0  0  0  0  0  0
   50.8806   83.9302   26.2474 C   0  0  0  0  0  0  0  0  0  0  0  0
   51.6296   85.0082   26.6233 C   0  0  0  0  0  0  0  0  0  0  0  0
   51.4011   80.8291   24.9440 H   0  0  0  0  0  0  0  0  0  0  0  0
   53.8020   86.2338   26.9670 C   0  0  0  0  0  0  0  0  0  0  0  0
   52.7757   88.2521   26.3182 O   0  0  0  0  0  0  0  0  0  0  0  0
   53.0732   87.5255   27.2831 C   0  0  0  0  0  0  0  0  0  0  0  0
   52.7790   87.8308   28.4731 O   0  0  0  0  0  0  0  0  0  0  0  0
   53.0187   87.2597   29.1762 H   0  0  0  0  0  0  0  0  0  0  0  0
 11 12  2  0  0  0
 12 13  1  0  0  0
 12 10  1  0  0  0
 10  1  1  0  0  0
  1  2  2  0  0  0
  1  8  1  0  0  0
  2  3  1  0  0  0
  3  4  2  0  0  0
  4  5  1  0  0  0
  4  7  1  0  0  0
  6  7  1  0  0  0
  7  8  2  0  0  0
 13 14  1  0  0  0
  5  9  1  0  0  0
M  END
> <minimizedAffinity>
-5.60081

$$$$
2H6B_3C4_A_302


 14 14  0  0  0  0  0  0  0  0999 V2000
   51.5925   86.1782   26.1075 C   0  0  0  0  0  0  0  0  0  0  0  0
   51.6328   85.0729   26.8530 C   0  0  0  0  0  0  0  0  0  0  0  0
   51.5684   83.9121   26.3195 C   0  0  0  0  0  0  0  0  0  0  0  0
   51.4073   83.6175   24.9045 C   0  0  0  0  0  0  0  0  0  0  0  0
   51.2801   82.3164   24.3626 O   0  0  0  0  0  0  0  0  0  0  0  0
   51.2273   84.8331   22.3572 Cl  0  0  0  0  0  0  0  0  0  0  0  0
   51.3683   84.8727   24.1091 C   0  0  0  0  0  0  0  0  0  0  0  0
   51.4757   86.0722   24.7526 C   0  0  0  0  0  0  0  0  0  0  0  0
   51.3143   81.5687   24.9263 H   0  0  0  0  0  0  0  0  0  0  0  0
   51.6999   87.5189   26.8011 C   0  0  0  0  0  0  0  0  0  0  0  0
   53.8119   87.8581   27.7871 O   0  0  0  0  0  0  0  0  0  0  0  0
   52.6076   87.6397   28.0098 C   0  0  0  0  0  0  0  0  0  0  0  0
   52.1471   87.5323   29.1812 O   0  0  0  0  0  0  0  0  0  0  0  0
   51.2341   87.3675   29.3124 H   0  0  0  0  0  0  0  0  0  0  0  0
 11 12  2  0  0  0
 12 13  1  0  0  0
 12 10  1  0  0  0
 10  1  1  0  0  0
  1  2  2  0  0  0
  1  8  1  0  0  0
  2  3  1  0  0  0
  3  4  2  0  0  0
  4  5  1  0  0  0
  4  7  1  0  0  0
  6  7  1  0  0  0
  7  8  2  0  0  0
 13 14  1  0  0  0
  5  9  1  0  0  0
M  END
> <minimizedAffinity>
-5.39178

$$$$
2H6B_3C4_A_302


 14 14  0  0  0  0  0  0  0  0999 V2000
   51.2701   85.7260   26.0294 C   0  0  0  0  0  0  0  0  0  0  0  0
   50.7557   86.2302   24.9068 C   0  0  0  0  0  0  0  0  0  0  0  0
   50.8204   85.5881   23.8023 C   0  0  0  0  0  0  0  0  0  0  0  0
   51.4620   84.3010   23.5858 C   0  0  0  0  0  0  0  0  0  0  0  0
   51.5628   83.6528   22.3319 O   0  0  0  0  0  0  0  0  0  0  0  0
   52.8173   82.2073   24.9193 Cl  0  0  0  0  0  0  0  0  0  0  0  0
   52.0202   83.7730   24.8583 C   0  0  0  0  0  0  0  0  0  0  0  0
   51.8807   84.5065   26.0014 C   0  0  0  0  0  0  0  0  0  0  0  0
   51.1856   84.0460   21.5695 H   0  0  0  0  0  0  0  0  0  0  0  0
   51.1355   86.5268   27.3064 C   0  0  0  0  0  0  0  0  0  0  0  0
   52.6611   86.8391   29.0735 O   0  0  0  0  0  0  0  0  0  0  0  0
   52.3800   87.1547   27.9035 C   0  0  0  0  0  0  0  0  0  0  0  0
   53.0936   87.9499   27.2295 O   0  0  0  0  0  0  0  0  0  0  0  0
   52.8520   88.1658   26.3503 H   0  0  0  0  0  0  0  0  0  0  0  0
 11 12  2  0  0  0
 12 13  1  0  0  0
 12 10  1  0  0  0
 10  1  1  0  0  0
  1  2  2  0  0  0
  1  8  1  0  0  0
  2  3  1  0  0  0
  3  4  2  0  0  0
  4  5  1  0  0  0
  4  7  1  0  0  0
  6  7  1  0  0  0
  7  8  2  0  0  0
 13 14  1  0  0  0
  5  9  1  0  0  0
M  END
> <minimizedAffinity>
-5.23265

$$$$
2H6B_3C4_A_302


 14 14  0  0  0  0  0  0  0  0999 V2000
   51.6630   85.3226   26.2697 C   0  0  0  0  0  0  0  0  0  0  0  0
   52.3424   84.4740   27.0428 C   0  0  0  0  0  0  0  0  0  0  0  0
   52.7584   83.3529   26.5885 C   0  0  0  0  0  0  0  0  0  0  0  0
   52.5394   82.8261   25.2507 C   0  0  0  0  0  0  0  0  0  0  0  0
   52.9668   81.5519   24.8075 O   0  0  0  0  0  0  0  0  0  0  0  0
   51.4058   83.4597   22.7383 Cl  0  0  0  0  0  0  0  0  0  0  0  0
   51.7818   83.7998   24.4217 C   0  0  0  0  0  0  0  0  0  0  0  0
   51.4016   84.9897   24.9730 C   0  0  0  0  0  0  0  0  0  0  0  0
   53.4417   80.9892   25.3871 H   0  0  0  0  0  0  0  0  0  0  0  0
   51.2232   86.6432   26.8635 C   0  0  0  0  0  0  0  0  0  0  0  0
   52.5495   88.4347   26.1023 O   0  0  0  0  0  0  0  0  0  0  0  0
   52.2651   87.7231   27.0823 C   0  0  0  0  0  0  0  0  0  0  0  0
   52.8023   87.8876   28.2137 O   0  0  0  0  0  0  0  0  0  0  0  0
   52.5643   87.3330   28.9304 H   0  0  0  0  0  0  0  0  0  0  0  0
 11 12  2  0  0  0
 12 13  1  0  0  0
 12 10  1  0  0  0
 10  1  1  0  0  0
  1  2  2  0  0  0
  1  8  1  0  0  0
  2  3  1  0  0  0
  3  4  2  0  0  0
  4  5  1  0  0  0
  4  7  1  0  0  0
  6  7  1  0  0  0
  7  8  2  0  0  0
 13 14  1  0  0  0
  5  9  1  0  0  0
M  END
> <minimizedAffinity>
-5.22286

$$$$
2H6B_3C4_A_302


 14 14  0  0  0  0  0  0  0  0999 V2000
   51.6934   84.8919   25.6681 C   0  0  0  0  0  0  0  0  0  0  0  0
   50.7330   85.7190   26.0837 C   0  0  0  0  0  0  0  0  0  0  0  0
   50.9858   86.6679   26.9035 C   0  0  0  0  0  0  0  0  0  0  0  0
   52.2711   86.9625   27.5168 C   0  0  0  0  0  0  0  0  0  0  0  0
   52.4936   87.9875   28.4668 O   0  0  0  0  0  0  0  0  0  0  0  0
   54.9830   86.1608   27.5590 Cl  0  0  0  0  0  0  0  0  0  0  0  0
   53.3129   86.0217   27.0278 C   0  0  0  0  0  0  0  0  0  0  0  0
   52.9674   85.0552   26.1273 C   0  0  0  0  0  0  0  0  0  0  0  0
   51.7873   88.5446   28.7289 H   0  0  0  0  0  0  0  0  0  0  0  0
   51.3305   83.8070   24.6774 C   0  0  0  0  0  0  0  0  0  0  0  0
   50.8440   81.6385   25.4575 O   0  0  0  0  0  0  0  0  0  0  0  0
   51.7285   82.3774   24.9891 C   0  0  0  0  0  0  0  0  0  0  0  0
   52.9027   81.9672   24.7683 O   0  0  0  0  0  0  0  0  0  0  0  0
   53.5443   82.5514   24.4146 H   0  0  0  0  0  0  0  0  0  0  0  0
 11 12  2  0  0  0
 12 13  1  0  0  0
 12 10  1  0  0  0
 10  1  1  0  0  0
  1  2  2  0  0  0
  1  8  1  0  0  0
  2  3  1  0  0  0
  3  4  2  0  0  0
  4  5  1  0  0  0
  4  7  1  0  0  0
  6  7  1  0  0  0
  7  8  2  0  0  0
 13 14  1  0  0  0
  5  9  1  0  0  0
M  END
> <minimizedAffinity>
-5.17362

$$$$
2H6B_3C4_A_302


 14 14  0  0  0  0  0  0  0  0999 V2000
   52.8183   84.4480   26.2823 C   0  0  0  0  0  0  0  0  0  0  0  0
   53.8845   85.1157   26.7257 C   0  0  0  0  0  0  0  0  0  0  0  0
   53.7574   86.2171   27.3638 C   0  0  0  0  0  0  0  0  0  0  0  0
   52.5119   86.9076   27.6589 C   0  0  0  0  0  0  0  0  0  0  0  0
   52.4209   88.1573   28.3167 O   0  0  0  0  0  0  0  0  0  0  0  0
   49.7035   86.6959   27.4013 Cl  0  0  0  0  0  0  0  0  0  0  0  0
   51.3498   86.1324   27.1509 C   0  0  0  0  0  0  0  0  0  0  0  0
   51.5695   84.9483   26.5075 C   0  0  0  0  0  0  0  0  0  0  0  0
   53.1984   88.5898   28.6107 H   0  0  0  0  0  0  0  0  0  0  0  0
   53.0393   83.1379   25.5577 C   0  0  0  0  0  0  0  0  0  0  0  0
   51.6961   82.8794   23.6402 O   0  0  0  0  0  0  0  0  0  0  0  0
   51.8733   82.5136   24.8160 C   0  0  0  0  0  0  0  0  0  0  0  0
   51.1324   81.6563   25.3744 O   0  0  0  0  0  0  0  0  0  0  0  0
   51.2947   81.4038   26.2620 H   0  0  0  0  0  0  0  0  0  0  0  0
 11 12  2  0  0  0
 12 13  1  0  0  0
 12 10  1  0  0  0
 10  1  1  0  0  0
  1  2  2  0  0  0
  1  8  1  0  0  0
  2  3  1  0  0  0
  3  4  2  0  0  0
  4  5  1  0  0  0
  4  7  1  0  0  0
  6  7  1  0  0  0
  7  8  2  0  0  0
 13 14  1  0  0  0
  5  9  1  0  0  0
M  END
> <minimizedAffinity>
-4.59722

$$$$
