3SLZ_3TL_A_126


 74 77  0  0  0  0  0  0  0  0999 V2000
   -4.4097    2.0038    9.6774 C   0  0  0  0  0  0  0  0  0  0  0  0
   -4.7111    0.9473    8.7904 O   0  0  0  0  0  0  0  0  0  0  0  0
   -4.6376    1.2619    7.8758 H   0  0  0  0  0  0  0  0  0  0  0  0
   -3.0091    2.4286    9.5250 C   0  0  0  0  0  0  0  0  0  0  0  0
   -2.3660    1.2073    9.2022 O   0  0  0  0  0  0  0  0  0  0  0  0
   -2.5198    0.5636    9.9113 H   0  0  0  0  0  0  0  0  0  0  0  0
   -2.4349    3.1247   10.7423 C   0  0  0  0  0  0  0  0  0  0  0  0
   -2.4051    2.3545   11.9796 N   0  0  0  0  0  0  0  0  0  0  0  0
   -2.8818    2.6483   13.1091 C   0  0  0  0  0  0  0  0  0  0  0  0
   -3.5720    3.7623   13.2796 O   0  0  0  0  0  0  0  0  0  0  0  0
   -1.9492    1.4835   11.9257 H   0  0  0  0  0  0  0  0  0  0  0  0
   -2.7657    1.7027   14.2980 C   0  0  0  0  0  0  0  0  0  0  0  0
   -1.9953    2.3028   15.3664 N   0  0  0  0  0  0  0  0  0  0  0  0
   -0.7778    2.0275   15.6092 C   0  0  0  0  0  0  0  0  0  0  0  0
   -0.1933    1.1599   14.7955 O   0  0  0  0  0  0  0  0  0  0  0  0
   -2.4420    2.9657   15.9411 H   0  0  0  0  0  0  0  0  0  0  0  0
    0.1137    2.5935   16.6361 C   0  0  0  0  0  0  0  0  0  0  0  0
    1.5655    2.8514   16.2377 C   0  0  0  0  0  0  0  0  0  0  0  0
    0.0031    1.9606   17.7057 N   0  0  0  0  0  0  0  0  0  0  0  0
   -0.2262    2.4694   18.8926 C   0  0  0  0  0  0  0  0  0  0  0  0
   -0.4934    3.6807   19.0098 O   0  0  0  0  0  0  0  0  0  0  0  0
    0.0974    0.9820   17.6536 H   0  0  0  0  0  0  0  0  0  0  0  0
   -0.4501    1.6466   19.8794 O   0  0  0  0  0  0  0  0  0  0  0  0
   -0.4037    0.2064   19.6773 C   0  0  0  0  0  0  0  0  0  0  0  0
   -0.1019   -0.6222   20.8919 C   0  0  0  0  0  0  0  0  0  0  0  0
    0.3732   -1.9401   20.8198 C   0  0  0  0  0  0  0  0  0  0  0  0
    0.6215   -2.6712   21.9874 C   0  0  0  0  0  0  0  0  0  0  0  0
    0.3792   -2.0749   23.2331 C   0  0  0  0  0  0  0  0  0  0  0  0
   -0.1083   -0.7699   23.3184 C   0  0  0  0  0  0  0  0  0  0  0  0
   -0.3416   -0.0544   22.1450 C   0  0  0  0  0  0  0  0  0  0  0  0
   -4.1147    1.2423   14.8626 C   0  0  0  0  0  0  0  0  0  0  0  0
   -5.2244    1.0145   13.8261 C   0  0  0  0  0  0  0  0  0  0  0  0
   -4.0820    0.0965   15.9130 C   0  0  0  0  0  0  0  0  0  0  0  0
   -1.0279    3.4508   10.3194 C   0  0  0  0  0  0  0  0  0  0  0  0
   -0.4026    4.1762   11.4150 C   0  0  0  0  0  0  0  0  0  0  0  0
    0.6501    3.5863   12.0947 C   0  0  0  0  0  0  0  0  0  0  0  0
   -0.8987    5.4262   11.8016 C   0  0  0  0  0  0  0  0  0  0  0  0
    1.2251    4.2914   13.1574 C   0  0  0  0  0  0  0  0  0  0  0  0
   -0.3350    6.1278   12.8724 C   0  0  0  0  0  0  0  0  0  0  0  0
    0.7363    5.5412   13.5586 C   0  0  0  0  0  0  0  0  0  0  0  0
   -5.4261    3.0750    9.4478 C   0  0  0  0  0  0  0  0  0  0  0  0
   -5.7422    4.4973    7.4591 C   0  0  0  0  0  0  0  0  0  0  0  0
   -5.6520    5.5589    8.1846 O   0  0  0  0  0  0  0  0  0  0  0  0
   -5.5988    3.2931    7.9787 N   0  0  0  0  0  0  0  0  0  0  0  0
   -5.6058    2.5122    7.3793 H   0  0  0  0  0  0  0  0  0  0  0  0
   -5.9256    4.7417    5.9982 C   0  0  0  0  0  0  0  0  0  0  0  0
   -8.0994    4.2632    4.9513 C   0  0  0  0  0  0  0  0  0  0  0  0
   -7.6865    3.2341    4.2736 O   0  0  0  0  0  0  0  0  0  0  0  0
   -7.3473    4.9348    5.7504 N   0  0  0  0  0  0  0  0  0  0  0  0
   -7.7826    5.6621    6.2512 H   0  0  0  0  0  0  0  0  0  0  0  0
   -9.5371    4.6866    4.7914 C   0  0  0  0  0  0  0  0  0  0  0  0
  -10.3551    3.4676    4.4727 C   0  0  0  0  0  0  0  0  0  0  0  0
   -9.1627    6.7026    3.6791 C   0  0  0  0  0  0  0  0  0  0  0  0
   -8.8187    7.3671    4.6349 O   0  0  0  0  0  0  0  0  0  0  0  0
   -9.6437    5.4692    3.7173 N   0  0  0  0  0  0  0  0  0  0  0  0
  -10.0990    5.1156    2.9192 H   0  0  0  0  0  0  0  0  0  0  0  0
   -9.3328    7.3803    2.5309 O   0  0  0  0  0  0  0  0  0  0  0  0
   -8.2937    8.2223    1.9789 C   0  0  0  0  0  0  0  0  0  0  0  0
   -8.3840    8.3207    0.4869 C   0  0  0  0  0  0  0  0  0  0  0  0
   -9.1391    9.3323   -0.0957 C   0  0  0  0  0  0  0  0  0  0  0  0
   -9.2194    9.4067   -1.4986 C   0  0  0  0  0  0  0  0  0  0  0  0
   -8.5610    8.4905   -2.3269 C   0  0  0  0  0  0  0  0  0  0  0  0
   -7.8034    7.4737   -1.7417 C   0  0  0  0  0  0  0  0  0  0  0  0
   -7.7350    7.4164   -0.3532 C   0  0  0  0  0  0  0  0  0  0  0  0
   -5.1189    5.8789    5.4008 C   0  0  0  0  0  0  0  0  0  0  0  0
   -5.3202    6.0467    3.8794 C   0  0  0  0  0  0  0  0  0  0  0  0
   -3.6250    5.7187    5.7240 C   0  0  0  0  0  0  0  0  0  0  0  0
   -6.6809    2.6056   10.2117 C   0  0  0  0  0  0  0  0  0  0  0  0
   -7.8702    2.5887    9.3422 C   0  0  0  0  0  0  0  0  0  0  0  0
   -8.8199    3.5932    9.5453 C   0  0  0  0  0  0  0  0  0  0  0  0
   -8.0136    1.5981    8.3636 C   0  0  0  0  0  0  0  0  0  0  0  0
   -9.9454    3.6358    8.7425 C   0  0  0  0  0  0  0  0  0  0  0  0
   -9.1546    1.6395    7.5673 C   0  0  0  0  0  0  0  0  0  0  0  0
  -10.0956    2.6642    7.7568 C   0  0  0  0  0  0  0  0  0  0  0  0
 53 54  2  0  0  0
 53 57  1  0  0  0
 53 55  1  0  0  0
 57 58  1  0  0  0
 58 59  1  0  0  0
 59 60  2  0  0  0
 59 64  1  0  0  0
 60 61  1  0  0  0
 61 62  2  0  0  0
 62 63  1  0  0  0
 63 64  2  0  0  0
 55 51  1  0  0  0
 51 47  1  0  0  0
 51 52  1  0  0  0
 47 48  2  0  0  0
 47 49  1  0  0  0
 49 46  1  0  0  0
 46 42  1  0  0  0
 46 65  1  0  0  0
 42 43  2  0  0  0
 42 44  1  0  0  0
 65 66  1  0  0  0
 65 67  1  0  0  0
  1  2  1  0  0  0
  1 41  1  0  0  0
  1  4  1  0  0  0
 41 44  1  0  0  0
 41 68  1  0  0  0
 68 69  1  0  0  0
 69 70  2  0  0  0
 69 71  1  0  0  0
 70 72  1  0  0  0
 71 73  2  0  0  0
 72 74  2  0  0  0
 73 74  1  0  0  0
  8  7  1  0  0  0
  8  9  1  0  0  0
  7  4  1  0  0  0
  7 34  1  0  0  0
  4  5  1  0  0  0
 34 35  1  0  0  0
 35 36  2  0  0  0
 35 37  1  0  0  0
 36 38  1  0  0  0
 37 39  2  0  0  0
 38 40  2  0  0  0
 39 40  1  0  0  0
 13 12  1  0  0  0
 13 14  1  0  0  0
 12  9  1  0  0  0
 12 31  1  0  0  0
  9 10  2  0  0  0
 31 32  1  0  0  0
 31 33  1  0  0  0
 19 17  1  0  0  0
 19 20  1  0  0  0
 17 14  1  0  0  0
 17 18  1  0  0  0
 14 15  2  0  0  0
 20 21  2  0  0  0
 20 23  1  0  0  0
 23 24  1  0  0  0
 24 25  1  0  0  0
 25 26  2  0  0  0
 25 30  1  0  0  0
 26 27  1  0  0  0
 27 28  2  0  0  0
 28 29  1  0  0  0
 29 30  2  0  0  0
 55 56  1  0  0  0
 49 50  1  0  0  0
  2  3  1  0  0  0
 44 45  1  0  0  0
  8 11  1  0  0  0
  5  6  1  0  0  0
 13 16  1  0  0  0
 19 22  1  0  0  0
M  END
> <minimizedAffinity>
-11.35449

$$$$
3SLZ_3TL_A_126


 74 77  0  0  0  0  0  0  0  0999 V2000
   -2.9894    2.6648    9.3670 C   0  0  0  0  0  0  0  0  0  0  0  0
   -2.3641    1.3987    9.3760 O   0  0  0  0  0  0  0  0  0  0  0  0
   -2.6469    0.9040   10.1610 H   0  0  0  0  0  0  0  0  0  0  0  0
   -4.4480    2.5246    9.2323 C   0  0  0  0  0  0  0  0  0  0  0  0
   -4.5982    1.1197    9.1189 O   0  0  0  0  0  0  0  0  0  0  0  0
   -4.0880    0.8003    8.3582 H   0  0  0  0  0  0  0  0  0  0  0  0
   -5.0430    3.3034    8.0767 C   0  0  0  0  0  0  0  0  0  0  0  0
   -6.4780    3.1591    7.8641 N   0  0  0  0  0  0  0  0  0  0  0  0
   -7.4233    3.3431    8.6775 C   0  0  0  0  0  0  0  0  0  0  0  0
   -7.1836    3.7845    9.8999 O   0  0  0  0  0  0  0  0  0  0  0  0
   -6.7462    2.8790    6.9592 H   0  0  0  0  0  0  0  0  0  0  0  0
   -8.8791    3.1553    8.2695 C   0  0  0  0  0  0  0  0  0  0  0  0
   -9.1301    3.7233    6.9620 N   0  0  0  0  0  0  0  0  0  0  0  0
  -10.2608    4.1624    6.5804 C   0  0  0  0  0  0  0  0  0  0  0  0
  -11.2440    4.1169    7.4681 O   0  0  0  0  0  0  0  0  0  0  0  0
   -8.3782    3.7727    6.3284 H   0  0  0  0  0  0  0  0  0  0  0  0
  -10.6275    4.7896    5.2991 C   0  0  0  0  0  0  0  0  0  0  0  0
  -11.6536    4.0628    4.4321 C   0  0  0  0  0  0  0  0  0  0  0  0
   -9.6037    5.1262    4.6702 N   0  0  0  0  0  0  0  0  0  0  0  0
   -9.3811    6.2905    4.1089 C   0  0  0  0  0  0  0  0  0  0  0  0
  -10.1751    7.2328    4.2934 O   0  0  0  0  0  0  0  0  0  0  0  0
   -8.8924    4.4507    4.5870 H   0  0  0  0  0  0  0  0  0  0  0  0
   -8.1966    6.5146    3.6112 O   0  0  0  0  0  0  0  0  0  0  0  0
   -7.7994    7.8526    3.1998 C   0  0  0  0  0  0  0  0  0  0  0  0
   -7.7325    8.0966    1.7202 C   0  0  0  0  0  0  0  0  0  0  0  0
   -7.9120    9.3635    1.1452 C   0  0  0  0  0  0  0  0  0  0  0  0
   -7.8553    9.5283   -0.2437 C   0  0  0  0  0  0  0  0  0  0  0  0
   -7.6279    8.4092   -1.0572 C   0  0  0  0  0  0  0  0  0  0  0  0
   -7.4632    7.1408   -0.4987 C   0  0  0  0  0  0  0  0  0  0  0  0
   -7.5143    6.9974    0.8869 C   0  0  0  0  0  0  0  0  0  0  0  0
   -9.3428    1.6940    8.2684 C   0  0  0  0  0  0  0  0  0  0  0  0
   -8.3859    0.6951    7.6020 C   0  0  0  0  0  0  0  0  0  0  0  0
   -9.8989    1.1328    9.6075 C   0  0  0  0  0  0  0  0  0  0  0  0
   -4.7282    4.7326    8.4277 C   0  0  0  0  0  0  0  0  0  0  0  0
   -4.5829    5.4644    7.1782 C   0  0  0  0  0  0  0  0  0  0  0  0
   -5.5778    6.3510    6.8015 C   0  0  0  0  0  0  0  0  0  0  0  0
   -3.4777    5.2293    6.3527 C   0  0  0  0  0  0  0  0  0  0  0  0
   -5.4291    7.0303    5.5876 C   0  0  0  0  0  0  0  0  0  0  0  0
   -3.3327    5.8967    5.1319 C   0  0  0  0  0  0  0  0  0  0  0  0
   -4.3308    6.8020    4.7488 C   0  0  0  0  0  0  0  0  0  0  0  0
   -2.5320    3.3905   10.5907 C   0  0  0  0  0  0  0  0  0  0  0  0
   -2.7724    2.6631   12.9340 C   0  0  0  0  0  0  0  0  0  0  0  0
   -3.4499    3.7242   13.2103 O   0  0  0  0  0  0  0  0  0  0  0  0
   -2.3475    2.4160   11.7096 N   0  0  0  0  0  0  0  0  0  0  0  0
   -1.8939    1.5616   11.5267 H   0  0  0  0  0  0  0  0  0  0  0  0
   -2.5925    1.7121   14.0701 C   0  0  0  0  0  0  0  0  0  0  0  0
   -0.3797    1.9643   15.1143 C   0  0  0  0  0  0  0  0  0  0  0  0
    0.2124    1.0843   14.3634 O   0  0  0  0  0  0  0  0  0  0  0  0
   -1.6186    2.2872   14.9870 N   0  0  0  0  0  0  0  0  0  0  0  0
   -1.9452    3.0047   15.5766 H   0  0  0  0  0  0  0  0  0  0  0  0
    0.4330    2.6418   16.1878 C   0  0  0  0  0  0  0  0  0  0  0  0
    1.8884    2.4527   15.8674 C   0  0  0  0  0  0  0  0  0  0  0  0
   -0.7991    2.2350   18.1264 C   0  0  0  0  0  0  0  0  0  0  0  0
   -1.5494    3.1868   18.0583 O   0  0  0  0  0  0  0  0  0  0  0  0
    0.2444    2.0050   17.3439 N   0  0  0  0  0  0  0  0  0  0  0  0
    0.9084    1.3359   17.6277 H   0  0  0  0  0  0  0  0  0  0  0  0
   -0.8707    1.5184   19.2612 O   0  0  0  0  0  0  0  0  0  0  0  0
   -0.9387    0.0732   19.2499 C   0  0  0  0  0  0  0  0  0  0  0  0
   -0.5693   -0.5169   20.5764 C   0  0  0  0  0  0  0  0  0  0  0  0
    0.1691   -1.6936   20.6290 C   0  0  0  0  0  0  0  0  0  0  0  0
    0.5020   -2.2387   21.8829 C   0  0  0  0  0  0  0  0  0  0  0  0
    0.1105   -1.6309   23.0812 C   0  0  0  0  0  0  0  0  0  0  0  0
   -0.6323   -0.4494   23.0284 C   0  0  0  0  0  0  0  0  0  0  0  0
   -0.9514    0.0751   21.7798 C   0  0  0  0  0  0  0  0  0  0  0  0
   -3.8516    1.3062   14.8123 C   0  0  0  0  0  0  0  0  0  0  0  0
   -3.5902    0.3503   15.9961 C   0  0  0  0  0  0  0  0  0  0  0  0
   -4.8795    0.6904   13.8499 C   0  0  0  0  0  0  0  0  0  0  0  0
   -1.2694    4.1590   10.1510 C   0  0  0  0  0  0  0  0  0  0  0  0
   -0.4379    4.5413   11.3057 C   0  0  0  0  0  0  0  0  0  0  0  0
   -0.8467    5.6566   12.0413 C   0  0  0  0  0  0  0  0  0  0  0  0
    0.7047    3.7994   11.6276 C   0  0  0  0  0  0  0  0  0  0  0  0
   -0.1135    6.0464   13.1474 C   0  0  0  0  0  0  0  0  0  0  0  0
    1.4450    4.2044   12.7348 C   0  0  0  0  0  0  0  0  0  0  0  0
    1.0187    5.3106   13.4870 C   0  0  0  0  0  0  0  0  0  0  0  0
 53 54  2  0  0  0
 53 57  1  0  0  0
 53 55  1  0  0  0
 57 58  1  0  0  0
 58 59  1  0  0  0
 59 60  2  0  0  0
 59 64  1  0  0  0
 60 61  1  0  0  0
 61 62  2  0  0  0
 62 63  1  0  0  0
 63 64  2  0  0  0
 55 51  1  0  0  0
 51 47  1  0  0  0
 51 52  1  0  0  0
 47 48  2  0  0  0
 47 49  1  0  0  0
 49 46  1  0  0  0
 46 42  1  0  0  0
 46 65  1  0  0  0
 42 43  2  0  0  0
 42 44  1  0  0  0
 65 66  1  0  0  0
 65 67  1  0  0  0
  1  2  1  0  0  0
  1 41  1  0  0  0
  1  4  1  0  0  0
 41 44  1  0  0  0
 41 68  1  0  0  0
 68 69  1  0  0  0
 69 70  2  0  0  0
 69 71  1  0  0  0
 70 72  1  0  0  0
 71 73  2  0  0  0
 72 74  2  0  0  0
 73 74  1  0  0  0
  8  7  1  0  0  0
  8  9  1  0  0  0
  7  4  1  0  0  0
  7 34  1  0  0  0
  4  5  1  0  0  0
 34 35  1  0  0  0
 35 36  2  0  0  0
 35 37  1  0  0  0
 36 38  1  0  0  0
 37 39  2  0  0  0
 38 40  2  0  0  0
 39 40  1  0  0  0
 13 12  1  0  0  0
 13 14  1  0  0  0
 12  9  1  0  0  0
 12 31  1  0  0  0
  9 10  2  0  0  0
 31 32  1  0  0  0
 31 33  1  0  0  0
 19 17  1  0  0  0
 19 20  1  0  0  0
 17 14  1  0  0  0
 17 18  1  0  0  0
 14 15  2  0  0  0
 20 21  2  0  0  0
 20 23  1  0  0  0
 23 24  1  0  0  0
 24 25  1  0  0  0
 25 26  2  0  0  0
 25 30  1  0  0  0
 26 27  1  0  0  0
 27 28  2  0  0  0
 28 29  1  0  0  0
 29 30  2  0  0  0
 55 56  1  0  0  0
 49 50  1  0  0  0
  2  3  1  0  0  0
 44 45  1  0  0  0
  8 11  1  0  0  0
  5  6  1  0  0  0
 13 16  1  0  0  0
 19 22  1  0  0  0
M  END
> <minimizedAffinity>
-10.82760

$$$$
3SLZ_3TL_A_126


 74 77  0  0  0  0  0  0  0  0999 V2000
   -3.9874    2.0282    9.2102 C   0  0  0  0  0  0  0  0  0  0  0  0
   -3.4744    1.6692    7.9445 O   0  0  0  0  0  0  0  0  0  0  0  0
   -3.3209    2.4699    7.4189 H   0  0  0  0  0  0  0  0  0  0  0  0
   -2.9982    2.8077    9.9714 C   0  0  0  0  0  0  0  0  0  0  0  0
   -1.8674    1.9533    9.9433 O   0  0  0  0  0  0  0  0  0  0  0  0
   -2.0990    1.0974   10.3366 H   0  0  0  0  0  0  0  0  0  0  0  0
   -3.4482    3.1890   11.3670 C   0  0  0  0  0  0  0  0  0  0  0  0
   -2.8437    2.4526   12.4704 N   0  0  0  0  0  0  0  0  0  0  0  0
   -3.2210    2.3697   13.6704 C   0  0  0  0  0  0  0  0  0  0  0  0
   -4.3408    2.9495   14.0658 O   0  0  0  0  0  0  0  0  0  0  0  0
   -2.0271    1.9499   12.2473 H   0  0  0  0  0  0  0  0  0  0  0  0
   -2.4627    1.5322   14.6924 C   0  0  0  0  0  0  0  0  0  0  0  0
   -1.5409    2.3488   15.4529 N   0  0  0  0  0  0  0  0  0  0  0  0
   -0.2818    2.1716   15.4744 C   0  0  0  0  0  0  0  0  0  0  0  0
    0.1914    1.1929   14.7162 O   0  0  0  0  0  0  0  0  0  0  0  0
   -1.9119    3.0879   15.9870 H   0  0  0  0  0  0  0  0  0  0  0  0
    0.7525    2.9519   16.1750 C   0  0  0  0  0  0  0  0  0  0  0  0
    2.0820    3.1599   15.4525 C   0  0  0  0  0  0  0  0  0  0  0  0
    0.8888    2.5423   17.3458 N   0  0  0  0  0  0  0  0  0  0  0  0
    0.1615    2.8861   18.3816 C   0  0  0  0  0  0  0  0  0  0  0  0
   -0.8556    3.5879   18.2231 O   0  0  0  0  0  0  0  0  0  0  0  0
    1.6143    1.8969   17.5080 H   0  0  0  0  0  0  0  0  0  0  0  0
    0.3568    2.2530   19.5050 O   0  0  0  0  0  0  0  0  0  0  0  0
    1.2630    2.7814   20.5133 C   0  0  0  0  0  0  0  0  0  0  0  0
    1.7788    4.1708   20.2754 C   0  0  0  0  0  0  0  0  0  0  0  0
    1.0882    5.3227   20.6805 C   0  0  0  0  0  0  0  0  0  0  0  0
    1.6103    6.5943   20.4165 C   0  0  0  0  0  0  0  0  0  0  0  0
    2.8284    6.7056   19.7311 C   0  0  0  0  0  0  0  0  0  0  0  0
    3.5178    5.5678   19.3090 C   0  0  0  0  0  0  0  0  0  0  0  0
    2.9867    4.3096   19.5884 C   0  0  0  0  0  0  0  0  0  0  0  0
   -3.3667    0.7710   15.6690 C   0  0  0  0  0  0  0  0  0  0  0  0
   -4.4029   -0.1610   15.0244 C   0  0  0  0  0  0  0  0  0  0  0  0
   -2.6729    0.0882   16.8813 C   0  0  0  0  0  0  0  0  0  0  0  0
   -3.0688    4.6420   11.4650 C   0  0  0  0  0  0  0  0  0  0  0  0
   -1.6173    4.7174   11.3926 C   0  0  0  0  0  0  0  0  0  0  0  0
   -0.8673    4.2249   12.4476 C   0  0  0  0  0  0  0  0  0  0  0  0
   -1.0010    5.3272   10.2942 C   0  0  0  0  0  0  0  0  0  0  0  0
    0.5258    4.3242   12.3677 C   0  0  0  0  0  0  0  0  0  0  0  0
    0.3911    5.4404   10.2175 C   0  0  0  0  0  0  0  0  0  0  0  0
    1.1565    4.9360   11.2769 C   0  0  0  0  0  0  0  0  0  0  0  0
   -5.2936    2.7155    8.9771 C   0  0  0  0  0  0  0  0  0  0  0  0
   -5.6835    4.5065    7.3284 C   0  0  0  0  0  0  0  0  0  0  0  0
   -5.9331    5.3451    8.2749 O   0  0  0  0  0  0  0  0  0  0  0  0
   -5.3293    3.2619    7.5858 N   0  0  0  0  0  0  0  0  0  0  0  0
   -5.0802    2.6735    6.8369 H   0  0  0  0  0  0  0  0  0  0  0  0
   -5.7366    5.0736    5.9489 C   0  0  0  0  0  0  0  0  0  0  0  0
   -7.9020    4.5566    4.9028 C   0  0  0  0  0  0  0  0  0  0  0  0
   -7.5351    3.4069    4.4206 O   0  0  0  0  0  0  0  0  0  0  0  0
   -7.1340    5.3060    5.6126 N   0  0  0  0  0  0  0  0  0  0  0  0
   -7.5371    6.1306    5.9688 H   0  0  0  0  0  0  0  0  0  0  0  0
   -9.3033    5.0313    4.6148 C   0  0  0  0  0  0  0  0  0  0  0  0
  -10.2130    3.8359    4.6028 C   0  0  0  0  0  0  0  0  0  0  0  0
   -8.9359    6.7389    3.0687 C   0  0  0  0  0  0  0  0  0  0  0  0
   -8.7181    7.6395    3.8529 O   0  0  0  0  0  0  0  0  0  0  0  0
   -9.3516    5.5193    3.3751 N   0  0  0  0  0  0  0  0  0  0  0  0
   -9.7113    4.9494    2.6574 H   0  0  0  0  0  0  0  0  0  0  0  0
   -9.0348    7.1027    1.7786 O   0  0  0  0  0  0  0  0  0  0  0  0
   -8.5380    8.3756    1.3028 C   0  0  0  0  0  0  0  0  0  0  0  0
   -8.5910    8.4765   -0.1908 C   0  0  0  0  0  0  0  0  0  0  0  0
   -7.7993    7.6402   -0.9696 C   0  0  0  0  0  0  0  0  0  0  0  0
   -7.8555    7.7523   -2.3712 C   0  0  0  0  0  0  0  0  0  0  0  0
   -8.6858    8.6831   -3.0061 C   0  0  0  0  0  0  0  0  0  0  0  0
   -9.4803    9.5241   -2.2238 C   0  0  0  0  0  0  0  0  0  0  0  0
   -9.4120    9.3982   -0.8398 C   0  0  0  0  0  0  0  0  0  0  0  0
   -4.9122    6.3230    5.7038 C   0  0  0  0  0  0  0  0  0  0  0  0
   -5.1060    6.9250    4.2955 C   0  0  0  0  0  0  0  0  0  0  0  0
   -3.4217    6.0552    5.9660 C   0  0  0  0  0  0  0  0  0  0  0  0
   -6.3663    1.6603    9.3146 C   0  0  0  0  0  0  0  0  0  0  0  0
   -7.7212    2.1434    8.9961 C   0  0  0  0  0  0  0  0  0  0  0  0
   -8.2695    3.1051    9.8485 C   0  0  0  0  0  0  0  0  0  0  0  0
   -8.4035    1.6434    7.8807 C   0  0  0  0  0  0  0  0  0  0  0  0
   -9.5304    3.6079    9.5833 C   0  0  0  0  0  0  0  0  0  0  0  0
   -9.6771    2.1447    7.6264 C   0  0  0  0  0  0  0  0  0  0  0  0
  -10.2161    3.1288    8.4703 C   0  0  0  0  0  0  0  0  0  0  0  0
 53 54  2  0  0  0
 53 57  1  0  0  0
 53 55  1  0  0  0
 57 58  1  0  0  0
 58 59  1  0  0  0
 59 60  2  0  0  0
 59 64  1  0  0  0
 60 61  1  0  0  0
 61 62  2  0  0  0
 62 63  1  0  0  0
 63 64  2  0  0  0
 55 51  1  0  0  0
 51 47  1  0  0  0
 51 52  1  0  0  0
 47 48  2  0  0  0
 47 49  1  0  0  0
 49 46  1  0  0  0
 46 42  1  0  0  0
 46 65  1  0  0  0
 42 43  2  0  0  0
 42 44  1  0  0  0
 65 66  1  0  0  0
 65 67  1  0  0  0
  1  2  1  0  0  0
  1 41  1  0  0  0
  1  4  1  0  0  0
 41 44  1  0  0  0
 41 68  1  0  0  0
 68 69  1  0  0  0
 69 70  2  0  0  0
 69 71  1  0  0  0
 70 72  1  0  0  0
 71 73  2  0  0  0
 72 74  2  0  0  0
 73 74  1  0  0  0
  8  7  1  0  0  0
  8  9  1  0  0  0
  7  4  1  0  0  0
  7 34  1  0  0  0
  4  5  1  0  0  0
 34 35  1  0  0  0
 35 36  2  0  0  0
 35 37  1  0  0  0
 36 38  1  0  0  0
 37 39  2  0  0  0
 38 40  2  0  0  0
 39 40  1  0  0  0
 13 12  1  0  0  0
 13 14  1  0  0  0
 12  9  1  0  0  0
 12 31  1  0  0  0
  9 10  2  0  0  0
 31 32  1  0  0  0
 31 33  1  0  0  0
 19 17  1  0  0  0
 19 20  1  0  0  0
 17 14  1  0  0  0
 17 18  1  0  0  0
 14 15  2  0  0  0
 20 21  2  0  0  0
 20 23  1  0  0  0
 23 24  1  0  0  0
 24 25  1  0  0  0
 25 26  2  0  0  0
 25 30  1  0  0  0
 26 27  1  0  0  0
 27 28  2  0  0  0
 28 29  1  0  0  0
 29 30  2  0  0  0
 55 56  1  0  0  0
 49 50  1  0  0  0
  2  3  1  0  0  0
 44 45  1  0  0  0
  8 11  1  0  0  0
  5  6  1  0  0  0
 13 16  1  0  0  0
 19 22  1  0  0  0
M  END
> <minimizedAffinity>
-10.45339

$$$$
3SLZ_3TL_A_126


 74 77  0  0  0  0  0  0  0  0999 V2000
   -3.8346    2.4777   10.6849 C   0  0  0  0  0  0  0  0  0  0  0  0
   -2.8731    1.7024   11.3692 O   0  0  0  0  0  0  0  0  0  0  0  0
   -3.0522    0.7606   11.2211 H   0  0  0  0  0  0  0  0  0  0  0  0
   -3.7198    2.2853    9.2305 C   0  0  0  0  0  0  0  0  0  0  0  0
   -3.1024    1.0118    9.1512 O   0  0  0  0  0  0  0  0  0  0  0  0
   -2.2567    1.0323    9.6256 H   0  0  0  0  0  0  0  0  0  0  0  0
   -2.9596    3.3844    8.5164 C   0  0  0  0  0  0  0  0  0  0  0  0
   -3.5170    3.8460    7.2510 N   0  0  0  0  0  0  0  0  0  0  0  0
   -4.5825    4.4857    7.0393 C   0  0  0  0  0  0  0  0  0  0  0  0
   -5.3371    4.8892    8.0464 O   0  0  0  0  0  0  0  0  0  0  0  0
   -2.9877    3.6278    6.4501 H   0  0  0  0  0  0  0  0  0  0  0  0
   -5.0026    4.8995    5.6346 C   0  0  0  0  0  0  0  0  0  0  0  0
   -6.3944    5.2960    5.6037 N   0  0  0  0  0  0  0  0  0  0  0  0
   -7.3109    4.6364    5.0189 C   0  0  0  0  0  0  0  0  0  0  0  0
   -6.9462    3.5012    4.4400 O   0  0  0  0  0  0  0  0  0  0  0  0
   -6.6473    6.1285    6.0643 H   0  0  0  0  0  0  0  0  0  0  0  0
   -8.7551    4.9173    4.9493 C   0  0  0  0  0  0  0  0  0  0  0  0
   -9.7074    3.7917    5.3481 C   0  0  0  0  0  0  0  0  0  0  0  0
   -9.0448    5.4406    3.8542 N   0  0  0  0  0  0  0  0  0  0  0  0
   -9.0144    6.7205    3.5694 C   0  0  0  0  0  0  0  0  0  0  0  0
   -8.5395    7.5297    4.3890 O   0  0  0  0  0  0  0  0  0  0  0  0
   -9.3240    4.8322    3.1322 H   0  0  0  0  0  0  0  0  0  0  0  0
   -9.2158    7.0779    2.3314 O   0  0  0  0  0  0  0  0  0  0  0  0
   -8.1744    7.7486    1.5680 C   0  0  0  0  0  0  0  0  0  0  0  0
   -8.4911    8.0369    0.1293 C   0  0  0  0  0  0  0  0  0  0  0  0
   -9.5271    8.8949   -0.2685 C   0  0  0  0  0  0  0  0  0  0  0  0
   -9.7874    9.1132   -1.6265 C   0  0  0  0  0  0  0  0  0  0  0  0
   -9.0071    8.4548   -2.5876 C   0  0  0  0  0  0  0  0  0  0  0  0
   -7.9835    7.5866   -2.2050 C   0  0  0  0  0  0  0  0  0  0  0  0
   -7.7334    7.3882   -0.8481 C   0  0  0  0  0  0  0  0  0  0  0  0
   -4.1557    6.0297    5.0380 C   0  0  0  0  0  0  0  0  0  0  0  0
   -4.6964    6.6501    3.7417 C   0  0  0  0  0  0  0  0  0  0  0  0
   -3.6554    7.1260    6.0204 C   0  0  0  0  0  0  0  0  0  0  0  0
   -2.9715    4.5128    9.5122 C   0  0  0  0  0  0  0  0  0  0  0  0
   -1.6370    4.5990   10.0862 C   0  0  0  0  0  0  0  0  0  0  0  0
   -0.6629    3.7149    9.6532 C   0  0  0  0  0  0  0  0  0  0  0  0
   -1.3674    5.5289   11.0965 C   0  0  0  0  0  0  0  0  0  0  0  0
    0.6081    3.8011   10.2311 C   0  0  0  0  0  0  0  0  0  0  0  0
   -0.1014    5.6086   11.6862 C   0  0  0  0  0  0  0  0  0  0  0  0
    0.8915    4.7235   11.2464 C   0  0  0  0  0  0  0  0  0  0  0  0
   -5.1687    2.1384   11.2664 C   0  0  0  0  0  0  0  0  0  0  0  0
   -4.9047    0.9713   13.4219 C   0  0  0  0  0  0  0  0  0  0  0  0
   -4.7338   -0.1509   12.8113 O   0  0  0  0  0  0  0  0  0  0  0  0
   -5.0683    2.0995   12.7577 N   0  0  0  0  0  0  0  0  0  0  0  0
   -5.1261    2.9438   13.2608 H   0  0  0  0  0  0  0  0  0  0  0  0
   -4.8111    0.9039   14.9099 C   0  0  0  0  0  0  0  0  0  0  0  0
   -2.5178    1.0240   15.7912 C   0  0  0  0  0  0  0  0  0  0  0  0
   -2.3698   -0.2600   15.9263 O   0  0  0  0  0  0  0  0  0  0  0  0
   -3.5804    1.5693   15.3130 N   0  0  0  0  0  0  0  0  0  0  0  0
   -3.5589    2.5479   15.2075 H   0  0  0  0  0  0  0  0  0  0  0  0
   -1.3803    1.9171   16.2161 C   0  0  0  0  0  0  0  0  0  0  0  0
   -0.2022    1.6349   15.3279 C   0  0  0  0  0  0  0  0  0  0  0  0
   -0.8251    2.4451   18.4193 C   0  0  0  0  0  0  0  0  0  0  0  0
   -0.7484    3.6502   18.2951 O   0  0  0  0  0  0  0  0  0  0  0  0
   -0.9861    1.5674   17.4407 N   0  0  0  0  0  0  0  0  0  0  0  0
   -0.8072    0.6170   17.6253 H   0  0  0  0  0  0  0  0  0  0  0  0
   -0.4299    1.9568   19.6076 O   0  0  0  0  0  0  0  0  0  0  0  0
   -1.3370    1.2449   20.4816 C   0  0  0  0  0  0  0  0  0  0  0  0
   -0.6917    0.0444   21.1032 C   0  0  0  0  0  0  0  0  0  0  0  0
   -0.2025   -0.9751   20.2945 C   0  0  0  0  0  0  0  0  0  0  0  0
    0.3946   -2.0994   20.8943 C   0  0  0  0  0  0  0  0  0  0  0  0
    0.5103   -2.2226   22.2836 C   0  0  0  0  0  0  0  0  0  0  0  0
    0.0180   -1.1989   23.0961 C   0  0  0  0  0  0  0  0  0  0  0  0
   -0.5684   -0.0949   22.4853 C   0  0  0  0  0  0  0  0  0  0  0  0
   -5.9947    1.4536   15.6832 C   0  0  0  0  0  0  0  0  0  0  0  0
   -5.9849    1.0748   17.1798 C   0  0  0  0  0  0  0  0  0  0  0  0
   -7.3197    1.0220   15.0351 C   0  0  0  0  0  0  0  0  0  0  0  0
   -6.1373    3.1871   10.6832 C   0  0  0  0  0  0  0  0  0  0  0  0
   -7.2392    2.5526    9.9390 C   0  0  0  0  0  0  0  0  0  0  0  0
   -6.9343    1.3973    9.2148 C   0  0  0  0  0  0  0  0  0  0  0  0
   -8.5248    3.1054    9.9762 C   0  0  0  0  0  0  0  0  0  0  0  0
   -7.9366    0.7502    8.5150 C   0  0  0  0  0  0  0  0  0  0  0  0
   -9.5263    2.4561    9.2597 C   0  0  0  0  0  0  0  0  0  0  0  0
   -9.2229    1.2816    8.5528 C   0  0  0  0  0  0  0  0  0  0  0  0
 53 54  2  0  0  0
 53 57  1  0  0  0
 53 55  1  0  0  0
 57 58  1  0  0  0
 58 59  1  0  0  0
 59 60  2  0  0  0
 59 64  1  0  0  0
 60 61  1  0  0  0
 61 62  2  0  0  0
 62 63  1  0  0  0
 63 64  2  0  0  0
 55 51  1  0  0  0
 51 47  1  0  0  0
 51 52  1  0  0  0
 47 48  2  0  0  0
 47 49  1  0  0  0
 49 46  1  0  0  0
 46 42  1  0  0  0
 46 65  1  0  0  0
 42 43  2  0  0  0
 42 44  1  0  0  0
 65 66  1  0  0  0
 65 67  1  0  0  0
  1  2  1  0  0  0
  1 41  1  0  0  0
  1  4  1  0  0  0
 41 44  1  0  0  0
 41 68  1  0  0  0
 68 69  1  0  0  0
 69 70  2  0  0  0
 69 71  1  0  0  0
 70 72  1  0  0  0
 71 73  2  0  0  0
 72 74  2  0  0  0
 73 74  1  0  0  0
  8  7  1  0  0  0
  8  9  1  0  0  0
  7  4  1  0  0  0
  7 34  1  0  0  0
  4  5  1  0  0  0
 34 35  1  0  0  0
 35 36  2  0  0  0
 35 37  1  0  0  0
 36 38  1  0  0  0
 37 39  2  0  0  0
 38 40  2  0  0  0
 39 40  1  0  0  0
 13 12  1  0  0  0
 13 14  1  0  0  0
 12  9  1  0  0  0
 12 31  1  0  0  0
  9 10  2  0  0  0
 31 32  1  0  0  0
 31 33  1  0  0  0
 19 17  1  0  0  0
 19 20  1  0  0  0
 17 14  1  0  0  0
 17 18  1  0  0  0
 14 15  2  0  0  0
 20 21  2  0  0  0
 20 23  1  0  0  0
 23 24  1  0  0  0
 24 25  1  0  0  0
 25 26  2  0  0  0
 25 30  1  0  0  0
 26 27  1  0  0  0
 27 28  2  0  0  0
 28 29  1  0  0  0
 29 30  2  0  0  0
 55 56  1  0  0  0
 49 50  1  0  0  0
  2  3  1  0  0  0
 44 45  1  0  0  0
  8 11  1  0  0  0
  5  6  1  0  0  0
 13 16  1  0  0  0
 19 22  1  0  0  0
M  END
> <minimizedAffinity>
-10.38575

$$$$
3SLZ_3TL_A_126


 74 77  0  0  0  0  0  0  0  0999 V2000
   -4.9587    1.6336    9.5962 C   0  0  0  0  0  0  0  0  0  0  0  0
   -4.8346    1.0256    8.3278 O   0  0  0  0  0  0  0  0  0  0  0  0
   -4.1073    1.4420    7.8394 H   0  0  0  0  0  0  0  0  0  0  0  0
   -3.7567    1.3916   10.4099 C   0  0  0  0  0  0  0  0  0  0  0  0
   -4.2998    0.7501   11.5513 O   0  0  0  0  0  0  0  0  0  0  0  0
   -4.9595    1.3290   11.9643 H   0  0  0  0  0  0  0  0  0  0  0  0
   -2.9584    2.6401   10.7259 C   0  0  0  0  0  0  0  0  0  0  0  0
   -2.3463    2.7049   12.0473 N   0  0  0  0  0  0  0  0  0  0  0  0
   -2.7338    3.3287   13.0719 C   0  0  0  0  0  0  0  0  0  0  0  0
   -3.8728    3.9989   13.0616 O   0  0  0  0  0  0  0  0  0  0  0  0
   -1.5142    2.1896   12.1545 H   0  0  0  0  0  0  0  0  0  0  0  0
   -1.9643    3.2682   14.3853 C   0  0  0  0  0  0  0  0  0  0  0  0
   -2.7478    2.6239   15.4179 N   0  0  0  0  0  0  0  0  0  0  0  0
   -3.3958    1.5425   15.2511 C   0  0  0  0  0  0  0  0  0  0  0  0
   -3.3012    0.9736   14.0577 O   0  0  0  0  0  0  0  0  0  0  0  0
   -2.7811    3.0495   16.3050 H   0  0  0  0  0  0  0  0  0  0  0  0
   -4.1926    0.7792   16.2267 C   0  0  0  0  0  0  0  0  0  0  0  0
   -5.6967    1.0425   16.2614 C   0  0  0  0  0  0  0  0  0  0  0  0
   -3.6602    0.8243   17.3544 N   0  0  0  0  0  0  0  0  0  0  0  0
   -2.6554    0.0921   17.7720 C   0  0  0  0  0  0  0  0  0  0  0  0
   -2.0501   -0.6482   16.9733 O   0  0  0  0  0  0  0  0  0  0  0  0
   -4.0313    1.4740   17.9942 H   0  0  0  0  0  0  0  0  0  0  0  0
   -2.1364    0.3701   18.9357 O   0  0  0  0  0  0  0  0  0  0  0  0
   -0.7286    0.1200   19.2055 C   0  0  0  0  0  0  0  0  0  0  0  0
   -0.4108   -0.5055   20.5325 C   0  0  0  0  0  0  0  0  0  0  0  0
    0.2413   -1.7410   20.6589 C   0  0  0  0  0  0  0  0  0  0  0  0
    0.4967   -2.2839   21.9236 C   0  0  0  0  0  0  0  0  0  0  0  0
    0.0829   -1.5836   23.0657 C   0  0  0  0  0  0  0  0  0  0  0  0
   -0.5807   -0.3609   22.9532 C   0  0  0  0  0  0  0  0  0  0  0  0
   -0.8187    0.1683   21.6857 C   0  0  0  0  0  0  0  0  0  0  0  0
   -0.6088    2.5594   14.2818 C   0  0  0  0  0  0  0  0  0  0  0  0
    0.5526    3.4214   13.7661 C   0  0  0  0  0  0  0  0  0  0  0  0
   -0.1722    1.6976   15.5000 C   0  0  0  0  0  0  0  0  0  0  0  0
   -1.8828    2.6354    9.6734 C   0  0  0  0  0  0  0  0  0  0  0  0
   -0.9549    3.7089    9.9964 C   0  0  0  0  0  0  0  0  0  0  0  0
   -1.4281    5.0093   10.0527 C   0  0  0  0  0  0  0  0  0  0  0  0
    0.4016    3.4273   10.1933 C   0  0  0  0  0  0  0  0  0  0  0  0
   -0.5166    6.0293   10.3455 C   0  0  0  0  0  0  0  0  0  0  0  0
    1.3181    4.4465   10.4728 C   0  0  0  0  0  0  0  0  0  0  0  0
    0.8447    5.7633   10.5403 C   0  0  0  0  0  0  0  0  0  0  0  0
   -5.2888    3.0725    9.3644 C   0  0  0  0  0  0  0  0  0  0  0  0
   -5.6351    4.5264    7.4037 C   0  0  0  0  0  0  0  0  0  0  0  0
   -5.5836    5.5745    8.1520 O   0  0  0  0  0  0  0  0  0  0  0  0
   -5.4576    3.3164    7.8989 N   0  0  0  0  0  0  0  0  0  0  0  0
   -5.4356    2.5487    7.2830 H   0  0  0  0  0  0  0  0  0  0  0  0
   -5.8155    4.7960    5.9469 C   0  0  0  0  0  0  0  0  0  0  0  0
   -8.0171    4.2897    4.9737 C   0  0  0  0  0  0  0  0  0  0  0  0
   -7.6422    3.1949    4.3824 O   0  0  0  0  0  0  0  0  0  0  0  0
   -7.2352    5.0065    5.7017 N   0  0  0  0  0  0  0  0  0  0  0  0
   -7.6432    5.7861    6.1433 H   0  0  0  0  0  0  0  0  0  0  0  0
   -9.4453    4.7376    4.7964 C   0  0  0  0  0  0  0  0  0  0  0  0
  -10.3105    3.5160    4.6707 C   0  0  0  0  0  0  0  0  0  0  0  0
   -9.1389    6.6105    3.4400 C   0  0  0  0  0  0  0  0  0  0  0  0
   -8.8511    7.4086    4.3082 O   0  0  0  0  0  0  0  0  0  0  0  0
   -9.5617    5.3697    3.6282 N   0  0  0  0  0  0  0  0  0  0  0  0
   -9.9793    4.8941    2.8742 H   0  0  0  0  0  0  0  0  0  0  0  0
   -9.3118    7.1259    2.2108 O   0  0  0  0  0  0  0  0  0  0  0  0
   -8.4618    8.1777    1.6961 C   0  0  0  0  0  0  0  0  0  0  0  0
   -8.5569    8.2980    0.2060 C   0  0  0  0  0  0  0  0  0  0  0  0
   -7.8047    7.4566   -0.6059 C   0  0  0  0  0  0  0  0  0  0  0  0
   -7.9001    7.5872   -2.0037 C   0  0  0  0  0  0  0  0  0  0  0  0
   -8.7307    8.5412   -2.6026 C   0  0  0  0  0  0  0  0  0  0  0  0
   -9.4855    9.3872   -1.7871 C   0  0  0  0  0  0  0  0  0  0  0  0
   -9.3788    9.2430   -0.4074 C   0  0  0  0  0  0  0  0  0  0  0  0
   -4.9978    5.9349    5.3680 C   0  0  0  0  0  0  0  0  0  0  0  0
   -5.1582    6.0973    3.8412 C   0  0  0  0  0  0  0  0  0  0  0  0
   -3.5125    5.7824    5.7324 C   0  0  0  0  0  0  0  0  0  0  0  0
   -6.5287    3.3442   10.2402 C   0  0  0  0  0  0  0  0  0  0  0  0
   -7.7610    2.8463    9.6046 C   0  0  0  0  0  0  0  0  0  0  0  0
   -8.6131    3.7980    9.0387 C   0  0  0  0  0  0  0  0  0  0  0  0
   -8.0380    1.4742    9.5831 C   0  0  0  0  0  0  0  0  0  0  0  0
   -9.7736    3.3826    8.4111 C   0  0  0  0  0  0  0  0  0  0  0  0
   -9.2135    1.0639    8.9606 C   0  0  0  0  0  0  0  0  0  0  0  0
  -10.0561    2.0199    8.3711 C   0  0  0  0  0  0  0  0  0  0  0  0
 53 54  2  0  0  0
 53 57  1  0  0  0
 53 55  1  0  0  0
 57 58  1  0  0  0
 58 59  1  0  0  0
 59 60  2  0  0  0
 59 64  1  0  0  0
 60 61  1  0  0  0
 61 62  2  0  0  0
 62 63  1  0  0  0
 63 64  2  0  0  0
 55 51  1  0  0  0
 51 47  1  0  0  0
 51 52  1  0  0  0
 47 48  2  0  0  0
 47 49  1  0  0  0
 49 46  1  0  0  0
 46 42  1  0  0  0
 46 65  1  0  0  0
 42 43  2  0  0  0
 42 44  1  0  0  0
 65 66  1  0  0  0
 65 67  1  0  0  0
  1  2  1  0  0  0
  1 41  1  0  0  0
  1  4  1  0  0  0
 41 44  1  0  0  0
 41 68  1  0  0  0
 68 69  1  0  0  0
 69 70  2  0  0  0
 69 71  1  0  0  0
 70 72  1  0  0  0
 71 73  2  0  0  0
 72 74  2  0  0  0
 73 74  1  0  0  0
  8  7  1  0  0  0
  8  9  1  0  0  0
  7  4  1  0  0  0
  7 34  1  0  0  0
  4  5  1  0  0  0
 34 35  1  0  0  0
 35 36  2  0  0  0
 35 37  1  0  0  0
 36 38  1  0  0  0
 37 39  2  0  0  0
 38 40  2  0  0  0
 39 40  1  0  0  0
 13 12  1  0  0  0
 13 14  1  0  0  0
 12  9  1  0  0  0
 12 31  1  0  0  0
  9 10  2  0  0  0
 31 32  1  0  0  0
 31 33  1  0  0  0
 19 17  1  0  0  0
 19 20  1  0  0  0
 17 14  1  0  0  0
 17 18  1  0  0  0
 14 15  2  0  0  0
 20 21  2  0  0  0
 20 23  1  0  0  0
 23 24  1  0  0  0
 24 25  1  0  0  0
 25 26  2  0  0  0
 25 30  1  0  0  0
 26 27  1  0  0  0
 27 28  2  0  0  0
 28 29  1  0  0  0
 29 30  2  0  0  0
 55 56  1  0  0  0
 49 50  1  0  0  0
  2  3  1  0  0  0
 44 45  1  0  0  0
  8 11  1  0  0  0
  5  6  1  0  0  0
 13 16  1  0  0  0
 19 22  1  0  0  0
M  END
> <minimizedAffinity>
-10.23673

$$$$
3SLZ_3TL_A_126


 74 77  0  0  0  0  0  0  0  0999 V2000
   -4.7106    2.8230   11.1657 C   0  0  0  0  0  0  0  0  0  0  0  0
   -3.7453    2.4057   10.2234 O   0  0  0  0  0  0  0  0  0  0  0  0
   -3.4893    3.1584    9.6678 H   0  0  0  0  0  0  0  0  0  0  0  0
   -4.1397    3.8127   12.0931 C   0  0  0  0  0  0  0  0  0  0  0  0
   -3.6898    4.8214   11.2045 O   0  0  0  0  0  0  0  0  0  0  0  0
   -3.0557    4.4403   10.5771 H   0  0  0  0  0  0  0  0  0  0  0  0
   -3.0577    3.2628   13.0000 C   0  0  0  0  0  0  0  0  0  0  0  0
   -1.7586    3.9214   12.9379 N   0  0  0  0  0  0  0  0  0  0  0  0
   -0.6287    3.4821   13.2838 C   0  0  0  0  0  0  0  0  0  0  0  0
   -0.4932    2.2425   13.7214 O   0  0  0  0  0  0  0  0  0  0  0  0
   -1.7646    4.8367   12.5754 H   0  0  0  0  0  0  0  0  0  0  0  0
    0.6362    4.3174   13.1313 C   0  0  0  0  0  0  0  0  0  0  0  0
    1.7192    3.7697   13.9202 N   0  0  0  0  0  0  0  0  0  0  0  0
    2.0497    4.1968   15.0715 C   0  0  0  0  0  0  0  0  0  0  0  0
    1.3171    5.1823   15.5702 O   0  0  0  0  0  0  0  0  0  0  0  0
    2.2321    3.0194   13.5417 H   0  0  0  0  0  0  0  0  0  0  0  0
    3.1004    3.7021   15.9775 C   0  0  0  0  0  0  0  0  0  0  0  0
    4.1022    2.7002   15.4069 C   0  0  0  0  0  0  0  0  0  0  0  0
    2.6034    3.3360   17.0620 N   0  0  0  0  0  0  0  0  0  0  0  0
    2.7768    3.9054   18.2307 C   0  0  0  0  0  0  0  0  0  0  0  0
    3.3824    4.9913   18.3106 O   0  0  0  0  0  0  0  0  0  0  0  0
    2.0236    2.5408   17.0380 H   0  0  0  0  0  0  0  0  0  0  0  0
    2.0687    3.4702   19.2357 O   0  0  0  0  0  0  0  0  0  0  0  0
    0.6147    3.5146   19.2006 C   0  0  0  0  0  0  0  0  0  0  0  0
   -0.0982    2.4382   19.9663 C   0  0  0  0  0  0  0  0  0  0  0  0
   -1.3876    1.9930   19.6391 C   0  0  0  0  0  0  0  0  0  0  0  0
   -2.0101    0.9966   20.4001 C   0  0  0  0  0  0  0  0  0  0  0  0
   -1.3343    0.4546   21.5026 C   0  0  0  0  0  0  0  0  0  0  0  0
   -0.0573    0.8997   21.8480 C   0  0  0  0  0  0  0  0  0  0  0  0
    0.5502    1.8866   21.0734 C   0  0  0  0  0  0  0  0  0  0  0  0
    1.1117    4.4702   11.6818 C   0  0  0  0  0  0  0  0  0  0  0  0
    1.0356    3.2005   10.8216 C   0  0  0  0  0  0  0  0  0  0  0  0
    0.5949    5.7110   10.9005 C   0  0  0  0  0  0  0  0  0  0  0  0
   -3.6429    3.4345   14.3758 C   0  0  0  0  0  0  0  0  0  0  0  0
   -3.6955    2.1173   14.9925 C   0  0  0  0  0  0  0  0  0  0  0  0
   -4.6551    1.2151   14.5646 C   0  0  0  0  0  0  0  0  0  0  0  0
   -2.8205    1.7967   16.0363 C   0  0  0  0  0  0  0  0  0  0  0  0
   -4.7020   -0.0388   15.1832 C   0  0  0  0  0  0  0  0  0  0  0  0
   -2.8737    0.5488   16.6663 C   0  0  0  0  0  0  0  0  0  0  0  0
   -3.8359   -0.3722   16.2322 C   0  0  0  0  0  0  0  0  0  0  0  0
   -5.9042    3.2887   10.3966 C   0  0  0  0  0  0  0  0  0  0  0  0
   -5.6301    4.4819    8.2568 C   0  0  0  0  0  0  0  0  0  0  0  0
   -5.9040    5.6038    8.8292 O   0  0  0  0  0  0  0  0  0  0  0  0
   -5.5658    3.3562    8.9418 N   0  0  0  0  0  0  0  0  0  0  0  0
   -5.2858    2.5332    8.4797 H   0  0  0  0  0  0  0  0  0  0  0  0
   -5.3071    4.5745    6.8026 C   0  0  0  0  0  0  0  0  0  0  0  0
   -7.0930    4.9244    5.1477 C   0  0  0  0  0  0  0  0  0  0  0  0
   -6.9838    3.7519    4.5981 O   0  0  0  0  0  0  0  0  0  0  0  0
   -6.3825    5.3073    6.1496 N   0  0  0  0  0  0  0  0  0  0  0  0
   -6.5896    6.1971    6.5165 H   0  0  0  0  0  0  0  0  0  0  0  0
   -8.1094    5.8815    4.5795 C   0  0  0  0  0  0  0  0  0  0  0  0
   -9.3135    5.0917    4.1518 C   0  0  0  0  0  0  0  0  0  0  0  0
   -7.9766    7.6174    3.0269 C   0  0  0  0  0  0  0  0  0  0  0  0
   -8.9314    8.2637    3.4068 O   0  0  0  0  0  0  0  0  0  0  0  0
   -7.6254    6.4153    3.4578 N   0  0  0  0  0  0  0  0  0  0  0  0
   -6.9799    5.8942    2.9277 H   0  0  0  0  0  0  0  0  0  0  0  0
   -7.4078    8.0377    1.8840 O   0  0  0  0  0  0  0  0  0  0  0  0
   -7.3669    7.2073    0.6998 C   0  0  0  0  0  0  0  0  0  0  0  0
   -8.0099    7.8751   -0.4769 C   0  0  0  0  0  0  0  0  0  0  0  0
   -7.7906    7.3816   -1.7580 C   0  0  0  0  0  0  0  0  0  0  0  0
   -8.3963    8.0245   -2.8535 C   0  0  0  0  0  0  0  0  0  0  0  0
   -9.2140    9.1487   -2.6917 C   0  0  0  0  0  0  0  0  0  0  0  0
   -9.4334    9.6452   -1.4050 C   0  0  0  0  0  0  0  0  0  0  0  0
   -8.8269    8.9961   -0.3341 C   0  0  0  0  0  0  0  0  0  0  0  0
   -3.9595    5.1753    6.4506 C   0  0  0  0  0  0  0  0  0  0  0  0
   -2.9023    5.0171    7.5644 C   0  0  0  0  0  0  0  0  0  0  0  0
   -4.1047    6.6554    6.0631 C   0  0  0  0  0  0  0  0  0  0  0  0
   -7.0337    2.3117   10.7814 C   0  0  0  0  0  0  0  0  0  0  0  0
   -8.1208    2.3212    9.7870 C   0  0  0  0  0  0  0  0  0  0  0  0
   -9.0062    3.4014    9.8240 C   0  0  0  0  0  0  0  0  0  0  0  0
   -8.2349    1.2804    8.8578 C   0  0  0  0  0  0  0  0  0  0  0  0
  -10.0326    3.4700    8.8995 C   0  0  0  0  0  0  0  0  0  0  0  0
   -9.2774    1.3494    7.9380 C   0  0  0  0  0  0  0  0  0  0  0  0
  -10.1511    2.4481    7.9613 C   0  0  0  0  0  0  0  0  0  0  0  0
 53 54  2  0  0  0
 53 57  1  0  0  0
 53 55  1  0  0  0
 57 58  1  0  0  0
 58 59  1  0  0  0
 59 60  2  0  0  0
 59 64  1  0  0  0
 60 61  1  0  0  0
 61 62  2  0  0  0
 62 63  1  0  0  0
 63 64  2  0  0  0
 55 51  1  0  0  0
 51 47  1  0  0  0
 51 52  1  0  0  0
 47 48  2  0  0  0
 47 49  1  0  0  0
 49 46  1  0  0  0
 46 42  1  0  0  0
 46 65  1  0  0  0
 42 43  2  0  0  0
 42 44  1  0  0  0
 65 66  1  0  0  0
 65 67  1  0  0  0
  1  2  1  0  0  0
  1 41  1  0  0  0
  1  4  1  0  0  0
 41 44  1  0  0  0
 41 68  1  0  0  0
 68 69  1  0  0  0
 69 70  2  0  0  0
 69 71  1  0  0  0
 70 72  1  0  0  0
 71 73  2  0  0  0
 72 74  2  0  0  0
 73 74  1  0  0  0
  8  7  1  0  0  0
  8  9  1  0  0  0
  7  4  1  0  0  0
  7 34  1  0  0  0
  4  5  1  0  0  0
 34 35  1  0  0  0
 35 36  2  0  0  0
 35 37  1  0  0  0
 36 38  1  0  0  0
 37 39  2  0  0  0
 38 40  2  0  0  0
 39 40  1  0  0  0
 13 12  1  0  0  0
 13 14  1  0  0  0
 12  9  1  0  0  0
 12 31  1  0  0  0
  9 10  2  0  0  0
 31 32  1  0  0  0
 31 33  1  0  0  0
 19 17  1  0  0  0
 19 20  1  0  0  0
 17 14  1  0  0  0
 17 18  1  0  0  0
 14 15  2  0  0  0
 20 21  2  0  0  0
 20 23  1  0  0  0
 23 24  1  0  0  0
 24 25  1  0  0  0
 25 26  2  0  0  0
 25 30  1  0  0  0
 26 27  1  0  0  0
 27 28  2  0  0  0
 28 29  1  0  0  0
 29 30  2  0  0  0
 55 56  1  0  0  0
 49 50  1  0  0  0
  2  3  1  0  0  0
 44 45  1  0  0  0
  8 11  1  0  0  0
  5  6  1  0  0  0
 13 16  1  0  0  0
 19 22  1  0  0  0
M  END
> <minimizedAffinity>
-10.18844

$$$$
3SLZ_3TL_A_126


 74 77  0  0  0  0  0  0  0  0999 V2000
   -3.3040    1.7336   12.2063 C   0  0  0  0  0  0  0  0  0  0  0  0
   -3.9420    0.4841   12.0457 O   0  0  0  0  0  0  0  0  0  0  0  0
   -4.6750    0.4119   12.6769 H   0  0  0  0  0  0  0  0  0  0  0  0
   -4.2196    2.8339   11.8647 C   0  0  0  0  0  0  0  0  0  0  0  0
   -5.4704    2.1690   11.8134 O   0  0  0  0  0  0  0  0  0  0  0  0
   -5.4308    1.4558   11.1572 H   0  0  0  0  0  0  0  0  0  0  0  0
   -3.8594    3.5689   10.5897 C   0  0  0  0  0  0  0  0  0  0  0  0
   -4.9598    3.8875    9.6882 N   0  0  0  0  0  0  0  0  0  0  0  0
   -5.5415    3.1445    8.8522 C   0  0  0  0  0  0  0  0  0  0  0  0
   -5.2175    1.8677    8.7461 O   0  0  0  0  0  0  0  0  0  0  0  0
   -5.2956    4.8115    9.7395 H   0  0  0  0  0  0  0  0  0  0  0  0
   -6.6949    3.6519    7.9961 C   0  0  0  0  0  0  0  0  0  0  0  0
   -6.2334    4.0442    6.6815 N   0  0  0  0  0  0  0  0  0  0  0  0
   -5.7232    5.1779    6.4137 C   0  0  0  0  0  0  0  0  0  0  0  0
   -5.5855    6.0197    7.4281 O   0  0  0  0  0  0  0  0  0  0  0  0
   -6.3199    3.3925    5.9486 H   0  0  0  0  0  0  0  0  0  0  0  0
   -5.1891    5.6753    5.1343 C   0  0  0  0  0  0  0  0  0  0  0  0
   -3.7425    6.1654    5.1228 C   0  0  0  0  0  0  0  0  0  0  0  0
   -5.9853    6.4833    4.6146 N   0  0  0  0  0  0  0  0  0  0  0  0
   -7.0480    6.1845    3.9064 C   0  0  0  0  0  0  0  0  0  0  0  0
   -7.4218    4.9996    3.8139 O   0  0  0  0  0  0  0  0  0  0  0  0
   -5.7972    7.4402    4.7495 H   0  0  0  0  0  0  0  0  0  0  0  0
   -7.8447    7.1561    3.5568 O   0  0  0  0  0  0  0  0  0  0  0  0
   -8.9167    6.9356    2.5979 C   0  0  0  0  0  0  0  0  0  0  0  0
   -8.7866    7.6513    1.2848 C   0  0  0  0  0  0  0  0  0  0  0  0
   -9.8873    7.9720    0.4764 C   0  0  0  0  0  0  0  0  0  0  0  0
   -9.7037    8.6261   -0.7475 C   0  0  0  0  0  0  0  0  0  0  0  0
   -8.4040    8.9482   -1.1635 C   0  0  0  0  0  0  0  0  0  0  0  0
   -7.2994    8.6207   -0.3758 C   0  0  0  0  0  0  0  0  0  0  0  0
   -7.5022    7.9771    0.8439 C   0  0  0  0  0  0  0  0  0  0  0  0
   -7.8415    2.6469    7.8354 C   0  0  0  0  0  0  0  0  0  0  0  0
   -8.6092    2.3057    9.1206 C   0  0  0  0  0  0  0  0  0  0  0  0
   -8.8131    2.8748    6.6433 C   0  0  0  0  0  0  0  0  0  0  0  0
   -3.2366    4.8434   11.0924 C   0  0  0  0  0  0  0  0  0  0  0  0
   -1.7926    4.6689   11.0447 C   0  0  0  0  0  0  0  0  0  0  0  0
   -1.2496    3.8382   10.0788 C   0  0  0  0  0  0  0  0  0  0  0  0
   -0.9793    5.2933   11.9970 C   0  0  0  0  0  0  0  0  0  0  0  0
    0.1389    3.6683   10.0616 C   0  0  0  0  0  0  0  0  0  0  0  0
    0.4081    5.1146   11.9912 C   0  0  0  0  0  0  0  0  0  0  0  0
    0.9651    4.2829   11.0111 C   0  0  0  0  0  0  0  0  0  0  0  0
   -2.7556    1.7726   13.5958 C   0  0  0  0  0  0  0  0  0  0  0  0
   -0.4794    1.9335   14.5290 C   0  0  0  0  0  0  0  0  0  0  0  0
   -0.8184    1.1899   15.5256 O   0  0  0  0  0  0  0  0  0  0  0  0
   -1.3269    2.2117   13.5568 N   0  0  0  0  0  0  0  0  0  0  0  0
   -1.0079    2.7254   12.7799 H   0  0  0  0  0  0  0  0  0  0  0  0
    0.9485    2.3679   14.5191 C   0  0  0  0  0  0  0  0  0  0  0  0
    1.6198    4.1864   16.0333 C   0  0  0  0  0  0  0  0  0  0  0  0
    1.7364    5.0857   15.1025 O   0  0  0  0  0  0  0  0  0  0  0  0
    1.2412    2.9775   15.8085 N   0  0  0  0  0  0  0  0  0  0  0  0
    1.1378    2.3987   16.5982 H   0  0  0  0  0  0  0  0  0  0  0  0
    1.9435    4.5865   17.4500 C   0  0  0  0  0  0  0  0  0  0  0  0
    3.4144    4.3793   17.6741 C   0  0  0  0  0  0  0  0  0  0  0  0
    0.5631    4.1541   19.2800 C   0  0  0  0  0  0  0  0  0  0  0  0
    0.5008    5.2832   19.7213 O   0  0  0  0  0  0  0  0  0  0  0  0
    1.3403    3.7442   18.2891 N   0  0  0  0  0  0  0  0  0  0  0  0
    1.4784    2.7771   18.1670 H   0  0  0  0  0  0  0  0  0  0  0  0
    0.0113    3.1987   20.0476 O   0  0  0  0  0  0  0  0  0  0  0  0
   -1.0126    2.3094   19.5435 C   0  0  0  0  0  0  0  0  0  0  0  0
   -1.0199    0.9958   20.2635 C   0  0  0  0  0  0  0  0  0  0  0  0
   -0.1505   -0.0147   19.8689 C   0  0  0  0  0  0  0  0  0  0  0  0
   -0.1747   -1.2453   20.5511 C   0  0  0  0  0  0  0  0  0  0  0  0
   -1.0501   -1.4831   21.6168 C   0  0  0  0  0  0  0  0  0  0  0  0
   -1.9243   -0.4685   22.0126 C   0  0  0  0  0  0  0  0  0  0  0  0
   -1.8855    0.7416   21.3269 C   0  0  0  0  0  0  0  0  0  0  0  0
    1.9733    1.3000   14.1869 C   0  0  0  0  0  0  0  0  0  0  0  0
    3.2812    1.4252   14.9974 C   0  0  0  0  0  0  0  0  0  0  0  0
    2.2811    1.2866   12.6813 C   0  0  0  0  0  0  0  0  0  0  0  0
   -3.7200    2.6849   14.3806 C   0  0  0  0  0  0  0  0  0  0  0  0
   -4.5228    1.9189   15.3499 C   0  0  0  0  0  0  0  0  0  0  0  0
   -3.8267    1.1197   16.2603 C   0  0  0  0  0  0  0  0  0  0  0  0
   -5.9196    2.0095   15.3357 C   0  0  0  0  0  0  0  0  0  0  0  0
   -4.5310    0.3958   17.2053 C   0  0  0  0  0  0  0  0  0  0  0  0
   -6.6229    1.2688   16.2815 C   0  0  0  0  0  0  0  0  0  0  0  0
   -5.9204    0.4856   17.2111 C   0  0  0  0  0  0  0  0  0  0  0  0
 53 54  2  0  0  0
 53 57  1  0  0  0
 53 55  1  0  0  0
 57 58  1  0  0  0
 58 59  1  0  0  0
 59 60  2  0  0  0
 59 64  1  0  0  0
 60 61  1  0  0  0
 61 62  2  0  0  0
 62 63  1  0  0  0
 63 64  2  0  0  0
 55 51  1  0  0  0
 51 47  1  0  0  0
 51 52  1  0  0  0
 47 48  2  0  0  0
 47 49  1  0  0  0
 49 46  1  0  0  0
 46 42  1  0  0  0
 46 65  1  0  0  0
 42 43  2  0  0  0
 42 44  1  0  0  0
 65 66  1  0  0  0
 65 67  1  0  0  0
  1  2  1  0  0  0
  1 41  1  0  0  0
  1  4  1  0  0  0
 41 44  1  0  0  0
 41 68  1  0  0  0
 68 69  1  0  0  0
 69 70  2  0  0  0
 69 71  1  0  0  0
 70 72  1  0  0  0
 71 73  2  0  0  0
 72 74  2  0  0  0
 73 74  1  0  0  0
  8  7  1  0  0  0
  8  9  1  0  0  0
  7  4  1  0  0  0
  7 34  1  0  0  0
  4  5  1  0  0  0
 34 35  1  0  0  0
 35 36  2  0  0  0
 35 37  1  0  0  0
 36 38  1  0  0  0
 37 39  2  0  0  0
 38 40  2  0  0  0
 39 40  1  0  0  0
 13 12  1  0  0  0
 13 14  1  0  0  0
 12  9  1  0  0  0
 12 31  1  0  0  0
  9 10  2  0  0  0
 31 32  1  0  0  0
 31 33  1  0  0  0
 19 17  1  0  0  0
 19 20  1  0  0  0
 17 14  1  0  0  0
 17 18  1  0  0  0
 14 15  2  0  0  0
 20 21  2  0  0  0
 20 23  1  0  0  0
 23 24  1  0  0  0
 24 25  1  0  0  0
 25 26  2  0  0  0
 25 30  1  0  0  0
 26 27  1  0  0  0
 27 28  2  0  0  0
 28 29  1  0  0  0
 29 30  2  0  0  0
 55 56  1  0  0  0
 49 50  1  0  0  0
  2  3  1  0  0  0
 44 45  1  0  0  0
  8 11  1  0  0  0
  5  6  1  0  0  0
 13 16  1  0  0  0
 19 22  1  0  0  0
M  END
> <minimizedAffinity>
-10.15487

$$$$
3SLZ_3TL_A_126


 74 77  0  0  0  0  0  0  0  0999 V2000
   -4.6604    2.5595    9.5855 C   0  0  0  0  0  0  0  0  0  0  0  0
   -4.6633    1.1926    9.2314 O   0  0  0  0  0  0  0  0  0  0  0  0
   -4.4720    1.1034    8.2847 H   0  0  0  0  0  0  0  0  0  0  0  0
   -3.3213    3.1420    9.4042 C   0  0  0  0  0  0  0  0  0  0  0  0
   -2.6370    2.0993    8.7305 O   0  0  0  0  0  0  0  0  0  0  0  0
   -2.6596    1.2949    9.2722 H   0  0  0  0  0  0  0  0  0  0  0  0
   -2.6564    3.5843   10.6919 C   0  0  0  0  0  0  0  0  0  0  0  0
   -2.5656    2.5892   11.7533 N   0  0  0  0  0  0  0  0  0  0  0  0
   -2.9494    2.6695   12.9514 C   0  0  0  0  0  0  0  0  0  0  0  0
   -3.5855    3.7440   13.3842 O   0  0  0  0  0  0  0  0  0  0  0  0
   -2.1460    1.7357   11.4991 H   0  0  0  0  0  0  0  0  0  0  0  0
   -2.7823    1.5100   13.9254 C   0  0  0  0  0  0  0  0  0  0  0  0
   -2.2503    1.9670   15.1916 N   0  0  0  0  0  0  0  0  0  0  0  0
   -1.0380    1.8257   15.5485 C   0  0  0  0  0  0  0  0  0  0  0  0
   -0.2258    1.2523   14.6721 O   0  0  0  0  0  0  0  0  0  0  0  0
   -2.8657    2.4154   15.8156 H   0  0  0  0  0  0  0  0  0  0  0  0
   -0.3770    2.2765   16.7852 C   0  0  0  0  0  0  0  0  0  0  0  0
    0.9747    2.9731   16.6426 C   0  0  0  0  0  0  0  0  0  0  0  0
   -0.3709    1.3620   17.6341 N   0  0  0  0  0  0  0  0  0  0  0  0
   -0.7694    1.4525   18.8804 C   0  0  0  0  0  0  0  0  0  0  0  0
   -1.3349    2.4883   19.2797 O   0  0  0  0  0  0  0  0  0  0  0  0
   -0.0334    0.4855   17.3391 H   0  0  0  0  0  0  0  0  0  0  0  0
   -0.8221    0.3582   19.5880 O   0  0  0  0  0  0  0  0  0  0  0  0
   -1.2722    0.3835   20.9715 C   0  0  0  0  0  0  0  0  0  0  0  0
   -0.6186   -0.6007   21.8973 C   0  0  0  0  0  0  0  0  0  0  0  0
   -0.3923   -0.3380   23.2566 C   0  0  0  0  0  0  0  0  0  0  0  0
    0.2374   -1.2882   24.0690 C   0  0  0  0  0  0  0  0  0  0  0  0
    0.6510   -2.5040   23.5062 C   0  0  0  0  0  0  0  0  0  0  0  0
    0.4459   -2.7714   22.1518 C   0  0  0  0  0  0  0  0  0  0  0  0
   -0.1905   -1.8167   21.3602 C   0  0  0  0  0  0  0  0  0  0  0  0
   -4.0729    0.7254   14.1882 C   0  0  0  0  0  0  0  0  0  0  0  0
   -4.1538    0.0186   15.5490 C   0  0  0  0  0  0  0  0  0  0  0  0
   -5.4108    1.4389   13.8444 C   0  0  0  0  0  0  0  0  0  0  0  0
   -1.2721    3.9729   10.2475 C   0  0  0  0  0  0  0  0  0  0  0  0
   -0.5477    4.4220   11.4271 C   0  0  0  0  0  0  0  0  0  0  0  0
   -0.8833    5.6391   11.9964 C   0  0  0  0  0  0  0  0  0  0  0  0
    0.5042    3.6538   11.9383 C   0  0  0  0  0  0  0  0  0  0  0  0
   -0.1624    6.0622   13.1181 C   0  0  0  0  0  0  0  0  0  0  0  0
    1.2362    4.0804   13.0514 C   0  0  0  0  0  0  0  0  0  0  0  0
    0.8960    5.3063   13.6381 C   0  0  0  0  0  0  0  0  0  0  0  0
   -5.7503    3.2191    8.8043 C   0  0  0  0  0  0  0  0  0  0  0  0
   -5.4879    5.0937    7.2248 C   0  0  0  0  0  0  0  0  0  0  0  0
   -6.2482    5.8357    7.9546 O   0  0  0  0  0  0  0  0  0  0  0  0
   -5.1714    3.8650    7.5864 N   0  0  0  0  0  0  0  0  0  0  0  0
   -4.5328    3.3565    7.0361 H   0  0  0  0  0  0  0  0  0  0  0  0
   -4.9320    5.7578    6.0093 C   0  0  0  0  0  0  0  0  0  0  0  0
   -6.0969    5.9378    3.8503 C   0  0  0  0  0  0  0  0  0  0  0  0
   -5.1449    5.3967    3.1506 O   0  0  0  0  0  0  0  0  0  0  0  0
   -6.0439    6.0835    5.1275 N   0  0  0  0  0  0  0  0  0  0  0  0
   -6.8465    6.4579    5.5576 H   0  0  0  0  0  0  0  0  0  0  0  0
   -7.3274    6.4158    3.1228 C   0  0  0  0  0  0  0  0  0  0  0  0
   -7.1689    7.8829    2.8415 C   0  0  0  0  0  0  0  0  0  0  0  0
   -8.9357    5.1728    4.2673 C   0  0  0  0  0  0  0  0  0  0  0  0
   -8.7685    4.1110    3.7032 O   0  0  0  0  0  0  0  0  0  0  0  0
   -8.3777    6.3282    3.9394 N   0  0  0  0  0  0  0  0  0  0  0  0
   -8.7541    7.1571    4.3142 H   0  0  0  0  0  0  0  0  0  0  0  0
   -9.9850    5.2269    5.1054 O   0  0  0  0  0  0  0  0  0  0  0  0
  -11.2815    5.7058    4.6775 C   0  0  0  0  0  0  0  0  0  0  0  0
  -12.3529    4.6772    4.8733 C   0  0  0  0  0  0  0  0  0  0  0  0
  -12.3104    3.4879    4.1547 C   0  0  0  0  0  0  0  0  0  0  0  0
  -13.3282    2.5350    4.3450 C   0  0  0  0  0  0  0  0  0  0  0  0
  -14.3847    2.7494    5.2375 C   0  0  0  0  0  0  0  0  0  0  0  0
  -14.4281    3.9446    5.9586 C   0  0  0  0  0  0  0  0  0  0  0  0
  -13.4128    4.8745    5.7578 C   0  0  0  0  0  0  0  0  0  0  0  0
   -4.0633    6.9781    6.2483 C   0  0  0  0  0  0  0  0  0  0  0  0
   -4.0676    7.9795    5.0734 C   0  0  0  0  0  0  0  0  0  0  0  0
   -2.6225    6.5657    6.5889 C   0  0  0  0  0  0  0  0  0  0  0  0
   -6.7881    2.1073    8.5490 C   0  0  0  0  0  0  0  0  0  0  0  0
   -8.1461    2.6580    8.3964 C   0  0  0  0  0  0  0  0  0  0  0  0
   -8.8401    2.3230    7.2310 C   0  0  0  0  0  0  0  0  0  0  0  0
   -8.6906    3.4766    9.3929 C   0  0  0  0  0  0  0  0  0  0  0  0
  -10.1266    2.7964    7.0470 C   0  0  0  0  0  0  0  0  0  0  0  0
   -9.9812    3.9597    9.1958 C   0  0  0  0  0  0  0  0  0  0  0  0
  -10.6859    3.6018    8.0355 C   0  0  0  0  0  0  0  0  0  0  0  0
 53 54  2  0  0  0
 53 57  1  0  0  0
 53 55  1  0  0  0
 57 58  1  0  0  0
 58 59  1  0  0  0
 59 60  2  0  0  0
 59 64  1  0  0  0
 60 61  1  0  0  0
 61 62  2  0  0  0
 62 63  1  0  0  0
 63 64  2  0  0  0
 55 51  1  0  0  0
 51 47  1  0  0  0
 51 52  1  0  0  0
 47 48  2  0  0  0
 47 49  1  0  0  0
 49 46  1  0  0  0
 46 42  1  0  0  0
 46 65  1  0  0  0
 42 43  2  0  0  0
 42 44  1  0  0  0
 65 66  1  0  0  0
 65 67  1  0  0  0
  1  2  1  0  0  0
  1 41  1  0  0  0
  1  4  1  0  0  0
 41 44  1  0  0  0
 41 68  1  0  0  0
 68 69  1  0  0  0
 69 70  2  0  0  0
 69 71  1  0  0  0
 70 72  1  0  0  0
 71 73  2  0  0  0
 72 74  2  0  0  0
 73 74  1  0  0  0
  8  7  1  0  0  0
  8  9  1  0  0  0
  7  4  1  0  0  0
  7 34  1  0  0  0
  4  5  1  0  0  0
 34 35  1  0  0  0
 35 36  2  0  0  0
 35 37  1  0  0  0
 36 38  1  0  0  0
 37 39  2  0  0  0
 38 40  2  0  0  0
 39 40  1  0  0  0
 13 12  1  0  0  0
 13 14  1  0  0  0
 12  9  1  0  0  0
 12 31  1  0  0  0
  9 10  2  0  0  0
 31 32  1  0  0  0
 31 33  1  0  0  0
 19 17  1  0  0  0
 19 20  1  0  0  0
 17 14  1  0  0  0
 17 18  1  0  0  0
 14 15  2  0  0  0
 20 21  2  0  0  0
 20 23  1  0  0  0
 23 24  1  0  0  0
 24 25  1  0  0  0
 25 26  2  0  0  0
 25 30  1  0  0  0
 26 27  1  0  0  0
 27 28  2  0  0  0
 28 29  1  0  0  0
 29 30  2  0  0  0
 55 56  1  0  0  0
 49 50  1  0  0  0
  2  3  1  0  0  0
 44 45  1  0  0  0
  8 11  1  0  0  0
  5  6  1  0  0  0
 13 16  1  0  0  0
 19 22  1  0  0  0
M  END
> <minimizedAffinity>
-9.75089

$$$$
3SLZ_3TL_A_126


 74 77  0  0  0  0  0  0  0  0999 V2000
   -3.5946    2.2420    9.4511 C   0  0  0  0  0  0  0  0  0  0  0  0
   -3.3539    0.9424    8.9541 O   0  0  0  0  0  0  0  0  0  0  0  0
   -4.1672    0.5917    8.5584 H   0  0  0  0  0  0  0  0  0  0  0  0
   -3.9222    3.1669    8.3544 C   0  0  0  0  0  0  0  0  0  0  0  0
   -3.5459    2.4139    7.2138 O   0  0  0  0  0  0  0  0  0  0  0  0
   -2.6074    2.1770    7.2780 H   0  0  0  0  0  0  0  0  0  0  0  0
   -3.2401    4.5162    8.4548 C   0  0  0  0  0  0  0  0  0  0  0  0
   -2.0809    4.5963    9.3351 N   0  0  0  0  0  0  0  0  0  0  0  0
   -2.0328    4.8937   10.5591 C   0  0  0  0  0  0  0  0  0  0  0  0
   -3.1416    5.1248   11.2400 O   0  0  0  0  0  0  0  0  0  0  0  0
   -1.2148    4.3892    8.9151 H   0  0  0  0  0  0  0  0  0  0  0  0
   -0.7175    4.9129   11.3277 C   0  0  0  0  0  0  0  0  0  0  0  0
   -0.6882    3.8731   12.3342 N   0  0  0  0  0  0  0  0  0  0  0  0
   -0.0231    3.9460   13.4157 C   0  0  0  0  0  0  0  0  0  0  0  0
    0.6475    5.0701   13.6237 O   0  0  0  0  0  0  0  0  0  0  0  0
   -1.2163    3.0583   12.1714 H   0  0  0  0  0  0  0  0  0  0  0  0
    0.0565    2.9771   14.5222 C   0  0  0  0  0  0  0  0  0  0  0  0
   -0.7977    1.7158   14.4114 C   0  0  0  0  0  0  0  0  0  0  0  0
   -0.0663    3.5583   15.6196 N   0  0  0  0  0  0  0  0  0  0  0  0
    0.7801    3.5205   16.6208 C   0  0  0  0  0  0  0  0  0  0  0  0
    1.8896    2.9720   16.4779 O   0  0  0  0  0  0  0  0  0  0  0  0
   -0.8792    4.0989   15.7465 H   0  0  0  0  0  0  0  0  0  0  0  0
    0.5575    4.3013   17.6415 O   0  0  0  0  0  0  0  0  0  0  0  0
    0.1614    3.7530   18.9298 C   0  0  0  0  0  0  0  0  0  0  0  0
   -0.5258    2.4189   18.8973 C   0  0  0  0  0  0  0  0  0  0  0  0
   -1.7585    2.2090   18.2615 C   0  0  0  0  0  0  0  0  0  0  0  0
   -2.3608    0.9455   18.2780 C   0  0  0  0  0  0  0  0  0  0  0  0
   -1.7231   -0.1083   18.9480 C   0  0  0  0  0  0  0  0  0  0  0  0
   -0.5041    0.0912   19.5979 C   0  0  0  0  0  0  0  0  0  0  0  0
    0.0848    1.3542   19.5635 C   0  0  0  0  0  0  0  0  0  0  0  0
    0.5252    4.7742   10.4406 C   0  0  0  0  0  0  0  0  0  0  0  0
    1.4402    6.0059   10.3839 C   0  0  0  0  0  0  0  0  0  0  0  0
    1.3515    3.4656   10.5894 C   0  0  0  0  0  0  0  0  0  0  0  0
   -2.8152    4.7923    7.0378 C   0  0  0  0  0  0  0  0  0  0  0  0
   -3.8632    5.5892    6.4179 C   0  0  0  0  0  0  0  0  0  0  0  0
   -5.0024    5.8829    7.1486 C   0  0  0  0  0  0  0  0  0  0  0  0
   -3.7353    6.0021    5.0870 C   0  0  0  0  0  0  0  0  0  0  0  0
   -6.0069    6.6336    6.5285 C   0  0  0  0  0  0  0  0  0  0  0  0
   -4.7438    6.7412    4.4596 C   0  0  0  0  0  0  0  0  0  0  0  0
   -5.8949    7.0498    5.1958 C   0  0  0  0  0  0  0  0  0  0  0  0
   -4.6395    2.1210   10.5125 C   0  0  0  0  0  0  0  0  0  0  0  0
   -6.8557    2.8083    9.6793 C   0  0  0  0  0  0  0  0  0  0  0  0
   -6.5892    4.0418    9.9417 O   0  0  0  0  0  0  0  0  0  0  0  0
   -5.9670    1.8537    9.8784 N   0  0  0  0  0  0  0  0  0  0  0  0
   -6.1852    0.9349    9.6003 H   0  0  0  0  0  0  0  0  0  0  0  0
   -8.1908    2.5667    9.0576 C   0  0  0  0  0  0  0  0  0  0  0  0
   -9.0791    3.4915    6.9585 C   0  0  0  0  0  0  0  0  0  0  0  0
  -10.2684    3.7330    7.4232 O   0  0  0  0  0  0  0  0  0  0  0  0
   -8.1253    3.0021    7.6698 N   0  0  0  0  0  0  0  0  0  0  0  0
   -7.2516    2.9116    7.2250 H   0  0  0  0  0  0  0  0  0  0  0  0
   -8.8070    3.8058    5.5097 C   0  0  0  0  0  0  0  0  0  0  0  0
   -7.3269    3.7021    5.2746 C   0  0  0  0  0  0  0  0  0  0  0  0
  -10.2498    5.4600    4.7199 C   0  0  0  0  0  0  0  0  0  0  0  0
  -11.0266    4.7427    4.1236 O   0  0  0  0  0  0  0  0  0  0  0  0
   -9.1088    5.0835    5.2771 N   0  0  0  0  0  0  0  0  0  0  0  0
   -8.4563    5.7759    5.5301 H   0  0  0  0  0  0  0  0  0  0  0  0
  -10.4295    6.7809    4.5484 O   0  0  0  0  0  0  0  0  0  0  0  0
  -10.9201    7.3306    3.3032 C   0  0  0  0  0  0  0  0  0  0  0  0
   -9.8045    7.6998    2.3741 C   0  0  0  0  0  0  0  0  0  0  0  0
  -10.0415    7.7832    1.0067 C   0  0  0  0  0  0  0  0  0  0  0  0
   -8.9813    8.1244    0.1467 C   0  0  0  0  0  0  0  0  0  0  0  0
   -7.6924    8.3821    0.6275 C   0  0  0  0  0  0  0  0  0  0  0  0
   -7.4540    8.2972    2.0009 C   0  0  0  0  0  0  0  0  0  0  0  0
   -8.5145    7.9593    2.8358 C   0  0  0  0  0  0  0  0  0  0  0  0
   -8.7287    1.1514    9.1496 C   0  0  0  0  0  0  0  0  0  0  0  0
   -8.3930    0.2814    7.9193 C   0  0  0  0  0  0  0  0  0  0  0  0
  -10.2454    1.1575    9.3974 C   0  0  0  0  0  0  0  0  0  0  0  0
   -4.1158    1.0281   11.4662 C   0  0  0  0  0  0  0  0  0  0  0  0
   -4.2482    1.4310   12.8771 C   0  0  0  0  0  0  0  0  0  0  0  0
   -4.6303    0.4419   13.7870 C   0  0  0  0  0  0  0  0  0  0  0  0
   -3.9943    2.7536   13.2592 C   0  0  0  0  0  0  0  0  0  0  0  0
   -4.7493    0.7617   15.1274 C   0  0  0  0  0  0  0  0  0  0  0  0
   -4.1278    3.0716   14.6078 C   0  0  0  0  0  0  0  0  0  0  0  0
   -4.4879    2.0704   15.5239 C   0  0  0  0  0  0  0  0  0  0  0  0
 53 54  2  0  0  0
 53 57  1  0  0  0
 53 55  1  0  0  0
 57 58  1  0  0  0
 58 59  1  0  0  0
 59 60  2  0  0  0
 59 64  1  0  0  0
 60 61  1  0  0  0
 61 62  2  0  0  0
 62 63  1  0  0  0
 63 64  2  0  0  0
 55 51  1  0  0  0
 51 47  1  0  0  0
 51 52  1  0  0  0
 47 48  2  0  0  0
 47 49  1  0  0  0
 49 46  1  0  0  0
 46 42  1  0  0  0
 46 65  1  0  0  0
 42 43  2  0  0  0
 42 44  1  0  0  0
 65 66  1  0  0  0
 65 67  1  0  0  0
  1  2  1  0  0  0
  1 41  1  0  0  0
  1  4  1  0  0  0
 41 44  1  0  0  0
 41 68  1  0  0  0
 68 69  1  0  0  0
 69 70  2  0  0  0
 69 71  1  0  0  0
 70 72  1  0  0  0
 71 73  2  0  0  0
 72 74  2  0  0  0
 73 74  1  0  0  0
  8  7  1  0  0  0
  8  9  1  0  0  0
  7  4  1  0  0  0
  7 34  1  0  0  0
  4  5  1  0  0  0
 34 35  1  0  0  0
 35 36  2  0  0  0
 35 37  1  0  0  0
 36 38  1  0  0  0
 37 39  2  0  0  0
 38 40  2  0  0  0
 39 40  1  0  0  0
 13 12  1  0  0  0
 13 14  1  0  0  0
 12  9  1  0  0  0
 12 31  1  0  0  0
  9 10  2  0  0  0
 31 32  1  0  0  0
 31 33  1  0  0  0
 19 17  1  0  0  0
 19 20  1  0  0  0
 17 14  1  0  0  0
 17 18  1  0  0  0
 14 15  2  0  0  0
 20 21  2  0  0  0
 20 23  1  0  0  0
 23 24  1  0  0  0
 24 25  1  0  0  0
 25 26  2  0  0  0
 25 30  1  0  0  0
 26 27  1  0  0  0
 27 28  2  0  0  0
 28 29  1  0  0  0
 29 30  2  0  0  0
 55 56  1  0  0  0
 49 50  1  0  0  0
  2  3  1  0  0  0
 44 45  1  0  0  0
  8 11  1  0  0  0
  5  6  1  0  0  0
 13 16  1  0  0  0
 19 22  1  0  0  0
M  END
> <minimizedAffinity>
-9.71627

$$$$
3SLZ_3TL_A_126


 74 77  0  0  0  0  0  0  0  0999 V2000
   -0.1378    2.7536   17.2006 C   0  0  0  0  0  0  0  0  0  0  0  0
   -1.1809    3.6618   17.4850 O   0  0  0  0  0  0  0  0  0  0  0  0
   -0.8212    4.4307   17.9544 H   0  0  0  0  0  0  0  0  0  0  0  0
    0.8364    3.3523   16.2743 C   0  0  0  0  0  0  0  0  0  0  0  0
    0.8554    4.7036   16.7023 O   0  0  0  0  0  0  0  0  0  0  0  0
   -0.0394    5.0736   16.6449 H   0  0  0  0  0  0  0  0  0  0  0  0
    0.4916    3.1745   14.8096 C   0  0  0  0  0  0  0  0  0  0  0  0
   -0.9262    3.1090   14.4773 N   0  0  0  0  0  0  0  0  0  0  0  0
   -1.6695    2.0968   14.3662 C   0  0  0  0  0  0  0  0  0  0  0  0
   -1.2032    0.8874   14.6239 O   0  0  0  0  0  0  0  0  0  0  0  0
   -1.3644    3.9760   14.3174 H   0  0  0  0  0  0  0  0  0  0  0  0
   -3.1481    2.2229   14.0218 C   0  0  0  0  0  0  0  0  0  0  0  0
   -3.4102    1.7571   12.6766 N   0  0  0  0  0  0  0  0  0  0  0  0
   -3.7649    2.5122   11.7169 C   0  0  0  0  0  0  0  0  0  0  0  0
   -3.8582    3.8068   11.9854 O   0  0  0  0  0  0  0  0  0  0  0  0
   -3.3075    0.7953   12.4932 H   0  0  0  0  0  0  0  0  0  0  0  0
   -4.0233    2.1634   10.3094 C   0  0  0  0  0  0  0  0  0  0  0  0
   -2.8562    1.5978    9.5026 C   0  0  0  0  0  0  0  0  0  0  0  0
   -4.6132    3.0980    9.7302 N   0  0  0  0  0  0  0  0  0  0  0  0
   -5.7454    3.0171    9.0731 C   0  0  0  0  0  0  0  0  0  0  0  0
   -6.4071    1.9618    9.1002 O   0  0  0  0  0  0  0  0  0  0  0  0
   -4.1863    3.9843    9.7704 H   0  0  0  0  0  0  0  0  0  0  0  0
   -6.2878    4.1243    8.6479 O   0  0  0  0  0  0  0  0  0  0  0  0
   -5.4646    5.2630    8.2697 C   0  0  0  0  0  0  0  0  0  0  0  0
   -5.3412    5.5297    6.7977 C   0  0  0  0  0  0  0  0  0  0  0  0
   -6.2744    5.0701    5.8565 C   0  0  0  0  0  0  0  0  0  0  0  0
   -6.0986    5.3352    4.4933 C   0  0  0  0  0  0  0  0  0  0  0  0
   -4.9713    6.0570    4.0760 C   0  0  0  0  0  0  0  0  0  0  0  0
   -4.0274    6.5064    5.0007 C   0  0  0  0  0  0  0  0  0  0  0  0
   -4.2236    6.2403    6.3549 C   0  0  0  0  0  0  0  0  0  0  0  0
   -4.0791    1.4825   14.9890 C   0  0  0  0  0  0  0  0  0  0  0  0
   -4.7359    0.2103   14.4341 C   0  0  0  0  0  0  0  0  0  0  0  0
   -3.5552    1.2600   16.4359 C   0  0  0  0  0  0  0  0  0  0  0  0
    1.1038    4.3878   14.1631 C   0  0  0  0  0  0  0  0  0  0  0  0
    0.5614    4.4819   12.8160 C   0  0  0  0  0  0  0  0  0  0  0  0
    1.0011    3.5892   11.8528 C   0  0  0  0  0  0  0  0  0  0  0  0
   -0.3494    5.4949   12.4963 C   0  0  0  0  0  0  0  0  0  0  0  0
    0.4824    3.7083   10.5591 C   0  0  0  0  0  0  0  0  0  0  0  0
   -0.8596    5.6254   11.2003 C   0  0  0  0  0  0  0  0  0  0  0  0
   -0.4262    4.7199   10.2232 C   0  0  0  0  0  0  0  0  0  0  0  0
    0.4248    2.3050   18.5103 C   0  0  0  0  0  0  0  0  0  0  0  0
    1.4165    4.3532   19.4586 C   0  0  0  0  0  0  0  0  0  0  0  0
    0.2503    4.7733   19.8118 O   0  0  0  0  0  0  0  0  0  0  0  0
    1.5805    3.1776   18.8827 N   0  0  0  0  0  0  0  0  0  0  0  0
    2.4941    2.8645   18.6917 H   0  0  0  0  0  0  0  0  0  0  0  0
    2.5520    5.2472   19.8315 C   0  0  0  0  0  0  0  0  0  0  0  0
    2.4244    6.6620   21.8397 C   0  0  0  0  0  0  0  0  0  0  0  0
    2.3951    7.7898   21.1948 O   0  0  0  0  0  0  0  0  0  0  0  0
    2.4628    5.5140   21.2601 N   0  0  0  0  0  0  0  0  0  0  0  0
    2.4280    4.7263   21.8496 H   0  0  0  0  0  0  0  0  0  0  0  0
    2.4096    6.7064   23.3463 C   0  0  0  0  0  0  0  0  0  0  0  0
    3.8003    7.0156   23.8226 C   0  0  0  0  0  0  0  0  0  0  0  0
    1.3889    5.2802   24.8843 C   0  0  0  0  0  0  0  0  0  0  0  0
    1.0713    6.1126   25.7089 O   0  0  0  0  0  0  0  0  0  0  0  0
    2.1427    5.4873   23.8153 N   0  0  0  0  0  0  0  0  0  0  0  0
    2.5219    4.7084   23.3474 H   0  0  0  0  0  0  0  0  0  0  0  0
    1.1943    4.0003   25.2456 O   0  0  0  0  0  0  0  0  0  0  0  0
    0.2870    3.1324   24.5266 C   0  0  0  0  0  0  0  0  0  0  0  0
    1.0083    2.0212   23.8275 C   0  0  0  0  0  0  0  0  0  0  0  0
    1.6560    2.2669   22.6221 C   0  0  0  0  0  0  0  0  0  0  0  0
    2.3232    1.2106   21.9745 C   0  0  0  0  0  0  0  0  0  0  0  0
    2.3536   -0.0828   22.5081 C   0  0  0  0  0  0  0  0  0  0  0  0
    1.7021   -0.3300   23.7184 C   0  0  0  0  0  0  0  0  0  0  0  0
    1.0484    0.7267   24.3446 C   0  0  0  0  0  0  0  0  0  0  0  0
    3.9403    4.7591   19.4639 C   0  0  0  0  0  0  0  0  0  0  0  0
    4.6515    4.0014   20.6055 C   0  0  0  0  0  0  0  0  0  0  0  0
    4.8166    5.9219   18.9719 C   0  0  0  0  0  0  0  0  0  0  0  0
   -0.7708    2.3178   19.4843 C   0  0  0  0  0  0  0  0  0  0  0  0
   -0.8881    1.0440   20.2152 C   0  0  0  0  0  0  0  0  0  0  0  0
   -1.6636    1.0476   21.3775 C   0  0  0  0  0  0  0  0  0  0  0  0
   -0.2409   -0.1030   19.7407 C   0  0  0  0  0  0  0  0  0  0  0  0
   -1.8237   -0.1266   22.0906 C   0  0  0  0  0  0  0  0  0  0  0  0
   -0.3962   -1.2786   20.4699 C   0  0  0  0  0  0  0  0  0  0  0  0
   -1.1959   -1.2783   21.6238 C   0  0  0  0  0  0  0  0  0  0  0  0
 53 54  2  0  0  0
 53 57  1  0  0  0
 53 55  1  0  0  0
 57 58  1  0  0  0
 58 59  1  0  0  0
 59 60  2  0  0  0
 59 64  1  0  0  0
 60 61  1  0  0  0
 61 62  2  0  0  0
 62 63  1  0  0  0
 63 64  2  0  0  0
 55 51  1  0  0  0
 51 47  1  0  0  0
 51 52  1  0  0  0
 47 48  2  0  0  0
 47 49  1  0  0  0
 49 46  1  0  0  0
 46 42  1  0  0  0
 46 65  1  0  0  0
 42 43  2  0  0  0
 42 44  1  0  0  0
 65 66  1  0  0  0
 65 67  1  0  0  0
  1  2  1  0  0  0
  1 41  1  0  0  0
  1  4  1  0  0  0
 41 44  1  0  0  0
 41 68  1  0  0  0
 68 69  1  0  0  0
 69 70  2  0  0  0
 69 71  1  0  0  0
 70 72  1  0  0  0
 71 73  2  0  0  0
 72 74  2  0  0  0
 73 74  1  0  0  0
  8  7  1  0  0  0
  8  9  1  0  0  0
  7  4  1  0  0  0
  7 34  1  0  0  0
  4  5  1  0  0  0
 34 35  1  0  0  0
 35 36  2  0  0  0
 35 37  1  0  0  0
 36 38  1  0  0  0
 37 39  2  0  0  0
 38 40  2  0  0  0
 39 40  1  0  0  0
 13 12  1  0  0  0
 13 14  1  0  0  0
 12  9  1  0  0  0
 12 31  1  0  0  0
  9 10  2  0  0  0
 31 32  1  0  0  0
 31 33  1  0  0  0
 19 17  1  0  0  0
 19 20  1  0  0  0
 17 14  1  0  0  0
 17 18  1  0  0  0
 14 15  2  0  0  0
 20 21  2  0  0  0
 20 23  1  0  0  0
 23 24  1  0  0  0
 24 25  1  0  0  0
 25 26  2  0  0  0
 25 30  1  0  0  0
 26 27  1  0  0  0
 27 28  2  0  0  0
 28 29  1  0  0  0
 29 30  2  0  0  0
 55 56  1  0  0  0
 49 50  1  0  0  0
  2  3  1  0  0  0
 44 45  1  0  0  0
  8 11  1  0  0  0
  5  6  1  0  0  0
 13 16  1  0  0  0
 19 22  1  0  0  0
M  END
> <minimizedAffinity>
-9.69356

$$$$
