3UIL_DAO_D_202


 15 14  0  0  0  0  0  0  0  0999 V2000
  -30.2377  -24.9801  -39.2175 C   0  0  0  0  0  0  0  0  0  0  0  0
  -31.2953  -23.9138  -38.9366 C   0  0  0  0  0  0  0  0  0  0  0  0
  -31.9549  -23.4716  -40.2374 C   0  0  0  0  0  0  0  0  0  0  0  0
  -30.8901  -23.4652  -41.2920 C   0  0  0  0  0  0  0  0  0  0  0  0
  -32.5036  -22.7124  -42.9560 O   0  0  0  0  0  0  0  0  0  0  0  0
  -30.5396  -23.4340  -43.6335 O   0  0  0  0  0  0  0  0  0  0  0  0
  -31.3581  -23.1800  -42.7172 C   0  0  0  0  0  0  0  0  0  0  0  0
  -29.6949  -23.7813  -43.4241 H   0  0  0  0  0  0  0  0  0  0  0  0
  -29.9788  -25.8988  -38.0298 C   0  0  0  0  0  0  0  0  0  0  0  0
  -30.9118  -27.1000  -38.0980 C   0  0  0  0  0  0  0  0  0  0  0  0
  -31.8104  -27.1618  -36.8665 C   0  0  0  0  0  0  0  0  0  0  0  0
  -33.2358  -26.6879  -37.1411 C   0  0  0  0  0  0  0  0  0  0  0  0
  -33.6210  -26.9042  -38.6115 C   0  0  0  0  0  0  0  0  0  0  0  0
  -34.6184  -25.9078  -39.2219 C   0  0  0  0  0  0  0  0  0  0  0  0
  -35.3602  -26.3850  -40.4632 C   0  0  0  0  0  0  0  0  0  0  0  0
  5  7  2  0  0  0
  6  7  1  0  0  0
  7  4  1  0  0  0
  4  3  1  0  0  0
  3  2  1  0  0  0
  2  1  1  0  0  0
  1  9  1  0  0  0
  9 10  1  0  0  0
 10 11  1  0  0  0
 11 12  1  0  0  0
 12 13  1  0  0  0
 13 14  1  0  0  0
 14 15  1  0  0  0
  6  8  1  0  0  0
M  END
> <minimizedAffinity>
-4.23199

$$$$
3UIL_DAO_D_202


 15 14  0  0  0  0  0  0  0  0999 V2000
  -30.8400  -23.8460  -38.1017 C   0  0  0  0  0  0  0  0  0  0  0  0
  -31.9157  -23.1307  -38.9175 C   0  0  0  0  0  0  0  0  0  0  0  0
  -31.8294  -23.5465  -40.3811 C   0  0  0  0  0  0  0  0  0  0  0  0
  -32.9784  -22.8981  -41.0923 C   0  0  0  0  0  0  0  0  0  0  0  0
  -33.2659  -21.1631  -42.7793 O   0  0  0  0  0  0  0  0  0  0  0  0
  -31.7163  -22.6934  -43.0852 O   0  0  0  0  0  0  0  0  0  0  0  0
  -32.6440  -22.1929  -42.4047 C   0  0  0  0  0  0  0  0  0  0  0  0
  -31.2724  -23.4601  -42.7800 H   0  0  0  0  0  0  0  0  0  0  0  0
  -30.2345  -25.0437  -38.8230 C   0  0  0  0  0  0  0  0  0  0  0  0
  -29.9781  -26.1661  -37.8267 C   0  0  0  0  0  0  0  0  0  0  0  0
  -31.0623  -27.2355  -37.9208 C   0  0  0  0  0  0  0  0  0  0  0  0
  -32.0590  -27.1806  -36.7652 C   0  0  0  0  0  0  0  0  0  0  0  0
  -33.3685  -26.5015  -37.1909 C   0  0  0  0  0  0  0  0  0  0  0  0
  -33.7198  -26.5459  -38.6858 C   0  0  0  0  0  0  0  0  0  0  0  0
  -35.1731  -26.8554  -39.0187 C   0  0  0  0  0  0  0  0  0  0  0  0
  5  7  2  0  0  0
  6  7  1  0  0  0
  7  4  1  0  0  0
  4  3  1  0  0  0
  3  2  1  0  0  0
  2  1  1  0  0  0
  1  9  1  0  0  0
  9 10  1  0  0  0
 10 11  1  0  0  0
 11 12  1  0  0  0
 12 13  1  0  0  0
 13 14  1  0  0  0
 14 15  1  0  0  0
  6  8  1  0  0  0
M  END
> <minimizedAffinity>
-4.09216

$$$$
3UIL_DAO_D_202


 15 14  0  0  0  0  0  0  0  0999 V2000
  -34.6866  -25.8135  -39.4728 C   0  0  0  0  0  0  0  0  0  0  0  0
  -33.9953  -24.4512  -39.4483 C   0  0  0  0  0  0  0  0  0  0  0  0
  -34.0482  -23.8095  -40.8297 C   0  0  0  0  0  0  0  0  0  0  0  0
  -32.6864  -23.2491  -41.1081 C   0  0  0  0  0  0  0  0  0  0  0  0
  -33.3944  -21.6777  -42.8311 O   0  0  0  0  0  0  0  0  0  0  0  0
  -31.4846  -22.7387  -43.0833 O   0  0  0  0  0  0  0  0  0  0  0  0
  -32.5266  -22.4973  -42.4275 C   0  0  0  0  0  0  0  0  0  0  0  0
  -30.8575  -23.3536  -42.7568 H   0  0  0  0  0  0  0  0  0  0  0  0
  -33.8681  -26.9159  -38.8123 C   0  0  0  0  0  0  0  0  0  0  0  0
  -33.7107  -26.6180  -37.3275 C   0  0  0  0  0  0  0  0  0  0  0  0
  -32.3015  -26.9567  -36.8508 C   0  0  0  0  0  0  0  0  0  0  0  0
  -31.3261  -27.2092  -37.9983 C   0  0  0  0  0  0  0  0  0  0  0  0
  -30.1583  -26.2130  -37.9660 C   0  0  0  0  0  0  0  0  0  0  0  0
  -30.3570  -24.8854  -38.7131 C   0  0  0  0  0  0  0  0  0  0  0  0
  -30.7874  -23.6998  -37.8600 C   0  0  0  0  0  0  0  0  0  0  0  0
  5  7  2  0  0  0
  6  7  1  0  0  0
  7  4  1  0  0  0
  4  3  1  0  0  0
  3  2  1  0  0  0
  2  1  1  0  0  0
  1  9  1  0  0  0
  9 10  1  0  0  0
 10 11  1  0  0  0
 11 12  1  0  0  0
 12 13  1  0  0  0
 13 14  1  0  0  0
 14 15  1  0  0  0
  6  8  1  0  0  0
M  END
> <minimizedAffinity>
-4.02983

$$$$
3UIL_DAO_D_202


 15 14  0  0  0  0  0  0  0  0999 V2000
  -30.8152  -24.2803  -39.5064 C   0  0  0  0  0  0  0  0  0  0  0  0
  -31.1145  -23.4192  -38.2804 C   0  0  0  0  0  0  0  0  0  0  0  0
  -32.4435  -22.6948  -38.4581 C   0  0  0  0  0  0  0  0  0  0  0  0
  -32.1314  -21.2418  -38.6521 C   0  0  0  0  0  0  0  0  0  0  0  0
  -32.8291  -20.7612  -40.9372 O   0  0  0  0  0  0  0  0  0  0  0  0
  -30.7227  -20.4541  -40.3845 O   0  0  0  0  0  0  0  0  0  0  0  0
  -31.8949  -20.7923  -40.0921 C   0  0  0  0  0  0  0  0  0  0  0  0
  -30.0492  -20.4880  -39.7339 H   0  0  0  0  0  0  0  0  0  0  0  0
  -29.7571  -25.3463  -39.2496 C   0  0  0  0  0  0  0  0  0  0  0  0
  -29.9828  -25.9730  -37.8804 C   0  0  0  0  0  0  0  0  0  0  0  0
  -30.9429  -27.1550  -37.9746 C   0  0  0  0  0  0  0  0  0  0  0  0
  -31.9787  -27.1755  -36.8527 C   0  0  0  0  0  0  0  0  0  0  0  0
  -33.2775  -26.4779  -37.2810 C   0  0  0  0  0  0  0  0  0  0  0  0
  -33.8496  -26.8581  -38.6552 C   0  0  0  0  0  0  0  0  0  0  0  0
  -34.4443  -25.7156  -39.4674 C   0  0  0  0  0  0  0  0  0  0  0  0
  5  7  2  0  0  0
  6  7  1  0  0  0
  7  4  1  0  0  0
  4  3  1  0  0  0
  3  2  1  0  0  0
  2  1  1  0  0  0
  1  9  1  0  0  0
  9 10  1  0  0  0
 10 11  1  0  0  0
 11 12  1  0  0  0
 12 13  1  0  0  0
 13 14  1  0  0  0
 14 15  1  0  0  0
  6  8  1  0  0  0
M  END
> <minimizedAffinity>
-3.96407

$$$$
3UIL_DAO_D_202


 15 14  0  0  0  0  0  0  0  0999 V2000
  -32.2682  -22.6326  -38.1876 C   0  0  0  0  0  0  0  0  0  0  0  0
  -31.2764  -22.1151  -39.2282 C   0  0  0  0  0  0  0  0  0  0  0  0
  -31.1029  -23.1385  -40.3442 C   0  0  0  0  0  0  0  0  0  0  0  0
  -32.4492  -23.3395  -40.9714 C   0  0  0  0  0  0  0  0  0  0  0  0
  -33.1316  -23.7741  -43.2702 O   0  0  0  0  0  0  0  0  0  0  0  0
  -32.0390  -21.9191  -42.8209 O   0  0  0  0  0  0  0  0  0  0  0  0
  -32.5547  -23.0034  -42.4572 C   0  0  0  0  0  0  0  0  0  0  0  0
  -31.6168  -21.3671  -42.1924 H   0  0  0  0  0  0  0  0  0  0  0  0
  -31.7882  -22.4463  -36.7536 C   0  0  0  0  0  0  0  0  0  0  0  0
  -30.4526  -23.1524  -36.5644 C   0  0  0  0  0  0  0  0  0  0  0  0
  -30.6310  -24.6676  -36.5814 C   0  0  0  0  0  0  0  0  0  0  0  0
  -29.8341  -25.3517  -37.6899 C   0  0  0  0  0  0  0  0  0  0  0  0
  -30.6644  -26.4430  -38.3805 C   0  0  0  0  0  0  0  0  0  0  0  0
  -31.9563  -26.8835  -37.6754 C   0  0  0  0  0  0  0  0  0  0  0  0
  -33.2512  -26.6138  -38.4299 C   0  0  0  0  0  0  0  0  0  0  0  0
  5  7  2  0  0  0
  6  7  1  0  0  0
  7  4  1  0  0  0
  4  3  1  0  0  0
  3  2  1  0  0  0
  2  1  1  0  0  0
  1  9  1  0  0  0
  9 10  1  0  0  0
 10 11  1  0  0  0
 11 12  1  0  0  0
 12 13  1  0  0  0
 13 14  1  0  0  0
 14 15  1  0  0  0
  6  8  1  0  0  0
M  END
> <minimizedAffinity>
-3.74948

$$$$
3UIL_DAO_D_202


 15 14  0  0  0  0  0  0  0  0999 V2000
  -30.4484  -25.4104  -37.8287 C   0  0  0  0  0  0  0  0  0  0  0  0
  -30.5159  -24.7241  -39.1920 C   0  0  0  0  0  0  0  0  0  0  0  0
  -31.0941  -23.3215  -39.0468 C   0  0  0  0  0  0  0  0  0  0  0  0
  -31.2542  -22.7652  -40.4292 C   0  0  0  0  0  0  0  0  0  0  0  0
  -31.2238  -20.4938  -39.5464 O   0  0  0  0  0  0  0  0  0  0  0  0
  -31.8366  -20.8121  -41.6345 O   0  0  0  0  0  0  0  0  0  0  0  0
  -31.4472  -21.2536  -40.5265 C   0  0  0  0  0  0  0  0  0  0  0  0
  -31.9942  -21.4025  -42.3448 H   0  0  0  0  0  0  0  0  0  0  0  0
  -30.7582  -26.9011  -37.8892 C   0  0  0  0  0  0  0  0  0  0  0  0
  -31.8642  -27.2353  -36.8976 C   0  0  0  0  0  0  0  0  0  0  0  0
  -33.1560  -26.5075  -37.2577 C   0  0  0  0  0  0  0  0  0  0  0  0
  -33.7242  -26.9305  -38.6105 C   0  0  0  0  0  0  0  0  0  0  0  0
  -34.2591  -25.7223  -39.3922 C   0  0  0  0  0  0  0  0  0  0  0  0
  -34.5950  -24.4625  -38.5795 C   0  0  0  0  0  0  0  0  0  0  0  0
  -34.8296  -23.1929  -39.3868 C   0  0  0  0  0  0  0  0  0  0  0  0
  5  7  2  0  0  0
  6  7  1  0  0  0
  7  4  1  0  0  0
  4  3  1  0  0  0
  3  2  1  0  0  0
  2  1  1  0  0  0
  1  9  1  0  0  0
  9 10  1  0  0  0
 10 11  1  0  0  0
 11 12  1  0  0  0
 12 13  1  0  0  0
 13 14  1  0  0  0
 14 15  1  0  0  0
  6  8  1  0  0  0
M  END
> <minimizedAffinity>
-3.70126

$$$$
3UIL_DAO_D_202


 15 14  0  0  0  0  0  0  0  0999 V2000
  -33.5753  -26.9498  -38.6690 C   0  0  0  0  0  0  0  0  0  0  0  0
  -34.7248  -26.1513  -39.2817 C   0  0  0  0  0  0  0  0  0  0  0  0
  -35.7816  -27.0958  -39.8418 C   0  0  0  0  0  0  0  0  0  0  0  0
  -36.5816  -26.3187  -40.8429 C   0  0  0  0  0  0  0  0  0  0  0  0
  -35.3459  -26.7619  -42.8961 O   0  0  0  0  0  0  0  0  0  0  0  0
  -35.7721  -24.6762  -42.3440 O   0  0  0  0  0  0  0  0  0  0  0  0
  -35.8466  -25.9078  -42.1167 C   0  0  0  0  0  0  0  0  0  0  0  0
  -36.1545  -24.0653  -41.7452 H   0  0  0  0  0  0  0  0  0  0  0  0
  -33.3792  -26.6786  -37.1825 C   0  0  0  0  0  0  0  0  0  0  0  0
  -31.9984  -27.1548  -36.7525 C   0  0  0  0  0  0  0  0  0  0  0  0
  -31.0375  -27.1784  -37.9375 C   0  0  0  0  0  0  0  0  0  0  0  0
  -30.0004  -26.0587  -37.8894 C   0  0  0  0  0  0  0  0  0  0  0  0
  -30.0083  -25.2362  -39.1858 C   0  0  0  0  0  0  0  0  0  0  0  0
  -31.0561  -24.1177  -39.2923 C   0  0  0  0  0  0  0  0  0  0  0  0
  -31.4611  -23.4584  -37.9809 C   0  0  0  0  0  0  0  0  0  0  0  0
  5  7  2  0  0  0
  6  7  1  0  0  0
  7  4  1  0  0  0
  4  3  1  0  0  0
  3  2  1  0  0  0
  2  1  1  0  0  0
  1  9  1  0  0  0
  9 10  1  0  0  0
 10 11  1  0  0  0
 11 12  1  0  0  0
 12 13  1  0  0  0
 13 14  1  0  0  0
 14 15  1  0  0  0
  6  8  1  0  0  0
M  END
> <minimizedAffinity>
-3.69577

$$$$
3UIL_DAO_D_202


 15 14  0  0  0  0  0  0  0  0999 V2000
  -31.1941  -27.0631  -38.0316 C   0  0  0  0  0  0  0  0  0  0  0  0
  -31.9873  -27.1712  -36.7303 C   0  0  0  0  0  0  0  0  0  0  0  0
  -33.4544  -26.8418  -36.9795 C   0  0  0  0  0  0  0  0  0  0  0  0
  -33.6570  -26.8275  -38.4644 C   0  0  0  0  0  0  0  0  0  0  0  0
  -36.0777  -26.6810  -38.2230 O   0  0  0  0  0  0  0  0  0  0  0  0
  -35.2445  -27.4603  -40.1032 O   0  0  0  0  0  0  0  0  0  0  0  0
  -35.0958  -26.9956  -38.9474 C   0  0  0  0  0  0  0  0  0  0  0  0
  -34.4945  -27.6850  -40.6179 H   0  0  0  0  0  0  0  0  0  0  0  0
  -30.0130  -26.1049  -37.9388 C   0  0  0  0  0  0  0  0  0  0  0  0
  -30.0722  -25.1059  -39.0863 C   0  0  0  0  0  0  0  0  0  0  0  0
  -31.0362  -23.9672  -38.7672 C   0  0  0  0  0  0  0  0  0  0  0  0
  -30.8277  -23.3792  -37.3734 C   0  0  0  0  0  0  0  0  0  0  0  0
  -32.1290  -23.4016  -36.5590 C   0  0  0  0  0  0  0  0  0  0  0  0
  -33.2297  -22.4165  -36.9813 C   0  0  0  0  0  0  0  0  0  0  0  0
  -32.7883  -20.9737  -37.1863 C   0  0  0  0  0  0  0  0  0  0  0  0
  5  7  2  0  0  0
  6  7  1  0  0  0
  7  4  1  0  0  0
  4  3  1  0  0  0
  3  2  1  0  0  0
  2  1  1  0  0  0
  1  9  1  0  0  0
  9 10  1  0  0  0
 10 11  1  0  0  0
 11 12  1  0  0  0
 12 13  1  0  0  0
 13 14  1  0  0  0
 14 15  1  0  0  0
  6  8  1  0  0  0
M  END
> <minimizedAffinity>
-3.68512

$$$$
3UIL_DAO_D_202


 15 14  0  0  0  0  0  0  0  0999 V2000
  -33.6827  -26.9208  -38.5719 C   0  0  0  0  0  0  0  0  0  0  0  0
  -35.0439  -26.3812  -39.0082 C   0  0  0  0  0  0  0  0  0  0  0  0
  -34.9564  -25.8117  -40.4191 C   0  0  0  0  0  0  0  0  0  0  0  0
  -34.7493  -24.3333  -40.2858 C   0  0  0  0  0  0  0  0  0  0  0  0
  -34.1909  -24.1346  -42.6497 O   0  0  0  0  0  0  0  0  0  0  0  0
  -33.5972  -22.5194  -41.2802 O   0  0  0  0  0  0  0  0  0  0  0  0
  -34.1424  -23.6285  -41.4968 C   0  0  0  0  0  0  0  0  0  0  0  0
  -33.5770  -22.1690  -40.4115 H   0  0  0  0  0  0  0  0  0  0  0  0
  -33.3685  -26.6476  -37.1062 C   0  0  0  0  0  0  0  0  0  0  0  0
  -31.9782  -27.1719  -36.7737 C   0  0  0  0  0  0  0  0  0  0  0  0
  -31.0733  -27.1309  -38.0015 C   0  0  0  0  0  0  0  0  0  0  0  0
  -29.9886  -26.0599  -37.9100 C   0  0  0  0  0  0  0  0  0  0  0  0
  -29.9444  -25.2020  -39.1824 C   0  0  0  0  0  0  0  0  0  0  0  0
  -31.0941  -24.2038  -39.3874 C   0  0  0  0  0  0  0  0  0  0  0  0
  -31.5787  -23.4813  -38.1376 C   0  0  0  0  0  0  0  0  0  0  0  0
  5  7  2  0  0  0
  6  7  1  0  0  0
  7  4  1  0  0  0
  4  3  1  0  0  0
  3  2  1  0  0  0
  2  1  1  0  0  0
  1  9  1  0  0  0
  9 10  1  0  0  0
 10 11  1  0  0  0
 11 12  1  0  0  0
 12 13  1  0  0  0
 13 14  1  0  0  0
 14 15  1  0  0  0
  6  8  1  0  0  0
M  END
> <minimizedAffinity>
-3.65011

$$$$
3UIL_DAO_D_202


 15 14  0  0  0  0  0  0  0  0999 V2000
  -33.6248  -27.0082  -38.5601 C   0  0  0  0  0  0  0  0  0  0  0  0
  -34.2095  -25.7979  -39.2864 C   0  0  0  0  0  0  0  0  0  0  0  0
  -34.5841  -24.7130  -38.2837 C   0  0  0  0  0  0  0  0  0  0  0  0
  -35.7277  -23.9439  -38.8727 C   0  0  0  0  0  0  0  0  0  0  0  0
  -36.3796  -22.4653  -37.0484 O   0  0  0  0  0  0  0  0  0  0  0  0
  -35.8566  -21.5828  -38.9937 O   0  0  0  0  0  0  0  0  0  0  0  0
  -36.0120  -22.5798  -38.2482 C   0  0  0  0  0  0  0  0  0  0  0  0
  -35.5823  -21.7002  -39.8820 H   0  0  0  0  0  0  0  0  0  0  0  0
  -33.3577  -26.7521  -37.0820 C   0  0  0  0  0  0  0  0  0  0  0  0
  -31.9356  -27.1732  -36.7378 C   0  0  0  0  0  0  0  0  0  0  0  0
  -31.0442  -27.1424  -37.9757 C   0  0  0  0  0  0  0  0  0  0  0  0
  -30.0596  -25.9753  -37.9754 C   0  0  0  0  0  0  0  0  0  0  0  0
  -30.4018  -24.9576  -39.0727 C   0  0  0  0  0  0  0  0  0  0  0  0
  -31.0097  -23.6224  -38.6167 C   0  0  0  0  0  0  0  0  0  0  0  0
  -31.2191  -23.4646  -37.1167 C   0  0  0  0  0  0  0  0  0  0  0  0
  5  7  2  0  0  0
  6  7  1  0  0  0
  7  4  1  0  0  0
  4  3  1  0  0  0
  3  2  1  0  0  0
  2  1  1  0  0  0
  1  9  1  0  0  0
  9 10  1  0  0  0
 10 11  1  0  0  0
 11 12  1  0  0  0
 12 13  1  0  0  0
 13 14  1  0  0  0
 14 15  1  0  0  0
  6  8  1  0  0  0
M  END
> <minimizedAffinity>
-3.64640

$$$$
