1NP0_NGT_A_557
  RCSB PDB12061703263D
Coordinates from PDB:1NP0:A:557 Model:1 without hydrogens
 14 15  0  0  0  0            999 V2000
    5.1240   22.0470   34.8260   C 0  0  0  0  0  0  0  0  0  0  0  0
    5.1610   23.3160   35.7290   C 0  0  0  0  0  0  0  0  0  0  0  0
    6.6420   23.6460   36.2170   C 0  0  0  0  0  0  0  0  0  0  0  0
    7.4490   22.4060   36.5250   C 0  0  0  0  0  0  0  0  0  0  0  0
    7.4060   21.4480   35.3480   C 0  0  0  0  0  0  0  0  0  0  0  0
    8.2390   20.1900   35.5460   C 0  0  0  0  0  0  0  0  0  0  0  0
    4.7750   24.2600   33.7040   C 0  0  0  0  0  0  0  0  0  0  0  0
    4.3410   25.2330   32.6480   C 0  0  0  0  0  0  0  0  0  0  0  0
    4.6610   24.4170   34.9510   N 0  0  0  0  0  0  0  0  0  0  0  0
    5.4270   22.7120   33.1540   S 0  0  0  0  0  0  0  0  0  0  0  0
    6.5930   24.4980   37.3510   O 0  0  0  0  0  0  0  0  0  0  0  0
    8.7840   22.7800   36.8010   O 0  0  0  0  0  0  0  0  0  0  0  0
    6.0500   21.0350   35.0950   O 0  0  0  0  0  0  0  0  0  0  0  0
    8.0000   19.2560   34.5010   O 0  0  0  0  0  0  0  0  0  0  0  0
  1  2  1  0  0  0  0
  1 10  1  0  0  0  0
  1 13  1  0  0  0  0
  2  3  1  0  0  0  0
  2  9  1  0  0  0  0
  3  4  1  0  0  0  0
  3 11  1  0  0  0  0
  4  5  1  0  0  0  0
  4 12  1  0  0  0  0
  5  6  1  0  0  0  0
  5 13  1  0  0  0  0
  6 14  1  0  0  0  0
  7  8  1  0  0  0  0
  7  9  2  0  0  0  0
  7 10  1  0  0  0  0
A    1
C1
A    2
C2
A    3
C3
A    4
C4
A    5
C5
A    6
C6
A    7
C7
A    8
C8
A    9
N2
A   10
S1
A   11
O3
A   12
O4
A   13
O5
A   14
O6
M  END
>  <InstanceId>
1NP0_NGT_A_557

>  <ChemCompId>
NGT

>  <PdbId>
1NP0

>  <ChainId>
A

>  <ResidueNumber>
557

>  <InsertionCode>


>  <Model>
1

>  <AltIds>


>  <MissingHeavyAtoms>
0

>  <ObservedFormula>
C8 N O4 S

>  <Name>
3AR,5R,6S,7R,7AR-5-HYDROXYMETHYL-2-METHYL-5,6,7,7A-TETRAHYDRO-3AH-PYRANO[3,2-D]THIAZOLE-6,7-DIOL

>  <SystematicName>
(3aR,5R,6S,7R,7aR)-5-(hydroxymethyl)-2-methyl-5,6,7,7a-tetrahydro-3aH-pyrano[5,6-d][1,3]thiazole-6,7-diol

>  <Synonyms>


>  <Type>
NON-POLYMER

>  <Formula>
C8 H13 N O4 S

>  <MolecularWeight>
219.258

>  <ModifiedDate>
2011-06-04

>  <Parent>


>  <OneLetterCode>


>  <SubcomponentList>


>  <AmbiguousFlag>
N

>  <InChI>
InChI=1S/C8H13NO4S/c1-3-9-5-7(12)6(11)4(2-10)13-8(5)14-3/h4-8,10-12H,2H2,1H3/t4-,5-,6-,7-,8-/m1/s1

>  <InChIKey>
DRHXTSWSUAJOJZ-FMDGEEDCSA-N

>  <SMILES>
CC1=N[C@@H]2[C@H]([C@@H]([C@H](O[C@@H]2S1)CO)O)O

$$$$
