3H8B_NSY_A_300


 79 84  0  0  0  0  0  0  0  0999 V2000
   -1.4675   -5.9787    7.5034 C   0  0  0  0  0  0  0  0  0  0  0  0
   -2.3331   -6.6433    6.7872 O   0  0  0  0  0  0  0  0  0  0  0  0
   -0.3733   -6.5889    8.3103 N   0  0  0  0  0  0  0  0  0  0  0  0
    0.2123   -5.9987    8.8374 H   0  0  0  0  0  0  0  0  0  0  0  0
   -1.4533   -4.4941    7.5451 C   0  0  0  0  0  0  0  0  0  0  0  0
    1.0328   -3.7677    7.0006 C   0  0  0  0  0  0  0  0  0  0  0  0
    1.4032   -3.4395    8.1005 O   0  0  0  0  0  0  0  0  0  0  0  0
   -0.3246   -4.2763    6.6968 N   0  0  0  0  0  0  0  0  0  0  0  0
   -0.4744   -4.5025    5.7504 H   0  0  0  0  0  0  0  0  0  0  0  0
    1.8175   -3.7639    5.9301 C   0  0  0  0  0  0  0  0  0  0  0  0
    3.7389    0.0744    4.3501 C   0  0  0  0  0  0  0  0  0  0  0  0
    2.2820   -0.4255    4.0158 C   0  0  0  0  0  0  0  0  0  0  0  0
    1.7728   -1.6518    4.5596 C   0  0  0  0  0  0  0  0  0  0  0  0
    2.6030   -2.5258    5.5090 C   0  0  0  0  0  0  0  0  0  0  0  0
    4.1021   -2.0829    5.9302 C   0  0  0  0  0  0  0  0  0  0  0  0
    4.6023   -0.7803    5.3134 C   0  0  0  0  0  0  0  0  0  0  0  0
    4.8625    4.0478    2.2285 C   0  0  0  0  0  0  0  0  0  0  0  0
    5.6297    1.9953    3.9463 C   0  0  0  0  0  0  0  0  0  0  0  0
    4.2231    1.3653    3.7203 C   0  0  0  0  0  0  0  0  0  0  0  0
    5.8732    3.3445    3.1620 C   0  0  0  0  0  0  0  0  0  0  0  0
    3.1346    2.1220    2.6992 C   0  0  0  0  0  0  0  0  0  0  0  0
    3.4678    3.4178    2.0007 C   0  0  0  0  0  0  0  0  0  0  0  0
   -2.6753   -3.9464    7.0132 C   0  0  0  0  0  0  0  0  0  0  0  0
   -2.6869   -2.8941    5.9662 C   0  0  0  0  0  0  0  0  0  0  0  0
   -2.8343   -2.9610    4.7126 C   0  0  0  0  0  0  0  0  0  0  0  0
   -2.8348   -4.2291    3.8738 C   0  0  0  0  0  0  0  0  0  0  0  0
   -0.7833   -5.1131    3.0843 C   0  0  0  0  0  0  0  0  0  0  0  0
   -1.7856   -4.4085    2.7466 N   0  0  0  0  0  0  0  0  0  0  0  0
   -0.6019   -5.6149    4.1124 O   0  0  0  0  0  0  0  0  0  0  0  0
   -1.8867   -4.0128    1.8508 H   0  0  0  0  0  0  0  0  0  0  0  0
    0.2823   -5.3541    2.1990 C   0  0  0  0  0  0  0  0  0  0  0  0
    1.2251   -4.5060    1.9452 C   0  0  0  0  0  0  0  0  0  0  0  0
    1.0181   -3.2398    1.1545 C   0  0  0  0  0  0  0  0  0  0  0  0
    2.5823   -4.7952    2.4529 C   0  0  0  0  0  0  0  0  0  0  0  0
    2.0915   -2.2785    0.9066 C   0  0  0  0  0  0  0  0  0  0  0  0
    3.7069   -3.8168    2.2016 C   0  0  0  0  0  0  0  0  0  0  0  0
    3.4828   -2.5245    1.4098 C   0  0  0  0  0  0  0  0  0  0  0  0
    4.4688   -1.5437    1.1765 C   0  0  0  0  0  0  0  0  0  0  0  0
    5.8609   -1.6381    1.8598 C   0  0  0  0  0  0  0  0  0  0  0  0
    4.2364   -0.3306    0.2665 C   0  0  0  0  0  0  0  0  0  0  0  0
    6.9171   -0.5857    1.6057 C   0  0  0  0  0  0  0  0  0  0  0  0
    5.2773    0.6677    0.0542 C   0  0  0  0  0  0  0  0  0  0  0  0
    6.6019    0.5337    0.7260 C   0  0  0  0  0  0  0  0  0  0  0  0
   -0.1453   -7.9799    8.3474 C   0  0  0  0  0  0  0  0  0  0  0  0
   -0.5613   -8.6401    9.5833 C   0  0  0  0  0  0  0  0  0  0  0  0
    0.3334   -9.0167   10.3454 O   0  0  0  0  0  0  0  0  0  0  0  0
   -1.8727   -8.7771    9.8248 N   0  0  0  0  0  0  0  0  0  0  0  0
   -2.5164   -8.4462    9.1575 H   0  0  0  0  0  0  0  0  0  0  0  0
   -2.3782   -9.4005   11.0443 C   0  0  0  0  0  0  0  0  0  0  0  0
   -2.4574  -10.9345   10.6750 C   0  0  0  0  0  0  0  0  0  0  0  0
   -2.6737  -11.2855    9.5513 O   0  0  0  0  0  0  0  0  0  0  0  0
   -2.2826  -11.8389   11.8230 N   0  0  0  0  0  0  0  0  0  0  0  0
   -2.1051  -11.5028   12.7312 H   0  0  0  0  0  0  0  0  0  0  0  0
   -2.3947  -13.3453   11.5146 C   0  0  0  0  0  0  0  0  0  0  0  0
   -1.4262  -14.0419   12.3449 C   0  0  0  0  0  0  0  0  0  0  0  0
   -1.7742  -14.6818   13.5484 C   0  0  0  0  0  0  0  0  0  0  0  0
   -2.4191  -13.8810   14.8071 C   0  0  0  0  0  0  0  0  0  0  0  0
   -2.7416  -14.7224   16.0593 C   0  0  0  0  0  0  0  0  0  0  0  0
   -2.4599  -16.2007   16.0700 C   0  0  0  0  0  0  0  0  0  0  0  0
   -1.8640  -16.9040   14.8771 C   0  0  0  0  0  0  0  0  0  0  0  0
   -1.5116  -16.1651   13.6101 C   0  0  0  0  0  0  0  0  0  0  0  0
   -3.8318   -8.9777   11.4701 C   0  0  0  0  0  0  0  0  0  0  0  0
   -3.7632   -8.3260   12.9094 C   0  0  0  0  0  0  0  0  0  0  0  0
   -4.9962   -8.3531   13.8102 C   0  0  0  0  0  0  0  0  0  0  0  0
   -2.4085   -7.6361   13.4372 C   0  0  0  0  0  0  0  0  0  0  0  0
   -4.9351   -7.7295   15.1886 C   0  0  0  0  0  0  0  0  0  0  0  0
   -2.3934   -7.0388   14.7945 C   0  0  0  0  0  0  0  0  0  0  0  0
   -3.6108   -7.0690   15.6696 C   0  0  0  0  0  0  0  0  0  0  0  0
   -0.7181   -8.9409    7.1002 C   0  0  0  0  0  0  0  0  0  0  0  0
   -0.3541  -10.4727    6.8320 C   0  0  0  0  0  0  0  0  0  0  0  0
    0.3903  -10.7329    5.5057 C   0  0  0  0  0  0  0  0  0  0  0  0
    1.6360  -10.0219    5.1407 N   0  0  0  0  0  0  0  0  0  0  0  0
    1.5769   -9.1905    4.6168 H   0  0  0  0  0  0  0  0  0  0  0  0
    2.9676  -10.5266    5.5416 C   0  0  0  0  0  0  0  0  0  0  0  0
    3.2385  -11.8595    5.7790 N   0  0  0  0  0  0  0  0  0  0  0  0
    4.0646   -9.7090    5.7111 N   0  0  0  0  0  0  0  0  0  0  0  0
    2.5246  -12.5310    5.6864 H   0  0  0  0  0  0  0  0  0  0  0  0
    4.1457  -12.1384    6.0408 H   0  0  0  0  0  0  0  0  0  0  0  0
    3.9823   -8.7386    5.5670 H   0  0  0  0  0  0  0  0  0  0  0  0
 10  6  1  0  0  0
 14 10  1  0  0  0
  7  6  2  0  0  0
  6  8  1  0  0  0
 11 12  2  0  0  0
 19 11  1  0  0  0
 11 16  1  0  0  0
 12 13  1  0  0  0
 13 14  2  0  0  0
 15 14  1  0  0  0
 16 15  2  0  0  0
 20 17  2  0  0  0
 17 22  1  0  0  0
 20 18  1  0  0  0
 18 19  2  0  0  0
 19 21  1  0  0  0
 22 21  2  0  0  0
  8  5  1  0  0  0
 23  5  1  0  0  0
  5  1  1  0  0  0
  2  1  2  0  0  0
  1  3  1  0  0  0
 24 23  1  0  0  0
 32 31  1  0  0  0
 31 27  1  0  0  0
 34 32  2  0  0  0
 33 32  1  0  0  0
 35 33  2  0  0  0
 36 34  1  0  0  0
 37 35  1  0  0  0
 37 36  2  0  0  0
 38 37  1  0  0  0
  3 44  1  0  0  0
 69 44  1  0  0  0
 44 45  1  0  0  0
 70 69  1  0  0  0
 70 71  1  0  0  0
 72 71  1  0  0  0
 72 74  1  0  0  0
 76 74  2  0  0  0
 74 75  1  0  0  0
 45 47  1  0  0  0
 45 46  2  0  0  0
 47 49  1  0  0  0
 50 49  1  0  0  0
 49 62  1  0  0  0
 51 50  2  0  0  0
 50 52  1  0  0  0
 62 63  1  0  0  0
 65 63  2  0  0  0
 63 64  1  0  0  0
 64 66  2  0  0  0
 65 67  1  0  0  0
 68 66  1  0  0  0
 67 68  2  0  0  0
 61 56  2  0  0  0
 55 56  1  0  0  0
 56 57  1  0  0  0
 57 58  2  0  0  0
 59 58  1  0  0  0
 60 59  2  0  0  0
 61 60  1  0  0  0
 55 54  1  0  0  0
 52 54  1  0  0  0
 40 38  2  0  0  0
 39 38  1  0  0  0
 41 39  2  0  0  0
 42 40  1  0  0  0
 43 41  1  0  0  0
 43 42  2  0  0  0
 29 27  2  0  0  0
 27 28  1  0  0  0
 25 24  1  0  0  0
 26 25  1  0  0  0
 28 26  1  0  0  0
  8  9  1  0  0  0
  3  4  1  0  0  0
 72 73  1  0  0  0
 75 77  1  0  0  0
 75 78  1  0  0  0
 76 79  1  0  0  0
 47 48  1  0  0  0
 52 53  1  0  0  0
 28 30  1  0  0  0
M  END
> <minimizedAffinity>
-8.27659

$$$$
3H8B_NSY_A_300


 79 84  0  0  0  0  0  0  0  0999 V2000
   -1.9610   -5.5407    7.0447 C   0  0  0  0  0  0  0  0  0  0  0  0
   -2.8182   -6.0153    6.1822 O   0  0  0  0  0  0  0  0  0  0  0  0
   -1.0903   -6.3641    7.9305 N   0  0  0  0  0  0  0  0  0  0  0  0
   -0.4940   -5.9068    8.5665 H   0  0  0  0  0  0  0  0  0  0  0  0
   -1.7215   -4.0828    7.1974 C   0  0  0  0  0  0  0  0  0  0  0  0
    0.9251   -4.0819    7.2268 C   0  0  0  0  0  0  0  0  0  0  0  0
    1.1236   -4.1914    8.4115 O   0  0  0  0  0  0  0  0  0  0  0  0
   -0.4203   -4.0265    6.6101 N   0  0  0  0  0  0  0  0  0  0  0  0
   -0.4176   -3.9357    5.6298 H   0  0  0  0  0  0  0  0  0  0  0  0
    1.8936   -4.0510    6.3198 C   0  0  0  0  0  0  0  0  0  0  0  0
    3.4382   -0.2225    4.3507 C   0  0  0  0  0  0  0  0  0  0  0  0
    4.2246   -1.0926    5.4035 C   0  0  0  0  0  0  0  0  0  0  0  0
    3.6474   -2.2783    5.9690 C   0  0  0  0  0  0  0  0  0  0  0  0
    2.2527   -2.7748    5.5652 C   0  0  0  0  0  0  0  0  0  0  0  0
    1.3779   -1.9611    4.4727 C   0  0  0  0  0  0  0  0  0  0  0  0
    2.0294   -0.7001    3.9135 C   0  0  0  0  0  0  0  0  0  0  0  0
    5.1985    3.5984    2.3874 C   0  0  0  0  0  0  0  0  0  0  0  0
    5.2855    1.7765    4.4910 C   0  0  0  0  0  0  0  0  0  0  0  0
    4.0964    1.0327    3.8133 C   0  0  0  0  0  0  0  0  0  0  0  0
    5.7813    3.0582    3.7126 C   0  0  0  0  0  0  0  0  0  0  0  0
    3.4749    1.6122    2.3717 C   0  0  0  0  0  0  0  0  0  0  0  0
    4.0210    2.8553    1.7126 C   0  0  0  0  0  0  0  0  0  0  0  0
   -2.7029   -3.3152    6.4736 C   0  0  0  0  0  0  0  0  0  0  0  0
   -2.3701   -2.5556    5.2425 C   0  0  0  0  0  0  0  0  0  0  0  0
   -2.7481   -2.6943    4.0443 C   0  0  0  0  0  0  0  0  0  0  0  0
   -2.3040   -3.7845    3.0820 C   0  0  0  0  0  0  0  0  0  0  0  0
   -0.3972   -4.5493    1.9019 C   0  0  0  0  0  0  0  0  0  0  0  0
   -0.8207   -4.2347    3.0582 N   0  0  0  0  0  0  0  0  0  0  0  0
   -0.9967   -4.5206    0.9113 O   0  0  0  0  0  0  0  0  0  0  0  0
   -0.2581   -4.2734    3.8652 H   0  0  0  0  0  0  0  0  0  0  0  0
    0.9148   -5.0114    1.6961 C   0  0  0  0  0  0  0  0  0  0  0  0
    1.9630   -4.2538    1.6967 C   0  0  0  0  0  0  0  0  0  0  0  0
    2.0934   -3.0088    0.8573 C   0  0  0  0  0  0  0  0  0  0  0  0
    3.0988   -4.6307    2.5633 C   0  0  0  0  0  0  0  0  0  0  0  0
    3.2752   -2.1489    0.8975 C   0  0  0  0  0  0  0  0  0  0  0  0
    4.3321   -3.7579    2.6141 C   0  0  0  0  0  0  0  0  0  0  0  0
    4.4487   -2.4858    1.7685 C   0  0  0  0  0  0  0  0  0  0  0  0
    5.5446   -1.5987    1.7983 C   0  0  0  0  0  0  0  0  0  0  0  0
    6.5475   -1.6143    2.9847 C   0  0  0  0  0  0  0  0  0  0  0  0
    5.8084   -0.5652    0.6955 C   0  0  0  0  0  0  0  0  0  0  0  0
    7.7231   -0.6630    3.0127 C   0  0  0  0  0  0  0  0  0  0  0  0
    6.9482    0.3411    0.7636 C   0  0  0  0  0  0  0  0  0  0  0  0
    7.8896    0.2868    1.9188 C   0  0  0  0  0  0  0  0  0  0  0  0
   -1.0883   -7.7736    7.8919 C   0  0  0  0  0  0  0  0  0  0  0  0
   -0.4284   -8.3576    6.7257 C   0  0  0  0  0  0  0  0  0  0  0  0
   -1.1503   -8.9181    5.8963 O   0  0  0  0  0  0  0  0  0  0  0  0
    0.9016   -8.2333    6.6147 N   0  0  0  0  0  0  0  0  0  0  0  0
    1.3972   -7.7693    7.3277 H   0  0  0  0  0  0  0  0  0  0  0  0
    1.6398   -8.7630    5.4720 C   0  0  0  0  0  0  0  0  0  0  0  0
    1.7178  -10.3137    5.7635 C   0  0  0  0  0  0  0  0  0  0  0  0
    2.0705  -10.7210    6.8323 O   0  0  0  0  0  0  0  0  0  0  0  0
    1.3623  -11.1602    4.6129 N   0  0  0  0  0  0  0  0  0  0  0  0
    1.0763  -10.7786    3.7516 H   0  0  0  0  0  0  0  0  0  0  0  0
    1.4658  -12.6814    4.8407 C   0  0  0  0  0  0  0  0  0  0  0  0
    2.3883  -13.2167    3.8533 C   0  0  0  0  0  0  0  0  0  0  0  0
    3.4978  -12.4949    3.3768 C   0  0  0  0  0  0  0  0  0  0  0  0
    3.6425  -12.0437    1.8222 C   0  0  0  0  0  0  0  0  0  0  0  0
    4.9206  -11.2621    1.4538 C   0  0  0  0  0  0  0  0  0  0  0  0
    5.9492  -10.9546    2.5083 C   0  0  0  0  0  0  0  0  0  0  0  0
    5.7720  -11.3895    3.9409 C   0  0  0  0  0  0  0  0  0  0  0  0
    4.5583  -12.1614    4.3953 C   0  0  0  0  0  0  0  0  0  0  0  0
    3.1263   -8.2683    5.3362 C   0  0  0  0  0  0  0  0  0  0  0  0
    3.4604   -8.0998    3.7996 C   0  0  0  0  0  0  0  0  0  0  0  0
    2.3833   -8.3901    2.7564 C   0  0  0  0  0  0  0  0  0  0  0  0
    4.9216   -7.6238    3.3220 C   0  0  0  0  0  0  0  0  0  0  0  0
    2.6993   -8.2309    1.2841 C   0  0  0  0  0  0  0  0  0  0  0  0
    5.1864   -7.4800    1.8700 C   0  0  0  0  0  0  0  0  0  0  0  0
    4.1220   -7.7701    0.8542 C   0  0  0  0  0  0  0  0  0  0  0  0
   -0.5226   -8.6318    9.2150 C   0  0  0  0  0  0  0  0  0  0  0  0
   -1.2132   -8.7347   10.6515 C   0  0  0  0  0  0  0  0  0  0  0  0
   -2.5799   -9.4511   10.6568 C   0  0  0  0  0  0  0  0  0  0  0  0
   -3.8080   -8.8164   11.1851 N   0  0  0  0  0  0  0  0  0  0  0  0
   -4.4359   -8.3918   10.5568 H   0  0  0  0  0  0  0  0  0  0  0  0
   -4.1179   -8.8025   12.6316 C   0  0  0  0  0  0  0  0  0  0  0  0
   -5.2845   -8.2834   13.1570 N   0  0  0  0  0  0  0  0  0  0  0  0
   -3.2685   -9.3128   13.5901 N   0  0  0  0  0  0  0  0  0  0  0  0
   -5.9624   -7.8927   12.5594 H   0  0  0  0  0  0  0  0  0  0  0  0
   -5.4385   -8.3039   14.1291 H   0  0  0  0  0  0  0  0  0  0  0  0
   -2.4070   -9.7081   13.3241 H   0  0  0  0  0  0  0  0  0  0  0  0
 10  6  1  0  0  0
 14 10  1  0  0  0
  7  6  2  0  0  0
  6  8  1  0  0  0
 11 12  2  0  0  0
 19 11  1  0  0  0
 11 16  1  0  0  0
 12 13  1  0  0  0
 13 14  2  0  0  0
 15 14  1  0  0  0
 16 15  2  0  0  0
 20 17  2  0  0  0
 17 22  1  0  0  0
 20 18  1  0  0  0
 18 19  2  0  0  0
 19 21  1  0  0  0
 22 21  2  0  0  0
  8  5  1  0  0  0
 23  5  1  0  0  0
  5  1  1  0  0  0
  2  1  2  0  0  0
  1  3  1  0  0  0
 24 23  1  0  0  0
 32 31  1  0  0  0
 31 27  1  0  0  0
 34 32  2  0  0  0
 33 32  1  0  0  0
 35 33  2  0  0  0
 36 34  1  0  0  0
 37 35  1  0  0  0
 37 36  2  0  0  0
 38 37  1  0  0  0
  3 44  1  0  0  0
 69 44  1  0  0  0
 44 45  1  0  0  0
 70 69  1  0  0  0
 70 71  1  0  0  0
 72 71  1  0  0  0
 72 74  1  0  0  0
 76 74  2  0  0  0
 74 75  1  0  0  0
 45 47  1  0  0  0
 45 46  2  0  0  0
 47 49  1  0  0  0
 50 49  1  0  0  0
 49 62  1  0  0  0
 51 50  2  0  0  0
 50 52  1  0  0  0
 62 63  1  0  0  0
 65 63  2  0  0  0
 63 64  1  0  0  0
 64 66  2  0  0  0
 65 67  1  0  0  0
 68 66  1  0  0  0
 67 68  2  0  0  0
 61 56  2  0  0  0
 55 56  1  0  0  0
 56 57  1  0  0  0
 57 58  2  0  0  0
 59 58  1  0  0  0
 60 59  2  0  0  0
 61 60  1  0  0  0
 55 54  1  0  0  0
 52 54  1  0  0  0
 40 38  2  0  0  0
 39 38  1  0  0  0
 41 39  2  0  0  0
 42 40  1  0  0  0
 43 41  1  0  0  0
 43 42  2  0  0  0
 29 27  2  0  0  0
 27 28  1  0  0  0
 25 24  1  0  0  0
 26 25  1  0  0  0
 28 26  1  0  0  0
  8  9  1  0  0  0
  3  4  1  0  0  0
 72 73  1  0  0  0
 75 77  1  0  0  0
 75 78  1  0  0  0
 76 79  1  0  0  0
 47 48  1  0  0  0
 52 53  1  0  0  0
 28 30  1  0  0  0
M  END
> <minimizedAffinity>
-8.06717

$$$$
3H8B_NSY_A_300


 79 84  0  0  0  0  0  0  0  0999 V2000
    0.5371   -4.2435    7.5425 C   0  0  0  0  0  0  0  0  0  0  0  0
    1.1230   -3.4761    8.4211 O   0  0  0  0  0  0  0  0  0  0  0  0
    0.6282   -4.0792    6.0642 N   0  0  0  0  0  0  0  0  0  0  0  0
    0.1258   -4.6985    5.4869 H   0  0  0  0  0  0  0  0  0  0  0  0
   -0.2634   -5.4294    7.9409 C   0  0  0  0  0  0  0  0  0  0  0  0
   -2.4985   -4.7094    6.7199 C   0  0  0  0  0  0  0  0  0  0  0  0
   -2.9787   -3.9926    7.5628 O   0  0  0  0  0  0  0  0  0  0  0  0
   -1.2032   -5.4127    6.8651 N   0  0  0  0  0  0  0  0  0  0  0  0
   -0.9465   -5.9615    6.0891 H   0  0  0  0  0  0  0  0  0  0  0  0
   -3.0496   -4.9149    5.5300 C   0  0  0  0  0  0  0  0  0  0  0  0
   -2.2909   -8.4839    2.7720 C   0  0  0  0  0  0  0  0  0  0  0  0
   -2.0959   -6.9688    2.3841 C   0  0  0  0  0  0  0  0  0  0  0  0
   -2.3680   -5.9190    3.3235 C   0  0  0  0  0  0  0  0  0  0  0  0
   -2.8372   -6.2116    4.7549 C   0  0  0  0  0  0  0  0  0  0  0  0
   -3.0431   -7.7378    5.2539 C   0  0  0  0  0  0  0  0  0  0  0  0
   -2.7557   -8.8158    4.2134 C   0  0  0  0  0  0  0  0  0  0  0  0
   -1.3431  -11.4178   -0.6988 C   0  0  0  0  0  0  0  0  0  0  0  0
   -2.1735  -11.0756    1.9366 C   0  0  0  0  0  0  0  0  0  0  0  0
   -2.0106   -9.5413    1.7226 C   0  0  0  0  0  0  0  0  0  0  0  0
   -1.8169  -11.9516    0.6716 C   0  0  0  0  0  0  0  0  0  0  0  0
   -1.5095   -8.9645    0.2338 C   0  0  0  0  0  0  0  0  0  0  0  0
   -1.1873   -9.8931   -0.9115 C   0  0  0  0  0  0  0  0  0  0  0  0
    0.5472   -6.6204    7.9661 C   0  0  0  0  0  0  0  0  0  0  0  0
    0.5870   -7.5320    9.1370 C   0  0  0  0  0  0  0  0  0  0  0  0
   -0.2158   -8.4251    9.5313 C   0  0  0  0  0  0  0  0  0  0  0  0
   -0.1973   -9.8915    9.1297 C   0  0  0  0  0  0  0  0  0  0  0  0
    0.6962  -10.6049    7.0546 C   0  0  0  0  0  0  0  0  0  0  0  0
   -0.3847  -10.2861    7.6422 N   0  0  0  0  0  0  0  0  0  0  0  0
    1.7570  -10.6317    7.5187 O   0  0  0  0  0  0  0  0  0  0  0  0
   -1.2611  -10.2894    7.1937 H   0  0  0  0  0  0  0  0  0  0  0  0
    0.7206  -10.9597    5.6941 C   0  0  0  0  0  0  0  0  0  0  0  0
    0.9065  -10.1228    4.7259 C   0  0  0  0  0  0  0  0  0  0  0  0
    0.7568   -8.6302    4.8724 C   0  0  0  0  0  0  0  0  0  0  0  0
    1.2810  -10.6577    3.4004 C   0  0  0  0  0  0  0  0  0  0  0  0
    1.0032   -7.6996    3.7720 C   0  0  0  0  0  0  0  0  0  0  0  0
    1.5340   -9.7120    2.2484 C   0  0  0  0  0  0  0  0  0  0  0  0
    1.3942   -8.1951    2.4115 C   0  0  0  0  0  0  0  0  0  0  0  0
    1.6593   -7.2501    1.3988 C   0  0  0  0  0  0  0  0  0  0  0  0
    1.3339   -5.7459    1.6107 C   0  0  0  0  0  0  0  0  0  0  0  0
    2.2571   -7.6340    0.0389 C   0  0  0  0  0  0  0  0  0  0  0  0
    1.6215   -4.7346    0.5233 C   0  0  0  0  0  0  0  0  0  0  0  0
    2.5110   -6.6303   -0.9873 C   0  0  0  0  0  0  0  0  0  0  0  0
    2.1888   -5.1957   -0.7384 C   0  0  0  0  0  0  0  0  0  0  0  0
    1.4070   -3.0703    5.4610 C   0  0  0  0  0  0  0  0  0  0  0  0
    2.8012   -3.4328    5.2136 C   0  0  0  0  0  0  0  0  0  0  0  0
    3.4917   -3.7073    6.1990 O   0  0  0  0  0  0  0  0  0  0  0  0
    3.2376   -3.4670    3.9467 N   0  0  0  0  0  0  0  0  0  0  0  0
    2.6143   -3.2310    3.2222 H   0  0  0  0  0  0  0  0  0  0  0  0
    4.6065   -3.8426    3.6053 C   0  0  0  0  0  0  0  0  0  0  0  0
    5.3129   -2.4593    3.3165 C   0  0  0  0  0  0  0  0  0  0  0  0
    5.5974   -2.1360    2.1998 O   0  0  0  0  0  0  0  0  0  0  0  0
    5.6030   -1.6690    4.5240 N   0  0  0  0  0  0  0  0  0  0  0  0
    5.3483   -1.9765    5.4239 H   0  0  0  0  0  0  0  0  0  0  0  0
    6.3306   -0.3299    4.2915 C   0  0  0  0  0  0  0  0  0  0  0  0
    5.5939    0.7045    4.9987 C   0  0  0  0  0  0  0  0  0  0  0  0
    4.9406    1.7613    4.3389 C   0  0  0  0  0  0  0  0  0  0  0  0
    5.6814    3.1670    3.9975 C   0  0  0  0  0  0  0  0  0  0  0  0
    4.8290    4.2306    3.2749 C   0  0  0  0  0  0  0  0  0  0  0  0
    3.3953    3.9391    2.9229 C   0  0  0  0  0  0  0  0  0  0  0  0
    2.7489    2.6182    3.2554 C   0  0  0  0  0  0  0  0  0  0  0  0
    3.5005    1.5190    3.9641 C   0  0  0  0  0  0  0  0  0  0  0  0
    4.7689   -4.6981    2.2958 C   0  0  0  0  0  0  0  0  0  0  0  0
    4.8641   -6.2236    2.7020 C   0  0  0  0  0  0  0  0  0  0  0  0
    4.3912   -6.6679    4.0846 C   0  0  0  0  0  0  0  0  0  0  0  0
    5.4517   -7.3141    1.6746 C   0  0  0  0  0  0  0  0  0  0  0  0
    4.4815   -8.1273    4.4778 C   0  0  0  0  0  0  0  0  0  0  0  0
    5.5204   -8.7327    2.1014 C   0  0  0  0  0  0  0  0  0  0  0  0
    5.0554   -9.1573    3.4624 C   0  0  0  0  0  0  0  0  0  0  0  0
    0.8654   -2.3459    4.0507 C   0  0  0  0  0  0  0  0  0  0  0  0
   -0.3506   -2.8304    3.1356 C   0  0  0  0  0  0  0  0  0  0  0  0
   -1.7202   -2.2310    3.5178 C   0  0  0  0  0  0  0  0  0  0  0  0
   -2.9251   -2.4009    2.6755 N   0  0  0  0  0  0  0  0  0  0  0  0
   -2.9817   -3.1761    2.0713 H   0  0  0  0  0  0  0  0  0  0  0  0
   -4.0471   -1.4374    2.7167 C   0  0  0  0  0  0  0  0  0  0  0  0
   -4.0079   -0.2504    3.4209 N   0  0  0  0  0  0  0  0  0  0  0  0
   -5.2369   -1.6359    2.0493 N   0  0  0  0  0  0  0  0  0  0  0  0
   -3.2032   -0.0089    3.9342 H   0  0  0  0  0  0  0  0  0  0  0  0
   -4.7845    0.3545    3.4097 H   0  0  0  0  0  0  0  0  0  0  0  0
   -5.3715   -2.4519    1.5152 H   0  0  0  0  0  0  0  0  0  0  0  0
 10  6  1  0  0  0
 14 10  1  0  0  0
  7  6  2  0  0  0
  6  8  1  0  0  0
 11 12  2  0  0  0
 19 11  1  0  0  0
 11 16  1  0  0  0
 12 13  1  0  0  0
 13 14  2  0  0  0
 15 14  1  0  0  0
 16 15  2  0  0  0
 20 17  2  0  0  0
 17 22  1  0  0  0
 20 18  1  0  0  0
 18 19  2  0  0  0
 19 21  1  0  0  0
 22 21  2  0  0  0
  8  5  1  0  0  0
 23  5  1  0  0  0
  5  1  1  0  0  0
  2  1  2  0  0  0
  1  3  1  0  0  0
 24 23  1  0  0  0
 32 31  1  0  0  0
 31 27  1  0  0  0
 34 32  2  0  0  0
 33 32  1  0  0  0
 35 33  2  0  0  0
 36 34  1  0  0  0
 37 35  1  0  0  0
 37 36  2  0  0  0
 38 37  1  0  0  0
  3 44  1  0  0  0
 69 44  1  0  0  0
 44 45  1  0  0  0
 70 69  1  0  0  0
 70 71  1  0  0  0
 72 71  1  0  0  0
 72 74  1  0  0  0
 76 74  2  0  0  0
 74 75  1  0  0  0
 45 47  1  0  0  0
 45 46  2  0  0  0
 47 49  1  0  0  0
 50 49  1  0  0  0
 49 62  1  0  0  0
 51 50  2  0  0  0
 50 52  1  0  0  0
 62 63  1  0  0  0
 65 63  2  0  0  0
 63 64  1  0  0  0
 64 66  2  0  0  0
 65 67  1  0  0  0
 68 66  1  0  0  0
 67 68  2  0  0  0
 61 56  2  0  0  0
 55 56  1  0  0  0
 56 57  1  0  0  0
 57 58  2  0  0  0
 59 58  1  0  0  0
 60 59  2  0  0  0
 61 60  1  0  0  0
 55 54  1  0  0  0
 52 54  1  0  0  0
 40 38  2  0  0  0
 39 38  1  0  0  0
 41 39  2  0  0  0
 42 40  1  0  0  0
 43 41  1  0  0  0
 43 42  2  0  0  0
 29 27  2  0  0  0
 27 28  1  0  0  0
 25 24  1  0  0  0
 26 25  1  0  0  0
 28 26  1  0  0  0
  8  9  1  0  0  0
  3  4  1  0  0  0
 72 73  1  0  0  0
 75 77  1  0  0  0
 75 78  1  0  0  0
 76 79  1  0  0  0
 47 48  1  0  0  0
 52 53  1  0  0  0
 28 30  1  0  0  0
M  END
> <minimizedAffinity>
-7.88326

$$$$
3H8B_NSY_A_300


 79 84  0  0  0  0  0  0  0  0999 V2000
   -0.1305   -6.3599    8.3652 C   0  0  0  0  0  0  0  0  0  0  0  0
    1.1279   -6.3472    8.7122 O   0  0  0  0  0  0  0  0  0  0  0  0
   -1.0592   -7.5107    8.5492 N   0  0  0  0  0  0  0  0  0  0  0  0
   -1.9864   -7.4271    8.2289 H   0  0  0  0  0  0  0  0  0  0  0  0
   -0.7990   -5.1695    7.7803 C   0  0  0  0  0  0  0  0  0  0  0  0
    1.3171   -3.7633    7.0388 C   0  0  0  0  0  0  0  0  0  0  0  0
    1.4765   -3.0855    8.0236 O   0  0  0  0  0  0  0  0  0  0  0  0
    0.2410   -4.7694    6.8862 N   0  0  0  0  0  0  0  0  0  0  0  0
    0.2426   -5.2424    6.0228 H   0  0  0  0  0  0  0  0  0  0  0  0
    2.1235   -3.7286    5.9851 C   0  0  0  0  0  0  0  0  0  0  0  0
    3.7906    0.1848    4.3037 C   0  0  0  0  0  0  0  0  0  0  0  0
    4.5237   -0.7552    5.3348 C   0  0  0  0  0  0  0  0  0  0  0  0
    3.9104   -1.9632    5.8074 C   0  0  0  0  0  0  0  0  0  0  0  0
    2.5276   -2.4163    5.3205 C   0  0  0  0  0  0  0  0  0  0  0  0
    1.7071   -1.5292    4.2431 C   0  0  0  0  0  0  0  0  0  0  0  0
    2.3952   -0.2474    3.7841 C   0  0  0  0  0  0  0  0  0  0  0  0
    6.2250    3.9831    3.2093 C   0  0  0  0  0  0  0  0  0  0  0  0
    3.8824    2.5128    2.8894 C   0  0  0  0  0  0  0  0  0  0  0  0
    4.4844    1.4595    3.8665 C   0  0  0  0  0  0  0  0  0  0  0  0
    4.8202    3.7523    2.6087 C   0  0  0  0  0  0  0  0  0  0  0  0
    6.0008    1.7176    4.5256 C   0  0  0  0  0  0  0  0  0  0  0  0
    6.8193    2.9387    4.1840 C   0  0  0  0  0  0  0  0  0  0  0  0
   -2.0172   -5.5362    7.1038 C   0  0  0  0  0  0  0  0  0  0  0  0
   -2.6345   -4.6837    6.0570 C   0  0  0  0  0  0  0  0  0  0  0  0
   -2.2739   -4.4138    4.8759 C   0  0  0  0  0  0  0  0  0  0  0  0
   -1.5730   -5.3579    3.9120 C   0  0  0  0  0  0  0  0  0  0  0  0
    0.4230   -6.0010    2.8093 C   0  0  0  0  0  0  0  0  0  0  0  0
   -0.0282   -5.3231    3.7850 N   0  0  0  0  0  0  0  0  0  0  0  0
   -0.1955   -6.6063    2.0394 O   0  0  0  0  0  0  0  0  0  0  0  0
    0.5504   -4.8217    4.4039 H   0  0  0  0  0  0  0  0  0  0  0  0
    1.8027   -6.1094    2.5603 C   0  0  0  0  0  0  0  0  0  0  0  0
    2.5964   -5.1006    2.4028 C   0  0  0  0  0  0  0  0  0  0  0  0
    3.8906   -4.9312    3.1563 C   0  0  0  0  0  0  0  0  0  0  0  0
    2.2124   -4.0521    1.4350 C   0  0  0  0  0  0  0  0  0  0  0  0
    4.7890   -3.7984    2.9391 C   0  0  0  0  0  0  0  0  0  0  0  0
    3.1250   -2.8698    1.2009 C   0  0  0  0  0  0  0  0  0  0  0  0
    4.4462   -2.7146    1.9608 C   0  0  0  0  0  0  0  0  0  0  0  0
    5.3692   -1.6671    1.7621 C   0  0  0  0  0  0  0  0  0  0  0  0
    5.0697   -0.5248    0.7526 C   0  0  0  0  0  0  0  0  0  0  0  0
    6.7132   -1.5920    2.4983 C   0  0  0  0  0  0  0  0  0  0  0  0
    6.0608    0.5984    0.5435 C   0  0  0  0  0  0  0  0  0  0  0  0
    7.6462   -0.4971    2.2621 C   0  0  0  0  0  0  0  0  0  0  0  0
    7.3146    0.5822    1.2879 C   0  0  0  0  0  0  0  0  0  0  0  0
   -0.6601   -8.7148    9.1649 C   0  0  0  0  0  0  0  0  0  0  0  0
    0.2496   -9.5403    8.3727 C   0  0  0  0  0  0  0  0  0  0  0  0
    0.6503  -10.5866    8.8902 O   0  0  0  0  0  0  0  0  0  0  0  0
    0.5744   -9.1301    7.1387 N   0  0  0  0  0  0  0  0  0  0  0  0
    0.2066   -8.2788    6.8080 H   0  0  0  0  0  0  0  0  0  0  0  0
    1.4553   -9.9035    6.2684 C   0  0  0  0  0  0  0  0  0  0  0  0
    2.4626   -8.8257    5.7029 C   0  0  0  0  0  0  0  0  0  0  0  0
    2.2048   -7.6580    5.7530 O   0  0  0  0  0  0  0  0  0  0  0  0
    3.6782   -9.3969    5.1007 N   0  0  0  0  0  0  0  0  0  0  0  0
    3.8474  -10.3666    5.0838 H   0  0  0  0  0  0  0  0  0  0  0  0
    4.6698   -8.3819    4.4980 C   0  0  0  0  0  0  0  0  0  0  0  0
    5.1382   -8.9175    3.2305 C   0  0  0  0  0  0  0  0  0  0  0  0
    4.7568   -8.3792    1.9880 C   0  0  0  0  0  0  0  0  0  0  0  0
    3.4764   -8.9325    1.1539 C   0  0  0  0  0  0  0  0  0  0  0  0
    3.1901   -8.2421   -0.1957 C   0  0  0  0  0  0  0  0  0  0  0  0
    4.0726   -7.1207   -0.6736 C   0  0  0  0  0  0  0  0  0  0  0  0
    5.2489   -6.6363    0.1355 C   0  0  0  0  0  0  0  0  0  0  0  0
    5.6099   -7.2517    1.4645 C   0  0  0  0  0  0  0  0  0  0  0  0
    0.7669  -10.5584    5.0153 C   0  0  0  0  0  0  0  0  0  0  0  0
    0.8903  -12.1301    5.1397 C   0  0  0  0  0  0  0  0  0  0  0  0
    1.6504  -12.9148    4.0723 C   0  0  0  0  0  0  0  0  0  0  0  0
    0.2261  -12.9127    6.3791 C   0  0  0  0  0  0  0  0  0  0  0  0
    1.7701  -14.4198    4.1870 C   0  0  0  0  0  0  0  0  0  0  0  0
    0.3694  -14.3870    6.4520 C   0  0  0  0  0  0  0  0  0  0  0  0
    1.1158  -15.1476    5.3969 C   0  0  0  0  0  0  0  0  0  0  0  0
   -0.0124   -8.6736   10.7095 C   0  0  0  0  0  0  0  0  0  0  0  0
   -0.7503   -9.0865   12.0646 C   0  0  0  0  0  0  0  0  0  0  0  0
   -2.2498   -8.7257   12.1146 C   0  0  0  0  0  0  0  0  0  0  0  0
   -3.0315   -8.7493   13.3711 N   0  0  0  0  0  0  0  0  0  0  0  0
   -2.8218   -9.4279   14.0529 H   0  0  0  0  0  0  0  0  0  0  0  0
   -4.1195   -7.7810   13.6304 C   0  0  0  0  0  0  0  0  0  0  0  0
   -5.4601   -8.1074   13.5770 N   0  0  0  0  0  0  0  0  0  0  0  0
   -3.8928   -6.4604   13.9547 N   0  0  0  0  0  0  0  0  0  0  0  0
   -5.7345   -9.0262   13.3538 H   0  0  0  0  0  0  0  0  0  0  0  0
   -6.1415   -7.4214   13.7620 H   0  0  0  0  0  0  0  0  0  0  0  0
   -2.9710   -6.1209   14.0202 H   0  0  0  0  0  0  0  0  0  0  0  0
 10  6  1  0  0  0
 14 10  1  0  0  0
  7  6  2  0  0  0
  6  8  1  0  0  0
 11 12  2  0  0  0
 19 11  1  0  0  0
 11 16  1  0  0  0
 12 13  1  0  0  0
 13 14  2  0  0  0
 15 14  1  0  0  0
 16 15  2  0  0  0
 20 17  2  0  0  0
 17 22  1  0  0  0
 20 18  1  0  0  0
 18 19  2  0  0  0
 19 21  1  0  0  0
 22 21  2  0  0  0
  8  5  1  0  0  0
 23  5  1  0  0  0
  5  1  1  0  0  0
  2  1  2  0  0  0
  1  3  1  0  0  0
 24 23  1  0  0  0
 32 31  1  0  0  0
 31 27  1  0  0  0
 34 32  2  0  0  0
 33 32  1  0  0  0
 35 33  2  0  0  0
 36 34  1  0  0  0
 37 35  1  0  0  0
 37 36  2  0  0  0
 38 37  1  0  0  0
  3 44  1  0  0  0
 69 44  1  0  0  0
 44 45  1  0  0  0
 70 69  1  0  0  0
 70 71  1  0  0  0
 72 71  1  0  0  0
 72 74  1  0  0  0
 76 74  2  0  0  0
 74 75  1  0  0  0
 45 47  1  0  0  0
 45 46  2  0  0  0
 47 49  1  0  0  0
 50 49  1  0  0  0
 49 62  1  0  0  0
 51 50  2  0  0  0
 50 52  1  0  0  0
 62 63  1  0  0  0
 65 63  2  0  0  0
 63 64  1  0  0  0
 64 66  2  0  0  0
 65 67  1  0  0  0
 68 66  1  0  0  0
 67 68  2  0  0  0
 61 56  2  0  0  0
 55 56  1  0  0  0
 56 57  1  0  0  0
 57 58  2  0  0  0
 59 58  1  0  0  0
 60 59  2  0  0  0
 61 60  1  0  0  0
 55 54  1  0  0  0
 52 54  1  0  0  0
 40 38  2  0  0  0
 39 38  1  0  0  0
 41 39  2  0  0  0
 42 40  1  0  0  0
 43 41  1  0  0  0
 43 42  2  0  0  0
 29 27  2  0  0  0
 27 28  1  0  0  0
 25 24  1  0  0  0
 26 25  1  0  0  0
 28 26  1  0  0  0
  8  9  1  0  0  0
  3  4  1  0  0  0
 72 73  1  0  0  0
 75 77  1  0  0  0
 75 78  1  0  0  0
 76 79  1  0  0  0
 47 48  1  0  0  0
 52 53  1  0  0  0
 28 30  1  0  0  0
M  END
> <minimizedAffinity>
-7.83487

$$$$
3H8B_NSY_A_300


 79 84  0  0  0  0  0  0  0  0999 V2000
    0.2856   -5.8713    8.5739 C   0  0  0  0  0  0  0  0  0  0  0  0
    1.4571   -6.0840    9.1092 O   0  0  0  0  0  0  0  0  0  0  0  0
   -0.8028   -6.8831    8.4625 N   0  0  0  0  0  0  0  0  0  0  0  0
   -1.6428   -6.6281    8.0168 H   0  0  0  0  0  0  0  0  0  0  0  0
   -0.1124   -4.5389    8.0520 C   0  0  0  0  0  0  0  0  0  0  0  0
    1.3738   -4.7984    5.8774 C   0  0  0  0  0  0  0  0  0  0  0  0
    0.6817   -5.5502    5.2366 O   0  0  0  0  0  0  0  0  0  0  0  0
    1.0272   -4.2938    7.2261 N   0  0  0  0  0  0  0  0  0  0  0  0
    1.6950   -3.6870    7.6199 H   0  0  0  0  0  0  0  0  0  0  0  0
    2.5126   -4.2857    5.4281 C   0  0  0  0  0  0  0  0  0  0  0  0
    3.3104    0.0664    4.2692 C   0  0  0  0  0  0  0  0  0  0  0  0
    4.3069   -0.8704    5.0525 C   0  0  0  0  0  0  0  0  0  0  0  0
    3.9582   -2.2245    5.3743 C   0  0  0  0  0  0  0  0  0  0  0  0
    2.6158   -2.8389    4.9557 C   0  0  0  0  0  0  0  0  0  0  0  0
    1.5365   -1.9622    4.1266 C   0  0  0  0  0  0  0  0  0  0  0  0
    1.9484   -0.5250    3.8232 C   0  0  0  0  0  0  0  0  0  0  0  0
    4.9782    4.3323    3.5127 C   0  0  0  0  0  0  0  0  0  0  0  0
    2.7753    2.6296    3.5128 C   0  0  0  0  0  0  0  0  0  0  0  0
    3.7318    1.4945    3.9853 C   0  0  0  0  0  0  0  0  0  0  0  0
    3.4791    4.0269    3.2962 C   0  0  0  0  0  0  0  0  0  0  0  0
    5.3526    1.8305    4.2313 C   0  0  0  0  0  0  0  0  0  0  0  0
    5.9259    3.2052    3.9875 C   0  0  0  0  0  0  0  0  0  0  0  0
   -1.3441   -4.6177    7.3083 C   0  0  0  0  0  0  0  0  0  0  0  0
   -2.3041   -3.4878    7.2356 C   0  0  0  0  0  0  0  0  0  0  0  0
   -2.6735   -2.7630    6.2682 C   0  0  0  0  0  0  0  0  0  0  0  0
   -3.1046   -3.2494    4.8937 C   0  0  0  0  0  0  0  0  0  0  0  0
   -3.5598   -5.4928    4.2829 C   0  0  0  0  0  0  0  0  0  0  0  0
   -4.0854   -4.4438    4.7710 N   0  0  0  0  0  0  0  0  0  0  0  0
   -2.4595   -5.6262    3.9463 O   0  0  0  0  0  0  0  0  0  0  0  0
   -5.0294   -4.3941    5.0462 H   0  0  0  0  0  0  0  0  0  0  0  0
   -4.3086   -6.6637    4.0693 C   0  0  0  0  0  0  0  0  0  0  0  0
   -4.0592   -7.8012    4.6317 C   0  0  0  0  0  0  0  0  0  0  0  0
   -3.9797   -9.1047    3.8793 C   0  0  0  0  0  0  0  0  0  0  0  0
   -3.8453   -7.8276    6.0935 C   0  0  0  0  0  0  0  0  0  0  0  0
   -3.6645  -10.3752    4.5307 C   0  0  0  0  0  0  0  0  0  0  0  0
   -3.5244   -9.1323    6.7864 C   0  0  0  0  0  0  0  0  0  0  0  0
   -3.4306  -10.4498    6.0102 C   0  0  0  0  0  0  0  0  0  0  0  0
   -3.0897  -11.6947    6.5783 C   0  0  0  0  0  0  0  0  0  0  0  0
   -3.5785  -13.0220    5.9357 C   0  0  0  0  0  0  0  0  0  0  0  0
   -2.2465  -11.8240    7.8535 C   0  0  0  0  0  0  0  0  0  0  0  0
   -3.2092  -14.3556    6.5462 C   0  0  0  0  0  0  0  0  0  0  0  0
   -1.9195  -13.1284    8.4164 C   0  0  0  0  0  0  0  0  0  0  0  0
   -2.4050  -14.3775    7.7624 C   0  0  0  0  0  0  0  0  0  0  0  0
   -0.6749   -8.1919    8.9714 C   0  0  0  0  0  0  0  0  0  0  0  0
    0.1008   -9.1056    8.1347 C   0  0  0  0  0  0  0  0  0  0  0  0
    0.6791  -10.0338    8.7066 O   0  0  0  0  0  0  0  0  0  0  0  0
    0.1211   -8.8985    6.8106 N   0  0  0  0  0  0  0  0  0  0  0  0
   -0.3707   -8.1296    6.4416 H   0  0  0  0  0  0  0  0  0  0  0  0
    0.8481   -9.7752    5.8971 C   0  0  0  0  0  0  0  0  0  0  0  0
    2.0516   -8.8810    5.3992 C   0  0  0  0  0  0  0  0  0  0  0  0
    3.0108   -8.7008    6.0919 O   0  0  0  0  0  0  0  0  0  0  0  0
    1.8505   -8.2911    4.0657 N   0  0  0  0  0  0  0  0  0  0  0  0
    1.0431   -8.4695    3.5313 H   0  0  0  0  0  0  0  0  0  0  0  0
    2.9829   -7.3763    3.5581 C   0  0  0  0  0  0  0  0  0  0  0  0
    2.5047   -6.6979    2.3649 C   0  0  0  0  0  0  0  0  0  0  0  0
    2.9264   -5.4059    2.0020 C   0  0  0  0  0  0  0  0  0  0  0  0
    4.4278   -4.8616    2.3039 C   0  0  0  0  0  0  0  0  0  0  0  0
    4.7361   -3.4198    1.8496 C   0  0  0  0  0  0  0  0  0  0  0  0
    3.6756   -2.5994    1.1663 C   0  0  0  0  0  0  0  0  0  0  0  0
    2.2957   -3.1465    0.9024 C   0  0  0  0  0  0  0  0  0  0  0  0
    1.8998   -4.5427    1.3135 C   0  0  0  0  0  0  0  0  0  0  0  0
    0.0633  -10.2104    4.6057 C   0  0  0  0  0  0  0  0  0  0  0  0
   -0.0283  -11.7890    4.5827 C   0  0  0  0  0  0  0  0  0  0  0  0
   -0.8432  -12.4824    3.4928 C   0  0  0  0  0  0  0  0  0  0  0  0
    0.7289  -12.6741    5.6932 C   0  0  0  0  0  0  0  0  0  0  0  0
   -0.9342  -13.9936    3.4676 C   0  0  0  0  0  0  0  0  0  0  0  0
    0.6134  -14.1512    5.6294 C   0  0  0  0  0  0  0  0  0  0  0  0
   -0.1914  -14.8213    4.5560 C   0  0  0  0  0  0  0  0  0  0  0  0
   -0.1144   -8.4156   10.5343 C   0  0  0  0  0  0  0  0  0  0  0  0
   -0.8718   -9.1711   11.7203 C   0  0  0  0  0  0  0  0  0  0  0  0
   -2.3624   -8.8010   11.8686 C   0  0  0  0  0  0  0  0  0  0  0  0
   -2.8078   -7.4824   12.3718 N   0  0  0  0  0  0  0  0  0  0  0  0
   -3.0270   -6.7725   11.7259 H   0  0  0  0  0  0  0  0  0  0  0  0
   -2.9325   -7.2021   13.8191 C   0  0  0  0  0  0  0  0  0  0  0  0
   -4.0243   -6.5723   14.3829 N   0  0  0  0  0  0  0  0  0  0  0  0
   -1.9680   -7.5496   14.7408 N   0  0  0  0  0  0  0  0  0  0  0  0
   -4.7729   -6.2812   13.8136 H   0  0  0  0  0  0  0  0  0  0  0  0
   -4.0542   -6.4145   15.3542 H   0  0  0  0  0  0  0  0  0  0  0  0
   -1.1463   -8.0045   14.4456 H   0  0  0  0  0  0  0  0  0  0  0  0
 10  6  1  0  0  0
 14 10  1  0  0  0
  7  6  2  0  0  0
  6  8  1  0  0  0
 11 12  2  0  0  0
 19 11  1  0  0  0
 11 16  1  0  0  0
 12 13  1  0  0  0
 13 14  2  0  0  0
 15 14  1  0  0  0
 16 15  2  0  0  0
 20 17  2  0  0  0
 17 22  1  0  0  0
 20 18  1  0  0  0
 18 19  2  0  0  0
 19 21  1  0  0  0
 22 21  2  0  0  0
  8  5  1  0  0  0
 23  5  1  0  0  0
  5  1  1  0  0  0
  2  1  2  0  0  0
  1  3  1  0  0  0
 24 23  1  0  0  0
 32 31  1  0  0  0
 31 27  1  0  0  0
 34 32  2  0  0  0
 33 32  1  0  0  0
 35 33  2  0  0  0
 36 34  1  0  0  0
 37 35  1  0  0  0
 37 36  2  0  0  0
 38 37  1  0  0  0
  3 44  1  0  0  0
 69 44  1  0  0  0
 44 45  1  0  0  0
 70 69  1  0  0  0
 70 71  1  0  0  0
 72 71  1  0  0  0
 72 74  1  0  0  0
 76 74  2  0  0  0
 74 75  1  0  0  0
 45 47  1  0  0  0
 45 46  2  0  0  0
 47 49  1  0  0  0
 50 49  1  0  0  0
 49 62  1  0  0  0
 51 50  2  0  0  0
 50 52  1  0  0  0
 62 63  1  0  0  0
 65 63  2  0  0  0
 63 64  1  0  0  0
 64 66  2  0  0  0
 65 67  1  0  0  0
 68 66  1  0  0  0
 67 68  2  0  0  0
 61 56  2  0  0  0
 55 56  1  0  0  0
 56 57  1  0  0  0
 57 58  2  0  0  0
 59 58  1  0  0  0
 60 59  2  0  0  0
 61 60  1  0  0  0
 55 54  1  0  0  0
 52 54  1  0  0  0
 40 38  2  0  0  0
 39 38  1  0  0  0
 41 39  2  0  0  0
 42 40  1  0  0  0
 43 41  1  0  0  0
 43 42  2  0  0  0
 29 27  2  0  0  0
 27 28  1  0  0  0
 25 24  1  0  0  0
 26 25  1  0  0  0
 28 26  1  0  0  0
  8  9  1  0  0  0
  3  4  1  0  0  0
 72 73  1  0  0  0
 75 77  1  0  0  0
 75 78  1  0  0  0
 76 79  1  0  0  0
 47 48  1  0  0  0
 52 53  1  0  0  0
 28 30  1  0  0  0
M  END
> <minimizedAffinity>
-7.81822

$$$$
3H8B_NSY_A_300


 79 84  0  0  0  0  0  0  0  0999 V2000
   -1.3570   -6.2078    7.0830 C   0  0  0  0  0  0  0  0  0  0  0  0
   -0.2583   -6.8360    6.7633 O   0  0  0  0  0  0  0  0  0  0  0  0
   -2.6382   -6.8634    7.4697 N   0  0  0  0  0  0  0  0  0  0  0  0
   -3.4188   -6.2974    7.6685 H   0  0  0  0  0  0  0  0  0  0  0  0
   -1.4276   -4.7256    7.1465 C   0  0  0  0  0  0  0  0  0  0  0  0
    1.0409   -3.8290    6.8180 C   0  0  0  0  0  0  0  0  0  0  0  0
    1.2879   -3.4722    7.9434 O   0  0  0  0  0  0  0  0  0  0  0  0
   -0.2455   -4.4322    6.3998 N   0  0  0  0  0  0  0  0  0  0  0  0
   -0.2943   -4.6714    5.4460 H   0  0  0  0  0  0  0  0  0  0  0  0
    1.9158   -3.7739    5.8215 C   0  0  0  0  0  0  0  0  0  0  0  0
    3.8625    0.1241    4.4301 C   0  0  0  0  0  0  0  0  0  0  0  0
    4.5293   -0.9462    5.3756 C   0  0  0  0  0  0  0  0  0  0  0  0
    3.8297   -2.1385    5.7600 C   0  0  0  0  0  0  0  0  0  0  0  0
    2.4135   -2.4472    5.2563 C   0  0  0  0  0  0  0  0  0  0  0  0
    1.6554   -1.4193    4.2616 C   0  0  0  0  0  0  0  0  0  0  0  0
    2.4352   -0.1603    3.8956 C   0  0  0  0  0  0  0  0  0  0  0  0
    6.5890    3.7785    3.5561 C   0  0  0  0  0  0  0  0  0  0  0  0
    4.0641    2.6218    3.3580 C   0  0  0  0  0  0  0  0  0  0  0  0
    4.6478    1.3739    4.0851 C   0  0  0  0  0  0  0  0  0  0  0  0
    5.1043    3.7879    3.1280 C   0  0  0  0  0  0  0  0  0  0  0  0
    6.2527    1.3709    4.5591 C   0  0  0  0  0  0  0  0  0  0  0  0
    7.1657    2.5405    4.2833 C   0  0  0  0  0  0  0  0  0  0  0  0
   -2.6290   -4.2341    6.5209 C   0  0  0  0  0  0  0  0  0  0  0  0
   -2.7229   -2.8727    5.9367 C   0  0  0  0  0  0  0  0  0  0  0  0
   -2.5983   -2.4604    4.7483 C   0  0  0  0  0  0  0  0  0  0  0  0
   -2.3003   -3.3152    3.5267 C   0  0  0  0  0  0  0  0  0  0  0  0
   -0.6986   -4.1639    2.0011 C   0  0  0  0  0  0  0  0  0  0  0  0
   -0.8311   -3.6348    3.1490 N   0  0  0  0  0  0  0  0  0  0  0  0
   -1.5434   -4.4074    1.2470 O   0  0  0  0  0  0  0  0  0  0  0  0
   -0.0701   -3.4453    3.7441 H   0  0  0  0  0  0  0  0  0  0  0  0
    0.5597   -4.5500    1.5062 C   0  0  0  0  0  0  0  0  0  0  0  0
    1.5780   -3.7590    1.4072 C   0  0  0  0  0  0  0  0  0  0  0  0
    1.5458   -2.4454    0.6689 C   0  0  0  0  0  0  0  0  0  0  0  0
    2.8457   -4.1661    2.0478 C   0  0  0  0  0  0  0  0  0  0  0  0
    2.7002   -1.5510    0.5967 C   0  0  0  0  0  0  0  0  0  0  0  0
    4.0524   -3.2580    1.9789 C   0  0  0  0  0  0  0  0  0  0  0  0
    4.0050   -1.9173    1.2391 C   0  0  0  0  0  0  0  0  0  0  0  0
    5.0723   -0.9980    1.1726 C   0  0  0  0  0  0  0  0  0  0  0  0
    4.8967    0.3737    0.4646 C   0  0  0  0  0  0  0  0  0  0  0  0
    6.4577   -1.2877    1.7649 C   0  0  0  0  0  0  0  0  0  0  0  0
    6.0428    1.3583    0.3969 C   0  0  0  0  0  0  0  0  0  0  0  0
    7.5400   -0.3158    1.6709 C   0  0  0  0  0  0  0  0  0  0  0  0
    7.3249    0.9920    0.9872 C   0  0  0  0  0  0  0  0  0  0  0  0
   -2.7745   -8.2638    7.5617 C   0  0  0  0  0  0  0  0  0  0  0  0
   -2.6225   -8.8108    8.9086 C   0  0  0  0  0  0  0  0  0  0  0  0
   -1.4731   -8.9060    9.3478 O   0  0  0  0  0  0  0  0  0  0  0  0
   -3.7262   -9.1524    9.5882 N   0  0  0  0  0  0  0  0  0  0  0  0
   -4.6041   -9.0421    9.1564 H   0  0  0  0  0  0  0  0  0  0  0  0
   -3.6701   -9.6824   10.9474 C   0  0  0  0  0  0  0  0  0  0  0  0
   -3.7684  -11.2459   10.7434 C   0  0  0  0  0  0  0  0  0  0  0  0
   -3.3548  -11.7626    9.7462 O   0  0  0  0  0  0  0  0  0  0  0  0
   -4.4308  -11.9559   11.8497 N   0  0  0  0  0  0  0  0  0  0  0  0
   -4.7544  -11.4870   12.6526 H   0  0  0  0  0  0  0  0  0  0  0  0
   -4.5860  -13.4795   11.6727 C   0  0  0  0  0  0  0  0  0  0  0  0
   -3.6934  -14.1297   12.6178 C   0  0  0  0  0  0  0  0  0  0  0  0
   -2.8747  -15.2187   12.2676 C   0  0  0  0  0  0  0  0  0  0  0  0
   -2.8723  -16.6124   13.1037 C   0  0  0  0  0  0  0  0  0  0  0  0
   -1.9145  -17.7109   12.5979 C   0  0  0  0  0  0  0  0  0  0  0  0
   -1.0498  -17.4633   11.3914 C   0  0  0  0  0  0  0  0  0  0  0  0
   -1.0873  -16.1552   10.6428 C   0  0  0  0  0  0  0  0  0  0  0  0
   -1.9880  -15.0210   11.0643 C   0  0  0  0  0  0  0  0  0  0  0  0
   -4.8728   -9.2868   11.8802 C   0  0  0  0  0  0  0  0  0  0  0  0
   -4.2991   -8.5283   13.1437 C   0  0  0  0  0  0  0  0  0  0  0  0
   -5.1677   -8.3735   14.3904 C   0  0  0  0  0  0  0  0  0  0  0  0
   -2.8095   -7.9193   13.1325 C   0  0  0  0  0  0  0  0  0  0  0  0
   -4.6226   -7.6473   15.6020 C   0  0  0  0  0  0  0  0  0  0  0  0
   -2.3162   -7.2170   14.3418 C   0  0  0  0  0  0  0  0  0  0  0  0
   -3.1787   -7.0687   15.5596 C   0  0  0  0  0  0  0  0  0  0  0  0
   -4.1344   -9.0018    6.9191 C   0  0  0  0  0  0  0  0  0  0  0  0
   -5.0981   -8.4096    5.7914 C   0  0  0  0  0  0  0  0  0  0  0  0
   -6.6034   -8.6165    6.0599 C   0  0  0  0  0  0  0  0  0  0  0  0
   -7.6165   -7.5853    5.7428 N   0  0  0  0  0  0  0  0  0  0  0  0
   -7.4460   -6.9579    5.0035 H   0  0  0  0  0  0  0  0  0  0  0  0
   -8.8786   -7.4717    6.5064 C   0  0  0  0  0  0  0  0  0  0  0  0
   -9.6643   -6.3364    6.5169 N   0  0  0  0  0  0  0  0  0  0  0  0
   -9.3891   -8.4948    7.2765 N   0  0  0  0  0  0  0  0  0  0  0  0
   -9.3920   -5.5445    5.9993 H   0  0  0  0  0  0  0  0  0  0  0  0
  -10.4969   -6.3189    7.0419 H   0  0  0  0  0  0  0  0  0  0  0  0
   -8.9073   -9.3511    7.3395 H   0  0  0  0  0  0  0  0  0  0  0  0
 10  6  1  0  0  0
 14 10  1  0  0  0
  7  6  2  0  0  0
  6  8  1  0  0  0
 11 12  2  0  0  0
 19 11  1  0  0  0
 11 16  1  0  0  0
 12 13  1  0  0  0
 13 14  2  0  0  0
 15 14  1  0  0  0
 16 15  2  0  0  0
 20 17  2  0  0  0
 17 22  1  0  0  0
 20 18  1  0  0  0
 18 19  2  0  0  0
 19 21  1  0  0  0
 22 21  2  0  0  0
  8  5  1  0  0  0
 23  5  1  0  0  0
  5  1  1  0  0  0
  2  1  2  0  0  0
  1  3  1  0  0  0
 24 23  1  0  0  0
 32 31  1  0  0  0
 31 27  1  0  0  0
 34 32  2  0  0  0
 33 32  1  0  0  0
 35 33  2  0  0  0
 36 34  1  0  0  0
 37 35  1  0  0  0
 37 36  2  0  0  0
 38 37  1  0  0  0
  3 44  1  0  0  0
 69 44  1  0  0  0
 44 45  1  0  0  0
 70 69  1  0  0  0
 70 71  1  0  0  0
 72 71  1  0  0  0
 72 74  1  0  0  0
 76 74  2  0  0  0
 74 75  1  0  0  0
 45 47  1  0  0  0
 45 46  2  0  0  0
 47 49  1  0  0  0
 50 49  1  0  0  0
 49 62  1  0  0  0
 51 50  2  0  0  0
 50 52  1  0  0  0
 62 63  1  0  0  0
 65 63  2  0  0  0
 63 64  1  0  0  0
 64 66  2  0  0  0
 65 67  1  0  0  0
 68 66  1  0  0  0
 67 68  2  0  0  0
 61 56  2  0  0  0
 55 56  1  0  0  0
 56 57  1  0  0  0
 57 58  2  0  0  0
 59 58  1  0  0  0
 60 59  2  0  0  0
 61 60  1  0  0  0
 55 54  1  0  0  0
 52 54  1  0  0  0
 40 38  2  0  0  0
 39 38  1  0  0  0
 41 39  2  0  0  0
 42 40  1  0  0  0
 43 41  1  0  0  0
 43 42  2  0  0  0
 29 27  2  0  0  0
 27 28  1  0  0  0
 25 24  1  0  0  0
 26 25  1  0  0  0
 28 26  1  0  0  0
  8  9  1  0  0  0
  3  4  1  0  0  0
 72 73  1  0  0  0
 75 77  1  0  0  0
 75 78  1  0  0  0
 76 79  1  0  0  0
 47 48  1  0  0  0
 52 53  1  0  0  0
 28 30  1  0  0  0
M  END
> <minimizedAffinity>
-7.79682

$$$$
3H8B_NSY_A_300


 79 84  0  0  0  0  0  0  0  0999 V2000
   -1.6794   -5.7203    6.7169 C   0  0  0  0  0  0  0  0  0  0  0  0
   -0.8226   -6.4053    6.0092 O   0  0  0  0  0  0  0  0  0  0  0  0
   -2.9917   -6.2311    7.2045 N   0  0  0  0  0  0  0  0  0  0  0  0
   -3.5779   -5.6236    7.7109 H   0  0  0  0  0  0  0  0  0  0  0  0
   -1.3993   -4.3329    7.1671 C   0  0  0  0  0  0  0  0  0  0  0  0
    1.1214   -3.6634    6.7169 C   0  0  0  0  0  0  0  0  0  0  0  0
    1.4915   -3.4606    7.8468 O   0  0  0  0  0  0  0  0  0  0  0  0
   -0.2522   -4.0814    6.3536 N   0  0  0  0  0  0  0  0  0  0  0  0
   -0.3997   -4.2071    5.3883 H   0  0  0  0  0  0  0  0  0  0  0  0
    1.9187   -3.5882    5.6584 C   0  0  0  0  0  0  0  0  0  0  0  0
    4.0434    0.2861    4.4771 C   0  0  0  0  0  0  0  0  0  0  0  0
    4.6500   -0.8515    5.3837 C   0  0  0  0  0  0  0  0  0  0  0  0
    3.8968   -2.0305    5.7023 C   0  0  0  0  0  0  0  0  0  0  0  0
    2.4787   -2.2588    5.1622 C   0  0  0  0  0  0  0  0  0  0  0  0
    1.7801   -1.1576    4.2030 C   0  0  0  0  0  0  0  0  0  0  0  0
    2.6158    0.0839    3.9072 C   0  0  0  0  0  0  0  0  0  0  0  0
    6.2881    4.2193    3.4555 C   0  0  0  0  0  0  0  0  0  0  0  0
    6.3881    1.6722    4.5756 C   0  0  0  0  0  0  0  0  0  0  0  0
    4.8838    1.5173    4.2020 C   0  0  0  0  0  0  0  0  0  0  0  0
    7.0213    3.0605    4.1677 C   0  0  0  0  0  0  0  0  0  0  0  0
    4.0950    2.7685    3.4194 C   0  0  0  0  0  0  0  0  0  0  0  0
    4.7954    4.0616    3.0800 C   0  0  0  0  0  0  0  0  0  0  0  0
   -2.5049   -3.4568    6.8732 C   0  0  0  0  0  0  0  0  0  0  0  0
   -2.6253   -2.7317    5.5835 C   0  0  0  0  0  0  0  0  0  0  0  0
   -2.9392   -3.1286    4.4252 C   0  0  0  0  0  0  0  0  0  0  0  0
   -2.2262   -2.7747    3.1297 C   0  0  0  0  0  0  0  0  0  0  0  0
   -0.4822   -3.5884    1.7479 C   0  0  0  0  0  0  0  0  0  0  0  0
   -0.7466   -3.1902    2.9254 N   0  0  0  0  0  0  0  0  0  0  0  0
   -1.2179   -3.6553    0.8558 O   0  0  0  0  0  0  0  0  0  0  0  0
   -0.0733   -3.1493    3.6425 H   0  0  0  0  0  0  0  0  0  0  0  0
    0.8023   -4.0348    1.3900 C   0  0  0  0  0  0  0  0  0  0  0  0
    1.8445   -3.2726    1.3157 C   0  0  0  0  0  0  0  0  0  0  0  0
    1.8626   -1.9520    0.5896 C   0  0  0  0  0  0  0  0  0  0  0  0
    3.0888   -3.7220    1.9736 C   0  0  0  0  0  0  0  0  0  0  0  0
    3.0432   -1.0907    0.5455 C   0  0  0  0  0  0  0  0  0  0  0  0
    4.3220   -2.8485    1.9338 C   0  0  0  0  0  0  0  0  0  0  0  0
    4.3257   -1.5003    1.2062 C   0  0  0  0  0  0  0  0  0  0  0  0
    5.4200   -0.6115    1.1665 C   0  0  0  0  0  0  0  0  0  0  0  0
    6.7893   -1.0089    1.7836 C   0  0  0  0  0  0  0  0  0  0  0  0
    5.3333    0.7871    0.5418 C   0  0  0  0  0  0  0  0  0  0  0  0
    7.9616   -0.0544    1.7374 C   0  0  0  0  0  0  0  0  0  0  0  0
    6.4840    1.6819    0.5252 C   0  0  0  0  0  0  0  0  0  0  0  0
    7.7817    1.2564    1.1241 C   0  0  0  0  0  0  0  0  0  0  0  0
   -3.4252   -7.5519    6.9680 C   0  0  0  0  0  0  0  0  0  0  0  0
   -3.9599   -7.7948    5.6295 C   0  0  0  0  0  0  0  0  0  0  0  0
   -4.7255   -8.7539    5.4981 O   0  0  0  0  0  0  0  0  0  0  0  0
   -3.6103   -6.9607    4.6403 N   0  0  0  0  0  0  0  0  0  0  0  0
   -2.9916   -6.2209    4.8381 H   0  0  0  0  0  0  0  0  0  0  0  0
   -4.1162   -7.1126    3.2792 C   0  0  0  0  0  0  0  0  0  0  0  0
   -2.8262   -7.4643    2.4378 C   0  0  0  0  0  0  0  0  0  0  0  0
   -2.9135   -8.0316    1.3875 O   0  0  0  0  0  0  0  0  0  0  0  0
   -1.5628   -7.0687    3.0811 N   0  0  0  0  0  0  0  0  0  0  0  0
   -1.5409   -6.6017    3.9476 H   0  0  0  0  0  0  0  0  0  0  0  0
   -0.2758   -7.4311    2.3135 C   0  0  0  0  0  0  0  0  0  0  0  0
    0.8460   -7.2614    3.2221 C   0  0  0  0  0  0  0  0  0  0  0  0
    2.1778   -7.1665    2.7793 C   0  0  0  0  0  0  0  0  0  0  0  0
    2.5884   -7.3081    1.2131 C   0  0  0  0  0  0  0  0  0  0  0  0
    4.0913   -7.1860    0.8871 C   0  0  0  0  0  0  0  0  0  0  0  0
    5.0872   -6.9470    1.9897 C   0  0  0  0  0  0  0  0  0  0  0  0
    4.6611   -6.8179    3.4301 C   0  0  0  0  0  0  0  0  0  0  0  0
    3.2154   -6.9270    3.8466 C   0  0  0  0  0  0  0  0  0  0  0  0
   -4.7203   -5.8134    2.6310 C   0  0  0  0  0  0  0  0  0  0  0  0
   -6.2917   -5.9744    2.5561 C   0  0  0  0  0  0  0  0  0  0  0  0
   -7.0321   -5.5733    1.2819 C   0  0  0  0  0  0  0  0  0  0  0  0
   -7.1202   -6.5580    3.8063 C   0  0  0  0  0  0  0  0  0  0  0  0
   -8.5367   -5.7250    1.2064 C   0  0  0  0  0  0  0  0  0  0  0  0
   -8.5925   -6.6906    3.6878 C   0  0  0  0  0  0  0  0  0  0  0  0
   -9.3094   -6.2914    2.4326 C   0  0  0  0  0  0  0  0  0  0  0  0
   -2.3863   -8.8277    7.2841 C   0  0  0  0  0  0  0  0  0  0  0  0
   -1.5426   -9.0624    8.6198 C   0  0  0  0  0  0  0  0  0  0  0  0
   -0.0163   -8.9128    8.4496 C   0  0  0  0  0  0  0  0  0  0  0  0
    0.6220   -8.7319    7.1267 N   0  0  0  0  0  0  0  0  0  0  0  0
    0.6696   -7.8289    6.7374 H   0  0  0  0  0  0  0  0  0  0  0  0
    1.1907   -9.8712    6.3734 C   0  0  0  0  0  0  0  0  0  0  0  0
    2.2409  -10.6411    6.8324 N   0  0  0  0  0  0  0  0  0  0  0  0
    0.7188  -10.2720    5.1416 N   0  0  0  0  0  0  0  0  0  0  0  0
    2.6540  -10.4412    7.7034 H   0  0  0  0  0  0  0  0  0  0  0  0
    2.5767  -11.3900    6.2886 H   0  0  0  0  0  0  0  0  0  0  0  0
   -0.0301   -9.7908    4.7211 H   0  0  0  0  0  0  0  0  0  0  0  0
 10  6  1  0  0  0
 14 10  1  0  0  0
  7  6  2  0  0  0
  6  8  1  0  0  0
 11 12  2  0  0  0
 19 11  1  0  0  0
 11 16  1  0  0  0
 12 13  1  0  0  0
 13 14  2  0  0  0
 15 14  1  0  0  0
 16 15  2  0  0  0
 20 17  2  0  0  0
 17 22  1  0  0  0
 20 18  1  0  0  0
 18 19  2  0  0  0
 19 21  1  0  0  0
 22 21  2  0  0  0
  8  5  1  0  0  0
 23  5  1  0  0  0
  5  1  1  0  0  0
  2  1  2  0  0  0
  1  3  1  0  0  0
 24 23  1  0  0  0
 32 31  1  0  0  0
 31 27  1  0  0  0
 34 32  2  0  0  0
 33 32  1  0  0  0
 35 33  2  0  0  0
 36 34  1  0  0  0
 37 35  1  0  0  0
 37 36  2  0  0  0
 38 37  1  0  0  0
  3 44  1  0  0  0
 69 44  1  0  0  0
 44 45  1  0  0  0
 70 69  1  0  0  0
 70 71  1  0  0  0
 72 71  1  0  0  0
 72 74  1  0  0  0
 76 74  2  0  0  0
 74 75  1  0  0  0
 45 47  1  0  0  0
 45 46  2  0  0  0
 47 49  1  0  0  0
 50 49  1  0  0  0
 49 62  1  0  0  0
 51 50  2  0  0  0
 50 52  1  0  0  0
 62 63  1  0  0  0
 65 63  2  0  0  0
 63 64  1  0  0  0
 64 66  2  0  0  0
 65 67  1  0  0  0
 68 66  1  0  0  0
 67 68  2  0  0  0
 61 56  2  0  0  0
 55 56  1  0  0  0
 56 57  1  0  0  0
 57 58  2  0  0  0
 59 58  1  0  0  0
 60 59  2  0  0  0
 61 60  1  0  0  0
 55 54  1  0  0  0
 52 54  1  0  0  0
 40 38  2  0  0  0
 39 38  1  0  0  0
 41 39  2  0  0  0
 42 40  1  0  0  0
 43 41  1  0  0  0
 43 42  2  0  0  0
 29 27  2  0  0  0
 27 28  1  0  0  0
 25 24  1  0  0  0
 26 25  1  0  0  0
 28 26  1  0  0  0
  8  9  1  0  0  0
  3  4  1  0  0  0
 72 73  1  0  0  0
 75 77  1  0  0  0
 75 78  1  0  0  0
 76 79  1  0  0  0
 47 48  1  0  0  0
 52 53  1  0  0  0
 28 30  1  0  0  0
M  END
> <minimizedAffinity>
-7.77457

$$$$
3H8B_NSY_A_300


 79 84  0  0  0  0  0  0  0  0999 V2000
   -1.6684   -5.8471    6.7850 C   0  0  0  0  0  0  0  0  0  0  0  0
   -0.8316   -6.5220    6.0446 O   0  0  0  0  0  0  0  0  0  0  0  0
   -2.9928   -6.3445    7.2535 N   0  0  0  0  0  0  0  0  0  0  0  0
   -3.5617   -5.7450    7.7885 H   0  0  0  0  0  0  0  0  0  0  0  0
   -1.3506   -4.4893    7.2962 C   0  0  0  0  0  0  0  0  0  0  0  0
    1.1388   -3.7130    6.8432 C   0  0  0  0  0  0  0  0  0  0  0  0
    1.4748   -3.4159    7.9628 O   0  0  0  0  0  0  0  0  0  0  0  0
   -0.2028   -4.2292    6.4864 N   0  0  0  0  0  0  0  0  0  0  0  0
   -0.3240   -4.4264    5.5295 H   0  0  0  0  0  0  0  0  0  0  0  0
    1.9517   -3.6640    5.7952 C   0  0  0  0  0  0  0  0  0  0  0  0
    3.9817    0.1999    4.4280 C   0  0  0  0  0  0  0  0  0  0  0  0
    4.6344   -0.9024    5.3462 C   0  0  0  0  0  0  0  0  0  0  0  0
    3.9087   -2.0808    5.7250 C   0  0  0  0  0  0  0  0  0  0  0  0
    2.4763   -2.3431    5.2411 C   0  0  0  0  0  0  0  0  0  0  0  0
    1.7303   -1.2799    4.2747 C   0  0  0  0  0  0  0  0  0  0  0  0
    2.5384   -0.0373    3.9139 C   0  0  0  0  0  0  0  0  0  0  0  0
    6.7939    3.7897    3.5578 C   0  0  0  0  0  0  0  0  0  0  0  0
    4.2317    2.7117    3.4000 C   0  0  0  0  0  0  0  0  0  0  0  0
    4.7953    1.4328    4.0880 C   0  0  0  0  0  0  0  0  0  0  0  0
    5.3003    3.8512    3.1669 C   0  0  0  0  0  0  0  0  0  0  0  0
    6.4104    1.3732    4.5218 C   0  0  0  0  0  0  0  0  0  0  0  0
    7.3510    2.5209    4.2462 C   0  0  0  0  0  0  0  0  0  0  0  0
   -2.4357   -3.5734    7.0510 C   0  0  0  0  0  0  0  0  0  0  0  0
   -2.5650   -2.8132    5.7825 C   0  0  0  0  0  0  0  0  0  0  0  0
   -2.9078   -3.1740    4.6206 C   0  0  0  0  0  0  0  0  0  0  0  0
   -2.2524   -2.7472    3.3167 C   0  0  0  0  0  0  0  0  0  0  0  0
   -0.6166   -3.5477    1.8012 C   0  0  0  0  0  0  0  0  0  0  0  0
   -0.7979   -3.1844    3.0055 N   0  0  0  0  0  0  0  0  0  0  0  0
   -1.4082   -3.5700    0.9560 O   0  0  0  0  0  0  0  0  0  0  0  0
   -0.0802   -3.1808    3.6793 H   0  0  0  0  0  0  0  0  0  0  0  0
    0.6330   -4.0066    1.3481 C   0  0  0  0  0  0  0  0  0  0  0  0
    1.6926   -3.2702    1.2623 C   0  0  0  0  0  0  0  0  0  0  0  0
    1.7329   -1.9464    0.5429 C   0  0  0  0  0  0  0  0  0  0  0  0
    2.9349   -3.7540    1.8992 C   0  0  0  0  0  0  0  0  0  0  0  0
    2.9339   -1.1145    0.4855 C   0  0  0  0  0  0  0  0  0  0  0  0
    4.1888   -2.9113    1.8455 C   0  0  0  0  0  0  0  0  0  0  0  0
    4.2155   -1.5596    1.1249 C   0  0  0  0  0  0  0  0  0  0  0  0
    5.3309   -0.6982    1.0735 C   0  0  0  0  0  0  0  0  0  0  0  0
    5.2159    0.7136    0.4351 C   0  0  0  0  0  0  0  0  0  0  0  0
    6.7113   -1.0917    1.6151 C   0  0  0  0  0  0  0  0  0  0  0  0
    6.4135    1.6359    0.3836 C   0  0  0  0  0  0  0  0  0  0  0  0
    7.8440   -0.1772    1.5383 C   0  0  0  0  0  0  0  0  0  0  0  0
    7.6866    1.1717    0.9224 C   0  0  0  0  0  0  0  0  0  0  0  0
   -3.4617   -7.6413    6.9594 C   0  0  0  0  0  0  0  0  0  0  0  0
   -4.0180   -7.8062    5.6178 C   0  0  0  0  0  0  0  0  0  0  0  0
   -4.8151   -8.7338    5.4524 O   0  0  0  0  0  0  0  0  0  0  0  0
   -3.6524   -6.9392    4.6631 N   0  0  0  0  0  0  0  0  0  0  0  0
   -3.0085   -6.2289    4.8868 H   0  0  0  0  0  0  0  0  0  0  0  0
   -4.1773   -7.0130    3.3028 C   0  0  0  0  0  0  0  0  0  0  0  0
   -2.8912   -7.2579    2.4186 C   0  0  0  0  0  0  0  0  0  0  0  0
   -2.9875   -7.5936    1.2737 O   0  0  0  0  0  0  0  0  0  0  0  0
   -1.6216   -7.0732    3.1402 N   0  0  0  0  0  0  0  0  0  0  0  0
   -1.5923   -6.7945    4.0840 H   0  0  0  0  0  0  0  0  0  0  0  0
   -0.3407   -7.3434    2.3259 C   0  0  0  0  0  0  0  0  0  0  0  0
    0.7880   -7.2797    3.2395 C   0  0  0  0  0  0  0  0  0  0  0  0
    2.1190   -7.1629    2.7995 C   0  0  0  0  0  0  0  0  0  0  0  0
    2.5470   -7.3833    1.2472 C   0  0  0  0  0  0  0  0  0  0  0  0
    4.0471   -7.2260    0.9231 C   0  0  0  0  0  0  0  0  0  0  0  0
    5.0248   -6.8847    2.0150 C   0  0  0  0  0  0  0  0  0  0  0  0
    4.5827   -6.6848    3.4425 C   0  0  0  0  0  0  0  0  0  0  0  0
    3.1387   -6.8216    3.8564 C   0  0  0  0  0  0  0  0  0  0  0  0
   -4.8378   -5.6941    2.7579 C   0  0  0  0  0  0  0  0  0  0  0  0
   -6.3914   -5.9413    2.5954 C   0  0  0  0  0  0  0  0  0  0  0  0
   -7.1684   -6.6265    3.7177 C   0  0  0  0  0  0  0  0  0  0  0  0
   -7.1640   -5.4773    1.2622 C   0  0  0  0  0  0  0  0  0  0  0  0
   -8.6558   -6.8659    3.5658 C   0  0  0  0  0  0  0  0  0  0  0  0
   -8.6214   -5.7307    1.1568 C   0  0  0  0  0  0  0  0  0  0  0  0
   -9.3739   -6.4065    2.2640 C   0  0  0  0  0  0  0  0  0  0  0  0
   -2.4512   -8.9557    7.2003 C   0  0  0  0  0  0  0  0  0  0  0  0
   -2.5320  -10.0152    8.3928 C   0  0  0  0  0  0  0  0  0  0  0  0
   -2.8495   -9.4043    9.7737 C   0  0  0  0  0  0  0  0  0  0  0  0
   -2.0971   -9.7672   10.9954 N   0  0  0  0  0  0  0  0  0  0  0  0
   -1.7061  -10.6679   11.0672 H   0  0  0  0  0  0  0  0  0  0  0  0
   -1.9166   -8.8134   12.1118 C   0  0  0  0  0  0  0  0  0  0  0  0
   -0.8918   -8.9020   13.0329 N   0  0  0  0  0  0  0  0  0  0  0  0
   -2.7562   -7.7423   12.3322 N   0  0  0  0  0  0  0  0  0  0  0  0
   -0.2335   -9.6312   12.9681 H   0  0  0  0  0  0  0  0  0  0  0  0
   -0.8195   -8.2361   13.7543 H   0  0  0  0  0  0  0  0  0  0  0  0
   -3.5215   -7.5853   11.7331 H   0  0  0  0  0  0  0  0  0  0  0  0
 10  6  1  0  0  0
 14 10  1  0  0  0
  7  6  2  0  0  0
  6  8  1  0  0  0
 11 12  2  0  0  0
 19 11  1  0  0  0
 11 16  1  0  0  0
 12 13  1  0  0  0
 13 14  2  0  0  0
 15 14  1  0  0  0
 16 15  2  0  0  0
 20 17  2  0  0  0
 17 22  1  0  0  0
 20 18  1  0  0  0
 18 19  2  0  0  0
 19 21  1  0  0  0
 22 21  2  0  0  0
  8  5  1  0  0  0
 23  5  1  0  0  0
  5  1  1  0  0  0
  2  1  2  0  0  0
  1  3  1  0  0  0
 24 23  1  0  0  0
 32 31  1  0  0  0
 31 27  1  0  0  0
 34 32  2  0  0  0
 33 32  1  0  0  0
 35 33  2  0  0  0
 36 34  1  0  0  0
 37 35  1  0  0  0
 37 36  2  0  0  0
 38 37  1  0  0  0
  3 44  1  0  0  0
 69 44  1  0  0  0
 44 45  1  0  0  0
 70 69  1  0  0  0
 70 71  1  0  0  0
 72 71  1  0  0  0
 72 74  1  0  0  0
 76 74  2  0  0  0
 74 75  1  0  0  0
 45 47  1  0  0  0
 45 46  2  0  0  0
 47 49  1  0  0  0
 50 49  1  0  0  0
 49 62  1  0  0  0
 51 50  2  0  0  0
 50 52  1  0  0  0
 62 63  1  0  0  0
 65 63  2  0  0  0
 63 64  1  0  0  0
 64 66  2  0  0  0
 65 67  1  0  0  0
 68 66  1  0  0  0
 67 68  2  0  0  0
 61 56  2  0  0  0
 55 56  1  0  0  0
 56 57  1  0  0  0
 57 58  2  0  0  0
 59 58  1  0  0  0
 60 59  2  0  0  0
 61 60  1  0  0  0
 55 54  1  0  0  0
 52 54  1  0  0  0
 40 38  2  0  0  0
 39 38  1  0  0  0
 41 39  2  0  0  0
 42 40  1  0  0  0
 43 41  1  0  0  0
 43 42  2  0  0  0
 29 27  2  0  0  0
 27 28  1  0  0  0
 25 24  1  0  0  0
 26 25  1  0  0  0
 28 26  1  0  0  0
  8  9  1  0  0  0
  3  4  1  0  0  0
 72 73  1  0  0  0
 75 77  1  0  0  0
 75 78  1  0  0  0
 76 79  1  0  0  0
 47 48  1  0  0  0
 52 53  1  0  0  0
 28 30  1  0  0  0
M  END
> <minimizedAffinity>
-7.67729

$$$$
3H8B_NSY_A_300


 79 84  0  0  0  0  0  0  0  0999 V2000
   -0.3240   -7.6451    8.3044 C   0  0  0  0  0  0  0  0  0  0  0  0
    0.3735   -8.5676    7.6990 O   0  0  0  0  0  0  0  0  0  0  0  0
   -1.2165   -7.8749    9.4754 N   0  0  0  0  0  0  0  0  0  0  0  0
   -1.7202   -7.1134    9.8437 H   0  0  0  0  0  0  0  0  0  0  0  0
   -0.2547   -6.2159    7.9060 C   0  0  0  0  0  0  0  0  0  0  0  0
    1.7969   -6.1372    6.2357 C   0  0  0  0  0  0  0  0  0  0  0  0
    2.6550   -5.7208    6.9740 O   0  0  0  0  0  0  0  0  0  0  0  0
    0.3955   -6.3861    6.6453 N   0  0  0  0  0  0  0  0  0  0  0  0
   -0.1862   -6.7264    5.9277 H   0  0  0  0  0  0  0  0  0  0  0  0
    2.0170   -6.4762    4.9715 C   0  0  0  0  0  0  0  0  0  0  0  0
    4.3984   -4.1778    1.8144 C   0  0  0  0  0  0  0  0  0  0  0  0
    3.1134   -5.0478    1.5388 C   0  0  0  0  0  0  0  0  0  0  0  0
    2.4395   -5.7375    2.6014 C   0  0  0  0  0  0  0  0  0  0  0  0
    2.9145   -5.6474    4.0578 C   0  0  0  0  0  0  0  0  0  0  0  0
    4.2113   -4.7583    4.4432 C   0  0  0  0  0  0  0  0  0  0  0  0
    4.9007   -4.0580    3.2763 C   0  0  0  0  0  0  0  0  0  0  0  0
    6.5272   -1.7691   -1.5350 C   0  0  0  0  0  0  0  0  0  0  0  0
    5.2542   -4.1251   -0.7727 C   0  0  0  0  0  0  0  0  0  0  0  0
    5.0766   -3.4975    0.6419 C   0  0  0  0  0  0  0  0  0  0  0  0
    5.9946   -3.1931   -1.8109 C   0  0  0  0  0  0  0  0  0  0  0  0
    5.6429   -1.9503    0.9351 C   0  0  0  0  0  0  0  0  0  0  0  0
    6.3450   -1.1450   -0.1309 C   0  0  0  0  0  0  0  0  0  0  0  0
   -1.5718   -5.6429    7.7909 C   0  0  0  0  0  0  0  0  0  0  0  0
   -1.7949   -4.1828    7.6438 C   0  0  0  0  0  0  0  0  0  0  0  0
   -2.7166   -3.5288    7.0776 C   0  0  0  0  0  0  0  0  0  0  0  0
   -3.1154   -3.6209    5.6133 C   0  0  0  0  0  0  0  0  0  0  0  0
   -1.3712   -3.8769    4.0304 C   0  0  0  0  0  0  0  0  0  0  0  0
   -2.1843   -3.0330    4.5220 N   0  0  0  0  0  0  0  0  0  0  0  0
   -1.2787   -4.9969    4.3109 O   0  0  0  0  0  0  0  0  0  0  0  0
   -2.2197   -2.0916    4.2359 H   0  0  0  0  0  0  0  0  0  0  0  0
   -0.4300   -3.5124    3.0513 C   0  0  0  0  0  0  0  0  0  0  0  0
    0.6044   -2.7694    3.2755 C   0  0  0  0  0  0  0  0  0  0  0  0
    1.2787   -1.9359    2.2162 C   0  0  0  0  0  0  0  0  0  0  0  0
    1.1611   -2.7388    4.6438 C   0  0  0  0  0  0  0  0  0  0  0  0
    2.4282   -1.0777    2.4989 C   0  0  0  0  0  0  0  0  0  0  0  0
    2.3531   -1.8625    4.9548 C   0  0  0  0  0  0  0  0  0  0  0  0
    3.0220   -1.0068    3.8743 C   0  0  0  0  0  0  0  0  0  0  0  0
    4.1044   -0.1311    4.0985 C   0  0  0  0  0  0  0  0  0  0  0  0
    3.9090    1.4085    4.0267 C   0  0  0  0  0  0  0  0  0  0  0  0
    5.5245   -0.6250    4.4041 C   0  0  0  0  0  0  0  0  0  0  0  0
    5.0714    2.3451    4.2700 C   0  0  0  0  0  0  0  0  0  0  0  0
    6.6210    0.3101    4.6235 C   0  0  0  0  0  0  0  0  0  0  0  0
    6.3864    1.7811    4.5511 C   0  0  0  0  0  0  0  0  0  0  0  0
   -1.3668   -9.1418   10.0758 C   0  0  0  0  0  0  0  0  0  0  0  0
   -1.8007   -9.1152   11.4713 C   0  0  0  0  0  0  0  0  0  0  0  0
   -0.9230   -9.2203   12.3326 O   0  0  0  0  0  0  0  0  0  0  0  0
   -3.1061   -8.9583   11.7320 N   0  0  0  0  0  0  0  0  0  0  0  0
   -3.7360   -8.8833   10.9791 H   0  0  0  0  0  0  0  0  0  0  0  0
   -3.6251   -8.8949   13.0951 C   0  0  0  0  0  0  0  0  0  0  0  0
   -4.2885  -10.3127   13.3089 C   0  0  0  0  0  0  0  0  0  0  0  0
   -5.4031  -10.5327   12.9320 O   0  0  0  0  0  0  0  0  0  0  0  0
   -3.4346  -11.2739   14.0255 N   0  0  0  0  0  0  0  0  0  0  0  0
   -2.5216  -11.0472   14.3157 H   0  0  0  0  0  0  0  0  0  0  0  0
   -4.0591  -12.6578   14.2932 C   0  0  0  0  0  0  0  0  0  0  0  0
   -3.1111  -13.4279   15.0813 C   0  0  0  0  0  0  0  0  0  0  0  0
   -2.9818  -14.8240   14.9671 C   0  0  0  0  0  0  0  0  0  0  0  0
   -4.2554  -15.8288   15.0655 C   0  0  0  0  0  0  0  0  0  0  0  0
   -3.9500  -17.3346   14.9262 C   0  0  0  0  0  0  0  0  0  0  0  0
   -2.5361  -17.8025   14.7101 C   0  0  0  0  0  0  0  0  0  0  0  0
   -1.3842  -16.8339   14.6210 C   0  0  0  0  0  0  0  0  0  0  0  0
   -1.5836  -15.3442   14.7494 C   0  0  0  0  0  0  0  0  0  0  0  0
   -4.7639   -7.8382   13.3391 C   0  0  0  0  0  0  0  0  0  0  0  0
   -5.1236   -7.8351   14.8791 C   0  0  0  0  0  0  0  0  0  0  0  0
   -6.5250   -8.2443   15.3281 C   0  0  0  0  0  0  0  0  0  0  0  0
   -4.0297   -7.4080   15.9794 C   0  0  0  0  0  0  0  0  0  0  0  0
   -6.8738   -8.2419   16.8014 C   0  0  0  0  0  0  0  0  0  0  0  0
   -4.4146   -7.4215   17.4115 C   0  0  0  0  0  0  0  0  0  0  0  0
   -5.7943   -7.8227   17.8408 C   0  0  0  0  0  0  0  0  0  0  0  0
   -2.3145  -10.3011    9.3241 C   0  0  0  0  0  0  0  0  0  0  0  0
   -3.7179  -10.0626    8.5998 C   0  0  0  0  0  0  0  0  0  0  0  0
   -3.6493   -9.1640    7.3473 C   0  0  0  0  0  0  0  0  0  0  0  0
   -2.5127   -9.2057    6.4003 N   0  0  0  0  0  0  0  0  0  0  0  0
   -1.8392   -9.9179    6.4917 H   0  0  0  0  0  0  0  0  0  0  0  0
   -2.3612   -8.2063    5.3200 C   0  0  0  0  0  0  0  0  0  0  0  0
   -3.3178   -7.2573    5.0190 N   0  0  0  0  0  0  0  0  0  0  0  0
   -1.2445   -8.1287    4.5153 N   0  0  0  0  0  0  0  0  0  0  0  0
   -4.1565   -7.2234    5.5334 H   0  0  0  0  0  0  0  0  0  0  0  0
   -3.1612   -6.6145    4.2899 H   0  0  0  0  0  0  0  0  0  0  0  0
   -0.4998   -8.7596    4.6445 H   0  0  0  0  0  0  0  0  0  0  0  0
 10  6  1  0  0  0
 14 10  1  0  0  0
  7  6  2  0  0  0
  6  8  1  0  0  0
 11 12  2  0  0  0
 19 11  1  0  0  0
 11 16  1  0  0  0
 12 13  1  0  0  0
 13 14  2  0  0  0
 15 14  1  0  0  0
 16 15  2  0  0  0
 20 17  2  0  0  0
 17 22  1  0  0  0
 20 18  1  0  0  0
 18 19  2  0  0  0
 19 21  1  0  0  0
 22 21  2  0  0  0
  8  5  1  0  0  0
 23  5  1  0  0  0
  5  1  1  0  0  0
  2  1  2  0  0  0
  1  3  1  0  0  0
 24 23  1  0  0  0
 32 31  1  0  0  0
 31 27  1  0  0  0
 34 32  2  0  0  0
 33 32  1  0  0  0
 35 33  2  0  0  0
 36 34  1  0  0  0
 37 35  1  0  0  0
 37 36  2  0  0  0
 38 37  1  0  0  0
  3 44  1  0  0  0
 69 44  1  0  0  0
 44 45  1  0  0  0
 70 69  1  0  0  0
 70 71  1  0  0  0
 72 71  1  0  0  0
 72 74  1  0  0  0
 76 74  2  0  0  0
 74 75  1  0  0  0
 45 47  1  0  0  0
 45 46  2  0  0  0
 47 49  1  0  0  0
 50 49  1  0  0  0
 49 62  1  0  0  0
 51 50  2  0  0  0
 50 52  1  0  0  0
 62 63  1  0  0  0
 65 63  2  0  0  0
 63 64  1  0  0  0
 64 66  2  0  0  0
 65 67  1  0  0  0
 68 66  1  0  0  0
 67 68  2  0  0  0
 61 56  2  0  0  0
 55 56  1  0  0  0
 56 57  1  0  0  0
 57 58  2  0  0  0
 59 58  1  0  0  0
 60 59  2  0  0  0
 61 60  1  0  0  0
 55 54  1  0  0  0
 52 54  1  0  0  0
 40 38  2  0  0  0
 39 38  1  0  0  0
 41 39  2  0  0  0
 42 40  1  0  0  0
 43 41  1  0  0  0
 43 42  2  0  0  0
 29 27  2  0  0  0
 27 28  1  0  0  0
 25 24  1  0  0  0
 26 25  1  0  0  0
 28 26  1  0  0  0
  8  9  1  0  0  0
  3  4  1  0  0  0
 72 73  1  0  0  0
 75 77  1  0  0  0
 75 78  1  0  0  0
 76 79  1  0  0  0
 47 48  1  0  0  0
 52 53  1  0  0  0
 28 30  1  0  0  0
M  END
> <minimizedAffinity>
-7.59587

$$$$
3H8B_NSY_A_300


 79 84  0  0  0  0  0  0  0  0999 V2000
   -0.7897   -6.1530    8.3108 C   0  0  0  0  0  0  0  0  0  0  0  0
    0.1720   -6.5986    9.0728 O   0  0  0  0  0  0  0  0  0  0  0  0
   -1.8791   -6.9868    7.7289 N   0  0  0  0  0  0  0  0  0  0  0  0
   -2.5441   -6.5565    7.1443 H   0  0  0  0  0  0  0  0  0  0  0  0
   -0.9292   -4.7119    7.9793 C   0  0  0  0  0  0  0  0  0  0  0  0
    0.9665   -5.0502    6.1636 C   0  0  0  0  0  0  0  0  0  0  0  0
    0.4031   -5.8016    5.4068 O   0  0  0  0  0  0  0  0  0  0  0  0
    0.3619   -4.5087    7.4024 N   0  0  0  0  0  0  0  0  0  0  0  0
    0.9489   -3.9071    7.9150 H   0  0  0  0  0  0  0  0  0  0  0  0
    2.1858   -4.5710    5.9503 C   0  0  0  0  0  0  0  0  0  0  0  0
    3.3640   -0.3749    4.5628 C   0  0  0  0  0  0  0  0  0  0  0  0
    4.2699   -1.3478    5.4095 C   0  0  0  0  0  0  0  0  0  0  0  0
    3.8036   -2.6470    5.8012 C   0  0  0  0  0  0  0  0  0  0  0  0
    2.4168   -3.1672    5.3999 C   0  0  0  0  0  0  0  0  0  0  0  0
    1.4236   -2.2496    4.5098 C   0  0  0  0  0  0  0  0  0  0  0  0
    1.9598   -0.8721    4.1327 C   0  0  0  0  0  0  0  0  0  0  0  0
    4.6824    3.8847    3.2709 C   0  0  0  0  0  0  0  0  0  0  0  0
    5.3207    1.5220    4.5984 C   0  0  0  0  0  0  0  0  0  0  0  0
    3.9088    0.9938    4.2059 C   0  0  0  0  0  0  0  0  0  0  0  0
    5.6332    2.9850    4.0918 C   0  0  0  0  0  0  0  0  0  0  0  0
    2.8854    1.9650    3.3060 C   0  0  0  0  0  0  0  0  0  0  0  0
    3.2825    3.3564    2.8770 C   0  0  0  0  0  0  0  0  0  0  0  0
   -2.0063   -4.4938    7.0473 C   0  0  0  0  0  0  0  0  0  0  0  0
   -2.0820   -3.2872    6.1859 C   0  0  0  0  0  0  0  0  0  0  0  0
   -2.5468   -3.1157    5.0230 C   0  0  0  0  0  0  0  0  0  0  0  0
   -2.3213   -4.0206    3.8222 C   0  0  0  0  0  0  0  0  0  0  0  0
   -0.8542   -4.5893    2.0509 C   0  0  0  0  0  0  0  0  0  0  0  0
   -0.8879   -4.2228    3.2673 N   0  0  0  0  0  0  0  0  0  0  0  0
   -1.7620   -4.7678    1.3541 O   0  0  0  0  0  0  0  0  0  0  0  0
   -0.0776   -4.0803    3.8080 H   0  0  0  0  0  0  0  0  0  0  0  0
    0.3599   -4.8511    1.3915 C   0  0  0  0  0  0  0  0  0  0  0  0
    1.3613   -4.0335    1.3562 C   0  0  0  0  0  0  0  0  0  0  0  0
    1.2872   -2.6480    0.7677 C   0  0  0  0  0  0  0  0  0  0  0  0
    2.6518   -4.4825    1.9185 C   0  0  0  0  0  0  0  0  0  0  0  0
    2.4235   -1.7279    0.7673 C   0  0  0  0  0  0  0  0  0  0  0  0
    3.8402   -3.5481    1.9217 C   0  0  0  0  0  0  0  0  0  0  0  0
    3.7504   -2.1358    1.3349 C   0  0  0  0  0  0  0  0  0  0  0  0
    4.7994   -1.1933    1.3449 C   0  0  0  0  0  0  0  0  0  0  0  0
    6.1261   -1.4887    2.0975 C   0  0  0  0  0  0  0  0  0  0  0  0
    4.7009    0.1684    0.6448 C   0  0  0  0  0  0  0  0  0  0  0  0
    7.2501   -0.4767    2.1044 C   0  0  0  0  0  0  0  0  0  0  0  0
    5.8036    1.1210    0.6824 C   0  0  0  0  0  0  0  0  0  0  0  0
    7.0620    0.7929    1.4121 C   0  0  0  0  0  0  0  0  0  0  0  0
   -1.9934   -8.3688    7.9843 C   0  0  0  0  0  0  0  0  0  0  0  0
   -1.2261   -9.2275    7.0841 C   0  0  0  0  0  0  0  0  0  0  0  0
   -1.2163  -10.4357    7.3360 O   0  0  0  0  0  0  0  0  0  0  0  0
   -0.6040   -8.6643    6.0390 N   0  0  0  0  0  0  0  0  0  0  0  0
   -0.6664   -7.6893    5.9170 H   0  0  0  0  0  0  0  0  0  0  0  0
    0.1631   -9.4482    5.0753 C   0  0  0  0  0  0  0  0  0  0  0  0
    1.6655   -9.1540    5.4654 C   0  0  0  0  0  0  0  0  0  0  0  0
    2.2058   -9.7702    6.3377 O   0  0  0  0  0  0  0  0  0  0  0  0
    2.2829   -8.0608    4.6971 N   0  0  0  0  0  0  0  0  0  0  0  0
    1.7980   -7.5823    3.9863 H   0  0  0  0  0  0  0  0  0  0  0  0
    3.7363   -7.7116    5.0748 C   0  0  0  0  0  0  0  0  0  0  0  0
    4.3564   -7.0828    3.9203 C   0  0  0  0  0  0  0  0  0  0  0  0
    5.1113   -7.8009    2.9751 C   0  0  0  0  0  0  0  0  0  0  0  0
    5.5298   -7.1741    1.5352 C   0  0  0  0  0  0  0  0  0  0  0  0
    6.3543   -8.0886    0.6056 C   0  0  0  0  0  0  0  0  0  0  0  0
    6.7297   -9.4766    1.0493 C   0  0  0  0  0  0  0  0  0  0  0  0
    6.3232  -10.0165    2.3970 C   0  0  0  0  0  0  0  0  0  0  0  0
    5.5133   -9.1987    3.3720 C   0  0  0  0  0  0  0  0  0  0  0  0
    0.0089   -9.0144    3.5717 C   0  0  0  0  0  0  0  0  0  0  0  0
   -1.5079   -9.1785    3.1554 C   0  0  0  0  0  0  0  0  0  0  0  0
   -2.2325  -10.4916    3.4445 C   0  0  0  0  0  0  0  0  0  0  0  0
   -2.2981   -7.9773    2.4325 C   0  0  0  0  0  0  0  0  0  0  0  0
   -3.6845  -10.6533    3.0468 C   0  0  0  0  0  0  0  0  0  0  0  0
   -3.7197   -8.1791    2.0618 C   0  0  0  0  0  0  0  0  0  0  0  0
   -4.4206   -9.4736    2.3483 C   0  0  0  0  0  0  0  0  0  0  0  0
   -1.6996   -8.9469    9.5290 C   0  0  0  0  0  0  0  0  0  0  0  0
   -2.7904   -9.4382   10.5872 C   0  0  0  0  0  0  0  0  0  0  0  0
   -2.3131   -9.4244   12.0545 C   0  0  0  0  0  0  0  0  0  0  0  0
   -3.2253   -9.1389   13.1845 N   0  0  0  0  0  0  0  0  0  0  0  0
   -3.4483   -9.8619   13.8143 H   0  0  0  0  0  0  0  0  0  0  0  0
   -3.8111   -7.7965   13.3932 C   0  0  0  0  0  0  0  0  0  0  0  0
   -5.1281   -7.5861   13.7506 N   0  0  0  0  0  0  0  0  0  0  0  0
   -3.0912   -6.6291   13.2537 N   0  0  0  0  0  0  0  0  0  0  0  0
   -5.7324   -8.3529   13.8770 H   0  0  0  0  0  0  0  0  0  0  0  0
   -5.4628   -6.6691   13.8790 H   0  0  0  0  0  0  0  0  0  0  0  0
   -2.1404   -6.6644   13.0008 H   0  0  0  0  0  0  0  0  0  0  0  0
 10  6  1  0  0  0
 14 10  1  0  0  0
  7  6  2  0  0  0
  6  8  1  0  0  0
 11 12  2  0  0  0
 19 11  1  0  0  0
 11 16  1  0  0  0
 12 13  1  0  0  0
 13 14  2  0  0  0
 15 14  1  0  0  0
 16 15  2  0  0  0
 20 17  2  0  0  0
 17 22  1  0  0  0
 20 18  1  0  0  0
 18 19  2  0  0  0
 19 21  1  0  0  0
 22 21  2  0  0  0
  8  5  1  0  0  0
 23  5  1  0  0  0
  5  1  1  0  0  0
  2  1  2  0  0  0
  1  3  1  0  0  0
 24 23  1  0  0  0
 32 31  1  0  0  0
 31 27  1  0  0  0
 34 32  2  0  0  0
 33 32  1  0  0  0
 35 33  2  0  0  0
 36 34  1  0  0  0
 37 35  1  0  0  0
 37 36  2  0  0  0
 38 37  1  0  0  0
  3 44  1  0  0  0
 69 44  1  0  0  0
 44 45  1  0  0  0
 70 69  1  0  0  0
 70 71  1  0  0  0
 72 71  1  0  0  0
 72 74  1  0  0  0
 76 74  2  0  0  0
 74 75  1  0  0  0
 45 47  1  0  0  0
 45 46  2  0  0  0
 47 49  1  0  0  0
 50 49  1  0  0  0
 49 62  1  0  0  0
 51 50  2  0  0  0
 50 52  1  0  0  0
 62 63  1  0  0  0
 65 63  2  0  0  0
 63 64  1  0  0  0
 64 66  2  0  0  0
 65 67  1  0  0  0
 68 66  1  0  0  0
 67 68  2  0  0  0
 61 56  2  0  0  0
 55 56  1  0  0  0
 56 57  1  0  0  0
 57 58  2  0  0  0
 59 58  1  0  0  0
 60 59  2  0  0  0
 61 60  1  0  0  0
 55 54  1  0  0  0
 52 54  1  0  0  0
 40 38  2  0  0  0
 39 38  1  0  0  0
 41 39  2  0  0  0
 42 40  1  0  0  0
 43 41  1  0  0  0
 43 42  2  0  0  0
 29 27  2  0  0  0
 27 28  1  0  0  0
 25 24  1  0  0  0
 26 25  1  0  0  0
 28 26  1  0  0  0
  8  9  1  0  0  0
  3  4  1  0  0  0
 72 73  1  0  0  0
 75 77  1  0  0  0
 75 78  1  0  0  0
 76 79  1  0  0  0
 47 48  1  0  0  0
 52 53  1  0  0  0
 28 30  1  0  0  0
M  END
> <minimizedAffinity>
-7.58059

$$$$
