1NNY_515_A_322
  RCSB PDB12061703263D
Coordinates from PDB:1NNY:A:322 Model:1 without hydrogens
 53 57  0  0  0  0            999 V2000
   35.8290   28.7060   20.6170   C 0  0  0  0  0  0  0  0  0  0  0  0
   35.0780   28.1540   21.7250   C 0  0  0  0  0  0  0  0  0  0  0  0
   33.7560   28.6920   21.9980   C 0  0  0  0  0  0  0  0  0  0  0  0
   33.1890   29.7160   21.2280   C 0  0  0  0  0  0  0  0  0  0  0  0
   33.8940   30.2790   20.1290   C 0  0  0  0  0  0  0  0  0  0  0  0
   35.2420   29.7730   19.8100   C 0  0  0  0  0  0  0  0  0  0  0  0
   35.5230   27.1150   22.5750   N 0  0  0  0  0  0  0  0  0  0  0  0
   32.6040   30.8500   17.9680   C 0  0  0  0  0  0  0  0  0  0  0  0
   31.9840   31.9720   17.2520   N 0  0  0  0  0  0  0  0  0  0  0  0
   32.4630   32.3610   16.0380   C 0  0  0  0  0  0  0  0  0  0  0  0
   31.6270   29.6600   18.1900   C 0  0  0  0  0  0  0  0  0  0  0  0
   30.3010   29.9700   18.3220   N 0  0  0  0  0  0  0  0  0  0  0  0
   29.2820   28.9250   18.5490   C 0  0  0  0  0  0  0  0  0  0  0  0
   28.1650   29.2630   19.5950   C 0  0  0  0  0  0  0  0  0  0  0  0
   26.7080   30.6830   22.6340   C 0  0  0  0  0  0  0  0  0  0  0  0
   28.5960   29.4180   21.0680   C 0  0  0  0  0  0  0  0  0  0  0  0
   26.0100   29.4170   22.6970   O 0  0  0  0  0  0  0  0  0  0  0  0
   33.4110   31.8460   15.4450   O 0  0  0  0  0  0  0  0  0  0  0  0
   31.7040   33.5410   15.4330   C 0  0  0  0  0  0  0  0  0  0  0  0
   35.9230   27.4280   23.9130   C 0  0  0  0  0  0  0  0  0  0  0  0
   32.0770   28.5200   18.2470   O 0  0  0  0  0  0  0  0  0  0  0  0
   33.1950   31.3810   19.3220   C 0  0  0  0  0  0  0  0  0  0  0  0
   36.2070   26.5760   24.7490   O 0  0  0  0  0  0  0  0  0  0  0  0
   36.0340   28.8800   24.4110   C 0  0  0  0  0  0  0  0  0  0  0  0
   36.9470   29.6070   24.1070   O 0  0  0  0  0  0  0  0  0  0  0  0
   36.4960   24.7230   22.1330   C 0  0  0  0  0  0  0  0  0  0  0  0
   35.4460   25.7480   22.0880   C 0  0  0  0  0  0  0  0  0  0  0  0
   34.2040   25.3370   21.4860   C 0  0  0  0  0  0  0  0  0  0  0  0
   33.9860   24.0540   20.9710   C 0  0  0  0  0  0  0  0  0  0  0  0
   35.0010   23.0970   21.0220   C 0  0  0  0  0  0  0  0  0  0  0  0
   36.2310   23.4300   21.5940   C 0  0  0  0  0  0  0  0  0  0  0  0
   38.3950   23.9170   23.2220   O 0  0  0  0  0  0  0  0  0  0  0  0
   38.5090   26.0420   22.6250   O 0  0  0  0  0  0  0  0  0  0  0  0
   37.8690   24.8590   22.6960   C 0  0  0  0  0  0  0  0  0  0  0  0
   24.6760   29.3590   23.2360   C 0  0  0  0  0  0  0  0  0  0  0  0
   23.9370   30.5470   23.5910   C 0  0  0  0  0  0  0  0  0  0  0  0
   22.6210   30.4790   24.1220   C 0  0  0  0  0  0  0  0  0  0  0  0
   21.9760   29.1950   24.3210   C 0  0  0  0  0  0  0  0  0  0  0  0
   22.6860   28.0020   23.9780   C 0  0  0  0  0  0  0  0  0  0  0  0
   24.0170   28.0800   23.4460   C 0  0  0  0  0  0  0  0  0  0  0  0
   24.6810   26.8240   23.1260   C 0  0  0  0  0  0  0  0  0  0  0  0
   25.0080   26.0510   24.1660   O 0  0  0  0  0  0  0  0  0  0  0  0
   24.9170   26.5020   22.0000   O 0  0  0  0  0  0  0  0  0  0  0  0
   37.1450   28.2110   20.2980   C 0  0  0  0  0  0  0  0  0  0  0  0
   37.8780   28.7590   19.2030   C 0  0  0  0  0  0  0  0  0  0  0  0
   37.3130   29.7990   18.4120   C 0  0  0  0  0  0  0  0  0  0  0  0
   36.0110   30.3010   18.7100   C 0  0  0  0  0  0  0  0  0  0  0  0
   28.0870   30.6390   21.9180   C 0  0  0  0  0  0  0  0  0  0  0  0
   35.0250   29.2820   25.2020   O 0  0  0  0  0  0  0  0  0  0  0  0
   21.9420   31.6940   24.4620   C 0  0  0  0  0  0  0  0  0  0  0  0
   20.6210   31.6380   25.0000   C 0  0  0  0  0  0  0  0  0  0  0  0
   19.9740   30.3790   25.1970   C 0  0  0  0  0  0  0  0  0  0  0  0
   20.6380   29.1550   24.8620   C 0  0  0  0  0  0  0  0  0  0  0  0
  1  2  2  0  0  0  0
  1  6  1  0  0  0  0
  1 44  1  0  0  0  0
  2  3  1  0  0  0  0
  2  7  1  0  0  0  0
  3  4  2  0  0  0  0
  4  5  1  0  0  0  0
  5  6  2  0  0  0  0
  5 22  1  0  0  0  0
  6 47  1  0  0  0  0
  7 20  1  0  0  0  0
  7 27  1  0  0  0  0
  8  9  1  0  0  0  0
  8 11  1  0  0  0  0
  8 22  1  0  0  0  0
  9 10  1  0  0  0  0
 10 18  2  0  0  0  0
 10 19  1  0  0  0  0
 11 12  1  0  0  0  0
 11 21  2  0  0  0  0
 12 13  1  0  0  0  0
 13 14  1  0  0  0  0
 14 16  1  0  0  0  0
 15 17  1  0  0  0  0
 15 48  1  0  0  0  0
 16 48  1  0  0  0  0
 17 35  1  0  0  0  0
 20 23  2  0  0  0  0
 20 24  1  0  0  0  0
 24 25  2  0  0  0  0
 24 49  1  0  0  0  0
 26 27  2  0  0  0  0
 26 31  1  0  0  0  0
 26 34  1  0  0  0  0
 27 28  1  0  0  0  0
 28 29  2  0  0  0  0
 29 30  1  0  0  0  0
 30 31  2  0  0  0  0
 32 34  2  0  0  0  0
 33 34  1  0  0  0  0
 35 36  2  0  0  0  0
 35 40  1  0  0  0  0
 36 37  1  0  0  0  0
 37 38  2  0  0  0  0
 37 50  1  0  0  0  0
 38 39  1  0  0  0  0
 38 53  1  0  0  0  0
 39 40  2  0  0  0  0
 40 41  1  0  0  0  0
 41 42  1  0  0  0  0
 41 43  2  0  0  0  0
 44 45  2  0  0  0  0
 45 46  1  0  0  0  0
 46 47  2  0  0  0  0
 50 51  2  0  0  0  0
 51 52  1  0  0  0  0
 52 53  2  0  0  0  0
A    1
C1
A    2
C2
A    3
C3
A    4
C4
A    5
C5
A    6
C6
A    7
N4
A    8
C9
A    9
N1
A   10
C10
A   11
C11
A   12
N2
A   13
C12
A   14
C13
A   15
C14
A   16
C15
A   17
O1
A   18
O4
A   19
C23
A   20
C8
A   21
O8
A   22
C7
A   23
O5
A   24
C24
A   25
O6
A   26
C25
A   27
C26
A   28
C27
A   29
C28
A   30
C29
A   31
C30
A   32
O9
A   33
O10
A   34
C31
A   35
C32
A   36
C33
A   37
C34
A   38
C35
A   39
C36
A   40
C37
A   41
C38
A   42
O11
A   43
O12
A   44
C16
A   45
C17
A   46
C18
A   47
C19
A   48
C20
A   49
O2
A   50
C41
A   51
C42
A   52
C43
A   53
C44
M  END
>  <InstanceId>
1NNY_515_A_322

>  <ChemCompId>
515

>  <PdbId>
1NNY

>  <ChainId>
A

>  <ResidueNumber>
322

>  <InsertionCode>


>  <Model>
1

>  <AltIds>


>  <MissingHeavyAtoms>
0

>  <ObservedFormula>
C40 N3 O10

>  <Name>
3-({5-[(N-ACETYL-3-{4-[(CARBOXYCARBONYL)(2-CARBOXYPHENYL)AMINO]-1-NAPHTHYL}-L-ALANYL)AMINO]PENTYL}OXY)-2-NAPHTHOIC ACID

>  <SystematicName>
3-[5-[[(2S)-2-acetamido-3-[4-[carboxycarbonyl-(2-carboxyphenyl)amino]naphthalen-1-yl]propanoyl]amino]pentoxy]naphthalene-2-carboxylic acid

>  <Synonyms>
COMPOUND 23

>  <Type>
NON-POLYMER

>  <Formula>
C40 H37 N3 O10

>  <MolecularWeight>
719.736

>  <ModifiedDate>
2011-06-04

>  <Parent>


>  <OneLetterCode>


>  <SubcomponentList>


>  <AmbiguousFlag>
N

>  <InChI>
InChI=1S/C40H37N3O10/c1-24(44)42-32(36(45)41-19-9-2-10-20-53-35-23-26-12-4-3-11-25(26)21-31(35)39(49)50)22-27-17-18-34(29-14-6-5-13-28(27)29)43(37(46)40(51)52)33-16-8-7-15-30(33)38(47)48/h3-8,11-18,21,23,32H,2,9-10,19-20,22H2,1H3,(H,41,45)(H,42,44)(H,47,48)(H,49,50)(H,51,52)/t32-/m0/s1

>  <InChIKey>
URRKGBLRIVECAH-YTTGMZPUSA-N

>  <SMILES>
CC(=O)N[C@@H](Cc1ccc(c2c1cccc2)N(c3ccccc3C(=O)O)C(=O)C(=O)O)C(=O)NCCCCCOc4cc5ccccc5cc4C(=O)O

$$$$
