1NNY_515_A_322


 58 62  0  0  0  0  0  0  0  0999 V2000
   31.7457   28.9047   18.5867 C   0  0  0  0  0  0  0  0  0  0  0  0
   30.5342   29.2696   19.3316 N   0  0  0  0  0  0  0  0  0  0  0  0
   30.6037   29.5468   20.6631 C   0  0  0  0  0  0  0  0  0  0  0  0
   31.6278   29.5224   21.3460 O   0  0  0  0  0  0  0  0  0  0  0  0
   29.2541   29.9079   21.2817 C   0  0  0  0  0  0  0  0  0  0  0  0
   29.6676   29.3141   18.8664 H   0  0  0  0  0  0  0  0  0  0  0  0
   31.7666   29.4852   17.1437 C   0  0  0  0  0  0  0  0  0  0  0  0
   31.7457   30.8484   17.0294 N   0  0  0  0  0  0  0  0  0  0  0  0
   31.7896   28.7141   16.1896 O   0  0  0  0  0  0  0  0  0  0  0  0
   31.7274   31.3990   17.8453 H   0  0  0  0  0  0  0  0  0  0  0  0
   31.7500   31.5134   15.7104 C   0  0  0  0  0  0  0  0  0  0  0  0
   32.1291   33.0340   15.7031 C   0  0  0  0  0  0  0  0  0  0  0  0
   33.5058   33.4191   15.1236 C   0  0  0  0  0  0  0  0  0  0  0  0
   34.1990   32.5009   14.0518 C   0  0  0  0  0  0  0  0  0  0  0  0
   35.7114   32.1422   14.0645 C   0  0  0  0  0  0  0  0  0  0  0  0
   36.0154   30.7841   14.4607 O   0  0  0  0  0  0  0  0  0  0  0  0
   36.2795   30.4820   15.8436 C   0  0  0  0  0  0  0  0  0  0  0  0
   35.2730   30.6244   16.8684 C   0  0  0  0  0  0  0  0  0  0  0  0
   35.5437   30.3235   18.2302 C   0  0  0  0  0  0  0  0  0  0  0  0
   36.8572   29.8558   18.6308 C   0  0  0  0  0  0  0  0  0  0  0  0
   37.8731   29.7062   17.6355 C   0  0  0  0  0  0  0  0  0  0  0  0
   37.5919   30.0167   16.2625 C   0  0  0  0  0  0  0  0  0  0  0  0
   34.5046   30.4922   19.2021 C   0  0  0  0  0  0  0  0  0  0  0  0
   34.7660   30.1969   20.5740 C   0  0  0  0  0  0  0  0  0  0  0  0
   36.0550   29.7318   20.9799 C   0  0  0  0  0  0  0  0  0  0  0  0
   37.1048   29.5570   20.0214 C   0  0  0  0  0  0  0  0  0  0  0  0
   38.6766   29.8471   15.3057 C   0  0  0  0  0  0  0  0  0  0  0  0
   38.8364   30.8335   14.4183 O   0  0  0  0  0  0  0  0  0  0  0  0
   39.3839   28.8843   15.3151 O   0  0  0  0  0  0  0  0  0  0  0  0
   38.2657   31.5765   14.4357 H   0  0  0  0  0  0  0  0  0  0  0  0
   31.8873   27.3412   18.5895 C   0  0  0  0  0  0  0  0  0  0  0  0
   35.6736   26.2350   19.0492 C   0  0  0  0  0  0  0  0  0  0  0  0
   35.6618   25.9399   20.4666 C   0  0  0  0  0  0  0  0  0  0  0  0
   34.4214   26.1285   21.1999 C   0  0  0  0  0  0  0  0  0  0  0  0
   33.2467   26.5793   20.5837 C   0  0  0  0  0  0  0  0  0  0  0  0
   33.2184   26.8740   19.1929 C   0  0  0  0  0  0  0  0  0  0  0  0
   34.4511   26.7041   18.4013 C   0  0  0  0  0  0  0  0  0  0  0  0
   36.8748   26.0655   18.2701 C   0  0  0  0  0  0  0  0  0  0  0  0
   36.8777   26.3566   16.8730 C   0  0  0  0  0  0  0  0  0  0  0  0
   35.6906   26.8143   16.2344 C   0  0  0  0  0  0  0  0  0  0  0  0
   34.4909   26.9863   16.9875 C   0  0  0  0  0  0  0  0  0  0  0  0
   36.7684   25.4698   21.2113 N   0  0  0  0  0  0  0  0  0  0  0  0
   37.0325   24.0641   21.2611 C   0  0  0  0  0  0  0  0  0  0  0  0
   38.0341   23.5839   21.7822 O   0  0  0  0  0  0  0  0  0  0  0  0
   37.5230   27.1170   23.1036 C   0  0  0  0  0  0  0  0  0  0  0  0
   37.6638   26.4489   21.8040 C   0  0  0  0  0  0  0  0  0  0  0  0
   38.8264   26.8196   21.0393 C   0  0  0  0  0  0  0  0  0  0  0  0
   39.7734   27.7506   21.4811 C   0  0  0  0  0  0  0  0  0  0  0  0
   39.6162   28.3757   22.7194 C   0  0  0  0  0  0  0  0  0  0  0  0
   38.5103   28.0608   23.5124 C   0  0  0  0  0  0  0  0  0  0  0  0
   35.7945   27.8764   24.4738 O   0  0  0  0  0  0  0  0  0  0  0  0
   36.1793   25.7035   24.5970 O   0  0  0  0  0  0  0  0  0  0  0  0
   36.4336   26.9304   24.1031 C   0  0  0  0  0  0  0  0  0  0  0  0
   36.6805   24.9677   24.3049 H   0  0  0  0  0  0  0  0  0  0  0  0
   36.0623   23.0316   20.6599 C   0  0  0  0  0  0  0  0  0  0  0  0
   36.1612   22.6231   19.5295 O   0  0  0  0  0  0  0  0  0  0  0  0
   35.1015   22.6079   21.4982 O   0  0  0  0  0  0  0  0  0  0  0  0
   35.0566   22.9486   22.3699 H   0  0  0  0  0  0  0  0  0  0  0  0
 32 33  2  0  0  0
 32 37  1  0  0  0
 32 38  1  0  0  0
 33 34  1  0  0  0
 33 42  1  0  0  0
 34 35  2  0  0  0
 35 36  1  0  0  0
 36 37  2  0  0  0
 36 31  1  0  0  0
 37 41  1  0  0  0
 42 43  1  0  0  0
 42 46  1  0  0  0
  1  2  1  0  0  0
  1  7  1  0  0  0
  1 31  1  0  0  0
  2  3  1  0  0  0
  3  4  2  0  0  0
  3  5  1  0  0  0
  7  8  1  0  0  0
  7  9  2  0  0  0
  8 11  1  0  0  0
 11 12  1  0  0  0
 12 13  1  0  0  0
 15 16  1  0  0  0
 15 14  1  0  0  0
 13 14  1  0  0  0
 16 17  1  0  0  0
 43 44  2  0  0  0
 43 55  1  0  0  0
 55 56  2  0  0  0
 55 57  1  0  0  0
 45 46  2  0  0  0
 45 50  1  0  0  0
 45 53  1  0  0  0
 46 47  1  0  0  0
 47 48  2  0  0  0
 48 49  1  0  0  0
 49 50  2  0  0  0
 51 53  2  0  0  0
 52 53  1  0  0  0
 17 18  2  0  0  0
 17 22  1  0  0  0
 18 19  1  0  0  0
 19 20  2  0  0  0
 19 23  1  0  0  0
 20 21  1  0  0  0
 20 26  1  0  0  0
 21 22  2  0  0  0
 22 27  1  0  0  0
 27 28  1  0  0  0
 27 29  2  0  0  0
 38 39  2  0  0  0
 39 40  1  0  0  0
 40 41  2  0  0  0
 23 24  2  0  0  0
 24 25  1  0  0  0
 25 26  2  0  0  0
  2  6  1  0  0  0
  8 10  1  0  0  0
 52 54  1  0  0  0
 28 30  1  0  0  0
 57 58  1  0  0  0
M  END
> <minimizedAffinity>
-7.35246

$$$$
1NNY_515_A_322


 58 62  0  0  0  0  0  0  0  0999 V2000
   37.7071   28.5944   16.1903 C   0  0  0  0  0  0  0  0  0  0  0  0
   38.6472   29.1578   15.2131 N   0  0  0  0  0  0  0  0  0  0  0  0
   39.6627   28.3967   14.7191 C   0  0  0  0  0  0  0  0  0  0  0  0
   39.8898   27.2249   15.0202 O   0  0  0  0  0  0  0  0  0  0  0  0
   40.5454   29.1361   13.7148 C   0  0  0  0  0  0  0  0  0  0  0  0
   38.5429   30.0898   14.9138 H   0  0  0  0  0  0  0  0  0  0  0  0
   36.2858   28.3663   15.6006 C   0  0  0  0  0  0  0  0  0  0  0  0
   36.0412   27.1410   15.0433 N   0  0  0  0  0  0  0  0  0  0  0  0
   35.4655   29.2774   15.6489 O   0  0  0  0  0  0  0  0  0  0  0  0
   36.7538   26.4618   15.0436 H   0  0  0  0  0  0  0  0  0  0  0  0
   34.7328   26.8134   14.4410 C   0  0  0  0  0  0  0  0  0  0  0  0
   33.6738   26.1646   15.3969 C   0  0  0  0  0  0  0  0  0  0  0  0
   32.4670   27.0315   15.8113 C   0  0  0  0  0  0  0  0  0  0  0  0
   32.4987   27.8407   17.1591 C   0  0  0  0  0  0  0  0  0  0  0  0
   31.5382   27.5767   18.3524 C   0  0  0  0  0  0  0  0  0  0  0  0
   32.0914   26.7666   19.4162 O   0  0  0  0  0  0  0  0  0  0  0  0
   32.8775   25.6030   19.0975 C   0  0  0  0  0  0  0  0  0  0  0  0
   34.3127   25.6594   18.9538 C   0  0  0  0  0  0  0  0  0  0  0  0
   35.0792   24.5053   18.6393 C   0  0  0  0  0  0  0  0  0  0  0  0
   34.4297   23.2214   18.4549 C   0  0  0  0  0  0  0  0  0  0  0  0
   33.0087   23.1375   18.5911 C   0  0  0  0  0  0  0  0  0  0  0  0
   32.2416   24.3096   18.9049 C   0  0  0  0  0  0  0  0  0  0  0  0
   36.5003   24.6274   18.5026 C   0  0  0  0  0  0  0  0  0  0  0  0
   37.2805   23.4755   18.1830 C   0  0  0  0  0  0  0  0  0  0  0  0
   36.6521   22.2047   18.0026 C   0  0  0  0  0  0  0  0  0  0  0  0
   35.2330   22.0648   18.1362 C   0  0  0  0  0  0  0  0  0  0  0  0
   30.7988   24.1499   19.0213 C   0  0  0  0  0  0  0  0  0  0  0  0
   30.2912   24.2775   20.2510 O   0  0  0  0  0  0  0  0  0  0  0  0
   30.1089   23.9211   18.0732 O   0  0  0  0  0  0  0  0  0  0  0  0
   30.8577   24.4571   20.9754 H   0  0  0  0  0  0  0  0  0  0  0  0
   37.6730   29.5271   17.4526 C   0  0  0  0  0  0  0  0  0  0  0  0
   35.9044   28.2029   20.7525 C   0  0  0  0  0  0  0  0  0  0  0  0
   36.9066   27.2550   21.1921 C   0  0  0  0  0  0  0  0  0  0  0  0
   38.1017   27.0898   20.3821 C   0  0  0  0  0  0  0  0  0  0  0  0
   38.3144   27.8145   19.2021 C   0  0  0  0  0  0  0  0  0  0  0  0
   37.3554   28.7579   18.7417 C   0  0  0  0  0  0  0  0  0  0  0  0
   36.1216   28.9622   19.5234 C   0  0  0  0  0  0  0  0  0  0  0  0
   34.6991   28.4099   21.5160 C   0  0  0  0  0  0  0  0  0  0  0  0
   33.7169   29.3475   21.0770 C   0  0  0  0  0  0  0  0  0  0  0  0
   33.9211   30.0911   19.8804 C   0  0  0  0  0  0  0  0  0  0  0  0
   35.1084   29.9024   19.1118 C   0  0  0  0  0  0  0  0  0  0  0  0
   36.8262   26.4675   22.3640 N   0  0  0  0  0  0  0  0  0  0  0  0
   37.1614   27.0537   23.6259 C   0  0  0  0  0  0  0  0  0  0  0  0
   37.0054   26.4799   24.6991 O   0  0  0  0  0  0  0  0  0  0  0  0
   37.0464   23.8726   22.0780 C   0  0  0  0  0  0  0  0  0  0  0  0
   36.2928   25.1204   22.2517 C   0  0  0  0  0  0  0  0  0  0  0  0
   34.8612   24.9765   22.3126 C   0  0  0  0  0  0  0  0  0  0  0  0
   34.2070   23.7430   22.2154 C   0  0  0  0  0  0  0  0  0  0  0  0
   34.9450   22.5701   22.0470 C   0  0  0  0  0  0  0  0  0  0  0  0
   36.3385   22.6389   21.9808 C   0  0  0  0  0  0  0  0  0  0  0  0
   39.1231   24.2045   21.0685 O   0  0  0  0  0  0  0  0  0  0  0  0
   39.1841   23.0108   22.9276 O   0  0  0  0  0  0  0  0  0  0  0  0
   38.5254   23.7146   21.9868 C   0  0  0  0  0  0  0  0  0  0  0  0
   38.7136   22.6300   23.6429 H   0  0  0  0  0  0  0  0  0  0  0  0
   37.7570   28.4688   23.7336 C   0  0  0  0  0  0  0  0  0  0  0  0
   37.0766   29.4557   23.8661 O   0  0  0  0  0  0  0  0  0  0  0  0
   39.0987   28.5196   23.6829 O   0  0  0  0  0  0  0  0  0  0  0  0
   39.5938   27.7309   23.5791 H   0  0  0  0  0  0  0  0  0  0  0  0
 32 33  2  0  0  0
 32 37  1  0  0  0
 32 38  1  0  0  0
 33 34  1  0  0  0
 33 42  1  0  0  0
 34 35  2  0  0  0
 35 36  1  0  0  0
 36 37  2  0  0  0
 36 31  1  0  0  0
 37 41  1  0  0  0
 42 43  1  0  0  0
 42 46  1  0  0  0
  1  2  1  0  0  0
  1  7  1  0  0  0
  1 31  1  0  0  0
  2  3  1  0  0  0
  3  4  2  0  0  0
  3  5  1  0  0  0
  7  8  1  0  0  0
  7  9  2  0  0  0
  8 11  1  0  0  0
 11 12  1  0  0  0
 12 13  1  0  0  0
 15 16  1  0  0  0
 15 14  1  0  0  0
 13 14  1  0  0  0
 16 17  1  0  0  0
 43 44  2  0  0  0
 43 55  1  0  0  0
 55 56  2  0  0  0
 55 57  1  0  0  0
 45 46  2  0  0  0
 45 50  1  0  0  0
 45 53  1  0  0  0
 46 47  1  0  0  0
 47 48  2  0  0  0
 48 49  1  0  0  0
 49 50  2  0  0  0
 51 53  2  0  0  0
 52 53  1  0  0  0
 17 18  2  0  0  0
 17 22  1  0  0  0
 18 19  1  0  0  0
 19 20  2  0  0  0
 19 23  1  0  0  0
 20 21  1  0  0  0
 20 26  1  0  0  0
 21 22  2  0  0  0
 22 27  1  0  0  0
 27 28  1  0  0  0
 27 29  2  0  0  0
 38 39  2  0  0  0
 39 40  1  0  0  0
 40 41  2  0  0  0
 23 24  2  0  0  0
 24 25  1  0  0  0
 25 26  2  0  0  0
  2  6  1  0  0  0
  8 10  1  0  0  0
 52 54  1  0  0  0
 28 30  1  0  0  0
 57 58  1  0  0  0
M  END
> <minimizedAffinity>
-7.34194

$$$$
1NNY_515_A_322


 58 62  0  0  0  0  0  0  0  0999 V2000
   31.3432   24.6311   19.2266 C   0  0  0  0  0  0  0  0  0  0  0  0
   30.3819   23.6176   19.6791 N   0  0  0  0  0  0  0  0  0  0  0  0
   29.5883   22.9732   18.7793 C   0  0  0  0  0  0  0  0  0  0  0  0
   29.5899   23.1596   17.5624 O   0  0  0  0  0  0  0  0  0  0  0  0
   28.6482   21.9519   19.4175 C   0  0  0  0  0  0  0  0  0  0  0  0
   30.3108   23.4029   20.6372 H   0  0  0  0  0  0  0  0  0  0  0  0
   30.6875   25.7406   18.3554 C   0  0  0  0  0  0  0  0  0  0  0  0
   29.5143   26.2716   18.8175 N   0  0  0  0  0  0  0  0  0  0  0  0
   31.2314   26.0781   17.3087 O   0  0  0  0  0  0  0  0  0  0  0  0
   29.1414   25.9459   19.6684 H   0  0  0  0  0  0  0  0  0  0  0  0
   28.7940   27.3221   18.0694 C   0  0  0  0  0  0  0  0  0  0  0  0
   29.1206   28.8024   18.4669 C   0  0  0  0  0  0  0  0  0  0  0  0
   28.9825   29.1843   19.9550 C   0  0  0  0  0  0  0  0  0  0  0  0
   30.1971   29.8190   20.7259 C   0  0  0  0  0  0  0  0  0  0  0  0
   31.5159   29.0597   21.0429 C   0  0  0  0  0  0  0  0  0  0  0  0
   32.7227   29.7067   20.5751 O   0  0  0  0  0  0  0  0  0  0  0  0
   33.7416   28.9333   19.9140 C   0  0  0  0  0  0  0  0  0  0  0  0
   33.5722   28.4220   18.5748 C   0  0  0  0  0  0  0  0  0  0  0  0
   34.5839   27.6600   17.9311 C   0  0  0  0  0  0  0  0  0  0  0  0
   35.8323   27.3748   18.6124 C   0  0  0  0  0  0  0  0  0  0  0  0
   36.0261   27.8691   19.9403 C   0  0  0  0  0  0  0  0  0  0  0  0
   34.9967   28.6346   20.5845 C   0  0  0  0  0  0  0  0  0  0  0  0
   34.3529   27.1739   16.6033 C   0  0  0  0  0  0  0  0  0  0  0  0
   35.3604   26.4038   15.9479 C   0  0  0  0  0  0  0  0  0  0  0  0
   36.5959   26.1196   16.6077 C   0  0  0  0  0  0  0  0  0  0  0  0
   36.8434   26.5983   17.9347 C   0  0  0  0  0  0  0  0  0  0  0  0
   35.2613   29.0992   21.9391 C   0  0  0  0  0  0  0  0  0  0  0  0
   34.4190   28.6680   22.8829 O   0  0  0  0  0  0  0  0  0  0  0  0
   36.1789   29.8211   22.1926 O   0  0  0  0  0  0  0  0  0  0  0  0
   33.7082   28.1023   22.6535 H   0  0  0  0  0  0  0  0  0  0  0  0
   32.5159   23.9115   18.4705 C   0  0  0  0  0  0  0  0  0  0  0  0
   36.3305   23.5558   19.5160 C   0  0  0  0  0  0  0  0  0  0  0  0
   36.2631   24.1214   20.8471 C   0  0  0  0  0  0  0  0  0  0  0  0
   34.9782   24.5995   21.3289 C   0  0  0  0  0  0  0  0  0  0  0  0
   33.8127   24.5280   20.5546 C   0  0  0  0  0  0  0  0  0  0  0  0
   33.8388   23.9742   19.2452 C   0  0  0  0  0  0  0  0  0  0  0  0
   35.1179   23.4776   18.7048 C   0  0  0  0  0  0  0  0  0  0  0  0
   37.5776   23.0642   18.9853 C   0  0  0  0  0  0  0  0  0  0  0  0
   37.6353   22.5063   17.6730 C   0  0  0  0  0  0  0  0  0  0  0  0
   36.4583   22.4267   16.8763 C   0  0  0  0  0  0  0  0  0  0  0  0
   35.2138   22.9056   17.3842 C   0  0  0  0  0  0  0  0  0  0  0  0
   37.3551   24.2452   21.7371 N   0  0  0  0  0  0  0  0  0  0  0  0
   37.8274   23.0862   22.4313 C   0  0  0  0  0  0  0  0  0  0  0  0
   38.8385   23.0815   23.1263 O   0  0  0  0  0  0  0  0  0  0  0  0
   37.8539   26.5643   22.8491 C   0  0  0  0  0  0  0  0  0  0  0  0
   38.0298   25.5294   21.8229 C   0  0  0  0  0  0  0  0  0  0  0  0
   38.9813   25.8390   20.7872 C   0  0  0  0  0  0  0  0  0  0  0  0
   39.7028   27.0373   20.7383 C   0  0  0  0  0  0  0  0  0  0  0  0
   39.5159   28.0081   21.7238 C   0  0  0  0  0  0  0  0  0  0  0  0
   38.6078   27.7710   22.7582 C   0  0  0  0  0  0  0  0  0  0  0  0
   36.5541   25.4633   24.4429 O   0  0  0  0  0  0  0  0  0  0  0  0
   36.5682   27.6656   24.6291 O   0  0  0  0  0  0  0  0  0  0  0  0
   36.9496   26.5197   24.0327 C   0  0  0  0  0  0  0  0  0  0  0  0
   36.8793   28.4882   24.3057 H   0  0  0  0  0  0  0  0  0  0  0  0
   37.0883   21.7380   22.3618 C   0  0  0  0  0  0  0  0  0  0  0  0
   36.0561   21.5277   22.9490 O   0  0  0  0  0  0  0  0  0  0  0  0
   37.6757   20.8142   21.5827 O   0  0  0  0  0  0  0  0  0  0  0  0
   38.4779   21.0144   21.1420 H   0  0  0  0  0  0  0  0  0  0  0  0
 32 33  2  0  0  0
 32 37  1  0  0  0
 32 38  1  0  0  0
 33 34  1  0  0  0
 33 42  1  0  0  0
 34 35  2  0  0  0
 35 36  1  0  0  0
 36 37  2  0  0  0
 36 31  1  0  0  0
 37 41  1  0  0  0
 42 43  1  0  0  0
 42 46  1  0  0  0
  1  2  1  0  0  0
  1  7  1  0  0  0
  1 31  1  0  0  0
  2  3  1  0  0  0
  3  4  2  0  0  0
  3  5  1  0  0  0
  7  8  1  0  0  0
  7  9  2  0  0  0
  8 11  1  0  0  0
 11 12  1  0  0  0
 12 13  1  0  0  0
 15 16  1  0  0  0
 15 14  1  0  0  0
 13 14  1  0  0  0
 16 17  1  0  0  0
 43 44  2  0  0  0
 43 55  1  0  0  0
 55 56  2  0  0  0
 55 57  1  0  0  0
 45 46  2  0  0  0
 45 50  1  0  0  0
 45 53  1  0  0  0
 46 47  1  0  0  0
 47 48  2  0  0  0
 48 49  1  0  0  0
 49 50  2  0  0  0
 51 53  2  0  0  0
 52 53  1  0  0  0
 17 18  2  0  0  0
 17 22  1  0  0  0
 18 19  1  0  0  0
 19 20  2  0  0  0
 19 23  1  0  0  0
 20 21  1  0  0  0
 20 26  1  0  0  0
 21 22  2  0  0  0
 22 27  1  0  0  0
 27 28  1  0  0  0
 27 29  2  0  0  0
 38 39  2  0  0  0
 39 40  1  0  0  0
 40 41  2  0  0  0
 23 24  2  0  0  0
 24 25  1  0  0  0
 25 26  2  0  0  0
  2  6  1  0  0  0
  8 10  1  0  0  0
 52 54  1  0  0  0
 28 30  1  0  0  0
 57 58  1  0  0  0
M  END
> <minimizedAffinity>
-7.28023

$$$$
1NNY_515_A_322


 58 62  0  0  0  0  0  0  0  0999 V2000
   33.5535   29.9244   19.3370 C   0  0  0  0  0  0  0  0  0  0  0  0
   34.2034   30.7951   18.3493 N   0  0  0  0  0  0  0  0  0  0  0  0
   34.2397   30.4367   17.0360 C   0  0  0  0  0  0  0  0  0  0  0  0
   33.7613   29.4058   16.5627 O   0  0  0  0  0  0  0  0  0  0  0  0
   34.9521   31.4541   16.1461 C   0  0  0  0  0  0  0  0  0  0  0  0
   34.6148   31.6417   18.6378 H   0  0  0  0  0  0  0  0  0  0  0  0
   32.0967   30.3617   19.6633 C   0  0  0  0  0  0  0  0  0  0  0  0
   31.3558   29.5059   20.4317 N   0  0  0  0  0  0  0  0  0  0  0  0
   31.6787   31.4263   19.2193 O   0  0  0  0  0  0  0  0  0  0  0  0
   31.7648   28.6688   20.7497 H   0  0  0  0  0  0  0  0  0  0  0  0
   29.9565   29.8087   20.7955 C   0  0  0  0  0  0  0  0  0  0  0  0
   28.8506   29.1358   19.9121 C   0  0  0  0  0  0  0  0  0  0  0  0
   27.3861   29.5400   20.1792 C   0  0  0  0  0  0  0  0  0  0  0  0
   27.0526   30.6586   21.2327 C   0  0  0  0  0  0  0  0  0  0  0  0
   26.9233   30.4011   22.7602 C   0  0  0  0  0  0  0  0  0  0  0  0
   26.3378   29.1273   23.1191 O   0  0  0  0  0  0  0  0  0  0  0  0
   24.9722   29.0672   23.5716 C   0  0  0  0  0  0  0  0  0  0  0  0
   24.2236   30.2514   23.9191 C   0  0  0  0  0  0  0  0  0  0  0  0
   22.8764   30.1814   24.3645 C   0  0  0  0  0  0  0  0  0  0  0  0
   22.2080   28.8991   24.4801 C   0  0  0  0  0  0  0  0  0  0  0  0
   22.9268   27.7098   24.1426 C   0  0  0  0  0  0  0  0  0  0  0  0
   24.2892   27.7897   23.6975 C   0  0  0  0  0  0  0  0  0  0  0  0
   22.1889   31.3924   24.7016 C   0  0  0  0  0  0  0  0  0  0  0  0
   20.8363   31.3341   25.1541 C   0  0  0  0  0  0  0  0  0  0  0  0
   20.1663   30.0769   25.2684 C   0  0  0  0  0  0  0  0  0  0  0  0
   20.8384   28.8569   24.9350 C   0  0  0  0  0  0  0  0  0  0  0  0
   24.9600   26.5372   23.3780 C   0  0  0  0  0  0  0  0  0  0  0  0
   25.6827   26.5283   22.2538 O   0  0  0  0  0  0  0  0  0  0  0  0
   24.8721   25.5751   24.0808 O   0  0  0  0  0  0  0  0  0  0  0  0
   25.7328   27.2987   21.7229 H   0  0  0  0  0  0  0  0  0  0  0  0
   34.4488   29.8676   20.6254 C   0  0  0  0  0  0  0  0  0  0  0  0
   36.7362   26.8718   21.8759 C   0  0  0  0  0  0  0  0  0  0  0  0
   37.0234   26.2476   20.6014 C   0  0  0  0  0  0  0  0  0  0  0  0
   36.4459   26.8308   19.4023 C   0  0  0  0  0  0  0  0  0  0  0  0
   35.6305   27.9695   19.4396 C   0  0  0  0  0  0  0  0  0  0  0  0
   35.3308   28.6129   20.6717 C   0  0  0  0  0  0  0  0  0  0  0  0
   35.8875   28.0601   21.9204 C   0  0  0  0  0  0  0  0  0  0  0  0
   37.2825   26.3382   23.0988 C   0  0  0  0  0  0  0  0  0  0  0  0
   36.9963   26.9605   24.3508 C   0  0  0  0  0  0  0  0  0  0  0  0
   36.1700   28.1186   24.4025 C   0  0  0  0  0  0  0  0  0  0  0  0
   35.6217   28.6635   23.2032 C   0  0  0  0  0  0  0  0  0  0  0  0
   37.8359   25.1047   20.4175 N   0  0  0  0  0  0  0  0  0  0  0  0
   39.2430   25.2712   20.2158 C   0  0  0  0  0  0  0  0  0  0  0  0
   40.0331   24.3337   20.1676 O   0  0  0  0  0  0  0  0  0  0  0  0
   37.5040   22.7799   21.5788 C   0  0  0  0  0  0  0  0  0  0  0  0
   37.2217   23.7951   20.5567 C   0  0  0  0  0  0  0  0  0  0  0  0
   36.2210   23.4353   19.5855 C   0  0  0  0  0  0  0  0  0  0  0  0
   35.5481   22.2081   19.5925 C   0  0  0  0  0  0  0  0  0  0  0  0
   35.8362   21.2569   20.5728 C   0  0  0  0  0  0  0  0  0  0  0  0
   36.7965   21.5426   21.5460 C   0  0  0  0  0  0  0  0  0  0  0  0
   38.0881   23.1162   23.8121 O   0  0  0  0  0  0  0  0  0  0  0  0
   39.7928   22.7027   22.4674 O   0  0  0  0  0  0  0  0  0  0  0  0
   38.4778   22.8746   22.7028 C   0  0  0  0  0  0  0  0  0  0  0  0
   40.0927   22.5142   21.5999 H   0  0  0  0  0  0  0  0  0  0  0  0
   39.8810   26.6601   20.0362 C   0  0  0  0  0  0  0  0  0  0  0  0
   39.9573   27.2106   18.9658 O   0  0  0  0  0  0  0  0  0  0  0  0
   40.3358   27.2210   21.1693 O   0  0  0  0  0  0  0  0  0  0  0  0
   40.2589   26.7623   21.9827 H   0  0  0  0  0  0  0  0  0  0  0  0
 32 33  2  0  0  0
 32 37  1  0  0  0
 32 38  1  0  0  0
 33 34  1  0  0  0
 33 42  1  0  0  0
 34 35  2  0  0  0
 35 36  1  0  0  0
 36 37  2  0  0  0
 36 31  1  0  0  0
 37 41  1  0  0  0
 42 43  1  0  0  0
 42 46  1  0  0  0
  1  2  1  0  0  0
  1  7  1  0  0  0
  1 31  1  0  0  0
  2  3  1  0  0  0
  3  4  2  0  0  0
  3  5  1  0  0  0
  7  8  1  0  0  0
  7  9  2  0  0  0
  8 11  1  0  0  0
 11 12  1  0  0  0
 12 13  1  0  0  0
 15 16  1  0  0  0
 15 14  1  0  0  0
 13 14  1  0  0  0
 16 17  1  0  0  0
 43 44  2  0  0  0
 43 55  1  0  0  0
 55 56  2  0  0  0
 55 57  1  0  0  0
 45 46  2  0  0  0
 45 50  1  0  0  0
 45 53  1  0  0  0
 46 47  1  0  0  0
 47 48  2  0  0  0
 48 49  1  0  0  0
 49 50  2  0  0  0
 51 53  2  0  0  0
 52 53  1  0  0  0
 17 18  2  0  0  0
 17 22  1  0  0  0
 18 19  1  0  0  0
 19 20  2  0  0  0
 19 23  1  0  0  0
 20 21  1  0  0  0
 20 26  1  0  0  0
 21 22  2  0  0  0
 22 27  1  0  0  0
 27 28  1  0  0  0
 27 29  2  0  0  0
 38 39  2  0  0  0
 39 40  1  0  0  0
 40 41  2  0  0  0
 23 24  2  0  0  0
 24 25  1  0  0  0
 25 26  2  0  0  0
  2  6  1  0  0  0
  8 10  1  0  0  0
 52 54  1  0  0  0
 28 30  1  0  0  0
 57 58  1  0  0  0
M  END
> <minimizedAffinity>
-7.24984

$$$$
1NNY_515_A_322


 58 62  0  0  0  0  0  0  0  0999 V2000
   31.5408   29.6777   18.9927 C   0  0  0  0  0  0  0  0  0  0  0  0
   30.0932   29.4372   19.0404 N   0  0  0  0  0  0  0  0  0  0  0  0
   29.4187   29.5366   20.2192 C   0  0  0  0  0  0  0  0  0  0  0  0
   29.9191   29.8210   21.3075 O   0  0  0  0  0  0  0  0  0  0  0  0
   27.9223   29.2559   20.0907 C   0  0  0  0  0  0  0  0  0  0  0  0
   29.6079   29.2030   18.2164 H   0  0  0  0  0  0  0  0  0  0  0  0
   31.9165   30.9495   18.1794 C   0  0  0  0  0  0  0  0  0  0  0  0
   31.6782   30.9103   16.8328 N   0  0  0  0  0  0  0  0  0  0  0  0
   32.4095   31.9088   18.7642 O   0  0  0  0  0  0  0  0  0  0  0  0
   31.2791   30.1012   16.4385 H   0  0  0  0  0  0  0  0  0  0  0  0
   32.0055   32.0535   15.9565 C   0  0  0  0  0  0  0  0  0  0  0  0
   33.1861   31.8374   14.9488 C   0  0  0  0  0  0  0  0  0  0  0  0
   34.6172   32.0825   15.4696 C   0  0  0  0  0  0  0  0  0  0  0  0
   35.8506   31.4576   14.7208 C   0  0  0  0  0  0  0  0  0  0  0  0
   35.7497   30.2678   13.7256 C   0  0  0  0  0  0  0  0  0  0  0  0
   36.7659   29.2498   13.8830 O   0  0  0  0  0  0  0  0  0  0  0  0
   36.5953   28.2114   14.8658 C   0  0  0  0  0  0  0  0  0  0  0  0
   35.3361   27.5324   15.0575 C   0  0  0  0  0  0  0  0  0  0  0  0
   35.1781   26.5088   16.0299 C   0  0  0  0  0  0  0  0  0  0  0  0
   36.2959   26.1121   16.8652 C   0  0  0  0  0  0  0  0  0  0  0  0
   37.5549   26.7689   16.6963 C   0  0  0  0  0  0  0  0  0  0  0  0
   37.7042   27.8051   15.7141 C   0  0  0  0  0  0  0  0  0  0  0  0
   33.9005   25.8774   16.1774 C   0  0  0  0  0  0  0  0  0  0  0  0
   33.7287   24.8504   17.1538 C   0  0  0  0  0  0  0  0  0  0  0  0
   34.8236   24.4486   17.9798 C   0  0  0  0  0  0  0  0  0  0  0  0
   36.1076   25.0688   17.8453 C   0  0  0  0  0  0  0  0  0  0  0  0
   39.0130   28.4339   15.6031 C   0  0  0  0  0  0  0  0  0  0  0  0
   39.0159   29.7625   15.4587 O   0  0  0  0  0  0  0  0  0  0  0  0
   40.0249   27.8000   15.6418 O   0  0  0  0  0  0  0  0  0  0  0  0
   38.2058   30.2326   15.4318 H   0  0  0  0  0  0  0  0  0  0  0  0
   32.2468   28.3939   18.4287 C   0  0  0  0  0  0  0  0  0  0  0  0
   35.9005   28.0966   19.9560 C   0  0  0  0  0  0  0  0  0  0  0  0
   35.6683   27.0382   20.9164 C   0  0  0  0  0  0  0  0  0  0  0  0
   34.3287   26.4853   21.0227 C   0  0  0  0  0  0  0  0  0  0  0  0
   33.2654   26.9373   20.2303 C   0  0  0  0  0  0  0  0  0  0  0  0
   33.4563   27.9710   19.2728 C   0  0  0  0  0  0  0  0  0  0  0  0
   34.7955   28.5709   19.1263 C   0  0  0  0  0  0  0  0  0  0  0  0
   37.2092   28.6826   19.8055 C   0  0  0  0  0  0  0  0  0  0  0  0
   37.4303   29.7241   18.8552 C   0  0  0  0  0  0  0  0  0  0  0  0
   36.3587   30.1918   18.0431 C   0  0  0  0  0  0  0  0  0  0  0  0
   35.0567   29.6233   18.1753 C   0  0  0  0  0  0  0  0  0  0  0  0
   36.6491   26.4813   21.7696 N   0  0  0  0  0  0  0  0  0  0  0  0
   36.8121   27.0117   23.0888 C   0  0  0  0  0  0  0  0  0  0  0  0
   37.5528   26.5124   23.9300 O   0  0  0  0  0  0  0  0  0  0  0  0
   38.7078   25.2722   20.6909 C   0  0  0  0  0  0  0  0  0  0  0  0
   37.3766   25.3108   21.3087 C   0  0  0  0  0  0  0  0  0  0  0  0
   36.7290   24.0342   21.4661 C   0  0  0  0  0  0  0  0  0  0  0  0
   37.3068   22.8238   21.0660 C   0  0  0  0  0  0  0  0  0  0  0  0
   38.5726   22.8126   20.4775 C   0  0  0  0  0  0  0  0  0  0  0  0
   39.2565   24.0169   20.2962 C   0  0  0  0  0  0  0  0  0  0  0  0
   39.9499   26.6549   19.2813 O   0  0  0  0  0  0  0  0  0  0  0  0
   40.0447   27.1991   21.4213 O   0  0  0  0  0  0  0  0  0  0  0  0
   39.6076   26.4260   20.4087 C   0  0  0  0  0  0  0  0  0  0  0  0
   39.7751   27.0169   22.3000 H   0  0  0  0  0  0  0  0  0  0  0  0
   36.0628   28.2714   23.5582 C   0  0  0  0  0  0  0  0  0  0  0  0
   34.9613   28.2320   24.0478 O   0  0  0  0  0  0  0  0  0  0  0  0
   36.7376   29.4215   23.3933 O   0  0  0  0  0  0  0  0  0  0  0  0
   37.5920   29.4123   23.0087 H   0  0  0  0  0  0  0  0  0  0  0  0
 32 33  2  0  0  0
 32 37  1  0  0  0
 32 38  1  0  0  0
 33 34  1  0  0  0
 33 42  1  0  0  0
 34 35  2  0  0  0
 35 36  1  0  0  0
 36 37  2  0  0  0
 36 31  1  0  0  0
 37 41  1  0  0  0
 42 43  1  0  0  0
 42 46  1  0  0  0
  1  2  1  0  0  0
  1  7  1  0  0  0
  1 31  1  0  0  0
  2  3  1  0  0  0
  3  4  2  0  0  0
  3  5  1  0  0  0
  7  8  1  0  0  0
  7  9  2  0  0  0
  8 11  1  0  0  0
 11 12  1  0  0  0
 12 13  1  0  0  0
 15 16  1  0  0  0
 15 14  1  0  0  0
 13 14  1  0  0  0
 16 17  1  0  0  0
 43 44  2  0  0  0
 43 55  1  0  0  0
 55 56  2  0  0  0
 55 57  1  0  0  0
 45 46  2  0  0  0
 45 50  1  0  0  0
 45 53  1  0  0  0
 46 47  1  0  0  0
 47 48  2  0  0  0
 48 49  1  0  0  0
 49 50  2  0  0  0
 51 53  2  0  0  0
 52 53  1  0  0  0
 17 18  2  0  0  0
 17 22  1  0  0  0
 18 19  1  0  0  0
 19 20  2  0  0  0
 19 23  1  0  0  0
 20 21  1  0  0  0
 20 26  1  0  0  0
 21 22  2  0  0  0
 22 27  1  0  0  0
 27 28  1  0  0  0
 27 29  2  0  0  0
 38 39  2  0  0  0
 39 40  1  0  0  0
 40 41  2  0  0  0
 23 24  2  0  0  0
 24 25  1  0  0  0
 25 26  2  0  0  0
  2  6  1  0  0  0
  8 10  1  0  0  0
 52 54  1  0  0  0
 28 30  1  0  0  0
 57 58  1  0  0  0
M  END
> <minimizedAffinity>
-7.24396

$$$$
1NNY_515_A_322


 58 62  0  0  0  0  0  0  0  0999 V2000
   31.3785   25.0901   19.3045 C   0  0  0  0  0  0  0  0  0  0  0  0
   29.9568   24.7447   19.1797 N   0  0  0  0  0  0  0  0  0  0  0  0
   29.4631   24.2832   17.9974 C   0  0  0  0  0  0  0  0  0  0  0  0
   30.1154   24.1162   16.9667 O   0  0  0  0  0  0  0  0  0  0  0  0
   27.9679   23.9721   18.0412 C   0  0  0  0  0  0  0  0  0  0  0  0
   29.3578   24.8472   19.9543 H   0  0  0  0  0  0  0  0  0  0  0  0
   31.8152   26.2181   18.3264 C   0  0  0  0  0  0  0  0  0  0  0  0
   32.4780   25.8279   17.1950 N   0  0  0  0  0  0  0  0  0  0  0  0
   31.5624   27.3850   18.6089 O   0  0  0  0  0  0  0  0  0  0  0  0
   32.6428   24.8696   17.0407 H   0  0  0  0  0  0  0  0  0  0  0  0
   32.9523   26.8107   16.1994 C   0  0  0  0  0  0  0  0  0  0  0  0
   34.4081   27.3542   16.4026 C   0  0  0  0  0  0  0  0  0  0  0  0
   35.5739   26.3922   16.0944 C   0  0  0  0  0  0  0  0  0  0  0  0
   36.8815   26.4271   16.9671 C   0  0  0  0  0  0  0  0  0  0  0  0
   37.9631   27.5388   16.8654 C   0  0  0  0  0  0  0  0  0  0  0  0
   38.0111   28.4510   17.9877 O   0  0  0  0  0  0  0  0  0  0  0  0
   36.7873   28.9348   18.5722 C   0  0  0  0  0  0  0  0  0  0  0  0
   36.1961   28.3221   19.7377 C   0  0  0  0  0  0  0  0  0  0  0  0
   34.9883   28.8073   20.3070 C   0  0  0  0  0  0  0  0  0  0  0  0
   34.3101   29.9496   19.7243 C   0  0  0  0  0  0  0  0  0  0  0  0
   34.8740   30.5754   18.5688 C   0  0  0  0  0  0  0  0  0  0  0  0
   36.0926   30.0757   17.9978 C   0  0  0  0  0  0  0  0  0  0  0  0
   34.4473   28.1512   21.4602 C   0  0  0  0  0  0  0  0  0  0  0  0
   33.2322   28.6273   22.0385 C   0  0  0  0  0  0  0  0  0  0  0  0
   32.5571   29.7542   21.4754 C   0  0  0  0  0  0  0  0  0  0  0  0
   33.0842   30.4220   20.3233 C   0  0  0  0  0  0  0  0  0  0  0  0
   36.6043   30.7587   16.8177 C   0  0  0  0  0  0  0  0  0  0  0  0
   37.8301   31.2799   16.9261 O   0  0  0  0  0  0  0  0  0  0  0  0
   35.9671   30.8456   15.8109 O   0  0  0  0  0  0  0  0  0  0  0  0
   38.3057   31.1957   17.7290 H   0  0  0  0  0  0  0  0  0  0  0  0
   32.2325   23.7869   19.1120 C   0  0  0  0  0  0  0  0  0  0  0  0
   36.1637   23.6755   19.6633 C   0  0  0  0  0  0  0  0  0  0  0  0
   36.2231   24.1526   21.0290 C   0  0  0  0  0  0  0  0  0  0  0  0
   34.9776   24.4964   21.6941 C   0  0  0  0  0  0  0  0  0  0  0  0
   33.7325   24.3785   21.0626 C   0  0  0  0  0  0  0  0  0  0  0  0
   33.6341   23.9086   19.7242 C   0  0  0  0  0  0  0  0  0  0  0  0
   34.8679   23.5495   19.0005 C   0  0  0  0  0  0  0  0  0  0  0  0
   37.3666   23.3182   18.9534 C   0  0  0  0  0  0  0  0  0  0  0  0
   37.2995   22.8469   17.6080 C   0  0  0  0  0  0  0  0  0  0  0  0
   36.0406   22.7215   16.9552 C   0  0  0  0  0  0  0  0  0  0  0  0
   34.8384   23.0677   17.6414 C   0  0  0  0  0  0  0  0  0  0  0  0
   37.4063   24.3096   21.7875 N   0  0  0  0  0  0  0  0  0  0  0  0
   38.0063   23.1609   22.3946 C   0  0  0  0  0  0  0  0  0  0  0  0
   39.0917   23.1894   22.9661 O   0  0  0  0  0  0  0  0  0  0  0  0
   37.8058   26.6916   22.8025 C   0  0  0  0  0  0  0  0  0  0  0  0
   38.0309   25.6213   21.8233 C   0  0  0  0  0  0  0  0  0  0  0  0
   38.9800   25.9225   20.7830 C   0  0  0  0  0  0  0  0  0  0  0  0
   39.6560   27.1444   20.6883 C   0  0  0  0  0  0  0  0  0  0  0  0
   39.4228   28.1486   21.6295 C   0  0  0  0  0  0  0  0  0  0  0  0
   38.5143   27.9213   22.6658 C   0  0  0  0  0  0  0  0  0  0  0  0
   36.4292   27.6870   24.4012 O   0  0  0  0  0  0  0  0  0  0  0  0
   36.6010   25.4903   24.5743 O   0  0  0  0  0  0  0  0  0  0  0  0
   36.8924   26.6631   23.9795 C   0  0  0  0  0  0  0  0  0  0  0  0
   36.9647   24.6933   24.2418 H   0  0  0  0  0  0  0  0  0  0  0  0
   37.3225   21.7822   22.3810 C   0  0  0  0  0  0  0  0  0  0  0  0
   36.4180   21.4942   23.1249 O   0  0  0  0  0  0  0  0  0  0  0  0
   37.8025   20.9253   21.4641 O   0  0  0  0  0  0  0  0  0  0  0  0
   38.5067   21.1852   20.9034 H   0  0  0  0  0  0  0  0  0  0  0  0
 32 33  2  0  0  0
 32 37  1  0  0  0
 32 38  1  0  0  0
 33 34  1  0  0  0
 33 42  1  0  0  0
 34 35  2  0  0  0
 35 36  1  0  0  0
 36 37  2  0  0  0
 36 31  1  0  0  0
 37 41  1  0  0  0
 42 43  1  0  0  0
 42 46  1  0  0  0
  1  2  1  0  0  0
  1  7  1  0  0  0
  1 31  1  0  0  0
  2  3  1  0  0  0
  3  4  2  0  0  0
  3  5  1  0  0  0
  7  8  1  0  0  0
  7  9  2  0  0  0
  8 11  1  0  0  0
 11 12  1  0  0  0
 12 13  1  0  0  0
 15 16  1  0  0  0
 15 14  1  0  0  0
 13 14  1  0  0  0
 16 17  1  0  0  0
 43 44  2  0  0  0
 43 55  1  0  0  0
 55 56  2  0  0  0
 55 57  1  0  0  0
 45 46  2  0  0  0
 45 50  1  0  0  0
 45 53  1  0  0  0
 46 47  1  0  0  0
 47 48  2  0  0  0
 48 49  1  0  0  0
 49 50  2  0  0  0
 51 53  2  0  0  0
 52 53  1  0  0  0
 17 18  2  0  0  0
 17 22  1  0  0  0
 18 19  1  0  0  0
 19 20  2  0  0  0
 19 23  1  0  0  0
 20 21  1  0  0  0
 20 26  1  0  0  0
 21 22  2  0  0  0
 22 27  1  0  0  0
 27 28  1  0  0  0
 27 29  2  0  0  0
 38 39  2  0  0  0
 39 40  1  0  0  0
 40 41  2  0  0  0
 23 24  2  0  0  0
 24 25  1  0  0  0
 25 26  2  0  0  0
  2  6  1  0  0  0
  8 10  1  0  0  0
 52 54  1  0  0  0
 28 30  1  0  0  0
 57 58  1  0  0  0
M  END
> <minimizedAffinity>
-7.24340

$$$$
1NNY_515_A_322


 58 62  0  0  0  0  0  0  0  0999 V2000
   32.6621   25.2423   17.1201 C   0  0  0  0  0  0  0  0  0  0  0  0
   33.2243   24.5597   15.9480 N   0  0  0  0  0  0  0  0  0  0  0  0
   33.8647   23.3662   16.0896 C   0  0  0  0  0  0  0  0  0  0  0  0
   34.0325   22.7665   17.1515 O   0  0  0  0  0  0  0  0  0  0  0  0
   34.3874   22.7950   14.7724 C   0  0  0  0  0  0  0  0  0  0  0  0
   33.1379   24.9667   15.0557 H   0  0  0  0  0  0  0  0  0  0  0  0
   31.1629   25.6170   16.9408 C   0  0  0  0  0  0  0  0  0  0  0  0
   30.8849   26.9311   16.6807 N   0  0  0  0  0  0  0  0  0  0  0  0
   30.3110   24.7407   17.0483 O   0  0  0  0  0  0  0  0  0  0  0  0
   31.6266   27.5745   16.6097 H   0  0  0  0  0  0  0  0  0  0  0  0
   29.4977   27.4071   16.5040 C   0  0  0  0  0  0  0  0  0  0  0  0
   28.8699   28.1758   17.7169 C   0  0  0  0  0  0  0  0  0  0  0  0
   29.7762   28.4361   18.9377 C   0  0  0  0  0  0  0  0  0  0  0  0
   29.4599   29.6219   19.9205 C   0  0  0  0  0  0  0  0  0  0  0  0
   30.5392   30.5757   20.5052 C   0  0  0  0  0  0  0  0  0  0  0  0
   31.3098   31.3050   19.5212 O   0  0  0  0  0  0  0  0  0  0  0  0
   32.6498   30.8846   19.2035 C   0  0  0  0  0  0  0  0  0  0  0  0
   33.6567   30.6902   20.2193 C   0  0  0  0  0  0  0  0  0  0  0  0
   34.9762   30.2749   19.8953 C   0  0  0  0  0  0  0  0  0  0  0  0
   35.3496   30.0292   18.5153 C   0  0  0  0  0  0  0  0  0  0  0  0
   34.3713   30.2147   17.4889 C   0  0  0  0  0  0  0  0  0  0  0  0
   33.0416   30.6386   17.8250 C   0  0  0  0  0  0  0  0  0  0  0  0
   35.9331   30.1065   20.9483 C   0  0  0  0  0  0  0  0  0  0  0  0
   37.2630   29.6935   20.6346 C   0  0  0  0  0  0  0  0  0  0  0  0
   37.6414   29.4449   19.2791 C   0  0  0  0  0  0  0  0  0  0  0  0
   36.6973   29.6077   18.2144 C   0  0  0  0  0  0  0  0  0  0  0  0
   32.1008   30.8133   16.7272 C   0  0  0  0  0  0  0  0  0  0  0  0
   31.6781   32.0622   16.5091 O   0  0  0  0  0  0  0  0  0  0  0  0
   31.7307   29.8948   16.0589 O   0  0  0  0  0  0  0  0  0  0  0  0
   31.9863   32.7623   17.0503 H   0  0  0  0  0  0  0  0  0  0  0  0
   33.5442   26.5004   17.4420 C   0  0  0  0  0  0  0  0  0  0  0  0
   35.1638   26.4795   21.0679 C   0  0  0  0  0  0  0  0  0  0  0  0
   36.3988   25.7849   20.7696 C   0  0  0  0  0  0  0  0  0  0  0  0
   36.6325   25.3500   19.4029 C   0  0  0  0  0  0  0  0  0  0  0  0
   35.7108   25.5824   18.3736 C   0  0  0  0  0  0  0  0  0  0  0  0
   34.4900   26.2658   18.6272 C   0  0  0  0  0  0  0  0  0  0  0  0
   34.1999   26.7255   19.9981 C   0  0  0  0  0  0  0  0  0  0  0  0
   34.8781   26.9355   22.4054 C   0  0  0  0  0  0  0  0  0  0  0  0
   33.6594   27.6211   22.6909 C   0  0  0  0  0  0  0  0  0  0  0  0
   32.7150   27.8646   21.6539 C   0  0  0  0  0  0  0  0  0  0  0  0
   32.9802   27.4233   20.3232 C   0  0  0  0  0  0  0  0  0  0  0  0
   37.4177   25.4938   21.7062 N   0  0  0  0  0  0  0  0  0  0  0  0
   37.5631   24.1543   22.1887 C   0  0  0  0  0  0  0  0  0  0  0  0
   38.4899   23.7929   22.9070 O   0  0  0  0  0  0  0  0  0  0  0  0
   39.5450   26.9699   21.3071 C   0  0  0  0  0  0  0  0  0  0  0  0
   38.3533   26.5497   22.0545 C   0  0  0  0  0  0  0  0  0  0  0  0
   38.0978   27.2749   23.2722 C   0  0  0  0  0  0  0  0  0  0  0  0
   38.9137   28.3137   23.7348 C   0  0  0  0  0  0  0  0  0  0  0  0
   40.0438   28.6932   23.0085 C   0  0  0  0  0  0  0  0  0  0  0  0
   40.3490   28.0310   21.8172 C   0  0  0  0  0  0  0  0  0  0  0  0
   40.1540   27.1195   19.0603 O   0  0  0  0  0  0  0  0  0  0  0  0
   40.3776   25.1051   19.9420 O   0  0  0  0  0  0  0  0  0  0  0  0
   40.0510   26.4094   20.0225 C   0  0  0  0  0  0  0  0  0  0  0  0
   40.2957   24.5543   20.6956 H   0  0  0  0  0  0  0  0  0  0  0  0
   36.5492   23.0495   21.8421 C   0  0  0  0  0  0  0  0  0  0  0  0
   36.7554   22.2157   20.9955 O   0  0  0  0  0  0  0  0  0  0  0  0
   35.4183   23.0763   22.5672 O   0  0  0  0  0  0  0  0  0  0  0  0
   35.2938   23.7402   23.2167 H   0  0  0  0  0  0  0  0  0  0  0  0
 32 33  2  0  0  0
 32 37  1  0  0  0
 32 38  1  0  0  0
 33 34  1  0  0  0
 33 42  1  0  0  0
 34 35  2  0  0  0
 35 36  1  0  0  0
 36 37  2  0  0  0
 36 31  1  0  0  0
 37 41  1  0  0  0
 42 43  1  0  0  0
 42 46  1  0  0  0
  1  2  1  0  0  0
  1  7  1  0  0  0
  1 31  1  0  0  0
  2  3  1  0  0  0
  3  4  2  0  0  0
  3  5  1  0  0  0
  7  8  1  0  0  0
  7  9  2  0  0  0
  8 11  1  0  0  0
 11 12  1  0  0  0
 12 13  1  0  0  0
 15 16  1  0  0  0
 15 14  1  0  0  0
 13 14  1  0  0  0
 16 17  1  0  0  0
 43 44  2  0  0  0
 43 55  1  0  0  0
 55 56  2  0  0  0
 55 57  1  0  0  0
 45 46  2  0  0  0
 45 50  1  0  0  0
 45 53  1  0  0  0
 46 47  1  0  0  0
 47 48  2  0  0  0
 48 49  1  0  0  0
 49 50  2  0  0  0
 51 53  2  0  0  0
 52 53  1  0  0  0
 17 18  2  0  0  0
 17 22  1  0  0  0
 18 19  1  0  0  0
 19 20  2  0  0  0
 19 23  1  0  0  0
 20 21  1  0  0  0
 20 26  1  0  0  0
 21 22  2  0  0  0
 22 27  1  0  0  0
 27 28  1  0  0  0
 27 29  2  0  0  0
 38 39  2  0  0  0
 39 40  1  0  0  0
 40 41  2  0  0  0
 23 24  2  0  0  0
 24 25  1  0  0  0
 25 26  2  0  0  0
  2  6  1  0  0  0
  8 10  1  0  0  0
 52 54  1  0  0  0
 28 30  1  0  0  0
 57 58  1  0  0  0
M  END
> <minimizedAffinity>
-7.16610

$$$$
1NNY_515_A_322


 58 62  0  0  0  0  0  0  0  0999 V2000
   32.5526   30.7604   17.7280 C   0  0  0  0  0  0  0  0  0  0  0  0
   32.0771   31.9205   16.9639 N   0  0  0  0  0  0  0  0  0  0  0  0
   32.9067   32.5539   16.0892 C   0  0  0  0  0  0  0  0  0  0  0  0
   34.0751   32.2421   15.8585 O   0  0  0  0  0  0  0  0  0  0  0  0
   32.2537   33.7385   15.3788 C   0  0  0  0  0  0  0  0  0  0  0  0
   31.1544   32.2419   17.0844 H   0  0  0  0  0  0  0  0  0  0  0  0
   31.4803   29.6409   17.8583 C   0  0  0  0  0  0  0  0  0  0  0  0
   30.4277   29.8927   18.6951 N   0  0  0  0  0  0  0  0  0  0  0  0
   31.6253   28.5983   17.2280 O   0  0  0  0  0  0  0  0  0  0  0  0
   30.3839   30.7561   19.1663 H   0  0  0  0  0  0  0  0  0  0  0  0
   29.3552   28.8996   18.9083 C   0  0  0  0  0  0  0  0  0  0  0  0
   28.4090   29.1543   20.1313 C   0  0  0  0  0  0  0  0  0  0  0  0
   26.9673   29.6124   19.8295 C   0  0  0  0  0  0  0  0  0  0  0  0
   26.1122   30.3216   20.9422 C   0  0  0  0  0  0  0  0  0  0  0  0
   26.5729   30.4858   22.4177 C   0  0  0  0  0  0  0  0  0  0  0  0
   26.1876   29.4080   23.3031 O   0  0  0  0  0  0  0  0  0  0  0  0
   24.8045   29.2360   23.6648 C   0  0  0  0  0  0  0  0  0  0  0  0
   23.9863   30.3336   24.1223 C   0  0  0  0  0  0  0  0  0  0  0  0
   22.6224   30.1534   24.4767 C   0  0  0  0  0  0  0  0  0  0  0  0
   22.0075   28.8429   24.3834 C   0  0  0  0  0  0  0  0  0  0  0  0
   22.7956   27.7378   23.9334 C   0  0  0  0  0  0  0  0  0  0  0  0
   24.1742   27.9283   23.5815 C   0  0  0  0  0  0  0  0  0  0  0  0
   21.8645   31.2813   24.9310 C   0  0  0  0  0  0  0  0  0  0  0  0
   20.4943   31.1116   25.2936 C   0  0  0  0  0  0  0  0  0  0  0  0
   19.8767   29.8261   25.2023 C   0  0  0  0  0  0  0  0  0  0  0  0
   20.6195   28.6882   24.7496 C   0  0  0  0  0  0  0  0  0  0  0  0
   24.9165   26.7564   23.1382 C   0  0  0  0  0  0  0  0  0  0  0  0
   25.4360   25.9908   24.1026 O   0  0  0  0  0  0  0  0  0  0  0  0
   25.0508   26.4930   21.9807 O   0  0  0  0  0  0  0  0  0  0  0  0
   25.3138   26.2231   25.0021 H   0  0  0  0  0  0  0  0  0  0  0  0
   33.0563   31.2529   19.1310 C   0  0  0  0  0  0  0  0  0  0  0  0
   35.7970   28.6534   20.3562 C   0  0  0  0  0  0  0  0  0  0  0  0
   35.0640   28.0320   21.4393 C   0  0  0  0  0  0  0  0  0  0  0  0
   33.7180   28.5022   21.7198 C   0  0  0  0  0  0  0  0  0  0  0  0
   33.1114   29.5258   20.9801 C   0  0  0  0  0  0  0  0  0  0  0  0
   33.7979   30.1559   19.9061 C   0  0  0  0  0  0  0  0  0  0  0  0
   35.1688   29.7204   19.5808 C   0  0  0  0  0  0  0  0  0  0  0  0
   37.1355   28.2275   20.0312 C   0  0  0  0  0  0  0  0  0  0  0  0
   37.8507   28.8436   18.9609 C   0  0  0  0  0  0  0  0  0  0  0  0
   37.2455   29.8841   18.2007 C   0  0  0  0  0  0  0  0  0  0  0  0
   35.9209   30.3183   18.5052 C   0  0  0  0  0  0  0  0  0  0  0  0
   35.5489   26.9853   22.2575 N   0  0  0  0  0  0  0  0  0  0  0  0
   35.9901   27.2824   23.5861 C   0  0  0  0  0  0  0  0  0  0  0  0
   36.3114   26.4210   24.3986 O   0  0  0  0  0  0  0  0  0  0  0  0
   36.5516   24.6341   21.6830 C   0  0  0  0  0  0  0  0  0  0  0  0
   35.4708   25.6252   21.7518 C   0  0  0  0  0  0  0  0  0  0  0  0
   34.1932   25.1846   21.2542 C   0  0  0  0  0  0  0  0  0  0  0  0
   33.9697   23.9043   20.7349 C   0  0  0  0  0  0  0  0  0  0  0  0
   35.0141   22.9799   20.6765 C   0  0  0  0  0  0  0  0  0  0  0  0
   36.2795   23.3427   21.1438 C   0  0  0  0  0  0  0  0  0  0  0  0
   38.3811   24.1689   23.0535 O   0  0  0  0  0  0  0  0  0  0  0  0
   38.7648   25.6821   21.4890 O   0  0  0  0  0  0  0  0  0  0  0  0
   37.9645   24.8048   22.1247 C   0  0  0  0  0  0  0  0  0  0  0  0
   38.4356   26.1765   20.7643 H   0  0  0  0  0  0  0  0  0  0  0  0
   36.1015   28.7278   24.1029 C   0  0  0  0  0  0  0  0  0  0  0  0
   37.0037   29.4652   23.7916 O   0  0  0  0  0  0  0  0  0  0  0  0
   35.1058   29.1115   24.9194 O   0  0  0  0  0  0  0  0  0  0  0  0
   34.4217   28.5100   25.1388 H   0  0  0  0  0  0  0  0  0  0  0  0
 32 33  2  0  0  0
 32 37  1  0  0  0
 32 38  1  0  0  0
 33 34  1  0  0  0
 33 42  1  0  0  0
 34 35  2  0  0  0
 35 36  1  0  0  0
 36 37  2  0  0  0
 36 31  1  0  0  0
 37 41  1  0  0  0
 42 43  1  0  0  0
 42 46  1  0  0  0
  1  2  1  0  0  0
  1  7  1  0  0  0
  1 31  1  0  0  0
  2  3  1  0  0  0
  3  4  2  0  0  0
  3  5  1  0  0  0
  7  8  1  0  0  0
  7  9  2  0  0  0
  8 11  1  0  0  0
 11 12  1  0  0  0
 12 13  1  0  0  0
 15 16  1  0  0  0
 15 14  1  0  0  0
 13 14  1  0  0  0
 16 17  1  0  0  0
 43 44  2  0  0  0
 43 55  1  0  0  0
 55 56  2  0  0  0
 55 57  1  0  0  0
 45 46  2  0  0  0
 45 50  1  0  0  0
 45 53  1  0  0  0
 46 47  1  0  0  0
 47 48  2  0  0  0
 48 49  1  0  0  0
 49 50  2  0  0  0
 51 53  2  0  0  0
 52 53  1  0  0  0
 17 18  2  0  0  0
 17 22  1  0  0  0
 18 19  1  0  0  0
 19 20  2  0  0  0
 19 23  1  0  0  0
 20 21  1  0  0  0
 20 26  1  0  0  0
 21 22  2  0  0  0
 22 27  1  0  0  0
 27 28  1  0  0  0
 27 29  2  0  0  0
 38 39  2  0  0  0
 39 40  1  0  0  0
 40 41  2  0  0  0
 23 24  2  0  0  0
 24 25  1  0  0  0
 25 26  2  0  0  0
  2  6  1  0  0  0
  8 10  1  0  0  0
 52 54  1  0  0  0
 28 30  1  0  0  0
 57 58  1  0  0  0
M  END
> <minimizedAffinity>
-7.13055

$$$$
1NNY_515_A_322


 58 62  0  0  0  0  0  0  0  0999 V2000
   31.2576   23.7430   19.3704 C   0  0  0  0  0  0  0  0  0  0  0  0
   31.9925   23.3861   18.1504 N   0  0  0  0  0  0  0  0  0  0  0  0
   31.7319   24.0290   16.9785 C   0  0  0  0  0  0  0  0  0  0  0  0
   30.9017   24.9247   16.8237 O   0  0  0  0  0  0  0  0  0  0  0  0
   32.5844   23.5360   15.8103 C   0  0  0  0  0  0  0  0  0  0  0  0
   32.6767   22.6787   18.1797 H   0  0  0  0  0  0  0  0  0  0  0  0
   29.7141   23.6991   19.1817 C   0  0  0  0  0  0  0  0  0  0  0  0
   29.0611   24.9013   19.1778 N   0  0  0  0  0  0  0  0  0  0  0  0
   29.1579   22.6126   19.0579 O   0  0  0  0  0  0  0  0  0  0  0  0
   29.5806   25.7309   19.2833 H   0  0  0  0  0  0  0  0  0  0  0  0
   27.5949   24.9837   19.0189 C   0  0  0  0  0  0  0  0  0  0  0  0
   27.0265   26.3652   18.5449 C   0  0  0  0  0  0  0  0  0  0  0  0
   27.6686   27.0060   17.2972 C   0  0  0  0  0  0  0  0  0  0  0  0
   28.8041   28.0821   17.4549 C   0  0  0  0  0  0  0  0  0  0  0  0
   29.5850   28.3324   18.7754 C   0  0  0  0  0  0  0  0  0  0  0  0
   30.2059   29.6351   18.8822 O   0  0  0  0  0  0  0  0  0  0  0  0
   31.5806   29.7430   19.2972 C   0  0  0  0  0  0  0  0  0  0  0  0
   32.0844   29.0740   20.4728 C   0  0  0  0  0  0  0  0  0  0  0  0
   33.4428   29.1867   20.8736 C   0  0  0  0  0  0  0  0  0  0  0  0
   34.3721   29.9865   20.0984 C   0  0  0  0  0  0  0  0  0  0  0  0
   33.8990   30.6604   18.9293 C   0  0  0  0  0  0  0  0  0  0  0  0
   32.5239   30.5443   18.5341 C   0  0  0  0  0  0  0  0  0  0  0  0
   33.8808   28.5042   22.0548 C   0  0  0  0  0  0  0  0  0  0  0  0
   35.2422   28.6133   22.4697 C   0  0  0  0  0  0  0  0  0  0  0  0
   36.1678   29.3953   21.7119 C   0  0  0  0  0  0  0  0  0  0  0  0
   35.7470   30.0835   20.5284 C   0  0  0  0  0  0  0  0  0  0  0  0
   32.1120   31.2637   17.3367 C   0  0  0  0  0  0  0  0  0  0  0  0
   31.3221   30.5941   16.4918 O   0  0  0  0  0  0  0  0  0  0  0  0
   32.4573   32.3873   17.1234 O   0  0  0  0  0  0  0  0  0  0  0  0
   31.0679   29.7134   16.6864 H   0  0  0  0  0  0  0  0  0  0  0  0
   31.7465   25.1525   19.8591 C   0  0  0  0  0  0  0  0  0  0  0  0
   35.6347   25.9237   19.6186 C   0  0  0  0  0  0  0  0  0  0  0  0
   36.1015   25.1290   20.7353 C   0  0  0  0  0  0  0  0  0  0  0  0
   35.1210   24.3923   21.5148 C   0  0  0  0  0  0  0  0  0  0  0  0
   33.7515   24.4237   21.2207 C   0  0  0  0  0  0  0  0  0  0  0  0
   33.2566   25.1884   20.1289 C   0  0  0  0  0  0  0  0  0  0  0  0
   34.2079   25.9590   19.3067 C   0  0  0  0  0  0  0  0  0  0  0  0
   36.5615   26.6746   18.8088 C   0  0  0  0  0  0  0  0  0  0  0  0
   36.0937   27.4540   17.7086 C   0  0  0  0  0  0  0  0  0  0  0  0
   34.7050   27.4937   17.3983 C   0  0  0  0  0  0  0  0  0  0  0  0
   33.7719   26.7557   18.1863 C   0  0  0  0  0  0  0  0  0  0  0  0
   37.4514   24.9992   21.1364 N   0  0  0  0  0  0  0  0  0  0  0  0
   38.2105   23.8728   20.6857 C   0  0  0  0  0  0  0  0  0  0  0  0
   39.4140   23.7459   20.8877 O   0  0  0  0  0  0  0  0  0  0  0  0
   39.1221   26.9884   21.4760 C   0  0  0  0  0  0  0  0  0  0  0  0
   38.0485   26.0815   21.9004 C   0  0  0  0  0  0  0  0  0  0  0  0
   37.5419   26.3004   23.2306 C   0  0  0  0  0  0  0  0  0  0  0  0
   38.0222   27.3022   24.0817 C   0  0  0  0  0  0  0  0  0  0  0  0
   39.0463   28.1505   23.6571 C   0  0  0  0  0  0  0  0  0  0  0  0
   39.5824   27.9929   22.3770 C   0  0  0  0  0  0  0  0  0  0  0  0
   39.4814   27.7655   19.3060 O   0  0  0  0  0  0  0  0  0  0  0  0
   40.8459   26.1470   19.9416 O   0  0  0  0  0  0  0  0  0  0  0  0
   39.8290   27.0016   20.1643 C   0  0  0  0  0  0  0  0  0  0  0  0
   41.1140   25.5524   20.6143 H   0  0  0  0  0  0  0  0  0  0  0  0
   37.5635   22.7145   19.9056 C   0  0  0  0  0  0  0  0  0  0  0  0
   37.0500   21.7677   20.4482 O   0  0  0  0  0  0  0  0  0  0  0  0
   37.6020   22.8458   18.5690 O   0  0  0  0  0  0  0  0  0  0  0  0
   38.0101   23.5961   18.1835 H   0  0  0  0  0  0  0  0  0  0  0  0
 32 33  2  0  0  0
 32 37  1  0  0  0
 32 38  1  0  0  0
 33 34  1  0  0  0
 33 42  1  0  0  0
 34 35  2  0  0  0
 35 36  1  0  0  0
 36 37  2  0  0  0
 36 31  1  0  0  0
 37 41  1  0  0  0
 42 43  1  0  0  0
 42 46  1  0  0  0
  1  2  1  0  0  0
  1  7  1  0  0  0
  1 31  1  0  0  0
  2  3  1  0  0  0
  3  4  2  0  0  0
  3  5  1  0  0  0
  7  8  1  0  0  0
  7  9  2  0  0  0
  8 11  1  0  0  0
 11 12  1  0  0  0
 12 13  1  0  0  0
 15 16  1  0  0  0
 15 14  1  0  0  0
 13 14  1  0  0  0
 16 17  1  0  0  0
 43 44  2  0  0  0
 43 55  1  0  0  0
 55 56  2  0  0  0
 55 57  1  0  0  0
 45 46  2  0  0  0
 45 50  1  0  0  0
 45 53  1  0  0  0
 46 47  1  0  0  0
 47 48  2  0  0  0
 48 49  1  0  0  0
 49 50  2  0  0  0
 51 53  2  0  0  0
 52 53  1  0  0  0
 17 18  2  0  0  0
 17 22  1  0  0  0
 18 19  1  0  0  0
 19 20  2  0  0  0
 19 23  1  0  0  0
 20 21  1  0  0  0
 20 26  1  0  0  0
 21 22  2  0  0  0
 22 27  1  0  0  0
 27 28  1  0  0  0
 27 29  2  0  0  0
 38 39  2  0  0  0
 39 40  1  0  0  0
 40 41  2  0  0  0
 23 24  2  0  0  0
 24 25  1  0  0  0
 25 26  2  0  0  0
  2  6  1  0  0  0
  8 10  1  0  0  0
 52 54  1  0  0  0
 28 30  1  0  0  0
 57 58  1  0  0  0
M  END
> <minimizedAffinity>
-7.09336

$$$$
1NNY_515_A_322


 58 62  0  0  0  0  0  0  0  0999 V2000
   30.8089   25.7742   18.4737 C   0  0  0  0  0  0  0  0  0  0  0  0
   31.1399   24.7798   17.4454 N   0  0  0  0  0  0  0  0  0  0  0  0
   31.4774   23.5094   17.8015 C   0  0  0  0  0  0  0  0  0  0  0  0
   31.5387   23.0826   18.9546 O   0  0  0  0  0  0  0  0  0  0  0  0
   31.7909   22.6055   16.6103 C   0  0  0  0  0  0  0  0  0  0  0  0
   31.1177   25.0325   16.4941 H   0  0  0  0  0  0  0  0  0  0  0  0
   29.3516   26.3052   18.3551 C   0  0  0  0  0  0  0  0  0  0  0  0
   29.1175   27.5682   18.8262 N   0  0  0  0  0  0  0  0  0  0  0  0
   28.4900   25.5820   17.8651 O   0  0  0  0  0  0  0  0  0  0  0  0
   29.8639   28.0856   19.2060 H   0  0  0  0  0  0  0  0  0  0  0  0
   27.7709   28.1736   18.7782 C   0  0  0  0  0  0  0  0  0  0  0  0
   27.5535   29.4488   19.6629 C   0  0  0  0  0  0  0  0  0  0  0  0
   28.1710   29.4453   21.0764 C   0  0  0  0  0  0  0  0  0  0  0  0
   29.5553   30.1437   21.3378 C   0  0  0  0  0  0  0  0  0  0  0  0
   30.8706   29.7659   20.6006 C   0  0  0  0  0  0  0  0  0  0  0  0
   32.0576   29.7637   21.4282 O   0  0  0  0  0  0  0  0  0  0  0  0
   33.3600   29.7287   20.8150 C   0  0  0  0  0  0  0  0  0  0  0  0
   33.5872   30.1840   19.4643 C   0  0  0  0  0  0  0  0  0  0  0  0
   34.8764   30.1455   18.8684 C   0  0  0  0  0  0  0  0  0  0  0  0
   36.0143   29.6428   19.6145 C   0  0  0  0  0  0  0  0  0  0  0  0
   35.8170   29.1848   20.9548 C   0  0  0  0  0  0  0  0  0  0  0  0
   34.5101   29.2235   21.5474 C   0  0  0  0  0  0  0  0  0  0  0  0
   35.0363   30.6051   17.5208 C   0  0  0  0  0  0  0  0  0  0  0  0
   36.3260   30.5674   16.9102 C   0  0  0  0  0  0  0  0  0  0  0  0
   37.4552   30.0778   17.6366 C   0  0  0  0  0  0  0  0  0  0  0  0
   37.3132   29.6151   18.9846 C   0  0  0  0  0  0  0  0  0  0  0  0
   34.3834   28.7346   22.9133 C   0  0  0  0  0  0  0  0  0  0  0  0
   35.2476   29.2380   23.7997 O   0  0  0  0  0  0  0  0  0  0  0  0
   33.5540   27.9328   23.2240 O   0  0  0  0  0  0  0  0  0  0  0  0
   35.8873   29.8656   23.5261 H   0  0  0  0  0  0  0  0  0  0  0  0
   31.8615   26.9371   18.4077 C   0  0  0  0  0  0  0  0  0  0  0  0
   35.7354   26.1118   18.6950 C   0  0  0  0  0  0  0  0  0  0  0  0
   35.7738   25.6373   20.0624 C   0  0  0  0  0  0  0  0  0  0  0  0
   34.5352   25.6225   20.8222 C   0  0  0  0  0  0  0  0  0  0  0  0
   33.3157   26.0457   20.2774 C   0  0  0  0  0  0  0  0  0  0  0  0
   33.2379   26.5129   18.9367 C   0  0  0  0  0  0  0  0  0  0  0  0
   34.4663   26.5530   18.1215 C   0  0  0  0  0  0  0  0  0  0  0  0
   36.9326   26.1480   17.8925 C   0  0  0  0  0  0  0  0  0  0  0  0
   36.8860   26.6152   16.5449 C   0  0  0  0  0  0  0  0  0  0  0  0
   35.6533   27.0470   15.9788 C   0  0  0  0  0  0  0  0  0  0  0  0
   34.4569   27.0167   16.7559 C   0  0  0  0  0  0  0  0  0  0  0  0
   36.9293   25.1728   20.7325 N   0  0  0  0  0  0  0  0  0  0  0  0
   37.2851   23.7898   20.6379 C   0  0  0  0  0  0  0  0  0  0  0  0
   38.3302   23.3298   21.0870 O   0  0  0  0  0  0  0  0  0  0  0  0
   37.7022   26.5881   22.7974 C   0  0  0  0  0  0  0  0  0  0  0  0
   37.7762   26.1479   21.3988 C   0  0  0  0  0  0  0  0  0  0  0  0
   38.8099   26.7651   20.6087 C   0  0  0  0  0  0  0  0  0  0  0  0
   39.6970   27.7221   21.1144 C   0  0  0  0  0  0  0  0  0  0  0  0
   39.6050   28.1275   22.4470 C   0  0  0  0  0  0  0  0  0  0  0  0
   38.6246   27.5674   23.2693 C   0  0  0  0  0  0  0  0  0  0  0  0
   36.5544   26.7970   24.8174 O   0  0  0  0  0  0  0  0  0  0  0  0
   36.1114   24.9454   23.6947 O   0  0  0  0  0  0  0  0  0  0  0  0
   36.7461   26.1242   23.8421 C   0  0  0  0  0  0  0  0  0  0  0  0
   36.2640   24.4234   22.9317 H   0  0  0  0  0  0  0  0  0  0  0  0
   36.3670   22.7575   19.9596 C   0  0  0  0  0  0  0  0  0  0  0  0
   35.4769   22.1911   20.5440 O   0  0  0  0  0  0  0  0  0  0  0  0
   36.6246   22.5450   18.6581 O   0  0  0  0  0  0  0  0  0  0  0  0
   37.3252   23.0042   18.2382 H   0  0  0  0  0  0  0  0  0  0  0  0
 32 33  2  0  0  0
 32 37  1  0  0  0
 32 38  1  0  0  0
 33 34  1  0  0  0
 33 42  1  0  0  0
 34 35  2  0  0  0
 35 36  1  0  0  0
 36 37  2  0  0  0
 36 31  1  0  0  0
 37 41  1  0  0  0
 42 43  1  0  0  0
 42 46  1  0  0  0
  1  2  1  0  0  0
  1  7  1  0  0  0
  1 31  1  0  0  0
  2  3  1  0  0  0
  3  4  2  0  0  0
  3  5  1  0  0  0
  7  8  1  0  0  0
  7  9  2  0  0  0
  8 11  1  0  0  0
 11 12  1  0  0  0
 12 13  1  0  0  0
 15 16  1  0  0  0
 15 14  1  0  0  0
 13 14  1  0  0  0
 16 17  1  0  0  0
 43 44  2  0  0  0
 43 55  1  0  0  0
 55 56  2  0  0  0
 55 57  1  0  0  0
 45 46  2  0  0  0
 45 50  1  0  0  0
 45 53  1  0  0  0
 46 47  1  0  0  0
 47 48  2  0  0  0
 48 49  1  0  0  0
 49 50  2  0  0  0
 51 53  2  0  0  0
 52 53  1  0  0  0
 17 18  2  0  0  0
 17 22  1  0  0  0
 18 19  1  0  0  0
 19 20  2  0  0  0
 19 23  1  0  0  0
 20 21  1  0  0  0
 20 26  1  0  0  0
 21 22  2  0  0  0
 22 27  1  0  0  0
 27 28  1  0  0  0
 27 29  2  0  0  0
 38 39  2  0  0  0
 39 40  1  0  0  0
 40 41  2  0  0  0
 23 24  2  0  0  0
 24 25  1  0  0  0
 25 26  2  0  0  0
  2  6  1  0  0  0
  8 10  1  0  0  0
 52 54  1  0  0  0
 28 30  1  0  0  0
 57 58  1  0  0  0
M  END
> <minimizedAffinity>
-7.07975

$$$$
