4DJO_MK5_A_101
  RCSB PDB12061712133D
Coordinates from PDB:4DJO:A:101 Model:1 without hydrogens
 40 41  0  0  0  0            999 V2000
   15.4990   36.9610   18.7020   C 0  0  0  0  0  0  0  0  0  0  0  0
   14.9390   35.6570   18.4960   O 0  0  0  0  0  0  0  0  0  0  0  0
   15.6860   34.9120   17.6260   C 0  0  0  0  0  0  0  0  0  0  0  0
   15.4380   33.5480   17.5110   C 0  0  0  0  0  0  0  0  0  0  0  0
   16.1810   32.7710   16.6290   C 0  0  0  0  0  0  0  0  0  0  0  0
   16.6780   35.5010   16.8480   C 0  0  0  0  0  0  0  0  0  0  0  0
   17.4200   34.7230   15.9670   C 0  0  0  0  0  0  0  0  0  0  0  0
   17.1750   33.3580   15.8560   C 0  0  0  0  0  0  0  0  0  0  0  0
   18.1290   32.3780   14.7510   S 0  0  0  0  0  0  0  0  0  0  0  0
   18.6630   33.2640   13.6630   O 0  0  0  0  0  0  0  0  0  0  0  0
   17.2930   31.2880   14.1890   O 0  0  0  0  0  0  0  0  0  0  0  0
   19.4210   31.7040   15.5600   N 0  0  0  0  0  0  0  0  0  0  0  0
   20.0250   32.6110   16.5580   C 0  0  0  0  0  0  0  0  0  0  0  0
   21.3270   33.2380   16.0490   C 0  0  0  0  0  0  0  0  0  0  0  0
   22.1270   33.9280   17.1690   C 0  0  0  0  0  0  0  0  0  0  0  0
   22.1890   32.2090   15.3220   C 0  0  0  0  0  0  0  0  0  0  0  0
   22.9720   32.8770   14.1990   C 0  0  0  0  0  0  0  0  0  0  0  0
   19.0270   30.4390   16.2090   C 0  0  0  0  0  0  0  0  0  0  0  0
   19.9660   29.3410   15.6850   C 0  0  0  0  0  0  0  0  0  0  0  0
   19.9210   28.1890   16.5220   O 0  0  0  0  0  0  0  0  0  0  0  0
   19.6160   28.9540   14.2480   C 0  0  0  0  0  0  0  0  0  0  0  0
   18.2850   28.1880   14.1640   C 0  0  0  0  0  0  0  0  0  0  0  0
   17.9740   27.8330   12.7060   C 0  0  0  0  0  0  0  0  0  0  0  0
   18.1990   26.5400   12.2500   C 0  0  0  0  0  0  0  0  0  0  0  0
   17.9340   26.2050   10.9290   C 0  0  0  0  0  0  0  0  0  0  0  0
   17.4370   27.1690   10.0580   C 0  0  0  0  0  0  0  0  0  0  0  0
   17.2140   28.4640   10.5090   C 0  0  0  0  0  0  0  0  0  0  0  0
   17.4770   28.7910   11.8350   C 0  0  0  0  0  0  0  0  0  0  0  0
   20.6860   28.1170   13.6950   N 0  0  0  0  0  0  0  0  0  0  0  0
   21.6280   28.5490   12.8660   C 0  0  0  0  0  0  0  0  0  0  0  0
   21.7200   29.7060   12.4640   O 0  0  0  0  0  0  0  0  0  0  0  0
   22.5370   27.6300   12.4370   O 0  0  0  0  0  0  0  0  0  0  0  0
   23.5610   28.3010   11.7000   C 0  0  0  0  0  0  0  0  0  0  0  0
   24.3070   27.2780   10.8440   C 0  0  0  0  0  0  0  0  0  0  0  0
   23.3420   26.4320   10.1300   N 0  0  0  0  0  0  0  0  0  0  0  0
   23.2430   25.1370   10.3960   C 0  0  0  0  0  0  0  0  0  0  0  0
   23.9140   24.5800   11.2640   O 0  0  0  0  0  0  0  0  0  0  0  0
   22.2100   24.3460    9.5840   C 0  0  0  0  0  0  0  0  0  0  0  0
   21.5060   25.2740    8.2100  Cl 0  0  0  0  0  0  0  0  0  0  0  0
   20.9000   23.9090   10.7100  Cl 0  0  0  0  0  0  0  0  0  0  0  0
 39 38  1  0  0  0  0
 38 36  1  0  0  0  0
 38 40  1  0  0  0  0
 26 27  2  0  0  0  0
 26 25  1  0  0  0  0
 35 36  1  0  0  0  0
 35 34  1  0  0  0  0
 36 37  2  0  0  0  0
 27 28  1  0  0  0  0
 34 33  1  0  0  0  0
 25 24  2  0  0  0  0
 33 32  1  0  0  0  0
 28 23  2  0  0  0  0
 24 23  1  0  0  0  0
 32 30  1  0  0  0  0
 31 30  2  0  0  0  0
 23 22  1  0  0  0  0
 30 29  1  0  0  0  0
 10  9  2  0  0  0  0
 29 21  1  0  0  0  0
 22 21  1  0  0  0  0
 11  9  2  0  0  0  0
 17 16  1  0  0  0  0
 21 19  1  0  0  0  0
  9 12  1  0  0  0  0
  9  8  1  0  0  0  0
 16 14  1  0  0  0  0
 12 18  1  0  0  0  0
 12 13  1  0  0  0  0
 19 18  1  0  0  0  0
 19 20  1  0  0  0  0
  8  7  2  0  0  0  0
  8  5  1  0  0  0  0
  7  6  1  0  0  0  0
 14 13  1  0  0  0  0
 14 15  1  0  0  0  0
  5  4  2  0  0  0  0
  6  3  2  0  0  0  0
  4  3  1  0  0  0  0
  3  2  1  0  0  0  0
  2  1  1  0  0  0  0
A    1
C1
A    2
O1
A    3
C2
A    4
C7
A    5
C6
A    6
C3
A    7
C4
A    8
C5
A    9
S8
A   10
O9
A   11
O10
A   12
N11
A   13
C12
A   14
C13
A   15
C14
A   16
C15
A   17
C18
A   18
C16
A   19
C17
A   20
O18
A   21
C19
A   22
C32
A   23
C38
A   24
C33
A   25
C34
A   26
C35
A   27
C36
A   28
C37
A   29
N20
A   30
C21
A   31
O22
A   32
O23
A   33
C23
A   34
C24
A   35
N25
A   36
C26
A   37
O27
A   38
C28
A   39
CL2
A   40
CL1
M  END
>  <InstanceId>
4DJO_MK5_A_101

>  <ChemCompId>
MK5

>  <PdbId>
4DJO

>  <ChainId>
A

>  <ResidueNumber>
101

>  <InsertionCode>


>  <Model>
1

>  <AltIds>


>  <MissingHeavyAtoms>
0

>  <ObservedFormula>
C27 N3 O7 S Cl2

>  <Name>
2-[(dichloroacetyl)amino]ethyl [(2S,3R)-3-hydroxy-4-{[(4-methoxyphenyl)sulfonyl][(2S)-2-methylbutyl]amino}-1-phenylbutan-2-yl]carbamate

>  <SystematicName>
2-[2,2-bis(chloranyl)ethanoylamino]ethyl N-[(2S,3R)-4-[(4-methoxyphenyl)sulfonyl-[(2S)-2-methylbutyl]amino]-3-oxidanyl-1-phenyl-butan-2-yl]carbamate

>  <Synonyms>


>  <Type>
NON-POLYMER

>  <Formula>
C27 H37 Cl2 N3 O7 S

>  <MolecularWeight>
618.57

>  <ModifiedDate>
2012-07-27

>  <Parent>


>  <OneLetterCode>


>  <SubcomponentList>


>  <AmbiguousFlag>
N

>  <InChI>
InChI=1S/C27H37Cl2N3O7S/c1-4-19(2)17-32(40(36,37)22-12-10-21(38-3)11-13-22)18-24(33)23(16-20-8-6-5-7-9-20)31-27(35)39-15-14-30-26(34)25(28)29/h5-13,19,23-25,33H,4,14-18H2,1-3H3,(H,30,34)(H,31,35)/t19-,23-,24+/m0/s1

>  <InChIKey>
JJONTVSMJKRGJO-WDJPJFJCSA-N

>  <SMILES>
CC[C@H](C)CN(C[C@H]([C@H](Cc1ccccc1)NC(=O)OCCNC(=O)C(Cl)Cl)O)S(=O)(=O)c2ccc(cc2)OC

$$$$
