5ER1_0HT_E_327
  RCSB PDB12061717313D
Coordinates from PDB:5ER1:E:327 Model:1 without hydrogens
 37 37  0  0  0  0            999 V2000
   34.8400   -8.2350    4.7810   O 0  0  0  0  0  0  0  0  0  0  0  0
   36.0700   -8.6090    4.1960   C 0  0  0  0  0  0  0  0  0  0  0  0
   36.4000  -10.0830    4.4700   C 0  0  0  0  0  0  0  0  0  0  0  0
   36.0430   -8.2750    2.7100   C 0  0  0  0  0  0  0  0  0  0  0  0
   34.8830   -8.9140    2.0700   N 0  0  0  0  0  0  0  0  0  0  0  0
   35.9240   -6.7550    2.6110   C 0  0  0  0  0  0  0  0  0  0  0  0
   36.9420   -6.1370    1.6530   C 0  0  0  0  0  0  0  0  0  0  0  0
   38.3870   -6.4960    2.0040   C 0  0  0  0  0  0  0  0  0  0  0  0
   36.8870   -4.6090    1.6280   C 0  0  0  0  0  0  0  0  0  0  0  0
   35.3670  -10.8190    4.8460   N 0  0  0  0  0  0  0  0  0  0  0  0
   35.5180  -12.0550    5.6330   C 0  0  0  0  0  0  0  0  0  0  0  0
   36.9810  -12.4800    5.6680   C 0  0  0  0  0  0  0  0  0  0  0  0
   37.5530  -12.8830    4.6450   O 0  0  0  0  0  0  0  0  0  0  0  0
   34.8040  -13.2220    4.9470   C 0  0  0  0  0  0  0  0  0  0  0  0
   35.1140  -14.5740    5.5950   C 0  0  0  0  0  0  0  0  0  0  0  0
   33.2810  -13.0900    4.9680   C 0  0  0  0  0  0  0  0  0  0  0  0
   37.5410  -12.3800    6.8530   N 0  0  0  0  0  0  0  0  0  0  0  0
   38.9210  -12.7960    7.1110   C 0  0  0  0  0  0  0  0  0  0  0  0
   39.0550  -14.3010    6.8730   C 0  0  0  0  0  0  0  0  0  0  0  0
   38.2960  -15.1060    7.4340   O 0  0  0  0  0  0  0  0  0  0  0  0
   39.3040  -12.4700    8.5540   C 0  0  0  0  0  0  0  0  0  0  0  0
   40.6630  -13.0470    8.9550   C 0  0  0  0  0  0  0  0  0  0  0  0
   38.3010  -13.0100    9.5750   C 0  0  0  0  0  0  0  0  0  0  0  0
   41.4910  -12.0850    9.8090   C 0  0  0  0  0  0  0  0  0  0  0  0
   40.0140  -14.6280    6.0300   N 0  0  0  0  0  0  0  0  0  0  0  0
   40.3100  -16.0180    5.6550   C 0  0  0  0  0  0  0  0  0  0  0  0
   41.6600  -16.4400    6.2390   C 0  0  0  0  0  0  0  0  0  0  0  0
   40.3720  -16.1470    4.1310   C 0  0  0  0  0  0  0  0  0  0  0  0
   39.0240  -16.5060    3.5020   C 0  0  0  0  0  0  0  0  0  0  0  0
   37.8320  -16.1110    4.1230   C 0  0  0  0  0  0  0  0  0  0  0  0
   38.9810  -17.2280    2.3030   C 0  0  0  0  0  0  0  0  0  0  0  0
   36.5990  -16.4360    3.5440   C 0  0  0  0  0  0  0  0  0  0  0  0
   37.7480  -17.5520    1.7240   C 0  0  0  0  0  0  0  0  0  0  0  0
   36.5570  -17.1560    2.3440   C 0  0  0  0  0  0  0  0  0  0  0  0
   42.3860  -17.2510    5.6460   O 0  0  0  0  0  0  0  0  0  0  0  0
   43.1450  -14.9660    7.2560   C 0  0  0  0  0  0  0  0  0  0  0  0
   42.0980  -15.9000    7.4770   O 0  0  0  0  0  0  0  0  0  0  0  0
  1  2  1  0  0  0  0
  2  3  1  0  0  0  0
  2  4  1  0  0  0  0
  3 10  1  0  0  0  0
  4  5  1  0  0  0  0
  4  6  1  0  0  0  0
  6  7  1  0  0  0  0
  7  8  1  0  0  0  0
  7  9  1  0  0  0  0
 10 11  1  0  0  0  0
 11 12  1  0  0  0  0
 11 14  1  0  0  0  0
 12 13  2  0  0  0  0
 12 17  1  0  0  0  0
 14 15  1  0  0  0  0
 14 16  1  0  0  0  0
 17 18  1  0  0  0  0
 18 19  1  0  0  0  0
 18 21  1  0  0  0  0
 19 20  2  0  0  0  0
 19 25  1  0  0  0  0
 21 22  1  0  0  0  0
 21 23  1  0  0  0  0
 22 24  1  0  0  0  0
 25 26  1  0  0  0  0
 26 27  1  0  0  0  0
 26 28  1  0  0  0  0
 27 35  2  0  0  0  0
 27 37  1  0  0  0  0
 28 29  1  0  0  0  0
 29 30  1  0  0  0  0
 29 31  2  0  0  0  0
 30 32  2  0  0  0  0
 31 33  1  0  0  0  0
 32 34  1  0  0  0  0
 33 34  2  0  0  0  0
 37 36  1  0  0  0  0
A    1
O
A    2
C
A    3
CZ
A    4
CA
A    5
N
A    6
CB
A    7
CG
A    8
CD2
A    9
CD1
A   10
N1
A   11
CA1
A   12
C1
A   13
O1
A   14
CB1
A   15
CG1
A   16
CG2
A   17
N2
A   18
CA2
A   19
C2
A   20
O2
A   21
CB2
A   22
CG11
A   23
CG21
A   24
CD11
A   25
N3
A   26
CA3
A   27
C3
A   28
CB3
A   29
CG3
A   30
CD12
A   31
CD21
A   32
CE1
A   33
CE2
A   34
CZ1
A   35
O3
A   36
CM
A   37
OXT
M  END
>  <InstanceId>
5ER1_0HT_E_327

>  <ChemCompId>
0HT

>  <PdbId>
5ER1

>  <ChainId>
E

>  <ResidueNumber>
327

>  <InsertionCode>


>  <Model>
1

>  <AltIds>


>  <MissingHeavyAtoms>
0

>  <ObservedFormula>
C28 N4 O5

>  <Name>
methyl N-[(2S,3S)-3-amino-2-hydroxy-5-methylhexyl]-L-valyl-L-isoleucyl-L-phenylalaninate

>  <SystematicName>
methyl (2S)-2-[[(2S,3S)-2-[[(2S)-2-[[(2S,3S)-3-azanyl-2-hydroxy-5-methyl-hexyl]amino]-3-methyl-butanoyl]amino]-3-methyl-pentanoyl]amino]-3-phenyl-propanoate

>  <Synonyms>


>  <Type>
peptide-like

>  <Formula>
C28 H48 N4 O5

>  <MolecularWeight>
520.705

>  <ModifiedDate>
2011-07-13

>  <Parent>


>  <OneLetterCode>


>  <SubcomponentList>
GKL ILE 0A9

>  <AmbiguousFlag>
N

>  <InChI>
InChI=1S/C28H48N4O5/c1-8-19(6)25(27(35)31-22(28(36)37-7)15-20-12-10-9-11-13-20)32-26(34)24(18(4)5)30-16-23(33)21(29)14-17(2)3/h9-13,17-19,21-25,30,33H,8,14-16,29H2,1-7H3,(H,31,35)(H,32,34)/t19-,21-,22-,23-,24-,25-/m0/s1

>  <InChIKey>
JAELWYBMQVXTOC-ACUVNOOJSA-N

>  <SMILES>
CC[C@H](C)[C@@H](C(=O)N[C@@H](Cc1ccccc1)C(=O)OC)NC(=O)[C@H](C(C)C)NC[C@@H]([C@H](CC(C)C)N)O

$$$$
