2CN0_F25_H_1246


 36 40  0  0  0  0  0  0  0  0999 V2000
   16.8792  -12.8043   22.4389 O   0  0  0  0  0  0  0  0  0  0  0  0
   17.5446  -12.5335   21.4947 C   0  0  0  0  0  0  0  0  0  0  0  0
   18.6056  -13.2873   21.1726 N   0  0  0  0  0  0  0  0  0  0  0  0
   19.2066  -12.9076   19.9004 C   0  0  0  0  0  0  0  0  0  0  0  0
   18.1995  -11.8880   19.3275 C   0  0  0  0  0  0  0  0  0  0  0  0
   17.2599  -12.4757   18.2883 C   0  0  0  0  0  0  0  0  0  0  0  0
   15.9197  -12.4128   18.9016 N   0  0  0  0  0  0  0  0  0  0  0  0
   14.9013  -12.2182   17.8496 C   0  0  0  0  0  0  0  0  0  0  0  0
   15.6870  -12.0566   16.5595 C   0  0  0  0  0  0  0  0  0  0  0  0
   17.1283  -11.7608   16.9547 C   0  0  0  0  0  0  0  0  0  0  0  0
   15.9742  -11.2856   19.8614 C   0  0  0  0  0  0  0  0  0  0  0  0
   17.3433  -11.4260   20.5030 C   0  0  0  0  0  0  0  0  0  0  0  0
   14.8032  -11.2411   20.7834 C   0  0  0  0  0  0  0  0  0  0  0  0
   14.0238  -12.3454   21.0695 C   0  0  0  0  0  0  0  0  0  0  0  0
   12.9529  -12.2372   21.9515 C   0  0  0  0  0  0  0  0  0  0  0  0
   12.6221  -11.0163   22.5282 C   0  0  0  0  0  0  0  0  0  0  0  0
   13.3942   -9.9209   22.2438 C   0  0  0  0  0  0  0  0  0  0  0  0
   14.4748  -10.0322   21.3731 C   0  0  0  0  0  0  0  0  0  0  0  0
   11.4485  -10.9368   23.4521 C   0  0  0  0  0  0  0  0  0  0  0  0
   11.0487   -9.7861   24.0102 N   0  0  0  0  0  0  0  0  0  0  0  0
   10.7293  -12.0073   23.7416 N   0  0  0  0  0  0  0  0  0  0  0  0
   10.0763   -9.8715   24.3060 H   0  0  0  0  0  0  0  0  0  0  0  0
   11.1319   -9.0311   23.3294 H   0  0  0  0  0  0  0  0  0  0  0  0
    9.7875  -11.7218   24.0098 H   0  0  0  0  0  0  0  0  0  0  0  0
   11.1650  -12.5108   24.5143 H   0  0  0  0  0  0  0  0  0  0  0  0
   20.5616  -12.2548   20.0925 C   0  0  0  0  0  0  0  0  0  0  0  0
   21.0752  -11.9319   18.8655 F   0  0  0  0  0  0  0  0  0  0  0  0
   20.4932  -11.0805   20.7848 F   0  0  0  0  0  0  0  0  0  0  0  0
   19.0081  -14.5133   21.8551 C   0  0  0  0  0  0  0  0  0  0  0  0
   19.9031  -14.2272   23.0279 C   0  0  0  0  0  0  0  0  0  0  0  0
   21.2907  -14.2199   22.8758 C   0  0  0  0  0  0  0  0  0  0  0  0
   22.1312  -13.9496   23.9426 C   0  0  0  0  0  0  0  0  0  0  0  0
   21.5806  -13.6771   25.1815 C   0  0  0  0  0  0  0  0  0  0  0  0
   22.3683  -13.4118   26.2414 F   0  0  0  0  0  0  0  0  0  0  0  0
   20.2042  -13.7021   25.3613 C   0  0  0  0  0  0  0  0  0  0  0  0
   19.3776  -13.9706   24.2915 C   0  0  0  0  0  0  0  0  0  0  0  0
  1  2  2  0  0  0
  2  3  1  0  0  0
  2 12  1  0  0  0
  3 29  1  0  0  0
  3  4  1  0  0  0
 29 30  1  0  0  0
 30 31  2  0  0  0
 30 36  1  0  0  0
 31 32  1  0  0  0
 32 33  2  0  0  0
 33 34  1  0  0  0
 33 35  1  0  0  0
 35 36  2  0  0  0
  4  5  1  0  0  0
  4 26  1  0  0  0
  5  6  1  0  0  0
  5 12  1  0  0  0
  6  7  1  0  0  0
  6 10  1  0  0  0
  7  8  1  0  0  0
  7 11  1  0  0  0
  8  9  1  0  0  0
  9 10  1  0  0  0
 11 13  1  0  0  0
 11 12  1  0  0  0
 13 14  2  0  0  0
 13 18  1  0  0  0
 14 15  1  0  0  0
 15 16  2  0  0  0
 16 17  1  0  0  0
 16 19  1  0  0  0
 17 18  2  0  0  0
 19 20  1  0  0  0
 19 21  1  0  0  0
 26 27  1  0  0  0
 26 28  1  0  0  0
 20 22  1  0  0  0
 20 23  1  0  0  0
 21 24  1  0  0  0
 21 25  1  0  0  0
M  END
> <minimizedAffinity>
-12.04215

$$$$
2CN0_F25_H_1246


 36 40  0  0  0  0  0  0  0  0999 V2000
   16.8657  -12.8039   22.3929 O   0  0  0  0  0  0  0  0  0  0  0  0
   17.5052  -12.5417   21.4285 C   0  0  0  0  0  0  0  0  0  0  0  0
   18.5405  -13.3142   21.0692 N   0  0  0  0  0  0  0  0  0  0  0  0
   19.1070  -12.9406   19.7795 C   0  0  0  0  0  0  0  0  0  0  0  0
   18.1014  -11.8995   19.2434 C   0  0  0  0  0  0  0  0  0  0  0  0
   17.1175  -12.4648   18.2333 C   0  0  0  0  0  0  0  0  0  0  0  0
   15.7994  -12.3791   18.8902 N   0  0  0  0  0  0  0  0  0  0  0  0
   14.7512  -12.1607   17.8727 C   0  0  0  0  0  0  0  0  0  0  0  0
   15.4974  -12.0086   16.5583 C   0  0  0  0  0  0  0  0  0  0  0  0
   16.9563  -11.7419   16.9073 C   0  0  0  0  0  0  0  0  0  0  0  0
   15.9066  -11.2572   19.8518 C   0  0  0  0  0  0  0  0  0  0  0  0
   17.2930  -11.4264   20.4479 C   0  0  0  0  0  0  0  0  0  0  0  0
   14.7673  -11.1944   20.8117 C   0  0  0  0  0  0  0  0  0  0  0  0
   13.9872  -12.2888   21.1317 C   0  0  0  0  0  0  0  0  0  0  0  0
   12.9472  -12.1636   22.0478 C   0  0  0  0  0  0  0  0  0  0  0  0
   12.6475  -10.9352   22.6259 C   0  0  0  0  0  0  0  0  0  0  0  0
   13.4204   -9.8497   22.3079 C   0  0  0  0  0  0  0  0  0  0  0  0
   14.4704   -9.9781   21.4028 C   0  0  0  0  0  0  0  0  0  0  0  0
   11.5060  -10.8374   23.5874 C   0  0  0  0  0  0  0  0  0  0  0  0
   10.7489  -11.8932   23.9153 N   0  0  0  0  0  0  0  0  0  0  0  0
   11.2066   -9.6963   24.1833 N   0  0  0  0  0  0  0  0  0  0  0  0
   10.2778  -11.7116   24.8016 H   0  0  0  0  0  0  0  0  0  0  0  0
   11.3396  -12.7197   24.0073 H   0  0  0  0  0  0  0  0  0  0  0  0
   10.7251   -9.8877   25.0619 H   0  0  0  0  0  0  0  0  0  0  0  0
   10.6001   -9.1447   23.5764 H   0  0  0  0  0  0  0  0  0  0  0  0
   20.4797  -12.3145   19.9296 C   0  0  0  0  0  0  0  0  0  0  0  0
   20.9505  -11.9774   18.6894 F   0  0  0  0  0  0  0  0  0  0  0  0
   20.4593  -11.1524   20.6452 F   0  0  0  0  0  0  0  0  0  0  0  0
   18.9415  -14.5505   21.7337 C   0  0  0  0  0  0  0  0  0  0  0  0
   17.8458  -15.5785   21.7013 C   0  0  0  0  0  0  0  0  0  0  0  0
   17.0851  -15.7679   20.5463 C   0  0  0  0  0  0  0  0  0  0  0  0
   16.0775  -16.7163   20.4945 C   0  0  0  0  0  0  0  0  0  0  0  0
   15.8258  -17.4932   21.6105 C   0  0  0  0  0  0  0  0  0  0  0  0
   14.8522  -18.4238   21.5959 F   0  0  0  0  0  0  0  0  0  0  0  0
   16.5540  -17.3059   22.7776 C   0  0  0  0  0  0  0  0  0  0  0  0
   17.5558  -16.3601   22.8166 C   0  0  0  0  0  0  0  0  0  0  0  0
  1  2  2  0  0  0
  2  3  1  0  0  0
  2 12  1  0  0  0
  3 29  1  0  0  0
  3  4  1  0  0  0
 29 30  1  0  0  0
 30 31  2  0  0  0
 30 36  1  0  0  0
 31 32  1  0  0  0
 32 33  2  0  0  0
 33 34  1  0  0  0
 33 35  1  0  0  0
 35 36  2  0  0  0
  4  5  1  0  0  0
  4 26  1  0  0  0
  5  6  1  0  0  0
  5 12  1  0  0  0
  6  7  1  0  0  0
  6 10  1  0  0  0
  7  8  1  0  0  0
  7 11  1  0  0  0
  8  9  1  0  0  0
  9 10  1  0  0  0
 11 13  1  0  0  0
 11 12  1  0  0  0
 13 14  2  0  0  0
 13 18  1  0  0  0
 14 15  1  0  0  0
 15 16  2  0  0  0
 16 17  1  0  0  0
 16 19  1  0  0  0
 17 18  2  0  0  0
 19 20  1  0  0  0
 19 21  1  0  0  0
 26 27  1  0  0  0
 26 28  1  0  0  0
 20 22  1  0  0  0
 20 23  1  0  0  0
 21 24  1  0  0  0
 21 25  1  0  0  0
M  END
> <minimizedAffinity>
-10.33245

$$$$
2CN0_F25_H_1246


 36 40  0  0  0  0  0  0  0  0999 V2000
   16.2824  -10.6974   20.7883 O   0  0  0  0  0  0  0  0  0  0  0  0
   16.3973  -11.2059   19.7226 C   0  0  0  0  0  0  0  0  0  0  0  0
   17.5972  -11.6247   19.2954 N   0  0  0  0  0  0  0  0  0  0  0  0
   17.5269  -12.3666   18.0430 C   0  0  0  0  0  0  0  0  0  0  0  0
   16.0094  -12.5505   17.8294 C   0  0  0  0  0  0  0  0  0  0  0  0
   15.4962  -13.9194   18.2426 C   0  0  0  0  0  0  0  0  0  0  0  0
   14.6038  -13.6660   19.3896 N   0  0  0  0  0  0  0  0  0  0  0  0
   13.5193  -14.6686   19.4056 C   0  0  0  0  0  0  0  0  0  0  0  0
   13.7223  -15.4952   18.1473 C   0  0  0  0  0  0  0  0  0  0  0  0
   14.6603  -14.7029   17.2453 C   0  0  0  0  0  0  0  0  0  0  0  0
   14.1032  -12.2837   19.2060 C   0  0  0  0  0  0  0  0  0  0  0  0
   15.3240  -11.5208   18.7228 C   0  0  0  0  0  0  0  0  0  0  0  0
   13.4093  -11.7447   20.4107 C   0  0  0  0  0  0  0  0  0  0  0  0
   12.8552  -10.4802   20.4616 C   0  0  0  0  0  0  0  0  0  0  0  0
   12.2082  -10.0450   21.6141 C   0  0  0  0  0  0  0  0  0  0  0  0
   12.1411  -10.8517   22.7444 C   0  0  0  0  0  0  0  0  0  0  0  0
   12.6913  -12.1053   22.6944 C   0  0  0  0  0  0  0  0  0  0  0  0
   13.3255  -12.5466   21.5363 C   0  0  0  0  0  0  0  0  0  0  0  0
   11.4580  -10.3374   23.9716 C   0  0  0  0  0  0  0  0  0  0  0  0
   11.1306   -9.0473   24.1257 N   0  0  0  0  0  0  0  0  0  0  0  0
   11.1197  -11.1478   24.9593 N   0  0  0  0  0  0  0  0  0  0  0  0
   10.3974   -8.9643   24.8299 H   0  0  0  0  0  0  0  0  0  0  0  0
   10.7936   -8.6737   23.2384 H   0  0  0  0  0  0  0  0  0  0  0  0
   10.3382  -10.7455   25.4768 H   0  0  0  0  0  0  0  0  0  0  0  0
   11.9151  -11.2706   25.5860 H   0  0  0  0  0  0  0  0  0  0  0  0
   18.1270  -11.5830   16.8921 C   0  0  0  0  0  0  0  0  0  0  0  0
   19.4607  -11.8778   16.8037 F   0  0  0  0  0  0  0  0  0  0  0  0
   17.5932  -11.9211   15.6823 F   0  0  0  0  0  0  0  0  0  0  0  0
   18.8313  -11.5844   20.0740 C   0  0  0  0  0  0  0  0  0  0  0  0
   19.1248  -12.9101   20.7178 C   0  0  0  0  0  0  0  0  0  0  0  0
   18.2860  -13.4168   21.7119 C   0  0  0  0  0  0  0  0  0  0  0  0
   18.5350  -14.6405   22.3103 C   0  0  0  0  0  0  0  0  0  0  0  0
   19.6359  -15.3749   21.9089 C   0  0  0  0  0  0  0  0  0  0  0  0
   19.9093  -16.5680   22.4708 F   0  0  0  0  0  0  0  0  0  0  0  0
   20.4969  -14.8797   20.9389 C   0  0  0  0  0  0  0  0  0  0  0  0
   20.2376  -13.6613   20.3490 C   0  0  0  0  0  0  0  0  0  0  0  0
  1  2  2  0  0  0
  2  3  1  0  0  0
  2 12  1  0  0  0
  3 29  1  0  0  0
  3  4  1  0  0  0
 29 30  1  0  0  0
 30 31  2  0  0  0
 30 36  1  0  0  0
 31 32  1  0  0  0
 32 33  2  0  0  0
 33 34  1  0  0  0
 33 35  1  0  0  0
 35 36  2  0  0  0
  4  5  1  0  0  0
  4 26  1  0  0  0
  5  6  1  0  0  0
  5 12  1  0  0  0
  6  7  1  0  0  0
  6 10  1  0  0  0
  7  8  1  0  0  0
  7 11  1  0  0  0
  8  9  1  0  0  0
  9 10  1  0  0  0
 11 13  1  0  0  0
 11 12  1  0  0  0
 13 14  2  0  0  0
 13 18  1  0  0  0
 14 15  1  0  0  0
 15 16  2  0  0  0
 16 17  1  0  0  0
 16 19  1  0  0  0
 17 18  2  0  0  0
 19 20  1  0  0  0
 19 21  1  0  0  0
 26 27  1  0  0  0
 26 28  1  0  0  0
 20 22  1  0  0  0
 20 23  1  0  0  0
 21 24  1  0  0  0
 21 25  1  0  0  0
M  END
> <minimizedAffinity>
-10.31727

$$$$
2CN0_F25_H_1246


 36 40  0  0  0  0  0  0  0  0999 V2000
   15.4429  -10.7986   19.1178 O   0  0  0  0  0  0  0  0  0  0  0  0
   15.2733  -11.8327   18.5615 C   0  0  0  0  0  0  0  0  0  0  0  0
   16.2345  -12.3517   17.7842 N   0  0  0  0  0  0  0  0  0  0  0  0
   15.9209  -13.6948   17.3137 C   0  0  0  0  0  0  0  0  0  0  0  0
   14.6517  -14.0587   18.1131 C   0  0  0  0  0  0  0  0  0  0  0  0
   14.9222  -14.9421   19.3191 C   0  0  0  0  0  0  0  0  0  0  0  0
   14.5836  -14.1102   20.4894 N   0  0  0  0  0  0  0  0  0  0  0  0
   14.0767  -14.9693   21.5789 C   0  0  0  0  0  0  0  0  0  0  0  0
   14.0172  -16.3677   20.9886 C   0  0  0  0  0  0  0  0  0  0  0  0
   14.1040  -16.2122   19.4755 C   0  0  0  0  0  0  0  0  0  0  0  0
   13.5730  -13.1395   20.0082 C   0  0  0  0  0  0  0  0  0  0  0  0
   14.0825  -12.7423   18.6339 C   0  0  0  0  0  0  0  0  0  0  0  0
   13.3147  -12.0326   20.9731 C   0  0  0  0  0  0  0  0  0  0  0  0
   14.2860  -11.1344   21.3711 C   0  0  0  0  0  0  0  0  0  0  0  0
   13.9730  -10.1147   22.2648 C   0  0  0  0  0  0  0  0  0  0  0  0
   12.6963  -10.0028   22.8034 C   0  0  0  0  0  0  0  0  0  0  0  0
   11.7332  -10.8940   22.4096 C   0  0  0  0  0  0  0  0  0  0  0  0
   12.0423  -11.9051   21.5040 C   0  0  0  0  0  0  0  0  0  0  0  0
   12.4067   -8.9074   23.7798 C   0  0  0  0  0  0  0  0  0  0  0  0
   13.3209   -7.9903   24.1242 N   0  0  0  0  0  0  0  0  0  0  0  0
   11.2132   -8.7788   24.3328 N   0  0  0  0  0  0  0  0  0  0  0  0
   12.8516   -7.1687   24.5050 H   0  0  0  0  0  0  0  0  0  0  0  0
   13.8608   -7.7227   23.3013 H   0  0  0  0  0  0  0  0  0  0  0  0
   11.0696   -7.8076   24.6096 H   0  0  0  0  0  0  0  0  0  0  0  0
   11.1531   -9.3792   25.1552 H   0  0  0  0  0  0  0  0  0  0  0  0
   15.6270  -13.7140   15.8263 C   0  0  0  0  0  0  0  0  0  0  0  0
   15.2765  -12.4522   15.4281 F   0  0  0  0  0  0  0  0  0  0  0  0
   16.7145  -14.0501   15.0731 F   0  0  0  0  0  0  0  0  0  0  0  0
   17.5664  -11.7842   17.5970 C   0  0  0  0  0  0  0  0  0  0  0  0
   18.5215  -12.2476   18.6606 C   0  0  0  0  0  0  0  0  0  0  0  0
   19.8961  -12.0546   18.5123 C   0  0  0  0  0  0  0  0  0  0  0  0
   20.7909  -12.4665   19.4855 C   0  0  0  0  0  0  0  0  0  0  0  0
   20.3086  -13.0770   20.6287 C   0  0  0  0  0  0  0  0  0  0  0  0
   21.1504  -13.4920   21.5948 F   0  0  0  0  0  0  0  0  0  0  0  0
   18.9475  -13.3005   20.7869 C   0  0  0  0  0  0  0  0  0  0  0  0
   18.0663  -12.8843   19.8122 C   0  0  0  0  0  0  0  0  0  0  0  0
  1  2  2  0  0  0
  2  3  1  0  0  0
  2 12  1  0  0  0
  3 29  1  0  0  0
  3  4  1  0  0  0
 29 30  1  0  0  0
 30 31  2  0  0  0
 30 36  1  0  0  0
 31 32  1  0  0  0
 32 33  2  0  0  0
 33 34  1  0  0  0
 33 35  1  0  0  0
 35 36  2  0  0  0
  4  5  1  0  0  0
  4 26  1  0  0  0
  5  6  1  0  0  0
  5 12  1  0  0  0
  6  7  1  0  0  0
  6 10  1  0  0  0
  7  8  1  0  0  0
  7 11  1  0  0  0
  8  9  1  0  0  0
  9 10  1  0  0  0
 11 13  1  0  0  0
 11 12  1  0  0  0
 13 14  2  0  0  0
 13 18  1  0  0  0
 14 15  1  0  0  0
 15 16  2  0  0  0
 16 17  1  0  0  0
 16 19  1  0  0  0
 17 18  2  0  0  0
 19 20  1  0  0  0
 19 21  1  0  0  0
 26 27  1  0  0  0
 26 28  1  0  0  0
 20 22  1  0  0  0
 20 23  1  0  0  0
 21 24  1  0  0  0
 21 25  1  0  0  0
M  END
> <minimizedAffinity>
-9.47954

$$$$
2CN0_F25_H_1246


 36 40  0  0  0  0  0  0  0  0999 V2000
   17.1104  -12.3105   21.8239 O   0  0  0  0  0  0  0  0  0  0  0  0
   16.8334  -12.2623   20.6713 C   0  0  0  0  0  0  0  0  0  0  0  0
   15.9976  -11.3198   20.2122 N   0  0  0  0  0  0  0  0  0  0  0  0
   15.8980  -11.3084   18.7583 C   0  0  0  0  0  0  0  0  0  0  0  0
   17.0062  -12.2909   18.3236 C   0  0  0  0  0  0  0  0  0  0  0  0
   18.2862  -11.6072   17.8738 C   0  0  0  0  0  0  0  0  0  0  0  0
   19.2993  -11.9893   18.8757 N   0  0  0  0  0  0  0  0  0  0  0  0
   20.6274  -12.0667   18.2338 C   0  0  0  0  0  0  0  0  0  0  0  0
   20.3715  -11.8166   16.7575 C   0  0  0  0  0  0  0  0  0  0  0  0
   18.8763  -12.0019   16.5311 C   0  0  0  0  0  0  0  0  0  0  0  0
   18.8493  -13.2920   19.4193 C   0  0  0  0  0  0  0  0  0  0  0  0
   17.3462  -13.1243   19.5557 C   0  0  0  0  0  0  0  0  0  0  0  0
   19.5915  -13.7059   20.6445 C   0  0  0  0  0  0  0  0  0  0  0  0
   20.5943  -12.9453   21.2141 C   0  0  0  0  0  0  0  0  0  0  0  0
   21.2370  -13.3845   22.3676 C   0  0  0  0  0  0  0  0  0  0  0  0
   20.9142  -14.6075   22.9444 C   0  0  0  0  0  0  0  0  0  0  0  0
   19.9204  -15.3623   22.3792 C   0  0  0  0  0  0  0  0  0  0  0  0
   19.2670  -14.9161   21.2337 C   0  0  0  0  0  0  0  0  0  0  0  0
   21.6454  -15.0548   24.1702 C   0  0  0  0  0  0  0  0  0  0  0  0
   22.9203  -15.4658   24.1376 N   0  0  0  0  0  0  0  0  0  0  0  0
   21.0668  -15.0395   25.3584 N   0  0  0  0  0  0  0  0  0  0  0  0
   23.3248  -15.3936   25.0712 H   0  0  0  0  0  0  0  0  0  0  0  0
   23.4498  -14.8806   23.4915 H   0  0  0  0  0  0  0  0  0  0  0  0
   21.7804  -14.9626   26.0831 H   0  0  0  0  0  0  0  0  0  0  0  0
   20.5392  -15.9023   25.4908 H   0  0  0  0  0  0  0  0  0  0  0  0
   14.5448  -11.8018   18.2846 C   0  0  0  0  0  0  0  0  0  0  0  0
   13.6735  -10.7465   18.2579 F   0  0  0  0  0  0  0  0  0  0  0  0
   14.5725  -12.2900   17.0104 F   0  0  0  0  0  0  0  0  0  0  0  0
   15.4174  -10.2447   21.0113 C   0  0  0  0  0  0  0  0  0  0  0  0
   14.1540  -10.6827   21.6970 C   0  0  0  0  0  0  0  0  0  0  0  0
   13.3502   -9.7554   22.3622 C   0  0  0  0  0  0  0  0  0  0  0  0
   12.1780  -10.1385   22.9921 C   0  0  0  0  0  0  0  0  0  0  0  0
   11.7968  -11.4673   22.9550 C   0  0  0  0  0  0  0  0  0  0  0  0
   10.6639  -11.8753   23.5585 F   0  0  0  0  0  0  0  0  0  0  0  0
   12.5928  -12.4107   22.3195 C   0  0  0  0  0  0  0  0  0  0  0  0
   13.7564  -12.0171   21.6944 C   0  0  0  0  0  0  0  0  0  0  0  0
  1  2  2  0  0  0
  2  3  1  0  0  0
  2 12  1  0  0  0
  3 29  1  0  0  0
  3  4  1  0  0  0
 29 30  1  0  0  0
 30 31  2  0  0  0
 30 36  1  0  0  0
 31 32  1  0  0  0
 32 33  2  0  0  0
 33 34  1  0  0  0
 33 35  1  0  0  0
 35 36  2  0  0  0
  4  5  1  0  0  0
  4 26  1  0  0  0
  5  6  1  0  0  0
  5 12  1  0  0  0
  6  7  1  0  0  0
  6 10  1  0  0  0
  7  8  1  0  0  0
  7 11  1  0  0  0
  8  9  1  0  0  0
  9 10  1  0  0  0
 11 13  1  0  0  0
 11 12  1  0  0  0
 13 14  2  0  0  0
 13 18  1  0  0  0
 14 15  1  0  0  0
 15 16  2  0  0  0
 16 17  1  0  0  0
 16 19  1  0  0  0
 17 18  2  0  0  0
 19 20  1  0  0  0
 19 21  1  0  0  0
 26 27  1  0  0  0
 26 28  1  0  0  0
 20 22  1  0  0  0
 20 23  1  0  0  0
 21 24  1  0  0  0
 21 25  1  0  0  0
M  END
> <minimizedAffinity>
-9.37259

$$$$
