5EHV_5ON_A_301
  RCSB PDB12061717283D
Coordinates from PDB:5EHV:A:301 Model:1 without hydrogens
 23 24  0  0  0  0            999 V2000
   25.3860   10.1730   10.3710   O 0  0  0  0  0  0  0  0  0  0  0  0
   24.2240    9.6840   10.3380   C 0  0  0  0  0  0  0  0  0  0  0  0
   23.7880    9.1520    9.2820   O 0  0  0  0  0  0  0  0  0  0  0  0
   23.3400    9.7570   11.5650   C 0  0  0  0  0  0  0  0  0  0  0  0
   22.2460    8.9790   11.6350   C 0  0  0  0  0  0  0  0  0  0  0  0
   21.3690    9.0690   12.8570   C 0  0  0  0  0  0  0  0  0  0  0  0
   20.3800    8.1220   13.0630   C 0  0  0  0  0  0  0  0  0  0  0  0
   19.5870    8.2180   14.1950   C 0  0  0  0  0  0  0  0  0  0  0  0
   18.5930    7.2810   14.4220   O 0  0  0  0  0  0  0  0  0  0  0  0
   18.5000    6.1750   13.5260   C 0  0  0  0  0  0  0  0  0  0  0  0
   17.4350    5.2740   14.0930   C 0  0  0  0  0  0  0  0  0  0  0  0
   16.0930    5.6270   14.0030   C 0  0  0  0  0  0  0  0  0  0  0  0
   15.1360    4.8190   14.5550   C 0  0  0  0  0  0  0  0  0  0  0  0
   15.4890    3.6380   15.1680   C 0  0  0  0  0  0  0  0  0  0  0  0
   16.8140    3.2520   15.2590   C 0  0  0  0  0  0  0  0  0  0  0  0
   17.2200    1.9440   15.9390   C 0  0  0  0  0  0  0  0  0  0  0  0
   16.4050    0.7620   15.4200   C 0  0  0  0  0  0  0  0  0  0  0  0
   15.3450    0.4040   16.0480   O 0  0  0  0  0  0  0  0  0  0  0  0
   16.8000    0.0960   14.4040   O 0  0  0  0  0  0  0  0  0  0  0  0
   17.7860    4.0740   14.7060   C 0  0  0  0  0  0  0  0  0  0  0  0
   19.7530    9.2480   15.1070   C 0  0  0  0  0  0  0  0  0  0  0  0
   20.7340   10.1940   14.8830   C 0  0  0  0  0  0  0  0  0  0  0  0
   21.5450   10.1000   13.7590   C 0  0  0  0  0  0  0  0  0  0  0  0
  3  2  2  0  0  0  0
  2  1  1  0  0  0  0
  2  4  1  0  0  0  0
  4  5  2  0  0  0  0
  5  6  1  0  0  0  0
  6  7  2  0  0  0  0
  6 23  1  0  0  0  0
  7  8  1  0  0  0  0
 10 11  1  0  0  0  0
 10  9  1  0  0  0  0
 23 22  2  0  0  0  0
 12 11  2  0  0  0  0
 12 13  1  0  0  0  0
 11 20  1  0  0  0  0
  8  9  1  0  0  0  0
  8 21  2  0  0  0  0
 19 17  2  0  0  0  0
 13 14  2  0  0  0  0
 20 15  2  0  0  0  0
 22 21  1  0  0  0  0
 14 15  1  0  0  0  0
 15 16  1  0  0  0  0
 17 16  1  0  0  0  0
 17 18  1  0  0  0  0
A    1
O01
A    2
C02
A    3
O03
A    4
C04
A    5
C05
A    6
C06
A    7
C07
A    8
C08
A    9
O09
A   10
C10
A   11
C11
A   12
C12
A   13
C13
A   14
C14
A   15
C15
A   16
C16
A   17
C17
A   18
O18
A   19
O19
A   20
C20
A   21
C21
A   22
C22
A   23
C23
M  END
>  <InstanceId>
5EHV_5ON_A_301

>  <ChemCompId>
5ON

>  <PdbId>
5EHV

>  <ChainId>
A

>  <ResidueNumber>
301

>  <InsertionCode>


>  <Model>
1

>  <AltIds>


>  <MissingHeavyAtoms>
0

>  <ObservedFormula>
C18 O5

>  <Name>
(~{E})-3-[3-[[3-(2-hydroxy-2-oxoethyl)phenyl]methoxy]phenyl]prop-2-enoic acid

>  <SystematicName>
(~{E})-3-[3-[[3-(2-hydroxy-2-oxoethyl)phenyl]methoxy]phenyl]prop-2-enoic acid

>  <Synonyms>


>  <Type>
NON-POLYMER

>  <Formula>
C18 H16 O5

>  <MolecularWeight>
312.317

>  <ModifiedDate>
2016-03-04

>  <Parent>


>  <OneLetterCode>


>  <SubcomponentList>


>  <AmbiguousFlag>
N

>  <InChI>
InChI=1S/C18H16O5/c19-17(20)8-7-13-3-2-6-16(10-13)23-12-15-5-1-4-14(9-15)11-18(21)22/h1-10H,11-12H2,(H,19,20)(H,21,22)/b8-7+

>  <InChIKey>
OEFDOGJCFYDFNL-BQYQJAHWSA-N

>  <SMILES>
c1cc(cc(c1)COc2cccc(c2)/C=C/C(=O)O)CC(=O)O

$$$$
