1XK5_TPG_A_400


 65 70  0  0  0  0  0  0  0  0999 V2000
   12.7026   39.5697   10.3533 P   0  0  0  0  0  0  0  0  0  0  0  0
   13.1313   41.1186   10.2427 O   0  0  0  0  0  0  0  0  0  0  0  0
   12.8663   38.7983   11.6056 O   0  0  0  0  0  0  0  0  0  0  0  0
   12.1584   39.0340   12.2254 H   0  0  0  0  0  0  0  0  0  0  0  0
   11.6170   39.1707    9.2325 O   0  0  0  0  0  0  0  0  0  0  0  0
   11.7510   39.7079    7.7201 P   0  0  0  0  0  0  0  0  0  0  0  0
   10.2649   39.7664    7.1011 O   0  0  0  0  0  0  0  0  0  0  0  0
   12.4318   41.0180    7.6183 O   0  0  0  0  0  0  0  0  0  0  0  0
   12.4809   41.2854    6.6872 H   0  0  0  0  0  0  0  0  0  0  0  0
   12.5424   38.5647    6.9102 O   0  0  0  0  0  0  0  0  0  0  0  0
   11.8207   37.6283    6.1072 C   0  0  0  0  0  0  0  0  0  0  0  0
   13.3972   34.4447    5.5956 C   0  0  0  0  0  0  0  0  0  0  0  0
   12.2568   35.3024    5.4034 O   0  0  0  0  0  0  0  0  0  0  0  0
   13.8127   34.6427    7.0552 C   0  0  0  0  0  0  0  0  0  0  0  0
   12.9656   33.8634    7.9043 O   0  0  0  0  0  0  0  0  0  0  0  0
   13.5365   36.1352    7.2098 C   0  0  0  0  0  0  0  0  0  0  0  0
   13.4295   36.4752    8.5949 O   0  0  0  0  0  0  0  0  0  0  0  0
   12.1735   36.2001    6.5238 C   0  0  0  0  0  0  0  0  0  0  0  0
   12.0379   34.0837    7.7257 H   0  0  0  0  0  0  0  0  0  0  0  0
   12.7653   35.9079    9.0167 H   0  0  0  0  0  0  0  0  0  0  0  0
   18.0449   34.8748    1.9423 O   0  0  0  0  0  0  0  0  0  0  0  0
   17.4594   34.3786    2.9032 C   0  0  0  0  0  0  0  0  0  0  0  0
   18.0244   33.2908    3.5832 N   0  0  0  0  0  0  0  0  0  0  0  0
   17.3457   32.7319    4.6739 C   0  0  0  0  0  0  0  0  0  0  0  0
   16.1688   33.2541    5.0510 N   0  0  0  0  0  0  0  0  0  0  0  0
   15.6078   34.2976    4.4176 C   0  0  0  0  0  0  0  0  0  0  0  0
   16.2351   34.8906    3.3235 C   0  0  0  0  0  0  0  0  0  0  0  0
   15.4267   35.8172    2.8150 N   0  0  0  0  0  0  0  0  0  0  0  0
   15.6582   36.5733    1.5639 C   0  0  0  0  0  0  0  0  0  0  0  0
   14.2588   35.9983    3.6857 C   0  0  0  0  0  0  0  0  0  0  0  0
   14.4194   34.8659    4.6089 N   0  0  0  0  0  0  0  0  0  0  0  0
   18.8913   32.9225    3.2966 H   0  0  0  0  0  0  0  0  0  0  0  0
   17.8421   31.6721    5.3095 N   0  0  0  0  0  0  0  0  0  0  0  0
   18.9575   31.8273    6.2546 C   0  0  0  0  0  0  0  0  0  0  0  0
   17.2744   30.3357    5.0796 C   0  0  0  0  0  0  0  0  0  0  0  0
   13.9579   39.0237    9.5036 O   0  0  0  0  0  0  0  0  0  0  0  0
   15.4571   39.1341   10.0846 P   0  0  0  0  0  0  0  0  0  0  0  0
   16.5666   38.8267    8.9572 O   0  0  0  0  0  0  0  0  0  0  0  0
   15.7742   39.8938   11.3134 O   0  0  0  0  0  0  0  0  0  0  0  0
   15.7982   40.8419   11.1101 H   0  0  0  0  0  0  0  0  0  0  0  0
   15.4745   37.6323   10.6658 O   0  0  0  0  0  0  0  0  0  0  0  0
   16.3072   37.2592   11.7685 C   0  0  0  0  0  0  0  0  0  0  0  0
   15.4965   36.9072   13.0180 C   0  0  0  0  0  0  0  0  0  0  0  0
   14.0969   36.7139   12.7536 O   0  0  0  0  0  0  0  0  0  0  0  0
   15.9167   35.5518   13.5839 C   0  0  0  0  0  0  0  0  0  0  0  0
   17.1653   35.6907   14.2672 O   0  0  0  0  0  0  0  0  0  0  0  0
   14.7955   35.4025   14.6087 C   0  0  0  0  0  0  0  0  0  0  0  0
   14.9953   36.3262   15.6821 O   0  0  0  0  0  0  0  0  0  0  0  0
   13.5854   35.8351   13.7761 C   0  0  0  0  0  0  0  0  0  0  0  0
   17.1002   36.4078   14.9172 H   0  0  0  0  0  0  0  0  0  0  0  0
   15.0731   37.2247   15.3251 H   0  0  0  0  0  0  0  0  0  0  0  0
   12.9446   34.6677   13.1252 N   0  0  0  0  0  0  0  0  0  0  0  0
   13.1146   33.3907   13.4602 C   0  0  0  0  0  0  0  0  0  0  0  0
   12.4522   32.6143   12.6055 N   0  0  0  0  0  0  0  0  0  0  0  0
   11.8483   33.4011   11.7203 C   0  0  0  0  0  0  0  0  0  0  0  0
   12.1539   34.7156   12.0559 C   0  0  0  0  0  0  0  0  0  0  0  0
   11.6687   35.7400   11.3368 N   0  0  0  0  0  0  0  0  0  0  0  0
   10.8783   35.5435   10.2709 C   0  0  0  0  0  0  0  0  0  0  0  0
   10.4056   36.5832    9.5894 N   0  0  0  0  0  0  0  0  0  0  0  0
   10.5427   34.2398    9.8828 N   0  0  0  0  0  0  0  0  0  0  0  0
   11.0372   33.1554   10.6187 C   0  0  0  0  0  0  0  0  0  0  0  0
   10.7741   32.0030   10.2785 O   0  0  0  0  0  0  0  0  0  0  0  0
   10.6417   37.4992    9.8624 H   0  0  0  0  0  0  0  0  0  0  0  0
    9.8197   36.4369    8.8119 H   0  0  0  0  0  0  0  0  0  0  0  0
    9.9649   34.0873    9.1004 H   0  0  0  0  0  0  0  0  0  0  0  0
 21 22  2  0  0  0
 22 23  1  0  0  0
 22 27  1  0  0  0
 23 24  1  0  0  0
 24 33  1  0  0  0
 24 25  2  0  0  0
 33 34  1  0  0  0
 33 35  1  0  0  0
 25 26  1  0  0  0
 26 27  2  0  0  0
 26 31  1  0  0  0
 27 28  1  0  0  0
 28 29  1  0  0  0
 28 30  1  0  0  0
 30 31  1  0  0  0
 31 12  1  0  0  0
 12 13  1  0  0  0
 12 14  1  0  0  0
 13 18  1  0  0  0
 14 15  1  0  0  0
 14 16  1  0  0  0
 16 17  1  0  0  0
 16 18  1  0  0  0
 18 11  1  0  0  0
 11 10  1  0  0  0
 10  6  1  0  0  0
  6  7  2  0  0  0
  6  8  1  0  0  0
  6  5  1  0  0  0
  5  1  1  0  0  0
  1  2  2  0  0  0
  1  3  1  0  0  0
  1 36  1  0  0  0
 36 37  1  0  0  0
 37 38  2  0  0  0
 37 39  1  0  0  0
 37 41  1  0  0  0
 41 42  1  0  0  0
 42 43  1  0  0  0
 43 44  1  0  0  0
 43 45  1  0  0  0
 44 49  1  0  0  0
 45 46  1  0  0  0
 45 47  1  0  0  0
 47 48  1  0  0  0
 47 49  1  0  0  0
 49 52  1  0  0  0
 52 53  1  0  0  0
 52 56  1  0  0  0
 53 54  2  0  0  0
 54 55  1  0  0  0
 55 56  2  0  0  0
 55 61  1  0  0  0
 56 57  1  0  0  0
 57 58  2  0  0  0
 58 59  1  0  0  0
 58 60  1  0  0  0
 60 61  1  0  0  0
 61 62  2  0  0  0
 23 32  1  0  0  0
 15 19  1  0  0  0
 17 20  1  0  0  0
  8  9  1  0  0  0
  3  4  1  0  0  0
 39 40  1  0  0  0
 46 50  1  0  0  0
 48 51  1  0  0  0
 59 63  1  0  0  0
 59 64  1  0  0  0
 60 65  1  0  0  0
M  END
> <minimizedAffinity>
-8.18028

$$$$
1XK5_TPG_A_400


 65 70  0  0  0  0  0  0  0  0999 V2000
   11.8288   39.9641    8.9778 P   0  0  0  0  0  0  0  0  0  0  0  0
   11.7866   41.4363    9.6306 O   0  0  0  0  0  0  0  0  0  0  0  0
   11.2546   38.7854    9.6641 O   0  0  0  0  0  0  0  0  0  0  0  0
   10.2892   38.7948    9.5697 H   0  0  0  0  0  0  0  0  0  0  0  0
   12.0068   40.0267    7.3785 O   0  0  0  0  0  0  0  0  0  0  0  0
   11.0727   39.1467    6.4052 P   0  0  0  0  0  0  0  0  0  0  0  0
    9.6076   39.0904    7.0724 O   0  0  0  0  0  0  0  0  0  0  0  0
   11.0167   39.6614    5.0187 O   0  0  0  0  0  0  0  0  0  0  0  0
   10.4414   39.0912    4.4851 H   0  0  0  0  0  0  0  0  0  0  0  0
   11.6605   37.6498    6.4579 O   0  0  0  0  0  0  0  0  0  0  0  0
   13.0591   37.4244    6.2697 C   0  0  0  0  0  0  0  0  0  0  0  0
   12.1095   33.9905    5.8354 C   0  0  0  0  0  0  0  0  0  0  0  0
   12.7225   35.0081    6.6488 O   0  0  0  0  0  0  0  0  0  0  0  0
   12.6296   34.2363    4.4172 C   0  0  0  0  0  0  0  0  0  0  0  0
   13.9420   33.6828    4.2858 O   0  0  0  0  0  0  0  0  0  0  0  0
   12.6639   35.7616    4.4076 C   0  0  0  0  0  0  0  0  0  0  0  0
   13.5190   36.2281    3.3604 O   0  0  0  0  0  0  0  0  0  0  0  0
   13.2977   35.9967    5.7770 C   0  0  0  0  0  0  0  0  0  0  0  0
   14.5147   34.0399    4.9825 H   0  0  0  0  0  0  0  0  0  0  0  0
   14.3931   35.8170    3.4494 H   0  0  0  0  0  0  0  0  0  0  0  0
    6.5613   34.7136    7.7920 O   0  0  0  0  0  0  0  0  0  0  0  0
    7.7438   34.4200    7.9594 C   0  0  0  0  0  0  0  0  0  0  0  0
    8.2163   34.1181    9.2441 N   0  0  0  0  0  0  0  0  0  0  0  0
    9.5663   33.7891    9.4224 C   0  0  0  0  0  0  0  0  0  0  0  0
   10.3808   33.7629    8.3565 N   0  0  0  0  0  0  0  0  0  0  0  0
    9.9519   34.0457    7.1152 C   0  0  0  0  0  0  0  0  0  0  0  0
    8.6208   34.3844    6.8789 C   0  0  0  0  0  0  0  0  0  0  0  0
    8.4846   34.7249    5.5999 N   0  0  0  0  0  0  0  0  0  0  0  0
    7.2628   35.2850    4.9802 C   0  0  0  0  0  0  0  0  0  0  0  0
    9.7303   34.4539    4.8719 C   0  0  0  0  0  0  0  0  0  0  0  0
   10.6438   34.1513    5.9830 N   0  0  0  0  0  0  0  0  0  0  0  0
    7.6043   34.1372   10.0151 H   0  0  0  0  0  0  0  0  0  0  0  0
   10.0475   33.5392   10.6387 N   0  0  0  0  0  0  0  0  0  0  0  0
   10.5699   32.2060   10.9720 C   0  0  0  0  0  0  0  0  0  0  0  0
   10.0698   34.5967   11.6597 C   0  0  0  0  0  0  0  0  0  0  0  0
   13.3981   39.7373    9.2639 O   0  0  0  0  0  0  0  0  0  0  0  0
   13.9529   39.6238   10.7729 P   0  0  0  0  0  0  0  0  0  0  0  0
   15.1578   40.6563   11.0533 O   0  0  0  0  0  0  0  0  0  0  0  0
   13.1506   39.0358   11.8674 O   0  0  0  0  0  0  0  0  0  0  0  0
   12.4955   39.6831   12.1719 H   0  0  0  0  0  0  0  0  0  0  0  0
   14.9388   38.3923   10.4491 O   0  0  0  0  0  0  0  0  0  0  0  0
   14.8749   37.6802    9.2092 C   0  0  0  0  0  0  0  0  0  0  0  0
   14.6254   36.1834    9.4089 C   0  0  0  0  0  0  0  0  0  0  0  0
   15.5735   35.5603   10.2915 O   0  0  0  0  0  0  0  0  0  0  0  0
   13.2972   35.9365   10.1223 C   0  0  0  0  0  0  0  0  0  0  0  0
   12.2214   36.1314    9.2004 O   0  0  0  0  0  0  0  0  0  0  0  0
   13.4777   34.4425   10.3774 C   0  0  0  0  0  0  0  0  0  0  0  0
   13.3711   33.7252    9.1447 O   0  0  0  0  0  0  0  0  0  0  0  0
   14.9274   34.4078   10.8691 C   0  0  0  0  0  0  0  0  0  0  0  0
   12.3720   35.5914    8.4088 H   0  0  0  0  0  0  0  0  0  0  0  0
   14.0050   34.0856    8.5050 H   0  0  0  0  0  0  0  0  0  0  0  0
   14.9893   34.5164   12.3461 N   0  0  0  0  0  0  0  0  0  0  0  0
   13.9725   34.3499   13.1889 C   0  0  0  0  0  0  0  0  0  0  0  0
   14.3768   34.6078   14.4307 N   0  0  0  0  0  0  0  0  0  0  0  0
   15.6643   34.9356   14.3829 C   0  0  0  0  0  0  0  0  0  0  0  0
   16.0611   34.8689   13.0517 C   0  0  0  0  0  0  0  0  0  0  0  0
   17.3266   35.1409   12.6965 N   0  0  0  0  0  0  0  0  0  0  0  0
   18.2550   35.4895   13.5999 C   0  0  0  0  0  0  0  0  0  0  0  0
   19.5025   35.7399   13.2129 N   0  0  0  0  0  0  0  0  0  0  0  0
   17.9100   35.5791   14.9549 N   0  0  0  0  0  0  0  0  0  0  0  0
   16.5953   35.2991   15.3488 C   0  0  0  0  0  0  0  0  0  0  0  0
   16.2674   35.3968   16.5303 O   0  0  0  0  0  0  0  0  0  0  0  0
   19.7445   35.6768   12.2607 H   0  0  0  0  0  0  0  0  0  0  0  0
   20.1840   35.9883   13.8785 H   0  0  0  0  0  0  0  0  0  0  0  0
   18.5851   35.8363   15.6237 H   0  0  0  0  0  0  0  0  0  0  0  0
 21 22  2  0  0  0
 22 23  1  0  0  0
 22 27  1  0  0  0
 23 24  1  0  0  0
 24 33  1  0  0  0
 24 25  2  0  0  0
 33 34  1  0  0  0
 33 35  1  0  0  0
 25 26  1  0  0  0
 26 27  2  0  0  0
 26 31  1  0  0  0
 27 28  1  0  0  0
 28 29  1  0  0  0
 28 30  1  0  0  0
 30 31  1  0  0  0
 31 12  1  0  0  0
 12 13  1  0  0  0
 12 14  1  0  0  0
 13 18  1  0  0  0
 14 15  1  0  0  0
 14 16  1  0  0  0
 16 17  1  0  0  0
 16 18  1  0  0  0
 18 11  1  0  0  0
 11 10  1  0  0  0
 10  6  1  0  0  0
  6  7  2  0  0  0
  6  8  1  0  0  0
  6  5  1  0  0  0
  5  1  1  0  0  0
  1  2  2  0  0  0
  1  3  1  0  0  0
  1 36  1  0  0  0
 36 37  1  0  0  0
 37 38  2  0  0  0
 37 39  1  0  0  0
 37 41  1  0  0  0
 41 42  1  0  0  0
 42 43  1  0  0  0
 43 44  1  0  0  0
 43 45  1  0  0  0
 44 49  1  0  0  0
 45 46  1  0  0  0
 45 47  1  0  0  0
 47 48  1  0  0  0
 47 49  1  0  0  0
 49 52  1  0  0  0
 52 53  1  0  0  0
 52 56  1  0  0  0
 53 54  2  0  0  0
 54 55  1  0  0  0
 55 56  2  0  0  0
 55 61  1  0  0  0
 56 57  1  0  0  0
 57 58  2  0  0  0
 58 59  1  0  0  0
 58 60  1  0  0  0
 60 61  1  0  0  0
 61 62  2  0  0  0
 23 32  1  0  0  0
 15 19  1  0  0  0
 17 20  1  0  0  0
  8  9  1  0  0  0
  3  4  1  0  0  0
 39 40  1  0  0  0
 46 50  1  0  0  0
 48 51  1  0  0  0
 59 63  1  0  0  0
 59 64  1  0  0  0
 60 65  1  0  0  0
M  END
> <minimizedAffinity>
-8.10479

$$$$
1XK5_TPG_A_400


 65 70  0  0  0  0  0  0  0  0999 V2000
   12.8471   39.5074   10.5747 P   0  0  0  0  0  0  0  0  0  0  0  0
   13.2716   40.9602   10.0231 O   0  0  0  0  0  0  0  0  0  0  0  0
   13.1824   39.0603   11.9450 O   0  0  0  0  0  0  0  0  0  0  0  0
   12.5743   39.4734   12.5778 H   0  0  0  0  0  0  0  0  0  0  0  0
   11.6064   38.8963    9.7496 O   0  0  0  0  0  0  0  0  0  0  0  0
   11.2317   39.4501    8.2843 P   0  0  0  0  0  0  0  0  0  0  0  0
    9.9388   40.3970    8.4484 O   0  0  0  0  0  0  0  0  0  0  0  0
   12.3456   40.1648    7.6221 O   0  0  0  0  0  0  0  0  0  0  0  0
   12.0584   40.4721    6.7480 H   0  0  0  0  0  0  0  0  0  0  0  0
   10.7594   38.1697    7.4319 O   0  0  0  0  0  0  0  0  0  0  0  0
   11.6977   37.4740    6.6085 C   0  0  0  0  0  0  0  0  0  0  0  0
   13.0525   34.4562    8.0014 C   0  0  0  0  0  0  0  0  0  0  0  0
   12.0990   35.5322    8.0796 O   0  0  0  0  0  0  0  0  0  0  0  0
   14.3801   35.1168    7.6229 C   0  0  0  0  0  0  0  0  0  0  0  0
   14.9800   35.6886    8.7888 O   0  0  0  0  0  0  0  0  0  0  0  0
   13.8774   36.1955    6.6683 C   0  0  0  0  0  0  0  0  0  0  0  0
   14.8652   37.2187    6.5174 O   0  0  0  0  0  0  0  0  0  0  0  0
   12.6868   36.7002    7.4808 C   0  0  0  0  0  0  0  0  0  0  0  0
   14.3491   36.2891    9.2156 H   0  0  0  0  0  0  0  0  0  0  0  0
   15.1179   37.5555    7.3912 H   0  0  0  0  0  0  0  0  0  0  0  0
    9.8452   31.4465    4.0279 O   0  0  0  0  0  0  0  0  0  0  0  0
    9.9539   32.2392    4.9618 C   0  0  0  0  0  0  0  0  0  0  0  0
    8.8271   32.9282    5.4315 N   0  0  0  0  0  0  0  0  0  0  0  0
    8.9646   33.8315    6.4934 C   0  0  0  0  0  0  0  0  0  0  0  0
   10.1736   34.0149    7.0455 N   0  0  0  0  0  0  0  0  0  0  0  0
   11.2679   33.3651    6.6153 C   0  0  0  0  0  0  0  0  0  0  0  0
   11.1918   32.4587    5.5594 C   0  0  0  0  0  0  0  0  0  0  0  0
   12.4202   32.0447    5.2593 N   0  0  0  0  0  0  0  0  0  0  0  0
   12.7868   31.1906    4.1074 C   0  0  0  0  0  0  0  0  0  0  0  0
   13.3776   32.5502    6.2506 C   0  0  0  0  0  0  0  0  0  0  0  0
   12.5375   33.5019    6.9914 N   0  0  0  0  0  0  0  0  0  0  0  0
    7.9461   32.7785    5.0184 H   0  0  0  0  0  0  0  0  0  0  0  0
    7.9170   34.5286    6.9295 N   0  0  0  0  0  0  0  0  0  0  0  0
    7.2830   34.1929    8.2127 C   0  0  0  0  0  0  0  0  0  0  0  0
    7.3880   35.6476    6.1364 C   0  0  0  0  0  0  0  0  0  0  0  0
   13.9601   38.7120    9.7235 O   0  0  0  0  0  0  0  0  0  0  0  0
   15.5227   38.8236   10.1024 P   0  0  0  0  0  0  0  0  0  0  0  0
   16.4732   38.3223    8.9017 O   0  0  0  0  0  0  0  0  0  0  0  0
   16.0140   39.7175   11.1733 O   0  0  0  0  0  0  0  0  0  0  0  0
   16.0429   40.6298   10.8450 H   0  0  0  0  0  0  0  0  0  0  0  0
   15.5641   37.4090   10.8709 O   0  0  0  0  0  0  0  0  0  0  0  0
   16.2812   37.2371   12.0976 C   0  0  0  0  0  0  0  0  0  0  0  0
   15.3566   36.9087   13.2721 C   0  0  0  0  0  0  0  0  0  0  0  0
   14.0022   36.6393   12.8732 O   0  0  0  0  0  0  0  0  0  0  0  0
   15.7683   35.6025   13.9493 C   0  0  0  0  0  0  0  0  0  0  0  0
   16.9302   35.8309   14.7512 O   0  0  0  0  0  0  0  0  0  0  0  0
   14.5509   35.4515   14.8575 C   0  0  0  0  0  0  0  0  0  0  0  0
   14.5976   36.4337   15.8959 O   0  0  0  0  0  0  0  0  0  0  0  0
   13.4203   35.7880   13.8813 C   0  0  0  0  0  0  0  0  0  0  0  0
   16.7672   36.5746   15.3522 H   0  0  0  0  0  0  0  0  0  0  0  0
   14.6768   37.3168   15.5024 H   0  0  0  0  0  0  0  0  0  0  0  0
   12.9003   34.5628   13.2291 N   0  0  0  0  0  0  0  0  0  0  0  0
   13.2680   33.3125   13.5003 C   0  0  0  0  0  0  0  0  0  0  0  0
   12.6580   32.4773   12.6622 N   0  0  0  0  0  0  0  0  0  0  0  0
   11.8890   33.1984   11.8522 C   0  0  0  0  0  0  0  0  0  0  0  0
   12.0348   34.5320   12.2187 C   0  0  0  0  0  0  0  0  0  0  0  0
   11.3624   35.4997   11.5759 N   0  0  0  0  0  0  0  0  0  0  0  0
   10.5310   35.2270   10.5590 C   0  0  0  0  0  0  0  0  0  0  0  0
    9.8717   36.2105    9.9534 N   0  0  0  0  0  0  0  0  0  0  0  0
   10.3504   33.9015   10.1427 N   0  0  0  0  0  0  0  0  0  0  0  0
   11.0413   32.8752   10.7993 C   0  0  0  0  0  0  0  0  0  0  0  0
   10.9149   31.7081   10.4317 O   0  0  0  0  0  0  0  0  0  0  0  0
    9.9989   37.1418   10.2463 H   0  0  0  0  0  0  0  0  0  0  0  0
    9.2564   36.0073    9.2123 H   0  0  0  0  0  0  0  0  0  0  0  0
    9.7436   33.6934    9.3958 H   0  0  0  0  0  0  0  0  0  0  0  0
 21 22  2  0  0  0
 22 23  1  0  0  0
 22 27  1  0  0  0
 23 24  1  0  0  0
 24 33  1  0  0  0
 24 25  2  0  0  0
 33 34  1  0  0  0
 33 35  1  0  0  0
 25 26  1  0  0  0
 26 27  2  0  0  0
 26 31  1  0  0  0
 27 28  1  0  0  0
 28 29  1  0  0  0
 28 30  1  0  0  0
 30 31  1  0  0  0
 31 12  1  0  0  0
 12 13  1  0  0  0
 12 14  1  0  0  0
 13 18  1  0  0  0
 14 15  1  0  0  0
 14 16  1  0  0  0
 16 17  1  0  0  0
 16 18  1  0  0  0
 18 11  1  0  0  0
 11 10  1  0  0  0
 10  6  1  0  0  0
  6  7  2  0  0  0
  6  8  1  0  0  0
  6  5  1  0  0  0
  5  1  1  0  0  0
  1  2  2  0  0  0
  1  3  1  0  0  0
  1 36  1  0  0  0
 36 37  1  0  0  0
 37 38  2  0  0  0
 37 39  1  0  0  0
 37 41  1  0  0  0
 41 42  1  0  0  0
 42 43  1  0  0  0
 43 44  1  0  0  0
 43 45  1  0  0  0
 44 49  1  0  0  0
 45 46  1  0  0  0
 45 47  1  0  0  0
 47 48  1  0  0  0
 47 49  1  0  0  0
 49 52  1  0  0  0
 52 53  1  0  0  0
 52 56  1  0  0  0
 53 54  2  0  0  0
 54 55  1  0  0  0
 55 56  2  0  0  0
 55 61  1  0  0  0
 56 57  1  0  0  0
 57 58  2  0  0  0
 58 59  1  0  0  0
 58 60  1  0  0  0
 60 61  1  0  0  0
 61 62  2  0  0  0
 23 32  1  0  0  0
 15 19  1  0  0  0
 17 20  1  0  0  0
  8  9  1  0  0  0
  3  4  1  0  0  0
 39 40  1  0  0  0
 46 50  1  0  0  0
 48 51  1  0  0  0
 59 63  1  0  0  0
 59 64  1  0  0  0
 60 65  1  0  0  0
M  END
> <minimizedAffinity>
-8.01141

$$$$
1XK5_TPG_A_400


 65 70  0  0  0  0  0  0  0  0999 V2000
   11.9012   34.3586   10.3346 P   0  0  0  0  0  0  0  0  0  0  0  0
   11.1919   32.9143   10.2590 O   0  0  0  0  0  0  0  0  0  0  0  0
   11.1705   35.6081   10.0263 O   0  0  0  0  0  0  0  0  0  0  0  0
   10.6095   35.8490   10.7801 H   0  0  0  0  0  0  0  0  0  0  0  0
   13.2021   34.3343   11.2836 O   0  0  0  0  0  0  0  0  0  0  0  0
   13.2957   35.2764   12.5866 P   0  0  0  0  0  0  0  0  0  0  0  0
   12.4119   36.5902   12.2900 O   0  0  0  0  0  0  0  0  0  0  0  0
   12.8644   34.6037   13.8322 O   0  0  0  0  0  0  0  0  0  0  0  0
   12.9438   35.2202   14.5768 H   0  0  0  0  0  0  0  0  0  0  0  0
   14.8271   35.7622   12.6755 O   0  0  0  0  0  0  0  0  0  0  0  0
   15.3144   36.3738   13.8716 C   0  0  0  0  0  0  0  0  0  0  0  0
   16.6779   33.1177   14.5204 C   0  0  0  0  0  0  0  0  0  0  0  0
   15.6508   34.0967   14.7644 O   0  0  0  0  0  0  0  0  0  0  0  0
   17.9953   33.8963   14.5462 C   0  0  0  0  0  0  0  0  0  0  0  0
   18.3955   34.1156   15.9018 O   0  0  0  0  0  0  0  0  0  0  0  0
   17.5498   35.1942   13.8793 C   0  0  0  0  0  0  0  0  0  0  0  0
   18.4762   36.2429   14.1751 O   0  0  0  0  0  0  0  0  0  0  0  0
   16.2306   35.4047   14.6194 C   0  0  0  0  0  0  0  0  0  0  0  0
   17.6740   34.5464   16.3863 H   0  0  0  0  0  0  0  0  0  0  0  0
   18.5877   36.3142   15.1360 H   0  0  0  0  0  0  0  0  0  0  0  0
   14.1173   30.6476    9.7796 O   0  0  0  0  0  0  0  0  0  0  0  0
   14.1232   30.9764   10.9646 C   0  0  0  0  0  0  0  0  0  0  0  0
   12.9784   30.7862   11.7508 N   0  0  0  0  0  0  0  0  0  0  0  0
   12.9964   31.1687   13.0984 C   0  0  0  0  0  0  0  0  0  0  0  0
   14.1137   31.7046   13.6127 N   0  0  0  0  0  0  0  0  0  0  0  0
   15.2242   31.8948   12.8810 C   0  0  0  0  0  0  0  0  0  0  0  0
   15.2624   31.5380   11.5344 C   0  0  0  0  0  0  0  0  0  0  0  0
   16.4242   31.9313   11.0186 N   0  0  0  0  0  0  0  0  0  0  0  0
   16.7994   31.8701    9.5881 C   0  0  0  0  0  0  0  0  0  0  0  0
   17.3029   32.4325   12.0824 C   0  0  0  0  0  0  0  0  0  0  0  0
   16.3674   32.4894   13.2147 N   0  0  0  0  0  0  0  0  0  0  0  0
   12.1682   30.3871   11.3591 H   0  0  0  0  0  0  0  0  0  0  0  0
   11.9080   31.0365   13.8544 N   0  0  0  0  0  0  0  0  0  0  0  0
   10.6310   31.6275   13.4286 C   0  0  0  0  0  0  0  0  0  0  0  0
   11.9693   30.2905   15.1196 C   0  0  0  0  0  0  0  0  0  0  0  0
   12.7421   34.1647    8.9740 O   0  0  0  0  0  0  0  0  0  0  0  0
   12.0070   34.1898    7.5399 P   0  0  0  0  0  0  0  0  0  0  0  0
   12.9592   33.6386    6.3627 O   0  0  0  0  0  0  0  0  0  0  0  0
   10.5344   34.2268    7.4077 O   0  0  0  0  0  0  0  0  0  0  0  0
   10.1736   33.3396    7.5614 H   0  0  0  0  0  0  0  0  0  0  0  0
   12.3580   35.7343    7.2489 O   0  0  0  0  0  0  0  0  0  0  0  0
   11.6292   36.5061    6.2889 C   0  0  0  0  0  0  0  0  0  0  0  0
   10.8665   37.6667    6.9321 C   0  0  0  0  0  0  0  0  0  0  0  0
   11.0228   37.7298    8.3597 O   0  0  0  0  0  0  0  0  0  0  0  0
   11.4269   39.0135    6.4780 C   0  0  0  0  0  0  0  0  0  0  0  0
   10.9861   39.2841    5.1447 O   0  0  0  0  0  0  0  0  0  0  0  0
   10.6524   39.8957    7.4535 C   0  0  0  0  0  0  0  0  0  0  0  0
    9.2714   39.9291    7.0834 O   0  0  0  0  0  0  0  0  0  0  0  0
   10.8178   39.1020    8.7525 C   0  0  0  0  0  0  0  0  0  0  0  0
   10.0206   39.2020    5.1004 H   0  0  0  0  0  0  0  0  0  0  0  0
    8.9292   39.0231    7.0291 H   0  0  0  0  0  0  0  0  0  0  0  0
   12.0057   39.5643    9.5090 N   0  0  0  0  0  0  0  0  0  0  0  0
   12.1663   40.7645   10.0619 C   0  0  0  0  0  0  0  0  0  0  0  0
   13.3877   40.8546   10.5835 N   0  0  0  0  0  0  0  0  0  0  0  0
   14.0116   39.7005   10.3681 C   0  0  0  0  0  0  0  0  0  0  0  0
   13.1266   38.8699    9.6892 C   0  0  0  0  0  0  0  0  0  0  0  0
   13.4815   37.6226    9.3431 N   0  0  0  0  0  0  0  0  0  0  0  0
   14.6948   37.1275    9.6303 C   0  0  0  0  0  0  0  0  0  0  0  0
   15.0074   35.8824    9.2826 N   0  0  0  0  0  0  0  0  0  0  0  0
   15.6294   37.9220   10.3073 N   0  0  0  0  0  0  0  0  0  0  0  0
   15.2807   39.2267   10.6788 C   0  0  0  0  0  0  0  0  0  0  0  0
   16.0963   39.9478   11.2514 O   0  0  0  0  0  0  0  0  0  0  0  0
   14.3503   35.3245    8.8069 H   0  0  0  0  0  0  0  0  0  0  0  0
   15.8958   35.5186    9.5010 H   0  0  0  0  0  0  0  0  0  0  0  0
   16.5226   37.5667   10.5197 H   0  0  0  0  0  0  0  0  0  0  0  0
 21 22  2  0  0  0
 22 23  1  0  0  0
 22 27  1  0  0  0
 23 24  1  0  0  0
 24 33  1  0  0  0
 24 25  2  0  0  0
 33 34  1  0  0  0
 33 35  1  0  0  0
 25 26  1  0  0  0
 26 27  2  0  0  0
 26 31  1  0  0  0
 27 28  1  0  0  0
 28 29  1  0  0  0
 28 30  1  0  0  0
 30 31  1  0  0  0
 31 12  1  0  0  0
 12 13  1  0  0  0
 12 14  1  0  0  0
 13 18  1  0  0  0
 14 15  1  0  0  0
 14 16  1  0  0  0
 16 17  1  0  0  0
 16 18  1  0  0  0
 18 11  1  0  0  0
 11 10  1  0  0  0
 10  6  1  0  0  0
  6  7  2  0  0  0
  6  8  1  0  0  0
  6  5  1  0  0  0
  5  1  1  0  0  0
  1  2  2  0  0  0
  1  3  1  0  0  0
  1 36  1  0  0  0
 36 37  1  0  0  0
 37 38  2  0  0  0
 37 39  1  0  0  0
 37 41  1  0  0  0
 41 42  1  0  0  0
 42 43  1  0  0  0
 43 44  1  0  0  0
 43 45  1  0  0  0
 44 49  1  0  0  0
 45 46  1  0  0  0
 45 47  1  0  0  0
 47 48  1  0  0  0
 47 49  1  0  0  0
 49 52  1  0  0  0
 52 53  1  0  0  0
 52 56  1  0  0  0
 53 54  2  0  0  0
 54 55  1  0  0  0
 55 56  2  0  0  0
 55 61  1  0  0  0
 56 57  1  0  0  0
 57 58  2  0  0  0
 58 59  1  0  0  0
 58 60  1  0  0  0
 60 61  1  0  0  0
 61 62  2  0  0  0
 23 32  1  0  0  0
 15 19  1  0  0  0
 17 20  1  0  0  0
  8  9  1  0  0  0
  3  4  1  0  0  0
 39 40  1  0  0  0
 46 50  1  0  0  0
 48 51  1  0  0  0
 59 63  1  0  0  0
 59 64  1  0  0  0
 60 65  1  0  0  0
M  END
> <minimizedAffinity>
-7.64103

$$$$
1XK5_TPG_A_400


 65 70  0  0  0  0  0  0  0  0999 V2000
   15.8648   38.2360    9.3245 P   0  0  0  0  0  0  0  0  0  0  0  0
   16.1514   39.6642   10.0122 O   0  0  0  0  0  0  0  0  0  0  0  0
   15.3534   38.1207    7.9406 O   0  0  0  0  0  0  0  0  0  0  0  0
   16.0786   38.2718    7.3143 H   0  0  0  0  0  0  0  0  0  0  0  0
   16.6973   37.0548   10.0355 O   0  0  0  0  0  0  0  0  0  0  0  0
   16.9342   37.0502   11.6286 P   0  0  0  0  0  0  0  0  0  0  0  0
   18.4551   36.5844   11.8835 O   0  0  0  0  0  0  0  0  0  0  0  0
   16.6527   38.3540   12.2699 O   0  0  0  0  0  0  0  0  0  0  0  0
   16.8134   38.2864   13.2241 H   0  0  0  0  0  0  0  0  0  0  0  0
   15.9915   35.8857   12.2154 O   0  0  0  0  0  0  0  0  0  0  0  0
   15.1121   36.1609   13.3078 C   0  0  0  0  0  0  0  0  0  0  0  0
   12.6566   33.5781   13.7345 C   0  0  0  0  0  0  0  0  0  0  0  0
   13.1805   34.8602   14.1278 O   0  0  0  0  0  0  0  0  0  0  0  0
   13.8789   32.6701   13.5800 C   0  0  0  0  0  0  0  0  0  0  0  0
   14.2984   32.2086   14.8672 O   0  0  0  0  0  0  0  0  0  0  0  0
   14.8756   33.6643   12.9918 C   0  0  0  0  0  0  0  0  0  0  0  0
   16.2111   33.1814   13.1616 O   0  0  0  0  0  0  0  0  0  0  0  0
   14.6023   34.8521   13.9120 C   0  0  0  0  0  0  0  0  0  0  0  0
   14.4442   32.9690   15.4516 H   0  0  0  0  0  0  0  0  0  0  0  0
   16.3652   32.9793   14.0977 H   0  0  0  0  0  0  0  0  0  0  0  0
    8.9866   33.2410    9.0922 O   0  0  0  0  0  0  0  0  0  0  0  0
    9.5833   32.7425   10.0450 C   0  0  0  0  0  0  0  0  0  0  0  0
    9.3530   31.4047   10.3945 N   0  0  0  0  0  0  0  0  0  0  0  0
   10.0360   30.8497   11.4845 C   0  0  0  0  0  0  0  0  0  0  0  0
   10.9039   31.6093   12.1699 N   0  0  0  0  0  0  0  0  0  0  0  0
   11.1439   32.8927   11.8535 C   0  0  0  0  0  0  0  0  0  0  0  0
   10.4899   33.4989   10.7825 C   0  0  0  0  0  0  0  0  0  0  0  0
   10.8163   34.7885   10.7541 N   0  0  0  0  0  0  0  0  0  0  0  0
   10.2251   35.8100    9.8609 C   0  0  0  0  0  0  0  0  0  0  0  0
   11.8695   35.0626   11.7393 C   0  0  0  0  0  0  0  0  0  0  0  0
   11.8960   33.7939   12.4811 N   0  0  0  0  0  0  0  0  0  0  0  0
    8.7164   30.8595    9.8781 H   0  0  0  0  0  0  0  0  0  0  0  0
    9.8030   29.5937   11.8613 N   0  0  0  0  0  0  0  0  0  0  0  0
    9.6444   29.2621   13.2848 C   0  0  0  0  0  0  0  0  0  0  0  0
    9.6933   28.5258   10.8571 C   0  0  0  0  0  0  0  0  0  0  0  0
   14.5176   37.9536   10.1619 O   0  0  0  0  0  0  0  0  0  0  0  0
   13.6177   39.1727   10.7112 P   0  0  0  0  0  0  0  0  0  0  0  0
   13.1807   38.9573   12.2471 O   0  0  0  0  0  0  0  0  0  0  0  0
   13.6235   40.5079   10.0752 O   0  0  0  0  0  0  0  0  0  0  0  0
   14.4193   40.9917   10.3463 H   0  0  0  0  0  0  0  0  0  0  0  0
   12.2395   38.5829   10.1228 O   0  0  0  0  0  0  0  0  0  0  0  0
   11.3339   39.3928    9.3662 C   0  0  0  0  0  0  0  0  0  0  0  0
   11.5144   39.2146    7.8569 C   0  0  0  0  0  0  0  0  0  0  0  0
   12.4402   38.1702    7.5130 O   0  0  0  0  0  0  0  0  0  0  0  0
   10.2199   38.7393    7.1993 C   0  0  0  0  0  0  0  0  0  0  0  0
    9.3094   39.8375    7.0982 O   0  0  0  0  0  0  0  0  0  0  0  0
   10.7938   38.4318    5.8188 C   0  0  0  0  0  0  0  0  0  0  0  0
   11.1196   39.6520    5.1479 O   0  0  0  0  0  0  0  0  0  0  0  0
   12.0806   37.6947    6.2000 C   0  0  0  0  0  0  0  0  0  0  0  0
    9.7482   40.5816    6.6570 H   0  0  0  0  0  0  0  0  0  0  0  0
   11.7158   40.1775    5.7040 H   0  0  0  0  0  0  0  0  0  0  0  0
   11.8536   36.2315    6.2680 N   0  0  0  0  0  0  0  0  0  0  0  0
   10.9511   35.5437    5.5719 C   0  0  0  0  0  0  0  0  0  0  0  0
   10.9729   34.2683    5.9525 N   0  0  0  0  0  0  0  0  0  0  0  0
   11.9012   34.1376    6.8952 C   0  0  0  0  0  0  0  0  0  0  0  0
   12.4726   35.3900    7.0924 C   0  0  0  0  0  0  0  0  0  0  0  0
   13.4574   35.5637    7.9877 N   0  0  0  0  0  0  0  0  0  0  0  0
   13.9272   34.5481    8.7277 C   0  0  0  0  0  0  0  0  0  0  0  0
   14.9128   34.7549    9.5964 N   0  0  0  0  0  0  0  0  0  0  0  0
   13.3842   33.2655    8.5756 N   0  0  0  0  0  0  0  0  0  0  0  0
   12.3561   33.0606    7.6468 C   0  0  0  0  0  0  0  0  0  0  0  0
   11.8497   31.9471    7.5172 O   0  0  0  0  0  0  0  0  0  0  0  0
   15.2940   35.6563    9.7029 H   0  0  0  0  0  0  0  0  0  0  0  0
   15.2611   34.0066   10.1331 H   0  0  0  0  0  0  0  0  0  0  0  0
   13.7221   32.5154    9.1165 H   0  0  0  0  0  0  0  0  0  0  0  0
 21 22  2  0  0  0
 22 23  1  0  0  0
 22 27  1  0  0  0
 23 24  1  0  0  0
 24 33  1  0  0  0
 24 25  2  0  0  0
 33 34  1  0  0  0
 33 35  1  0  0  0
 25 26  1  0  0  0
 26 27  2  0  0  0
 26 31  1  0  0  0
 27 28  1  0  0  0
 28 29  1  0  0  0
 28 30  1  0  0  0
 30 31  1  0  0  0
 31 12  1  0  0  0
 12 13  1  0  0  0
 12 14  1  0  0  0
 13 18  1  0  0  0
 14 15  1  0  0  0
 14 16  1  0  0  0
 16 17  1  0  0  0
 16 18  1  0  0  0
 18 11  1  0  0  0
 11 10  1  0  0  0
 10  6  1  0  0  0
  6  7  2  0  0  0
  6  8  1  0  0  0
  6  5  1  0  0  0
  5  1  1  0  0  0
  1  2  2  0  0  0
  1  3  1  0  0  0
  1 36  1  0  0  0
 36 37  1  0  0  0
 37 38  2  0  0  0
 37 39  1  0  0  0
 37 41  1  0  0  0
 41 42  1  0  0  0
 42 43  1  0  0  0
 43 44  1  0  0  0
 43 45  1  0  0  0
 44 49  1  0  0  0
 45 46  1  0  0  0
 45 47  1  0  0  0
 47 48  1  0  0  0
 47 49  1  0  0  0
 49 52  1  0  0  0
 52 53  1  0  0  0
 52 56  1  0  0  0
 53 54  2  0  0  0
 54 55  1  0  0  0
 55 56  2  0  0  0
 55 61  1  0  0  0
 56 57  1  0  0  0
 57 58  2  0  0  0
 58 59  1  0  0  0
 58 60  1  0  0  0
 60 61  1  0  0  0
 61 62  2  0  0  0
 23 32  1  0  0  0
 15 19  1  0  0  0
 17 20  1  0  0  0
  8  9  1  0  0  0
  3  4  1  0  0  0
 39 40  1  0  0  0
 46 50  1  0  0  0
 48 51  1  0  0  0
 59 63  1  0  0  0
 59 64  1  0  0  0
 60 65  1  0  0  0
M  END
> <minimizedAffinity>
-7.59498

$$$$
1XK5_TPG_A_400


 65 70  0  0  0  0  0  0  0  0999 V2000
   12.8877   39.7831   10.7133 P   0  0  0  0  0  0  0  0  0  0  0  0
   13.3517   41.2670   10.2916 O   0  0  0  0  0  0  0  0  0  0  0  0
   13.2408   39.1941   12.0242 O   0  0  0  0  0  0  0  0  0  0  0  0
   12.6646   39.5647   12.7109 H   0  0  0  0  0  0  0  0  0  0  0  0
   11.6048   39.2979    9.8694 O   0  0  0  0  0  0  0  0  0  0  0  0
   11.3845   39.7757    8.3471 P   0  0  0  0  0  0  0  0  0  0  0  0
    9.8845   40.3534    8.2406 O   0  0  0  0  0  0  0  0  0  0  0  0
   12.3813   40.7703    7.8918 O   0  0  0  0  0  0  0  0  0  0  0  0
   12.1954   41.0167    6.9722 H   0  0  0  0  0  0  0  0  0  0  0  0
   11.4283   38.4402    7.4507 O   0  0  0  0  0  0  0  0  0  0  0  0
   11.1308   37.1732    8.0412 C   0  0  0  0  0  0  0  0  0  0  0  0
   13.2307   34.2625    8.0299 C   0  0  0  0  0  0  0  0  0  0  0  0
   12.2036   35.0409    8.6718 O   0  0  0  0  0  0  0  0  0  0  0  0
   14.2878   35.2750    7.5828 C   0  0  0  0  0  0  0  0  0  0  0  0
   15.1168   35.6244    8.6948 O   0  0  0  0  0  0  0  0  0  0  0  0
   13.3869   36.4358    7.1722 C   0  0  0  0  0  0  0  0  0  0  0  0
   14.1388   37.6516    7.1305 O   0  0  0  0  0  0  0  0  0  0  0  0
   12.4267   36.4270    8.3598 C   0  0  0  0  0  0  0  0  0  0  0  0
   14.5614   35.9328    9.4279 H   0  0  0  0  0  0  0  0  0  0  0  0
   14.5862   37.7845    7.9808 H   0  0  0  0  0  0  0  0  0  0  0  0
   11.8672   30.6813    3.5078 O   0  0  0  0  0  0  0  0  0  0  0  0
   12.6763   31.2508    4.2381 C   0  0  0  0  0  0  0  0  0  0  0  0
   14.0473   30.9922    4.1016 N   0  0  0  0  0  0  0  0  0  0  0  0
   14.9587   31.6442    4.9423 C   0  0  0  0  0  0  0  0  0  0  0  0
   14.5010   32.5102    5.8591 N   0  0  0  0  0  0  0  0  0  0  0  0
   13.1927   32.7770    6.0079 C   0  0  0  0  0  0  0  0  0  0  0  0
   12.2404   32.1544    5.2032 C   0  0  0  0  0  0  0  0  0  0  0  0
   11.0275   32.5018    5.6256 N   0  0  0  0  0  0  0  0  0  0  0  0
    9.7481   31.9451    5.1317 C   0  0  0  0  0  0  0  0  0  0  0  0
   11.1329   33.5393    6.6588 C   0  0  0  0  0  0  0  0  0  0  0  0
   12.5797   33.5307    6.9179 N   0  0  0  0  0  0  0  0  0  0  0  0
   14.3670   30.3574    3.4204 H   0  0  0  0  0  0  0  0  0  0  0  0
   16.2621   31.3837    4.8597 N   0  0  0  0  0  0  0  0  0  0  0  0
   16.7900   30.5770    3.7497 C   0  0  0  0  0  0  0  0  0  0  0  0
   17.1893   31.9073    5.8732 C   0  0  0  0  0  0  0  0  0  0  0  0
   13.9486   39.0360    9.7582 O   0  0  0  0  0  0  0  0  0  0  0  0
   15.5217   39.0436   10.1091 P   0  0  0  0  0  0  0  0  0  0  0  0
   16.4208   38.5513    8.8658 O   0  0  0  0  0  0  0  0  0  0  0  0
   16.0812   39.8555   11.2114 O   0  0  0  0  0  0  0  0  0  0  0  0
   16.1546   40.7800   10.9270 H   0  0  0  0  0  0  0  0  0  0  0  0
   15.4988   37.5925   10.8073 O   0  0  0  0  0  0  0  0  0  0  0  0
   16.1552   37.3447   12.0548 C   0  0  0  0  0  0  0  0  0  0  0  0
   15.1811   36.8969   13.1470 C   0  0  0  0  0  0  0  0  0  0  0  0
   13.8846   36.5364   12.6416 O   0  0  0  0  0  0  0  0  0  0  0  0
   15.6508   35.6018   13.8074 C   0  0  0  0  0  0  0  0  0  0  0  0
   16.7311   35.8900   14.6991 O   0  0  0  0  0  0  0  0  0  0  0  0
   14.3896   35.3179   14.6189 C   0  0  0  0  0  0  0  0  0  0  0  0
   14.2825   36.2585   15.6908 O   0  0  0  0  0  0  0  0  0  0  0  0
   13.3060   35.6019   13.5750 C   0  0  0  0  0  0  0  0  0  0  0  0
   16.4657   36.5937   15.3117 H   0  0  0  0  0  0  0  0  0  0  0  0
   14.3159   37.1601   15.3345 H   0  0  0  0  0  0  0  0  0  0  0  0
   12.9356   34.3660   12.8452 N   0  0  0  0  0  0  0  0  0  0  0  0
   13.6506   33.2447   12.7864 C   0  0  0  0  0  0  0  0  0  0  0  0
   13.0525   32.3776   11.9725 N   0  0  0  0  0  0  0  0  0  0  0  0
   11.9427   32.9462   11.5117 C   0  0  0  0  0  0  0  0  0  0  0  0
   11.8605   34.2147   12.0756 C   0  0  0  0  0  0  0  0  0  0  0  0
   10.8276   35.0257   11.7978 N   0  0  0  0  0  0  0  0  0  0  0  0
    9.8402   34.6541   10.9692 C   0  0  0  0  0  0  0  0  0  0  0  0
    8.8258   35.4794   10.7268 N   0  0  0  0  0  0  0  0  0  0  0  0
    9.8744   33.3894   10.3672 N   0  0  0  0  0  0  0  0  0  0  0  0
   10.9424   32.5262   10.6429 C   0  0  0  0  0  0  0  0  0  0  0  0
   11.0027   31.4219   10.1044 O   0  0  0  0  0  0  0  0  0  0  0  0
    8.8022   36.3679   11.1500 H   0  0  0  0  0  0  0  0  0  0  0  0
    8.0985   35.2017   10.1241 H   0  0  0  0  0  0  0  0  0  0  0  0
    9.1547   33.1102    9.7562 H   0  0  0  0  0  0  0  0  0  0  0  0
 21 22  2  0  0  0
 22 23  1  0  0  0
 22 27  1  0  0  0
 23 24  1  0  0  0
 24 33  1  0  0  0
 24 25  2  0  0  0
 33 34  1  0  0  0
 33 35  1  0  0  0
 25 26  1  0  0  0
 26 27  2  0  0  0
 26 31  1  0  0  0
 27 28  1  0  0  0
 28 29  1  0  0  0
 28 30  1  0  0  0
 30 31  1  0  0  0
 31 12  1  0  0  0
 12 13  1  0  0  0
 12 14  1  0  0  0
 13 18  1  0  0  0
 14 15  1  0  0  0
 14 16  1  0  0  0
 16 17  1  0  0  0
 16 18  1  0  0  0
 18 11  1  0  0  0
 11 10  1  0  0  0
 10  6  1  0  0  0
  6  7  2  0  0  0
  6  8  1  0  0  0
  6  5  1  0  0  0
  5  1  1  0  0  0
  1  2  2  0  0  0
  1  3  1  0  0  0
  1 36  1  0  0  0
 36 37  1  0  0  0
 37 38  2  0  0  0
 37 39  1  0  0  0
 37 41  1  0  0  0
 41 42  1  0  0  0
 42 43  1  0  0  0
 43 44  1  0  0  0
 43 45  1  0  0  0
 44 49  1  0  0  0
 45 46  1  0  0  0
 45 47  1  0  0  0
 47 48  1  0  0  0
 47 49  1  0  0  0
 49 52  1  0  0  0
 52 53  1  0  0  0
 52 56  1  0  0  0
 53 54  2  0  0  0
 54 55  1  0  0  0
 55 56  2  0  0  0
 55 61  1  0  0  0
 56 57  1  0  0  0
 57 58  2  0  0  0
 58 59  1  0  0  0
 58 60  1  0  0  0
 60 61  1  0  0  0
 61 62  2  0  0  0
 23 32  1  0  0  0
 15 19  1  0  0  0
 17 20  1  0  0  0
  8  9  1  0  0  0
  3  4  1  0  0  0
 39 40  1  0  0  0
 46 50  1  0  0  0
 48 51  1  0  0  0
 59 63  1  0  0  0
 59 64  1  0  0  0
 60 65  1  0  0  0
M  END
> <minimizedAffinity>
-7.52144

$$$$
1XK5_TPG_A_400


 65 70  0  0  0  0  0  0  0  0999 V2000
   15.4428   37.3359   12.3805 P   0  0  0  0  0  0  0  0  0  0  0  0
   14.4940   37.1447   13.6683 O   0  0  0  0  0  0  0  0  0  0  0  0
   16.3130   38.5217   12.2169 O   0  0  0  0  0  0  0  0  0  0  0  0
   17.0994   38.4254   12.7766 H   0  0  0  0  0  0  0  0  0  0  0  0
   15.7582   35.9309   11.6593 O   0  0  0  0  0  0  0  0  0  0  0  0
   17.1051   35.7235   10.8009 P   0  0  0  0  0  0  0  0  0  0  0  0
   17.1902   36.9377    9.7456 O   0  0  0  0  0  0  0  0  0  0  0  0
   18.3269   35.6422   11.6322 O   0  0  0  0  0  0  0  0  0  0  0  0
   19.0999   35.5178   11.0596 H   0  0  0  0  0  0  0  0  0  0  0  0
   16.8830   34.3814    9.9416 O   0  0  0  0  0  0  0  0  0  0  0  0
   17.4172   33.1396   10.4053 C   0  0  0  0  0  0  0  0  0  0  0  0
   14.5785   30.9740   10.0388 C   0  0  0  0  0  0  0  0  0  0  0  0
   15.8253   31.2745   10.6931 O   0  0  0  0  0  0  0  0  0  0  0  0
   14.8282   31.2319    8.5510 C   0  0  0  0  0  0  0  0  0  0  0  0
   15.5069   30.1108    7.9779 O   0  0  0  0  0  0  0  0  0  0  0  0
   15.7421   32.4502    8.6424 C   0  0  0  0  0  0  0  0  0  0  0  0
   16.4622   32.6184    7.4182 O   0  0  0  0  0  0  0  0  0  0  0  0
   16.6673   31.9736    9.7602 C   0  0  0  0  0  0  0  0  0  0  0  0
   16.3122   29.9261    8.4861 H   0  0  0  0  0  0  0  0  0  0  0  0
   16.9269   31.7952    7.2007 H   0  0  0  0  0  0  0  0  0  0  0  0
   11.5588   34.9268   13.2622 O   0  0  0  0  0  0  0  0  0  0  0  0
   12.5262   34.1923   13.0696 C   0  0  0  0  0  0  0  0  0  0  0  0
   13.6073   34.2083   13.9617 N   0  0  0  0  0  0  0  0  0  0  0  0
   14.7053   33.3698   13.7291 C   0  0  0  0  0  0  0  0  0  0  0  0
   14.6974   32.5615   12.6583 N   0  0  0  0  0  0  0  0  0  0  0  0
   13.6727   32.5259   11.7902 C   0  0  0  0  0  0  0  0  0  0  0  0
   12.5566   33.3412   11.9684 C   0  0  0  0  0  0  0  0  0  0  0  0
   11.7482   33.1978   10.9214 N   0  0  0  0  0  0  0  0  0  0  0  0
   10.5288   33.9935   10.6559 C   0  0  0  0  0  0  0  0  0  0  0  0
   12.2333   32.1158   10.0560 C   0  0  0  0  0  0  0  0  0  0  0  0
   13.5541   31.8559   10.6462 N   0  0  0  0  0  0  0  0  0  0  0  0
   13.5952   34.8040   14.7454 H   0  0  0  0  0  0  0  0  0  0  0  0
   15.7620   33.3974   14.5392 N   0  0  0  0  0  0  0  0  0  0  0  0
   16.5641   32.1846   14.7560 C   0  0  0  0  0  0  0  0  0  0  0  0
   16.1435   34.6436   15.2192 C   0  0  0  0  0  0  0  0  0  0  0  0
   14.2363   37.7146   11.3821 O   0  0  0  0  0  0  0  0  0  0  0  0
   14.3184   39.0274   10.4507 P   0  0  0  0  0  0  0  0  0  0  0  0
   13.8573   40.3562   11.2368 O   0  0  0  0  0  0  0  0  0  0  0  0
   15.1641   39.0843    9.2387 O   0  0  0  0  0  0  0  0  0  0  0  0
   16.0885   39.2262    9.4958 H   0  0  0  0  0  0  0  0  0  0  0  0
   12.8737   38.7921    9.7791 O   0  0  0  0  0  0  0  0  0  0  0  0
   12.4410   39.5397    8.6379 C   0  0  0  0  0  0  0  0  0  0  0  0
   11.6798   38.6757    7.6296 C   0  0  0  0  0  0  0  0  0  0  0  0
   12.4536   38.3442    6.4645 O   0  0  0  0  0  0  0  0  0  0  0  0
   11.3566   37.3018    8.2142 C   0  0  0  0  0  0  0  0  0  0  0  0
   10.2700   37.4233    9.1361 O   0  0  0  0  0  0  0  0  0  0  0  0
   10.8567   36.6463    6.9297 C   0  0  0  0  0  0  0  0  0  0  0  0
    9.5882   37.1985    6.5671 O   0  0  0  0  0  0  0  0  0  0  0  0
   11.9238   37.1120    5.9351 C   0  0  0  0  0  0  0  0  0  0  0  0
    9.5277   37.8734    8.7033 H   0  0  0  0  0  0  0  0  0  0  0  0
    9.6621   38.1635    6.5031 H   0  0  0  0  0  0  0  0  0  0  0  0
   13.0237   36.1234    5.8357 N   0  0  0  0  0  0  0  0  0  0  0  0
   13.4485   35.3209    6.8091 C   0  0  0  0  0  0  0  0  0  0  0  0
   14.5064   34.6314    6.3877 N   0  0  0  0  0  0  0  0  0  0  0  0
   14.7566   34.9909    5.1325 C   0  0  0  0  0  0  0  0  0  0  0  0
   13.8040   35.9383    4.7737 C   0  0  0  0  0  0  0  0  0  0  0  0
   13.8009   36.4800    3.5456 N   0  0  0  0  0  0  0  0  0  0  0  0
   14.7096   36.1381    2.6199 C   0  0  0  0  0  0  0  0  0  0  0  0
   14.6683   36.6866    1.4090 N   0  0  0  0  0  0  0  0  0  0  0  0
   15.6970   35.1931    2.9282 N   0  0  0  0  0  0  0  0  0  0  0  0
   15.7193   34.6142    4.2034 C   0  0  0  0  0  0  0  0  0  0  0  0
   16.5935   33.8016    4.5009 O   0  0  0  0  0  0  0  0  0  0  0  0
   13.9743   37.3505    1.1928 H   0  0  0  0  0  0  0  0  0  0  0  0
   15.3317   36.4286    0.7288 H   0  0  0  0  0  0  0  0  0  0  0  0
   16.3688   34.9385    2.2551 H   0  0  0  0  0  0  0  0  0  0  0  0
 21 22  2  0  0  0
 22 23  1  0  0  0
 22 27  1  0  0  0
 23 24  1  0  0  0
 24 33  1  0  0  0
 24 25  2  0  0  0
 33 34  1  0  0  0
 33 35  1  0  0  0
 25 26  1  0  0  0
 26 27  2  0  0  0
 26 31  1  0  0  0
 27 28  1  0  0  0
 28 29  1  0  0  0
 28 30  1  0  0  0
 30 31  1  0  0  0
 31 12  1  0  0  0
 12 13  1  0  0  0
 12 14  1  0  0  0
 13 18  1  0  0  0
 14 15  1  0  0  0
 14 16  1  0  0  0
 16 17  1  0  0  0
 16 18  1  0  0  0
 18 11  1  0  0  0
 11 10  1  0  0  0
 10  6  1  0  0  0
  6  7  2  0  0  0
  6  8  1  0  0  0
  6  5  1  0  0  0
  5  1  1  0  0  0
  1  2  2  0  0  0
  1  3  1  0  0  0
  1 36  1  0  0  0
 36 37  1  0  0  0
 37 38  2  0  0  0
 37 39  1  0  0  0
 37 41  1  0  0  0
 41 42  1  0  0  0
 42 43  1  0  0  0
 43 44  1  0  0  0
 43 45  1  0  0  0
 44 49  1  0  0  0
 45 46  1  0  0  0
 45 47  1  0  0  0
 47 48  1  0  0  0
 47 49  1  0  0  0
 49 52  1  0  0  0
 52 53  1  0  0  0
 52 56  1  0  0  0
 53 54  2  0  0  0
 54 55  1  0  0  0
 55 56  2  0  0  0
 55 61  1  0  0  0
 56 57  1  0  0  0
 57 58  2  0  0  0
 58 59  1  0  0  0
 58 60  1  0  0  0
 60 61  1  0  0  0
 61 62  2  0  0  0
 23 32  1  0  0  0
 15 19  1  0  0  0
 17 20  1  0  0  0
  8  9  1  0  0  0
  3  4  1  0  0  0
 39 40  1  0  0  0
 46 50  1  0  0  0
 48 51  1  0  0  0
 59 63  1  0  0  0
 59 64  1  0  0  0
 60 65  1  0  0  0
M  END
> <minimizedAffinity>
-7.40914

$$$$
1XK5_TPG_A_400


 65 70  0  0  0  0  0  0  0  0999 V2000
   10.9635   39.1329    6.4819 P   0  0  0  0  0  0  0  0  0  0  0  0
    9.4293   39.3148    6.9381 O   0  0  0  0  0  0  0  0  0  0  0  0
   11.3277   38.6459    5.1327 O   0  0  0  0  0  0  0  0  0  0  0  0
   11.2268   39.3662    4.4908 H   0  0  0  0  0  0  0  0  0  0  0  0
   11.9597   40.0351    7.3691 O   0  0  0  0  0  0  0  0  0  0  0  0
   11.5145   40.5833    8.8166 P   0  0  0  0  0  0  0  0  0  0  0  0
   12.4329   41.8655    9.1444 O   0  0  0  0  0  0  0  0  0  0  0  0
   10.0742   40.9124    8.9045 O   0  0  0  0  0  0  0  0  0  0  0  0
    9.8702   41.2354    9.7961 H   0  0  0  0  0  0  0  0  0  0  0  0
   11.9262   39.4402    9.8715 O   0  0  0  0  0  0  0  0  0  0  0  0
   12.9042   39.7145   10.8768 C   0  0  0  0  0  0  0  0  0  0  0  0
   16.2880   38.5320   11.0619 C   0  0  0  0  0  0  0  0  0  0  0  0
   15.3285   39.5734   11.3223 O   0  0  0  0  0  0  0  0  0  0  0  0
   15.9808   38.0419    9.6449 C   0  0  0  0  0  0  0  0  0  0  0  0
   16.5569   38.9399    8.6922 O   0  0  0  0  0  0  0  0  0  0  0  0
   14.4583   38.1400    9.6542 C   0  0  0  0  0  0  0  0  0  0  0  0
   13.9578   38.1553    8.3145 O   0  0  0  0  0  0  0  0  0  0  0  0
   14.3095   39.5115   10.3094 C   0  0  0  0  0  0  0  0  0  0  0  0
   16.2500   39.8424    8.8718 H   0  0  0  0  0  0  0  0  0  0  0  0
   14.3931   38.8636    7.8148 H   0  0  0  0  0  0  0  0  0  0  0  0
   16.9048   34.1867   15.0458 O   0  0  0  0  0  0  0  0  0  0  0  0
   17.2728   34.8116   14.0526 C   0  0  0  0  0  0  0  0  0  0  0  0
   18.4915   34.4949   13.4366 N   0  0  0  0  0  0  0  0  0  0  0  0
   18.9015   35.2168   12.3082 C   0  0  0  0  0  0  0  0  0  0  0  0
   18.1149   36.1950   11.8344 N   0  0  0  0  0  0  0  0  0  0  0  0
   16.9419   36.5159   12.4051 C   0  0  0  0  0  0  0  0  0  0  0  0
   16.4857   35.8353   13.5324 C   0  0  0  0  0  0  0  0  0  0  0  0
   15.3683   36.4159   13.9621 N   0  0  0  0  0  0  0  0  0  0  0  0
   14.6495   36.0868   15.2133 C   0  0  0  0  0  0  0  0  0  0  0  0
   14.9318   37.4380   13.0030 C   0  0  0  0  0  0  0  0  0  0  0  0
   16.1011   37.5062   12.1149 N   0  0  0  0  0  0  0  0  0  0  0  0
   19.0547   33.7709   13.7940 H   0  0  0  0  0  0  0  0  0  0  0  0
   20.0743   34.9622   11.7307 N   0  0  0  0  0  0  0  0  0  0  0  0
   21.3085   35.5616   12.2588 C   0  0  0  0  0  0  0  0  0  0  0  0
   20.1490   34.0717   10.5635 C   0  0  0  0  0  0  0  0  0  0  0  0
   11.2033   37.7985    7.3524 O   0  0  0  0  0  0  0  0  0  0  0  0
   10.3550   36.4597    7.0596 P   0  0  0  0  0  0  0  0  0  0  0  0
   10.4522   35.4048    8.2737 O   0  0  0  0  0  0  0  0  0  0  0  0
    9.2559   36.4215    6.0707 O   0  0  0  0  0  0  0  0  0  0  0  0
    8.4613   36.8240    6.4547 H   0  0  0  0  0  0  0  0  0  0  0  0
   11.5274   35.7549    6.2097 O   0  0  0  0  0  0  0  0  0  0  0  0
   12.9043   35.8698    6.5834 C   0  0  0  0  0  0  0  0  0  0  0  0
   13.8217   36.0678    5.3744 C   0  0  0  0  0  0  0  0  0  0  0  0
   15.0700   35.3638    5.4849 O   0  0  0  0  0  0  0  0  0  0  0  0
   13.2099   35.4609    4.1130 C   0  0  0  0  0  0  0  0  0  0  0  0
   12.1680   36.3155    3.6339 O   0  0  0  0  0  0  0  0  0  0  0  0
   14.4309   35.5989    3.2076 C   0  0  0  0  0  0  0  0  0  0  0  0
   14.6418   36.9765    2.8870 O   0  0  0  0  0  0  0  0  0  0  0  0
   15.5401   35.1131    4.1449 C   0  0  0  0  0  0  0  0  0  0  0  0
   12.5100   37.2178    3.5346 H   0  0  0  0  0  0  0  0  0  0  0  0
   14.7096   37.4924    3.7056 H   0  0  0  0  0  0  0  0  0  0  0  0
   15.7705   33.6577    3.9845 N   0  0  0  0  0  0  0  0  0  0  0  0
   15.4394   32.7093    4.8579 C   0  0  0  0  0  0  0  0  0  0  0  0
   15.8755   31.5299    4.4211 N   0  0  0  0  0  0  0  0  0  0  0  0
   16.4851   31.7242    3.2558 C   0  0  0  0  0  0  0  0  0  0  0  0
   16.4112   33.0830    2.9695 C   0  0  0  0  0  0  0  0  0  0  0  0
   16.9384   33.5776    1.8385 N   0  0  0  0  0  0  0  0  0  0  0  0
   17.5573   32.7918    0.9445 C   0  0  0  0  0  0  0  0  0  0  0  0
   18.0570   33.3150   -0.1715 N   0  0  0  0  0  0  0  0  0  0  0  0
   17.6669   31.4157    1.1840 N   0  0  0  0  0  0  0  0  0  0  0  0
   17.1237   30.8774    2.3574 C   0  0  0  0  0  0  0  0  0  0  0  0
   17.2321   29.6758    2.5971 O   0  0  0  0  0  0  0  0  0  0  0  0
   17.9797   34.2820   -0.3394 H   0  0  0  0  0  0  0  0  0  0  0  0
   18.5042   32.7353   -0.8297 H   0  0  0  0  0  0  0  0  0  0  0  0
   18.1215   30.8328    0.5338 H   0  0  0  0  0  0  0  0  0  0  0  0
 21 22  2  0  0  0
 22 23  1  0  0  0
 22 27  1  0  0  0
 23 24  1  0  0  0
 24 33  1  0  0  0
 24 25  2  0  0  0
 33 34  1  0  0  0
 33 35  1  0  0  0
 25 26  1  0  0  0
 26 27  2  0  0  0
 26 31  1  0  0  0
 27 28  1  0  0  0
 28 29  1  0  0  0
 28 30  1  0  0  0
 30 31  1  0  0  0
 31 12  1  0  0  0
 12 13  1  0  0  0
 12 14  1  0  0  0
 13 18  1  0  0  0
 14 15  1  0  0  0
 14 16  1  0  0  0
 16 17  1  0  0  0
 16 18  1  0  0  0
 18 11  1  0  0  0
 11 10  1  0  0  0
 10  6  1  0  0  0
  6  7  2  0  0  0
  6  8  1  0  0  0
  6  5  1  0  0  0
  5  1  1  0  0  0
  1  2  2  0  0  0
  1  3  1  0  0  0
  1 36  1  0  0  0
 36 37  1  0  0  0
 37 38  2  0  0  0
 37 39  1  0  0  0
 37 41  1  0  0  0
 41 42  1  0  0  0
 42 43  1  0  0  0
 43 44  1  0  0  0
 43 45  1  0  0  0
 44 49  1  0  0  0
 45 46  1  0  0  0
 45 47  1  0  0  0
 47 48  1  0  0  0
 47 49  1  0  0  0
 49 52  1  0  0  0
 52 53  1  0  0  0
 52 56  1  0  0  0
 53 54  2  0  0  0
 54 55  1  0  0  0
 55 56  2  0  0  0
 55 61  1  0  0  0
 56 57  1  0  0  0
 57 58  2  0  0  0
 58 59  1  0  0  0
 58 60  1  0  0  0
 60 61  1  0  0  0
 61 62  2  0  0  0
 23 32  1  0  0  0
 15 19  1  0  0  0
 17 20  1  0  0  0
  8  9  1  0  0  0
  3  4  1  0  0  0
 39 40  1  0  0  0
 46 50  1  0  0  0
 48 51  1  0  0  0
 59 63  1  0  0  0
 59 64  1  0  0  0
 60 65  1  0  0  0
M  END
> <minimizedAffinity>
-7.38823

$$$$
1XK5_TPG_A_400


 65 70  0  0  0  0  0  0  0  0999 V2000
    8.1535   34.1404    9.0569 P   0  0  0  0  0  0  0  0  0  0  0  0
    7.7451   32.7684    9.7958 O   0  0  0  0  0  0  0  0  0  0  0  0
    7.2537   34.8081    8.0901 O   0  0  0  0  0  0  0  0  0  0  0  0
    6.5556   35.2798    8.5707 H   0  0  0  0  0  0  0  0  0  0  0  0
    9.2865   34.9423    9.8735 O   0  0  0  0  0  0  0  0  0  0  0  0
   10.1468   34.2180   11.0264 P   0  0  0  0  0  0  0  0  0  0  0  0
    9.5455   34.6964   12.4423 O   0  0  0  0  0  0  0  0  0  0  0  0
   10.1581   32.7423   10.9139 O   0  0  0  0  0  0  0  0  0  0  0  0
   10.6900   32.3673   11.6331 H   0  0  0  0  0  0  0  0  0  0  0  0
   11.6311   34.8310   10.9258 O   0  0  0  0  0  0  0  0  0  0  0  0
   11.8425   36.2288   11.1353 C   0  0  0  0  0  0  0  0  0  0  0  0
   14.9149   35.4251   12.8075 C   0  0  0  0  0  0  0  0  0  0  0  0
   13.4995   35.2096   12.6554 O   0  0  0  0  0  0  0  0  0  0  0  0
   15.1015   36.9435   12.7626 C   0  0  0  0  0  0  0  0  0  0  0  0
   14.7841   37.5031   14.0401 O   0  0  0  0  0  0  0  0  0  0  0  0
   14.0522   37.3092   11.7171 C   0  0  0  0  0  0  0  0  0  0  0  0
   13.7264   38.6985   11.8116 O   0  0  0  0  0  0  0  0  0  0  0  0
   12.8999   36.4417   12.2190 C   0  0  0  0  0  0  0  0  0  0  0  0
   13.8933   37.2236   14.3031 H   0  0  0  0  0  0  0  0  0  0  0  0
   13.4627   38.9076   12.7214 H   0  0  0  0  0  0  0  0  0  0  0  0
   18.6995   32.6183    9.2115 O   0  0  0  0  0  0  0  0  0  0  0  0
   18.4473   33.3669   10.1540 C   0  0  0  0  0  0  0  0  0  0  0  0
   19.4886   33.8824   10.9382 N   0  0  0  0  0  0  0  0  0  0  0  0
   19.1880   34.7310   12.0115 C   0  0  0  0  0  0  0  0  0  0  0  0
   17.9070   35.0395   12.2643 N   0  0  0  0  0  0  0  0  0  0  0  0
   16.8917   34.5606   11.5264 C   0  0  0  0  0  0  0  0  0  0  0  0
   17.1306   33.7086   10.4498 C   0  0  0  0  0  0  0  0  0  0  0  0
   15.9639   33.2925    9.9639 N   0  0  0  0  0  0  0  0  0  0  0  0
   15.7820   32.2666    8.9127 C   0  0  0  0  0  0  0  0  0  0  0  0
   14.8625   34.0110   10.6164 C   0  0  0  0  0  0  0  0  0  0  0  0
   15.5791   34.6969   11.7010 N   0  0  0  0  0  0  0  0  0  0  0  0
   20.4237   33.6500   10.7362 H   0  0  0  0  0  0  0  0  0  0  0  0
   20.1567   35.1996   12.7961 N   0  0  0  0  0  0  0  0  0  0  0  0
   19.9611   35.2804   14.2510 C   0  0  0  0  0  0  0  0  0  0  0  0
   21.4362   35.6337   12.2169 C   0  0  0  0  0  0  0  0  0  0  0  0
    9.2018   33.4426    8.0518 O   0  0  0  0  0  0  0  0  0  0  0  0
    9.8033   34.2530    6.7952 P   0  0  0  0  0  0  0  0  0  0  0  0
    9.8290   33.3585    5.4552 O   0  0  0  0  0  0  0  0  0  0  0  0
    9.8448   35.7309    6.7550 O   0  0  0  0  0  0  0  0  0  0  0  0
    8.9640   36.0732    6.5362 H   0  0  0  0  0  0  0  0  0  0  0  0
   11.3376   33.9350    7.1670 O   0  0  0  0  0  0  0  0  0  0  0  0
   12.2605   33.4304    6.1964 C   0  0  0  0  0  0  0  0  0  0  0  0
   13.0597   34.5452    5.5174 C   0  0  0  0  0  0  0  0  0  0  0  0
   12.4378   35.8369    5.6214 O   0  0  0  0  0  0  0  0  0  0  0  0
   14.4004   34.7661    6.2157 C   0  0  0  0  0  0  0  0  0  0  0  0
   15.3007   33.7150    5.8552 O   0  0  0  0  0  0  0  0  0  0  0  0
   14.8016   36.0454    5.4863 C   0  0  0  0  0  0  0  0  0  0  0  0
   15.1397   35.7430    4.1300 O   0  0  0  0  0  0  0  0  0  0  0  0
   13.4841   36.8246    5.5267 C   0  0  0  0  0  0  0  0  0  0  0  0
   15.3447   33.6442    4.8887 H   0  0  0  0  0  0  0  0  0  0  0  0
   14.4012   35.2757    3.7092 H   0  0  0  0  0  0  0  0  0  0  0  0
   13.4225   37.7010    6.7205 N   0  0  0  0  0  0  0  0  0  0  0  0
   14.3900   37.8742    7.6182 C   0  0  0  0  0  0  0  0  0  0  0  0
   13.9527   38.6627    8.5975 N   0  0  0  0  0  0  0  0  0  0  0  0
   12.6975   39.0021    8.3210 C   0  0  0  0  0  0  0  0  0  0  0  0
   12.3587   38.3959    7.1161 C   0  0  0  0  0  0  0  0  0  0  0  0
   11.1422   38.5701    6.5763 N   0  0  0  0  0  0  0  0  0  0  0  0
   10.2068   39.3260    7.1707 C   0  0  0  0  0  0  0  0  0  0  0  0
    9.0161   39.4862    6.6002 N   0  0  0  0  0  0  0  0  0  0  0  0
   10.4906   39.9556    8.3897 N   0  0  0  0  0  0  0  0  0  0  0  0
   11.7537   39.7884    8.9713 C   0  0  0  0  0  0  0  0  0  0  0  0
   12.0129   40.3126   10.0535 O   0  0  0  0  0  0  0  0  0  0  0  0
    8.8172   39.0436    5.7436 H   0  0  0  0  0  0  0  0  0  0  0  0
    8.3337   40.0474    7.0345 H   0  0  0  0  0  0  0  0  0  0  0  0
    9.8087   40.5102    8.8332 H   0  0  0  0  0  0  0  0  0  0  0  0
 21 22  2  0  0  0
 22 23  1  0  0  0
 22 27  1  0  0  0
 23 24  1  0  0  0
 24 33  1  0  0  0
 24 25  2  0  0  0
 33 34  1  0  0  0
 33 35  1  0  0  0
 25 26  1  0  0  0
 26 27  2  0  0  0
 26 31  1  0  0  0
 27 28  1  0  0  0
 28 29  1  0  0  0
 28 30  1  0  0  0
 30 31  1  0  0  0
 31 12  1  0  0  0
 12 13  1  0  0  0
 12 14  1  0  0  0
 13 18  1  0  0  0
 14 15  1  0  0  0
 14 16  1  0  0  0
 16 17  1  0  0  0
 16 18  1  0  0  0
 18 11  1  0  0  0
 11 10  1  0  0  0
 10  6  1  0  0  0
  6  7  2  0  0  0
  6  8  1  0  0  0
  6  5  1  0  0  0
  5  1  1  0  0  0
  1  2  2  0  0  0
  1  3  1  0  0  0
  1 36  1  0  0  0
 36 37  1  0  0  0
 37 38  2  0  0  0
 37 39  1  0  0  0
 37 41  1  0  0  0
 41 42  1  0  0  0
 42 43  1  0  0  0
 43 44  1  0  0  0
 43 45  1  0  0  0
 44 49  1  0  0  0
 45 46  1  0  0  0
 45 47  1  0  0  0
 47 48  1  0  0  0
 47 49  1  0  0  0
 49 52  1  0  0  0
 52 53  1  0  0  0
 52 56  1  0  0  0
 53 54  2  0  0  0
 54 55  1  0  0  0
 55 56  2  0  0  0
 55 61  1  0  0  0
 56 57  1  0  0  0
 57 58  2  0  0  0
 58 59  1  0  0  0
 58 60  1  0  0  0
 60 61  1  0  0  0
 61 62  2  0  0  0
 23 32  1  0  0  0
 15 19  1  0  0  0
 17 20  1  0  0  0
  8  9  1  0  0  0
  3  4  1  0  0  0
 39 40  1  0  0  0
 46 50  1  0  0  0
 48 51  1  0  0  0
 59 63  1  0  0  0
 59 64  1  0  0  0
 60 65  1  0  0  0
M  END
> <minimizedAffinity>
-7.37269

$$$$
1XK5_TPG_A_400


 65 70  0  0  0  0  0  0  0  0999 V2000
    7.5400   34.5678    7.0732 P   0  0  0  0  0  0  0  0  0  0  0  0
    6.1156   34.1425    6.4526 O   0  0  0  0  0  0  0  0  0  0  0  0
    8.2619   35.7783    6.6218 O   0  0  0  0  0  0  0  0  0  0  0  0
    7.8578   36.5639    7.0222 H   0  0  0  0  0  0  0  0  0  0  0  0
    7.7727   33.9199    8.5291 O   0  0  0  0  0  0  0  0  0  0  0  0
    8.8785   34.5180    9.5358 P   0  0  0  0  0  0  0  0  0  0  0  0
    9.8164   35.5094    8.6800 O   0  0  0  0  0  0  0  0  0  0  0  0
    8.2959   35.2038   10.7107 O   0  0  0  0  0  0  0  0  0  0  0  0
    9.0092   35.5400   11.2755 H   0  0  0  0  0  0  0  0  0  0  0  0
    9.8012   33.2745    9.9732 O   0  0  0  0  0  0  0  0  0  0  0  0
   11.2245   33.3812    9.9024 C   0  0  0  0  0  0  0  0  0  0  0  0
   13.5796   33.5622   12.6048 C   0  0  0  0  0  0  0  0  0  0  0  0
   13.2657   33.1289   11.2682 O   0  0  0  0  0  0  0  0  0  0  0  0
   12.3400   33.2333   13.4399 C   0  0  0  0  0  0  0  0  0  0  0  0
   12.3506   31.8457   13.7868 O   0  0  0  0  0  0  0  0  0  0  0  0
   11.2451   33.5461   12.4245 C   0  0  0  0  0  0  0  0  0  0  0  0
   10.0224   32.9106   12.8075 O   0  0  0  0  0  0  0  0  0  0  0  0
   11.8531   32.8684   11.1984 C   0  0  0  0  0  0  0  0  0  0  0  0
   12.4358   31.3117   12.9815 H   0  0  0  0  0  0  0  0  0  0  0  0
   10.1778   31.9619   12.9366 H   0  0  0  0  0  0  0  0  0  0  0  0
   16.1039   38.8802   11.9116 O   0  0  0  0  0  0  0  0  0  0  0  0
   16.1604   37.6638   12.0832 C   0  0  0  0  0  0  0  0  0  0  0  0
   17.4028   37.0146   12.0976 N   0  0  0  0  0  0  0  0  0  0  0  0
   17.4537   35.6280   12.2899 C   0  0  0  0  0  0  0  0  0  0  0  0
   16.3102   34.9479   12.4635 N   0  0  0  0  0  0  0  0  0  0  0  0
   15.1078   35.5469   12.4563 C   0  0  0  0  0  0  0  0  0  0  0  0
   14.9960   36.9227   12.2645 C   0  0  0  0  0  0  0  0  0  0  0  0
   13.7067   37.2425   12.1874 N   0  0  0  0  0  0  0  0  0  0  0  0
   13.1665   38.5772   11.8451 C   0  0  0  0  0  0  0  0  0  0  0  0
   12.8786   36.0727   12.5050 C   0  0  0  0  0  0  0  0  0  0  0  0
   13.8923   35.0084   12.5224 N   0  0  0  0  0  0  0  0  0  0  0  0
   18.2329   37.5292   11.9735 H   0  0  0  0  0  0  0  0  0  0  0  0
   18.6188   34.9833   12.2659 N   0  0  0  0  0  0  0  0  0  0  0  0
   18.6754   33.5643   11.8854 C   0  0  0  0  0  0  0  0  0  0  0  0
   19.8630   35.6858   12.6115 C   0  0  0  0  0  0  0  0  0  0  0  0
    8.3689   33.4234    6.2991 O   0  0  0  0  0  0  0  0  0  0  0  0
    8.8114   33.6230    4.7623 P   0  0  0  0  0  0  0  0  0  0  0  0
    9.1246   32.2191    4.0361 O   0  0  0  0  0  0  0  0  0  0  0  0
    8.4864   34.8476    3.9993 O   0  0  0  0  0  0  0  0  0  0  0  0
    7.5601   34.8141    3.7135 H   0  0  0  0  0  0  0  0  0  0  0  0
   10.3564   33.9091    5.1155 O   0  0  0  0  0  0  0  0  0  0  0  0
   11.0483   35.0528    4.6039 C   0  0  0  0  0  0  0  0  0  0  0  0
   12.4891   35.1383    5.1132 C   0  0  0  0  0  0  0  0  0  0  0  0
   13.0168   36.4754    5.1087 O   0  0  0  0  0  0  0  0  0  0  0  0
   12.5758   34.7532    6.5890 C   0  0  0  0  0  0  0  0  0  0  0  0
   12.4718   33.3324    6.7143 O   0  0  0  0  0  0  0  0  0  0  0  0
   14.0235   35.1753    6.8250 C   0  0  0  0  0  0  0  0  0  0  0  0
   14.9061   34.2697    6.1570 O   0  0  0  0  0  0  0  0  0  0  0  0
   14.0464   36.5326    6.1167 C   0  0  0  0  0  0  0  0  0  0  0  0
   13.1260   32.9082    6.1373 H   0  0  0  0  0  0  0  0  0  0  0  0
   14.6680   34.2197    5.2180 H   0  0  0  0  0  0  0  0  0  0  0  0
   13.7286   37.6295    7.0616 N   0  0  0  0  0  0  0  0  0  0  0  0
   14.5600   38.1626    7.9540 C   0  0  0  0  0  0  0  0  0  0  0  0
   13.9086   39.0626    8.6873 N   0  0  0  0  0  0  0  0  0  0  0  0
   12.6519   39.1104    8.2564 C   0  0  0  0  0  0  0  0  0  0  0  0
   12.5362   38.2014    7.2103 C   0  0  0  0  0  0  0  0  0  0  0  0
   11.3700   38.0386    6.5660 N   0  0  0  0  0  0  0  0  0  0  0  0
   10.2739   38.7356    6.9013 C   0  0  0  0  0  0  0  0  0  0  0  0
    9.1384   38.5569    6.2323 N   0  0  0  0  0  0  0  0  0  0  0  0
   10.3305   39.6607    7.9520 N   0  0  0  0  0  0  0  0  0  0  0  0
   11.5371   39.8476    8.6382 C   0  0  0  0  0  0  0  0  0  0  0  0
   11.5998   40.6369    9.5796 O   0  0  0  0  0  0  0  0  0  0  0  0
    9.0991   37.9067    5.4941 H   0  0  0  0  0  0  0  0  0  0  0  0
    8.3372   39.0749    6.4752 H   0  0  0  0  0  0  0  0  0  0  0  0
    9.5299   40.1745    8.2054 H   0  0  0  0  0  0  0  0  0  0  0  0
 21 22  2  0  0  0
 22 23  1  0  0  0
 22 27  1  0  0  0
 23 24  1  0  0  0
 24 33  1  0  0  0
 24 25  2  0  0  0
 33 34  1  0  0  0
 33 35  1  0  0  0
 25 26  1  0  0  0
 26 27  2  0  0  0
 26 31  1  0  0  0
 27 28  1  0  0  0
 28 29  1  0  0  0
 28 30  1  0  0  0
 30 31  1  0  0  0
 31 12  1  0  0  0
 12 13  1  0  0  0
 12 14  1  0  0  0
 13 18  1  0  0  0
 14 15  1  0  0  0
 14 16  1  0  0  0
 16 17  1  0  0  0
 16 18  1  0  0  0
 18 11  1  0  0  0
 11 10  1  0  0  0
 10  6  1  0  0  0
  6  7  2  0  0  0
  6  8  1  0  0  0
  6  5  1  0  0  0
  5  1  1  0  0  0
  1  2  2  0  0  0
  1  3  1  0  0  0
  1 36  1  0  0  0
 36 37  1  0  0  0
 37 38  2  0  0  0
 37 39  1  0  0  0
 37 41  1  0  0  0
 41 42  1  0  0  0
 42 43  1  0  0  0
 43 44  1  0  0  0
 43 45  1  0  0  0
 44 49  1  0  0  0
 45 46  1  0  0  0
 45 47  1  0  0  0
 47 48  1  0  0  0
 47 49  1  0  0  0
 49 52  1  0  0  0
 52 53  1  0  0  0
 52 56  1  0  0  0
 53 54  2  0  0  0
 54 55  1  0  0  0
 55 56  2  0  0  0
 55 61  1  0  0  0
 56 57  1  0  0  0
 57 58  2  0  0  0
 58 59  1  0  0  0
 58 60  1  0  0  0
 60 61  1  0  0  0
 61 62  2  0  0  0
 23 32  1  0  0  0
 15 19  1  0  0  0
 17 20  1  0  0  0
  8  9  1  0  0  0
  3  4  1  0  0  0
 39 40  1  0  0  0
 46 50  1  0  0  0
 48 51  1  0  0  0
 59 63  1  0  0  0
 59 64  1  0  0  0
 60 65  1  0  0  0
M  END
> <minimizedAffinity>
-7.33704

$$$$
