1XK5_TPG_A_400
  RCSB PDB12061704383D
Coordinates from PDB:1XK5:A:400 Model:1 without hydrogens
 54 59  0  0  0  0            999 V2000
   13.3430   40.1650   11.7280   O 0  0  0  0  0  0  0  0  0  0  0  0
   13.1200   38.9600   11.8310   C 0  0  0  0  0  0  0  0  0  0  0  0
   13.6600   38.2360   12.9030   N 0  0  0  0  0  0  0  0  0  0  0  0
   13.4020   36.8630   13.0070   C 0  0  0  0  0  0  0  0  0  0  0  0
   13.9380   36.1460   13.9930   N 0  0  0  0  0  0  0  0  0  0  0  0
   13.6700   34.7040   14.0940   C 0  0  0  0  0  0  0  0  0  0  0  0
   14.8110   36.7870   14.9870   C 0  0  0  0  0  0  0  0  0  0  0  0
   12.6360   36.2680   12.0800   N 0  0  0  0  0  0  0  0  0  0  0  0
   12.1050   36.9400   11.0450   C 0  0  0  0  0  0  0  0  0  0  0  0
   12.3320   38.3060   10.8880   C 0  0  0  0  0  0  0  0  0  0  0  0
   11.7960   38.7010    9.7360   N 0  0  0  0  0  0  0  0  0  0  0  0
   11.9410   40.0440    9.1310   C 0  0  0  0  0  0  0  0  0  0  0  0
   11.0180   37.6070    9.1420   C 0  0  0  0  0  0  0  0  0  0  0  0
   11.4090   36.4840   10.0060   N 0  0  0  0  0  0  0  0  0  0  0  0
   11.0640   35.0680    9.7380   C 0  0  0  0  0  0  0  0  0  0  0  0
   12.1350   34.5230    8.9450   O 0  0  0  0  0  0  0  0  0  0  0  0
    9.7990   34.8770    8.8980   C 0  0  0  0  0  0  0  0  0  0  0  0
    9.3360   33.5300    9.0290   O 0  0  0  0  0  0  0  0  0  0  0  0
   10.3630   35.1400    7.5050   C 0  0  0  0  0  0  0  0  0  0  0  0
    9.4890   34.6000    6.5100   O 0  0  0  0  0  0  0  0  0  0  0  0
   11.6480   34.3210    7.6070   C 0  0  0  0  0  0  0  0  0  0  0  0
   12.6650   34.7350    6.5430   C 0  0  0  0  0  0  0  0  0  0  0  0
   12.0890   34.6110    5.2410   O 0  0  0  0  0  0  0  0  0  0  0  0
   12.6350   35.5190    4.0300   P 0  0  0  0  0  0  0  0  0  0  0  0
   13.8730   36.3690    4.6130   O 0  0  0  0  0  0  0  0  0  0  0  0
   11.5770   36.4030    3.4920   O 0  0  0  0  0  0  0  0  0  0  0  0
   13.2310   34.4950    2.9390   O 0  0  0  0  0  0  0  0  0  0  0  0
   14.7940   34.1070    2.9330   P 0  0  0  0  0  0  0  0  0  0  0  0
   15.1790   33.2050    1.6550   O 0  0  0  0  0  0  0  0  0  0  0  0
   15.8070   34.8940    3.6710   O 0  0  0  0  0  0  0  0  0  0  0  0
   14.6100   32.8540    3.9290   O 0  0  0  0  0  0  0  0  0  0  0  0
   15.8780   32.2120    4.6890   P 0  0  0  0  0  0  0  0  0  0  0  0
   16.5000   30.9650    3.8800   O 0  0  0  0  0  0  0  0  0  0  0  0
   16.6570   32.9620    5.6980   O 0  0  0  0  0  0  0  0  0  0  0  0
   14.9850   31.2810    5.6530   O 0  0  0  0  0  0  0  0  0  0  0  0
   14.1580   31.8340    6.6820   C 0  0  0  0  0  0  0  0  0  0  0  0
   14.8540   31.8470    8.0450   C 0  0  0  0  0  0  0  0  0  0  0  0
   15.8770   32.8510    8.1530   O 0  0  0  0  0  0  0  0  0  0  0  0
   13.8830   32.2430    9.1560   C 0  0  0  0  0  0  0  0  0  0  0  0
   13.0260   31.1370    9.4520   O 0  0  0  0  0  0  0  0  0  0  0  0
   14.9080   32.4000   10.2760   C 0  0  0  0  0  0  0  0  0  0  0  0
   15.4030   31.1150   10.6620   O 0  0  0  0  0  0  0  0  0  0  0  0
   16.0090   33.1790    9.5510   C 0  0  0  0  0  0  0  0  0  0  0  0
   15.8230   34.6400    9.7180   N 0  0  0  0  0  0  0  0  0  0  0  0
   15.2740   35.4680    8.8320   C 0  0  0  0  0  0  0  0  0  0  0  0
   15.3520   36.7180    9.2830   N 0  0  0  0  0  0  0  0  0  0  0  0
   15.9500   36.6890   10.4700   C 0  0  0  0  0  0  0  0  0  0  0  0
   16.2440   35.3600   10.7550   C 0  0  0  0  0  0  0  0  0  0  0  0
   16.8470   35.0200   11.9050   N 0  0  0  0  0  0  0  0  0  0  0  0
   17.1930   35.9380   12.8200   C 0  0  0  0  0  0  0  0  0  0  0  0
   17.7780   35.5630   13.9540   N 0  0  0  0  0  0  0  0  0  0  0  0
   16.9270   37.2930   12.5830   N 0  0  0  0  0  0  0  0  0  0  0  0
   16.2980   37.6710   11.3900   C 0  0  0  0  0  0  0  0  0  0  0  0
   16.0790   38.8580   11.1530   O 0  0  0  0  0  0  0  0  0  0  0  0
  1  2  2  0  0  0  0
  2  3  1  0  0  0  0
  2 10  1  0  0  0  0
  3  4  1  0  0  0  0
  4  5  1  0  0  0  0
  4  8  2  0  0  0  0
  5  6  1  0  0  0  0
  5  7  1  0  0  0  0
  8  9  1  0  0  0  0
  9 10  2  0  0  0  0
  9 14  1  0  0  0  0
 10 11  1  0  0  0  0
 11 12  1  0  0  0  0
 11 13  1  0  0  0  0
 13 14  1  0  0  0  0
 14 15  1  0  0  0  0
 15 16  1  0  0  0  0
 15 17  1  0  0  0  0
 16 21  1  0  0  0  0
 17 18  1  0  0  0  0
 17 19  1  0  0  0  0
 19 20  1  0  0  0  0
 19 21  1  0  0  0  0
 21 22  1  0  0  0  0
 22 23  1  0  0  0  0
 23 24  1  0  0  0  0
 24 25  2  0  0  0  0
 24 26  1  0  0  0  0
 24 27  1  0  0  0  0
 27 28  1  0  0  0  0
 28 29  2  0  0  0  0
 28 30  1  0  0  0  0
 28 31  1  0  0  0  0
 31 32  1  0  0  0  0
 32 33  2  0  0  0  0
 32 34  1  0  0  0  0
 32 35  1  0  0  0  0
 35 36  1  0  0  0  0
 36 37  1  0  0  0  0
 37 38  1  0  0  0  0
 37 39  1  0  0  0  0
 38 43  1  0  0  0  0
 39 40  1  0  0  0  0
 39 41  1  0  0  0  0
 41 42  1  0  0  0  0
 41 43  1  0  0  0  0
 43 44  1  0  0  0  0
 44 45  1  0  0  0  0
 44 48  1  0  0  0  0
 45 46  2  0  0  0  0
 46 47  1  0  0  0  0
 47 48  2  0  0  0  0
 47 53  1  0  0  0  0
 48 49  1  0  0  0  0
 49 50  2  0  0  0  0
 50 51  1  0  0  0  0
 50 52  1  0  0  0  0
 52 53  1  0  0  0  0
 53 54  2  0  0  0  0
A    1
OBB
A    2
CBF
A    3
NBE
A    4
CBM
A    5
NBV
A    6
CBZ
A    7
CBW
A    8
NBN
A    9
CBO
A   10
CBG
A   11
NBH
A   12
CBC
A   13
CBI
A   14
NBP
A   15
CBQ
A   16
OBR
A   17
CBX
A   18
OCA
A   19
CBY
A   20
OCB
A   21
CBS
A   22
CBT
A   23
OBU
A   24
PBK
A   25
OBL
A   26
OBJ
A   27
OBD
A   28
PAZ
A   29
OBA
A   30
OAY
A   31
OAX
A   32
PAT
A   33
OAU
A   34
OAS
A   35
O5'
A   36
C5'
A   37
C4'
A   38
O4'
A   39
C3'
A   40
O3'
A   41
C2'
A   42
O2'
A   43
C1'
A   44
N9
A   45
C8
A   46
N7
A   47
C5
A   48
C4
A   49
N3
A   50
C2
A   51
N2
A   52
N1
A   53
C6
A   54
O6
M  END
>  <InstanceId>
1XK5_TPG_A_400

>  <ChemCompId>
TPG

>  <PdbId>
1XK5

>  <ChainId>
A

>  <ResidueNumber>
400

>  <InsertionCode>


>  <Model>
1

>  <AltIds>


>  <MissingHeavyAtoms>
0

>  <ObservedFormula>
C23 N10 O18 P3

>  <Name>
2,2,7-TRIMETHYL-GUANOSINE-5'-TRIPHOSPHATE-5'-GUANOSINE

>  <SystematicName>
[[[(2R,3S,4R,5R)-5-(2-amino-6-oxo-1H-purin-9-yl)-3,4-dihydroxy-oxolan-2-yl]methoxy-hydroxy-phosphoryl]oxy-hydroxy-phosphoryl] [(2R,3S,4R,5R)-5-(2-dimethylamino-7-methyl-6-oxo-1,8-dihydropurin-9-yl)-3,4-dihydroxy-oxolan-2-yl]methyl hydrogen phosphate

>  <Synonyms>


>  <Type>
RNA LINKING

>  <Formula>
C23 H35 N10 O18 P3

>  <MolecularWeight>
832.501

>  <ModifiedDate>
2011-06-04

>  <Parent>
G

>  <OneLetterCode>
G

>  <SubcomponentList>


>  <AmbiguousFlag>
N

>  <InChI>
InChI=1S/C23H35N10O18P3/c1-30(2)23-27-17-11(19(39)29-23)31(3)7-33(17)21-15(37)13(35)9(49-21)5-47-53(42,43)51-54(44,45)50-52(40,41)46-4-8-12(34)14(36)20(48-8)32-6-25-10-16(32)26-22(24)28-18(10)38/h6,8-9,12-15,20-21,34-37H,4-5,7H2,1-3H3,(H,40,41)(H,42,43)(H,44,45)(H,27,29,39)(H3,24,26,28,38)/t8-,9-,12-,13-,14-,15-,20-,21-/m1/s1

>  <InChIKey>
QBEUSSFUVVPDGT-NAGRZYTCSA-N

>  <SMILES>
CN1CN(C2=C1C(=O)NC(=N2)N(C)C)[C@H]3[C@@H]([C@@H]([C@H](O3)CO[P@](=O)(O)O[P@@](=O)(O)O[P@@](=O)(O)OC[C@@H]4[C@H]([C@H]([C@@H](O4)n5cnc6c5N=C(NC6=O)N)O)O)O)O

$$$$
