4O0X_2OQ_A_601


 29 32  0  0  0  0  0  0  0  0999 V2000
  -18.6190   -4.1056   13.3792 C   0  0  0  0  0  0  0  0  0  0  0  0
  -18.8990   -2.6634   13.7342 C   0  0  0  0  0  0  0  0  0  0  0  0
  -18.2223   -1.6767   13.2243 N   0  0  0  0  0  0  0  0  0  0  0  0
  -18.6729   -0.4943   13.7064 C   0  0  0  0  0  0  0  0  0  0  0  0
  -18.2946    0.8345   13.4793 C   0  0  0  0  0  0  0  0  0  0  0  0
  -18.9433    1.8443   14.1177 C   0  0  0  0  0  0  0  0  0  0  0  0
  -19.9906    1.5739   15.0078 C   0  0  0  0  0  0  0  0  0  0  0  0
  -20.3749    0.2539   15.2490 C   0  0  0  0  0  0  0  0  0  0  0  0
  -19.7200   -0.7908   14.6001 C   0  0  0  0  0  0  0  0  0  0  0  0
  -19.8498   -2.1809   14.6085 N   0  0  0  0  0  0  0  0  0  0  0  0
  -20.7843   -2.8998   15.3692 C   0  0  0  0  0  0  0  0  0  0  0  0
  -21.3296   -2.3522   16.4548 N   0  0  0  0  0  0  0  0  0  0  0  0
  -22.2201   -3.0133   17.1784 C   0  0  0  0  0  0  0  0  0  0  0  0
  -22.5823   -4.2382   16.8342 N   0  0  0  0  0  0  0  0  0  0  0  0
  -22.0504   -4.8003   15.7465 C   0  0  0  0  0  0  0  0  0  0  0  0
  -21.1574   -4.1250   15.0257 N   0  0  0  0  0  0  0  0  0  0  0  0
  -22.4223   -6.0795   15.3633 N   0  0  0  0  0  0  0  0  0  0  0  0
  -22.0258   -6.4875   14.5599 H   0  0  0  0  0  0  0  0  0  0  0  0
  -23.0831   -6.5799   15.8946 H   0  0  0  0  0  0  0  0  0  0  0  0
  -20.6468    2.6735   15.6565 C   0  0  0  0  0  0  0  0  0  0  0  0
  -21.1806    3.5790   16.1835 C   0  0  0  0  0  0  0  0  0  0  0  0
  -21.8680    4.7123   16.8307 C   0  0  0  0  0  0  0  0  0  0  0  0
  -23.3398    4.3425   16.9901 C   0  0  0  0  0  0  0  0  0  0  0  0
  -24.0966    5.5256   17.5931 C   0  0  0  0  0  0  0  0  0  0  0  0
  -23.4944    5.8427   18.9584 C   0  0  0  0  0  0  0  0  0  0  0  0
  -22.0140    6.2014   18.8018 C   0  0  0  0  0  0  0  0  0  0  0  0
  -21.2555    5.0083   18.2124 C   0  0  0  0  0  0  0  0  0  0  0  0
  -21.7897    5.8825   16.0212 O   0  0  0  0  0  0  0  0  0  0  0  0
  -22.1748    5.6993   15.1499 H   0  0  0  0  0  0  0  0  0  0  0  0
  3  4  1  0  0  0
  3  2  2  0  0  0
  1  2  1  0  0  0
  5  4  2  0  0  0
  5  6  1  0  0  0
  4  9  1  0  0  0
  2 10  1  0  0  0
  6  7  2  0  0  0
  9 10  1  0  0  0
  9  8  2  0  0  0
 10 11  1  0  0  0
  7  8  1  0  0  0
  7 20  1  0  0  0
 16 11  2  0  0  0
 16 15  1  0  0  0
 17 15  1  0  0  0
 11 12  1  0  0  0
 20 21  3  0  0  0
 15 14  2  0  0  0
 28 22  1  0  0  0
 21 22  1  0  0  0
 12 13  2  0  0  0
 23 22  1  0  0  0
 23 24  1  0  0  0
 22 27  1  0  0  0
 14 13  1  0  0  0
 24 25  1  0  0  0
 27 26  1  0  0  0
 25 26  1  0  0  0
 17 18  1  0  0  0
 17 19  1  0  0  0
 28 29  1  0  0  0
M  END
> <minimizedAffinity>
-11.50882

$$$$
4O0X_2OQ_A_601


 29 32  0  0  0  0  0  0  0  0999 V2000
  -18.9961   -4.3623   11.7685 C   0  0  0  0  0  0  0  0  0  0  0  0
  -19.4562   -3.2720   12.7088 C   0  0  0  0  0  0  0  0  0  0  0  0
  -19.8556   -3.5208   13.9212 N   0  0  0  0  0  0  0  0  0  0  0  0
  -20.2109   -2.3741   14.5475 C   0  0  0  0  0  0  0  0  0  0  0  0
  -20.6951   -2.0999   15.8323 C   0  0  0  0  0  0  0  0  0  0  0  0
  -20.9714   -0.8193   16.1954 C   0  0  0  0  0  0  0  0  0  0  0  0
  -20.7801    0.2379   15.2964 C   0  0  0  0  0  0  0  0  0  0  0  0
  -20.3037   -0.0206   14.0101 C   0  0  0  0  0  0  0  0  0  0  0  0
  -20.0147   -1.3281   13.6252 C   0  0  0  0  0  0  0  0  0  0  0  0
  -19.5350   -1.9191   12.4548 N   0  0  0  0  0  0  0  0  0  0  0  0
  -19.2053   -1.2288   11.2786 C   0  0  0  0  0  0  0  0  0  0  0  0
  -18.1566   -1.6082   10.5493 N   0  0  0  0  0  0  0  0  0  0  0  0
  -17.8373   -0.9736    9.4316 C   0  0  0  0  0  0  0  0  0  0  0  0
  -18.5577    0.0568    9.0206 N   0  0  0  0  0  0  0  0  0  0  0  0
  -19.6151    0.4473    9.7358 C   0  0  0  0  0  0  0  0  0  0  0  0
  -19.9276   -0.1998   10.8567 N   0  0  0  0  0  0  0  0  0  0  0  0
  -20.3886    1.5193    9.3185 N   0  0  0  0  0  0  0  0  0  0  0  0
  -21.1670    1.8015    9.8512 H   0  0  0  0  0  0  0  0  0  0  0  0
  -20.1596    1.9983    8.4895 H   0  0  0  0  0  0  0  0  0  0  0  0
  -21.0838    1.5734   15.7263 C   0  0  0  0  0  0  0  0  0  0  0  0
  -21.3322    2.6696   16.0713 C   0  0  0  0  0  0  0  0  0  0  0  0
  -21.6660    4.0398   16.5039 C   0  0  0  0  0  0  0  0  0  0  0  0
  -23.1862    4.1636   16.5473 C   0  0  0  0  0  0  0  0  0  0  0  0
  -23.5670    5.5954   16.9230 C   0  0  0  0  0  0  0  0  0  0  0  0
  -22.9853    5.9080   18.2982 C   0  0  0  0  0  0  0  0  0  0  0  0
  -21.4606    5.7715   18.2598 C   0  0  0  0  0  0  0  0  0  0  0  0
  -21.0823    4.3317   17.8989 C   0  0  0  0  0  0  0  0  0  0  0  0
  -21.1689    5.0002   15.5758 O   0  0  0  0  0  0  0  0  0  0  0  0
  -21.5348    4.8190   14.6959 H   0  0  0  0  0  0  0  0  0  0  0  0
  3  4  1  0  0  0
  3  2  2  0  0  0
  1  2  1  0  0  0
  5  4  2  0  0  0
  5  6  1  0  0  0
  4  9  1  0  0  0
  2 10  1  0  0  0
  6  7  2  0  0  0
  9 10  1  0  0  0
  9  8  2  0  0  0
 10 11  1  0  0  0
  7  8  1  0  0  0
  7 20  1  0  0  0
 16 11  2  0  0  0
 16 15  1  0  0  0
 17 15  1  0  0  0
 11 12  1  0  0  0
 20 21  3  0  0  0
 15 14  2  0  0  0
 28 22  1  0  0  0
 21 22  1  0  0  0
 12 13  2  0  0  0
 23 22  1  0  0  0
 23 24  1  0  0  0
 22 27  1  0  0  0
 14 13  1  0  0  0
 24 25  1  0  0  0
 27 26  1  0  0  0
 25 26  1  0  0  0
 17 18  1  0  0  0
 17 19  1  0  0  0
 28 29  1  0  0  0
M  END
> <minimizedAffinity>
-8.88777

$$$$
