6GUK_FC8_A_301


 31 34  0  0  0  0  0  0  0  0999 V2000
   14.6480    4.7156   -9.5823 C   0  0  0  0  0  0  0  0  0  0  0  0
   14.3660    5.7388  -10.5088 C   0  0  0  0  0  0  0  0  0  0  0  0
   13.0908    6.7713   -8.8514 C   0  0  0  0  0  0  0  0  0  0  0  0
   14.5042    3.7695   -7.5891 N   0  0  0  0  0  0  0  0  0  0  0  0
   15.3718    3.5321   -9.6752 N   0  0  0  0  0  0  0  0  0  0  0  0
   15.2541    3.0035   -8.4707 C   0  0  0  0  0  0  0  0  0  0  0  0
   13.5653    6.7606  -10.1377 N   0  0  0  0  0  0  0  0  0  0  0  0
   13.2946    5.8534   -7.8853 N   0  0  0  0  0  0  0  0  0  0  0  0
   14.0789    4.8251   -8.3216 C   0  0  0  0  0  0  0  0  0  0  0  0
   14.8539    5.7007  -11.7784 N   0  0  0  0  0  0  0  0  0  0  0  0
   14.8566    4.8147  -12.2076 H   0  0  0  0  0  0  0  0  0  0  0  0
   15.3545    6.7568  -12.5593 C   0  0  0  0  0  0  0  0  0  0  0  0
   14.5553    7.4461  -13.4684 C   0  0  0  0  0  0  0  0  0  0  0  0
   16.6660    7.1607  -12.3493 C   0  0  0  0  0  0  0  0  0  0  0  0
   17.1990    8.2040  -13.0921 C   0  0  0  0  0  0  0  0  0  0  0  0
   16.4320    8.8623  -14.0107 C   0  0  0  0  0  0  0  0  0  0  0  0
   15.1397    8.4408  -14.1992 C   0  0  0  0  0  0  0  0  0  0  0  0
   14.1478    9.2222  -15.3845 Cl  0  0  0  0  0  0  0  0  0  0  0  0
   15.2735    3.0251   -5.2733 C   0  0  0  0  0  0  0  0  0  0  0  0
   14.1476    3.4289   -6.1991 C   0  0  0  0  0  0  0  0  0  0  0  0
   12.3083    7.8390   -8.5330 N   0  0  0  0  0  0  0  0  0  0  0  0
   12.2886    8.1639   -7.6038 H   0  0  0  0  0  0  0  0  0  0  0  0
   12.1386    9.8510   -9.9134 C   0  0  0  0  0  0  0  0  0  0  0  0
   11.4994    8.5097   -9.5432 C   0  0  0  0  0  0  0  0  0  0  0  0
   11.2867   10.5504  -10.9791 C   0  0  0  0  0  0  0  0  0  0  0  0
    9.8402   10.7061  -10.5423 C   0  0  0  0  0  0  0  0  0  0  0  0
    9.2298    9.3664  -10.1317 C   0  0  0  0  0  0  0  0  0  0  0  0
   10.0574    8.6735   -9.0511 C   0  0  0  0  0  0  0  0  0  0  0  0
    9.9733    9.4428   -7.7635 N   0  0  0  0  0  0  0  0  0  0  0  0
   10.3372   10.3849   -7.9060 H   0  0  0  0  0  0  0  0  0  0  0  0
   10.5252    8.9696   -7.0481 H   0  0  0  0  0  0  0  0  0  0  0  0
  6  5  2  0  0  0
  6  4  1  0  0  0
 20  4  1  0  0  0
 20 19  1  0  0  0
  5  1  1  0  0  0
  4  9  1  0  0  0
  1  9  2  0  0  0
  1  2  1  0  0  0
  9  8  1  0  0  0
  8  3  2  0  0  0
  2 10  1  0  0  0
  2  7  2  0  0  0
 10 12  1  0  0  0
  3  7  1  0  0  0
  3 21  1  0  0  0
 12 14  2  0  0  0
 12 13  1  0  0  0
 14 15  1  0  0  0
 13 17  2  0  0  0
 21 24  1  0  0  0
 15 16  2  0  0  0
 17 16  1  0  0  0
 17 18  1  0  0  0
 24 28  1  0  0  0
 24 23  1  0  0  0
 29 28  1  0  0  0
 28 27  1  0  0  0
 23 25  1  0  0  0
 27 26  1  0  0  0
 25 26  1  0  0  0
 10 11  1  0  0  0
 21 22  1  0  0  0
 29 30  1  0  0  0
 29 31  1  0  0  0
M  END
> <minimizedAffinity>
-9.38594

$$$$
6GUK_FC8_A_301


 31 34  0  0  0  0  0  0  0  0999 V2000
   12.1473   10.4644  -12.8392 C   0  0  0  0  0  0  0  0  0  0  0  0
   11.3858   10.6648  -11.6710 C   0  0  0  0  0  0  0  0  0  0  0  0
   12.9266    9.3286  -10.5397 C   0  0  0  0  0  0  0  0  0  0  0  0
   13.8695    9.6327  -13.9486 N   0  0  0  0  0  0  0  0  0  0  0  0
   11.9815   10.8791  -14.1559 N   0  0  0  0  0  0  0  0  0  0  0  0
   13.0242   10.3580  -14.7767 C   0  0  0  0  0  0  0  0  0  0  0  0
   11.7756   10.0733  -10.5215 N   0  0  0  0  0  0  0  0  0  0  0  0
   13.7304    9.0710  -11.5909 N   0  0  0  0  0  0  0  0  0  0  0  0
   13.2735    9.6607  -12.7338 C   0  0  0  0  0  0  0  0  0  0  0  0
   10.2484   11.4115  -11.6846 N   0  0  0  0  0  0  0  0  0  0  0  0
   10.0203   11.8251  -12.5485 H   0  0  0  0  0  0  0  0  0  0  0  0
    9.3554   11.6716  -10.6307 C   0  0  0  0  0  0  0  0  0  0  0  0
    8.7031   10.6488   -9.9463 C   0  0  0  0  0  0  0  0  0  0  0  0
    9.1900   12.9886  -10.2239 C   0  0  0  0  0  0  0  0  0  0  0  0
    8.3246   13.2904   -9.1826 C   0  0  0  0  0  0  0  0  0  0  0  0
    7.6543   12.2959   -8.5291 C   0  0  0  0  0  0  0  0  0  0  0  0
    7.8350   11.0035   -8.9534 C   0  0  0  0  0  0  0  0  0  0  0  0
    6.9710    9.7182   -8.1784 Cl  0  0  0  0  0  0  0  0  0  0  0  0
   14.9026    7.7517  -15.3283 C   0  0  0  0  0  0  0  0  0  0  0  0
   15.0793    8.8891  -14.3471 C   0  0  0  0  0  0  0  0  0  0  0  0
   13.2775    8.7777   -9.3451 N   0  0  0  0  0  0  0  0  0  0  0  0
   14.0769    8.2056   -9.2927 H   0  0  0  0  0  0  0  0  0  0  0  0
   13.3615    8.8075   -6.9008 C   0  0  0  0  0  0  0  0  0  0  0  0
   12.4905    9.0201   -8.1423 C   0  0  0  0  0  0  0  0  0  0  0  0
   12.5308    9.0678   -5.6387 C   0  0  0  0  0  0  0  0  0  0  0  0
   11.2669    8.2258   -5.6031 C   0  0  0  0  0  0  0  0  0  0  0  0
   10.4311    8.4130   -6.8690 C   0  0  0  0  0  0  0  0  0  0  0  0
   11.2428    8.1306   -8.1315 C   0  0  0  0  0  0  0  0  0  0  0  0
   11.5784    6.6685   -8.2133 N   0  0  0  0  0  0  0  0  0  0  0  0
   12.1298    6.4001   -7.3983 H   0  0  0  0  0  0  0  0  0  0  0  0
   12.1161    6.4901   -9.0615 H   0  0  0  0  0  0  0  0  0  0  0  0
  6  5  2  0  0  0
  6  4  1  0  0  0
 20  4  1  0  0  0
 20 19  1  0  0  0
  5  1  1  0  0  0
  4  9  1  0  0  0
  1  9  2  0  0  0
  1  2  1  0  0  0
  9  8  1  0  0  0
  8  3  2  0  0  0
  2 10  1  0  0  0
  2  7  2  0  0  0
 10 12  1  0  0  0
  3  7  1  0  0  0
  3 21  1  0  0  0
 12 14  2  0  0  0
 12 13  1  0  0  0
 14 15  1  0  0  0
 13 17  2  0  0  0
 21 24  1  0  0  0
 15 16  2  0  0  0
 17 16  1  0  0  0
 17 18  1  0  0  0
 24 28  1  0  0  0
 24 23  1  0  0  0
 29 28  1  0  0  0
 28 27  1  0  0  0
 23 25  1  0  0  0
 27 26  1  0  0  0
 25 26  1  0  0  0
 10 11  1  0  0  0
 21 22  1  0  0  0
 29 30  1  0  0  0
 29 31  1  0  0  0
M  END
> <minimizedAffinity>
-9.23314

$$$$
6GUK_FC8_A_301


 31 34  0  0  0  0  0  0  0  0999 V2000
   11.4184    9.8263  -11.7436 C   0  0  0  0  0  0  0  0  0  0  0  0
   10.2932    9.7376  -10.9004 C   0  0  0  0  0  0  0  0  0  0  0  0
   11.3328    7.9369   -9.8441 C   0  0  0  0  0  0  0  0  0  0  0  0
   13.4207    9.1865  -12.4290 N   0  0  0  0  0  0  0  0  0  0  0  0
   11.7295   10.6527  -12.8176 N   0  0  0  0  0  0  0  0  0  0  0  0
   12.9238   10.2327  -13.1938 C   0  0  0  0  0  0  0  0  0  0  0  0
   10.2506    8.7708   -9.9589 N   0  0  0  0  0  0  0  0  0  0  0  0
   12.4562    7.9297  -10.5895 N   0  0  0  0  0  0  0  0  0  0  0  0
   12.4336    8.9009  -11.5482 C   0  0  0  0  0  0  0  0  0  0  0  0
    9.2350   10.5818  -11.0381 N   0  0  0  0  0  0  0  0  0  0  0  0
    8.6726   10.4345  -11.8326 H   0  0  0  0  0  0  0  0  0  0  0  0
    8.8371   11.6362  -10.1979 C   0  0  0  0  0  0  0  0  0  0  0  0
    9.2839   12.9415  -10.3890 C   0  0  0  0  0  0  0  0  0  0  0  0
    7.9110   11.3633   -9.2001 C   0  0  0  0  0  0  0  0  0  0  0  0
    7.4843   12.3754   -8.3529 C   0  0  0  0  0  0  0  0  0  0  0  0
    7.9447   13.6515   -8.5118 C   0  0  0  0  0  0  0  0  0  0  0  0
    8.8609   13.8923   -9.5046 C   0  0  0  0  0  0  0  0  0  0  0  0
    9.5006   15.4883   -9.7116 Cl  0  0  0  0  0  0  0  0  0  0  0  0
   15.5417    8.8751  -13.8122 C   0  0  0  0  0  0  0  0  0  0  0  0
   14.6925    8.4668  -12.6290 C   0  0  0  0  0  0  0  0  0  0  0  0
   11.2379    6.9988   -8.8620 N   0  0  0  0  0  0  0  0  0  0  0  0
   10.7597    6.1572   -9.0419 H   0  0  0  0  0  0  0  0  0  0  0  0
   11.6391    5.9736   -6.6779 C   0  0  0  0  0  0  0  0  0  0  0  0
   11.8318    7.2181   -7.5491 C   0  0  0  0  0  0  0  0  0  0  0  0
   12.2691    6.2075   -5.2998 C   0  0  0  0  0  0  0  0  0  0  0  0
   11.7336    7.4627   -4.6326 C   0  0  0  0  0  0  0  0  0  0  0  0
   11.8904    8.6882   -5.5324 C   0  0  0  0  0  0  0  0  0  0  0  0
   11.2430    8.4747   -6.8992 C   0  0  0  0  0  0  0  0  0  0  0  0
    9.7492    8.4024   -6.7573 N   0  0  0  0  0  0  0  0  0  0  0  0
    9.5028    7.6217   -6.1488 H   0  0  0  0  0  0  0  0  0  0  0  0
    9.3268    8.2644   -7.6754 H   0  0  0  0  0  0  0  0  0  0  0  0
  6  5  2  0  0  0
  6  4  1  0  0  0
 20  4  1  0  0  0
 20 19  1  0  0  0
  5  1  1  0  0  0
  4  9  1  0  0  0
  1  9  2  0  0  0
  1  2  1  0  0  0
  9  8  1  0  0  0
  8  3  2  0  0  0
  2 10  1  0  0  0
  2  7  2  0  0  0
 10 12  1  0  0  0
  3  7  1  0  0  0
  3 21  1  0  0  0
 12 14  2  0  0  0
 12 13  1  0  0  0
 14 15  1  0  0  0
 13 17  2  0  0  0
 21 24  1  0  0  0
 15 16  2  0  0  0
 17 16  1  0  0  0
 17 18  1  0  0  0
 24 28  1  0  0  0
 24 23  1  0  0  0
 29 28  1  0  0  0
 28 27  1  0  0  0
 23 25  1  0  0  0
 27 26  1  0  0  0
 25 26  1  0  0  0
 10 11  1  0  0  0
 21 22  1  0  0  0
 29 30  1  0  0  0
 29 31  1  0  0  0
M  END
> <minimizedAffinity>
-9.01597

$$$$
6GUK_FC8_A_301


 31 34  0  0  0  0  0  0  0  0999 V2000
   13.0857    6.3480   -7.8430 C   0  0  0  0  0  0  0  0  0  0  0  0
   12.9948    7.4529   -8.7123 C   0  0  0  0  0  0  0  0  0  0  0  0
   14.6407    6.4483  -10.0241 C   0  0  0  0  0  0  0  0  0  0  0  0
   13.9032    4.3875   -7.2292 N   0  0  0  0  0  0  0  0  0  0  0  0
   12.4551    6.0371   -6.6435 N   0  0  0  0  0  0  0  0  0  0  0  0
   12.9754    4.8683   -6.3157 C   0  0  0  0  0  0  0  0  0  0  0  0
   13.7954    7.5039   -9.7983 N   0  0  0  0  0  0  0  0  0  0  0  0
   14.8104    5.3459   -9.2669 N   0  0  0  0  0  0  0  0  0  0  0  0
   14.0057    5.3603   -8.1645 C   0  0  0  0  0  0  0  0  0  0  0  0
   12.1439    8.4848   -8.4618 N   0  0  0  0  0  0  0  0  0  0  0  0
   12.1281    8.8082   -7.5320 H   0  0  0  0  0  0  0  0  0  0  0  0
   11.2845    9.1510   -9.3525 C   0  0  0  0  0  0  0  0  0  0  0  0
   11.7646    9.8558  -10.4538 C   0  0  0  0  0  0  0  0  0  0  0  0
    9.9157    9.0277   -9.1559 C   0  0  0  0  0  0  0  0  0  0  0  0
    9.0306    9.6618  -10.0153 C   0  0  0  0  0  0  0  0  0  0  0  0
    9.4945   10.3840  -11.0777 C   0  0  0  0  0  0  0  0  0  0  0  0
   10.8521   10.4909  -11.2470 C   0  0  0  0  0  0  0  0  0  0  0  0
   11.4809   11.4325  -12.5574 Cl  0  0  0  0  0  0  0  0  0  0  0  0
   15.2663    2.8045   -5.7645 C   0  0  0  0  0  0  0  0  0  0  0  0
   14.6937    3.1470   -7.1220 C   0  0  0  0  0  0  0  0  0  0  0  0
   15.4045    6.5494  -11.1466 N   0  0  0  0  0  0  0  0  0  0  0  0
   16.0176    5.8160  -11.3819 H   0  0  0  0  0  0  0  0  0  0  0  0
   14.2057    7.5484  -13.0300 C   0  0  0  0  0  0  0  0  0  0  0  0
   15.3307    7.7244  -12.0062 C   0  0  0  0  0  0  0  0  0  0  0  0
   14.1291    8.7882  -13.9287 C   0  0  0  0  0  0  0  0  0  0  0  0
   15.4616    9.0982  -14.5889 C   0  0  0  0  0  0  0  0  0  0  0  0
   16.5834    9.2251  -13.5586 C   0  0  0  0  0  0  0  0  0  0  0  0
   16.6848    7.9834  -12.6750 C   0  0  0  0  0  0  0  0  0  0  0  0
   17.1597    6.8106  -13.4849 N   0  0  0  0  0  0  0  0  0  0  0  0
   16.4972    6.6273  -14.2385 H   0  0  0  0  0  0  0  0  0  0  0  0
   17.2282    5.9886  -12.8850 H   0  0  0  0  0  0  0  0  0  0  0  0
  6  5  2  0  0  0
  6  4  1  0  0  0
 20  4  1  0  0  0
 20 19  1  0  0  0
  5  1  1  0  0  0
  4  9  1  0  0  0
  1  9  2  0  0  0
  1  2  1  0  0  0
  9  8  1  0  0  0
  8  3  2  0  0  0
  2 10  1  0  0  0
  2  7  2  0  0  0
 10 12  1  0  0  0
  3  7  1  0  0  0
  3 21  1  0  0  0
 12 14  2  0  0  0
 12 13  1  0  0  0
 14 15  1  0  0  0
 13 17  2  0  0  0
 21 24  1  0  0  0
 15 16  2  0  0  0
 17 16  1  0  0  0
 17 18  1  0  0  0
 24 28  1  0  0  0
 24 23  1  0  0  0
 29 28  1  0  0  0
 28 27  1  0  0  0
 23 25  1  0  0  0
 27 26  1  0  0  0
 25 26  1  0  0  0
 10 11  1  0  0  0
 21 22  1  0  0  0
 29 30  1  0  0  0
 29 31  1  0  0  0
M  END
> <minimizedAffinity>
-8.77989

$$$$
6GUK_FC8_A_301


 31 34  0  0  0  0  0  0  0  0999 V2000
   11.0071    8.7615   -9.4964 C   0  0  0  0  0  0  0  0  0  0  0  0
   10.6139    9.5226  -10.6148 C   0  0  0  0  0  0  0  0  0  0  0  0
   12.7355    9.1489  -11.5084 C   0  0  0  0  0  0  0  0  0  0  0  0
   12.4536    7.5363   -8.3584 N   0  0  0  0  0  0  0  0  0  0  0  0
   10.3644    8.4272   -8.3097 N   0  0  0  0  0  0  0  0  0  0  0  0
   11.2628    7.7045   -7.6656 C   0  0  0  0  0  0  0  0  0  0  0  0
   11.4974    9.7283  -11.6149 N   0  0  0  0  0  0  0  0  0  0  0  0
   13.2176    8.4050  -10.4927 N   0  0  0  0  0  0  0  0  0  0  0  0
   12.2999    8.2575   -9.4933 C   0  0  0  0  0  0  0  0  0  0  0  0
    9.3765   10.0833  -10.6921 N   0  0  0  0  0  0  0  0  0  0  0  0
    8.7163    9.5871  -11.2279 H   0  0  0  0  0  0  0  0  0  0  0  0
    8.9146   11.2762  -10.1094 C   0  0  0  0  0  0  0  0  0  0  0  0
    8.0258   11.2782   -9.0369 C   0  0  0  0  0  0  0  0  0  0  0  0
    9.4295   12.4763  -10.5807 C   0  0  0  0  0  0  0  0  0  0  0  0
    9.0078   13.6773  -10.0294 C   0  0  0  0  0  0  0  0  0  0  0  0
    8.1097   13.6893   -9.0004 C   0  0  0  0  0  0  0  0  0  0  0  0
    7.6155   12.4887   -8.5559 C   0  0  0  0  0  0  0  0  0  0  0  0
    6.4433   12.4636   -7.2812 Cl  0  0  0  0  0  0  0  0  0  0  0  0
   13.5987    5.3234   -7.8099 C   0  0  0  0  0  0  0  0  0  0  0  0
   13.6618    6.8326   -7.8890 C   0  0  0  0  0  0  0  0  0  0  0  0
   13.5716    9.3750  -12.5588 N   0  0  0  0  0  0  0  0  0  0  0  0
   13.6513   10.2849  -12.9262 H   0  0  0  0  0  0  0  0  0  0  0  0
   15.8382    8.5031  -12.8504 C   0  0  0  0  0  0  0  0  0  0  0  0
   14.3509    8.2938  -13.1491 C   0  0  0  0  0  0  0  0  0  0  0  0
   16.6530    7.3614  -13.4693 C   0  0  0  0  0  0  0  0  0  0  0  0
   16.3832    7.2080  -14.9564 C   0  0  0  0  0  0  0  0  0  0  0  0
   14.8906    7.0466  -15.2430 C   0  0  0  0  0  0  0  0  0  0  0  0
   14.0725    8.1933  -14.6526 C   0  0  0  0  0  0  0  0  0  0  0  0
   14.3759    9.4721  -15.3802 N   0  0  0  0  0  0  0  0  0  0  0  0
   15.3678    9.6902  -15.2854 H   0  0  0  0  0  0  0  0  0  0  0  0
   13.8216   10.2299  -14.9814 H   0  0  0  0  0  0  0  0  0  0  0  0
  6  5  2  0  0  0
  6  4  1  0  0  0
 20  4  1  0  0  0
 20 19  1  0  0  0
  5  1  1  0  0  0
  4  9  1  0  0  0
  1  9  2  0  0  0
  1  2  1  0  0  0
  9  8  1  0  0  0
  8  3  2  0  0  0
  2 10  1  0  0  0
  2  7  2  0  0  0
 10 12  1  0  0  0
  3  7  1  0  0  0
  3 21  1  0  0  0
 12 14  2  0  0  0
 12 13  1  0  0  0
 14 15  1  0  0  0
 13 17  2  0  0  0
 21 24  1  0  0  0
 15 16  2  0  0  0
 17 16  1  0  0  0
 17 18  1  0  0  0
 24 28  1  0  0  0
 24 23  1  0  0  0
 29 28  1  0  0  0
 28 27  1  0  0  0
 23 25  1  0  0  0
 27 26  1  0  0  0
 25 26  1  0  0  0
 10 11  1  0  0  0
 21 22  1  0  0  0
 29 30  1  0  0  0
 29 31  1  0  0  0
M  END
> <minimizedAffinity>
-8.58071

$$$$
6GUK_FC8_A_301


 31 34  0  0  0  0  0  0  0  0999 V2000
   11.2396    9.3307  -11.1721 C   0  0  0  0  0  0  0  0  0  0  0  0
   10.1557    9.1920  -10.2829 C   0  0  0  0  0  0  0  0  0  0  0  0
   11.4186    7.6099   -9.1247 C   0  0  0  0  0  0  0  0  0  0  0  0
   13.2803    8.8561  -11.8785 N   0  0  0  0  0  0  0  0  0  0  0  0
   11.4263   10.0925  -12.3201 N   0  0  0  0  0  0  0  0  0  0  0  0
   12.6486    9.7742  -12.7059 C   0  0  0  0  0  0  0  0  0  0  0  0
   10.2476    8.3090   -9.2656 N   0  0  0  0  0  0  0  0  0  0  0  0
   12.5141    7.6616   -9.9088 N   0  0  0  0  0  0  0  0  0  0  0  0
   12.3565    8.5405  -10.9411 C   0  0  0  0  0  0  0  0  0  0  0  0
    9.0068    9.9020  -10.4482 N   0  0  0  0  0  0  0  0  0  0  0  0
    8.3208    9.4774  -11.0124 H   0  0  0  0  0  0  0  0  0  0  0  0
    8.6681   11.1604   -9.9214 C   0  0  0  0  0  0  0  0  0  0  0  0
    7.8619   11.2961   -8.7937 C   0  0  0  0  0  0  0  0  0  0  0  0
    9.2255   12.2873  -10.5104 C   0  0  0  0  0  0  0  0  0  0  0  0
    8.9250   13.5489  -10.0181 C   0  0  0  0  0  0  0  0  0  0  0  0
    8.1070   13.6923   -8.9338 C   0  0  0  0  0  0  0  0  0  0  0  0
    7.5684   12.5617   -8.3728 C   0  0  0  0  0  0  0  0  0  0  0  0
    6.4930   12.7038   -7.0227 Cl  0  0  0  0  0  0  0  0  0  0  0  0
   14.6931    6.9369  -12.7892 C   0  0  0  0  0  0  0  0  0  0  0  0
   14.6178    8.2641  -12.0676 C   0  0  0  0  0  0  0  0  0  0  0  0
   11.4565    6.7530   -8.0674 N   0  0  0  0  0  0  0  0  0  0  0  0
   11.5362    5.7856   -8.2317 H   0  0  0  0  0  0  0  0  0  0  0  0
   12.4216    8.3453   -6.4813 C   0  0  0  0  0  0  0  0  0  0  0  0
   11.3812    7.2425   -6.6964 C   0  0  0  0  0  0  0  0  0  0  0  0
   12.3356    8.8598   -5.0396 C   0  0  0  0  0  0  0  0  0  0  0  0
   12.4708    7.7384   -4.0239 C   0  0  0  0  0  0  0  0  0  0  0  0
   11.4568    6.6236   -4.2793 C   0  0  0  0  0  0  0  0  0  0  0  0
   11.5523    6.0860   -5.7057 C   0  0  0  0  0  0  0  0  0  0  0  0
   12.8500    5.3535   -5.8957 N   0  0  0  0  0  0  0  0  0  0  0  0
   13.6282    5.9917   -5.7298 H   0  0  0  0  0  0  0  0  0  0  0  0
   12.9017    4.9951   -6.8493 H   0  0  0  0  0  0  0  0  0  0  0  0
  6  5  2  0  0  0
  6  4  1  0  0  0
 20  4  1  0  0  0
 20 19  1  0  0  0
  5  1  1  0  0  0
  4  9  1  0  0  0
  1  9  2  0  0  0
  1  2  1  0  0  0
  9  8  1  0  0  0
  8  3  2  0  0  0
  2 10  1  0  0  0
  2  7  2  0  0  0
 10 12  1  0  0  0
  3  7  1  0  0  0
  3 21  1  0  0  0
 12 14  2  0  0  0
 12 13  1  0  0  0
 14 15  1  0  0  0
 13 17  2  0  0  0
 21 24  1  0  0  0
 15 16  2  0  0  0
 17 16  1  0  0  0
 17 18  1  0  0  0
 24 28  1  0  0  0
 24 23  1  0  0  0
 29 28  1  0  0  0
 28 27  1  0  0  0
 23 25  1  0  0  0
 27 26  1  0  0  0
 25 26  1  0  0  0
 10 11  1  0  0  0
 21 22  1  0  0  0
 29 30  1  0  0  0
 29 31  1  0  0  0
M  END
> <minimizedAffinity>
-8.55452

$$$$
6GUK_FC8_A_301


 31 34  0  0  0  0  0  0  0  0999 V2000
   13.2222    9.3519  -12.9399 C   0  0  0  0  0  0  0  0  0  0  0  0
   12.3191    9.5697  -11.8808 C   0  0  0  0  0  0  0  0  0  0  0  0
   13.5749    8.0675  -10.6137 C   0  0  0  0  0  0  0  0  0  0  0  0
   15.0164    8.4234  -13.8383 N   0  0  0  0  0  0  0  0  0  0  0  0
   13.2789    9.8295  -14.2445 N   0  0  0  0  0  0  0  0  0  0  0  0
   14.3566    9.2478  -14.7390 C   0  0  0  0  0  0  0  0  0  0  0  0
   12.4938    8.9040  -10.7192 N   0  0  0  0  0  0  0  0  0  0  0  0
   14.4986    7.7847  -11.5541 N   0  0  0  0  0  0  0  0  0  0  0  0
   14.2566    8.4540  -12.7187 C   0  0  0  0  0  0  0  0  0  0  0  0
   11.2561   10.4084  -12.0157 N   0  0  0  0  0  0  0  0  0  0  0  0
   11.1877   10.8743  -12.8803 H   0  0  0  0  0  0  0  0  0  0  0  0
   10.2424   10.6986  -11.0861 C   0  0  0  0  0  0  0  0  0  0  0  0
    9.8506   12.0053  -10.8048 C   0  0  0  0  0  0  0  0  0  0  0  0
    9.5709    9.6354  -10.4977 C   0  0  0  0  0  0  0  0  0  0  0  0
    8.5583    9.8755   -9.5806 C   0  0  0  0  0  0  0  0  0  0  0  0
    8.1918   11.1548   -9.2730 C   0  0  0  0  0  0  0  0  0  0  0  0
    8.8738   12.1865   -9.8678 C   0  0  0  0  0  0  0  0  0  0  0  0
    8.4675   13.8229   -9.4725 Cl  0  0  0  0  0  0  0  0  0  0  0  0
   16.1416    6.6280  -15.2594 C   0  0  0  0  0  0  0  0  0  0  0  0
   16.2101    7.5978  -14.1007 C   0  0  0  0  0  0  0  0  0  0  0  0
   13.7079    7.4438   -9.4109 N   0  0  0  0  0  0  0  0  0  0  0  0
   14.3828    6.7347   -9.3059 H   0  0  0  0  0  0  0  0  0  0  0  0
   13.6231    8.7777   -7.3625 C   0  0  0  0  0  0  0  0  0  0  0  0
   12.8688    7.8071   -8.2757 C   0  0  0  0  0  0  0  0  0  0  0  0
   12.7351    9.1602   -6.1726 C   0  0  0  0  0  0  0  0  0  0  0  0
   12.2309    7.9403   -5.4207 C   0  0  0  0  0  0  0  0  0  0  0  0
   11.5212    6.9591   -6.3531 C   0  0  0  0  0  0  0  0  0  0  0  0
   12.4075    6.5514   -7.5283 C   0  0  0  0  0  0  0  0  0  0  0  0
   13.5579    5.7165   -7.0422 N   0  0  0  0  0  0  0  0  0  0  0  0
   14.1143    6.2571   -6.3799 H   0  0  0  0  0  0  0  0  0  0  0  0
   14.1405    5.4461   -7.8346 H   0  0  0  0  0  0  0  0  0  0  0  0
  6  5  2  0  0  0
  6  4  1  0  0  0
 20  4  1  0  0  0
 20 19  1  0  0  0
  5  1  1  0  0  0
  4  9  1  0  0  0
  1  9  2  0  0  0
  1  2  1  0  0  0
  9  8  1  0  0  0
  8  3  2  0  0  0
  2 10  1  0  0  0
  2  7  2  0  0  0
 10 12  1  0  0  0
  3  7  1  0  0  0
  3 21  1  0  0  0
 12 14  2  0  0  0
 12 13  1  0  0  0
 14 15  1  0  0  0
 13 17  2  0  0  0
 21 24  1  0  0  0
 15 16  2  0  0  0
 17 16  1  0  0  0
 17 18  1  0  0  0
 24 28  1  0  0  0
 24 23  1  0  0  0
 29 28  1  0  0  0
 28 27  1  0  0  0
 23 25  1  0  0  0
 27 26  1  0  0  0
 25 26  1  0  0  0
 10 11  1  0  0  0
 21 22  1  0  0  0
 29 30  1  0  0  0
 29 31  1  0  0  0
M  END
> <minimizedAffinity>
-8.49288

$$$$
6GUK_FC8_A_301


 31 34  0  0  0  0  0  0  0  0999 V2000
    8.6369   11.4991   -9.7875 C   0  0  0  0  0  0  0  0  0  0  0  0
    8.8105   10.1242  -10.0413 C   0  0  0  0  0  0  0  0  0  0  0  0
    7.8544    9.7054   -7.9557 C   0  0  0  0  0  0  0  0  0  0  0  0
    7.9646   13.2036   -8.5501 N   0  0  0  0  0  0  0  0  0  0  0  0
    8.9695   12.6407  -10.5082 N   0  0  0  0  0  0  0  0  0  0  0  0
    8.5556   13.6262   -9.7326 C   0  0  0  0  0  0  0  0  0  0  0  0
    8.4307    9.2288   -9.1048 N   0  0  0  0  0  0  0  0  0  0  0  0
    7.6385   10.9900   -7.6081 N   0  0  0  0  0  0  0  0  0  0  0  0
    8.0722   11.8546   -8.5710 C   0  0  0  0  0  0  0  0  0  0  0  0
    9.3844    9.6821  -11.1931 N   0  0  0  0  0  0  0  0  0  0  0  0
    8.7638    9.3240  -11.8684 H   0  0  0  0  0  0  0  0  0  0  0  0
   10.7444    9.6681  -11.5481 C   0  0  0  0  0  0  0  0  0  0  0  0
   11.6570    8.8083  -10.9414 C   0  0  0  0  0  0  0  0  0  0  0  0
   11.1568   10.4884  -12.5895 C   0  0  0  0  0  0  0  0  0  0  0  0
   12.4882   10.5007  -12.9784 C   0  0  0  0  0  0  0  0  0  0  0  0
   13.3964    9.6859  -12.3647 C   0  0  0  0  0  0  0  0  0  0  0  0
   12.9617    8.8870  -11.3371 C   0  0  0  0  0  0  0  0  0  0  0  0
   14.0905    7.8704  -10.5054 Cl  0  0  0  0  0  0  0  0  0  0  0  0
    8.4558   14.5485   -6.4385 C   0  0  0  0  0  0  0  0  0  0  0  0
    7.4545   14.0548   -7.4590 C   0  0  0  0  0  0  0  0  0  0  0  0
    7.4731    8.7519   -7.0619 N   0  0  0  0  0  0  0  0  0  0  0  0
    6.8618    8.0359   -7.3500 H   0  0  0  0  0  0  0  0  0  0  0  0
    9.4159    8.3193   -5.6404 C   0  0  0  0  0  0  0  0  0  0  0  0
    7.9538    8.7721   -5.6859 C   0  0  0  0  0  0  0  0  0  0  0  0
    9.9181    8.3465   -4.1920 C   0  0  0  0  0  0  0  0  0  0  0  0
    9.0354    7.5275   -3.2659 C   0  0  0  0  0  0  0  0  0  0  0  0
    7.5722    7.9595   -3.3567 C   0  0  0  0  0  0  0  0  0  0  0  0
    7.0545    7.9108   -4.7928 C   0  0  0  0  0  0  0  0  0  0  0  0
    6.9711    6.4867   -5.2637 N   0  0  0  0  0  0  0  0  0  0  0  0
    7.8985    6.0632   -5.2316 H   0  0  0  0  0  0  0  0  0  0  0  0
    6.6205    6.4652   -6.2212 H   0  0  0  0  0  0  0  0  0  0  0  0
  6  5  2  0  0  0
  6  4  1  0  0  0
 20  4  1  0  0  0
 20 19  1  0  0  0
  5  1  1  0  0  0
  4  9  1  0  0  0
  1  9  2  0  0  0
  1  2  1  0  0  0
  9  8  1  0  0  0
  8  3  2  0  0  0
  2 10  1  0  0  0
  2  7  2  0  0  0
 10 12  1  0  0  0
  3  7  1  0  0  0
  3 21  1  0  0  0
 12 14  2  0  0  0
 12 13  1  0  0  0
 14 15  1  0  0  0
 13 17  2  0  0  0
 21 24  1  0  0  0
 15 16  2  0  0  0
 17 16  1  0  0  0
 17 18  1  0  0  0
 24 28  1  0  0  0
 24 23  1  0  0  0
 29 28  1  0  0  0
 28 27  1  0  0  0
 23 25  1  0  0  0
 27 26  1  0  0  0
 25 26  1  0  0  0
 10 11  1  0  0  0
 21 22  1  0  0  0
 29 30  1  0  0  0
 29 31  1  0  0  0
M  END
> <minimizedAffinity>
-8.46519

$$$$
6GUK_FC8_A_301


 31 34  0  0  0  0  0  0  0  0999 V2000
    9.5007    9.1102   -7.1297 C   0  0  0  0  0  0  0  0  0  0  0  0
    9.2040    9.1939   -8.5044 C   0  0  0  0  0  0  0  0  0  0  0  0
   10.9483    7.6934   -8.8853 C   0  0  0  0  0  0  0  0  0  0  0  0
   10.6447    8.3297   -5.4061 N   0  0  0  0  0  0  0  0  0  0  0  0
    8.9676    9.7384   -6.0097 N   0  0  0  0  0  0  0  0  0  0  0  0
    9.6808    9.2475   -5.0123 C   0  0  0  0  0  0  0  0  0  0  0  0
    9.9506    8.4913   -9.3830 N   0  0  0  0  0  0  0  0  0  0  0  0
   11.3187    7.5351   -7.5987 N   0  0  0  0  0  0  0  0  0  0  0  0
   10.5580    8.2929   -6.7562 C   0  0  0  0  0  0  0  0  0  0  0  0
    8.2055    9.9938   -8.9674 N   0  0  0  0  0  0  0  0  0  0  0  0
    7.3658    9.5358   -9.2008 H   0  0  0  0  0  0  0  0  0  0  0  0
    8.2121   11.3866   -9.1573 C   0  0  0  0  0  0  0  0  0  0  0  0
    7.5617   12.2541   -8.2828 C   0  0  0  0  0  0  0  0  0  0  0  0
    8.9581   11.8995  -10.2098 C   0  0  0  0  0  0  0  0  0  0  0  0
    8.9994   13.2685  -10.4297 C   0  0  0  0  0  0  0  0  0  0  0  0
    8.3354   14.1237   -9.5971 C   0  0  0  0  0  0  0  0  0  0  0  0
    7.6043   13.5894   -8.5660 C   0  0  0  0  0  0  0  0  0  0  0  0
    6.7141   14.6376   -7.5133 Cl  0  0  0  0  0  0  0  0  0  0  0  0
   11.4141    6.1784   -4.2709 C   0  0  0  0  0  0  0  0  0  0  0  0
   11.6290    7.6507   -4.5427 C   0  0  0  0  0  0  0  0  0  0  0  0
   11.6493    6.9941   -9.8197 N   0  0  0  0  0  0  0  0  0  0  0  0
   11.3141    6.1186  -10.1205 H   0  0  0  0  0  0  0  0  0  0  0  0
   12.5691    8.4757  -11.5347 C   0  0  0  0  0  0  0  0  0  0  0  0
   12.8874    7.5184  -10.3827 C   0  0  0  0  0  0  0  0  0  0  0  0
   13.8739    9.0279  -12.1205 C   0  0  0  0  0  0  0  0  0  0  0  0
   14.8246    7.9204  -12.5417 C   0  0  0  0  0  0  0  0  0  0  0  0
   15.0963    6.9468  -11.3952 C   0  0  0  0  0  0  0  0  0  0  0  0
   13.8032    6.3710  -10.8217 C   0  0  0  0  0  0  0  0  0  0  0  0
   13.1498    5.4667  -11.8278 N   0  0  0  0  0  0  0  0  0  0  0  0
   12.9304    5.9979  -12.6704 H   0  0  0  0  0  0  0  0  0  0  0  0
   12.2903    5.0843  -11.4335 H   0  0  0  0  0  0  0  0  0  0  0  0
  6  5  2  0  0  0
  6  4  1  0  0  0
 20  4  1  0  0  0
 20 19  1  0  0  0
  5  1  1  0  0  0
  4  9  1  0  0  0
  1  9  2  0  0  0
  1  2  1  0  0  0
  9  8  1  0  0  0
  8  3  2  0  0  0
  2 10  1  0  0  0
  2  7  2  0  0  0
 10 12  1  0  0  0
  3  7  1  0  0  0
  3 21  1  0  0  0
 12 14  2  0  0  0
 12 13  1  0  0  0
 14 15  1  0  0  0
 13 17  2  0  0  0
 21 24  1  0  0  0
 15 16  2  0  0  0
 17 16  1  0  0  0
 17 18  1  0  0  0
 24 28  1  0  0  0
 24 23  1  0  0  0
 29 28  1  0  0  0
 28 27  1  0  0  0
 23 25  1  0  0  0
 27 26  1  0  0  0
 25 26  1  0  0  0
 10 11  1  0  0  0
 21 22  1  0  0  0
 29 30  1  0  0  0
 29 31  1  0  0  0
M  END
> <minimizedAffinity>
-8.39892

$$$$
6GUK_FC8_A_301


 31 34  0  0  0  0  0  0  0  0999 V2000
   11.1934    8.5680   -9.0129 C   0  0  0  0  0  0  0  0  0  0  0  0
   12.4522    7.9353   -9.0245 C   0  0  0  0  0  0  0  0  0  0  0  0
   12.9247    9.1003  -10.9889 C   0  0  0  0  0  0  0  0  0  0  0  0
    9.6799    9.9565   -9.8313 N   0  0  0  0  0  0  0  0  0  0  0  0
   10.0959    8.4694   -8.1650 N   0  0  0  0  0  0  0  0  0  0  0  0
    9.2222    9.3072   -8.6931 C   0  0  0  0  0  0  0  0  0  0  0  0
   13.3103    8.1952  -10.0340 N   0  0  0  0  0  0  0  0  0  0  0  0
   11.7540    9.7628  -11.0779 N   0  0  0  0  0  0  0  0  0  0  0  0
   10.9098    9.4381  -10.0558 C   0  0  0  0  0  0  0  0  0  0  0  0
   12.8066    7.0426   -8.0607 N   0  0  0  0  0  0  0  0  0  0  0  0
   12.5239    7.2690   -7.1452 H   0  0  0  0  0  0  0  0  0  0  0  0
   13.5223    5.8405   -8.1970 C   0  0  0  0  0  0  0  0  0  0  0  0
   13.5875    4.8997   -7.1719 C   0  0  0  0  0  0  0  0  0  0  0  0
   14.1114    5.5657   -9.4237 C   0  0  0  0  0  0  0  0  0  0  0  0
   14.8207    4.3876   -9.6053 C   0  0  0  0  0  0  0  0  0  0  0  0
   14.9188    3.4755   -8.5934 C   0  0  0  0  0  0  0  0  0  0  0  0
   14.3287    3.7738   -7.3909 C   0  0  0  0  0  0  0  0  0  0  0  0
   14.4660    2.6625   -6.0698 Cl  0  0  0  0  0  0  0  0  0  0  0  0
    9.1817   12.3789  -10.4581 C   0  0  0  0  0  0  0  0  0  0  0  0
    8.9281   10.9037  -10.6756 C   0  0  0  0  0  0  0  0  0  0  0  0
   13.8427    9.3355  -11.9664 N   0  0  0  0  0  0  0  0  0  0  0  0
   14.2193   10.2393  -12.0687 H   0  0  0  0  0  0  0  0  0  0  0  0
   15.4408    7.5029  -12.2320 C   0  0  0  0  0  0  0  0  0  0  0  0
   14.2779    8.2728  -12.8643 C   0  0  0  0  0  0  0  0  0  0  0  0
   15.8919    6.3839  -13.1779 C   0  0  0  0  0  0  0  0  0  0  0  0
   16.2371    6.9094  -14.5607 C   0  0  0  0  0  0  0  0  0  0  0  0
   15.0845    7.7147  -15.1598 C   0  0  0  0  0  0  0  0  0  0  0  0
   14.6448    8.8488  -14.2361 C   0  0  0  0  0  0  0  0  0  0  0  0
   15.7215    9.8931  -14.1518 N   0  0  0  0  0  0  0  0  0  0  0  0
   16.5733    9.4738  -13.7789 H   0  0  0  0  0  0  0  0  0  0  0  0
   15.4162   10.6473  -13.5367 H   0  0  0  0  0  0  0  0  0  0  0  0
  6  5  2  0  0  0
  6  4  1  0  0  0
 20  4  1  0  0  0
 20 19  1  0  0  0
  5  1  1  0  0  0
  4  9  1  0  0  0
  1  9  2  0  0  0
  1  2  1  0  0  0
  9  8  1  0  0  0
  8  3  2  0  0  0
  2 10  1  0  0  0
  2  7  2  0  0  0
 10 12  1  0  0  0
  3  7  1  0  0  0
  3 21  1  0  0  0
 12 14  2  0  0  0
 12 13  1  0  0  0
 14 15  1  0  0  0
 13 17  2  0  0  0
 21 24  1  0  0  0
 15 16  2  0  0  0
 17 16  1  0  0  0
 17 18  1  0  0  0
 24 28  1  0  0  0
 24 23  1  0  0  0
 29 28  1  0  0  0
 28 27  1  0  0  0
 23 25  1  0  0  0
 27 26  1  0  0  0
 25 26  1  0  0  0
 10 11  1  0  0  0
 21 22  1  0  0  0
 29 30  1  0  0  0
 29 31  1  0  0  0
M  END
> <minimizedAffinity>
-8.37817

$$$$
