3B66_B66_A_1


 32 33  0  0  0  0  0  0  0  0999 V2000
   28.4473    1.6672    3.4472 C   0  0  0  0  0  0  0  0  0  0  0  0
   27.5837    0.8675    3.0887 O   0  0  0  0  0  0  0  0  0  0  0  0
   27.2892    0.3460    3.8517 H   0  0  0  0  0  0  0  0  0  0  0  0
   29.5697    1.2487    4.3987 C   0  0  0  0  0  0  0  0  0  0  0  0
   30.7512    1.9853    4.0731 O   0  0  0  0  0  0  0  0  0  0  0  0
   29.8292   -0.2549    4.2837 C   0  0  0  0  0  0  0  0  0  0  0  0
   31.4690    1.7263    4.6719 H   0  0  0  0  0  0  0  0  0  0  0  0
   29.1453    1.5881    5.8179 C   0  0  0  0  0  0  0  0  0  0  0  0
   30.1660    1.1046    6.7060 O   0  0  0  0  0  0  0  0  0  0  0  0
   30.2814    0.0284    8.8141 C   0  0  0  0  0  0  0  0  0  0  0  0
   29.8676   -0.0910   10.1369 C   0  0  0  0  0  0  0  0  0  0  0  0
   28.9470    0.8093   10.6659 C   0  0  0  0  0  0  0  0  0  0  0  0
   28.4439    1.8301    9.8628 C   0  0  0  0  0  0  0  0  0  0  0  0
   28.8599    1.9496    8.5400 C   0  0  0  0  0  0  0  0  0  0  0  0
   29.7809    1.0494    8.0101 C   0  0  0  0  0  0  0  0  0  0  0  0
   28.5736    0.7146   11.9392 N   0  0  0  0  0  0  0  0  0  0  0  0
   29.4372    0.1179   12.8964 O   0  0  0  0  0  0  0  0  0  0  0  0
   27.3235    1.2446   12.3621 O   0  0  0  0  0  0  0  0  0  0  0  0
   28.4889    2.9546    3.1113 N   0  0  0  0  0  0  0  0  0  0  0  0
   29.3064    3.2699    2.6624 H   0  0  0  0  0  0  0  0  0  0  0  0
   27.5328    3.8587    3.3229 C   0  0  0  0  0  0  0  0  0  0  0  0
   26.1950    3.5285    3.5294 C   0  0  0  0  0  0  0  0  0  0  0  0
   27.9107    5.1961    3.3437 C   0  0  0  0  0  0  0  0  0  0  0  0
   26.9536    6.1782    3.5688 C   0  0  0  0  0  0  0  0  0  0  0  0
   25.6207    5.8346    3.7753 C   0  0  0  0  0  0  0  0  0  0  0  0
   25.2159    4.4968    3.7584 C   0  0  0  0  0  0  0  0  0  0  0  0
   23.7637    4.0547    4.0234 C   0  0  0  0  0  0  0  0  0  0  0  0
   23.4767    4.2029    5.3132 F   0  0  0  0  0  0  0  0  0  0  0  0
   22.8691    4.7425    3.3195 F   0  0  0  0  0  0  0  0  0  0  0  0
   23.5558    2.7774    3.7131 F   0  0  0  0  0  0  0  0  0  0  0  0
   24.7156    6.9192    4.0098 C   0  0  0  0  0  0  0  0  0  0  0  0
   24.0027    7.7852    4.2032 N   0  0  0  0  0  0  0  0  0  0  0  0
 10 11  2  0  0  0
 10 15  1  0  0  0
 11 12  1  0  0  0
 12 16  1  0  0  0
 12 13  2  0  0  0
 16 17  1  0  0  0
 16 18  2  0  0  0
 13 14  1  0  0  0
 14 15  2  0  0  0
 15  9  1  0  0  0
  9  8  1  0  0  0
  8  4  1  0  0  0
  4  5  1  0  0  0
  4  6  1  0  0  0
  4  1  1  0  0  0
  1  2  1  0  0  0
  1 19  1  0  0  0
 19 21  1  0  0  0
 21 22  2  0  0  0
 21 23  1  0  0  0
 22 26  1  0  0  0
 23 24  2  0  0  0
 24 25  1  0  0  0
 25 31  1  0  0  0
 25 26  2  0  0  0
 31 32  3  0  0  0
 26 27  1  0  0  0
 27 28  1  0  0  0
 27 29  1  0  0  0
 27 30  1  0  0  0
  5  7  1  0  0  0
  2  3  1  0  0  0
 19 20  1  0  0  0
M  CHG 1  16   1
M  CHG 1  17  -1
M  END
> <minimizedAffinity>
-11.13819

$$$$
3B66_B66_A_1


 32 33  0  0  0  0  0  0  0  0999 V2000
   29.7603    2.0262    4.2785 C   0  0  0  0  0  0  0  0  0  0  0  0
   30.5321    2.8887    4.6961 O   0  0  0  0  0  0  0  0  0  0  0  0
   31.4295    2.5236    4.7439 H   0  0  0  0  0  0  0  0  0  0  0  0
   29.8310    0.5852    4.7871 C   0  0  0  0  0  0  0  0  0  0  0  0
   31.2034    0.1963    4.8864 O   0  0  0  0  0  0  0  0  0  0  0  0
   29.0785   -0.3496    3.8376 C   0  0  0  0  0  0  0  0  0  0  0  0
   31.2582   -0.7170    5.2085 H   0  0  0  0  0  0  0  0  0  0  0  0
   29.1963    0.5330    6.1668 C   0  0  0  0  0  0  0  0  0  0  0  0
   30.2511    0.6400    7.1366 O   0  0  0  0  0  0  0  0  0  0  0  0
   30.2448   -0.2797    9.3206 C   0  0  0  0  0  0  0  0  0  0  0  0
   29.7748   -0.2872   10.6299 C   0  0  0  0  0  0  0  0  0  0  0  0
   28.8661    0.6790   11.0525 C   0  0  0  0  0  0  0  0  0  0  0  0
   28.4313    1.6529   10.1566 C   0  0  0  0  0  0  0  0  0  0  0  0
   28.9035    1.6603    8.8473 C   0  0  0  0  0  0  0  0  0  0  0  0
   29.8128    0.6942    8.4239 C   0  0  0  0  0  0  0  0  0  0  0  0
   28.4393    0.6912   12.3124 N   0  0  0  0  0  0  0  0  0  0  0  0
   29.2507    0.1565   13.3488 O   0  0  0  0  0  0  0  0  0  0  0  0
   27.1843    1.2746   12.6397 O   0  0  0  0  0  0  0  0  0  0  0  0
   28.8386    2.2117    3.3362 N   0  0  0  0  0  0  0  0  0  0  0  0
   29.0396    1.8523    2.4419 H   0  0  0  0  0  0  0  0  0  0  0  0
   27.6703    2.8359    3.4841 C   0  0  0  0  0  0  0  0  0  0  0  0
   27.5344    4.2226    3.4831 C   0  0  0  0  0  0  0  0  0  0  0  0
   26.5377    2.0451    3.6377 C   0  0  0  0  0  0  0  0  0  0  0  0
   25.2937    2.6464    3.7872 C   0  0  0  0  0  0  0  0  0  0  0  0
   25.1717    4.0329    3.7827 C   0  0  0  0  0  0  0  0  0  0  0  0
   26.2959    4.8495    3.6305 C   0  0  0  0  0  0  0  0  0  0  0  0
   26.2162    6.3874    3.5746 C   0  0  0  0  0  0  0  0  0  0  0  0
   27.4168    6.9087    3.8089 F   0  0  0  0  0  0  0  0  0  0  0  0
   25.7872    6.8483    2.4031 F   0  0  0  0  0  0  0  0  0  0  0  0
   25.3808    6.8870    4.4819 F   0  0  0  0  0  0  0  0  0  0  0  0
   23.8458    4.5529    3.9320 C   0  0  0  0  0  0  0  0  0  0  0  0
   22.7883    4.9566    4.0507 N   0  0  0  0  0  0  0  0  0  0  0  0
 10 11  2  0  0  0
 10 15  1  0  0  0
 11 12  1  0  0  0
 12 16  1  0  0  0
 12 13  2  0  0  0
 16 17  1  0  0  0
 16 18  2  0  0  0
 13 14  1  0  0  0
 14 15  2  0  0  0
 15  9  1  0  0  0
  9  8  1  0  0  0
  8  4  1  0  0  0
  4  5  1  0  0  0
  4  6  1  0  0  0
  4  1  1  0  0  0
  1  2  1  0  0  0
  1 19  1  0  0  0
 19 21  1  0  0  0
 21 22  2  0  0  0
 21 23  1  0  0  0
 22 26  1  0  0  0
 23 24  2  0  0  0
 24 25  1  0  0  0
 25 31  1  0  0  0
 25 26  2  0  0  0
 31 32  3  0  0  0
 26 27  1  0  0  0
 27 28  1  0  0  0
 27 29  1  0  0  0
 27 30  1  0  0  0
  5  7  1  0  0  0
  2  3  1  0  0  0
 19 20  1  0  0  0
M  CHG 1  16   1
M  CHG 1  17  -1
M  END
> <minimizedAffinity>
-10.42697

$$$$
3B66_B66_A_1


 32 33  0  0  0  0  0  0  0  0999 V2000
   30.2363    0.4721    5.0608 C   0  0  0  0  0  0  0  0  0  0  0  0
   31.1664   -0.3295    4.9817 O   0  0  0  0  0  0  0  0  0  0  0  0
   31.4405   -0.4163    4.0553 H   0  0  0  0  0  0  0  0  0  0  0  0
   29.0807    0.4475    4.0585 C   0  0  0  0  0  0  0  0  0  0  0  0
   27.9854   -0.2701    4.6327 O   0  0  0  0  0  0  0  0  0  0  0  0
   29.5260   -0.2134    2.7522 C   0  0  0  0  0  0  0  0  0  0  0  0
   27.2473   -0.2909    4.0037 H   0  0  0  0  0  0  0  0  0  0  0  0
   28.6518    1.8799    3.7875 C   0  0  0  0  0  0  0  0  0  0  0  0
   27.4760    2.1390    4.5715 O   0  0  0  0  0  0  0  0  0  0  0  0
   25.5881    3.5650    4.7060 C   0  0  0  0  0  0  0  0  0  0  0  0
   24.9656    4.7787    4.4329 C   0  0  0  0  0  0  0  0  0  0  0  0
   25.6650    5.7939    3.7861 C   0  0  0  0  0  0  0  0  0  0  0  0
   26.9915    5.5866    3.4151 C   0  0  0  0  0  0  0  0  0  0  0  0
   27.6138    4.3725    3.6903 C   0  0  0  0  0  0  0  0  0  0  0  0
   26.9148    3.3565    4.3375 C   0  0  0  0  0  0  0  0  0  0  0  0
   25.0804    6.9655    3.5516 N   0  0  0  0  0  0  0  0  0  0  0  0
   25.3727    7.6868    2.3631 O   0  0  0  0  0  0  0  0  0  0  0  0
   24.1280    7.4890    4.4689 O   0  0  0  0  0  0  0  0  0  0  0  0
   30.1418    1.4531    5.9555 N   0  0  0  0  0  0  0  0  0  0  0  0
   30.4120    2.3521    5.6586 H   0  0  0  0  0  0  0  0  0  0  0  0
   29.7174    1.3383    7.2137 C   0  0  0  0  0  0  0  0  0  0  0  0
   30.0362    0.2602    8.0368 C   0  0  0  0  0  0  0  0  0  0  0  0
   28.9232    2.3620    7.7166 C   0  0  0  0  0  0  0  0  0  0  0  0
   28.4613    2.2949    9.0256 C   0  0  0  0  0  0  0  0  0  0  0  0
   28.7885    1.2130    9.8379 C   0  0  0  0  0  0  0  0  0  0  0  0
   29.5853    0.1710    9.3549 C   0  0  0  0  0  0  0  0  0  0  0  0
   30.0149   -1.0293   10.2207 C   0  0  0  0  0  0  0  0  0  0  0  0
   30.9718   -0.6553   11.0647 F   0  0  0  0  0  0  0  0  0  0  0  0
   29.0171   -1.5477   10.9310 F   0  0  0  0  0  0  0  0  0  0  0  0
   30.4953   -2.0351    9.4938 F   0  0  0  0  0  0  0  0  0  0  0  0
   28.2728    1.2443   11.1735 C   0  0  0  0  0  0  0  0  0  0  0  0
   27.8585    1.2784   12.2330 N   0  0  0  0  0  0  0  0  0  0  0  0
 10 11  2  0  0  0
 10 15  1  0  0  0
 11 12  1  0  0  0
 12 16  1  0  0  0
 12 13  2  0  0  0
 16 17  1  0  0  0
 16 18  2  0  0  0
 13 14  1  0  0  0
 14 15  2  0  0  0
 15  9  1  0  0  0
  9  8  1  0  0  0
  8  4  1  0  0  0
  4  5  1  0  0  0
  4  6  1  0  0  0
  4  1  1  0  0  0
  1  2  1  0  0  0
  1 19  1  0  0  0
 19 21  1  0  0  0
 21 22  2  0  0  0
 21 23  1  0  0  0
 22 26  1  0  0  0
 23 24  2  0  0  0
 24 25  1  0  0  0
 25 31  1  0  0  0
 25 26  2  0  0  0
 31 32  3  0  0  0
 26 27  1  0  0  0
 27 28  1  0  0  0
 27 29  1  0  0  0
 27 30  1  0  0  0
  5  7  1  0  0  0
  2  3  1  0  0  0
 19 20  1  0  0  0
M  CHG 1  16   1
M  CHG 1  17  -1
M  END
> <minimizedAffinity>
-9.39877

$$$$
3B66_B66_A_1


 32 33  0  0  0  0  0  0  0  0999 V2000
   29.6215    0.6614    5.1332 C   0  0  0  0  0  0  0  0  0  0  0  0
   29.1725   -0.4835    5.0936 O   0  0  0  0  0  0  0  0  0  0  0  0
   29.4747   -0.9215    4.2825 H   0  0  0  0  0  0  0  0  0  0  0  0
   29.6212    1.5567    3.8927 C   0  0  0  0  0  0  0  0  0  0  0  0
   30.6557    1.1208    3.0072 O   0  0  0  0  0  0  0  0  0  0  0  0
   29.8412    3.0172    4.2931 C   0  0  0  0  0  0  0  0  0  0  0  0
   30.6632    1.6833    2.2170 H   0  0  0  0  0  0  0  0  0  0  0  0
   28.2769    1.4128    3.1990 C   0  0  0  0  0  0  0  0  0  0  0  0
   27.2701    1.2989    4.2178 O   0  0  0  0  0  0  0  0  0  0  0  0
   26.6204    3.5741    4.3466 C   0  0  0  0  0  0  0  0  0  0  0  0
   25.6345    4.5552    4.3199 C   0  0  0  0  0  0  0  0  0  0  0  0
   24.3080    4.2076    4.0797 C   0  0  0  0  0  0  0  0  0  0  0  0
   23.9749    2.8722    3.8659 C   0  0  0  0  0  0  0  0  0  0  0  0
   24.9624    1.8917    3.8912 C   0  0  0  0  0  0  0  0  0  0  0  0
   26.2897    2.2387    4.1313 C   0  0  0  0  0  0  0  0  0  0  0  0
   23.3690    5.1483    4.0237 N   0  0  0  0  0  0  0  0  0  0  0  0
   21.9957    4.7876    3.9764 O   0  0  0  0  0  0  0  0  0  0  0  0
   23.7284    6.5240    4.0501 O   0  0  0  0  0  0  0  0  0  0  0  0
   30.1868    1.2283    6.1966 N   0  0  0  0  0  0  0  0  0  0  0  0
   31.0132    1.7399    6.0400 H   0  0  0  0  0  0  0  0  0  0  0  0
   29.7441    1.1715    7.4525 C   0  0  0  0  0  0  0  0  0  0  0  0
   30.0944    0.1612    8.3458 C   0  0  0  0  0  0  0  0  0  0  0  0
   28.8961    2.1871    7.8782 C   0  0  0  0  0  0  0  0  0  0  0  0
   28.4130    2.1793    9.1812 C   0  0  0  0  0  0  0  0  0  0  0  0
   28.7721    1.1649   10.0641 C   0  0  0  0  0  0  0  0  0  0  0  0
   29.6230    0.1324    9.6594 C   0  0  0  0  0  0  0  0  0  0  0  0
   30.0886   -0.9921   10.6046 C   0  0  0  0  0  0  0  0  0  0  0  0
   30.4151   -2.0688    9.8960 F   0  0  0  0  0  0  0  0  0  0  0  0
   31.1385   -0.6523   11.3471 F   0  0  0  0  0  0  0  0  0  0  0  0
   29.1435   -1.3549   11.4683 F   0  0  0  0  0  0  0  0  0  0  0  0
   28.2303    1.2545   11.3866 C   0  0  0  0  0  0  0  0  0  0  0  0
   27.8077    1.3316   12.4406 N   0  0  0  0  0  0  0  0  0  0  0  0
 10 11  2  0  0  0
 10 15  1  0  0  0
 11 12  1  0  0  0
 12 16  1  0  0  0
 12 13  2  0  0  0
 16 17  1  0  0  0
 16 18  2  0  0  0
 13 14  1  0  0  0
 14 15  2  0  0  0
 15  9  1  0  0  0
  9  8  1  0  0  0
  8  4  1  0  0  0
  4  5  1  0  0  0
  4  6  1  0  0  0
  4  1  1  0  0  0
  1  2  1  0  0  0
  1 19  1  0  0  0
 19 21  1  0  0  0
 21 22  2  0  0  0
 21 23  1  0  0  0
 22 26  1  0  0  0
 23 24  2  0  0  0
 24 25  1  0  0  0
 25 31  1  0  0  0
 25 26  2  0  0  0
 31 32  3  0  0  0
 26 27  1  0  0  0
 27 28  1  0  0  0
 27 29  1  0  0  0
 27 30  1  0  0  0
  5  7  1  0  0  0
  2  3  1  0  0  0
 19 20  1  0  0  0
M  CHG 1  16   1
M  CHG 1  17  -1
M  END
> <minimizedAffinity>
-8.46323

$$$$
