3KMY_D8Y_A_501


 18 19  0  0  0  0  0  0  0  0999 V2000
   21.2081   12.6573   25.2990 C   0  0  0  0  0  0  0  0  0  0  0  0
   21.8015   11.4435   25.4004 N   0  0  0  0  0  0  0  0  0  0  0  0
   22.0724   10.6683   24.3110 C   0  0  0  0  0  0  0  0  0  0  0  0
   22.6565    9.4576   24.4938 N   0  0  0  0  0  0  0  0  0  0  0  0
   21.7470   11.1052   23.0110 C   0  0  0  0  0  0  0  0  0  0  0  0
   21.1238   12.3721   22.8786 C   0  0  0  0  0  0  0  0  0  0  0  0
   20.8470   13.1639   24.0239 C   0  0  0  0  0  0  0  0  0  0  0  0
   22.8836    9.1527   25.4019 H   0  0  0  0  0  0  0  0  0  0  0  0
   22.8532    8.8838   23.7183 H   0  0  0  0  0  0  0  0  0  0  0  0
   22.0516   10.2655   21.7756 C   0  0  0  0  0  0  0  0  0  0  0  0
   21.4190   10.8760   20.4797 C   0  0  0  0  0  0  0  0  0  0  0  0
   26.2596   11.5398   18.3928 Cl  0  0  0  0  0  0  0  0  0  0  0  0
   22.4111   11.7350   19.7000 C   0  0  0  0  0  0  0  0  0  0  0  0
   21.9911   12.9992   19.1944 C   0  0  0  0  0  0  0  0  0  0  0  0
   22.8937   13.8076   18.4450 C   0  0  0  0  0  0  0  0  0  0  0  0
   24.2208   13.3538   18.2003 C   0  0  0  0  0  0  0  0  0  0  0  0
   24.6471   12.0919   18.7058 C   0  0  0  0  0  0  0  0  0  0  0  0
   23.7441   11.2823   19.4591 C   0  0  0  0  0  0  0  0  0  0  0  0
  7  1  2  0  0  0
  2  1  1  0  0  0
  3  2  2  0  0  0
 12 17  1  0  0  0
  5  3  1  0  0  0
  4  3  1  0  0  0
 10  5  1  0  0  0
  5  6  2  0  0  0
  6  7  1  0  0  0
 11 10  1  0  0  0
 13 11  1  0  0  0
 18 13  2  0  0  0
 13 14  1  0  0  0
 15 14  2  0  0  0
 16 15  1  0  0  0
 17 16  2  0  0  0
 17 18  1  0  0  0
  4  8  1  0  0  0
  4  9  1  0  0  0
M  END
> <minimizedAffinity>
-7.32031

$$$$
3KMY_D8Y_A_501


 18 19  0  0  0  0  0  0  0  0999 V2000
   22.2579   12.9685   25.3076 C   0  0  0  0  0  0  0  0  0  0  0  0
   22.5880   11.6550   25.3469 N   0  0  0  0  0  0  0  0  0  0  0  0
   22.1990   10.7737   24.3808 C   0  0  0  0  0  0  0  0  0  0  0  0
   22.5571    9.4703   24.4965 N   0  0  0  0  0  0  0  0  0  0  0  0
   21.4294   11.1986   23.2790 C   0  0  0  0  0  0  0  0  0  0  0  0
   21.0700   12.5689   23.2157 C   0  0  0  0  0  0  0  0  0  0  0  0
   21.4814   13.4709   24.2318 C   0  0  0  0  0  0  0  0  0  0  0  0
   23.0946    9.1740   25.2662 H   0  0  0  0  0  0  0  0  0  0  0  0
   22.2794    8.8208   23.8107 H   0  0  0  0  0  0  0  0  0  0  0  0
   20.9937   10.2380   22.1783 C   0  0  0  0  0  0  0  0  0  0  0  0
   22.1729    9.8761   21.2136 C   0  0  0  0  0  0  0  0  0  0  0  0
   21.3397   14.0028   17.9728 Cl  0  0  0  0  0  0  0  0  0  0  0  0
   22.7091   11.0969   20.4705 C   0  0  0  0  0  0  0  0  0  0  0  0
   24.0773   11.4626   20.6273 C   0  0  0  0  0  0  0  0  0  0  0  0
   24.5935   12.6111   19.9606 C   0  0  0  0  0  0  0  0  0  0  0  0
   23.7419   13.3969   19.1333 C   0  0  0  0  0  0  0  0  0  0  0  0
   22.3738   13.0343   18.9706 C   0  0  0  0  0  0  0  0  0  0  0  0
   21.8563   11.8821   19.6363 C   0  0  0  0  0  0  0  0  0  0  0  0
  7  1  2  0  0  0
  2  1  1  0  0  0
  3  2  2  0  0  0
 12 17  1  0  0  0
  5  3  1  0  0  0
  4  3  1  0  0  0
 10  5  1  0  0  0
  5  6  2  0  0  0
  6  7  1  0  0  0
 11 10  1  0  0  0
 13 11  1  0  0  0
 18 13  2  0  0  0
 13 14  1  0  0  0
 15 14  2  0  0  0
 16 15  1  0  0  0
 17 16  2  0  0  0
 17 18  1  0  0  0
  4  8  1  0  0  0
  4  9  1  0  0  0
M  END
> <minimizedAffinity>
-7.00924

$$$$
3KMY_D8Y_A_501


 18 19  0  0  0  0  0  0  0  0999 V2000
   21.4978    9.7989   24.6822 C   0  0  0  0  0  0  0  0  0  0  0  0
   22.6195   10.5366   24.8650 N   0  0  0  0  0  0  0  0  0  0  0  0
   22.9094   11.6289   24.1008 C   0  0  0  0  0  0  0  0  0  0  0  0
   24.0594   12.3094   24.3352 N   0  0  0  0  0  0  0  0  0  0  0  0
   22.0384   12.0481   23.0750 C   0  0  0  0  0  0  0  0  0  0  0  0
   20.8580   11.2915   22.8629 C   0  0  0  0  0  0  0  0  0  0  0  0
   20.5742   10.1560   23.6662 C   0  0  0  0  0  0  0  0  0  0  0  0
   24.6675   12.0163   25.0518 H   0  0  0  0  0  0  0  0  0  0  0  0
   24.2858   13.0963   23.7886 H   0  0  0  0  0  0  0  0  0  0  0  0
   22.3310   13.2731   22.2160 C   0  0  0  0  0  0  0  0  0  0  0  0
   21.9626   13.0378   20.7123 C   0  0  0  0  0  0  0  0  0  0  0  0
   26.4164   13.9809   17.9734 Cl  0  0  0  0  0  0  0  0  0  0  0  0
   23.1456   12.5162   19.9008 C   0  0  0  0  0  0  0  0  0  0  0  0
   23.2886   11.1128   19.7006 C   0  0  0  0  0  0  0  0  0  0  0  0
   24.3970   10.6025   18.9652 C   0  0  0  0  0  0  0  0  0  0  0  0
   25.3658   11.4958   18.4262 C   0  0  0  0  0  0  0  0  0  0  0  0
   25.2264   12.9002   18.6208 C   0  0  0  0  0  0  0  0  0  0  0  0
   24.1146   13.4126   19.3554 C   0  0  0  0  0  0  0  0  0  0  0  0
  7  1  2  0  0  0
  2  1  1  0  0  0
  3  2  2  0  0  0
 12 17  1  0  0  0
  5  3  1  0  0  0
  4  3  1  0  0  0
 10  5  1  0  0  0
  5  6  2  0  0  0
  6  7  1  0  0  0
 11 10  1  0  0  0
 13 11  1  0  0  0
 18 13  2  0  0  0
 13 14  1  0  0  0
 15 14  2  0  0  0
 16 15  1  0  0  0
 17 16  2  0  0  0
 17 18  1  0  0  0
  4  8  1  0  0  0
  4  9  1  0  0  0
M  END
> <minimizedAffinity>
-6.90066

$$$$
3KMY_D8Y_A_501


 18 19  0  0  0  0  0  0  0  0999 V2000
   20.7693   12.3489   24.2908 C   0  0  0  0  0  0  0  0  0  0  0  0
   20.5005   11.1136   23.8035 N   0  0  0  0  0  0  0  0  0  0  0  0
   20.7555   10.7662   22.5091 C   0  0  0  0  0  0  0  0  0  0  0  0
   20.4460    9.5133   22.0909 N   0  0  0  0  0  0  0  0  0  0  0  0
   21.3239   11.6900   21.6090 C   0  0  0  0  0  0  0  0  0  0  0  0
   21.6133   12.9904   22.0947 C   0  0  0  0  0  0  0  0  0  0  0  0
   21.3385   13.3348   23.4442 C   0  0  0  0  0  0  0  0  0  0  0  0
   20.0490    8.8684   22.7199 H   0  0  0  0  0  0  0  0  0  0  0  0
   20.6185    9.2490   21.1583 H   0  0  0  0  0  0  0  0  0  0  0  0
   21.6324   11.3238   20.1616 C   0  0  0  0  0  0  0  0  0  0  0  0
   22.2126   12.5370   19.3595 C   0  0  0  0  0  0  0  0  0  0  0  0
   26.8728   14.6205   17.8869 Cl  0  0  0  0  0  0  0  0  0  0  0  0
   23.6889   12.3530   19.0177 C   0  0  0  0  0  0  0  0  0  0  0  0
   24.2671   11.0536   19.1035 C   0  0  0  0  0  0  0  0  0  0  0  0
   25.6483   10.8625   18.8105 C   0  0  0  0  0  0  0  0  0  0  0  0
   26.4552   11.9717   18.4290 C   0  0  0  0  0  0  0  0  0  0  0  0
   25.8818   13.2727   18.3388 C   0  0  0  0  0  0  0  0  0  0  0  0
   24.4972   13.4647   18.6298 C   0  0  0  0  0  0  0  0  0  0  0  0
  7  1  2  0  0  0
  2  1  1  0  0  0
  3  2  2  0  0  0
 12 17  1  0  0  0
  5  3  1  0  0  0
  4  3  1  0  0  0
 10  5  1  0  0  0
  5  6  2  0  0  0
  6  7  1  0  0  0
 11 10  1  0  0  0
 13 11  1  0  0  0
 18 13  2  0  0  0
 13 14  1  0  0  0
 15 14  2  0  0  0
 16 15  1  0  0  0
 17 16  2  0  0  0
 17 18  1  0  0  0
  4  8  1  0  0  0
  4  9  1  0  0  0
M  END
> <minimizedAffinity>
-6.87633

$$$$
3KMY_D8Y_A_501


 18 19  0  0  0  0  0  0  0  0999 V2000
   26.2874   12.4995   18.3829 C   0  0  0  0  0  0  0  0  0  0  0  0
   25.7510   13.7435   18.4022 N   0  0  0  0  0  0  0  0  0  0  0  0
   24.4541   13.9756   18.7563 C   0  0  0  0  0  0  0  0  0  0  0  0
   23.9848   15.2484   18.7383 N   0  0  0  0  0  0  0  0  0  0  0  0
   23.6032   12.9154   19.1288 C   0  0  0  0  0  0  0  0  0  0  0  0
   24.1409   11.6033   19.1153 C   0  0  0  0  0  0  0  0  0  0  0  0
   25.4922   11.3806   18.7413 C   0  0  0  0  0  0  0  0  0  0  0  0
   24.5794   15.9886   18.4780 H   0  0  0  0  0  0  0  0  0  0  0  0
   23.0496   15.4317   18.9855 H   0  0  0  0  0  0  0  0  0  0  0  0
   22.1545   13.1482   19.5426 C   0  0  0  0  0  0  0  0  0  0  0  0
   22.0400   13.6612   21.0176 C   0  0  0  0  0  0  0  0  0  0  0  0
   19.9024   12.3663   25.7060 Cl  0  0  0  0  0  0  0  0  0  0  0  0
   21.4632   12.6041   21.9556 C   0  0  0  0  0  0  0  0  0  0  0  0
   21.3537   11.2571   21.5041 C   0  0  0  0  0  0  0  0  0  0  0  0
   20.7979   10.2585   22.3548 C   0  0  0  0  0  0  0  0  0  0  0  0
   20.3510   10.6047   23.6615 C   0  0  0  0  0  0  0  0  0  0  0  0
   20.4606   11.9493   24.1194 C   0  0  0  0  0  0  0  0  0  0  0  0
   21.0198   12.9502   23.2685 C   0  0  0  0  0  0  0  0  0  0  0  0
  7  1  2  0  0  0
  2  1  1  0  0  0
  3  2  2  0  0  0
 12 17  1  0  0  0
  5  3  1  0  0  0
  4  3  1  0  0  0
 10  5  1  0  0  0
  5  6  2  0  0  0
  6  7  1  0  0  0
 11 10  1  0  0  0
 13 11  1  0  0  0
 18 13  2  0  0  0
 13 14  1  0  0  0
 15 14  2  0  0  0
 16 15  1  0  0  0
 17 16  2  0  0  0
 17 18  1  0  0  0
  4  8  1  0  0  0
  4  9  1  0  0  0
M  END
> <minimizedAffinity>
-6.75493

$$$$
3KMY_D8Y_A_501


 18 19  0  0  0  0  0  0  0  0999 V2000
   26.9518   11.2036   19.9330 C   0  0  0  0  0  0  0  0  0  0  0  0
   26.7542   12.2653   20.7513 N   0  0  0  0  0  0  0  0  0  0  0  0
   25.8268   13.2302   20.4868 C   0  0  0  0  0  0  0  0  0  0  0  0
   25.6964   14.2710   21.3471 N   0  0  0  0  0  0  0  0  0  0  0  0
   25.0166   13.1612   19.3354 C   0  0  0  0  0  0  0  0  0  0  0  0
   25.2053   12.0598   18.4622 C   0  0  0  0  0  0  0  0  0  0  0  0
   26.1772   11.0667   18.7523 C   0  0  0  0  0  0  0  0  0  0  0  0
   26.2625   14.3189   22.1511 H   0  0  0  0  0  0  0  0  0  0  0  0
   25.0358   14.9785   21.1673 H   0  0  0  0  0  0  0  0  0  0  0  0
   23.9630   14.2179   19.0233 C   0  0  0  0  0  0  0  0  0  0  0  0
   22.5445   13.5889   18.8126 C   0  0  0  0  0  0  0  0  0  0  0  0
   21.0657   13.5592   23.9155 Cl  0  0  0  0  0  0  0  0  0  0  0  0
   22.0634   12.8201   20.0404 C   0  0  0  0  0  0  0  0  0  0  0  0
   21.8243   11.4193   19.9358 C   0  0  0  0  0  0  0  0  0  0  0  0
   21.3539   10.6859   21.0630 C   0  0  0  0  0  0  0  0  0  0  0  0
   21.1223   11.3523   22.2998 C   0  0  0  0  0  0  0  0  0  0  0  0
   21.3623   12.7521   22.4109 C   0  0  0  0  0  0  0  0  0  0  0  0
   21.8363   13.4874   21.2826 C   0  0  0  0  0  0  0  0  0  0  0  0
  7  1  2  0  0  0
  2  1  1  0  0  0
  3  2  2  0  0  0
 12 17  1  0  0  0
  5  3  1  0  0  0
  4  3  1  0  0  0
 10  5  1  0  0  0
  5  6  2  0  0  0
  6  7  1  0  0  0
 11 10  1  0  0  0
 13 11  1  0  0  0
 18 13  2  0  0  0
 13 14  1  0  0  0
 15 14  2  0  0  0
 16 15  1  0  0  0
 17 16  2  0  0  0
 17 18  1  0  0  0
  4  8  1  0  0  0
  4  9  1  0  0  0
M  END
> <minimizedAffinity>
-6.67553

$$$$
3KMY_D8Y_A_501


 18 19  0  0  0  0  0  0  0  0999 V2000
   21.2517   12.9921   27.1067 C   0  0  0  0  0  0  0  0  0  0  0  0
   22.2309   12.2600   26.5228 N   0  0  0  0  0  0  0  0  0  0  0  0
   22.1619   11.8499   25.2235 C   0  0  0  0  0  0  0  0  0  0  0  0
   23.1762   11.1076   24.7131 N   0  0  0  0  0  0  0  0  0  0  0  0
   21.0540   12.1796   24.4169 C   0  0  0  0  0  0  0  0  0  0  0  0
   20.0149   12.9443   25.0055 C   0  0  0  0  0  0  0  0  0  0  0  0
   20.1027   13.3599   26.3601 C   0  0  0  0  0  0  0  0  0  0  0  0
   23.9498   10.8775   25.2768 H   0  0  0  0  0  0  0  0  0  0  0  0
   23.1386   10.7990   23.7789 H   0  0  0  0  0  0  0  0  0  0  0  0
   20.9581   11.7466   22.9584 C   0  0  0  0  0  0  0  0  0  0  0  0
   21.5387   12.8273   21.9852 C   0  0  0  0  0  0  0  0  0  0  0  0
   25.1071   13.4843   18.1043 Cl  0  0  0  0  0  0  0  0  0  0  0  0
   22.4818   12.2252   20.9469 C   0  0  0  0  0  0  0  0  0  0  0  0
   22.5989   10.8085   20.8504 C   0  0  0  0  0  0  0  0  0  0  0  0
   23.4895   10.2253   19.9036 C   0  0  0  0  0  0  0  0  0  0  0  0
   24.2652   11.0587   19.0487 C   0  0  0  0  0  0  0  0  0  0  0  0
   24.1501   12.4758   19.1387 C   0  0  0  0  0  0  0  0  0  0  0  0
   23.2559   13.0610   20.0855 C   0  0  0  0  0  0  0  0  0  0  0  0
  7  1  2  0  0  0
  2  1  1  0  0  0
  3  2  2  0  0  0
 12 17  1  0  0  0
  5  3  1  0  0  0
  4  3  1  0  0  0
 10  5  1  0  0  0
  5  6  2  0  0  0
  6  7  1  0  0  0
 11 10  1  0  0  0
 13 11  1  0  0  0
 18 13  2  0  0  0
 13 14  1  0  0  0
 15 14  2  0  0  0
 16 15  1  0  0  0
 17 16  2  0  0  0
 17 18  1  0  0  0
  4  8  1  0  0  0
  4  9  1  0  0  0
M  END
> <minimizedAffinity>
-6.51888

$$$$
3KMY_D8Y_A_501


 18 19  0  0  0  0  0  0  0  0999 V2000
   19.8810   11.8759   28.8603 C   0  0  0  0  0  0  0  0  0  0  0  0
   21.1208   12.4192   28.9199 N   0  0  0  0  0  0  0  0  0  0  0  0
   21.7681   12.8879   27.8142 C   0  0  0  0  0  0  0  0  0  0  0  0
   23.0143   13.4061   27.9516 N   0  0  0  0  0  0  0  0  0  0  0  0
   21.1640   12.8318   26.5420 C   0  0  0  0  0  0  0  0  0  0  0  0
   19.8666   12.2661   26.4532 C   0  0  0  0  0  0  0  0  0  0  0  0
   19.2095   11.7809   27.6142 C   0  0  0  0  0  0  0  0  0  0  0  0
   23.4359   13.4451   28.8404 H   0  0  0  0  0  0  0  0  0  0  0  0
   23.4970   13.7432   27.1626 H   0  0  0  0  0  0  0  0  0  0  0  0
   21.8589   13.3613   25.2926 C   0  0  0  0  0  0  0  0  0  0  0  0
   20.8509   13.6097   24.1203 C   0  0  0  0  0  0  0  0  0  0  0  0
   22.7362   13.0307   19.1870 Cl  0  0  0  0  0  0  0  0  0  0  0  0
   21.1337   12.7178   22.9142 C   0  0  0  0  0  0  0  0  0  0  0  0
   20.8165   11.3304   22.9840 C   0  0  0  0  0  0  0  0  0  0  0  0
   21.0923   10.4753   21.8783 C   0  0  0  0  0  0  0  0  0  0  0  0
   21.6855   11.0065   20.6980 C   0  0  0  0  0  0  0  0  0  0  0  0
   22.0021   12.3934   20.6216 C   0  0  0  0  0  0  0  0  0  0  0  0
   21.7237   13.2515   21.7282 C   0  0  0  0  0  0  0  0  0  0  0  0
  7  1  2  0  0  0
  2  1  1  0  0  0
  3  2  2  0  0  0
 12 17  1  0  0  0
  5  3  1  0  0  0
  4  3  1  0  0  0
 10  5  1  0  0  0
  5  6  2  0  0  0
  6  7  1  0  0  0
 11 10  1  0  0  0
 13 11  1  0  0  0
 18 13  2  0  0  0
 13 14  1  0  0  0
 15 14  2  0  0  0
 16 15  1  0  0  0
 17 16  2  0  0  0
 17 18  1  0  0  0
  4  8  1  0  0  0
  4  9  1  0  0  0
M  END
> <minimizedAffinity>
-6.44707

$$$$
3KMY_D8Y_A_501


 18 19  0  0  0  0  0  0  0  0999 V2000
   26.7705   14.9047   18.5380 C   0  0  0  0  0  0  0  0  0  0  0  0
   26.4565   13.6497   18.1351 N   0  0  0  0  0  0  0  0  0  0  0  0
   25.2128   13.1159   18.3066 C   0  0  0  0  0  0  0  0  0  0  0  0
   24.9783   11.8466   17.8891 N   0  0  0  0  0  0  0  0  0  0  0  0
   24.1819   13.8601   18.9149 C   0  0  0  0  0  0  0  0  0  0  0  0
   24.4859   15.1762   19.3465 C   0  0  0  0  0  0  0  0  0  0  0  0
   25.7867   15.7141   19.1622 C   0  0  0  0  0  0  0  0  0  0  0  0
   25.6987   11.3271   17.4642 H   0  0  0  0  0  0  0  0  0  0  0  0
   24.0877   11.4450   18.0109 H   0  0  0  0  0  0  0  0  0  0  0  0
   22.7796   13.2932   19.1058 C   0  0  0  0  0  0  0  0  0  0  0  0
   22.1582   13.7132   20.4804 C   0  0  0  0  0  0  0  0  0  0  0  0
   20.1287   11.7165   24.9660 Cl  0  0  0  0  0  0  0  0  0  0  0  0
   21.6531   12.5140   21.2785 C   0  0  0  0  0  0  0  0  0  0  0  0
   21.6256   11.2291   20.6632 C   0  0  0  0  0  0  0  0  0  0  0  0
   21.1374   10.1001   21.3820 C   0  0  0  0  0  0  0  0  0  0  0  0
   20.6762   10.2531   22.7203 C   0  0  0  0  0  0  0  0  0  0  0  0
   20.7040   11.5349   23.3415 C   0  0  0  0  0  0  0  0  0  0  0  0
   21.1955   12.6664   22.6228 C   0  0  0  0  0  0  0  0  0  0  0  0
  7  1  2  0  0  0
  2  1  1  0  0  0
  3  2  2  0  0  0
 12 17  1  0  0  0
  5  3  1  0  0  0
  4  3  1  0  0  0
 10  5  1  0  0  0
  5  6  2  0  0  0
  6  7  1  0  0  0
 11 10  1  0  0  0
 13 11  1  0  0  0
 18 13  2  0  0  0
 13 14  1  0  0  0
 15 14  2  0  0  0
 16 15  1  0  0  0
 17 16  2  0  0  0
 17 18  1  0  0  0
  4  8  1  0  0  0
  4  9  1  0  0  0
M  END
> <minimizedAffinity>
-6.33831

$$$$
3KMY_D8Y_A_501


 18 19  0  0  0  0  0  0  0  0999 V2000
   23.7085   10.1041   20.0943 C   0  0  0  0  0  0  0  0  0  0  0  0
   23.7039    9.7317   21.3970 N   0  0  0  0  0  0  0  0  0  0  0  0
   22.8362   10.2620   22.3064 C   0  0  0  0  0  0  0  0  0  0  0  0
   22.9014    9.8485   23.5968 N   0  0  0  0  0  0  0  0  0  0  0  0
   21.8876   11.2317   21.9236 C   0  0  0  0  0  0  0  0  0  0  0  0
   21.8733   11.6391   20.5654 C   0  0  0  0  0  0  0  0  0  0  0  0
   22.7858   11.0783   19.6338 C   0  0  0  0  0  0  0  0  0  0  0  0
   23.5641    9.1712   23.8638 H   0  0  0  0  0  0  0  0  0  0  0  0
   22.2860   10.2258   24.2663 H   0  0  0  0  0  0  0  0  0  0  0  0
   20.8970   11.8300   22.9161 C   0  0  0  0  0  0  0  0  0  0  0  0
   21.3034   13.2783   23.3511 C   0  0  0  0  0  0  0  0  0  0  0  0
   22.2238   12.7838   28.5603 Cl  0  0  0  0  0  0  0  0  0  0  0  0
   20.9076   13.5826   24.7936 C   0  0  0  0  0  0  0  0  0  0  0  0
   19.7710   14.4041   25.0458 C   0  0  0  0  0  0  0  0  0  0  0  0
   19.3965   14.7191   26.3838 C   0  0  0  0  0  0  0  0  0  0  0  0
   20.1580   14.2115   27.4745 C   0  0  0  0  0  0  0  0  0  0  0  0
   21.2937   13.3873   27.2284 C   0  0  0  0  0  0  0  0  0  0  0  0
   21.6681   13.0690   25.8880 C   0  0  0  0  0  0  0  0  0  0  0  0
  7  1  2  0  0  0
  2  1  1  0  0  0
  3  2  2  0  0  0
 12 17  1  0  0  0
  5  3  1  0  0  0
  4  3  1  0  0  0
 10  5  1  0  0  0
  5  6  2  0  0  0
  6  7  1  0  0  0
 11 10  1  0  0  0
 13 11  1  0  0  0
 18 13  2  0  0  0
 13 14  1  0  0  0
 15 14  2  0  0  0
 16 15  1  0  0  0
 17 16  2  0  0  0
 17 18  1  0  0  0
  4  8  1  0  0  0
  4  9  1  0  0  0
M  END
> <minimizedAffinity>
-6.32374

$$$$
