3AGL_A03_A_351


 82 84  0  0  0  0  0  0  0  0999 V2000
  -15.3963    7.8530   16.3030 C   0  0  0  0  0  0  0  0  0  0  0  0
  -14.6854    7.5576   14.9903 C   0  0  0  0  0  0  0  0  0  0  0  0
  -13.4618    8.9473   13.3904 C   0  0  0  0  0  0  0  0  0  0  0  0
  -13.7720    8.2384   12.4338 O   0  0  0  0  0  0  0  0  0  0  0  0
  -13.8518    8.7154   14.6405 N   0  0  0  0  0  0  0  0  0  0  0  0
  -13.5740    9.3372   15.3515 H   0  0  0  0  0  0  0  0  0  0  0  0
  -12.6290   10.2242   13.1753 C   0  0  0  0  0  0  0  0  0  0  0  0
  -11.1888    9.8684   12.7439 C   0  0  0  0  0  0  0  0  0  0  0  0
  -14.0251   12.1439   12.5844 C   0  0  0  0  0  0  0  0  0  0  0  0
  -14.2614   12.4417   13.7518 O   0  0  0  0  0  0  0  0  0  0  0  0
  -13.2699   11.1014   12.2050 N   0  0  0  0  0  0  0  0  0  0  0  0
  -13.1456   10.9247   11.2445 H   0  0  0  0  0  0  0  0  0  0  0  0
  -14.6091   12.9825   11.4425 C   0  0  0  0  0  0  0  0  0  0  0  0
  -14.4401   12.3007   10.0806 C   0  0  0  0  0  0  0  0  0  0  0  0
  -15.6211   11.3601    9.8326 C   0  0  0  0  0  0  0  0  0  0  0  0
  -15.7406   10.8851    8.3875 C   0  0  0  0  0  0  0  0  0  0  0  0
  -15.6974    9.3523    8.4210 C   0  0  0  0  0  0  0  0  0  0  0  0
  -16.5215    6.6428    8.4715 O   0  0  0  0  0  0  0  0  0  0  0  0
  -17.2516    7.4971    7.9572 C   0  0  0  0  0  0  0  0  0  0  0  0
  -16.9551    8.7977    7.8952 N   0  0  0  0  0  0  0  0  0  0  0  0
  -17.6045    9.4107    7.4809 H   0  0  0  0  0  0  0  0  0  0  0  0
  -19.0951    4.8990    8.1268 O   0  0  0  0  0  0  0  0  0  0  0  0
  -20.9373    5.7166    6.2231 O   0  0  0  0  0  0  0  0  0  0  0  0
  -18.7189    7.7546    6.0442 O   0  0  0  0  0  0  0  0  0  0  0  0
  -18.5950    5.5944    7.0107 C   0  0  0  0  0  0  0  0  0  0  0  0
  -19.5804    5.5462    5.8254 C   0  0  0  0  0  0  0  0  0  0  0  0
  -18.5795    7.0766    7.3266 C   0  0  0  0  0  0  0  0  0  0  0  0
  -19.2090    6.7988    5.0545 C   0  0  0  0  0  0  0  0  0  0  0  0
  -19.1095    3.9482    7.9355 H   0  0  0  0  0  0  0  0  0  0  0  0
  -21.2277    4.9381    6.7235 H   0  0  0  0  0  0  0  0  0  0  0  0
  -18.3907    5.3328    0.1686 N   0  0  0  0  0  0  0  0  0  0  0  0
  -19.5391    5.4166    0.8349 C   0  0  0  0  0  0  0  0  0  0  0  0
  -19.5935    5.8042    2.1038 N   0  0  0  0  0  0  0  0  0  0  0  0
  -18.4582    6.1377    2.7514 C   0  0  0  0  0  0  0  0  0  0  0  0
  -17.2408    6.0529    2.0861 C   0  0  0  0  0  0  0  0  0  0  0  0
  -17.2203    5.6273    0.7565 C   0  0  0  0  0  0  0  0  0  0  0  0
  -16.0645    5.5337    0.0816 N   0  0  0  0  0  0  0  0  0  0  0  0
  -16.2929    6.4091    2.9454 N   0  0  0  0  0  0  0  0  0  0  0  0
  -16.8757    6.7150    4.0994 C   0  0  0  0  0  0  0  0  0  0  0  0
  -18.1954    6.5525    3.9878 N   0  0  0  0  0  0  0  0  0  0  0  0
  -16.0647    5.2322   -0.8556 H   0  0  0  0  0  0  0  0  0  0  0  0
  -15.2161    5.7666    0.5235 H   0  0  0  0  0  0  0  0  0  0  0  0
  -15.0083    6.8854   17.4253 C   0  0  0  0  0  0  0  0  0  0  0  0
  -16.2618    6.3489   18.1179 C   0  0  0  0  0  0  0  0  0  0  0  0
  -16.9502    5.2544   17.3258 C   0  0  0  0  0  0  0  0  0  0  0  0
  -18.4778    5.4266   17.4072 C   0  0  0  0  0  0  0  0  0  0  0  0
  -18.9935    6.5778   17.3895 O   0  0  0  0  0  0  0  0  0  0  0  0
  -19.1621    4.2631   17.5084 N   0  0  0  0  0  0  0  0  0  0  0  0
  -18.6510    3.4218   17.5279 H   0  0  0  0  0  0  0  0  0  0  0  0
  -20.6460    4.1884   17.5918 C   0  0  0  0  0  0  0  0  0  0  0  0
  -21.2994    4.1611   16.2078 C   0  0  0  0  0  0  0  0  0  0  0  0
  -21.8428    3.1364   15.8147 O   0  0  0  0  0  0  0  0  0  0  0  0
  -21.2239    5.2943   15.4962 N   0  0  0  0  0  0  0  0  0  0  0  0
  -20.7819    6.0736   15.9043 H   0  0  0  0  0  0  0  0  0  0  0  0
  -21.7685    5.4334   14.1343 C   0  0  0  0  0  0  0  0  0  0  0  0
  -22.3841    6.8256   13.8997 C   0  0  0  0  0  0  0  0  0  0  0  0
  -22.5539    7.6184   14.8242 O   0  0  0  0  0  0  0  0  0  0  0  0
  -22.6801    7.0983   12.6434 N   0  0  0  0  0  0  0  0  0  0  0  0
  -22.5228    6.4244   11.9432 H   0  0  0  0  0  0  0  0  0  0  0  0
  -23.0583    7.9758   12.4061 H   0  0  0  0  0  0  0  0  0  0  0  0
  -20.6623    5.2373   13.0909 C   0  0  0  0  0  0  0  0  0  0  0  0
  -19.2938    5.7987   13.5153 C   0  0  0  0  0  0  0  0  0  0  0  0
  -18.7757    6.6730   12.3538 C   0  0  0  0  0  0  0  0  0  0  0  0
  -19.4476    6.2497   11.0993 N   0  0  0  0  0  0  0  0  0  0  0  0
  -19.3516    5.3231   10.7810 H   0  0  0  0  0  0  0  0  0  0  0  0
  -20.1815    7.1194   10.4007 C   0  0  0  0  0  0  0  0  0  0  0  0
  -19.8602    8.4108   10.3568 N   0  0  0  0  0  0  0  0  0  0  0  0
  -21.2511    6.6940    9.7411 N   0  0  0  0  0  0  0  0  0  0  0  0
  -19.0687    8.7380   10.8423 H   0  0  0  0  0  0  0  0  0  0  0  0
  -20.4143    9.0385    9.8389 H   0  0  0  0  0  0  0  0  0  0  0  0
  -21.4984    5.7414    9.7662 H   0  0  0  0  0  0  0  0  0  0  0  0
  -21.0236    2.9159   18.3567 C   0  0  0  0  0  0  0  0  0  0  0  0
  -19.8408    1.9433   18.4106 C   0  0  0  0  0  0  0  0  0  0  0  0
  -20.3782    0.5101   18.5086 C   0  0  0  0  0  0  0  0  0  0  0  0
  -19.3036   -0.4339   18.2009 N   0  0  0  0  0  0  0  0  0  0  0  0
  -18.7720   -0.7988   18.9449 H   0  0  0  0  0  0  0  0  0  0  0  0
  -19.0102   -0.8240   16.9567 C   0  0  0  0  0  0  0  0  0  0  0  0
  -17.9326   -0.2798   16.3704 N   0  0  0  0  0  0  0  0  0  0  0  0
  -19.7849   -1.6978   16.3163 N   0  0  0  0  0  0  0  0  0  0  0  0
  -17.3756    0.3640   16.8649 H   0  0  0  0  0  0  0  0  0  0  0  0
  -17.6990   -0.5245   15.4458 H   0  0  0  0  0  0  0  0  0  0  0  0
  -20.5701   -2.0831   16.7682 H   0  0  0  0  0  0  0  0  0  0  0  0
 31 32  2  0  0  0
 31 36  1  0  0  0
 32 33  1  0  0  0
 33 34  2  0  0  0
 34 35  1  0  0  0
 34 40  1  0  0  0
 35 36  2  0  0  0
 35 38  1  0  0  0
 36 37  1  0  0  0
 38 39  2  0  0  0
 39 40  1  0  0  0
 40 28  1  0  0  0
 18 19  2  0  0  0
 22 25  1  0  0  0
 23 26  1  0  0  0
 24 27  1  0  0  0
 24 28  1  0  0  0
 19 27  1  0  0  0
 25 26  1  0  0  0
 25 27  1  0  0  0
 26 28  1  0  0  0
  9 10  2  0  0  0
  9 13  1  0  0  0
 13 14  1  0  0  0
 14 15  1  0  0  0
 15 16  1  0  0  0
 16 17  1  0  0  0
 17 20  1  0  0  0
 11  7  1  0  0  0
  7  8  1  0  0  0
  7  3  1  0  0  0
  3  4  2  0  0  0
 46 47  2  0  0  0
 46 45  1  0  0  0
 45 44  1  0  0  0
 44 43  1  0  0  0
 43  1  1  0  0  0
  1  2  1  0  0  0
  2  5  1  0  0  0
 48 50  1  0  0  0
 50 72  1  0  0  0
 50 51  1  0  0  0
 72 73  1  0  0  0
 73 74  1  0  0  0
 74 75  1  0  0  0
 75 77  1  0  0  0
 77 78  1  0  0  0
 77 79  2  0  0  0
 51 52  2  0  0  0
 53 55  1  0  0  0
 55 61  1  0  0  0
 55 56  1  0  0  0
 61 62  1  0  0  0
 62 63  1  0  0  0
 63 64  1  0  0  0
 64 66  1  0  0  0
 66 67  1  0  0  0
 66 68  2  0  0  0
 56 57  2  0  0  0
 19 20  1  0  0  0
  9 11  1  0  0  0
  3  5  1  0  0  0
 46 48  1  0  0  0
 51 53  1  0  0  0
 56 58  1  0  0  0
 37 41  1  0  0  0
 37 42  1  0  0  0
 22 29  1  0  0  0
 23 30  1  0  0  0
 20 21  1  0  0  0
 11 12  1  0  0  0
  5  6  1  0  0  0
 48 49  1  0  0  0
 75 76  1  0  0  0
 78 80  1  0  0  0
 78 81  1  0  0  0
 79 82  1  0  0  0
 53 54  1  0  0  0
 64 65  1  0  0  0
 67 69  1  0  0  0
 67 70  1  0  0  0
 68 71  1  0  0  0
 58 59  1  0  0  0
 58 60  1  0  0  0
M  END
> <minimizedAffinity>
-9.06064

$$$$
3AGL_A03_A_351


 82 84  0  0  0  0  0  0  0  0999 V2000
  -14.3349    7.0452   16.8284 C   0  0  0  0  0  0  0  0  0  0  0  0
  -13.6857    8.2247   16.1190 C   0  0  0  0  0  0  0  0  0  0  0  0
  -13.7815    9.1669   13.8626 C   0  0  0  0  0  0  0  0  0  0  0  0
  -12.7675    9.8436   14.0288 O   0  0  0  0  0  0  0  0  0  0  0  0
  -14.2925    8.3600   14.7881 N   0  0  0  0  0  0  0  0  0  0  0  0
  -15.1001    7.8388   14.5753 H   0  0  0  0  0  0  0  0  0  0  0  0
  -14.5037    9.1674   12.5029 C   0  0  0  0  0  0  0  0  0  0  0  0
  -15.9787    8.7389   12.6700 C   0  0  0  0  0  0  0  0  0  0  0  0
  -13.6778   10.6600   10.7499 C   0  0  0  0  0  0  0  0  0  0  0  0
  -13.0320    9.7816   10.1854 O   0  0  0  0  0  0  0  0  0  0  0  0
  -14.4016   10.4725   11.8644 N   0  0  0  0  0  0  0  0  0  0  0  0
  -14.8765   11.2381   12.2612 H   0  0  0  0  0  0  0  0  0  0  0  0
  -13.6912   12.0863   10.1896 C   0  0  0  0  0  0  0  0  0  0  0  0
  -15.0986   12.5318    9.7785 C   0  0  0  0  0  0  0  0  0  0  0  0
  -15.5545   11.7205    8.5641 C   0  0  0  0  0  0  0  0  0  0  0  0
  -16.9472   11.1151    8.7121 C   0  0  0  0  0  0  0  0  0  0  0  0
  -16.7536    9.6095    8.9322 C   0  0  0  0  0  0  0  0  0  0  0  0
  -16.5462    7.2256    7.4166 O   0  0  0  0  0  0  0  0  0  0  0  0
  -17.6534    7.7445    7.5964 C   0  0  0  0  0  0  0  0  0  0  0  0
  -17.8528    8.8595    8.3037 N   0  0  0  0  0  0  0  0  0  0  0  0
  -18.7729    9.1935    8.4090 H   0  0  0  0  0  0  0  0  0  0  0  0
  -19.1496    4.9459    7.9236 O   0  0  0  0  0  0  0  0  0  0  0  0
  -21.0248    5.3759    5.9274 O   0  0  0  0  0  0  0  0  0  0  0  0
  -19.0843    7.6691    5.6404 O   0  0  0  0  0  0  0  0  0  0  0  0
  -18.7108    5.6189    6.7687 C   0  0  0  0  0  0  0  0  0  0  0  0
  -19.6460    5.3568    5.5708 C   0  0  0  0  0  0  0  0  0  0  0  0
  -18.8965    7.1092    6.9727 C   0  0  0  0  0  0  0  0  0  0  0  0
  -19.4171    6.5887    4.7157 C   0  0  0  0  0  0  0  0  0  0  0  0
  -19.0351    3.9901    7.8041 H   0  0  0  0  0  0  0  0  0  0  0  0
  -21.2268    4.6039    6.4789 H   0  0  0  0  0  0  0  0  0  0  0  0
  -18.3233    5.1977   -0.1381 N   0  0  0  0  0  0  0  0  0  0  0  0
  -19.5010    5.2182    0.4802 C   0  0  0  0  0  0  0  0  0  0  0  0
  -19.6277    5.5944    1.7474 N   0  0  0  0  0  0  0  0  0  0  0  0
  -18.5388    5.9816    2.4430 C   0  0  0  0  0  0  0  0  0  0  0  0
  -17.2922    5.9636    1.8285 C   0  0  0  0  0  0  0  0  0  0  0  0
  -17.1950    5.5481    0.4991 C   0  0  0  0  0  0  0  0  0  0  0  0
  -16.0089    5.5183   -0.1276 N   0  0  0  0  0  0  0  0  0  0  0  0
  -16.4002    6.3625    2.7280 N   0  0  0  0  0  0  0  0  0  0  0  0
  -17.0452    6.6308    3.8580 C   0  0  0  0  0  0  0  0  0  0  0  0
  -18.3490    6.4015    3.6910 N   0  0  0  0  0  0  0  0  0  0  0  0
  -15.9549    5.2231   -1.0652 H   0  0  0  0  0  0  0  0  0  0  0  0
  -15.1927    5.7915    0.3502 H   0  0  0  0  0  0  0  0  0  0  0  0
  -14.5145    7.2757   18.3321 C   0  0  0  0  0  0  0  0  0  0  0  0
  -15.9240    6.8696   18.7646 C   0  0  0  0  0  0  0  0  0  0  0  0
  -16.9704    7.1517   17.7040 C   0  0  0  0  0  0  0  0  0  0  0  0
  -17.6652    5.8424   17.2883 C   0  0  0  0  0  0  0  0  0  0  0  0
  -16.9836    4.8289   16.9726 O   0  0  0  0  0  0  0  0  0  0  0  0
  -19.0173    5.9084   17.2880 N   0  0  0  0  0  0  0  0  0  0  0  0
  -19.4425    6.7601   17.5390 H   0  0  0  0  0  0  0  0  0  0  0  0
  -19.8948    4.7616   16.9284 C   0  0  0  0  0  0  0  0  0  0  0  0
  -20.0753    4.6279   15.4142 C   0  0  0  0  0  0  0  0  0  0  0  0
  -19.1177    4.3218   14.7148 O   0  0  0  0  0  0  0  0  0  0  0  0
  -21.3062    4.8690   14.9422 N   0  0  0  0  0  0  0  0  0  0  0  0
  -22.0178    5.0911   15.5853 H   0  0  0  0  0  0  0  0  0  0  0  0
  -21.6490    4.8186   13.5102 C   0  0  0  0  0  0  0  0  0  0  0  0
  -22.9216    3.9905   13.2514 C   0  0  0  0  0  0  0  0  0  0  0  0
  -23.6892    3.6880   14.1632 O   0  0  0  0  0  0  0  0  0  0  0  0
  -23.1269    3.6659   11.9895 N   0  0  0  0  0  0  0  0  0  0  0  0
  -22.4776    3.9350   11.3001 H   0  0  0  0  0  0  0  0  0  0  0  0
  -23.9293    3.1544   11.7370 H   0  0  0  0  0  0  0  0  0  0  0  0
  -21.9003    6.2306   12.9682 C   0  0  0  0  0  0  0  0  0  0  0  0
  -20.7378    6.7982   12.1349 C   0  0  0  0  0  0  0  0  0  0  0  0
  -20.1611    5.6359   11.2992 C   0  0  0  0  0  0  0  0  0  0  0  0
  -18.9731    6.1248   10.5549 N   0  0  0  0  0  0  0  0  0  0  0  0
  -19.0935    6.6694    9.7436 H   0  0  0  0  0  0  0  0  0  0  0  0
  -17.7423    5.8297   10.9801 C   0  0  0  0  0  0  0  0  0  0  0  0
  -16.7188    5.7641   10.1309 N   0  0  0  0  0  0  0  0  0  0  0  0
  -17.5324    5.5937   12.2687 N   0  0  0  0  0  0  0  0  0  0  0  0
  -16.8625    5.9373    9.1725 H   0  0  0  0  0  0  0  0  0  0  0  0
  -15.8183    5.5424   10.4615 H   0  0  0  0  0  0  0  0  0  0  0  0
  -18.2815    5.6393   12.9058 H   0  0  0  0  0  0  0  0  0  0  0  0
  -19.2639    3.4790   17.4797 C   0  0  0  0  0  0  0  0  0  0  0  0
  -20.3456    2.4913   17.9293 C   0  0  0  0  0  0  0  0  0  0  0  0
  -19.6984    1.1235   18.1796 C   0  0  0  0  0  0  0  0  0  0  0  0
  -20.0686    0.2061   17.1017 N   0  0  0  0  0  0  0  0  0  0  0  0
  -20.5865    0.5588   16.3423 H   0  0  0  0  0  0  0  0  0  0  0  0
  -19.7364   -1.0884   17.1000 C   0  0  0  0  0  0  0  0  0  0  0  0
  -19.2280   -1.6032   18.2303 N   0  0  0  0  0  0  0  0  0  0  0  0
  -19.8773   -1.8264   16.0003 N   0  0  0  0  0  0  0  0  0  0  0  0
  -19.1339   -1.0371   19.0303 H   0  0  0  0  0  0  0  0  0  0  0  0
  -18.9492   -2.5469   18.2596 H   0  0  0  0  0  0  0  0  0  0  0  0
  -20.2530   -1.4256   15.1833 H   0  0  0  0  0  0  0  0  0  0  0  0
 31 32  2  0  0  0
 31 36  1  0  0  0
 32 33  1  0  0  0
 33 34  2  0  0  0
 34 35  1  0  0  0
 34 40  1  0  0  0
 35 36  2  0  0  0
 35 38  1  0  0  0
 36 37  1  0  0  0
 38 39  2  0  0  0
 39 40  1  0  0  0
 40 28  1  0  0  0
 18 19  2  0  0  0
 22 25  1  0  0  0
 23 26  1  0  0  0
 24 27  1  0  0  0
 24 28  1  0  0  0
 19 27  1  0  0  0
 25 26  1  0  0  0
 25 27  1  0  0  0
 26 28  1  0  0  0
  9 10  2  0  0  0
  9 13  1  0  0  0
 13 14  1  0  0  0
 14 15  1  0  0  0
 15 16  1  0  0  0
 16 17  1  0  0  0
 17 20  1  0  0  0
 11  7  1  0  0  0
  7  8  1  0  0  0
  7  3  1  0  0  0
  3  4  2  0  0  0
 46 47  2  0  0  0
 46 45  1  0  0  0
 45 44  1  0  0  0
 44 43  1  0  0  0
 43  1  1  0  0  0
  1  2  1  0  0  0
  2  5  1  0  0  0
 48 50  1  0  0  0
 50 72  1  0  0  0
 50 51  1  0  0  0
 72 73  1  0  0  0
 73 74  1  0  0  0
 74 75  1  0  0  0
 75 77  1  0  0  0
 77 78  1  0  0  0
 77 79  2  0  0  0
 51 52  2  0  0  0
 53 55  1  0  0  0
 55 61  1  0  0  0
 55 56  1  0  0  0
 61 62  1  0  0  0
 62 63  1  0  0  0
 63 64  1  0  0  0
 64 66  1  0  0  0
 66 67  1  0  0  0
 66 68  2  0  0  0
 56 57  2  0  0  0
 19 20  1  0  0  0
  9 11  1  0  0  0
  3  5  1  0  0  0
 46 48  1  0  0  0
 51 53  1  0  0  0
 56 58  1  0  0  0
 37 41  1  0  0  0
 37 42  1  0  0  0
 22 29  1  0  0  0
 23 30  1  0  0  0
 20 21  1  0  0  0
 11 12  1  0  0  0
  5  6  1  0  0  0
 48 49  1  0  0  0
 75 76  1  0  0  0
 78 80  1  0  0  0
 78 81  1  0  0  0
 79 82  1  0  0  0
 53 54  1  0  0  0
 64 65  1  0  0  0
 67 69  1  0  0  0
 67 70  1  0  0  0
 68 71  1  0  0  0
 58 59  1  0  0  0
 58 60  1  0  0  0
M  END
> <minimizedAffinity>
-9.05778

$$$$
3AGL_A03_A_351


 82 84  0  0  0  0  0  0  0  0999 V2000
  -18.4612    9.3177   14.2639 C   0  0  0  0  0  0  0  0  0  0  0  0
  -17.0049    8.8875   14.3643 C   0  0  0  0  0  0  0  0  0  0  0  0
  -14.9411   10.1860   14.5708 C   0  0  0  0  0  0  0  0  0  0  0  0
  -14.4269    9.3742   15.3392 O   0  0  0  0  0  0  0  0  0  0  0  0
  -16.1545   10.0421   14.0458 N   0  0  0  0  0  0  0  0  0  0  0  0
  -16.4922   10.7286   13.4263 H   0  0  0  0  0  0  0  0  0  0  0  0
  -14.1540   11.4252   14.1068 C   0  0  0  0  0  0  0  0  0  0  0  0
  -12.8855   11.6178   14.9675 C   0  0  0  0  0  0  0  0  0  0  0  0
  -13.9995   12.3571   11.8505 C   0  0  0  0  0  0  0  0  0  0  0  0
  -14.4635   13.4465   12.1749 O   0  0  0  0  0  0  0  0  0  0  0  0
  -13.8227   11.3266   12.6919 N   0  0  0  0  0  0  0  0  0  0  0  0
  -13.4590   10.4808   12.3431 H   0  0  0  0  0  0  0  0  0  0  0  0
  -13.5804   12.1001   10.3992 C   0  0  0  0  0  0  0  0  0  0  0  0
  -14.7071   12.4132    9.4088 C   0  0  0  0  0  0  0  0  0  0  0  0
  -16.0007   11.7482    9.8834 C   0  0  0  0  0  0  0  0  0  0  0  0
  -16.7784   11.0464    8.7739 C   0  0  0  0  0  0  0  0  0  0  0  0
  -16.6598    9.5398    9.0359 C   0  0  0  0  0  0  0  0  0  0  0  0
  -16.5071    7.2024    7.4433 O   0  0  0  0  0  0  0  0  0  0  0  0
  -17.6043    7.7301    7.6555 C   0  0  0  0  0  0  0  0  0  0  0  0
  -17.7782    8.8248    8.4003 N   0  0  0  0  0  0  0  0  0  0  0  0
  -18.6920    9.1676    8.5296 H   0  0  0  0  0  0  0  0  0  0  0  0
  -19.1704    4.9681    7.9654 O   0  0  0  0  0  0  0  0  0  0  0  0
  -21.0394    5.4612    5.9780 O   0  0  0  0  0  0  0  0  0  0  0  0
  -19.0419    7.7065    5.7032 O   0  0  0  0  0  0  0  0  0  0  0  0
  -18.7177    5.6387    6.8144 C   0  0  0  0  0  0  0  0  0  0  0  0
  -19.6626    5.4099    5.6173 C   0  0  0  0  0  0  0  0  0  0  0  0
  -18.8649    7.1316    7.0306 C   0  0  0  0  0  0  0  0  0  0  0  0
  -19.4047    6.6422    4.7711 C   0  0  0  0  0  0  0  0  0  0  0  0
  -19.0807    4.0107    7.8381 H   0  0  0  0  0  0  0  0  0  0  0  0
  -21.2595    4.6904    6.5241 H   0  0  0  0  0  0  0  0  0  0  0  0
  -18.3565    5.2319   -0.0872 N   0  0  0  0  0  0  0  0  0  0  0  0
  -19.5310    5.2734    0.5361 C   0  0  0  0  0  0  0  0  0  0  0  0
  -19.6456    5.6518    1.8038 N   0  0  0  0  0  0  0  0  0  0  0  0
  -18.5470    6.0195    2.4947 C   0  0  0  0  0  0  0  0  0  0  0  0
  -17.3035    5.9792    1.8749 C   0  0  0  0  0  0  0  0  0  0  0  0
  -17.2194    5.5620    0.5452 C   0  0  0  0  0  0  0  0  0  0  0  0
  -16.0367    5.5110   -0.0865 N   0  0  0  0  0  0  0  0  0  0  0  0
  -16.4007    6.3621    2.7706 N   0  0  0  0  0  0  0  0  0  0  0  0
  -17.0360    6.6419    3.9034 C   0  0  0  0  0  0  0  0  0  0  0  0
  -18.3444    6.4360    3.7419 N   0  0  0  0  0  0  0  0  0  0  0  0
  -15.9920    5.2148   -1.0244 H   0  0  0  0  0  0  0  0  0  0  0  0
  -15.2137    5.7696    0.3878 H   0  0  0  0  0  0  0  0  0  0  0  0
  -18.8945   10.2374   15.4097 C   0  0  0  0  0  0  0  0  0  0  0  0
  -20.3780   10.0332   15.7195 C   0  0  0  0  0  0  0  0  0  0  0  0
  -20.6128    9.0975   16.8894 C   0  0  0  0  0  0  0  0  0  0  0  0
  -21.1100    7.7324   16.3804 C   0  0  0  0  0  0  0  0  0  0  0  0
  -22.2682    7.6141   15.8945 O   0  0  0  0  0  0  0  0  0  0  0  0
  -20.2131    6.7283   16.5212 N   0  0  0  0  0  0  0  0  0  0  0  0
  -19.3416    6.9354   16.9296 H   0  0  0  0  0  0  0  0  0  0  0  0
  -20.4750    5.3279   16.0912 C   0  0  0  0  0  0  0  0  0  0  0  0
  -19.7993    4.9996   14.7575 C   0  0  0  0  0  0  0  0  0  0  0  0
  -18.7688    4.3378   14.7474 O   0  0  0  0  0  0  0  0  0  0  0  0
  -20.3971    5.4795   13.6582 N   0  0  0  0  0  0  0  0  0  0  0  0
  -21.2342    5.9865   13.7654 H   0  0  0  0  0  0  0  0  0  0  0  0
  -19.8657    5.2872   12.2976 C   0  0  0  0  0  0  0  0  0  0  0  0
  -20.9788    5.3261   11.2338 C   0  0  0  0  0  0  0  0  0  0  0  0
  -22.0275    4.7001   11.3763 O   0  0  0  0  0  0  0  0  0  0  0  0
  -20.7263    6.0956   10.1925 N   0  0  0  0  0  0  0  0  0  0  0  0
  -19.8682    6.5742   10.1306 H   0  0  0  0  0  0  0  0  0  0  0  0
  -21.3961    6.1914    9.4773 H   0  0  0  0  0  0  0  0  0  0  0  0
  -18.8603    6.3922   11.9526 C   0  0  0  0  0  0  0  0  0  0  0  0
  -17.4645    5.8714   11.5671 C   0  0  0  0  0  0  0  0  0  0  0  0
  -16.4506    6.9874   11.8967 C   0  0  0  0  0  0  0  0  0  0  0  0
  -15.1161    6.3734   12.1120 N   0  0  0  0  0  0  0  0  0  0  0  0
  -14.8597    5.5688   11.6058 H   0  0  0  0  0  0  0  0  0  0  0  0
  -14.2618    6.9067   12.9887 C   0  0  0  0  0  0  0  0  0  0  0  0
  -13.3999    7.8526   12.6206 N   0  0  0  0  0  0  0  0  0  0  0  0
  -14.2662    6.4872   14.2473 N   0  0  0  0  0  0  0  0  0  0  0  0
  -13.3875    8.1718   11.6894 H   0  0  0  0  0  0  0  0  0  0  0  0
  -12.7752    8.2328   13.2797 H   0  0  0  0  0  0  0  0  0  0  0  0
  -14.8989    5.7883   14.5310 H   0  0  0  0  0  0  0  0  0  0  0  0
  -19.9458    4.3828   17.1747 C   0  0  0  0  0  0  0  0  0  0  0  0
  -19.3976    5.1750   18.3662 C   0  0  0  0  0  0  0  0  0  0  0  0
  -17.9099    4.8459   18.5413 C   0  0  0  0  0  0  0  0  0  0  0  0
  -17.1701    5.2983   17.3628 N   0  0  0  0  0  0  0  0  0  0  0  0
  -17.4050    4.9169   16.4862 H   0  0  0  0  0  0  0  0  0  0  0  0
  -16.1903    6.2054   17.4212 C   0  0  0  0  0  0  0  0  0  0  0  0
  -16.5413    7.4969   17.5216 N   0  0  0  0  0  0  0  0  0  0  0  0
  -14.9133    5.8343   17.3481 N   0  0  0  0  0  0  0  0  0  0  0  0
  -17.4923    7.7458   17.5742 H   0  0  0  0  0  0  0  0  0  0  0  0
  -15.8477    8.1952   17.5426 H   0  0  0  0  0  0  0  0  0  0  0  0
  -14.6813    4.8803   17.2750 H   0  0  0  0  0  0  0  0  0  0  0  0
 31 32  2  0  0  0
 31 36  1  0  0  0
 32 33  1  0  0  0
 33 34  2  0  0  0
 34 35  1  0  0  0
 34 40  1  0  0  0
 35 36  2  0  0  0
 35 38  1  0  0  0
 36 37  1  0  0  0
 38 39  2  0  0  0
 39 40  1  0  0  0
 40 28  1  0  0  0
 18 19  2  0  0  0
 22 25  1  0  0  0
 23 26  1  0  0  0
 24 27  1  0  0  0
 24 28  1  0  0  0
 19 27  1  0  0  0
 25 26  1  0  0  0
 25 27  1  0  0  0
 26 28  1  0  0  0
  9 10  2  0  0  0
  9 13  1  0  0  0
 13 14  1  0  0  0
 14 15  1  0  0  0
 15 16  1  0  0  0
 16 17  1  0  0  0
 17 20  1  0  0  0
 11  7  1  0  0  0
  7  8  1  0  0  0
  7  3  1  0  0  0
  3  4  2  0  0  0
 46 47  2  0  0  0
 46 45  1  0  0  0
 45 44  1  0  0  0
 44 43  1  0  0  0
 43  1  1  0  0  0
  1  2  1  0  0  0
  2  5  1  0  0  0
 48 50  1  0  0  0
 50 72  1  0  0  0
 50 51  1  0  0  0
 72 73  1  0  0  0
 73 74  1  0  0  0
 74 75  1  0  0  0
 75 77  1  0  0  0
 77 78  1  0  0  0
 77 79  2  0  0  0
 51 52  2  0  0  0
 53 55  1  0  0  0
 55 61  1  0  0  0
 55 56  1  0  0  0
 61 62  1  0  0  0
 62 63  1  0  0  0
 63 64  1  0  0  0
 64 66  1  0  0  0
 66 67  1  0  0  0
 66 68  2  0  0  0
 56 57  2  0  0  0
 19 20  1  0  0  0
  9 11  1  0  0  0
  3  5  1  0  0  0
 46 48  1  0  0  0
 51 53  1  0  0  0
 56 58  1  0  0  0
 37 41  1  0  0  0
 37 42  1  0  0  0
 22 29  1  0  0  0
 23 30  1  0  0  0
 20 21  1  0  0  0
 11 12  1  0  0  0
  5  6  1  0  0  0
 48 49  1  0  0  0
 75 76  1  0  0  0
 78 80  1  0  0  0
 78 81  1  0  0  0
 79 82  1  0  0  0
 53 54  1  0  0  0
 64 65  1  0  0  0
 67 69  1  0  0  0
 67 70  1  0  0  0
 68 71  1  0  0  0
 58 59  1  0  0  0
 58 60  1  0  0  0
M  END
> <minimizedAffinity>
-8.79968

$$$$
3AGL_A03_A_351


 82 84  0  0  0  0  0  0  0  0999 V2000
  -13.8660    6.7745   15.9170 C   0  0  0  0  0  0  0  0  0  0  0  0
  -14.0749    7.0855   14.4421 C   0  0  0  0  0  0  0  0  0  0  0  0
  -13.6366    9.2318   13.3514 C   0  0  0  0  0  0  0  0  0  0  0  0
  -14.7955    9.3433   12.9533 O   0  0  0  0  0  0  0  0  0  0  0  0
  -13.1976    8.2043   14.0725 N   0  0  0  0  0  0  0  0  0  0  0  0
  -12.2582    8.1930   14.3669 H   0  0  0  0  0  0  0  0  0  0  0  0
  -12.6104   10.3475   13.0825 C   0  0  0  0  0  0  0  0  0  0  0  0
  -11.2812    9.7516   12.5674 C   0  0  0  0  0  0  0  0  0  0  0  0
  -13.1016   11.1396   10.8209 C   0  0  0  0  0  0  0  0  0  0  0  0
  -12.6005   10.1604   10.2755 O   0  0  0  0  0  0  0  0  0  0  0  0
  -13.1467   11.3285   12.1488 N   0  0  0  0  0  0  0  0  0  0  0  0
  -13.5534   12.1527   12.5016 H   0  0  0  0  0  0  0  0  0  0  0  0
  -13.7292   12.2539    9.9768 C   0  0  0  0  0  0  0  0  0  0  0  0
  -15.2311   12.4031   10.2423 C   0  0  0  0  0  0  0  0  0  0  0  0
  -15.9539   11.1272    9.8056 C   0  0  0  0  0  0  0  0  0  0  0  0
  -15.6837   10.7280    8.3579 C   0  0  0  0  0  0  0  0  0  0  0  0
  -15.6078    9.1964    8.3286 C   0  0  0  0  0  0  0  0  0  0  0  0
  -16.3689    6.4685    8.2821 O   0  0  0  0  0  0  0  0  0  0  0  0
  -17.1331    7.3270    7.8277 C   0  0  0  0  0  0  0  0  0  0  0  0
  -16.8679    8.6357    7.8152 N   0  0  0  0  0  0  0  0  0  0  0  0
  -17.5431    9.2507    7.4476 H   0  0  0  0  0  0  0  0  0  0  0  0
  -18.9387    4.7012    7.9792 O   0  0  0  0  0  0  0  0  0  0  0  0
  -20.8343    5.5370    6.1367 O   0  0  0  0  0  0  0  0  0  0  0  0
  -18.6469    7.6080    5.9547 O   0  0  0  0  0  0  0  0  0  0  0  0
  -18.4732    5.4283    6.8683 C   0  0  0  0  0  0  0  0  0  0  0  0
  -19.4847    5.3939    5.7047 C   0  0  0  0  0  0  0  0  0  0  0  0
  -18.4696    6.9031    7.2178 C   0  0  0  0  0  0  0  0  0  0  0  0
  -19.1472    6.6685    4.9547 C   0  0  0  0  0  0  0  0  0  0  0  0
  -18.9452    3.7549    7.7665 H   0  0  0  0  0  0  0  0  0  0  0  0
  -21.1032    4.7435    6.6256 H   0  0  0  0  0  0  0  0  0  0  0  0
  -18.4154    5.2683    0.0358 N   0  0  0  0  0  0  0  0  0  0  0  0
  -19.5480    5.3140    0.7322 C   0  0  0  0  0  0  0  0  0  0  0  0
  -19.5803    5.6889    2.0056 N   0  0  0  0  0  0  0  0  0  0  0  0
  -18.4383    6.0487    2.6269 C   0  0  0  0  0  0  0  0  0  0  0  0
  -17.2366    6.0039    1.9297 C   0  0  0  0  0  0  0  0  0  0  0  0
  -17.2388    5.5905    0.5961 C   0  0  0  0  0  0  0  0  0  0  0  0
  -16.0987    5.5354   -0.1091 N   0  0  0  0  0  0  0  0  0  0  0  0
  -16.2771    6.3792    2.7678 N   0  0  0  0  0  0  0  0  0  0  0  0
  -16.8381    6.6586    3.9392 C   0  0  0  0  0  0  0  0  0  0  0  0
  -18.1551    6.4601    3.8600 N   0  0  0  0  0  0  0  0  0  0  0  0
  -16.1149    5.2420   -1.0487 H   0  0  0  0  0  0  0  0  0  0  0  0
  -15.2460    5.7882    0.3131 H   0  0  0  0  0  0  0  0  0  0  0  0
  -13.4549    8.0021   16.7357 C   0  0  0  0  0  0  0  0  0  0  0  0
  -14.6939    8.7108   17.2845 C   0  0  0  0  0  0  0  0  0  0  0  0
  -14.8613   10.1147   16.7364 C   0  0  0  0  0  0  0  0  0  0  0  0
  -16.1659   10.2112   15.9249 C   0  0  0  0  0  0  0  0  0  0  0  0
  -16.5189   11.3072   15.4094 O   0  0  0  0  0  0  0  0  0  0  0  0
  -16.8569    9.0499   15.8464 N   0  0  0  0  0  0  0  0  0  0  0  0
  -16.4911    8.2579   16.3026 H   0  0  0  0  0  0  0  0  0  0  0  0
  -18.1405    8.9072   15.1069 C   0  0  0  0  0  0  0  0  0  0  0  0
  -18.0657    7.8234   14.0285 C   0  0  0  0  0  0  0  0  0  0  0  0
  -17.5907    6.7283   14.3024 O   0  0  0  0  0  0  0  0  0  0  0  0
  -18.5341    8.1601   12.8188 N   0  0  0  0  0  0  0  0  0  0  0  0
  -18.9146    9.0602   12.6992 H   0  0  0  0  0  0  0  0  0  0  0  0
  -18.5086    7.2521   11.6587 C   0  0  0  0  0  0  0  0  0  0  0  0
  -17.1351    6.5772   11.4857 C   0  0  0  0  0  0  0  0  0  0  0  0
  -17.0192    5.3535   11.4495 O   0  0  0  0  0  0  0  0  0  0  0  0
  -16.1195    7.4086   11.3537 N   0  0  0  0  0  0  0  0  0  0  0  0
  -16.2710    8.3807   11.3909 H   0  0  0  0  0  0  0  0  0  0  0  0
  -15.2100    7.0571   11.2178 H   0  0  0  0  0  0  0  0  0  0  0  0
  -19.5507    6.1398   11.8244 C   0  0  0  0  0  0  0  0  0  0  0  0
  -20.8781    6.4108   11.0946 C   0  0  0  0  0  0  0  0  0  0  0  0
  -21.9833    5.6443   11.8515 C   0  0  0  0  0  0  0  0  0  0  0  0
  -22.8485    4.9520   10.8633 N   0  0  0  0  0  0  0  0  0  0  0  0
  -22.5014    4.7515    9.9641 H   0  0  0  0  0  0  0  0  0  0  0  0
  -24.0949    4.5999   11.1879 C   0  0  0  0  0  0  0  0  0  0  0  0
  -24.8950    5.4341   11.8489 N   0  0  0  0  0  0  0  0  0  0  0  0
  -24.5459    3.3985   10.8512 N   0  0  0  0  0  0  0  0  0  0  0  0
  -24.5713    6.3282   12.1040 H   0  0  0  0  0  0  0  0  0  0  0  0
  -25.8103    5.1568   12.0825 H   0  0  0  0  0  0  0  0  0  0  0  0
  -23.9634    2.7732   10.3623 H   0  0  0  0  0  0  0  0  0  0  0  0
  -19.2398    8.5487   16.1118 C   0  0  0  0  0  0  0  0  0  0  0  0
  -18.6342    7.9858   17.4018 C   0  0  0  0  0  0  0  0  0  0  0  0
  -19.4753    6.7907   17.8671 C   0  0  0  0  0  0  0  0  0  0  0  0
  -18.7773    5.5477   17.5381 N   0  0  0  0  0  0  0  0  0  0  0  0
  -17.8070    5.5832   17.3751 H   0  0  0  0  0  0  0  0  0  0  0  0
  -19.3957    4.3662   17.4485 C   0  0  0  0  0  0  0  0  0  0  0  0
  -19.2991    3.5310   18.4945 N   0  0  0  0  0  0  0  0  0  0  0  0
  -20.0547    4.0244   16.3427 N   0  0  0  0  0  0  0  0  0  0  0  0
  -18.8064    3.8069   19.3010 H   0  0  0  0  0  0  0  0  0  0  0  0
  -19.7210    2.6423   18.4555 H   0  0  0  0  0  0  0  0  0  0  0  0
  -20.1113    4.6549   15.5887 H   0  0  0  0  0  0  0  0  0  0  0  0
 31 32  2  0  0  0
 31 36  1  0  0  0
 32 33  1  0  0  0
 33 34  2  0  0  0
 34 35  1  0  0  0
 34 40  1  0  0  0
 35 36  2  0  0  0
 35 38  1  0  0  0
 36 37  1  0  0  0
 38 39  2  0  0  0
 39 40  1  0  0  0
 40 28  1  0  0  0
 18 19  2  0  0  0
 22 25  1  0  0  0
 23 26  1  0  0  0
 24 27  1  0  0  0
 24 28  1  0  0  0
 19 27  1  0  0  0
 25 26  1  0  0  0
 25 27  1  0  0  0
 26 28  1  0  0  0
  9 10  2  0  0  0
  9 13  1  0  0  0
 13 14  1  0  0  0
 14 15  1  0  0  0
 15 16  1  0  0  0
 16 17  1  0  0  0
 17 20  1  0  0  0
 11  7  1  0  0  0
  7  8  1  0  0  0
  7  3  1  0  0  0
  3  4  2  0  0  0
 46 47  2  0  0  0
 46 45  1  0  0  0
 45 44  1  0  0  0
 44 43  1  0  0  0
 43  1  1  0  0  0
  1  2  1  0  0  0
  2  5  1  0  0  0
 48 50  1  0  0  0
 50 72  1  0  0  0
 50 51  1  0  0  0
 72 73  1  0  0  0
 73 74  1  0  0  0
 74 75  1  0  0  0
 75 77  1  0  0  0
 77 78  1  0  0  0
 77 79  2  0  0  0
 51 52  2  0  0  0
 53 55  1  0  0  0
 55 61  1  0  0  0
 55 56  1  0  0  0
 61 62  1  0  0  0
 62 63  1  0  0  0
 63 64  1  0  0  0
 64 66  1  0  0  0
 66 67  1  0  0  0
 66 68  2  0  0  0
 56 57  2  0  0  0
 19 20  1  0  0  0
  9 11  1  0  0  0
  3  5  1  0  0  0
 46 48  1  0  0  0
 51 53  1  0  0  0
 56 58  1  0  0  0
 37 41  1  0  0  0
 37 42  1  0  0  0
 22 29  1  0  0  0
 23 30  1  0  0  0
 20 21  1  0  0  0
 11 12  1  0  0  0
  5  6  1  0  0  0
 48 49  1  0  0  0
 75 76  1  0  0  0
 78 80  1  0  0  0
 78 81  1  0  0  0
 79 82  1  0  0  0
 53 54  1  0  0  0
 64 65  1  0  0  0
 67 69  1  0  0  0
 67 70  1  0  0  0
 68 71  1  0  0  0
 58 59  1  0  0  0
 58 60  1  0  0  0
M  END
> <minimizedAffinity>
-8.79015

$$$$
3AGL_A03_A_351


 82 84  0  0  0  0  0  0  0  0999 V2000
  -13.8224    6.7099   15.8841 C   0  0  0  0  0  0  0  0  0  0  0  0
  -14.0368    7.0764   14.4228 C   0  0  0  0  0  0  0  0  0  0  0  0
  -13.6159    9.1942   13.2712 C   0  0  0  0  0  0  0  0  0  0  0  0
  -14.7116    9.1859   12.7116 O   0  0  0  0  0  0  0  0  0  0  0  0
  -13.2054    8.2458   14.1083 N   0  0  0  0  0  0  0  0  0  0  0  0
  -12.3193    8.3299   14.5291 H   0  0  0  0  0  0  0  0  0  0  0  0
  -12.6515   10.3784   13.0770 C   0  0  0  0  0  0  0  0  0  0  0  0
  -11.2537    9.8775   12.6499 C   0  0  0  0  0  0  0  0  0  0  0  0
  -13.0792   11.1348   10.7904 C   0  0  0  0  0  0  0  0  0  0  0  0
  -12.5137   10.1749   10.2745 O   0  0  0  0  0  0  0  0  0  0  0  0
  -13.1890   11.3296   12.1137 N   0  0  0  0  0  0  0  0  0  0  0  0
  -13.6455   12.1376   12.4424 H   0  0  0  0  0  0  0  0  0  0  0  0
  -13.7174   12.2158    9.9117 C   0  0  0  0  0  0  0  0  0  0  0  0
  -15.1724   12.4942   10.3041 C   0  0  0  0  0  0  0  0  0  0  0  0
  -16.0590   11.3463    9.8170 C   0  0  0  0  0  0  0  0  0  0  0  0
  -15.6454   10.7770    8.4631 C   0  0  0  0  0  0  0  0  0  0  0  0
  -15.6793    9.2494    8.5969 C   0  0  0  0  0  0  0  0  0  0  0  0
  -16.3880    6.5264    8.2713 O   0  0  0  0  0  0  0  0  0  0  0  0
  -17.1773    7.4120    7.9246 C   0  0  0  0  0  0  0  0  0  0  0  0
  -16.9379    8.7199    8.0479 N   0  0  0  0  0  0  0  0  0  0  0  0
  -17.6318    9.3561    7.7597 H   0  0  0  0  0  0  0  0  0  0  0  0
  -19.0692    4.8471    8.0636 O   0  0  0  0  0  0  0  0  0  0  0  0
  -20.9065    5.7305    6.1846 O   0  0  0  0  0  0  0  0  0  0  0  0
  -18.6505    7.7284    6.0251 O   0  0  0  0  0  0  0  0  0  0  0  0
  -18.5624    5.5508    6.9558 C   0  0  0  0  0  0  0  0  0  0  0  0
  -19.5554    5.5407    5.7759 C   0  0  0  0  0  0  0  0  0  0  0  0
  -18.5167    7.0272    7.2955 C   0  0  0  0  0  0  0  0  0  0  0  0
  -19.1646    6.7983    5.0231 C   0  0  0  0  0  0  0  0  0  0  0  0
  -19.1030    3.8999    7.8571 H   0  0  0  0  0  0  0  0  0  0  0  0
  -21.2089    4.9496    6.6742 H   0  0  0  0  0  0  0  0  0  0  0  0
  -18.3982    5.3361    0.1277 N   0  0  0  0  0  0  0  0  0  0  0  0
  -19.5399    5.4227    0.8051 C   0  0  0  0  0  0  0  0  0  0  0  0
  -19.5808    5.8088    2.0750 N   0  0  0  0  0  0  0  0  0  0  0  0
  -18.4382    6.1378    2.7120 C   0  0  0  0  0  0  0  0  0  0  0  0
  -17.2275    6.0499    2.0349 C   0  0  0  0  0  0  0  0  0  0  0  0
  -17.2213    5.6260    0.7046 C   0  0  0  0  0  0  0  0  0  0  0  0
  -16.0723    5.5295    0.0184 N   0  0  0  0  0  0  0  0  0  0  0  0
  -16.2703    6.4019    2.8855 N   0  0  0  0  0  0  0  0  0  0  0  0
  -16.8409    6.7083    4.0454 C   0  0  0  0  0  0  0  0  0  0  0  0
  -18.1621    6.5502    3.9463 N   0  0  0  0  0  0  0  0  0  0  0  0
  -16.0826    5.2292   -0.9191 H   0  0  0  0  0  0  0  0  0  0  0  0
  -15.2190    5.7591    0.4525 H   0  0  0  0  0  0  0  0  0  0  0  0
  -13.4524    7.9140   16.7556 C   0  0  0  0  0  0  0  0  0  0  0  0
  -14.7169    8.5994   17.2750 C   0  0  0  0  0  0  0  0  0  0  0  0
  -14.6721   10.1080   17.1293 C   0  0  0  0  0  0  0  0  0  0  0  0
  -15.5491   10.5489   15.9434 C   0  0  0  0  0  0  0  0  0  0  0  0
  -15.3768   11.6767   15.4050 O   0  0  0  0  0  0  0  0  0  0  0  0
  -16.4831    9.6403   15.5770 N   0  0  0  0  0  0  0  0  0  0  0  0
  -16.5357    8.7964   16.0812 H   0  0  0  0  0  0  0  0  0  0  0  0
  -17.4348    9.8497   14.4522 C   0  0  0  0  0  0  0  0  0  0  0  0
  -17.7229    8.5520   13.6931 C   0  0  0  0  0  0  0  0  0  0  0  0
  -17.6472    7.4787   14.2780 O   0  0  0  0  0  0  0  0  0  0  0  0
  -18.0419    8.6833   12.3980 N   0  0  0  0  0  0  0  0  0  0  0  0
  -18.0956    9.5907   12.0199 H   0  0  0  0  0  0  0  0  0  0  0  0
  -18.3165    7.5391   11.5114 C   0  0  0  0  0  0  0  0  0  0  0  0
  -17.1919    6.4880   11.5625 C   0  0  0  0  0  0  0  0  0  0  0  0
  -17.4326    5.2963   11.7466 O   0  0  0  0  0  0  0  0  0  0  0  0
  -15.9770    6.9634   11.3671 N   0  0  0  0  0  0  0  0  0  0  0  0
  -15.8430    7.9283   11.2247 H   0  0  0  0  0  0  0  0  0  0  0  0
  -15.2044    6.3533   11.3637 H   0  0  0  0  0  0  0  0  0  0  0  0
  -19.6182    6.8412   11.9228 C   0  0  0  0  0  0  0  0  0  0  0  0
  -20.6058    6.6227   10.7631 C   0  0  0  0  0  0  0  0  0  0  0  0
  -21.9965    6.3745   11.3846 C   0  0  0  0  0  0  0  0  0  0  0  0
  -22.5159    5.0739   10.8918 N   0  0  0  0  0  0  0  0  0  0  0  0
  -22.0176    4.5767   10.2035 H   0  0  0  0  0  0  0  0  0  0  0  0
  -23.6553    4.5750   11.3773 C   0  0  0  0  0  0  0  0  0  0  0  0
  -24.7515    5.3255   11.4669 N   0  0  0  0  0  0  0  0  0  0  0  0
  -23.6988    3.3121   11.7815 N   0  0  0  0  0  0  0  0  0  0  0  0
  -24.7311    6.2640   11.1701 H   0  0  0  0  0  0  0  0  0  0  0  0
  -25.5823    4.9420   11.8301 H   0  0  0  0  0  0  0  0  0  0  0  0
  -22.8946    2.7476   11.7201 H   0  0  0  0  0  0  0  0  0  0  0  0
  -18.7433   10.4051   15.0233 C   0  0  0  0  0  0  0  0  0  0  0  0
  -19.8086    9.3070   15.1077 C   0  0  0  0  0  0  0  0  0  0  0  0
  -21.0631    9.7711   14.3573 C   0  0  0  0  0  0  0  0  0  0  0  0
  -21.0016   11.2191   14.1568 N   0  0  0  0  0  0  0  0  0  0  0  0
  -20.2833   11.5845   13.5913 H   0  0  0  0  0  0  0  0  0  0  0  0
  -21.8752   12.0687   14.7056 C   0  0  0  0  0  0  0  0  0  0  0  0
  -21.8731   13.3364   14.2651 N   0  0  0  0  0  0  0  0  0  0  0  0
  -22.6928   11.6708   15.6788 N   0  0  0  0  0  0  0  0  0  0  0  0
  -21.2590   13.6060   13.5443 H   0  0  0  0  0  0  0  0  0  0  0  0
  -22.4856   13.9966   14.6626 H   0  0  0  0  0  0  0  0  0  0  0  0
  -22.6754   10.7351   15.9845 H   0  0  0  0  0  0  0  0  0  0  0  0
 31 32  2  0  0  0
 31 36  1  0  0  0
 32 33  1  0  0  0
 33 34  2  0  0  0
 34 35  1  0  0  0
 34 40  1  0  0  0
 35 36  2  0  0  0
 35 38  1  0  0  0
 36 37  1  0  0  0
 38 39  2  0  0  0
 39 40  1  0  0  0
 40 28  1  0  0  0
 18 19  2  0  0  0
 22 25  1  0  0  0
 23 26  1  0  0  0
 24 27  1  0  0  0
 24 28  1  0  0  0
 19 27  1  0  0  0
 25 26  1  0  0  0
 25 27  1  0  0  0
 26 28  1  0  0  0
  9 10  2  0  0  0
  9 13  1  0  0  0
 13 14  1  0  0  0
 14 15  1  0  0  0
 15 16  1  0  0  0
 16 17  1  0  0  0
 17 20  1  0  0  0
 11  7  1  0  0  0
  7  8  1  0  0  0
  7  3  1  0  0  0
  3  4  2  0  0  0
 46 47  2  0  0  0
 46 45  1  0  0  0
 45 44  1  0  0  0
 44 43  1  0  0  0
 43  1  1  0  0  0
  1  2  1  0  0  0
  2  5  1  0  0  0
 48 50  1  0  0  0
 50 72  1  0  0  0
 50 51  1  0  0  0
 72 73  1  0  0  0
 73 74  1  0  0  0
 74 75  1  0  0  0
 75 77  1  0  0  0
 77 78  1  0  0  0
 77 79  2  0  0  0
 51 52  2  0  0  0
 53 55  1  0  0  0
 55 61  1  0  0  0
 55 56  1  0  0  0
 61 62  1  0  0  0
 62 63  1  0  0  0
 63 64  1  0  0  0
 64 66  1  0  0  0
 66 67  1  0  0  0
 66 68  2  0  0  0
 56 57  2  0  0  0
 19 20  1  0  0  0
  9 11  1  0  0  0
  3  5  1  0  0  0
 46 48  1  0  0  0
 51 53  1  0  0  0
 56 58  1  0  0  0
 37 41  1  0  0  0
 37 42  1  0  0  0
 22 29  1  0  0  0
 23 30  1  0  0  0
 20 21  1  0  0  0
 11 12  1  0  0  0
  5  6  1  0  0  0
 48 49  1  0  0  0
 75 76  1  0  0  0
 78 80  1  0  0  0
 78 81  1  0  0  0
 79 82  1  0  0  0
 53 54  1  0  0  0
 64 65  1  0  0  0
 67 69  1  0  0  0
 67 70  1  0  0  0
 68 71  1  0  0  0
 58 59  1  0  0  0
 58 60  1  0  0  0
M  END
> <minimizedAffinity>
-8.65191

$$$$
3AGL_A03_A_351


 82 84  0  0  0  0  0  0  0  0999 V2000
  -13.8066    6.7980   15.6306 C   0  0  0  0  0  0  0  0  0  0  0  0
  -14.3314    7.3160   14.2994 C   0  0  0  0  0  0  0  0  0  0  0  0
  -14.9487    9.6195   13.7510 C   0  0  0  0  0  0  0  0  0  0  0  0
  -16.0757    9.2998   13.3747 O   0  0  0  0  0  0  0  0  0  0  0  0
  -14.0509    8.7555   14.2157 N   0  0  0  0  0  0  0  0  0  0  0  0
  -13.1736    9.0900   14.5119 H   0  0  0  0  0  0  0  0  0  0  0  0
  -14.5238   11.0992   13.7665 C   0  0  0  0  0  0  0  0  0  0  0  0
  -13.2809   11.2990   14.6624 C   0  0  0  0  0  0  0  0  0  0  0  0
  -13.2851   11.0980   11.6572 C   0  0  0  0  0  0  0  0  0  0  0  0
  -12.4867   10.2414   12.0261 O   0  0  0  0  0  0  0  0  0  0  0  0
  -14.2829   11.5816   12.4134 N   0  0  0  0  0  0  0  0  0  0  0  0
  -14.8681   12.2815   12.0434 H   0  0  0  0  0  0  0  0  0  0  0  0
  -13.1799   11.6930   10.2490 C   0  0  0  0  0  0  0  0  0  0  0  0
  -14.2929   12.7078    9.9664 C   0  0  0  0  0  0  0  0  0  0  0  0
  -14.7803   12.5401    8.5259 C   0  0  0  0  0  0  0  0  0  0  0  0
  -15.6183   11.2853    8.2986 C   0  0  0  0  0  0  0  0  0  0  0  0
  -16.6125   11.2008    9.4636 C   0  0  0  0  0  0  0  0  0  0  0  0
  -15.7361    8.6050   10.1827 O   0  0  0  0  0  0  0  0  0  0  0  0
  -16.8779    8.7663    9.7380 C   0  0  0  0  0  0  0  0  0  0  0  0
  -17.3837    9.9500    9.3825 N   0  0  0  0  0  0  0  0  0  0  0  0
  -18.3106    9.9874    9.0527 H   0  0  0  0  0  0  0  0  0  0  0  0
  -16.8192    5.7318   10.7205 O   0  0  0  0  0  0  0  0  0  0  0  0
  -19.0655    4.9198    9.3131 O   0  0  0  0  0  0  0  0  0  0  0  0
  -18.5013    7.7008    8.2861 O   0  0  0  0  0  0  0  0  0  0  0  0
  -16.9980    6.2734    9.4345 C   0  0  0  0  0  0  0  0  0  0  0  0
  -17.9444    5.4051    8.5809 C   0  0  0  0  0  0  0  0  0  0  0  0
  -17.7951    7.5571    9.5527 C   0  0  0  0  0  0  0  0  0  0  0  0
  -18.4949    6.4155    7.5924 C   0  0  0  0  0  0  0  0  0  0  0  0
  -16.3096    4.9088   10.6568 H   0  0  0  0  0  0  0  0  0  0  0  0
  -18.7677    4.2654    9.9643 H   0  0  0  0  0  0  0  0  0  0  0  0
  -18.5457    5.7478    2.4696 N   0  0  0  0  0  0  0  0  0  0  0  0
  -19.5242    5.5475    3.3483 C   0  0  0  0  0  0  0  0  0  0  0  0
  -19.3592    5.7547    4.6496 N   0  0  0  0  0  0  0  0  0  0  0  0
  -18.1703    6.1927    5.1124 C   0  0  0  0  0  0  0  0  0  0  0  0
  -17.1247    6.4037    4.2212 C   0  0  0  0  0  0  0  0  0  0  0  0
  -17.3302    6.1613    2.8617 C   0  0  0  0  0  0  0  0  0  0  0  0
  -16.3450    6.3544    1.9716 N   0  0  0  0  0  0  0  0  0  0  0  0
  -16.0747    6.8046    4.9287 N   0  0  0  0  0  0  0  0  0  0  0  0
  -16.4334    6.8561    6.2068 C   0  0  0  0  0  0  0  0  0  0  0  0
  -17.7096    6.4851    6.3257 N   0  0  0  0  0  0  0  0  0  0  0  0
  -16.5037    6.1795    1.0159 H   0  0  0  0  0  0  0  0  0  0  0  0
  -15.4633    6.6711    2.2742 H   0  0  0  0  0  0  0  0  0  0  0  0
  -13.8248    7.8589   16.7353 C   0  0  0  0  0  0  0  0  0  0  0  0
  -15.0829    7.7092   17.5916 C   0  0  0  0  0  0  0  0  0  0  0  0
  -15.5533    6.2719   17.7021 C   0  0  0  0  0  0  0  0  0  0  0  0
  -17.0524    6.1809   17.3644 C   0  0  0  0  0  0  0  0  0  0  0  0
  -17.7208    7.2258   17.1342 O   0  0  0  0  0  0  0  0  0  0  0  0
  -17.5435    4.9195   17.3580 N   0  0  0  0  0  0  0  0  0  0  0  0
  -16.9296    4.1790   17.5680 H   0  0  0  0  0  0  0  0  0  0  0  0
  -18.9624    4.5928   17.0502 C   0  0  0  0  0  0  0  0  0  0  0  0
  -19.3220    4.9044   15.5953 C   0  0  0  0  0  0  0  0  0  0  0  0
  -18.8869    4.1931   14.6982 O   0  0  0  0  0  0  0  0  0  0  0  0
  -20.1079    5.9716   15.3963 N   0  0  0  0  0  0  0  0  0  0  0  0
  -20.4236    6.4723   16.1830 H   0  0  0  0  0  0  0  0  0  0  0  0
  -20.5234    6.4339   14.0605 C   0  0  0  0  0  0  0  0  0  0  0  0
  -19.3184    6.6555   13.1272 C   0  0  0  0  0  0  0  0  0  0  0  0
  -19.1466    5.9666   12.1232 O   0  0  0  0  0  0  0  0  0  0  0  0
  -18.5200    7.6462   13.4755 N   0  0  0  0  0  0  0  0  0  0  0  0
  -18.7063    8.1650   14.2911 H   0  0  0  0  0  0  0  0  0  0  0  0
  -17.7379    7.8666   12.9197 H   0  0  0  0  0  0  0  0  0  0  0  0
  -21.4375    5.3988   13.3944 C   0  0  0  0  0  0  0  0  0  0  0  0
  -22.7906    5.2098   14.1025 C   0  0  0  0  0  0  0  0  0  0  0  0
  -23.8961    5.5292   13.0739 C   0  0  0  0  0  0  0  0  0  0  0  0
  -23.3824    5.2354   11.7123 N   0  0  0  0  0  0  0  0  0  0  0  0
  -22.5048    5.5843   11.4341 H   0  0  0  0  0  0  0  0  0  0  0  0
  -24.1045    4.5005   10.8630 C   0  0  0  0  0  0  0  0  0  0  0  0
  -24.6436    3.3434   11.2417 N   0  0  0  0  0  0  0  0  0  0  0  0
  -24.2871    4.9252    9.6194 N   0  0  0  0  0  0  0  0  0  0  0  0
  -24.5149    3.0182   12.1619 H   0  0  0  0  0  0  0  0  0  0  0  0
  -25.1709    2.8131   10.6014 H   0  0  0  0  0  0  0  0  0  0  0  0
  -23.8933    5.7792    9.3281 H   0  0  0  0  0  0  0  0  0  0  0  0
  -19.1842    3.1012   17.3198 C   0  0  0  0  0  0  0  0  0  0  0  0
  -20.5067    2.8736   18.0595 C   0  0  0  0  0  0  0  0  0  0  0  0
  -20.3977    1.5898   18.8916 C   0  0  0  0  0  0  0  0  0  0  0  0
  -19.2119    0.8404   18.4757 N   0  0  0  0  0  0  0  0  0  0  0  0
  -18.3249    1.2281   18.6548 H   0  0  0  0  0  0  0  0  0  0  0  0
  -19.2770   -0.3461   17.8640 C   0  0  0  0  0  0  0  0  0  0  0  0
  -18.5917   -0.4963   16.7200 N   0  0  0  0  0  0  0  0  0  0  0  0
  -20.0253   -1.3290   18.3619 N   0  0  0  0  0  0  0  0  0  0  0  0
  -18.0455    0.2454   16.3723 H   0  0  0  0  0  0  0  0  0  0  0  0
  -18.6350   -1.3482   16.2284 H   0  0  0  0  0  0  0  0  0  0  0  0
  -20.5188   -1.1942   19.2030 H   0  0  0  0  0  0  0  0  0  0  0  0
 31 32  2  0  0  0
 31 36  1  0  0  0
 32 33  1  0  0  0
 33 34  2  0  0  0
 34 35  1  0  0  0
 34 40  1  0  0  0
 35 36  2  0  0  0
 35 38  1  0  0  0
 36 37  1  0  0  0
 38 39  2  0  0  0
 39 40  1  0  0  0
 40 28  1  0  0  0
 18 19  2  0  0  0
 22 25  1  0  0  0
 23 26  1  0  0  0
 24 27  1  0  0  0
 24 28  1  0  0  0
 19 27  1  0  0  0
 25 26  1  0  0  0
 25 27  1  0  0  0
 26 28  1  0  0  0
  9 10  2  0  0  0
  9 13  1  0  0  0
 13 14  1  0  0  0
 14 15  1  0  0  0
 15 16  1  0  0  0
 16 17  1  0  0  0
 17 20  1  0  0  0
 11  7  1  0  0  0
  7  8  1  0  0  0
  7  3  1  0  0  0
  3  4  2  0  0  0
 46 47  2  0  0  0
 46 45  1  0  0  0
 45 44  1  0  0  0
 44 43  1  0  0  0
 43  1  1  0  0  0
  1  2  1  0  0  0
  2  5  1  0  0  0
 48 50  1  0  0  0
 50 72  1  0  0  0
 50 51  1  0  0  0
 72 73  1  0  0  0
 73 74  1  0  0  0
 74 75  1  0  0  0
 75 77  1  0  0  0
 77 78  1  0  0  0
 77 79  2  0  0  0
 51 52  2  0  0  0
 53 55  1  0  0  0
 55 61  1  0  0  0
 55 56  1  0  0  0
 61 62  1  0  0  0
 62 63  1  0  0  0
 63 64  1  0  0  0
 64 66  1  0  0  0
 66 67  1  0  0  0
 66 68  2  0  0  0
 56 57  2  0  0  0
 19 20  1  0  0  0
  9 11  1  0  0  0
  3  5  1  0  0  0
 46 48  1  0  0  0
 51 53  1  0  0  0
 56 58  1  0  0  0
 37 41  1  0  0  0
 37 42  1  0  0  0
 22 29  1  0  0  0
 23 30  1  0  0  0
 20 21  1  0  0  0
 11 12  1  0  0  0
  5  6  1  0  0  0
 48 49  1  0  0  0
 75 76  1  0  0  0
 78 80  1  0  0  0
 78 81  1  0  0  0
 79 82  1  0  0  0
 53 54  1  0  0  0
 64 65  1  0  0  0
 67 69  1  0  0  0
 67 70  1  0  0  0
 68 71  1  0  0  0
 58 59  1  0  0  0
 58 60  1  0  0  0
M  END
> <minimizedAffinity>
-8.38900

$$$$
3AGL_A03_A_351


 82 84  0  0  0  0  0  0  0  0999 V2000
  -16.6880    9.9620   17.0654 C   0  0  0  0  0  0  0  0  0  0  0  0
  -15.1719    9.8319   17.0867 C   0  0  0  0  0  0  0  0  0  0  0  0
  -13.8389    8.6537   15.4065 C   0  0  0  0  0  0  0  0  0  0  0  0
  -13.3793    7.8614   16.2282 O   0  0  0  0  0  0  0  0  0  0  0  0
  -14.7027    9.6178   15.7113 N   0  0  0  0  0  0  0  0  0  0  0  0
  -15.0371   10.2046   14.9950 H   0  0  0  0  0  0  0  0  0  0  0  0
  -13.4763    8.5269   13.9157 C   0  0  0  0  0  0  0  0  0  0  0  0
  -13.9666    7.1755   13.3495 C   0  0  0  0  0  0  0  0  0  0  0  0
  -13.2209   10.5510   12.5661 C   0  0  0  0  0  0  0  0  0  0  0  0
  -11.9946   10.5392   12.6237 O   0  0  0  0  0  0  0  0  0  0  0  0
  -14.0171    9.6456   13.1557 N   0  0  0  0  0  0  0  0  0  0  0  0
  -14.9935    9.7403   13.0722 H   0  0  0  0  0  0  0  0  0  0  0  0
  -13.9444   11.6530   11.7849 C   0  0  0  0  0  0  0  0  0  0  0  0
  -13.5699   11.6482   10.2990 C   0  0  0  0  0  0  0  0  0  0  0  0
  -14.6288   12.4160    9.5052 C   0  0  0  0  0  0  0  0  0  0  0  0
  -15.9532   11.6724    9.3605 C   0  0  0  0  0  0  0  0  0  0  0  0
  -15.6417   10.3487    8.6508 C   0  0  0  0  0  0  0  0  0  0  0  0
  -15.7920    8.3303   10.6323 O   0  0  0  0  0  0  0  0  0  0  0  0
  -16.7144    8.4638    9.8207 C   0  0  0  0  0  0  0  0  0  0  0  0
  -16.7391    9.3907    8.8596 N   0  0  0  0  0  0  0  0  0  0  0  0
  -17.5237    9.4349    8.2665 H   0  0  0  0  0  0  0  0  0  0  0  0
  -17.1479    5.4398   10.7401 O   0  0  0  0  0  0  0  0  0  0  0  0
  -19.8049    5.2717    9.9666 O   0  0  0  0  0  0  0  0  0  0  0  0
  -18.8609    7.9073    8.8400 O   0  0  0  0  0  0  0  0  0  0  0  0
  -17.5092    6.0942    9.5482 C   0  0  0  0  0  0  0  0  0  0  0  0
  -18.8225    5.5306    8.9685 C   0  0  0  0  0  0  0  0  0  0  0  0
  -17.9140    7.5173    9.8768 C   0  0  0  0  0  0  0  0  0  0  0  0
  -19.3426    6.7061    8.1631 C   0  0  0  0  0  0  0  0  0  0  0  0
  -16.8867    4.5270   10.5414 H   0  0  0  0  0  0  0  0  0  0  0  0
  -19.5202    4.5233   10.5141 H   0  0  0  0  0  0  0  0  0  0  0  0
  -15.3704    7.0115    4.8739 N   0  0  0  0  0  0  0  0  0  0  0  0
  -15.3669    7.1135    6.2003 C   0  0  0  0  0  0  0  0  0  0  0  0
  -16.4797    7.0228    6.9192 N   0  0  0  0  0  0  0  0  0  0  0  0
  -17.6601    6.8101    6.3021 C   0  0  0  0  0  0  0  0  0  0  0  0
  -17.6991    6.7074    4.9164 C   0  0  0  0  0  0  0  0  0  0  0  0
  -16.5111    6.8224    4.1920 C   0  0  0  0  0  0  0  0  0  0  0  0
  -16.5093    6.7278    2.8536 N   0  0  0  0  0  0  0  0  0  0  0  0
  -18.9675    6.5258    4.5672 N   0  0  0  0  0  0  0  0  0  0  0  0
  -19.7015    6.5043    5.6743 C   0  0  0  0  0  0  0  0  0  0  0  0
  -18.9109    6.6763    6.7353 N   0  0  0  0  0  0  0  0  0  0  0  0
  -15.6642    6.8109    2.3554 H   0  0  0  0  0  0  0  0  0  0  0  0
  -17.3530    6.5754    2.3698 H   0  0  0  0  0  0  0  0  0  0  0  0
  -17.2231   10.5163   15.7415 C   0  0  0  0  0  0  0  0  0  0  0  0
  -18.1726    9.5090   15.0917 C   0  0  0  0  0  0  0  0  0  0  0  0
  -17.5756    8.8401   13.8688 C   0  0  0  0  0  0  0  0  0  0  0  0
  -17.9924    7.3588   13.8225 C   0  0  0  0  0  0  0  0  0  0  0  0
  -17.2839    6.5139   13.2096 O   0  0  0  0  0  0  0  0  0  0  0  0
  -19.1507    7.0886   14.4687 N   0  0  0  0  0  0  0  0  0  0  0  0
  -19.6283    7.8332   14.9008 H   0  0  0  0  0  0  0  0  0  0  0  0
  -19.7403    5.7253   14.5606 C   0  0  0  0  0  0  0  0  0  0  0  0
  -19.2822    4.9839   15.8190 C   0  0  0  0  0  0  0  0  0  0  0  0
  -18.6854    3.9199   15.7116 O   0  0  0  0  0  0  0  0  0  0  0  0
  -19.5809    5.5652   16.9891 N   0  0  0  0  0  0  0  0  0  0  0  0
  -20.0482    6.4316   16.9743 H   0  0  0  0  0  0  0  0  0  0  0  0
  -19.2456    4.9741   18.2963 C   0  0  0  0  0  0  0  0  0  0  0  0
  -18.6098    6.0044   19.2483 C   0  0  0  0  0  0  0  0  0  0  0  0
  -17.5851    5.7513   19.8792 O   0  0  0  0  0  0  0  0  0  0  0  0
  -19.2305    7.1670   19.3044 N   0  0  0  0  0  0  0  0  0  0  0  0
  -20.0486    7.3142   18.7768 H   0  0  0  0  0  0  0  0  0  0  0  0
  -18.8758    7.8875   19.8739 H   0  0  0  0  0  0  0  0  0  0  0  0
  -20.5064    4.4322   18.9799 C   0  0  0  0  0  0  0  0  0  0  0  0
  -20.8198    2.9636   18.6436 C   0  0  0  0  0  0  0  0  0  0  0  0
  -19.4788    2.1998   18.6273 C   0  0  0  0  0  0  0  0  0  0  0  0
  -19.4053    1.3881   17.3863 N   0  0  0  0  0  0  0  0  0  0  0  0
  -19.7632    1.7489   16.5432 H   0  0  0  0  0  0  0  0  0  0  0  0
  -18.8563    0.1711   17.4080 C   0  0  0  0  0  0  0  0  0  0  0  0
  -18.0206   -0.2233   16.4494 N   0  0  0  0  0  0  0  0  0  0  0  0
  -19.1489   -0.6630   18.3973 N   0  0  0  0  0  0  0  0  0  0  0  0
  -17.7961    0.3870   15.7102 H   0  0  0  0  0  0  0  0  0  0  0  0
  -17.6271   -1.1253   16.4797 H   0  0  0  0  0  0  0  0  0  0  0  0
  -19.7656   -0.3825   19.1116 H   0  0  0  0  0  0  0  0  0  0  0  0
  -21.2663    5.8589   14.5771 C   0  0  0  0  0  0  0  0  0  0  0  0
  -21.8239    5.8970   13.1504 C   0  0  0  0  0  0  0  0  0  0  0  0
  -22.3588    4.5062   12.7872 C   0  0  0  0  0  0  0  0  0  0  0  0
  -22.7234    4.4806   11.3705 N   0  0  0  0  0  0  0  0  0  0  0  0
  -22.0036    4.5165   10.6998 H   0  0  0  0  0  0  0  0  0  0  0  0
  -23.9883    4.4107   10.9446 C   0  0  0  0  0  0  0  0  0  0  0  0
  -24.8979    3.8800   11.7764 N   0  0  0  0  0  0  0  0  0  0  0  0
  -24.3196    4.8250    9.7229 N   0  0  0  0  0  0  0  0  0  0  0  0
  -24.6282    3.5810   12.6748 H   0  0  0  0  0  0  0  0  0  0  0  0
  -25.8350    3.7897   11.4883 H   0  0  0  0  0  0  0  0  0  0  0  0
  -23.6339    5.2109    9.1312 H   0  0  0  0  0  0  0  0  0  0  0  0
 31 32  2  0  0  0
 31 36  1  0  0  0
 32 33  1  0  0  0
 33 34  2  0  0  0
 34 35  1  0  0  0
 34 40  1  0  0  0
 35 36  2  0  0  0
 35 38  1  0  0  0
 36 37  1  0  0  0
 38 39  2  0  0  0
 39 40  1  0  0  0
 40 28  1  0  0  0
 18 19  2  0  0  0
 22 25  1  0  0  0
 23 26  1  0  0  0
 24 27  1  0  0  0
 24 28  1  0  0  0
 19 27  1  0  0  0
 25 26  1  0  0  0
 25 27  1  0  0  0
 26 28  1  0  0  0
  9 10  2  0  0  0
  9 13  1  0  0  0
 13 14  1  0  0  0
 14 15  1  0  0  0
 15 16  1  0  0  0
 16 17  1  0  0  0
 17 20  1  0  0  0
 11  7  1  0  0  0
  7  8  1  0  0  0
  7  3  1  0  0  0
  3  4  2  0  0  0
 46 47  2  0  0  0
 46 45  1  0  0  0
 45 44  1  0  0  0
 44 43  1  0  0  0
 43  1  1  0  0  0
  1  2  1  0  0  0
  2  5  1  0  0  0
 48 50  1  0  0  0
 50 72  1  0  0  0
 50 51  1  0  0  0
 72 73  1  0  0  0
 73 74  1  0  0  0
 74 75  1  0  0  0
 75 77  1  0  0  0
 77 78  1  0  0  0
 77 79  2  0  0  0
 51 52  2  0  0  0
 53 55  1  0  0  0
 55 61  1  0  0  0
 55 56  1  0  0  0
 61 62  1  0  0  0
 62 63  1  0  0  0
 63 64  1  0  0  0
 64 66  1  0  0  0
 66 67  1  0  0  0
 66 68  2  0  0  0
 56 57  2  0  0  0
 19 20  1  0  0  0
  9 11  1  0  0  0
  3  5  1  0  0  0
 46 48  1  0  0  0
 51 53  1  0  0  0
 56 58  1  0  0  0
 37 41  1  0  0  0
 37 42  1  0  0  0
 22 29  1  0  0  0
 23 30  1  0  0  0
 20 21  1  0  0  0
 11 12  1  0  0  0
  5  6  1  0  0  0
 48 49  1  0  0  0
 75 76  1  0  0  0
 78 80  1  0  0  0
 78 81  1  0  0  0
 79 82  1  0  0  0
 53 54  1  0  0  0
 64 65  1  0  0  0
 67 69  1  0  0  0
 67 70  1  0  0  0
 68 71  1  0  0  0
 58 59  1  0  0  0
 58 60  1  0  0  0
M  END
> <minimizedAffinity>
-8.32827

$$$$
3AGL_A03_A_351


 82 84  0  0  0  0  0  0  0  0999 V2000
  -14.0964    6.7487   15.6075 C   0  0  0  0  0  0  0  0  0  0  0  0
  -14.2120    7.0968   14.1306 C   0  0  0  0  0  0  0  0  0  0  0  0
  -13.7972    9.3596   13.2962 C   0  0  0  0  0  0  0  0  0  0  0  0
  -14.9758    9.5358   12.9898 O   0  0  0  0  0  0  0  0  0  0  0  0
  -13.3361    8.2426   13.8515 N   0  0  0  0  0  0  0  0  0  0  0  0
  -12.3809    8.1818   14.0819 H   0  0  0  0  0  0  0  0  0  0  0  0
  -12.7666   10.4875   13.1069 C   0  0  0  0  0  0  0  0  0  0  0  0
  -11.3863    9.9055   12.7288 C   0  0  0  0  0  0  0  0  0  0  0  0
  -13.1303   11.2001   10.7954 C   0  0  0  0  0  0  0  0  0  0  0  0
  -12.6404   10.1828   10.3131 O   0  0  0  0  0  0  0  0  0  0  0  0
  -13.2268   11.4458   12.1112 N   0  0  0  0  0  0  0  0  0  0  0  0
  -13.6195   12.2972   12.4117 H   0  0  0  0  0  0  0  0  0  0  0  0
  -13.6809   12.2984    9.8795 C   0  0  0  0  0  0  0  0  0  0  0  0
  -15.1341   12.6529   10.2123 C   0  0  0  0  0  0  0  0  0  0  0  0
  -16.0466   11.4949    9.8031 C   0  0  0  0  0  0  0  0  0  0  0  0
  -15.7460   10.9305    8.4177 C   0  0  0  0  0  0  0  0  0  0  0  0
  -15.7653    9.4024    8.5492 C   0  0  0  0  0  0  0  0  0  0  0  0
  -16.5325    6.6796    8.4060 O   0  0  0  0  0  0  0  0  0  0  0  0
  -17.2905    7.5546    7.9733 C   0  0  0  0  0  0  0  0  0  0  0  0
  -17.0220    8.8623    8.0064 N   0  0  0  0  0  0  0  0  0  0  0  0
  -17.6924    9.4909    7.6531 H   0  0  0  0  0  0  0  0  0  0  0  0
  -19.1946    5.0023    8.1671 O   0  0  0  0  0  0  0  0  0  0  0  0
  -21.0013    5.8317    6.2347 O   0  0  0  0  0  0  0  0  0  0  0  0
  -18.7352    7.8153    6.0437 O   0  0  0  0  0  0  0  0  0  0  0  0
  -18.6693    5.6684    7.0447 C   0  0  0  0  0  0  0  0  0  0  0  0
  -19.6454    5.6241    5.8517 C   0  0  0  0  0  0  0  0  0  0  0  0
  -18.6224    7.1547    7.3377 C   0  0  0  0  0  0  0  0  0  0  0  0
  -19.2388    6.8555    5.0647 C   0  0  0  0  0  0  0  0  0  0  0  0
  -19.2292    4.0491    7.9905 H   0  0  0  0  0  0  0  0  0  0  0  0
  -21.3138    5.0679    6.7446 H   0  0  0  0  0  0  0  0  0  0  0  0
  -18.4178    5.3905    0.1790 N   0  0  0  0  0  0  0  0  0  0  0  0
  -19.5708    5.5239    0.8290 C   0  0  0  0  0  0  0  0  0  0  0  0
  -19.6258    5.9036    2.1003 N   0  0  0  0  0  0  0  0  0  0  0  0
  -18.4858    6.1774    2.7673 C   0  0  0  0  0  0  0  0  0  0  0  0
  -17.2639    6.0396    2.1192 C   0  0  0  0  0  0  0  0  0  0  0  0
  -17.2437    5.6239    0.7865 C   0  0  0  0  0  0  0  0  0  0  0  0
  -16.0836    5.4804    0.1279 N   0  0  0  0  0  0  0  0  0  0  0  0
  -16.3132    6.3432    2.9954 N   0  0  0  0  0  0  0  0  0  0  0  0
  -16.8981    6.6676    4.1433 C   0  0  0  0  0  0  0  0  0  0  0  0
  -18.2221    6.5694    4.0109 N   0  0  0  0  0  0  0  0  0  0  0  0
  -16.0841    5.1866   -0.8118 H   0  0  0  0  0  0  0  0  0  0  0  0
  -15.2319    5.6689    0.5842 H   0  0  0  0  0  0  0  0  0  0  0  0
  -14.5770    7.8750   16.5278 C   0  0  0  0  0  0  0  0  0  0  0  0
  -15.7148    7.3789   17.4210 C   0  0  0  0  0  0  0  0  0  0  0  0
  -17.0834    7.5853   16.8017 C   0  0  0  0  0  0  0  0  0  0  0  0
  -17.6336    6.2450   16.2813 C   0  0  0  0  0  0  0  0  0  0  0  0
  -17.2337    5.1548   16.7743 O   0  0  0  0  0  0  0  0  0  0  0  0
  -18.5355    6.3677   15.2794 N   0  0  0  0  0  0  0  0  0  0  0  0
  -18.7615    7.2724   14.9637 H   0  0  0  0  0  0  0  0  0  0  0  0
  -19.2035    5.2073   14.6300 C   0  0  0  0  0  0  0  0  0  0  0  0
  -20.7011    5.1566   14.9426 C   0  0  0  0  0  0  0  0  0  0  0  0
  -21.3318    4.1305   14.7204 O   0  0  0  0  0  0  0  0  0  0  0  0
  -21.2376    6.2759   15.4480 N   0  0  0  0  0  0  0  0  0  0  0  0
  -20.6457    7.0460   15.6093 H   0  0  0  0  0  0  0  0  0  0  0  0
  -22.6677    6.4130   15.7746 C   0  0  0  0  0  0  0  0  0  0  0  0
  -22.8862    6.8286   17.2414 C   0  0  0  0  0  0  0  0  0  0  0  0
  -22.3583    7.8352   17.7107 O   0  0  0  0  0  0  0  0  0  0  0  0
  -23.6945    6.0437   17.9274 N   0  0  0  0  0  0  0  0  0  0  0  0
  -24.0895    5.2496   17.5000 H   0  0  0  0  0  0  0  0  0  0  0  0
  -23.9029    6.2520   18.8668 H   0  0  0  0  0  0  0  0  0  0  0  0
  -23.3202    7.4825   14.8908 C   0  0  0  0  0  0  0  0  0  0  0  0
  -24.5229    6.9743   14.0764 C   0  0  0  0  0  0  0  0  0  0  0  0
  -24.0011    6.5956   12.6741 C   0  0  0  0  0  0  0  0  0  0  0  0
  -24.6670    5.3423   12.2379 N   0  0  0  0  0  0  0  0  0  0  0  0
  -25.6267    5.2110   12.4136 H   0  0  0  0  0  0  0  0  0  0  0  0
  -23.9708    4.3925   11.6087 C   0  0  0  0  0  0  0  0  0  0  0  0
  -24.5720    3.5184   10.8040 N   0  0  0  0  0  0  0  0  0  0  0  0
  -22.6588    4.3128   11.7886 N   0  0  0  0  0  0  0  0  0  0  0  0
  -25.5451    3.5678   10.6628 H   0  0  0  0  0  0  0  0  0  0  0  0
  -24.0435    2.8228   10.3501 H   0  0  0  0  0  0  0  0  0  0  0  0
  -22.2033    4.9535   12.3812 H   0  0  0  0  0  0  0  0  0  0  0  0
  -19.0046    5.3208   13.1152 C   0  0  0  0  0  0  0  0  0  0  0  0
  -18.0512    6.4717   12.7772 C   0  0  0  0  0  0  0  0  0  0  0  0
  -18.7583    7.4401   11.8210 C   0  0  0  0  0  0  0  0  0  0  0  0
  -20.1774    7.0931   11.7396 N   0  0  0  0  0  0  0  0  0  0  0  0
  -20.5749    6.5681   12.4715 H   0  0  0  0  0  0  0  0  0  0  0  0
  -20.9589    7.4556   10.7179 C   0  0  0  0  0  0  0  0  0  0  0  0
  -21.3561    6.4976    9.8661 N   0  0  0  0  0  0  0  0  0  0  0  0
  -21.2995    8.7308   10.5399 N   0  0  0  0  0  0  0  0  0  0  0  0
  -21.0912    5.5619   10.0194 H   0  0  0  0  0  0  0  0  0  0  0  0
  -21.9124    6.7305    9.0879 H   0  0  0  0  0  0  0  0  0  0  0  0
  -20.9955    9.4153   11.1789 H   0  0  0  0  0  0  0  0  0  0  0  0
 31 32  2  0  0  0
 31 36  1  0  0  0
 32 33  1  0  0  0
 33 34  2  0  0  0
 34 35  1  0  0  0
 34 40  1  0  0  0
 35 36  2  0  0  0
 35 38  1  0  0  0
 36 37  1  0  0  0
 38 39  2  0  0  0
 39 40  1  0  0  0
 40 28  1  0  0  0
 18 19  2  0  0  0
 22 25  1  0  0  0
 23 26  1  0  0  0
 24 27  1  0  0  0
 24 28  1  0  0  0
 19 27  1  0  0  0
 25 26  1  0  0  0
 25 27  1  0  0  0
 26 28  1  0  0  0
  9 10  2  0  0  0
  9 13  1  0  0  0
 13 14  1  0  0  0
 14 15  1  0  0  0
 15 16  1  0  0  0
 16 17  1  0  0  0
 17 20  1  0  0  0
 11  7  1  0  0  0
  7  8  1  0  0  0
  7  3  1  0  0  0
  3  4  2  0  0  0
 46 47  2  0  0  0
 46 45  1  0  0  0
 45 44  1  0  0  0
 44 43  1  0  0  0
 43  1  1  0  0  0
  1  2  1  0  0  0
  2  5  1  0  0  0
 48 50  1  0  0  0
 50 72  1  0  0  0
 50 51  1  0  0  0
 72 73  1  0  0  0
 73 74  1  0  0  0
 74 75  1  0  0  0
 75 77  1  0  0  0
 77 78  1  0  0  0
 77 79  2  0  0  0
 51 52  2  0  0  0
 53 55  1  0  0  0
 55 61  1  0  0  0
 55 56  1  0  0  0
 61 62  1  0  0  0
 62 63  1  0  0  0
 63 64  1  0  0  0
 64 66  1  0  0  0
 66 67  1  0  0  0
 66 68  2  0  0  0
 56 57  2  0  0  0
 19 20  1  0  0  0
  9 11  1  0  0  0
  3  5  1  0  0  0
 46 48  1  0  0  0
 51 53  1  0  0  0
 56 58  1  0  0  0
 37 41  1  0  0  0
 37 42  1  0  0  0
 22 29  1  0  0  0
 23 30  1  0  0  0
 20 21  1  0  0  0
 11 12  1  0  0  0
  5  6  1  0  0  0
 48 49  1  0  0  0
 75 76  1  0  0  0
 78 80  1  0  0  0
 78 81  1  0  0  0
 79 82  1  0  0  0
 53 54  1  0  0  0
 64 65  1  0  0  0
 67 69  1  0  0  0
 67 70  1  0  0  0
 68 71  1  0  0  0
 58 59  1  0  0  0
 58 60  1  0  0  0
M  END
> <minimizedAffinity>
-8.30861

$$$$
3AGL_A03_A_351


 82 84  0  0  0  0  0  0  0  0999 V2000
  -18.7616    8.9091   14.4227 C   0  0  0  0  0  0  0  0  0  0  0  0
  -17.8087    8.5551   15.5551 C   0  0  0  0  0  0  0  0  0  0  0  0
  -16.7349   10.4206   16.7193 C   0  0  0  0  0  0  0  0  0  0  0  0
  -17.4900   10.3398   17.6874 O   0  0  0  0  0  0  0  0  0  0  0  0
  -16.7977    9.6153   15.6628 N   0  0  0  0  0  0  0  0  0  0  0  0
  -16.1484    9.7332   14.9322 H   0  0  0  0  0  0  0  0  0  0  0  0
  -15.5932   11.4534   16.7065 C   0  0  0  0  0  0  0  0  0  0  0  0
  -15.3328   11.9943   18.1301 C   0  0  0  0  0  0  0  0  0  0  0  0
  -13.8236   11.3835   15.0193 C   0  0  0  0  0  0  0  0  0  0  0  0
  -14.2703   12.3356   14.3858 O   0  0  0  0  0  0  0  0  0  0  0  0
  -14.3848   10.8803   16.1296 N   0  0  0  0  0  0  0  0  0  0  0  0
  -13.9682   10.1024   16.5663 H   0  0  0  0  0  0  0  0  0  0  0  0
  -12.5431   10.6819   14.5540 C   0  0  0  0  0  0  0  0  0  0  0  0
  -12.6139   10.2695   13.0798 C   0  0  0  0  0  0  0  0  0  0  0  0
  -12.7810    8.7517   12.9838 C   0  0  0  0  0  0  0  0  0  0  0  0
  -13.6751    8.1581   14.0684 C   0  0  0  0  0  0  0  0  0  0  0  0
  -14.4636    7.0160   13.4153 C   0  0  0  0  0  0  0  0  0  0  0  0
  -16.0207    5.8126   11.3781 O   0  0  0  0  0  0  0  0  0  0  0  0
  -16.3745    6.8923   11.8644 C   0  0  0  0  0  0  0  0  0  0  0  0
  -15.7138    7.5304   12.8337 N   0  0  0  0  0  0  0  0  0  0  0  0
  -16.0779    8.3798   13.1731 H   0  0  0  0  0  0  0  0  0  0  0  0
  -19.4738    6.1416   11.7747 O   0  0  0  0  0  0  0  0  0  0  0  0
  -20.2734    8.3535   10.3069 O   0  0  0  0  0  0  0  0  0  0  0  0
  -17.2582    8.4553   10.2350 O   0  0  0  0  0  0  0  0  0  0  0  0
  -18.6088    6.5787   10.7549 C   0  0  0  0  0  0  0  0  0  0  0  0
  -19.3500    7.4444    9.7160 C   0  0  0  0  0  0  0  0  0  0  0  0
  -17.6342    7.5817   11.3391 C   0  0  0  0  0  0  0  0  0  0  0  0
  -18.2266    8.2944    9.1535 C   0  0  0  0  0  0  0  0  0  0  0  0
  -20.1027    5.4985   11.4116 H   0  0  0  0  0  0  0  0  0  0  0  0
  -21.0173    7.8589   10.6849 H   0  0  0  0  0  0  0  0  0  0  0  0
  -18.9059    6.7902    4.2578 N   0  0  0  0  0  0  0  0  0  0  0  0
  -19.7941    7.3017    5.1059 C   0  0  0  0  0  0  0  0  0  0  0  0
  -19.4724    7.6357    6.3503 N   0  0  0  0  0  0  0  0  0  0  0  0
  -18.2058    7.4674    6.7826 C   0  0  0  0  0  0  0  0  0  0  0  0
  -17.2557    6.9273    5.9238 C   0  0  0  0  0  0  0  0  0  0  0  0
  -17.6335    6.5741    4.6269 C   0  0  0  0  0  0  0  0  0  0  0  0
  -16.7440    6.0509    3.7694 N   0  0  0  0  0  0  0  0  0  0  0  0
  -16.1129    6.8472    6.5957 N   0  0  0  0  0  0  0  0  0  0  0  0
  -16.3196    7.3207    7.8196 C   0  0  0  0  0  0  0  0  0  0  0  0
  -17.5929    7.7011    7.9400 N   0  0  0  0  0  0  0  0  0  0  0  0
  -17.0241    5.8063    2.8578 H   0  0  0  0  0  0  0  0  0  0  0  0
  -15.8112    5.9115    4.0518 H   0  0  0  0  0  0  0  0  0  0  0  0
  -19.7373   10.0315   14.7896 C   0  0  0  0  0  0  0  0  0  0  0  0
  -20.9376    9.4620   15.5470 C   0  0  0  0  0  0  0  0  0  0  0  0
  -22.0679    9.0398   14.6287 C   0  0  0  0  0  0  0  0  0  0  0  0
  -21.7729    7.6506   14.0346 C   0  0  0  0  0  0  0  0  0  0  0  0
  -21.8617    7.4545   12.7915 O   0  0  0  0  0  0  0  0  0  0  0  0
  -21.4397    6.7142   14.9536 N   0  0  0  0  0  0  0  0  0  0  0  0
  -21.4169    6.9788   15.9016 H   0  0  0  0  0  0  0  0  0  0  0  0
  -21.1061    5.3061   14.6065 C   0  0  0  0  0  0  0  0  0  0  0  0
  -19.7682    4.8671   15.2068 C   0  0  0  0  0  0  0  0  0  0  0  0
  -18.7295    5.0857   14.5958 O   0  0  0  0  0  0  0  0  0  0  0  0
  -19.8277    4.2484   16.3941 N   0  0  0  0  0  0  0  0  0  0  0  0
  -20.7091    4.1338   16.8174 H   0  0  0  0  0  0  0  0  0  0  0  0
  -18.6415    3.7308   17.0983 C   0  0  0  0  0  0  0  0  0  0  0  0
  -18.0208    4.7858   18.0331 C   0  0  0  0  0  0  0  0  0  0  0  0
  -18.3138    4.8408   19.2261 O   0  0  0  0  0  0  0  0  0  0  0  0
  -17.1448    5.5893   17.4610 N   0  0  0  0  0  0  0  0  0  0  0  0
  -16.9489    5.4999   16.5004 H   0  0  0  0  0  0  0  0  0  0  0  0
  -16.6870    6.2784   17.9947 H   0  0  0  0  0  0  0  0  0  0  0  0
  -19.0141    2.5167   17.9572 C   0  0  0  0  0  0  0  0  0  0  0  0
  -20.4583    2.0254   17.7549 C   0  0  0  0  0  0  0  0  0  0  0  0
  -20.5572    0.6189   18.3827 C   0  0  0  0  0  0  0  0  0  0  0  0
  -20.8381   -0.3663   17.3082 N   0  0  0  0  0  0  0  0  0  0  0  0
  -21.6341   -0.2569   16.7393 H   0  0  0  0  0  0  0  0  0  0  0  0
  -20.0167   -1.4001   17.1094 C   0  0  0  0  0  0  0  0  0  0  0  0
  -19.7386   -2.2558   18.0908 N   0  0  0  0  0  0  0  0  0  0  0  0
  -19.4637   -1.5786   15.9167 N   0  0  0  0  0  0  0  0  0  0  0  0
  -20.1430   -2.1334   18.9800 H   0  0  0  0  0  0  0  0  0  0  0  0
  -19.1285   -3.0110   17.9273 H   0  0  0  0  0  0  0  0  0  0  0  0
  -19.6620   -0.9523   15.1834 H   0  0  0  0  0  0  0  0  0  0  0  0
  -22.2221    4.4004   15.1368 C   0  0  0  0  0  0  0  0  0  0  0  0
  -22.8217    3.5580   14.0060 C   0  0  0  0  0  0  0  0  0  0  0  0
  -24.1525    4.1836   13.5704 C   0  0  0  0  0  0  0  0  0  0  0  0
  -23.9103    5.1351   12.4857 N   0  0  0  0  0  0  0  0  0  0  0  0
  -24.0192    6.0958   12.6710 H   0  0  0  0  0  0  0  0  0  0  0  0
  -23.5480    4.7605   11.2550 C   0  0  0  0  0  0  0  0  0  0  0  0
  -22.3615    5.1887   10.7967 N   0  0  0  0  0  0  0  0  0  0  0  0
  -24.3572    4.0156   10.5038 N   0  0  0  0  0  0  0  0  0  0  0  0
  -21.7811    5.7383   11.3714 H   0  0  0  0  0  0  0  0  0  0  0  0
  -22.0716    4.9533    9.8858 H   0  0  0  0  0  0  0  0  0  0  0  0
  -25.2227    3.7137   10.8628 H   0  0  0  0  0  0  0  0  0  0  0  0
 31 32  2  0  0  0
 31 36  1  0  0  0
 32 33  1  0  0  0
 33 34  2  0  0  0
 34 35  1  0  0  0
 34 40  1  0  0  0
 35 36  2  0  0  0
 35 38  1  0  0  0
 36 37  1  0  0  0
 38 39  2  0  0  0
 39 40  1  0  0  0
 40 28  1  0  0  0
 18 19  2  0  0  0
 22 25  1  0  0  0
 23 26  1  0  0  0
 24 27  1  0  0  0
 24 28  1  0  0  0
 19 27  1  0  0  0
 25 26  1  0  0  0
 25 27  1  0  0  0
 26 28  1  0  0  0
  9 10  2  0  0  0
  9 13  1  0  0  0
 13 14  1  0  0  0
 14 15  1  0  0  0
 15 16  1  0  0  0
 16 17  1  0  0  0
 17 20  1  0  0  0
 11  7  1  0  0  0
  7  8  1  0  0  0
  7  3  1  0  0  0
  3  4  2  0  0  0
 46 47  2  0  0  0
 46 45  1  0  0  0
 45 44  1  0  0  0
 44 43  1  0  0  0
 43  1  1  0  0  0
  1  2  1  0  0  0
  2  5  1  0  0  0
 48 50  1  0  0  0
 50 72  1  0  0  0
 50 51  1  0  0  0
 72 73  1  0  0  0
 73 74  1  0  0  0
 74 75  1  0  0  0
 75 77  1  0  0  0
 77 78  1  0  0  0
 77 79  2  0  0  0
 51 52  2  0  0  0
 53 55  1  0  0  0
 55 61  1  0  0  0
 55 56  1  0  0  0
 61 62  1  0  0  0
 62 63  1  0  0  0
 63 64  1  0  0  0
 64 66  1  0  0  0
 66 67  1  0  0  0
 66 68  2  0  0  0
 56 57  2  0  0  0
 19 20  1  0  0  0
  9 11  1  0  0  0
  3  5  1  0  0  0
 46 48  1  0  0  0
 51 53  1  0  0  0
 56 58  1  0  0  0
 37 41  1  0  0  0
 37 42  1  0  0  0
 22 29  1  0  0  0
 23 30  1  0  0  0
 20 21  1  0  0  0
 11 12  1  0  0  0
  5  6  1  0  0  0
 48 49  1  0  0  0
 75 76  1  0  0  0
 78 80  1  0  0  0
 78 81  1  0  0  0
 79 82  1  0  0  0
 53 54  1  0  0  0
 64 65  1  0  0  0
 67 69  1  0  0  0
 67 70  1  0  0  0
 68 71  1  0  0  0
 58 59  1  0  0  0
 58 60  1  0  0  0
M  END
> <minimizedAffinity>
-8.30398

$$$$
3AGL_A03_A_351


 82 84  0  0  0  0  0  0  0  0999 V2000
  -17.3286    7.8572   14.3988 C   0  0  0  0  0  0  0  0  0  0  0  0
  -17.2275    8.5954   13.0718 C   0  0  0  0  0  0  0  0  0  0  0  0
  -15.5827   10.2597   13.7879 C   0  0  0  0  0  0  0  0  0  0  0  0
  -16.3297   10.7283   14.6460 O   0  0  0  0  0  0  0  0  0  0  0  0
  -15.9108    9.2422   12.9970 N   0  0  0  0  0  0  0  0  0  0  0  0
  -15.2527    8.9132   12.3429 H   0  0  0  0  0  0  0  0  0  0  0  0
  -14.1517   10.8026   13.6210 C   0  0  0  0  0  0  0  0  0  0  0  0
  -13.1217    9.8105   14.2057 C   0  0  0  0  0  0  0  0  0  0  0  0
  -13.9994   12.3303   11.7167 C   0  0  0  0  0  0  0  0  0  0  0  0
  -14.3770   13.3064   12.3585 O   0  0  0  0  0  0  0  0  0  0  0  0
  -13.8697   11.0937   12.2220 N   0  0  0  0  0  0  0  0  0  0  0  0
  -13.5760   10.3634   11.6308 H   0  0  0  0  0  0  0  0  0  0  0  0
  -13.6419   12.4752   10.2337 C   0  0  0  0  0  0  0  0  0  0  0  0
  -14.8853   12.4797    9.3380 C   0  0  0  0  0  0  0  0  0  0  0  0
  -15.2229   11.0444    8.9294 C   0  0  0  0  0  0  0  0  0  0  0  0
  -16.5362   10.5287    9.5103 C   0  0  0  0  0  0  0  0  0  0  0  0
  -16.4527    8.9971    9.5004 C   0  0  0  0  0  0  0  0  0  0  0  0
  -16.4120    7.1171    7.3822 O   0  0  0  0  0  0  0  0  0  0  0  0
  -17.4922    7.5521    7.7963 C   0  0  0  0  0  0  0  0  0  0  0  0
  -17.6133    8.4304    8.7949 N   0  0  0  0  0  0  0  0  0  0  0  0
  -18.5161    8.7103    9.0705 H   0  0  0  0  0  0  0  0  0  0  0  0
  -19.2852    4.9189    7.9663 O   0  0  0  0  0  0  0  0  0  0  0  0
  -21.0939    5.6633    6.0014 O   0  0  0  0  0  0  0  0  0  0  0  0
  -18.9143    7.7443    5.8421 O   0  0  0  0  0  0  0  0  0  0  0  0
  -18.7709    5.6048    6.8508 C   0  0  0  0  0  0  0  0  0  0  0  0
  -19.7239    5.5147    5.6417 C   0  0  0  0  0  0  0  0  0  0  0  0
  -18.7943    7.0924    7.1398 C   0  0  0  0  0  0  0  0  0  0  0  0
  -19.3587    6.7610    4.8578 C   0  0  0  0  0  0  0  0  0  0  0  0
  -19.2749    3.9647    7.7921 H   0  0  0  0  0  0  0  0  0  0  0  0
  -21.3811    4.8878    6.5084 H   0  0  0  0  0  0  0  0  0  0  0  0
  -18.3885    5.2777    0.0050 N   0  0  0  0  0  0  0  0  0  0  0  0
  -19.5563    5.3559    0.6375 C   0  0  0  0  0  0  0  0  0  0  0  0
  -19.6502    5.7492    1.9023 N   0  0  0  0  0  0  0  0  0  0  0  0
  -18.5367    6.0945    2.5807 C   0  0  0  0  0  0  0  0  0  0  0  0
  -17.2999    6.0158    1.9512 C   0  0  0  0  0  0  0  0  0  0  0  0
  -17.2379    5.5840    0.6249 C   0  0  0  0  0  0  0  0  0  0  0  0
  -16.0623    5.4960   -0.0158 N   0  0  0  0  0  0  0  0  0  0  0  0
  -16.3800    6.3834    2.8358 N   0  0  0  0  0  0  0  0  0  0  0  0
  -16.9982    6.6905    3.9709 C   0  0  0  0  0  0  0  0  0  0  0  0
  -18.3128    6.5174    3.8221 N   0  0  0  0  0  0  0  0  0  0  0  0
  -16.0332    5.1900   -0.9511 H   0  0  0  0  0  0  0  0  0  0  0  0
  -15.2289    5.7375    0.4492 H   0  0  0  0  0  0  0  0  0  0  0  0
  -18.7731    7.5474   14.8034 C   0  0  0  0  0  0  0  0  0  0  0  0
  -19.2295    6.2329   14.1691 C   0  0  0  0  0  0  0  0  0  0  0  0
  -20.1263    5.4184   15.0811 C   0  0  0  0  0  0  0  0  0  0  0  0
  -19.2718    4.5961   16.0627 C   0  0  0  0  0  0  0  0  0  0  0  0
  -18.4109    3.7802   15.6329 O   0  0  0  0  0  0  0  0  0  0  0  0
  -19.5481    4.8288   17.3672 N   0  0  0  0  0  0  0  0  0  0  0  0
  -20.2542    5.4792   17.5855 H   0  0  0  0  0  0  0  0  0  0  0  0
  -18.8410    4.1533   18.4890 C   0  0  0  0  0  0  0  0  0  0  0  0
  -17.9794    5.1278   19.2959 C   0  0  0  0  0  0  0  0  0  0  0  0
  -18.0962    5.1735   20.5142 O   0  0  0  0  0  0  0  0  0  0  0  0
  -17.1343    5.8926   18.5911 N   0  0  0  0  0  0  0  0  0  0  0  0
  -17.0979    5.7711   17.6148 H   0  0  0  0  0  0  0  0  0  0  0  0
  -16.2568    6.9060   19.2025 C   0  0  0  0  0  0  0  0  0  0  0  0
  -14.8766    6.9594   18.5209 C   0  0  0  0  0  0  0  0  0  0  0  0
  -14.0032    7.7394   18.8962 O   0  0  0  0  0  0  0  0  0  0  0  0
  -14.7070    6.0943   17.5397 N   0  0  0  0  0  0  0  0  0  0  0  0
  -15.4424    5.4929   17.2811 H   0  0  0  0  0  0  0  0  0  0  0  0
  -13.8451    6.0500   17.0660 H   0  0  0  0  0  0  0  0  0  0  0  0
  -16.8831    8.3004   19.0842 C   0  0  0  0  0  0  0  0  0  0  0  0
  -16.8261    9.1252   20.3821 C   0  0  0  0  0  0  0  0  0  0  0  0
  -15.7795   10.2400   20.1725 C   0  0  0  0  0  0  0  0  0  0  0  0
  -15.6153   10.4747   18.7157 N   0  0  0  0  0  0  0  0  0  0  0  0
  -16.3016   10.1529   18.0874 H   0  0  0  0  0  0  0  0  0  0  0  0
  -14.5417   11.1200   18.2533 C   0  0  0  0  0  0  0  0  0  0  0  0
  -14.5812   11.7805   17.0978 N   0  0  0  0  0  0  0  0  0  0  0  0
  -13.4140   11.1019   18.9521 N   0  0  0  0  0  0  0  0  0  0  0  0
  -15.4124   11.8009   16.5707 H   0  0  0  0  0  0  0  0  0  0  0  0
  -13.7792   12.2485   16.7707 H   0  0  0  0  0  0  0  0  0  0  0  0
  -13.3729   10.6168   19.8078 H   0  0  0  0  0  0  0  0  0  0  0  0
  -19.8891    3.5201   19.4094 C   0  0  0  0  0  0  0  0  0  0  0  0
  -20.4066    2.2041   18.8192 C   0  0  0  0  0  0  0  0  0  0  0  0
  -19.2273    1.4302   18.2172 C   0  0  0  0  0  0  0  0  0  0  0  0
  -19.5636    0.0079   18.1490 N   0  0  0  0  0  0  0  0  0  0  0  0
  -20.0758   -0.3894   18.8900 H   0  0  0  0  0  0  0  0  0  0  0  0
  -19.2078   -0.7771   17.1275 C   0  0  0  0  0  0  0  0  0  0  0  0
  -18.1335   -0.4163   16.4086 N   0  0  0  0  0  0  0  0  0  0  0  0
  -19.9200   -1.8597   16.8201 N   0  0  0  0  0  0  0  0  0  0  0  0
  -17.6233    0.3885   16.6560 H   0  0  0  0  0  0  0  0  0  0  0  0
  -17.8556   -0.9565   15.6339 H   0  0  0  0  0  0  0  0  0  0  0  0
  -20.7042   -2.1035   17.3631 H   0  0  0  0  0  0  0  0  0  0  0  0
 31 32  2  0  0  0
 31 36  1  0  0  0
 32 33  1  0  0  0
 33 34  2  0  0  0
 34 35  1  0  0  0
 34 40  1  0  0  0
 35 36  2  0  0  0
 35 38  1  0  0  0
 36 37  1  0  0  0
 38 39  2  0  0  0
 39 40  1  0  0  0
 40 28  1  0  0  0
 18 19  2  0  0  0
 22 25  1  0  0  0
 23 26  1  0  0  0
 24 27  1  0  0  0
 24 28  1  0  0  0
 19 27  1  0  0  0
 25 26  1  0  0  0
 25 27  1  0  0  0
 26 28  1  0  0  0
  9 10  2  0  0  0
  9 13  1  0  0  0
 13 14  1  0  0  0
 14 15  1  0  0  0
 15 16  1  0  0  0
 16 17  1  0  0  0
 17 20  1  0  0  0
 11  7  1  0  0  0
  7  8  1  0  0  0
  7  3  1  0  0  0
  3  4  2  0  0  0
 46 47  2  0  0  0
 46 45  1  0  0  0
 45 44  1  0  0  0
 44 43  1  0  0  0
 43  1  1  0  0  0
  1  2  1  0  0  0
  2  5  1  0  0  0
 48 50  1  0  0  0
 50 72  1  0  0  0
 50 51  1  0  0  0
 72 73  1  0  0  0
 73 74  1  0  0  0
 74 75  1  0  0  0
 75 77  1  0  0  0
 77 78  1  0  0  0
 77 79  2  0  0  0
 51 52  2  0  0  0
 53 55  1  0  0  0
 55 61  1  0  0  0
 55 56  1  0  0  0
 61 62  1  0  0  0
 62 63  1  0  0  0
 63 64  1  0  0  0
 64 66  1  0  0  0
 66 67  1  0  0  0
 66 68  2  0  0  0
 56 57  2  0  0  0
 19 20  1  0  0  0
  9 11  1  0  0  0
  3  5  1  0  0  0
 46 48  1  0  0  0
 51 53  1  0  0  0
 56 58  1  0  0  0
 37 41  1  0  0  0
 37 42  1  0  0  0
 22 29  1  0  0  0
 23 30  1  0  0  0
 20 21  1  0  0  0
 11 12  1  0  0  0
  5  6  1  0  0  0
 48 49  1  0  0  0
 75 76  1  0  0  0
 78 80  1  0  0  0
 78 81  1  0  0  0
 79 82  1  0  0  0
 53 54  1  0  0  0
 64 65  1  0  0  0
 67 69  1  0  0  0
 67 70  1  0  0  0
 68 71  1  0  0  0
 58 59  1  0  0  0
 58 60  1  0  0  0
M  END
> <minimizedAffinity>
-8.29982

$$$$
