4KWG_2AK_A_601


 14 15  0  0  0  0  0  0  0  0999 V2000
    3.2621  -26.5991   50.8853 Br  0  0  0  0  0  0  0  0  0  0  0  0
    3.3066  -27.4914   49.2265 C   0  0  0  0  0  0  0  0  0  0  0  0
    4.4793  -27.6256   48.4805 C   0  0  0  0  0  0  0  0  0  0  0  0
    4.4991  -28.2941   47.2478 C   0  0  0  0  0  0  0  0  0  0  0  0
    5.7967  -28.4052   46.4912 C   0  0  0  0  0  0  0  0  0  0  0  0
    3.3435  -28.8608   46.7022 C   0  0  0  0  0  0  0  0  0  0  0  0
    2.0474  -28.0649   48.7152 C   0  0  0  0  0  0  0  0  0  0  0  0
    0.7758  -28.0953   49.2042 N   0  0  0  0  0  0  0  0  0  0  0  0
    0.0089  -28.7612   48.3263 C   0  0  0  0  0  0  0  0  0  0  0  0
   -1.2487  -28.9678   48.4642 O   0  0  0  0  0  0  0  0  0  0  0  0
    0.7812  -29.2004   47.1628 C   0  0  0  0  0  0  0  0  0  0  0  0
    2.1527  -28.7566   47.4024 C   0  0  0  0  0  0  0  0  0  0  0  0
    0.3530  -29.8621   46.1556 O   0  0  0  0  0  0  0  0  0  0  0  0
    0.4726  -27.6984   50.0526 H   0  0  0  0  0  0  0  0  0  0  0  0
  1  2  1  0  0  0
  3  2  2  0  0  0
  3  4  1  0  0  0
  2  7  1  0  0  0
  5  4  1  0  0  0
  4  6  2  0  0  0
  7  8  1  0  0  0
  7 12  2  0  0  0
  8  9  1  0  0  0
  6 12  1  0  0  0
 12 11  1  0  0  0
  9 11  1  0  0  0
  9 10  2  0  0  0
 11 13  2  0  0  0
  8 14  1  0  0  0
M  END
> <minimizedAffinity>
-6.40652

$$$$
4KWG_2AK_A_601


 14 15  0  0  0  0  0  0  0  0999 V2000
    3.9212  -26.2731   50.2806 Br  0  0  0  0  0  0  0  0  0  0  0  0
    2.5931  -27.2318   49.3496 C   0  0  0  0  0  0  0  0  0  0  0  0
    2.8932  -28.0833   48.2844 C   0  0  0  0  0  0  0  0  0  0  0  0
    1.8950  -28.7929   47.6010 C   0  0  0  0  0  0  0  0  0  0  0  0
    2.2837  -29.6959   46.4599 C   0  0  0  0  0  0  0  0  0  0  0  0
    0.5464  -28.6833   47.9522 C   0  0  0  0  0  0  0  0  0  0  0  0
    1.1914  -27.0662   49.7782 C   0  0  0  0  0  0  0  0  0  0  0  0
    0.6025  -26.3263   50.7594 N   0  0  0  0  0  0  0  0  0  0  0  0
   -0.7198  -26.5542   50.7145 C   0  0  0  0  0  0  0  0  0  0  0  0
   -1.5819  -26.0093   51.4911 O   0  0  0  0  0  0  0  0  0  0  0  0
   -1.0687  -27.4845   49.6395 C   0  0  0  0  0  0  0  0  0  0  0  0
    0.1942  -27.8520   49.0029 C   0  0  0  0  0  0  0  0  0  0  0  0
   -2.2350  -27.9127   49.3358 O   0  0  0  0  0  0  0  0  0  0  0  0
    1.0655  -25.7292   51.3905 H   0  0  0  0  0  0  0  0  0  0  0  0
  1  2  1  0  0  0
  3  2  2  0  0  0
  3  4  1  0  0  0
  2  7  1  0  0  0
  5  4  1  0  0  0
  4  6  2  0  0  0
  7  8  1  0  0  0
  7 12  2  0  0  0
  8  9  1  0  0  0
  6 12  1  0  0  0
 12 11  1  0  0  0
  9 11  1  0  0  0
  9 10  2  0  0  0
 11 13  2  0  0  0
  8 14  1  0  0  0
M  END
> <minimizedAffinity>
-6.06029

$$$$
4KWG_2AK_A_601


 14 15  0  0  0  0  0  0  0  0999 V2000
    0.8680  -29.5350   46.6723 Br  0  0  0  0  0  0  0  0  0  0  0  0
    1.4909  -28.4170   48.0549 C   0  0  0  0  0  0  0  0  0  0  0  0
    2.8505  -28.1895   48.2779 C   0  0  0  0  0  0  0  0  0  0  0  0
    3.3009  -27.3532   49.3096 C   0  0  0  0  0  0  0  0  0  0  0  0
    4.7811  -27.1485   49.4983 C   0  0  0  0  0  0  0  0  0  0  0  0
    2.4099  -26.7037   50.1689 C   0  0  0  0  0  0  0  0  0  0  0  0
    0.4908  -27.7646   48.9210 C   0  0  0  0  0  0  0  0  0  0  0  0
   -0.8714  -27.7916   48.9486 N   0  0  0  0  0  0  0  0  0  0  0  0
   -1.2823  -27.0006   49.9524 C   0  0  0  0  0  0  0  0  0  0  0  0
   -2.5078  -26.8035   50.2725 O   0  0  0  0  0  0  0  0  0  0  0  0
   -0.1507  -26.4083   50.6677 C   0  0  0  0  0  0  0  0  0  0  0  0
    1.0494  -26.8948   49.9907 C   0  0  0  0  0  0  0  0  0  0  0  0
   -0.1994  -25.6063   51.6628 O   0  0  0  0  0  0  0  0  0  0  0  0
   -1.4523  -28.3019   48.3391 H   0  0  0  0  0  0  0  0  0  0  0  0
  1  2  1  0  0  0
  3  2  2  0  0  0
  3  4  1  0  0  0
  2  7  1  0  0  0
  5  4  1  0  0  0
  4  6  2  0  0  0
  7  8  1  0  0  0
  7 12  2  0  0  0
  8  9  1  0  0  0
  6 12  1  0  0  0
 12 11  1  0  0  0
  9 11  1  0  0  0
  9 10  2  0  0  0
 11 13  2  0  0  0
  8 14  1  0  0  0
M  END
> <minimizedAffinity>
-5.70706

$$$$
4KWG_2AK_A_601


 14 15  0  0  0  0  0  0  0  0999 V2000
    5.1546  -28.4185   46.5549 Br  0  0  0  0  0  0  0  0  0  0  0  0
    3.7720  -28.0988   47.7943 C   0  0  0  0  0  0  0  0  0  0  0  0
    3.9838  -27.4089   48.9897 C   0  0  0  0  0  0  0  0  0  0  0  0
    2.9452  -27.1759   49.9029 C   0  0  0  0  0  0  0  0  0  0  0  0
    3.2383  -26.4249   51.1752 C   0  0  0  0  0  0  0  0  0  0  0  0
    1.6430  -27.6235   49.6624 C   0  0  0  0  0  0  0  0  0  0  0  0
    2.4231  -28.6006   47.4710 C   0  0  0  0  0  0  0  0  0  0  0  0
    1.9195  -29.2897   46.4087 N   0  0  0  0  0  0  0  0  0  0  0  0
    0.6093  -29.4871   46.6250 C   0  0  0  0  0  0  0  0  0  0  0  0
   -0.1760  -30.1148   45.8298 O   0  0  0  0  0  0  0  0  0  0  0  0
    0.1853  -28.9228   47.9075 C   0  0  0  0  0  0  0  0  0  0  0  0
    1.3785  -28.3130   48.4904 C   0  0  0  0  0  0  0  0  0  0  0  0
   -0.9928  -28.9336   48.4052 O   0  0  0  0  0  0  0  0  0  0  0  0
    2.4274  -29.5900   45.6206 H   0  0  0  0  0  0  0  0  0  0  0  0
  1  2  1  0  0  0
  3  2  2  0  0  0
  3  4  1  0  0  0
  2  7  1  0  0  0
  5  4  1  0  0  0
  4  6  2  0  0  0
  7  8  1  0  0  0
  7 12  2  0  0  0
  8  9  1  0  0  0
  6 12  1  0  0  0
 12 11  1  0  0  0
  9 11  1  0  0  0
  9 10  2  0  0  0
 11 13  2  0  0  0
  8 14  1  0  0  0
M  END
> <minimizedAffinity>
-5.62468

$$$$
4KWG_2AK_A_601


 14 15  0  0  0  0  0  0  0  0999 V2000
    0.5215  -29.6292   46.5272 Br  0  0  0  0  0  0  0  0  0  0  0  0
    2.0195  -28.8344   47.3483 C   0  0  0  0  0  0  0  0  0  0  0  0
    3.3095  -28.9544   46.8275 C   0  0  0  0  0  0  0  0  0  0  0  0
    4.4159  -28.3559   47.4475 C   0  0  0  0  0  0  0  0  0  0  0  0
    5.7821  -28.5225   46.8357 C   0  0  0  0  0  0  0  0  0  0  0  0
    4.2831  -27.6076   48.6208 C   0  0  0  0  0  0  0  0  0  0  0  0
    1.8011  -28.0585   48.5837 C   0  0  0  0  0  0  0  0  0  0  0  0
    0.6868  -27.7697   49.3131 N   0  0  0  0  0  0  0  0  0  0  0  0
    1.0585  -27.0112   50.3565 C   0  0  0  0  0  0  0  0  0  0  0  0
    0.2621  -26.5673   51.2576 O   0  0  0  0  0  0  0  0  0  0  0  0
    2.5032  -26.7753   50.3620 C   0  0  0  0  0  0  0  0  0  0  0  0
    3.0243  -27.4568   49.1790 C   0  0  0  0  0  0  0  0  0  0  0  0
    3.1714  -26.0898   51.2102 O   0  0  0  0  0  0  0  0  0  0  0  0
   -0.2301  -28.0654   49.1103 H   0  0  0  0  0  0  0  0  0  0  0  0
  1  2  1  0  0  0
  3  2  2  0  0  0
  3  4  1  0  0  0
  2  7  1  0  0  0
  5  4  1  0  0  0
  4  6  2  0  0  0
  7  8  1  0  0  0
  7 12  2  0  0  0
  8  9  1  0  0  0
  6 12  1  0  0  0
 12 11  1  0  0  0
  9 11  1  0  0  0
  9 10  2  0  0  0
 11 13  2  0  0  0
  8 14  1  0  0  0
M  END
> <minimizedAffinity>
-5.49246

$$$$
4KWG_2AK_A_601


 14 15  0  0  0  0  0  0  0  0999 V2000
   -1.4407  -27.2555   50.3946 Br  0  0  0  0  0  0  0  0  0  0  0  0
    0.3371  -27.4143   49.7914 C   0  0  0  0  0  0  0  0  0  0  0  0
    1.4102  -26.8238   50.4619 C   0  0  0  0  0  0  0  0  0  0  0  0
    2.7293  -26.9515   50.0032 C   0  0  0  0  0  0  0  0  0  0  0  0
    3.8433  -26.2905   50.7718 C   0  0  0  0  0  0  0  0  0  0  0  0
    3.0373  -27.6776   48.8491 C   0  0  0  0  0  0  0  0  0  0  0  0
    0.5847  -28.1973   48.5660 C   0  0  0  0  0  0  0  0  0  0  0  0
   -0.2371  -28.8748   47.7159 N   0  0  0  0  0  0  0  0  0  0  0  0
    0.5214  -29.4218   46.7527 C   0  0  0  0  0  0  0  0  0  0  0  0
    0.0713  -30.1204   45.7767 O   0  0  0  0  0  0  0  0  0  0  0  0
    1.9369  -29.0949   46.9325 C   0  0  0  0  0  0  0  0  0  0  0  0
    2.0092  -28.2843   48.1462 C   0  0  0  0  0  0  0  0  0  0  0  0
    2.9154  -29.4652   46.1969 O   0  0  0  0  0  0  0  0  0  0  0  0
   -1.2156  -28.9499   47.7944 H   0  0  0  0  0  0  0  0  0  0  0  0
  1  2  1  0  0  0
  3  2  2  0  0  0
  3  4  1  0  0  0
  2  7  1  0  0  0
  5  4  1  0  0  0
  4  6  2  0  0  0
  7  8  1  0  0  0
  7 12  2  0  0  0
  8  9  1  0  0  0
  6 12  1  0  0  0
 12 11  1  0  0  0
  9 11  1  0  0  0
  9 10  2  0  0  0
 11 13  2  0  0  0
  8 14  1  0  0  0
M  END
> <minimizedAffinity>
-4.91241

$$$$
4KWG_2AK_A_601


 14 15  0  0  0  0  0  0  0  0999 V2000
    3.4637  -26.5160   50.5363 Br  0  0  0  0  0  0  0  0  0  0  0  0
    1.6635  -26.9659   50.2097 C   0  0  0  0  0  0  0  0  0  0  0  0
    0.6208  -26.5169   51.0227 C   0  0  0  0  0  0  0  0  0  0  0  0
   -0.7154  -26.8576   50.7672 C   0  0  0  0  0  0  0  0  0  0  0  0
   -1.7947  -26.3410   51.6820 C   0  0  0  0  0  0  0  0  0  0  0  0
   -1.0719  -27.6657   49.6837 C   0  0  0  0  0  0  0  0  0  0  0  0
    1.3642  -27.8221   49.0463 C   0  0  0  0  0  0  0  0  0  0  0  0
    2.1485  -28.3996   48.0932 N   0  0  0  0  0  0  0  0  0  0  0  0
    1.3504  -29.0792   47.2544 C   0  0  0  0  0  0  0  0  0  0  0  0
    1.7583  -29.7549   46.2444 O   0  0  0  0  0  0  0  0  0  0  0  0
   -0.0548  -28.9832   47.6534 C   0  0  0  0  0  0  0  0  0  0  0  0
   -0.0755  -28.1376   48.8449 C   0  0  0  0  0  0  0  0  0  0  0  0
   -1.0629  -29.5065   47.0654 O   0  0  0  0  0  0  0  0  0  0  0  0
    3.1286  -28.3306   48.0307 H   0  0  0  0  0  0  0  0  0  0  0  0
  1  2  1  0  0  0
  3  2  2  0  0  0
  3  4  1  0  0  0
  2  7  1  0  0  0
  5  4  1  0  0  0
  4  6  2  0  0  0
  7  8  1  0  0  0
  7 12  2  0  0  0
  8  9  1  0  0  0
  6 12  1  0  0  0
 12 11  1  0  0  0
  9 11  1  0  0  0
  9 10  2  0  0  0
 11 13  2  0  0  0
  8 14  1  0  0  0
M  END
> <minimizedAffinity>
-4.90828

$$$$
4KWG_2AK_A_601


 14 15  0  0  0  0  0  0  0  0999 V2000
    0.0022  -29.5226   46.7520 Br  0  0  0  0  0  0  0  0  0  0  0  0
    0.8491  -28.4681   48.0637 C   0  0  0  0  0  0  0  0  0  0  0  0
    0.1373  -27.8098   49.0686 C   0  0  0  0  0  0  0  0  0  0  0  0
    0.7803  -27.0295   50.0404 C   0  0  0  0  0  0  0  0  0  0  0  0
   -0.0443  -26.3445   51.0984 C   0  0  0  0  0  0  0  0  0  0  0  0
    2.1691  -26.8706   50.0522 C   0  0  0  0  0  0  0  0  0  0  0  0
    2.3184  -28.3481   48.0126 C   0  0  0  0  0  0  0  0  0  0  0  0
    3.2626  -28.8609   47.1743 N   0  0  0  0  0  0  0  0  0  0  0  0
    4.4649  -28.4340   47.5921 C   0  0  0  0  0  0  0  0  0  0  0  0
    5.5786  -28.7174   47.0243 O   0  0  0  0  0  0  0  0  0  0  0  0
    4.3496  -27.5691   48.7675 C   0  0  0  0  0  0  0  0  0  0  0  0
    2.9230  -27.5033   49.0773 C   0  0  0  0  0  0  0  0  0  0  0  0
    5.3019  -27.0083   49.4112 O   0  0  0  0  0  0  0  0  0  0  0  0
    3.0928  -29.4425   46.3983 H   0  0  0  0  0  0  0  0  0  0  0  0
  1  2  1  0  0  0
  3  2  2  0  0  0
  3  4  1  0  0  0
  2  7  1  0  0  0
  5  4  1  0  0  0
  4  6  2  0  0  0
  7  8  1  0  0  0
  7 12  2  0  0  0
  8  9  1  0  0  0
  6 12  1  0  0  0
 12 11  1  0  0  0
  9 11  1  0  0  0
  9 10  2  0  0  0
 11 13  2  0  0  0
  8 14  1  0  0  0
M  END
> <minimizedAffinity>
-4.76583

$$$$
4KWG_2AK_A_601


 14 15  0  0  0  0  0  0  0  0999 V2000
    3.3169  -26.1921   51.4004 Br  0  0  0  0  0  0  0  0  0  0  0  0
    2.2934  -27.1228   50.1214 C   0  0  0  0  0  0  0  0  0  0  0  0
    0.9091  -27.2685   50.2331 C   0  0  0  0  0  0  0  0  0  0  0  0
    0.1587  -27.9621   49.2726 C   0  0  0  0  0  0  0  0  0  0  0  0
   -1.3320  -28.0842   49.4505 C   0  0  0  0  0  0  0  0  0  0  0  0
    0.7596  -28.5443   48.1528 C   0  0  0  0  0  0  0  0  0  0  0  0
    2.9974  -27.7094   48.9655 C   0  0  0  0  0  0  0  0  0  0  0  0
    4.3075  -27.7321   48.5910 N   0  0  0  0  0  0  0  0  0  0  0  0
    4.3971  -28.4070   47.4339 C   0  0  0  0  0  0  0  0  0  0  0  0
    5.4893  -28.6309   46.8014 O   0  0  0  0  0  0  0  0  0  0  0  0
    3.0884  -28.8912   46.9913 C   0  0  0  0  0  0  0  0  0  0  0  0
    2.1308  -28.4286   47.9935 C   0  0  0  0  0  0  0  0  0  0  0  0
    2.8287  -29.5574   45.9309 O   0  0  0  0  0  0  0  0  0  0  0  0
    5.0569  -27.3250   49.0827 H   0  0  0  0  0  0  0  0  0  0  0  0
  1  2  1  0  0  0
  3  2  2  0  0  0
  3  4  1  0  0  0
  2  7  1  0  0  0
  5  4  1  0  0  0
  4  6  2  0  0  0
  7  8  1  0  0  0
  7 12  2  0  0  0
  8  9  1  0  0  0
  6 12  1  0  0  0
 12 11  1  0  0  0
  9 11  1  0  0  0
  9 10  2  0  0  0
 11 13  2  0  0  0
  8 14  1  0  0  0
M  END
> <minimizedAffinity>
-4.72541

$$$$
4KWG_2AK_A_601


 14 15  0  0  0  0  0  0  0  0999 V2000
   -0.1697  -29.4008   47.0065 Br  0  0  0  0  0  0  0  0  0  0  0  0
    0.1191  -28.2625   48.4797 C   0  0  0  0  0  0  0  0  0  0  0  0
   -0.9264  -27.7855   49.2729 C   0  0  0  0  0  0  0  0  0  0  0  0
   -0.6974  -26.9401   50.3682 C   0  0  0  0  0  0  0  0  0  0  0  0
   -1.8683  -26.4597   51.1848 C   0  0  0  0  0  0  0  0  0  0  0  0
    0.5916  -26.5311   50.7220 C   0  0  0  0  0  0  0  0  0  0  0  0
    1.5074  -27.8744   48.7927 C   0  0  0  0  0  0  0  0  0  0  0  0
    2.7063  -28.1726   48.2173 N   0  0  0  0  0  0  0  0  0  0  0  0
    3.6687  -27.5504   48.9165 C   0  0  0  0  0  0  0  0  0  0  0  0
    4.9201  -27.6031   48.6437 O   0  0  0  0  0  0  0  0  0  0  0  0
    3.1106  -26.7684   50.0211 C   0  0  0  0  0  0  0  0  0  0  0  0
    1.6651  -26.9764   49.9681 C   0  0  0  0  0  0  0  0  0  0  0  0
    3.7551  -26.0693   50.8764 O   0  0  0  0  0  0  0  0  0  0  0  0
    2.8427  -28.7441   47.4274 H   0  0  0  0  0  0  0  0  0  0  0  0
  1  2  1  0  0  0
  3  2  2  0  0  0
  3  4  1  0  0  0
  2  7  1  0  0  0
  5  4  1  0  0  0
  4  6  2  0  0  0
  7  8  1  0  0  0
  7 12  2  0  0  0
  8  9  1  0  0  0
  6 12  1  0  0  0
 12 11  1  0  0  0
  9 11  1  0  0  0
  9 10  2  0  0  0
 11 13  2  0  0  0
  8 14  1  0  0  0
M  END
> <minimizedAffinity>
-4.44688

$$$$
