5D48_L96_A_201


 36 40  0  0  0  0  0  0  0  0999 V2000
    5.5322    7.7091   17.3931 N   0  0  0  0  0  0  0  0  0  0  0  0
    4.1915    7.6278   17.0360 C   0  0  0  0  0  0  0  0  0  0  0  0
    3.4352    7.1728   18.1746 C   0  0  0  0  0  0  0  0  0  0  0  0
    4.3689    7.0004   19.2814 C   0  0  0  0  0  0  0  0  0  0  0  0
    4.1919    6.6912   20.6282 C   0  0  0  0  0  0  0  0  0  0  0  0
    5.2651    6.7064   21.4755 C   0  0  0  0  0  0  0  0  0  0  0  0
    6.5578    7.0104   20.9704 C   0  0  0  0  0  0  0  0  0  0  0  0
    6.7535    7.3983   19.6350 C   0  0  0  0  0  0  0  0  0  0  0  0
    5.6927    7.4163   18.7181 C   0  0  0  0  0  0  0  0  0  0  0  0
    1.9239    6.9326   18.2042 C   0  0  0  0  0  0  0  0  0  0  0  0
    0.9026    7.9510   18.0652 C   0  0  0  0  0  0  0  0  0  0  0  0
    1.1449    9.4377   17.9744 C   0  0  0  0  0  0  0  0  0  0  0  0
   -0.3082    7.2792   18.0529 N   0  0  0  0  0  0  0  0  0  0  0  0
   -0.0589    5.9022   18.1628 N   0  0  0  0  0  0  0  0  0  0  0  0
    1.2782    5.6179   18.2318 C   0  0  0  0  0  0  0  0  0  0  0  0
    1.9166    4.2675   18.3907 C   0  0  0  0  0  0  0  0  0  0  0  0
   -1.1963    7.6978   17.9792 H   0  0  0  0  0  0  0  0  0  0  0  0
    3.6533    7.9171   15.6772 C   0  0  0  0  0  0  0  0  0  0  0  0
    3.2662    6.9516   14.7469 C   0  0  0  0  0  0  0  0  0  0  0  0
    2.7228    7.3647   13.4921 C   0  0  0  0  0  0  0  0  0  0  0  0
    2.6560    8.7454   13.1743 C   0  0  0  0  0  0  0  0  0  0  0  0
    3.0567    9.6974   14.1348 C   0  0  0  0  0  0  0  0  0  0  0  0
    3.5816    9.3118   15.3718 C   0  0  0  0  0  0  0  0  0  0  0  0
    2.8780   11.0434   13.7996 O   0  0  0  0  0  0  0  0  0  0  0  0
    3.2427   12.1203   14.6637 C   0  0  0  0  0  0  0  0  0  0  0  0
    4.5988   12.6550   14.2096 C   0  0  0  0  0  0  0  0  0  0  0  0
    2.0759   13.1229   14.5259 C   0  0  0  0  0  0  0  0  0  0  0  0
    5.0972    6.2376   22.8949 C   0  0  0  0  0  0  0  0  0  0  0  0
    4.1069    6.9896   23.7764 C   0  0  0  0  0  0  0  0  0  0  0  0
    5.6457    7.2100   23.9255 C   0  0  0  0  0  0  0  0  0  0  0  0
    6.6074    8.0745   16.4655 C   0  0  0  0  0  0  0  0  0  0  0  0
    7.4968    6.8596   16.1505 C   0  0  0  0  0  0  0  0  0  0  0  0
    6.6879    6.4090   13.9259 O   0  0  0  0  0  0  0  0  0  0  0  0
    6.8202    6.0054   15.0893 C   0  0  0  0  0  0  0  0  0  0  0  0
    6.2673    4.8275   15.4262 O   0  0  0  0  0  0  0  0  0  0  0  0
    6.3544    4.5020   16.3005 H   0  0  0  0  0  0  0  0  0  0  0  0
 21 20  2  0  0  0
 21 22  1  0  0  0
 20 19  1  0  0  0
 24 22  1  0  0  0
 24 25  1  0  0  0
 22 23  2  0  0  0
 27 25  1  0  0  0
 33 34  2  0  0  0
 26 25  1  0  0  0
 19 18  2  0  0  0
 23 18  1  0  0  0
 34 35  1  0  0  0
 34 32  1  0  0  0
 18  2  1  0  0  0
 32 31  1  0  0  0
 31  1  1  0  0  0
  2  1  1  0  0  0
  2  3  2  0  0  0
  1  9  1  0  0  0
 12 11  1  0  0  0
 13 11  1  0  0  0
 13 14  1  0  0  0
 11 10  2  0  0  0
 14 15  2  0  0  0
 10 15  1  0  0  0
 10  3  1  0  0  0
 15 16  1  0  0  0
  3  4  1  0  0  0
  9  4  1  0  0  0
  9  8  2  0  0  0
  4  5  2  0  0  0
  8  7  1  0  0  0
  5  6  1  0  0  0
  7  6  2  0  0  0
  6 28  1  0  0  0
 28 29  1  0  0  0
 28 30  1  0  0  0
 29 30  1  0  0  0
 35 36  1  0  0  0
 13 17  1  0  0  0
M  END
> <minimizedAffinity>
-11.00888

$$$$
5D48_L96_A_201


 36 40  0  0  0  0  0  0  0  0999 V2000
    5.3307    8.0339   18.1771 N   0  0  0  0  0  0  0  0  0  0  0  0
    4.0953    7.8037   17.5837 C   0  0  0  0  0  0  0  0  0  0  0  0
    3.2476    7.1208   18.5275 C   0  0  0  0  0  0  0  0  0  0  0  0
    4.0064    6.9596   19.7624 C   0  0  0  0  0  0  0  0  0  0  0  0
    3.6664    6.4790   21.0250 C   0  0  0  0  0  0  0  0  0  0  0  0
    4.5729    6.5511   22.0462 C   0  0  0  0  0  0  0  0  0  0  0  0
    5.8650    7.0903   21.8050 C   0  0  0  0  0  0  0  0  0  0  0  0
    6.2090    7.6497   20.5637 C   0  0  0  0  0  0  0  0  0  0  0  0
    5.3204    7.6198   19.4792 C   0  0  0  0  0  0  0  0  0  0  0  0
    1.8090    6.6667   18.2695 C   0  0  0  0  0  0  0  0  0  0  0  0
    0.6768    7.5386   18.0298 C   0  0  0  0  0  0  0  0  0  0  0  0
    0.6934    9.0460   18.0979 C   0  0  0  0  0  0  0  0  0  0  0  0
   -0.3944    6.7066   17.7509 N   0  0  0  0  0  0  0  0  0  0  0  0
    0.0473    5.3750   17.7975 N   0  0  0  0  0  0  0  0  0  0  0  0
    1.3829    5.2778   18.0810 C   0  0  0  0  0  0  0  0  0  0  0  0
    2.1912    4.0227   18.2467 C   0  0  0  0  0  0  0  0  0  0  0  0
   -1.3130    7.0001   17.5529 H   0  0  0  0  0  0  0  0  0  0  0  0
    3.7437    8.1644   16.1816 C   0  0  0  0  0  0  0  0  0  0  0  0
    3.8407    7.3062   15.0855 C   0  0  0  0  0  0  0  0  0  0  0  0
    3.4281    7.7646   13.7971 C   0  0  0  0  0  0  0  0  0  0  0  0
    3.0005    9.1067   13.6311 C   0  0  0  0  0  0  0  0  0  0  0  0
    2.9149    9.9508   14.7580 C   0  0  0  0  0  0  0  0  0  0  0  0
    3.3050    9.5163   16.0282 C   0  0  0  0  0  0  0  0  0  0  0  0
    2.3962   11.2323   14.5466 O   0  0  0  0  0  0  0  0  0  0  0  0
    3.0204   12.4198   15.0358 C   0  0  0  0  0  0  0  0  0  0  0  0
    4.3317   12.6136   14.2781 C   0  0  0  0  0  0  0  0  0  0  0  0
    1.9674   13.5236   14.7940 C   0  0  0  0  0  0  0  0  0  0  0  0
    4.2555    5.9067   23.3678 C   0  0  0  0  0  0  0  0  0  0  0  0
    3.1615    6.5399   24.2196 C   0  0  0  0  0  0  0  0  0  0  0  0
    4.6706    6.7422   24.5671 C   0  0  0  0  0  0  0  0  0  0  0  0
    6.4692    8.6501   17.4886 C   0  0  0  0  0  0  0  0  0  0  0  0
    6.2304   10.1541   17.2712 C   0  0  0  0  0  0  0  0  0  0  0  0
    6.7771   10.9458   19.4804 O   0  0  0  0  0  0  0  0  0  0  0  0
    5.9103   10.8084   18.6065 C   0  0  0  0  0  0  0  0  0  0  0  0
    4.6469   11.1650   18.8948 O   0  0  0  0  0  0  0  0  0  0  0  0
    3.9744   11.0700   18.2493 H   0  0  0  0  0  0  0  0  0  0  0  0
 21 20  2  0  0  0
 21 22  1  0  0  0
 20 19  1  0  0  0
 24 22  1  0  0  0
 24 25  1  0  0  0
 22 23  2  0  0  0
 27 25  1  0  0  0
 33 34  2  0  0  0
 26 25  1  0  0  0
 19 18  2  0  0  0
 23 18  1  0  0  0
 34 35  1  0  0  0
 34 32  1  0  0  0
 18  2  1  0  0  0
 32 31  1  0  0  0
 31  1  1  0  0  0
  2  1  1  0  0  0
  2  3  2  0  0  0
  1  9  1  0  0  0
 12 11  1  0  0  0
 13 11  1  0  0  0
 13 14  1  0  0  0
 11 10  2  0  0  0
 14 15  2  0  0  0
 10 15  1  0  0  0
 10  3  1  0  0  0
 15 16  1  0  0  0
  3  4  1  0  0  0
  9  4  1  0  0  0
  9  8  2  0  0  0
  4  5  2  0  0  0
  8  7  1  0  0  0
  5  6  1  0  0  0
  7  6  2  0  0  0
  6 28  1  0  0  0
 28 29  1  0  0  0
 28 30  1  0  0  0
 29 30  1  0  0  0
 35 36  1  0  0  0
 13 17  1  0  0  0
M  END
> <minimizedAffinity>
-9.51281

$$$$
5D48_L96_A_201


 36 40  0  0  0  0  0  0  0  0999 V2000
    5.2777    8.0791   18.3385 N   0  0  0  0  0  0  0  0  0  0  0  0
    4.0708    7.7775   17.7188 C   0  0  0  0  0  0  0  0  0  0  0  0
    3.2470    7.0398   18.6423 C   0  0  0  0  0  0  0  0  0  0  0  0
    3.9889    6.9184   19.8919 C   0  0  0  0  0  0  0  0  0  0  0  0
    3.6529    6.4116   21.1453 C   0  0  0  0  0  0  0  0  0  0  0  0
    4.5324    6.5333   22.1853 C   0  0  0  0  0  0  0  0  0  0  0  0
    5.7941    7.1510   21.9729 C   0  0  0  0  0  0  0  0  0  0  0  0
    6.1288    7.7365   20.7412 C   0  0  0  0  0  0  0  0  0  0  0  0
    5.2659    7.6585   19.6385 C   0  0  0  0  0  0  0  0  0  0  0  0
    1.8441    6.5008   18.3528 C   0  0  0  0  0  0  0  0  0  0  0  0
    1.4637    5.1029   18.3270 C   0  0  0  0  0  0  0  0  0  0  0  0
    2.4014    3.9298   18.4742 C   0  0  0  0  0  0  0  0  0  0  0  0
    0.0938    5.0830   18.1252 N   0  0  0  0  0  0  0  0  0  0  0  0
   -0.3674    6.4063   18.0440 N   0  0  0  0  0  0  0  0  0  0  0  0
    0.6394    7.3203   18.2009 C   0  0  0  0  0  0  0  0  0  0  0  0
    0.5304    8.8172   18.1382 C   0  0  0  0  0  0  0  0  0  0  0  0
   -0.4639    4.2751   18.0510 H   0  0  0  0  0  0  0  0  0  0  0  0
    3.7266    8.1235   16.3112 C   0  0  0  0  0  0  0  0  0  0  0  0
    3.8453    7.2592   15.2221 C   0  0  0  0  0  0  0  0  0  0  0  0
    3.4377    7.7027   13.9269 C   0  0  0  0  0  0  0  0  0  0  0  0
    2.9929    9.0375   13.7477 C   0  0  0  0  0  0  0  0  0  0  0  0
    2.8856    9.8881   14.8677 C   0  0  0  0  0  0  0  0  0  0  0  0
    3.2704    9.4680   16.1443 C   0  0  0  0  0  0  0  0  0  0  0  0
    2.3509   11.1607   14.6427 O   0  0  0  0  0  0  0  0  0  0  0  0
    2.9927   12.3649   15.0638 C   0  0  0  0  0  0  0  0  0  0  0  0
    4.2969   12.5061   14.2826 C   0  0  0  0  0  0  0  0  0  0  0  0
    1.9480   13.4661   14.7777 C   0  0  0  0  0  0  0  0  0  0  0  0
    4.2278    5.8641   23.4975 C   0  0  0  0  0  0  0  0  0  0  0  0
    3.1188    6.4610   24.3561 C   0  0  0  0  0  0  0  0  0  0  0  0
    4.6224    6.6923   24.7088 C   0  0  0  0  0  0  0  0  0  0  0  0
    6.3905    8.7666   17.6761 C   0  0  0  0  0  0  0  0  0  0  0  0
    6.0723   10.2581   17.4750 C   0  0  0  0  0  0  0  0  0  0  0  0
    6.7361   11.0518   19.6512 O   0  0  0  0  0  0  0  0  0  0  0  0
    5.8215   10.9036   18.8292 C   0  0  0  0  0  0  0  0  0  0  0  0
    4.5720   11.2398   19.1928 O   0  0  0  0  0  0  0  0  0  0  0  0
    3.8641   11.1363   18.5877 H   0  0  0  0  0  0  0  0  0  0  0  0
 21 20  2  0  0  0
 21 22  1  0  0  0
 20 19  1  0  0  0
 24 22  1  0  0  0
 24 25  1  0  0  0
 22 23  2  0  0  0
 27 25  1  0  0  0
 33 34  2  0  0  0
 26 25  1  0  0  0
 19 18  2  0  0  0
 23 18  1  0  0  0
 34 35  1  0  0  0
 34 32  1  0  0  0
 18  2  1  0  0  0
 32 31  1  0  0  0
 31  1  1  0  0  0
  2  1  1  0  0  0
  2  3  2  0  0  0
  1  9  1  0  0  0
 12 11  1  0  0  0
 13 11  1  0  0  0
 13 14  1  0  0  0
 11 10  2  0  0  0
 14 15  2  0  0  0
 10 15  1  0  0  0
 10  3  1  0  0  0
 15 16  1  0  0  0
  3  4  1  0  0  0
  9  4  1  0  0  0
  9  8  2  0  0  0
  4  5  2  0  0  0
  8  7  1  0  0  0
  5  6  1  0  0  0
  7  6  2  0  0  0
  6 28  1  0  0  0
 28 29  1  0  0  0
 28 30  1  0  0  0
 29 30  1  0  0  0
 35 36  1  0  0  0
 13 17  1  0  0  0
M  END
> <minimizedAffinity>
-9.41971

$$$$
5D48_L96_A_201


 36 40  0  0  0  0  0  0  0  0999 V2000
    4.7287    9.9050   19.2883 N   0  0  0  0  0  0  0  0  0  0  0  0
    3.9187    8.7810   19.1785 C   0  0  0  0  0  0  0  0  0  0  0  0
    3.1059    8.9090   17.9960 C   0  0  0  0  0  0  0  0  0  0  0  0
    3.4695   10.1632   17.3469 C   0  0  0  0  0  0  0  0  0  0  0  0
    3.0979   10.7436   16.1362 C   0  0  0  0  0  0  0  0  0  0  0  0
    3.6981   11.9015   15.7253 C   0  0  0  0  0  0  0  0  0  0  0  0
    4.6766   12.5192   16.5496 C   0  0  0  0  0  0  0  0  0  0  0  0
    5.1239   11.9183   17.7374 C   0  0  0  0  0  0  0  0  0  0  0  0
    4.5590   10.7241   18.2078 C   0  0  0  0  0  0  0  0  0  0  0  0
    2.0643    7.8960   17.5149 C   0  0  0  0  0  0  0  0  0  0  0  0
    0.6320    7.9987   17.7083 C   0  0  0  0  0  0  0  0  0  0  0  0
   -0.0767    9.0638   18.5086 C   0  0  0  0  0  0  0  0  0  0  0  0
    0.0767    6.9255   17.0319 N   0  0  0  0  0  0  0  0  0  0  0  0
    1.1101    6.1919   16.4284 N   0  0  0  0  0  0  0  0  0  0  0  0
    2.3428    6.7405   16.6584 C   0  0  0  0  0  0  0  0  0  0  0  0
    3.6746    6.2143   16.2047 C   0  0  0  0  0  0  0  0  0  0  0  0
   -0.8832    6.7125   16.9825 H   0  0  0  0  0  0  0  0  0  0  0  0
    3.8755    7.6633   20.1626 C   0  0  0  0  0  0  0  0  0  0  0  0
    2.7849    6.8166   20.3656 C   0  0  0  0  0  0  0  0  0  0  0  0
    2.8898    5.7523   21.3124 C   0  0  0  0  0  0  0  0  0  0  0  0
    4.0678    5.6159   22.0905 C   0  0  0  0  0  0  0  0  0  0  0  0
    5.1526    6.4884   21.8636 C   0  0  0  0  0  0  0  0  0  0  0  0
    5.0716    7.5294   20.9341 C   0  0  0  0  0  0  0  0  0  0  0  0
    6.3202    6.2442   22.5938 O   0  0  0  0  0  0  0  0  0  0  0  0
    6.4941    6.6520   23.9512 C   0  0  0  0  0  0  0  0  0  0  0  0
    7.4233    7.8634   23.9676 C   0  0  0  0  0  0  0  0  0  0  0  0
    5.0580    6.9349   24.4444 C   0  0  0  0  0  0  0  0  0  0  0  0
    3.1982   12.5992   14.4901 C   0  0  0  0  0  0  0  0  0  0  0  0
    1.9536   13.4690   14.6229 C   0  0  0  0  0  0  0  0  0  0  0  0
    1.8787   12.0507   13.9736 C   0  0  0  0  0  0  0  0  0  0  0  0
    5.6422   10.1515   20.4084 C   0  0  0  0  0  0  0  0  0  0  0  0
    7.0559   10.4830   19.9009 C   0  0  0  0  0  0  0  0  0  0  0  0
    8.3023    8.5514   20.6231 O   0  0  0  0  0  0  0  0  0  0  0  0
    8.0798    9.7616   20.7639 C   0  0  0  0  0  0  0  0  0  0  0  0
    8.6953   10.4145   21.7647 O   0  0  0  0  0  0  0  0  0  0  0  0
    8.5422   11.3303   21.8906 H   0  0  0  0  0  0  0  0  0  0  0  0
 21 20  2  0  0  0
 21 22  1  0  0  0
 20 19  1  0  0  0
 24 22  1  0  0  0
 24 25  1  0  0  0
 22 23  2  0  0  0
 27 25  1  0  0  0
 33 34  2  0  0  0
 26 25  1  0  0  0
 19 18  2  0  0  0
 23 18  1  0  0  0
 34 35  1  0  0  0
 34 32  1  0  0  0
 18  2  1  0  0  0
 32 31  1  0  0  0
 31  1  1  0  0  0
  2  1  1  0  0  0
  2  3  2  0  0  0
  1  9  1  0  0  0
 12 11  1  0  0  0
 13 11  1  0  0  0
 13 14  1  0  0  0
 11 10  2  0  0  0
 14 15  2  0  0  0
 10 15  1  0  0  0
 10  3  1  0  0  0
 15 16  1  0  0  0
  3  4  1  0  0  0
  9  4  1  0  0  0
  9  8  2  0  0  0
  4  5  2  0  0  0
  8  7  1  0  0  0
  5  6  1  0  0  0
  7  6  2  0  0  0
  6 28  1  0  0  0
 28 29  1  0  0  0
 28 30  1  0  0  0
 29 30  1  0  0  0
 35 36  1  0  0  0
 13 17  1  0  0  0
M  END
> <minimizedAffinity>
-8.35928

$$$$
5D48_L96_A_201


 36 40  0  0  0  0  0  0  0  0999 V2000
    4.7562    9.9042   19.3019 N   0  0  0  0  0  0  0  0  0  0  0  0
    3.9782    8.7588   19.1826 C   0  0  0  0  0  0  0  0  0  0  0  0
    3.1918    8.8557   17.9793 C   0  0  0  0  0  0  0  0  0  0  0  0
    3.5392   10.1133   17.3280 C   0  0  0  0  0  0  0  0  0  0  0  0
    3.1829   10.6737   16.1033 C   0  0  0  0  0  0  0  0  0  0  0  0
    3.7633   11.8432   15.6968 C   0  0  0  0  0  0  0  0  0  0  0  0
    4.7050   12.4930   16.5392 C   0  0  0  0  0  0  0  0  0  0  0  0
    5.1380   11.9138   17.7430 C   0  0  0  0  0  0  0  0  0  0  0  0
    4.5924   10.7094   18.2102 C   0  0  0  0  0  0  0  0  0  0  0  0
    2.1887    7.8121   17.4820 C   0  0  0  0  0  0  0  0  0  0  0  0
    2.5218    6.5646   16.8245 C   0  0  0  0  0  0  0  0  0  0  0  0
    3.9063    6.1230   16.4181 C   0  0  0  0  0  0  0  0  0  0  0  0
    1.3226    5.8968   16.6414 N   0  0  0  0  0  0  0  0  0  0  0  0
    0.2864    6.6804   17.1731 N   0  0  0  0  0  0  0  0  0  0  0  0
    0.7444    7.8465   17.7245 C   0  0  0  0  0  0  0  0  0  0  0  0
   -0.0714    8.9417   18.3502 C   0  0  0  0  0  0  0  0  0  0  0  0
    1.2147    5.0184   16.2100 H   0  0  0  0  0  0  0  0  0  0  0  0
    3.9392    7.6486   20.1754 C   0  0  0  0  0  0  0  0  0  0  0  0
    2.8502    6.8023   20.3882 C   0  0  0  0  0  0  0  0  0  0  0  0
    2.9592    5.7455   21.3430 C   0  0  0  0  0  0  0  0  0  0  0  0
    4.1397    5.6165   22.1185 C   0  0  0  0  0  0  0  0  0  0  0  0
    5.2228    6.4885   21.8816 C   0  0  0  0  0  0  0  0  0  0  0  0
    5.1378    7.5222   20.9443 C   0  0  0  0  0  0  0  0  0  0  0  0
    6.3929    6.2512   22.6101 O   0  0  0  0  0  0  0  0  0  0  0  0
    6.5660    6.6594   23.9676 C   0  0  0  0  0  0  0  0  0  0  0  0
    7.5058    7.8625   23.9854 C   0  0  0  0  0  0  0  0  0  0  0  0
    5.1309    6.9556   24.4557 C   0  0  0  0  0  0  0  0  0  0  0  0
    3.2764   12.5173   14.4434 C   0  0  0  0  0  0  0  0  0  0  0  0
    2.0113   13.3621   14.5394 C   0  0  0  0  0  0  0  0  0  0  0  0
    1.9804   11.9358   13.9041 C   0  0  0  0  0  0  0  0  0  0  0  0
    5.6350   10.1836   20.4419 C   0  0  0  0  0  0  0  0  0  0  0  0
    7.0464   10.5675   19.9655 C   0  0  0  0  0  0  0  0  0  0  0  0
    8.2911    8.6122   20.6243 O   0  0  0  0  0  0  0  0  0  0  0  0
    8.0765    9.8196   20.7980 C   0  0  0  0  0  0  0  0  0  0  0  0
    8.7071   10.4441   21.8074 O   0  0  0  0  0  0  0  0  0  0  0  0
    8.5603   11.3572   21.9580 H   0  0  0  0  0  0  0  0  0  0  0  0
 21 20  2  0  0  0
 21 22  1  0  0  0
 20 19  1  0  0  0
 24 22  1  0  0  0
 24 25  1  0  0  0
 22 23  2  0  0  0
 27 25  1  0  0  0
 33 34  2  0  0  0
 26 25  1  0  0  0
 19 18  2  0  0  0
 23 18  1  0  0  0
 34 35  1  0  0  0
 34 32  1  0  0  0
 18  2  1  0  0  0
 32 31  1  0  0  0
 31  1  1  0  0  0
  2  1  1  0  0  0
  2  3  2  0  0  0
  1  9  1  0  0  0
 12 11  1  0  0  0
 13 11  1  0  0  0
 13 14  1  0  0  0
 11 10  2  0  0  0
 14 15  2  0  0  0
 10 15  1  0  0  0
 10  3  1  0  0  0
 15 16  1  0  0  0
  3  4  1  0  0  0
  9  4  1  0  0  0
  9  8  2  0  0  0
  4  5  2  0  0  0
  8  7  1  0  0  0
  5  6  1  0  0  0
  7  6  2  0  0  0
  6 28  1  0  0  0
 28 29  1  0  0  0
 28 30  1  0  0  0
 29 30  1  0  0  0
 35 36  1  0  0  0
 13 17  1  0  0  0
M  END
> <minimizedAffinity>
-8.24616

$$$$
5D48_L96_A_201


 36 40  0  0  0  0  0  0  0  0999 V2000
    4.2545   10.0937   19.2883 N   0  0  0  0  0  0  0  0  0  0  0  0
    3.6297    9.3730   18.2776 C   0  0  0  0  0  0  0  0  0  0  0  0
    3.3708    8.0377   18.7523 C   0  0  0  0  0  0  0  0  0  0  0  0
    3.8392    7.9635   20.1313 C   0  0  0  0  0  0  0  0  0  0  0  0
    3.7514    6.9736   21.1076 C   0  0  0  0  0  0  0  0  0  0  0  0
    4.1926    7.2296   22.3763 C   0  0  0  0  0  0  0  0  0  0  0  0
    4.7631    8.4943   22.6825 C   0  0  0  0  0  0  0  0  0  0  0  0
    4.7959    9.5345   21.7396 C   0  0  0  0  0  0  0  0  0  0  0  0
    4.3471    9.3413   20.4251 C   0  0  0  0  0  0  0  0  0  0  0  0
    2.7099    6.9164   17.9469 C   0  0  0  0  0  0  0  0  0  0  0  0
    3.4057    5.8889   17.1989 C   0  0  0  0  0  0  0  0  0  0  0  0
    4.8983    5.8044   16.9932 C   0  0  0  0  0  0  0  0  0  0  0  0
    2.4259    5.0385   16.7147 N   0  0  0  0  0  0  0  0  0  0  0  0
    1.1745    5.5008   17.1511 N   0  0  0  0  0  0  0  0  0  0  0  0
    1.2746    6.6237   17.9275 C   0  0  0  0  0  0  0  0  0  0  0  0
    0.1523    7.4143   18.5370 C   0  0  0  0  0  0  0  0  0  0  0  0
    2.5813    4.2422   16.1571 H   0  0  0  0  0  0  0  0  0  0  0  0
    3.3336    9.8984   16.9152 C   0  0  0  0  0  0  0  0  0  0  0  0
    2.3440   10.8356   16.6159 C   0  0  0  0  0  0  0  0  0  0  0  0
    2.1926   11.2903   15.2702 C   0  0  0  0  0  0  0  0  0  0  0  0
    2.9931   10.7284   14.2431 C   0  0  0  0  0  0  0  0  0  0  0  0
    3.9837    9.7814   14.5768 C   0  0  0  0  0  0  0  0  0  0  0  0
    4.1529    9.3321   15.8897 C   0  0  0  0  0  0  0  0  0  0  0  0
    4.8043    9.3354   13.5357 O   0  0  0  0  0  0  0  0  0  0  0  0
    4.8872    7.9670   13.1358 C   0  0  0  0  0  0  0  0  0  0  0  0
    6.0828    7.3365   13.8458 C   0  0  0  0  0  0  0  0  0  0  0  0
    3.5166    7.3765   13.5342 C   0  0  0  0  0  0  0  0  0  0  0  0
    4.2260    6.1182   23.3893 C   0  0  0  0  0  0  0  0  0  0  0  0
    3.2335    6.1828   24.5444 C   0  0  0  0  0  0  0  0  0  0  0  0
    4.7363    6.5531   24.7528 C   0  0  0  0  0  0  0  0  0  0  0  0
    4.7278   11.4735   19.1396 C   0  0  0  0  0  0  0  0  0  0  0  0
    6.1669   11.5046   18.5971 C   0  0  0  0  0  0  0  0  0  0  0  0
    7.0005   11.5904   16.3379 O   0  0  0  0  0  0  0  0  0  0  0  0
    6.1463   11.9716   17.1497 C   0  0  0  0  0  0  0  0  0  0  0  0
    5.2468   12.8874   16.7513 O   0  0  0  0  0  0  0  0  0  0  0  0
    4.5912   13.1907   17.3481 H   0  0  0  0  0  0  0  0  0  0  0  0
 21 20  2  0  0  0
 21 22  1  0  0  0
 20 19  1  0  0  0
 24 22  1  0  0  0
 24 25  1  0  0  0
 22 23  2  0  0  0
 27 25  1  0  0  0
 33 34  2  0  0  0
 26 25  1  0  0  0
 19 18  2  0  0  0
 23 18  1  0  0  0
 34 35  1  0  0  0
 34 32  1  0  0  0
 18  2  1  0  0  0
 32 31  1  0  0  0
 31  1  1  0  0  0
  2  1  1  0  0  0
  2  3  2  0  0  0
  1  9  1  0  0  0
 12 11  1  0  0  0
 13 11  1  0  0  0
 13 14  1  0  0  0
 11 10  2  0  0  0
 14 15  2  0  0  0
 10 15  1  0  0  0
 10  3  1  0  0  0
 15 16  1  0  0  0
  3  4  1  0  0  0
  9  4  1  0  0  0
  9  8  2  0  0  0
  4  5  2  0  0  0
  8  7  1  0  0  0
  5  6  1  0  0  0
  7  6  2  0  0  0
  6 28  1  0  0  0
 28 29  1  0  0  0
 28 30  1  0  0  0
 29 30  1  0  0  0
 35 36  1  0  0  0
 13 17  1  0  0  0
M  END
> <minimizedAffinity>
-8.20137

$$$$
5D48_L96_A_201


 36 40  0  0  0  0  0  0  0  0999 V2000
    4.8000    9.9130   19.2476 N   0  0  0  0  0  0  0  0  0  0  0  0
    3.9089    8.8494   19.1694 C   0  0  0  0  0  0  0  0  0  0  0  0
    3.1099    9.0005   17.9801 C   0  0  0  0  0  0  0  0  0  0  0  0
    3.5670   10.2034   17.2941 C   0  0  0  0  0  0  0  0  0  0  0  0
    3.2417   10.7718   16.0645 C   0  0  0  0  0  0  0  0  0  0  0  0
    3.9271   11.8687   15.6205 C   0  0  0  0  0  0  0  0  0  0  0  0
    4.9473   12.4374   16.4293 C   0  0  0  0  0  0  0  0  0  0  0  0
    5.3466   11.8421   17.6369 C   0  0  0  0  0  0  0  0  0  0  0  0
    4.6936   10.7084   18.1417 C   0  0  0  0  0  0  0  0  0  0  0  0
    1.9967    8.0532   17.5263 C   0  0  0  0  0  0  0  0  0  0  0  0
    0.5927    8.1751   17.8627 C   0  0  0  0  0  0  0  0  0  0  0  0
   -0.0044    9.1918   18.8044 C   0  0  0  0  0  0  0  0  0  0  0  0
   -0.0566    7.1711   17.1641 N   0  0  0  0  0  0  0  0  0  0  0  0
    0.8924    6.4617   16.4115 N   0  0  0  0  0  0  0  0  0  0  0  0
    2.1578    6.9611   16.5631 C   0  0  0  0  0  0  0  0  0  0  0  0
    3.4242    6.4396   15.9462 C   0  0  0  0  0  0  0  0  0  0  0  0
   -1.0232    6.9858   17.1908 H   0  0  0  0  0  0  0  0  0  0  0  0
    3.7809    7.7691   20.1874 C   0  0  0  0  0  0  0  0  0  0  0  0
    4.1460    7.8858   21.5292 C   0  0  0  0  0  0  0  0  0  0  0  0
    3.9294    6.7850   22.4133 C   0  0  0  0  0  0  0  0  0  0  0  0
    3.4213    5.5626   21.9042 C   0  0  0  0  0  0  0  0  0  0  0  0
    3.0632    5.4749   20.5427 C   0  0  0  0  0  0  0  0  0  0  0  0
    3.2588    6.5452   19.6648 C   0  0  0  0  0  0  0  0  0  0  0  0
    2.4791    4.2760   20.1214 O   0  0  0  0  0  0  0  0  0  0  0  0
    1.9282    4.0897   18.8172 C   0  0  0  0  0  0  0  0  0  0  0  0
    2.1884    2.6461   18.3936 C   0  0  0  0  0  0  0  0  0  0  0  0
    0.4363    4.4528   18.9852 C   0  0  0  0  0  0  0  0  0  0  0  0
    3.4827   12.5627   14.3622 C   0  0  0  0  0  0  0  0  0  0  0  0
    2.1657   13.3291   14.4037 C   0  0  0  0  0  0  0  0  0  0  0  0
    2.2612   11.9296   13.7173 C   0  0  0  0  0  0  0  0  0  0  0  0
    5.7272   10.1257   20.3634 C   0  0  0  0  0  0  0  0  0  0  0  0
    7.0849    9.4590   20.0834 C   0  0  0  0  0  0  0  0  0  0  0  0
    7.6108    8.7344   22.3205 O   0  0  0  0  0  0  0  0  0  0  0  0
    7.9131    9.4544   21.3591 C   0  0  0  0  0  0  0  0  0  0  0  0
    8.9405   10.3100   21.4969 O   0  0  0  0  0  0  0  0  0  0  0  0
    9.1873   10.8646   20.7831 H   0  0  0  0  0  0  0  0  0  0  0  0
 21 20  2  0  0  0
 21 22  1  0  0  0
 20 19  1  0  0  0
 24 22  1  0  0  0
 24 25  1  0  0  0
 22 23  2  0  0  0
 27 25  1  0  0  0
 33 34  2  0  0  0
 26 25  1  0  0  0
 19 18  2  0  0  0
 23 18  1  0  0  0
 34 35  1  0  0  0
 34 32  1  0  0  0
 18  2  1  0  0  0
 32 31  1  0  0  0
 31  1  1  0  0  0
  2  1  1  0  0  0
  2  3  2  0  0  0
  1  9  1  0  0  0
 12 11  1  0  0  0
 13 11  1  0  0  0
 13 14  1  0  0  0
 11 10  2  0  0  0
 14 15  2  0  0  0
 10 15  1  0  0  0
 10  3  1  0  0  0
 15 16  1  0  0  0
  3  4  1  0  0  0
  9  4  1  0  0  0
  9  8  2  0  0  0
  4  5  2  0  0  0
  8  7  1  0  0  0
  5  6  1  0  0  0
  7  6  2  0  0  0
  6 28  1  0  0  0
 28 29  1  0  0  0
 28 30  1  0  0  0
 29 30  1  0  0  0
 35 36  1  0  0  0
 13 17  1  0  0  0
M  END
> <minimizedAffinity>
-8.12612

$$$$
