4DFF_0JP_B_801
  RCSB PDB12061712123D
Coordinates from PDB:4DFF:B:801 Model:1 without hydrogens
 22 25  0  0  0  0            999 V2000
    7.6610   38.3340   56.9970   C 0  0  0  0  0  0  0  0  0  0  0  0
    8.5750   38.4720   59.6520   C 0  0  0  0  0  0  0  0  0  0  0  0
    9.0860   37.6610   53.9350   C 0  0  0  0  0  0  0  0  0  0  0  0
   10.9440   41.4910   55.7050   C 0  0  0  0  0  0  0  0  0  0  0  0
    8.8250   37.8760   51.7520   C 0  0  0  0  0  0  0  0  0  0  0  0
    8.8130   39.0780   57.3080   C 0  0  0  0  0  0  0  0  0  0  0  0
    9.2650   39.1380   58.6570   C 0  0  0  0  0  0  0  0  0  0  0  0
    6.9280   37.6800   57.9970   C 0  0  0  0  0  0  0  0  0  0  0  0
    7.3870   37.7360   59.3260   C 0  0  0  0  0  0  0  0  0  0  0  0
    9.8200   39.8730   54.9180   C 0  0  0  0  0  0  0  0  0  0  0  0
    9.5700   39.8290   56.2970   C 0  0  0  0  0  0  0  0  0  0  0  0
    9.4020   38.9920   53.8240   C 0  0  0  0  0  0  0  0  0  0  0  0
   10.4670   39.9810   59.0020   C 0  0  0  0  0  0  0  0  0  0  0  0
   10.3410   41.2740   58.1860   C 0  0  0  0  0  0  0  0  0  0  0  0
    5.1430   36.7830   56.5400   C 0  0  0  0  0  0  0  0  0  0  0  0
    6.7640   36.9990   61.5960   C 0  0  0  0  0  0  0  0  0  0  0  0
    8.7410   36.9940   52.7650   N 0  0  0  0  0  0  0  0  0  0  0  0
   10.6920   40.8910   54.5900   N 0  0  0  0  0  0  0  0  0  0  0  0
   10.3050   40.8940   56.7580   N 0  0  0  0  0  0  0  0  0  0  0  0
    5.7960   36.8900   57.8120   O 0  0  0  0  0  0  0  0  0  0  0  0
    6.6220   36.9730   60.1660   O 0  0  0  0  0  0  0  0  0  0  0  0
    9.3290   39.4860   52.1660   S 0  0  0  0  0  0  0  0  0  0  0  0
  5 22  1  0  0  0  0
  5 17  2  0  0  0  0
 22 12  1  0  0  0  0
 17  3  1  0  0  0  0
 12  3  2  0  0  0  0
 12 10  1  0  0  0  0
 18 10  1  0  0  0  0
 18  4  2  0  0  0  0
 10 11  2  0  0  0  0
  4 19  1  0  0  0  0
 11 19  1  0  0  0  0
 11  6  1  0  0  0  0
 15 20  1  0  0  0  0
 19 14  1  0  0  0  0
  1  6  2  0  0  0  0
  1  8  1  0  0  0  0
  6  7  1  0  0  0  0
 20  8  1  0  0  0  0
  8  9  2  0  0  0  0
 14 13  1  0  0  0  0
  7 13  1  0  0  0  0
  7  2  2  0  0  0  0
  9  2  1  0  0  0  0
  9 21  1  0  0  0  0
 21 16  1  0  0  0  0
A    1
C17
A    2
C2
A    3
C11
A    4
C7
A    5
C13
A    6
C16
A    7
C3
A    8
C18
A    9
C1
A   10
C9
A   11
C15
A   12
C10
A   13
C4
A   14
C5
A   15
C22
A   16
C21
A   17
N12
A   18
N8
A   19
N6
A   20
O19
A   21
O20
A   22
S14
M  END
>  <InstanceId>
4DFF_0JP_B_801

>  <ChemCompId>
0JP

>  <PdbId>
4DFF

>  <ChainId>
B

>  <ResidueNumber>
801

>  <InsertionCode>


>  <Model>
1

>  <AltIds>


>  <MissingHeavyAtoms>
0

>  <ObservedFormula>
C16 N3 O2 S

>  <Name>
8,9-dimethoxy-1-(1,3-thiazol-5-yl)-5,6-dihydroimidazo[5,1-a]isoquinoline

>  <SystematicName>
5-(8,9-dimethoxy-5,6-dihydroimidazo[5,1-a]isoquinolin-1-yl)-1,3-thiazole

>  <Synonyms>


>  <Type>
NON-POLYMER

>  <Formula>
C16 H15 N3 O2 S

>  <MolecularWeight>
313.374

>  <ModifiedDate>
2012-03-09

>  <Parent>


>  <OneLetterCode>


>  <SubcomponentList>


>  <AmbiguousFlag>
N

>  <InChI>
InChI=1S/C16H15N3O2S/c1-20-12-5-10-3-4-19-8-18-15(14-7-17-9-22-14)16(19)11(10)6-13(12)21-2/h5-9H,3-4H2,1-2H3

>  <InChIKey>
GFIAXSKRRKHJBD-UHFFFAOYSA-N

>  <SMILES>
COc1cc2c(cc1OC)-c3c(ncn3CC2)c4cncs4

$$$$
