3SUG_SUE_A_1201


 57 63  0  0  0  0  0  0  0  0999 V2000
   16.0340   -8.6645  -14.5740 C   0  0  0  0  0  0  0  0  0  0  0  0
   18.3421   -8.6478  -15.1127 N   0  0  0  0  0  0  0  0  0  0  0  0
   15.6879   -7.8883  -15.4676 O   0  0  0  0  0  0  0  0  0  0  0  0
   17.3281   -8.5398  -14.0280 C   0  0  0  0  0  0  0  0  0  0  0  0
   18.7335   -9.8909  -15.6377 C   0  0  0  0  0  0  0  0  0  0  0  0
   12.9375  -14.1751  -13.5381 N   0  0  0  0  0  0  0  0  0  0  0  0
   11.8417  -17.3143  -15.0688 C   0  0  0  0  0  0  0  0  0  0  0  0
   11.4063  -15.8062  -12.7556 C   0  0  0  0  0  0  0  0  0  0  0  0
   20.4921  -11.3977  -18.5137 C   0  0  0  0  0  0  0  0  0  0  0  0
   19.3526  -12.1543  -17.8379 C   0  0  0  0  0  0  0  0  0  0  0  0
   20.2062  -11.1689  -17.0221 C   0  0  0  0  0  0  0  0  0  0  0  0
   12.5117  -16.1041  -14.8746 C   0  0  0  0  0  0  0  0  0  0  0  0
   19.5526  -13.6565  -17.4915 C   0  0  0  0  0  0  0  0  0  0  0  0
   17.1879  -13.7082  -16.9161 C   0  0  0  0  0  0  0  0  0  0  0  0
   10.9509  -17.7623  -14.0974 C   0  0  0  0  0  0  0  0  0  0  0  0
   14.4853  -12.5516  -14.3737 O   0  0  0  0  0  0  0  0  0  0  0  0
   18.5735  -14.0377  -16.4034 C   0  0  0  0  0  0  0  0  0  0  0  0
   16.2394  -14.6304  -16.2181 C   0  0  0  0  0  0  0  0  0  0  0  0
   13.7944  -13.7294  -14.4781 C   0  0  0  0  0  0  0  0  0  0  0  0
   14.0149  -14.4903  -15.6337 C   0  0  0  0  0  0  0  0  0  0  0  0
   12.2994  -15.3479  -13.7184 C   0  0  0  0  0  0  0  0  0  0  0  0
   13.3631  -15.6524  -15.8043 N   0  0  0  0  0  0  0  0  0  0  0  0
   14.8848  -14.0884  -16.6237 C   0  0  0  0  0  0  0  0  0  0  0  0
   10.7255  -17.0126  -12.9452 C   0  0  0  0  0  0  0  0  0  0  0  0
   18.2300  -10.9195  -15.1808 O   0  0  0  0  0  0  0  0  0  0  0  0
   19.6577   -9.8760  -16.6481 O   0  0  0  0  0  0  0  0  0  0  0  0
   12.9702  -10.6443  -13.7586 C   0  0  0  0  0  0  0  0  0  0  0  0
   13.7147   -9.7036  -14.6898 C   0  0  0  0  0  0  0  0  0  0  0  0
   15.1333   -9.5742  -14.1533 N   0  0  0  0  0  0  0  0  0  0  0  0
   15.3031  -10.6209  -13.1120 C   0  0  0  0  0  0  0  0  0  0  0  0
   14.1248  -11.5685  -13.3363 C   0  0  0  0  0  0  0  0  0  0  0  0
   18.7493   -7.8264  -15.4716 H   0  0  0  0  0  0  0  0  0  0  0  0
   17.4846   -7.1935  -13.2769 C   0  0  0  0  0  0  0  0  0  0  0  0
   18.8167   -7.2044  -12.5153 C   0  0  0  0  0  0  0  0  0  0  0  0
   16.3289   -7.0191  -12.2795 C   0  0  0  0  0  0  0  0  0  0  0  0
   17.4797   -5.9838  -14.2247 C   0  0  0  0  0  0  0  0  0  0  0  0
   13.2530   -7.6692  -13.7524 O   0  0  0  0  0  0  0  0  0  0  0  0
   13.1611   -8.4020  -14.7367 C   0  0  0  0  0  0  0  0  0  0  0  0
   12.6241   -7.9915  -15.9149 N   0  0  0  0  0  0  0  0  0  0  0  0
   12.5157   -8.6509  -16.6378 H   0  0  0  0  0  0  0  0  0  0  0  0
   12.1922   -6.5874  -16.1612 C   0  0  0  0  0  0  0  0  0  0  0  0
   13.3057   -5.6602  -16.6606 C   0  0  0  0  0  0  0  0  0  0  0  0
   12.2500   -6.1680  -17.5831 C   0  0  0  0  0  0  0  0  0  0  0  0
   10.7182   -6.5463  -14.2137 N   0  0  0  0  0  0  0  0  0  0  0  0
   10.2497   -5.1480  -15.9080 O   0  0  0  0  0  0  0  0  0  0  0  0
   10.9821   -6.0009  -15.3981 C   0  0  0  0  0  0  0  0  0  0  0  0
   11.2417   -7.2978  -13.8525 H   0  0  0  0  0  0  0  0  0  0  0  0
    9.6966   -4.4196  -13.2929 O   0  0  0  0  0  0  0  0  0  0  0  0
    9.5458   -5.9261  -13.4508 S   0  0  0  0  0  0  0  0  0  0  0  0
    9.5109   -6.6337  -12.0837 O   0  0  0  0  0  0  0  0  0  0  0  0
    7.1568   -7.4846  -13.9474 C   0  0  0  0  0  0  0  0  0  0  0  0
    6.6563   -6.2380  -13.4403 C   0  0  0  0  0  0  0  0  0  0  0  0
    7.8428   -6.2740  -14.3074 C   0  0  0  0  0  0  0  0  0  0  0  0
   13.2971   -4.1744  -16.3161 C   0  0  0  0  0  0  0  0  0  0  0  0
   14.5619   -3.5085  -15.7510 C   0  0  0  0  0  0  0  0  0  0  0  0
    8.8033  -16.6041  -11.6355 C   0  0  0  0  0  0  0  0  0  0  0  0
    9.8570  -17.4918  -12.0127 O   0  0  0  0  0  0  0  0  0  0  0  0
 29  1  1  0  0  0
  4  1  1  0  0  0
  1  3  2  0  0  0
  5  2  1  0  0  0
  4  2  1  0  0  0
  4 33  1  0  0  0
 34 33  1  0  0  0
 35 33  1  0  0  0
 33 36  1  0  0  0
 25  5  2  0  0  0
  5 26  1  0  0  0
 21  6  2  0  0  0
  6 19  1  0  0  0
 15  7  2  0  0  0
  7 12  1  0  0  0
 24  8  2  0  0  0
  8 21  1  0  0  0
 10  9  1  0  0  0
 11  9  1  0  0  0
 13 10  1  0  0  0
 10 11  1  0  0  0
 11 26  1  0  0  0
 52 51  1  0  0  0
 53 51  1  0  0  0
 52 53  1  0  0  0
 49 48  2  0  0  0
 53 49  1  0  0  0
 44 49  1  0  0  0
 49 50  2  0  0  0
 39 41  1  0  0  0
 41 46  1  0  0  0
 41 43  1  0  0  0
 41 42  1  0  0  0
 38 37  2  0  0  0
 28 38  1  0  0  0
 38 39  1  0  0  0
 42 54  1  0  0  0
 54 55  2  0  0  0
 12 21  1  0  0  0
 12 22  2  0  0  0
 17 13  1  0  0  0
 44 46  1  0  0  0
 43 42  1  0  0  0
 18 14  1  0  0  0
 14 17  1  0  0  0
 15 24  1  0  0  0
 19 16  1  0  0  0
 16 31  1  0  0  0
 57 56  1  0  0  0
 57 24  1  0  0  0
 18 23  1  0  0  0
 20 19  2  0  0  0
 22 20  1  0  0  0
 20 23  1  0  0  0
 46 45  2  0  0  0
 31 27  1  0  0  0
 27 28  1  0  0  0
 28 29  1  0  0  0
 30 29  1  0  0  0
 31 30  1  0  0  0
  2 32  1  0  0  0
 44 47  1  0  0  0
 39 40  1  0  0  0
M  END
> <minimizedAffinity>
-10.45699

$$$$
3SUG_SUE_A_1201


 57 63  0  0  0  0  0  0  0  0999 V2000
   15.9443   -8.4131  -13.8534 C   0  0  0  0  0  0  0  0  0  0  0  0
   18.2247   -7.8205  -13.5949 N   0  0  0  0  0  0  0  0  0  0  0  0
   15.6748   -7.5324  -14.6732 O   0  0  0  0  0  0  0  0  0  0  0  0
   16.9549   -8.1695  -12.9005 C   0  0  0  0  0  0  0  0  0  0  0  0
   19.0552   -8.8052  -14.1558 C   0  0  0  0  0  0  0  0  0  0  0  0
   14.2158  -14.5085  -14.7947 N   0  0  0  0  0  0  0  0  0  0  0  0
   14.4445  -17.3541  -17.0858 C   0  0  0  0  0  0  0  0  0  0  0  0
   13.0024  -16.5442  -14.8321 C   0  0  0  0  0  0  0  0  0  0  0  0
   21.8781   -9.2240  -16.4991 C   0  0  0  0  0  0  0  0  0  0  0  0
   20.8306  -10.3251  -16.3661 C   0  0  0  0  0  0  0  0  0  0  0  0
   21.1357   -9.4109  -15.1676 C   0  0  0  0  0  0  0  0  0  0  0  0
   14.6963  -16.1162  -16.4898 C   0  0  0  0  0  0  0  0  0  0  0  0
   21.3065  -11.7979  -16.2206 C   0  0  0  0  0  0  0  0  0  0  0  0
   18.9725  -12.4435  -16.4691 C   0  0  0  0  0  0  0  0  0  0  0  0
   13.4640  -18.1821  -16.5462 C   0  0  0  0  0  0  0  0  0  0  0  0
   15.4615  -12.4645  -14.8026 O   0  0  0  0  0  0  0  0  0  0  0  0
   20.1944  -12.6068  -15.5906 C   0  0  0  0  0  0  0  0  0  0  0  0
   18.1382  -13.6703  -16.2795 C   0  0  0  0  0  0  0  0  0  0  0  0
   15.1567  -13.6968  -15.3166 C   0  0  0  0  0  0  0  0  0  0  0  0
   15.8818  -14.1080  -16.4427 C   0  0  0  0  0  0  0  0  0  0  0  0
   13.9799  -15.7080  -15.3612 C   0  0  0  0  0  0  0  0  0  0  0  0
   15.6277  -15.3021  -17.0029 N   0  0  0  0  0  0  0  0  0  0  0  0
   16.8600  -13.3237  -17.0138 C   0  0  0  0  0  0  0  0  0  0  0  0
   12.7383  -17.7817  -15.4266 C   0  0  0  0  0  0  0  0  0  0  0  0
   18.7274   -9.9901  -14.0619 O   0  0  0  0  0  0  0  0  0  0  0  0
   20.1894   -8.3741  -14.7907 O   0  0  0  0  0  0  0  0  0  0  0  0
   13.3953  -11.0878  -14.4191 C   0  0  0  0  0  0  0  0  0  0  0  0
   14.1018   -9.8286  -14.8897 C   0  0  0  0  0  0  0  0  0  0  0  0
   15.2289   -9.5539  -13.9041 N   0  0  0  0  0  0  0  0  0  0  0  0
   15.3638  -10.7613  -13.0482 C   0  0  0  0  0  0  0  0  0  0  0  0
   14.5827  -11.8414  -13.7965 C   0  0  0  0  0  0  0  0  0  0  0  0
   18.4895   -6.8747  -13.6628 H   0  0  0  0  0  0  0  0  0  0  0  0
   16.5405   -7.0325  -11.9327 C   0  0  0  0  0  0  0  0  0  0  0  0
   17.1107   -5.7069  -12.4547 C   0  0  0  0  0  0  0  0  0  0  0  0
   17.1050   -7.3133  -10.5314 C   0  0  0  0  0  0  0  0  0  0  0  0
   15.0156   -6.8874  -11.8094 C   0  0  0  0  0  0  0  0  0  0  0  0
   12.6441   -8.3777  -13.8892 O   0  0  0  0  0  0  0  0  0  0  0  0
   13.2669   -8.6860  -14.9048 C   0  0  0  0  0  0  0  0  0  0  0  0
   13.2632   -7.9274  -16.0316 N   0  0  0  0  0  0  0  0  0  0  0  0
   13.7243   -8.2700  -16.8311 H   0  0  0  0  0  0  0  0  0  0  0  0
   12.5920   -6.6000  -16.1107 C   0  0  0  0  0  0  0  0  0  0  0  0
   13.3532   -5.5529  -16.9311 C   0  0  0  0  0  0  0  0  0  0  0  0
   12.1356   -6.2232  -17.4710 C   0  0  0  0  0  0  0  0  0  0  0  0
   10.3471   -6.4933  -15.1532 N   0  0  0  0  0  0  0  0  0  0  0  0
   11.9994   -5.4322  -14.0627 O   0  0  0  0  0  0  0  0  0  0  0  0
   11.6227   -6.1510  -14.9928 C   0  0  0  0  0  0  0  0  0  0  0  0
   10.0291   -6.9789  -15.9483 H   0  0  0  0  0  0  0  0  0  0  0  0
    7.9428   -6.2000  -14.4132 O   0  0  0  0  0  0  0  0  0  0  0  0
    9.4080   -6.0809  -14.0178 S   0  0  0  0  0  0  0  0  0  0  0  0
    9.7798   -4.6277  -13.6701 O   0  0  0  0  0  0  0  0  0  0  0  0
   10.3086   -6.4780  -11.2949 C   0  0  0  0  0  0  0  0  0  0  0  0
    8.8987   -6.7431  -11.2342 C   0  0  0  0  0  0  0  0  0  0  0  0
    9.6859   -7.1314  -12.4134 C   0  0  0  0  0  0  0  0  0  0  0  0
   13.2570   -4.0703  -16.5859 C   0  0  0  0  0  0  0  0  0  0  0  0
   14.4082   -3.3785  -15.8384 C   0  0  0  0  0  0  0  0  0  0  0  0
   11.1600  -18.1919  -13.7186 C   0  0  0  0  0  0  0  0  0  0  0  0
   11.7975  -18.6260  -14.9209 O   0  0  0  0  0  0  0  0  0  0  0  0
 29  1  1  0  0  0
  4  1  1  0  0  0
  1  3  2  0  0  0
  5  2  1  0  0  0
  4  2  1  0  0  0
  4 33  1  0  0  0
 34 33  1  0  0  0
 35 33  1  0  0  0
 33 36  1  0  0  0
 25  5  2  0  0  0
  5 26  1  0  0  0
 21  6  2  0  0  0
  6 19  1  0  0  0
 15  7  2  0  0  0
  7 12  1  0  0  0
 24  8  2  0  0  0
  8 21  1  0  0  0
 10  9  1  0  0  0
 11  9  1  0  0  0
 13 10  1  0  0  0
 10 11  1  0  0  0
 11 26  1  0  0  0
 52 51  1  0  0  0
 53 51  1  0  0  0
 52 53  1  0  0  0
 49 48  2  0  0  0
 53 49  1  0  0  0
 44 49  1  0  0  0
 49 50  2  0  0  0
 39 41  1  0  0  0
 41 46  1  0  0  0
 41 43  1  0  0  0
 41 42  1  0  0  0
 38 37  2  0  0  0
 28 38  1  0  0  0
 38 39  1  0  0  0
 42 54  1  0  0  0
 54 55  2  0  0  0
 12 21  1  0  0  0
 12 22  2  0  0  0
 17 13  1  0  0  0
 44 46  1  0  0  0
 43 42  1  0  0  0
 18 14  1  0  0  0
 14 17  1  0  0  0
 15 24  1  0  0  0
 19 16  1  0  0  0
 16 31  1  0  0  0
 57 56  1  0  0  0
 57 24  1  0  0  0
 18 23  1  0  0  0
 20 19  2  0  0  0
 22 20  1  0  0  0
 20 23  1  0  0  0
 46 45  2  0  0  0
 31 27  1  0  0  0
 27 28  1  0  0  0
 28 29  1  0  0  0
 30 29  1  0  0  0
 31 30  1  0  0  0
  2 32  1  0  0  0
 44 47  1  0  0  0
 39 40  1  0  0  0
M  END
> <minimizedAffinity>
-9.01745

$$$$
3SUG_SUE_A_1201


 57 63  0  0  0  0  0  0  0  0999 V2000
   17.5796   -7.6582  -13.8676 C   0  0  0  0  0  0  0  0  0  0  0  0
   19.8905   -7.7536  -13.3492 N   0  0  0  0  0  0  0  0  0  0  0  0
   17.6801   -6.7973  -14.7447 O   0  0  0  0  0  0  0  0  0  0  0  0
   18.5076   -7.6593  -12.8059 C   0  0  0  0  0  0  0  0  0  0  0  0
   20.4383   -8.9777  -13.7682 C   0  0  0  0  0  0  0  0  0  0  0  0
   14.1942  -13.0147  -14.8030 N   0  0  0  0  0  0  0  0  0  0  0  0
   13.7935  -15.9539  -16.9475 C   0  0  0  0  0  0  0  0  0  0  0  0
   12.4316  -14.5948  -14.9195 C   0  0  0  0  0  0  0  0  0  0  0  0
   23.2359  -10.3811  -15.7275 C   0  0  0  0  0  0  0  0  0  0  0  0
   21.8956  -11.1088  -15.6870 C   0  0  0  0  0  0  0  0  0  0  0  0
   22.3329  -10.2444  -14.4926 C   0  0  0  0  0  0  0  0  0  0  0  0
   14.3436  -14.8079  -16.3684 C   0  0  0  0  0  0  0  0  0  0  0  0
   21.8834  -12.6424  -15.4324 C   0  0  0  0  0  0  0  0  0  0  0  0
   19.5046  -12.5808  -15.9457 C   0  0  0  0  0  0  0  0  0  0  0  0
   12.5559  -16.4127  -16.5051 C   0  0  0  0  0  0  0  0  0  0  0  0
   15.9949  -11.4393  -14.7276 O   0  0  0  0  0  0  0  0  0  0  0  0
   20.5172  -13.0374  -14.9174 C   0  0  0  0  0  0  0  0  0  0  0  0
   18.3219  -13.4875  -15.8184 C   0  0  0  0  0  0  0  0  0  0  0  0
   15.3876  -12.5583  -15.2321 C   0  0  0  0  0  0  0  0  0  0  0  0
   16.0704  -13.2450  -16.2447 C   0  0  0  0  0  0  0  0  0  0  0  0
   13.6677  -14.1266  -15.3522 C   0  0  0  0  0  0  0  0  0  0  0  0
   15.5277  -14.3460  -16.7901 N   0  0  0  0  0  0  0  0  0  0  0  0
   17.2961  -12.8293  -16.7171 C   0  0  0  0  0  0  0  0  0  0  0  0
   11.8698  -15.7367  -15.4988 C   0  0  0  0  0  0  0  0  0  0  0  0
   19.7581  -10.0018  -13.6744 O   0  0  0  0  0  0  0  0  0  0  0  0
   21.7112   -8.9492  -14.2722 O   0  0  0  0  0  0  0  0  0  0  0  0
   14.4154   -9.4870  -14.6514 C   0  0  0  0  0  0  0  0  0  0  0  0
   15.5172   -8.5313  -15.0744 C   0  0  0  0  0  0  0  0  0  0  0  0
   16.5615   -8.5353  -13.9668 N   0  0  0  0  0  0  0  0  0  0  0  0
   16.2305   -9.6646  -13.0593 C   0  0  0  0  0  0  0  0  0  0  0  0
   15.2437  -10.5136  -13.8605 C   0  0  0  0  0  0  0  0  0  0  0  0
   20.4356   -6.9365  -13.4167 H   0  0  0  0  0  0  0  0  0  0  0  0
   18.3563   -6.3851  -11.9371 C   0  0  0  0  0  0  0  0  0  0  0  0
   18.4928   -5.1521  -12.8402 C   0  0  0  0  0  0  0  0  0  0  0  0
   19.4564   -6.3555  -10.8647 C   0  0  0  0  0  0  0  0  0  0  0  0
   16.9969   -6.3138  -11.2240 C   0  0  0  0  0  0  0  0  0  0  0  0
   14.7469   -6.7956  -16.3490 O   0  0  0  0  0  0  0  0  0  0  0  0
   15.0752   -7.1963  -15.2327 C   0  0  0  0  0  0  0  0  0  0  0  0
   14.9522   -6.4397  -14.1113 N   0  0  0  0  0  0  0  0  0  0  0  0
   15.3015   -6.7960  -13.2626 H   0  0  0  0  0  0  0  0  0  0  0  0
   14.3121   -5.0947  -14.1093 C   0  0  0  0  0  0  0  0  0  0  0  0
   15.0548   -4.0407  -13.2809 C   0  0  0  0  0  0  0  0  0  0  0  0
   15.1108   -4.0340  -14.7709 C   0  0  0  0  0  0  0  0  0  0  0  0
   12.0088   -5.7370  -13.6094 N   0  0  0  0  0  0  0  0  0  0  0  0
   12.3430   -4.2391  -15.2495 O   0  0  0  0  0  0  0  0  0  0  0  0
   12.7911   -4.9571  -14.3509 C   0  0  0  0  0  0  0  0  0  0  0  0
   12.3728   -6.3852  -12.9639 H   0  0  0  0  0  0  0  0  0  0  0  0
   10.1346   -5.5676  -15.3043 O   0  0  0  0  0  0  0  0  0  0  0  0
   10.5050   -5.5578  -13.8278 S   0  0  0  0  0  0  0  0  0  0  0  0
   10.1398   -4.2165  -13.1657 O   0  0  0  0  0  0  0  0  0  0  0  0
    8.4657   -6.4920  -11.9973 C   0  0  0  0  0  0  0  0  0  0  0  0
    8.0334   -6.9833  -13.2753 C   0  0  0  0  0  0  0  0  0  0  0  0
    9.4627   -6.9269  -12.9366 C   0  0  0  0  0  0  0  0  0  0  0  0
   14.2946   -2.9127  -12.5909 C   0  0  0  0  0  0  0  0  0  0  0  0
   14.7555   -2.4032  -11.2159 C   0  0  0  0  0  0  0  0  0  0  0  0
   10.6043  -16.6293  -13.7159 C   0  0  0  0  0  0  0  0  0  0  0  0
   10.6684  -16.2251  -15.0845 O   0  0  0  0  0  0  0  0  0  0  0  0
 29  1  1  0  0  0
  4  1  1  0  0  0
  1  3  2  0  0  0
  5  2  1  0  0  0
  4  2  1  0  0  0
  4 33  1  0  0  0
 34 33  1  0  0  0
 35 33  1  0  0  0
 33 36  1  0  0  0
 25  5  2  0  0  0
  5 26  1  0  0  0
 21  6  2  0  0  0
  6 19  1  0  0  0
 15  7  2  0  0  0
  7 12  1  0  0  0
 24  8  2  0  0  0
  8 21  1  0  0  0
 10  9  1  0  0  0
 11  9  1  0  0  0
 13 10  1  0  0  0
 10 11  1  0  0  0
 11 26  1  0  0  0
 52 51  1  0  0  0
 53 51  1  0  0  0
 52 53  1  0  0  0
 49 48  2  0  0  0
 53 49  1  0  0  0
 44 49  1  0  0  0
 49 50  2  0  0  0
 39 41  1  0  0  0
 41 46  1  0  0  0
 41 43  1  0  0  0
 41 42  1  0  0  0
 38 37  2  0  0  0
 28 38  1  0  0  0
 38 39  1  0  0  0
 42 54  1  0  0  0
 54 55  2  0  0  0
 12 21  1  0  0  0
 12 22  2  0  0  0
 17 13  1  0  0  0
 44 46  1  0  0  0
 43 42  1  0  0  0
 18 14  1  0  0  0
 14 17  1  0  0  0
 15 24  1  0  0  0
 19 16  1  0  0  0
 16 31  1  0  0  0
 57 56  1  0  0  0
 57 24  1  0  0  0
 18 23  1  0  0  0
 20 19  2  0  0  0
 22 20  1  0  0  0
 20 23  1  0  0  0
 46 45  2  0  0  0
 31 27  1  0  0  0
 27 28  1  0  0  0
 28 29  1  0  0  0
 30 29  1  0  0  0
 31 30  1  0  0  0
  2 32  1  0  0  0
 44 47  1  0  0  0
 39 40  1  0  0  0
M  END
> <minimizedAffinity>
-8.90671

$$$$
3SUG_SUE_A_1201


 57 63  0  0  0  0  0  0  0  0999 V2000
   16.5295  -10.7783  -14.4522 C   0  0  0  0  0  0  0  0  0  0  0  0
   18.6044  -11.3117  -15.4664 N   0  0  0  0  0  0  0  0  0  0  0  0
   16.2008   -9.9209  -15.2752 O   0  0  0  0  0  0  0  0  0  0  0  0
   17.9007  -10.9851  -14.1958 C   0  0  0  0  0  0  0  0  0  0  0  0
   18.5618  -12.6003  -16.0248 C   0  0  0  0  0  0  0  0  0  0  0  0
   12.4804  -15.3915  -12.6216 N   0  0  0  0  0  0  0  0  0  0  0  0
   10.3565  -18.1334  -13.7919 C   0  0  0  0  0  0  0  0  0  0  0  0
   10.8009  -16.6183  -11.4850 C   0  0  0  0  0  0  0  0  0  0  0  0
   19.2509  -14.4235  -19.1611 C   0  0  0  0  0  0  0  0  0  0  0  0
   18.1319  -14.8951  -18.2376 C   0  0  0  0  0  0  0  0  0  0  0  0
   19.3522  -14.1663  -17.6502 C   0  0  0  0  0  0  0  0  0  0  0  0
   11.3257  -17.1276  -13.7798 C   0  0  0  0  0  0  0  0  0  0  0  0
   18.0301  -16.4084  -17.8965 C   0  0  0  0  0  0  0  0  0  0  0  0
   15.9010  -15.8960  -16.8334 C   0  0  0  0  0  0  0  0  0  0  0  0
    9.6105  -18.3733  -12.6414 C   0  0  0  0  0  0  0  0  0  0  0  0
   14.1625  -14.1749  -13.8134 O   0  0  0  0  0  0  0  0  0  0  0  0
   17.2414  -16.5647  -16.6154 C   0  0  0  0  0  0  0  0  0  0  0  0
   14.9273  -16.5753  -15.9237 C   0  0  0  0  0  0  0  0  0  0  0  0
   13.2005  -15.1464  -13.7343 C   0  0  0  0  0  0  0  0  0  0  0  0
   12.9794  -15.9113  -14.8871 C   0  0  0  0  0  0  0  0  0  0  0  0
   11.5535  -16.3692  -12.6280 C   0  0  0  0  0  0  0  0  0  0  0  0
   12.0442  -16.8755  -14.8814 N   0  0  0  0  0  0  0  0  0  0  0  0
   13.6905  -15.7106  -16.0500 C   0  0  0  0  0  0  0  0  0  0  0  0
    9.8234  -17.6180  -11.4904 C   0  0  0  0  0  0  0  0  0  0  0  0
   17.9323  -13.4856  -15.4415 O   0  0  0  0  0  0  0  0  0  0  0  0
   19.2260  -12.7876  -17.2076 O   0  0  0  0  0  0  0  0  0  0  0  0
   13.3216  -11.9708  -12.9493 C   0  0  0  0  0  0  0  0  0  0  0  0
   14.0572  -11.2185  -14.0444 C   0  0  0  0  0  0  0  0  0  0  0  0
   15.5453  -11.4508  -13.8238 N   0  0  0  0  0  0  0  0  0  0  0  0
   15.6728  -12.5310  -12.8110 C   0  0  0  0  0  0  0  0  0  0  0  0
   14.2798  -13.1578  -12.7530 C   0  0  0  0  0  0  0  0  0  0  0  0
   19.1130  -10.6062  -15.9276 H   0  0  0  0  0  0  0  0  0  0  0  0
   18.5349   -9.7350  -13.5352 C   0  0  0  0  0  0  0  0  0  0  0  0
   19.6961  -10.1852  -12.6388 C   0  0  0  0  0  0  0  0  0  0  0  0
   17.4830   -9.0104  -12.6810 C   0  0  0  0  0  0  0  0  0  0  0  0
   19.0801   -8.7341  -14.5660 C   0  0  0  0  0  0  0  0  0  0  0  0
   14.1125   -9.1886  -12.9923 O   0  0  0  0  0  0  0  0  0  0  0  0
   13.8391   -9.8207  -14.0122 C   0  0  0  0  0  0  0  0  0  0  0  0
   13.4135   -9.2262  -15.1570 N   0  0  0  0  0  0  0  0  0  0  0  0
   13.1434   -9.7978  -15.9118 H   0  0  0  0  0  0  0  0  0  0  0  0
   13.3376   -7.7476  -15.3207 C   0  0  0  0  0  0  0  0  0  0  0  0
   12.2313   -7.2710  -16.2683 C   0  0  0  0  0  0  0  0  0  0  0  0
   12.0955   -7.1345  -14.7897 C   0  0  0  0  0  0  0  0  0  0  0  0
   14.7016   -6.2964  -13.9062 N   0  0  0  0  0  0  0  0  0  0  0  0
   15.3945   -6.6527  -16.0129 O   0  0  0  0  0  0  0  0  0  0  0  0
   14.5948   -6.8752  -15.0993 C   0  0  0  0  0  0  0  0  0  0  0  0
   14.0101   -6.3916  -13.2119 H   0  0  0  0  0  0  0  0  0  0  0  0
   17.1448   -5.9980  -14.5027 O   0  0  0  0  0  0  0  0  0  0  0  0
   15.9722   -5.4728  -13.6864 S   0  0  0  0  0  0  0  0  0  0  0  0
   16.2633   -5.5420  -12.1759 O   0  0  0  0  0  0  0  0  0  0  0  0
   14.6573   -3.2721  -15.0320 C   0  0  0  0  0  0  0  0  0  0  0  0
   14.4856   -2.9760  -13.6376 C   0  0  0  0  0  0  0  0  0  0  0  0
   15.7229   -3.6020  -14.1257 C   0  0  0  0  0  0  0  0  0  0  0  0
   12.4024   -5.9969  -17.0893 C   0  0  0  0  0  0  0  0  0  0  0  0
   11.5590   -4.7537  -16.7645 C   0  0  0  0  0  0  0  0  0  0  0  0
    9.0880  -16.8845   -9.3696 C   0  0  0  0  0  0  0  0  0  0  0  0
    9.0827  -17.8926  -10.3816 O   0  0  0  0  0  0  0  0  0  0  0  0
 29  1  1  0  0  0
  4  1  1  0  0  0
  1  3  2  0  0  0
  5  2  1  0  0  0
  4  2  1  0  0  0
  4 33  1  0  0  0
 34 33  1  0  0  0
 35 33  1  0  0  0
 33 36  1  0  0  0
 25  5  2  0  0  0
  5 26  1  0  0  0
 21  6  2  0  0  0
  6 19  1  0  0  0
 15  7  2  0  0  0
  7 12  1  0  0  0
 24  8  2  0  0  0
  8 21  1  0  0  0
 10  9  1  0  0  0
 11  9  1  0  0  0
 13 10  1  0  0  0
 10 11  1  0  0  0
 11 26  1  0  0  0
 52 51  1  0  0  0
 53 51  1  0  0  0
 52 53  1  0  0  0
 49 48  2  0  0  0
 53 49  1  0  0  0
 44 49  1  0  0  0
 49 50  2  0  0  0
 39 41  1  0  0  0
 41 46  1  0  0  0
 41 43  1  0  0  0
 41 42  1  0  0  0
 38 37  2  0  0  0
 28 38  1  0  0  0
 38 39  1  0  0  0
 42 54  1  0  0  0
 54 55  2  0  0  0
 12 21  1  0  0  0
 12 22  2  0  0  0
 17 13  1  0  0  0
 44 46  1  0  0  0
 43 42  1  0  0  0
 18 14  1  0  0  0
 14 17  1  0  0  0
 15 24  1  0  0  0
 19 16  1  0  0  0
 16 31  1  0  0  0
 57 56  1  0  0  0
 57 24  1  0  0  0
 18 23  1  0  0  0
 20 19  2  0  0  0
 22 20  1  0  0  0
 20 23  1  0  0  0
 46 45  2  0  0  0
 31 27  1  0  0  0
 27 28  1  0  0  0
 28 29  1  0  0  0
 30 29  1  0  0  0
 31 30  1  0  0  0
  2 32  1  0  0  0
 44 47  1  0  0  0
 39 40  1  0  0  0
M  END
> <minimizedAffinity>
-8.04760

$$$$
3SUG_SUE_A_1201


 57 63  0  0  0  0  0  0  0  0999 V2000
   15.9956  -10.0870  -14.1571 C   0  0  0  0  0  0  0  0  0  0  0  0
   18.1745  -10.4263  -15.0262 N   0  0  0  0  0  0  0  0  0  0  0  0
   15.6481   -9.2582  -15.0014 O   0  0  0  0  0  0  0  0  0  0  0  0
   17.3591  -10.1710  -13.8071 C   0  0  0  0  0  0  0  0  0  0  0  0
   18.2864  -11.7105  -15.5852 C   0  0  0  0  0  0  0  0  0  0  0  0
   12.2626  -15.0551  -12.6047 N   0  0  0  0  0  0  0  0  0  0  0  0
   10.4791  -17.9704  -13.9157 C   0  0  0  0  0  0  0  0  0  0  0  0
   10.6266  -16.4339  -11.5850 C   0  0  0  0  0  0  0  0  0  0  0  0
   19.3496  -13.4475  -18.6654 C   0  0  0  0  0  0  0  0  0  0  0  0
   18.2171  -14.0227  -17.8204 C   0  0  0  0  0  0  0  0  0  0  0  0
   19.3238  -13.1903  -17.1513 C   0  0  0  0  0  0  0  0  0  0  0  0
   11.3507  -16.8816  -13.8379 C   0  0  0  0  0  0  0  0  0  0  0  0
   18.2288  -15.5408  -17.4859 C   0  0  0  0  0  0  0  0  0  0  0  0
   15.9946  -15.2275  -16.5716 C   0  0  0  0  0  0  0  0  0  0  0  0
    9.6808  -18.2825  -12.8188 C   0  0  0  0  0  0  0  0  0  0  0  0
   13.9059  -13.6859  -13.6793 O   0  0  0  0  0  0  0  0  0  0  0  0
   17.3717  -15.7742  -16.2617 C   0  0  0  0  0  0  0  0  0  0  0  0
   15.0260  -15.9965  -15.7302 C   0  0  0  0  0  0  0  0  0  0  0  0
   13.0320  -14.7403  -13.6656 C   0  0  0  0  0  0  0  0  0  0  0  0
   12.9600  -15.5158  -14.8302 C   0  0  0  0  0  0  0  0  0  0  0  0
   11.4300  -16.1121  -12.6738 C   0  0  0  0  0  0  0  0  0  0  0  0
   12.1172  -16.5601  -14.8879 N   0  0  0  0  0  0  0  0  0  0  0  0
   13.7280  -15.2458  -15.9418 C   0  0  0  0  0  0  0  0  0  0  0  0
    9.7457  -17.5173  -11.6566 C   0  0  0  0  0  0  0  0  0  0  0  0
   17.7007  -12.6518  -15.0456 O   0  0  0  0  0  0  0  0  0  0  0  0
   19.0440  -11.8310  -16.7195 O   0  0  0  0  0  0  0  0  0  0  0  0
   12.8129  -11.5709  -12.8767 C   0  0  0  0  0  0  0  0  0  0  0  0
   13.5509  -10.7497  -13.9194 C   0  0  0  0  0  0  0  0  0  0  0  0
   15.0353  -10.8485  -13.5971 N   0  0  0  0  0  0  0  0  0  0  0  0
   15.1900  -11.9183  -12.5771 C   0  0  0  0  0  0  0  0  0  0  0  0
   13.8584  -12.6680  -12.6142 C   0  0  0  0  0  0  0  0  0  0  0  0
   18.6479   -9.6754  -15.4520 H   0  0  0  0  0  0  0  0  0  0  0  0
   17.8315   -8.8726  -13.1056 C   0  0  0  0  0  0  0  0  0  0  0  0
   16.7791   -8.4605  -12.0676 C   0  0  0  0  0  0  0  0  0  0  0  0
   17.9897   -7.7509  -14.1438 C   0  0  0  0  0  0  0  0  0  0  0  0
   19.1782   -9.0459  -12.3858 C   0  0  0  0  0  0  0  0  0  0  0  0
   13.3267   -8.7349  -12.8607 O   0  0  0  0  0  0  0  0  0  0  0  0
   13.2062   -9.3773  -13.9034 C   0  0  0  0  0  0  0  0  0  0  0  0
   12.8361   -8.8103  -15.0809 N   0  0  0  0  0  0  0  0  0  0  0  0
   12.6889   -9.3951  -15.8591 H   0  0  0  0  0  0  0  0  0  0  0  0
   12.6431   -7.3426  -15.2465 C   0  0  0  0  0  0  0  0  0  0  0  0
   13.7729   -6.6364  -16.0038 C   0  0  0  0  0  0  0  0  0  0  0  0
   12.4563   -6.9028  -16.6509 C   0  0  0  0  0  0  0  0  0  0  0  0
   10.4606   -6.6901  -14.3641 N   0  0  0  0  0  0  0  0  0  0  0  0
   12.2832   -5.7674  -13.4303 O   0  0  0  0  0  0  0  0  0  0  0  0
   11.7778   -6.5533  -14.2369 C   0  0  0  0  0  0  0  0  0  0  0  0
   10.0551   -7.2376  -15.0748 H   0  0  0  0  0  0  0  0  0  0  0  0
    8.1287   -6.1931  -13.5100 O   0  0  0  0  0  0  0  0  0  0  0  0
    9.6188   -5.9388  -13.3306 S   0  0  0  0  0  0  0  0  0  0  0  0
    9.9603   -4.4483  -13.5121 O   0  0  0  0  0  0  0  0  0  0  0  0
    9.0424   -6.8778  -10.6532 C   0  0  0  0  0  0  0  0  0  0  0  0
    9.9927   -7.8297  -11.1556 C   0  0  0  0  0  0  0  0  0  0  0  0
   10.0947   -6.4071  -11.5115 C   0  0  0  0  0  0  0  0  0  0  0  0
   14.1343   -5.1875  -15.6928 C   0  0  0  0  0  0  0  0  0  0  0  0
   13.6042   -4.0540  -16.5854 C   0  0  0  0  0  0  0  0  0  0  0  0
    8.5227  -19.2234  -10.5747 C   0  0  0  0  0  0  0  0  0  0  0  0
    8.9587  -17.8634  -10.6009 O   0  0  0  0  0  0  0  0  0  0  0  0
 29  1  1  0  0  0
  4  1  1  0  0  0
  1  3  2  0  0  0
  5  2  1  0  0  0
  4  2  1  0  0  0
  4 33  1  0  0  0
 34 33  1  0  0  0
 35 33  1  0  0  0
 33 36  1  0  0  0
 25  5  2  0  0  0
  5 26  1  0  0  0
 21  6  2  0  0  0
  6 19  1  0  0  0
 15  7  2  0  0  0
  7 12  1  0  0  0
 24  8  2  0  0  0
  8 21  1  0  0  0
 10  9  1  0  0  0
 11  9  1  0  0  0
 13 10  1  0  0  0
 10 11  1  0  0  0
 11 26  1  0  0  0
 52 51  1  0  0  0
 53 51  1  0  0  0
 52 53  1  0  0  0
 49 48  2  0  0  0
 53 49  1  0  0  0
 44 49  1  0  0  0
 49 50  2  0  0  0
 39 41  1  0  0  0
 41 46  1  0  0  0
 41 43  1  0  0  0
 41 42  1  0  0  0
 38 37  2  0  0  0
 28 38  1  0  0  0
 38 39  1  0  0  0
 42 54  1  0  0  0
 54 55  2  0  0  0
 12 21  1  0  0  0
 12 22  2  0  0  0
 17 13  1  0  0  0
 44 46  1  0  0  0
 43 42  1  0  0  0
 18 14  1  0  0  0
 14 17  1  0  0  0
 15 24  1  0  0  0
 19 16  1  0  0  0
 16 31  1  0  0  0
 57 56  1  0  0  0
 57 24  1  0  0  0
 18 23  1  0  0  0
 20 19  2  0  0  0
 22 20  1  0  0  0
 20 23  1  0  0  0
 46 45  2  0  0  0
 31 27  1  0  0  0
 27 28  1  0  0  0
 28 29  1  0  0  0
 30 29  1  0  0  0
 31 30  1  0  0  0
  2 32  1  0  0  0
 44 47  1  0  0  0
 39 40  1  0  0  0
M  END
> <minimizedAffinity>
-7.84762

$$$$
3SUG_SUE_A_1201


 57 63  0  0  0  0  0  0  0  0999 V2000
   14.7495   -6.5105  -12.8756 C   0  0  0  0  0  0  0  0  0  0  0  0
   13.2054   -5.0714  -11.7974 N   0  0  0  0  0  0  0  0  0  0  0  0
   15.6820   -6.3066  -12.0949 O   0  0  0  0  0  0  0  0  0  0  0  0
   13.8086   -5.4834  -13.0947 C   0  0  0  0  0  0  0  0  0  0  0  0
   12.1816   -5.8163  -11.1885 C   0  0  0  0  0  0  0  0  0  0  0  0
   13.0632  -12.4435  -14.6030 N   0  0  0  0  0  0  0  0  0  0  0  0
   12.0068  -15.7233  -13.3678 C   0  0  0  0  0  0  0  0  0  0  0  0
   12.9182  -14.5267  -15.7241 C   0  0  0  0  0  0  0  0  0  0  0  0
   10.4252   -6.2345   -7.9675 C   0  0  0  0  0  0  0  0  0  0  0  0
   10.6088   -7.4322   -8.8944 C   0  0  0  0  0  0  0  0  0  0  0  0
   10.5150   -6.0153   -9.4850 C   0  0  0  0  0  0  0  0  0  0  0  0
   12.3082  -14.3597  -13.4002 C   0  0  0  0  0  0  0  0  0  0  0  0
    9.3900   -8.3551   -9.1762 C   0  0  0  0  0  0  0  0  0  0  0  0
   10.9444   -9.8514  -10.3035 C   0  0  0  0  0  0  0  0  0  0  0  0
   12.1672  -16.4831  -14.5231 C   0  0  0  0  0  0  0  0  0  0  0  0
   13.2007  -10.3635  -13.4263 O   0  0  0  0  0  0  0  0  0  0  0  0
    9.6376   -9.1049  -10.4663 C   0  0  0  0  0  0  0  0  0  0  0  0
   10.8756  -11.0427  -11.2053 C   0  0  0  0  0  0  0  0  0  0  0  0
   12.9198  -11.7026  -13.4863 C   0  0  0  0  0  0  0  0  0  0  0  0
   12.4573  -12.3040  -12.3084 C   0  0  0  0  0  0  0  0  0  0  0  0
   12.7616  -13.7563  -14.5767 C   0  0  0  0  0  0  0  0  0  0  0  0
   12.1710  -13.6163  -12.2948 N   0  0  0  0  0  0  0  0  0  0  0  0
   12.2842  -11.5948  -11.1400 C   0  0  0  0  0  0  0  0  0  0  0  0
   12.6262  -15.8938  -15.6989 C   0  0  0  0  0  0  0  0  0  0  0  0
   11.7660   -6.8330  -11.7487 O   0  0  0  0  0  0  0  0  0  0  0  0
   11.7123   -5.3606   -9.9855 O   0  0  0  0  0  0  0  0  0  0  0  0
   15.4608   -9.8503  -14.3960 C   0  0  0  0  0  0  0  0  0  0  0  0
   15.7302   -8.8162  -13.3170 C   0  0  0  0  0  0  0  0  0  0  0  0
   14.7049   -7.7055  -13.4969 N   0  0  0  0  0  0  0  0  0  0  0  0
   13.6896   -8.2011  -14.4623 C   0  0  0  0  0  0  0  0  0  0  0  0
   13.9347   -9.7087  -14.5242 C   0  0  0  0  0  0  0  0  0  0  0  0
   13.5327   -4.2553  -11.3545 H   0  0  0  0  0  0  0  0  0  0  0  0
   14.4690   -4.2671  -13.7917 C   0  0  0  0  0  0  0  0  0  0  0  0
   14.4244   -3.0663  -12.8373 C   0  0  0  0  0  0  0  0  0  0  0  0
   13.6991   -3.9254  -15.0769 C   0  0  0  0  0  0  0  0  0  0  0  0
   15.9349   -4.5279  -14.1721 C   0  0  0  0  0  0  0  0  0  0  0  0
   17.3216   -7.6059  -14.4276 O   0  0  0  0  0  0  0  0  0  0  0  0
   17.0128   -8.2255  -13.4101 C   0  0  0  0  0  0  0  0  0  0  0  0
   17.8182   -8.3007  -12.3189 N   0  0  0  0  0  0  0  0  0  0  0  0
   17.5404   -8.8730  -11.5675 H   0  0  0  0  0  0  0  0  0  0  0  0
   19.1032   -7.5554  -12.2091 C   0  0  0  0  0  0  0  0  0  0  0  0
   18.9576   -6.1099  -11.7209 C   0  0  0  0  0  0  0  0  0  0  0  0
   19.4789   -7.1808  -10.8238 C   0  0  0  0  0  0  0  0  0  0  0  0
   20.0298   -8.3709  -14.3172 N   0  0  0  0  0  0  0  0  0  0  0  0
   21.4587   -7.9869  -12.6271 O   0  0  0  0  0  0  0  0  0  0  0  0
   20.3125   -7.9575  -13.0846 C   0  0  0  0  0  0  0  0  0  0  0  0
   19.1054   -8.4452  -14.6477 H   0  0  0  0  0  0  0  0  0  0  0  0
   22.1672   -9.7167  -14.5021 O   0  0  0  0  0  0  0  0  0  0  0  0
   21.2390   -8.7229  -15.1861 S   0  0  0  0  0  0  0  0  0  0  0  0
   21.9551   -7.3899  -15.4717 O   0  0  0  0  0  0  0  0  0  0  0  0
   21.1682  -10.7947  -17.2073 C   0  0  0  0  0  0  0  0  0  0  0  0
   19.7871  -10.5954  -16.8690 C   0  0  0  0  0  0  0  0  0  0  0  0
   20.7235   -9.4627  -16.9013 C   0  0  0  0  0  0  0  0  0  0  0  0
   19.9305   -5.0291  -12.1810 C   0  0  0  0  0  0  0  0  0  0  0  0
   21.0387   -4.5387  -11.2356 C   0  0  0  0  0  0  0  0  0  0  0  0
   13.5294  -16.1026  -17.8708 C   0  0  0  0  0  0  0  0  0  0  0  0
   12.7566  -16.6682  -16.8110 O   0  0  0  0  0  0  0  0  0  0  0  0
 29  1  1  0  0  0
  4  1  1  0  0  0
  1  3  2  0  0  0
  5  2  1  0  0  0
  4  2  1  0  0  0
  4 33  1  0  0  0
 34 33  1  0  0  0
 35 33  1  0  0  0
 33 36  1  0  0  0
 25  5  2  0  0  0
  5 26  1  0  0  0
 21  6  2  0  0  0
  6 19  1  0  0  0
 15  7  2  0  0  0
  7 12  1  0  0  0
 24  8  2  0  0  0
  8 21  1  0  0  0
 10  9  1  0  0  0
 11  9  1  0  0  0
 13 10  1  0  0  0
 10 11  1  0  0  0
 11 26  1  0  0  0
 52 51  1  0  0  0
 53 51  1  0  0  0
 52 53  1  0  0  0
 49 48  2  0  0  0
 53 49  1  0  0  0
 44 49  1  0  0  0
 49 50  2  0  0  0
 39 41  1  0  0  0
 41 46  1  0  0  0
 41 43  1  0  0  0
 41 42  1  0  0  0
 38 37  2  0  0  0
 28 38  1  0  0  0
 38 39  1  0  0  0
 42 54  1  0  0  0
 54 55  2  0  0  0
 12 21  1  0  0  0
 12 22  2  0  0  0
 17 13  1  0  0  0
 44 46  1  0  0  0
 43 42  1  0  0  0
 18 14  1  0  0  0
 14 17  1  0  0  0
 15 24  1  0  0  0
 19 16  1  0  0  0
 16 31  1  0  0  0
 57 56  1  0  0  0
 57 24  1  0  0  0
 18 23  1  0  0  0
 20 19  2  0  0  0
 22 20  1  0  0  0
 20 23  1  0  0  0
 46 45  2  0  0  0
 31 27  1  0  0  0
 27 28  1  0  0  0
 28 29  1  0  0  0
 30 29  1  0  0  0
 31 30  1  0  0  0
  2 32  1  0  0  0
 44 47  1  0  0  0
 39 40  1  0  0  0
M  END
> <minimizedAffinity>
-7.66578

$$$$
3SUG_SUE_A_1201


 57 63  0  0  0  0  0  0  0  0999 V2000
   15.2820   -9.3340  -12.2085 C   0  0  0  0  0  0  0  0  0  0  0  0
   17.5389   -9.0755  -12.8850 N   0  0  0  0  0  0  0  0  0  0  0  0
   14.8733   -8.2906  -12.7231 O   0  0  0  0  0  0  0  0  0  0  0  0
   16.6174   -9.3937  -11.7597 C   0  0  0  0  0  0  0  0  0  0  0  0
   17.8724  -10.0306  -13.8600 C   0  0  0  0  0  0  0  0  0  0  0  0
   12.2180  -14.8985  -13.0309 N   0  0  0  0  0  0  0  0  0  0  0  0
   10.9665  -17.2756  -15.5171 C   0  0  0  0  0  0  0  0  0  0  0  0
   10.7372  -16.7326  -12.7845 C   0  0  0  0  0  0  0  0  0  0  0  0
   19.3749  -10.3398  -17.2188 C   0  0  0  0  0  0  0  0  0  0  0  0
   18.2855  -11.3138  -16.7806 C   0  0  0  0  0  0  0  0  0  0  0  0
   19.2135  -10.6811  -15.7300 C   0  0  0  0  0  0  0  0  0  0  0  0
   11.6636  -16.2089  -14.9451 C   0  0  0  0  0  0  0  0  0  0  0  0
   18.4961  -12.8340  -17.0285 C   0  0  0  0  0  0  0  0  0  0  0  0
   16.1854  -13.1397  -16.3264 C   0  0  0  0  0  0  0  0  0  0  0  0
   10.1525  -18.0667  -14.7113 C   0  0  0  0  0  0  0  0  0  0  0  0
   13.7111  -13.0517  -13.3305 O   0  0  0  0  0  0  0  0  0  0  0  0
   17.6043  -13.6076  -16.0830 C   0  0  0  0  0  0  0  0  0  0  0  0
   15.2864  -14.2721  -15.9438 C   0  0  0  0  0  0  0  0  0  0  0  0
   13.0009  -14.1219  -13.8058 C   0  0  0  0  0  0  0  0  0  0  0  0
   13.1183  -14.4001  -15.1739 C   0  0  0  0  0  0  0  0  0  0  0  0
   11.5543  -15.9351  -13.5788 C   0  0  0  0  0  0  0  0  0  0  0  0
   12.4419  -15.4305  -15.7078 N   0  0  0  0  0  0  0  0  0  0  0  0
   13.9095  -13.6455  -16.0122 C   0  0  0  0  0  0  0  0  0  0  0  0
   10.0297  -17.7978  -13.3500 C   0  0  0  0  0  0  0  0  0  0  0  0
   17.3960  -11.1647  -13.7753 O   0  0  0  0  0  0  0  0  0  0  0  0
   18.7117   -9.6272  -14.8640 O   0  0  0  0  0  0  0  0  0  0  0  0
   12.2724  -11.5342  -11.9381 C   0  0  0  0  0  0  0  0  0  0  0  0
   12.9494  -10.3027  -12.5137 C   0  0  0  0  0  0  0  0  0  0  0  0
   14.4082  -10.3520  -12.0820 N   0  0  0  0  0  0  0  0  0  0  0  0
   14.6501  -11.7048  -11.5161 C   0  0  0  0  0  0  0  0  0  0  0  0
   13.4470  -12.5262  -11.9789 C   0  0  0  0  0  0  0  0  0  0  0  0
   17.9247   -8.1719  -12.9475 H   0  0  0  0  0  0  0  0  0  0  0  0
   16.8494   -8.4151  -10.5808 C   0  0  0  0  0  0  0  0  0  0  0  0
   17.0409   -7.0003  -11.1433 C   0  0  0  0  0  0  0  0  0  0  0  0
   18.1087   -8.8292   -9.8038 C   0  0  0  0  0  0  0  0  0  0  0  0
   15.6712   -8.3877   -9.5946 C   0  0  0  0  0  0  0  0  0  0  0  0
   12.4970   -8.8143  -10.8372 O   0  0  0  0  0  0  0  0  0  0  0  0
   12.4084   -9.0861  -12.0341 C   0  0  0  0  0  0  0  0  0  0  0  0
   11.8875   -8.2280  -12.9492 N   0  0  0  0  0  0  0  0  0  0  0  0
   11.7803   -8.5379  -13.8774 H   0  0  0  0  0  0  0  0  0  0  0  0
   11.4712   -6.8386  -12.6098 C   0  0  0  0  0  0  0  0  0  0  0  0
    9.9812   -6.5528  -12.8265 C   0  0  0  0  0  0  0  0  0  0  0  0
   10.5419   -6.7405  -11.4577 C   0  0  0  0  0  0  0  0  0  0  0  0
   13.4062   -5.7587  -13.6382 N   0  0  0  0  0  0  0  0  0  0  0  0
   12.5257   -4.8007  -11.8072 O   0  0  0  0  0  0  0  0  0  0  0  0
   12.4968   -5.6830  -12.6700 C   0  0  0  0  0  0  0  0  0  0  0  0
   13.4458   -6.5176  -14.2641 H   0  0  0  0  0  0  0  0  0  0  0  0
   15.0152   -4.2773  -12.3613 O   0  0  0  0  0  0  0  0  0  0  0  0
   14.3863   -4.5862  -13.7127 S   0  0  0  0  0  0  0  0  0  0  0  0
   13.5730   -3.3899  -14.2405 O   0  0  0  0  0  0  0  0  0  0  0  0
   17.1632   -4.8484  -14.4891 C   0  0  0  0  0  0  0  0  0  0  0  0
   16.5960   -6.1308  -14.7980 C   0  0  0  0  0  0  0  0  0  0  0  0
   15.8148   -4.8995  -14.9840 C   0  0  0  0  0  0  0  0  0  0  0  0
    9.5027   -5.1578  -13.2158 C   0  0  0  0  0  0  0  0  0  0  0  0
    8.5172   -4.4021  -12.3102 C   0  0  0  0  0  0  0  0  0  0  0  0
    9.9064  -19.6450  -11.8839 C   0  0  0  0  0  0  0  0  0  0  0  0
    9.2344  -18.6031  -12.5934 O   0  0  0  0  0  0  0  0  0  0  0  0
 29  1  1  0  0  0
  4  1  1  0  0  0
  1  3  2  0  0  0
  5  2  1  0  0  0
  4  2  1  0  0  0
  4 33  1  0  0  0
 34 33  1  0  0  0
 35 33  1  0  0  0
 33 36  1  0  0  0
 25  5  2  0  0  0
  5 26  1  0  0  0
 21  6  2  0  0  0
  6 19  1  0  0  0
 15  7  2  0  0  0
  7 12  1  0  0  0
 24  8  2  0  0  0
  8 21  1  0  0  0
 10  9  1  0  0  0
 11  9  1  0  0  0
 13 10  1  0  0  0
 10 11  1  0  0  0
 11 26  1  0  0  0
 52 51  1  0  0  0
 53 51  1  0  0  0
 52 53  1  0  0  0
 49 48  2  0  0  0
 53 49  1  0  0  0
 44 49  1  0  0  0
 49 50  2  0  0  0
 39 41  1  0  0  0
 41 46  1  0  0  0
 41 43  1  0  0  0
 41 42  1  0  0  0
 38 37  2  0  0  0
 28 38  1  0  0  0
 38 39  1  0  0  0
 42 54  1  0  0  0
 54 55  2  0  0  0
 12 21  1  0  0  0
 12 22  2  0  0  0
 17 13  1  0  0  0
 44 46  1  0  0  0
 43 42  1  0  0  0
 18 14  1  0  0  0
 14 17  1  0  0  0
 15 24  1  0  0  0
 19 16  1  0  0  0
 16 31  1  0  0  0
 57 56  1  0  0  0
 57 24  1  0  0  0
 18 23  1  0  0  0
 20 19  2  0  0  0
 22 20  1  0  0  0
 20 23  1  0  0  0
 46 45  2  0  0  0
 31 27  1  0  0  0
 27 28  1  0  0  0
 28 29  1  0  0  0
 30 29  1  0  0  0
 31 30  1  0  0  0
  2 32  1  0  0  0
 44 47  1  0  0  0
 39 40  1  0  0  0
M  END
> <minimizedAffinity>
-7.59234

$$$$
3SUG_SUE_A_1201


 57 63  0  0  0  0  0  0  0  0999 V2000
   15.4915  -10.8460  -14.1782 C   0  0  0  0  0  0  0  0  0  0  0  0
   13.3593  -10.0977  -14.8936 N   0  0  0  0  0  0  0  0  0  0  0  0
   15.8146  -11.3589  -15.2521 O   0  0  0  0  0  0  0  0  0  0  0  0
   14.1260  -10.8015  -13.8290 C   0  0  0  0  0  0  0  0  0  0  0  0
   13.3347   -8.6957  -14.9828 C   0  0  0  0  0  0  0  0  0  0  0  0
   19.4540   -6.9405  -11.0043 N   0  0  0  0  0  0  0  0  0  0  0  0
   21.4327   -3.8696  -11.2335 C   0  0  0  0  0  0  0  0  0  0  0  0
   21.1367   -6.0936   -9.5659 C   0  0  0  0  0  0  0  0  0  0  0  0
   12.4538   -5.9543  -17.2944 C   0  0  0  0  0  0  0  0  0  0  0  0
   13.5936   -5.7712  -16.2970 C   0  0  0  0  0  0  0  0  0  0  0  0
   12.4244   -6.7111  -15.9582 C   0  0  0  0  0  0  0  0  0  0  0  0
   20.4997   -4.8640  -11.5365 C   0  0  0  0  0  0  0  0  0  0  0  0
   13.6580   -4.4590  -15.4659 C   0  0  0  0  0  0  0  0  0  0  0  0
   15.8457   -5.2016  -14.6989 C   0  0  0  0  0  0  0  0  0  0  0  0
   22.2175   -3.9983  -10.0909 C   0  0  0  0  0  0  0  0  0  0  0  0
   17.7661   -7.7593  -12.4910 O   0  0  0  0  0  0  0  0  0  0  0  0
   14.4935   -4.7085  -14.2300 C   0  0  0  0  0  0  0  0  0  0  0  0
   16.8328   -4.8253  -13.6400 C   0  0  0  0  0  0  0  0  0  0  0  0
   18.6970   -6.8284  -12.1137 C   0  0  0  0  0  0  0  0  0  0  0  0
   18.8436   -5.7097  -12.9445 C   0  0  0  0  0  0  0  0  0  0  0  0
   20.3461   -5.9764  -10.7043 C   0  0  0  0  0  0  0  0  0  0  0  0
   19.7449   -4.7621  -12.6379 N   0  0  0  0  0  0  0  0  0  0  0  0
   18.0919   -5.5384  -14.0863 C   0  0  0  0  0  0  0  0  0  0  0  0
   22.0785   -5.1069   -9.2590 C   0  0  0  0  0  0  0  0  0  0  0  0
   13.9574   -8.0315  -14.1514 O   0  0  0  0  0  0  0  0  0  0  0  0
   12.6157   -8.1508  -16.0130 O   0  0  0  0  0  0  0  0  0  0  0  0
   18.7168  -10.0845  -12.4494 C   0  0  0  0  0  0  0  0  0  0  0  0
   17.9623  -10.4558  -13.7139 C   0  0  0  0  0  0  0  0  0  0  0  0
   16.4776  -10.3806  -13.3865 N   0  0  0  0  0  0  0  0  0  0  0  0
   16.3557   -9.7131  -12.0643 C   0  0  0  0  0  0  0  0  0  0  0  0
   17.7278   -9.0791  -11.8357 C   0  0  0  0  0  0  0  0  0  0  0  0
   12.8562  -10.6287  -15.5525 H   0  0  0  0  0  0  0  0  0  0  0  0
   13.5628  -12.2291  -13.6144 C   0  0  0  0  0  0  0  0  0  0  0  0
   12.9855  -12.7374  -14.9421 C   0  0  0  0  0  0  0  0  0  0  0  0
   12.4500  -12.1933  -12.5554 C   0  0  0  0  0  0  0  0  0  0  0  0
   14.6354  -13.2229  -13.1417 C   0  0  0  0  0  0  0  0  0  0  0  0
   17.9525  -12.7263  -13.4393 O   0  0  0  0  0  0  0  0  0  0  0  0
   18.2290  -11.7707  -14.1638 C   0  0  0  0  0  0  0  0  0  0  0  0
   18.7042  -11.9163  -15.4279 N   0  0  0  0  0  0  0  0  0  0  0  0
   18.9729  -11.1104  -15.9254 H   0  0  0  0  0  0  0  0  0  0  0  0
   18.8367  -13.2418  -16.0945 C   0  0  0  0  0  0  0  0  0  0  0  0
   20.2006  -13.4885  -16.7487 C   0  0  0  0  0  0  0  0  0  0  0  0
   19.8274  -14.1490  -15.4650 C   0  0  0  0  0  0  0  0  0  0  0  0
   17.1134  -14.9565  -15.8551 N   0  0  0  0  0  0  0  0  0  0  0  0
   17.1107  -13.7282  -17.7357 O   0  0  0  0  0  0  0  0  0  0  0  0
   17.5822  -13.9757  -16.6220 C   0  0  0  0  0  0  0  0  0  0  0  0
   17.5520  -15.2221  -15.0147 H   0  0  0  0  0  0  0  0  0  0  0  0
   14.9464  -14.6872  -17.1380 O   0  0  0  0  0  0  0  0  0  0  0  0
   15.8462  -15.6437  -16.3681 S   0  0  0  0  0  0  0  0  0  0  0  0
   15.1359  -16.2028  -15.1215 O   0  0  0  0  0  0  0  0  0  0  0  0
   15.5459  -17.2297  -18.7716 C   0  0  0  0  0  0  0  0  0  0  0  0
   16.9315  -16.8534  -18.7774 C   0  0  0  0  0  0  0  0  0  0  0  0
   16.2403  -17.1547  -17.5155 C   0  0  0  0  0  0  0  0  0  0  0  0
   20.3229  -14.3640  -17.9917 C   0  0  0  0  0  0  0  0  0  0  0  0
   20.3250  -13.7213  -19.3879 C   0  0  0  0  0  0  0  0  0  0  0  0
   24.0882   -5.8929   -8.2997 C   0  0  0  0  0  0  0  0  0  0  0  0
   22.8550   -5.1890   -8.1437 O   0  0  0  0  0  0  0  0  0  0  0  0
 29  1  1  0  0  0
  4  1  1  0  0  0
  1  3  2  0  0  0
  5  2  1  0  0  0
  4  2  1  0  0  0
  4 33  1  0  0  0
 34 33  1  0  0  0
 35 33  1  0  0  0
 33 36  1  0  0  0
 25  5  2  0  0  0
  5 26  1  0  0  0
 21  6  2  0  0  0
  6 19  1  0  0  0
 15  7  2  0  0  0
  7 12  1  0  0  0
 24  8  2  0  0  0
  8 21  1  0  0  0
 10  9  1  0  0  0
 11  9  1  0  0  0
 13 10  1  0  0  0
 10 11  1  0  0  0
 11 26  1  0  0  0
 52 51  1  0  0  0
 53 51  1  0  0  0
 52 53  1  0  0  0
 49 48  2  0  0  0
 53 49  1  0  0  0
 44 49  1  0  0  0
 49 50  2  0  0  0
 39 41  1  0  0  0
 41 46  1  0  0  0
 41 43  1  0  0  0
 41 42  1  0  0  0
 38 37  2  0  0  0
 28 38  1  0  0  0
 38 39  1  0  0  0
 42 54  1  0  0  0
 54 55  2  0  0  0
 12 21  1  0  0  0
 12 22  2  0  0  0
 17 13  1  0  0  0
 44 46  1  0  0  0
 43 42  1  0  0  0
 18 14  1  0  0  0
 14 17  1  0  0  0
 15 24  1  0  0  0
 19 16  1  0  0  0
 16 31  1  0  0  0
 57 56  1  0  0  0
 57 24  1  0  0  0
 18 23  1  0  0  0
 20 19  2  0  0  0
 22 20  1  0  0  0
 20 23  1  0  0  0
 46 45  2  0  0  0
 31 27  1  0  0  0
 27 28  1  0  0  0
 28 29  1  0  0  0
 30 29  1  0  0  0
 31 30  1  0  0  0
  2 32  1  0  0  0
 44 47  1  0  0  0
 39 40  1  0  0  0
M  END
> <minimizedAffinity>
-7.52097

$$$$
