3SUG_SUE_A_1201
  RCSB PDB12061710473D
Coordinates from PDB:3SUG:A:1201 Model:1 without hydrogens
 54 60  0  0  0  0            999 V2000
   15.9210   -8.6300  -14.6730   C 0  0  0  0  0  0  0  0  0  0  0  0
   18.2600   -8.6740  -15.0540   N 0  0  0  0  0  0  0  0  0  0  0  0
   15.6600   -7.8240  -15.5690   O 0  0  0  0  0  0  0  0  0  0  0  0
   17.1780   -8.5580  -14.0380   C 0  0  0  0  0  0  0  0  0  0  0  0
   17.3230   -7.2340  -13.2460   C 0  0  0  0  0  0  0  0  0  0  0  0
   18.6490   -9.9170  -15.5810   C 0  0  0  0  0  0  0  0  0  0  0  0
   12.5980  -14.0620  -13.9810   N 0  0  0  0  0  0  0  0  0  0  0  0
   11.5160  -17.1310  -15.6570   C 0  0  0  0  0  0  0  0  0  0  0  0
   10.9690  -15.6610  -13.3430   C 0  0  0  0  0  0  0  0  0  0  0  0
   20.5540  -11.4150  -18.3670   C 0  0  0  0  0  0  0  0  0  0  0  0
   19.3490  -12.1500  -17.7880   C 0  0  0  0  0  0  0  0  0  0  0  0
   20.1740  -11.2100  -16.8930   C 0  0  0  0  0  0  0  0  0  0  0  0
    6.5420   -7.2390  -13.2840   C 0  0  0  0  0  0  0  0  0  0  0  0
    7.1300   -8.3130  -14.0340   C 0  0  0  0  0  0  0  0  0  0  0  0
    7.9780   -5.5640  -15.5020   O 0  0  0  0  0  0  0  0  0  0  0  0
    8.9300   -6.0650  -14.4250   S 0  0  0  0  0  0  0  0  0  0  0  0
   12.1740   -6.4320  -16.4570   C 0  0  0  0  0  0  0  0  0  0  0  0
   13.1860   -7.5420  -14.0400   O 0  0  0  0  0  0  0  0  0  0  0  0
   13.0750   -8.2740  -15.0230   C 0  0  0  0  0  0  0  0  0  0  0  0
   18.5690   -7.3250  -12.3550   C 0  0  0  0  0  0  0  0  0  0  0  0
   13.2890   -4.0230  -16.3130   C 0  0  0  0  0  0  0  0  0  0  0  0
   12.2070  -15.9470  -15.3890   C 0  0  0  0  0  0  0  0  0  0  0  0
   19.4800  -13.6650  -17.4650   C 0  0  0  0  0  0  0  0  0  0  0  0
   10.2130   -6.6520  -15.0170   N 0  0  0  0  0  0  0  0  0  0  0  0
   13.3560   -5.4920  -16.7180   C 0  0  0  0  0  0  0  0  0  0  0  0
   17.0810  -13.6550  -17.0520   C 0  0  0  0  0  0  0  0  0  0  0  0
   10.5480  -17.5720  -14.7590   C 0  0  0  0  0  0  0  0  0  0  0  0
   14.2470  -12.4700  -14.6710   O 0  0  0  0  0  0  0  0  0  0  0  0
    8.8400  -16.3750  -11.7840   C 0  0  0  0  0  0  0  0  0  0  0  0
    9.3230  -17.3130  -12.7470   O 0  0  0  0  0  0  0  0  0  0  0  0
   18.4180  -14.0390  -16.4550   C 0  0  0  0  0  0  0  0  0  0  0  0
   16.0600  -14.5620  -16.4420   C 0  0  0  0  0  0  0  0  0  0  0  0
   13.5300  -13.6230  -14.8500   C 0  0  0  0  0  0  0  0  0  0  0  0
   13.8060  -14.3650  -16.0060   C 0  0  0  0  0  0  0  0  0  0  0  0
   11.9390  -15.2100  -14.2320   C 0  0  0  0  0  0  0  0  0  0  0  0
   13.1330  -15.5020  -16.2480   N 0  0  0  0  0  0  0  0  0  0  0  0
   14.7530  -13.9690  -16.9250   C 0  0  0  0  0  0  0  0  0  0  0  0
   10.2670  -16.8410  -13.6070   C 0  0  0  0  0  0  0  0  0  0  0  0
    9.3790   -4.9220  -13.4960   O 0  0  0  0  0  0  0  0  0  0  0  0
    7.9750   -7.3420  -13.3240   C 0  0  0  0  0  0  0  0  0  0  0  0
   10.3740   -4.8070  -16.2880   O 0  0  0  0  0  0  0  0  0  0  0  0
   12.4720   -5.9500  -17.8280   C 0  0  0  0  0  0  0  0  0  0  0  0
   10.8520   -5.8710  -15.8840   C 0  0  0  0  0  0  0  0  0  0  0  0
   12.5580   -7.8490  -16.2050   N 0  0  0  0  0  0  0  0  0  0  0  0
   14.4530   -3.3850  -15.5380   C 0  0  0  0  0  0  0  0  0  0  0  0
   18.0850  -10.9390  -15.1840   O 0  0  0  0  0  0  0  0  0  0  0  0
   19.6400   -9.9090  -16.5260   O 0  0  0  0  0  0  0  0  0  0  0  0
   12.7510  -10.5300  -14.1140   C 0  0  0  0  0  0  0  0  0  0  0  0
   13.5850   -9.5930  -14.9700   C 0  0  0  0  0  0  0  0  0  0  0  0
   14.9670   -9.5200  -14.3360   N 0  0  0  0  0  0  0  0  0  0  0  0
   15.0340  -10.5940  -13.3110   C 0  0  0  0  0  0  0  0  0  0  0  0
   13.8460  -11.4990  -13.6370   C 0  0  0  0  0  0  0  0  0  0  0  0
   16.0820   -7.0180  -12.3660   C 0  0  0  0  0  0  0  0  0  0  0  0
   17.4730   -6.0100  -14.1630   C 0  0  0  0  0  0  0  0  0  0  0  0
 50  1  1  0  0  0  0
  4  1  1  0  0  0  0
  1  3  2  0  0  0  0
  6  2  1  0  0  0  0
  4  2  1  0  0  0  0
  4  5  1  0  0  0  0
 20  5  1  0  0  0  0
 53  5  1  0  0  0  0
  5 54  1  0  0  0  0
 46  6  2  0  0  0  0
  6 47  1  0  0  0  0
 35  7  2  0  0  0  0
  7 33  1  0  0  0  0
 27  8  2  0  0  0  0
  8 22  1  0  0  0  0
 38  9  2  0  0  0  0
  9 35  1  0  0  0  0
 11 10  1  0  0  0  0
 12 10  1  0  0  0  0
 23 11  1  0  0  0  0
 11 12  1  0  0  0  0
 12 47  1  0  0  0  0
 14 13  1  0  0  0  0
 40 13  1  0  0  0  0
 14 40  1  0  0  0  0
 16 15  2  0  0  0  0
 40 16  1  0  0  0  0
 24 16  1  0  0  0  0
 16 39  2  0  0  0  0
 44 17  1  0  0  0  0
 17 43  1  0  0  0  0
 17 42  1  0  0  0  0
 17 25  1  0  0  0  0
 19 18  2  0  0  0  0
 49 19  1  0  0  0  0
 19 44  1  0  0  0  0
 25 21  1  0  0  0  0
 21 45  2  0  0  0  0
 22 35  1  0  0  0  0
 22 36  2  0  0  0  0
 31 23  1  0  0  0  0
 24 43  1  0  0  0  0
 42 25  1  0  0  0  0
 32 26  1  0  0  0  0
 26 31  1  0  0  0  0
 27 38  1  0  0  0  0
 33 28  1  0  0  0  0
 28 52  1  0  0  0  0
 30 29  1  0  0  0  0
 30 38  1  0  0  0  0
 32 37  1  0  0  0  0
 34 33  2  0  0  0  0
 36 34  1  0  0  0  0
 34 37  1  0  0  0  0
 43 41  2  0  0  0  0
 52 48  1  0  0  0  0
 48 49  1  0  0  0  0
 49 50  1  0  0  0  0
 51 50  1  0  0  0  0
 52 51  1  0  0  0  0
A    1
C
A    2
N
A    3
O
A    4
CA
A    5
CB
A    6
CAB
A    7
NAC
A    8
CAD
A    9
CAE
A   10
CAF
A   11
CAG
A   12
CAH
A   13
CAK
A   14
CAL
A   15
OAM
A   16
SAN
A   17
CAO
A   18
OAP
A   19
CAQ
A   20
CAR
A   21
CAS
A   22
CAT
A   23
CAU
A   24
NAV
A   25
CAW
A   26
CAX
A   27
CAY
A   28
OAZ
A   29
CBA
A   30
OBB
A   31
CBC
A   32
CBD
A   33
CBE
A   34
CBF
A   35
CBG
A   36
NBH
A   37
CBI
A   38
CBJ
A   39
OBK
A   40
CBL
A   41
OBM
A   42
CBN
A   43
CBO
A   44
NBP
A   45
CBQ
A   46
OBR
A   47
OBT
A   48
CBX
A   49
CBY
A   50
NBZ
A   51
CCA
A   52
CCB
A   53
CG1
A   54
CG2
M  END
>  <InstanceId>
3SUG_SUE_A_1201

>  <ChemCompId>
SUE

>  <PdbId>
3SUG

>  <ChainId>
A

>  <ResidueNumber>
1201

>  <InsertionCode>


>  <Model>
1

>  <AltIds>


>  <MissingHeavyAtoms>
0

>  <ObservedFormula>
C38 N6 O9 S

>  <Name>
(1aR,5S,8S,10R,22aR)-5-tert-butyl-N-{(1R,2S)-1-[(cyclopropylsulfonyl)carbamoyl]-2-ethenylcyclopropyl}-14-methoxy-3,6-dioxo-1,1a,3,4,5,6,9,10,18,19,20,21,22,22a-tetradecahydro-8H-7,10-methanocyclopropa[18,19][1,10,3,6]dioxadiazacyclononadecino[11,12-b]quinoxaline-8-carboxamide

>  <SystematicName>


>  <Synonyms>
MK-5172

>  <Type>
NON-POLYMER

>  <Formula>
C38 H50 N6 O9 S

>  <MolecularWeight>
766.903

>  <ModifiedDate>
2012-09-14

>  <Parent>


>  <OneLetterCode>


>  <SubcomponentList>


>  <AmbiguousFlag>
N

>  <InChI>
InChI=1S/C38H50N6O9S/c1-6-22-19-38(22,35(47)43-54(49,50)25-13-14-25)42-32(45)29-18-24-20-44(29)34(46)31(37(2,3)4)41-36(48)53-30-16-21(30)10-8-7-9-11-27-33(52-24)40-28-17-23(51-5)12-15-26(28)39-27/h6,12,15,17,21-22,24-25,29-31H,1,7-11,13-14,16,18-20H2,2-5H3,(H,41,48)(H,42,45)(H,43,47)/t21-,22-,24-,29+,30-,31-,38-/m1/s1

>  <InChIKey>
OBMNJSNZOWALQB-NCQNOWPTSA-N

>  <SMILES>
CC(C)(C)[C@H]1C(=O)N2C[C@@H](C[C@H]2C(=O)N[C@@]3(C[C@H]3C=C)C(=O)NS(=O)(=O)C4CC4)Oc5c(nc6ccc(cc6n5)OC)CCCCC[C@@H]7C[C@H]7OC(=O)N1

$$$$
