2BYR_MLK_A_301


 51 58  0  0  0  0  0  0  0  0999 V2000
    6.1634   -0.8867  -10.6389 C   0  0  0  0  0  0  0  0  0  0  0  0
    6.7256   -2.3153  -10.5263 C   0  0  0  0  0  0  0  0  0  0  0  0
    7.5442   -2.6918  -11.7404 C   0  0  0  0  0  0  0  0  0  0  0  0
    8.6202   -1.6329  -12.0102 C   0  0  0  0  0  0  0  0  0  0  0  0
    8.0220   -0.2191  -12.1946 C   0  0  0  0  0  0  0  0  0  0  0  0
    6.5057   -0.2010  -11.9766 C   0  0  0  0  0  0  0  0  0  0  0  0
    8.3618    0.8551  -11.1641 C   0  0  0  0  0  0  0  0  0  0  0  0
    8.1570    0.3371   -9.7764 N   0  0  0  0  0  0  0  0  0  0  0  0
    6.7578   -0.0583   -9.4923 C   0  0  0  0  0  0  0  0  0  0  0  0
    8.4934    0.2705  -13.5906 C   0  0  0  0  0  0  0  0  0  0  0  0
   10.0281    0.3004  -13.7316 C   0  0  0  0  0  0  0  0  0  0  0  0
   10.3915    1.7006  -14.2126 C   0  0  0  0  0  0  0  0  0  0  0  0
   10.5994    2.6696  -13.0542 C   0  0  0  0  0  0  0  0  0  0  0  0
    9.3151    3.3850  -12.5988 C   0  0  0  0  0  0  0  0  0  0  0  0
    8.0836    1.6764  -14.0531 C   0  0  0  0  0  0  0  0  0  0  0  0
    9.1855    2.0650  -15.0348 C   0  0  0  0  0  0  0  0  0  0  0  0
    7.9786    2.6699  -12.8847 C   0  0  0  0  0  0  0  0  0  0  0  0
    7.0381    3.6722  -13.2216 O   0  0  0  0  0  0  0  0  0  0  0  0
    7.4298    1.9908  -11.6275 C   0  0  0  0  0  0  0  0  0  0  0  0
    7.2127    3.0223  -10.6581 O   0  0  0  0  0  0  0  0  0  0  0  0
    6.1158    1.2723  -11.9224 C   0  0  0  0  0  0  0  0  0  0  0  0
    7.3354    4.1401  -14.0176 H   0  0  0  0  0  0  0  0  0  0  0  0
    8.0506    3.4752  -10.4747 H   0  0  0  0  0  0  0  0  0  0  0  0
    9.6045   -1.6234  -10.9821 O   0  0  0  0  0  0  0  0  0  0  0  0
   10.3551   -2.8240  -10.8265 C   0  0  0  0  0  0  0  0  0  0  0  0
    8.6311    1.2759   -8.7294 C   0  0  0  0  0  0  0  0  0  0  0  0
   10.1230    1.5373   -8.8294 C   0  0  0  0  0  0  0  0  0  0  0  0
   11.5709    3.6691  -13.3818 O   0  0  0  0  0  0  0  0  0  0  0  0
   11.4265    4.8872  -12.6286 C   0  0  0  0  0  0  0  0  0  0  0  0
    9.2179    3.4265  -15.4809 O   0  0  0  0  0  0  0  0  0  0  0  0
    8.2499    3.6775  -16.5017 C   0  0  0  0  0  0  0  0  0  0  0  0
    5.5064    1.6954  -13.1313 O   0  0  0  0  0  0  0  0  0  0  0  0
    4.1077    1.9165  -13.0088 C   0  0  0  0  0  0  0  0  0  0  0  0
    4.6587   -1.0251  -10.4757 C   0  0  0  0  0  0  0  0  0  0  0  0
    4.1111   -1.2525  -11.7606 O   0  0  0  0  0  0  0  0  0  0  0  0
    3.0224   -2.1775  -11.9671 C   0  0  0  0  0  0  0  0  0  0  0  0
    1.9854   -2.0326  -11.3449 O   0  0  0  0  0  0  0  0  0  0  0  0
    2.0843   -3.7147  -13.8117 C   0  0  0  0  0  0  0  0  0  0  0  0
    2.2923   -4.7467  -14.7238 C   0  0  0  0  0  0  0  0  0  0  0  0
    3.5436   -5.3578  -14.8303 C   0  0  0  0  0  0  0  0  0  0  0  0
    4.6106   -4.9525  -14.0232 C   0  0  0  0  0  0  0  0  0  0  0  0
    4.4471   -3.9203  -13.0885 C   0  0  0  0  0  0  0  0  0  0  0  0
    3.2093   -3.2846  -12.9529 C   0  0  0  0  0  0  0  0  0  0  0  0
    1.1302   -1.3524  -15.1836 O   0  0  0  0  0  0  0  0  0  0  0  0
    0.4326   -2.0695  -14.4626 C   0  0  0  0  0  0  0  0  0  0  0  0
   -1.0659   -1.9030  -14.3278 C   0  0  0  0  0  0  0  0  0  0  0  0
   -1.4508   -2.9334  -13.2834 C   0  0  0  0  0  0  0  0  0  0  0  0
   -2.0043   -2.3039  -12.0121 C   0  0  0  0  0  0  0  0  0  0  0  0
   -0.1658   -3.6605  -13.0230 C   0  0  0  0  0  0  0  0  0  0  0  0
   -0.0891   -4.6051  -12.2502 O   0  0  0  0  0  0  0  0  0  0  0  0
    0.8377   -3.0884  -13.6874 N   0  0  0  0  0  0  0  0  0  0  0  0
 44 45  2  0  0  0
 45 46  1  0  0  0
 45 51  1  0  0  0
 46 47  1  0  0  0
 47 48  1  0  0  0
 47 49  1  0  0  0
 49 50  2  0  0  0
 49 51  1  0  0  0
 51 38  1  0  0  0
 38 39  2  0  0  0
 38 43  1  0  0  0
 39 40  1  0  0  0
 40 41  2  0  0  0
 41 42  1  0  0  0
 42 43  2  0  0  0
 43 36  1  0  0  0
 36 37  2  0  0  0
 36 35  1  0  0  0
 35 34  1  0  0  0
 34  1  1  0  0  0
  1  2  1  0  0  0
  1  6  1  0  0  0
  1  9  1  0  0  0
  2  3  1  0  0  0
  3  4  1  0  0  0
  4 24  1  0  0  0
  4  5  1  0  0  0
 24 25  1  0  0  0
  5  6  1  0  0  0
  5  7  1  0  0  0
  5 10  1  0  0  0
  6 21  1  0  0  0
  7  8  1  0  0  0
  7 19  1  0  0  0
  8 26  1  0  0  0
  8  9  1  0  0  0
 26 27  1  0  0  0
 10 11  1  0  0  0
 10 15  1  0  0  0
 11 12  1  0  0  0
 12 13  1  0  0  0
 12 16  1  0  0  0
 13 28  1  0  0  0
 13 14  1  0  0  0
 28 29  1  0  0  0
 14 17  1  0  0  0
 15 16  1  0  0  0
 15 17  1  0  0  0
 16 30  1  0  0  0
 30 31  1  0  0  0
 17 18  1  0  0  0
 17 19  1  0  0  0
 19 20  1  0  0  0
 19 21  1  0  0  0
 21 32  1  0  0  0
 32 33  1  0  0  0
 18 22  1  0  0  0
 20 23  1  0  0  0
M  END
> <minimizedAffinity>
-9.81228

$$$$
2BYR_MLK_A_301


 51 58  0  0  0  0  0  0  0  0999 V2000
    5.7342   -0.8960  -10.9670 C   0  0  0  0  0  0  0  0  0  0  0  0
    6.2542   -2.3434  -10.9015 C   0  0  0  0  0  0  0  0  0  0  0  0
    7.1514   -2.6691  -12.0740 C   0  0  0  0  0  0  0  0  0  0  0  0
    8.2680   -1.6254  -12.2001 C   0  0  0  0  0  0  0  0  0  0  0  0
    7.7170   -0.1875  -12.3405 C   0  0  0  0  0  0  0  0  0  0  0  0
    6.1896   -0.1416  -12.2320 C   0  0  0  0  0  0  0  0  0  0  0  0
    8.0040    0.8141  -11.2244 C   0  0  0  0  0  0  0  0  0  0  0  0
    7.6857    0.2204   -9.8894 N   0  0  0  0  0  0  0  0  0  0  0  0
    6.2608   -0.1533   -9.7320 C   0  0  0  0  0  0  0  0  0  0  0  0
    8.3011    0.3711  -13.6662 C   0  0  0  0  0  0  0  0  0  0  0  0
    9.8423    0.3679  -13.6937 C   0  0  0  0  0  0  0  0  0  0  0  0
   10.2717    1.7839  -14.0606 C   0  0  0  0  0  0  0  0  0  0  0  0
   10.4153    2.6766  -12.8332 C   0  0  0  0  0  0  0  0  0  0  0  0
    9.1173    3.3981  -12.4290 C   0  0  0  0  0  0  0  0  0  0  0  0
    7.9584    1.8125  -14.0703 C   0  0  0  0  0  0  0  0  0  0  0  0
    9.1382    2.2288  -14.9442 C   0  0  0  0  0  0  0  0  0  0  0  0
    7.7898    2.7374  -12.8540 C   0  0  0  0  0  0  0  0  0  0  0  0
    6.8996    3.7829  -13.1961 O   0  0  0  0  0  0  0  0  0  0  0  0
    7.1346    1.9999  -11.6837 C   0  0  0  0  0  0  0  0  0  0  0  0
    6.8697    2.9776  -10.6713 O   0  0  0  0  0  0  0  0  0  0  0  0
    5.8301    1.3358  -12.1162 C   0  0  0  0  0  0  0  0  0  0  0  0
    7.2653    4.2890  -13.9384 H   0  0  0  0  0  0  0  0  0  0  0  0
    7.7018    3.3961  -10.4004 H   0  0  0  0  0  0  0  0  0  0  0  0
    9.1736   -1.7035  -11.1048 O   0  0  0  0  0  0  0  0  0  0  0  0
    9.9050   -2.9200  -10.9860 C   0  0  0  0  0  0  0  0  0  0  0  0
    8.1022    1.0824   -8.7554 C   0  0  0  0  0  0  0  0  0  0  0  0
    9.5623    1.4862   -8.8510 C   0  0  0  0  0  0  0  0  0  0  0  0
   11.4305    3.6672  -13.0280 O   0  0  0  0  0  0  0  0  0  0  0  0
   12.0634    4.0967  -11.8086 C   0  0  0  0  0  0  0  0  0  0  0  0
    9.2341    3.6130  -15.3027 O   0  0  0  0  0  0  0  0  0  0  0  0
    8.3568    3.9480  -16.3798 C   0  0  0  0  0  0  0  0  0  0  0  0
    5.3212    1.8462  -13.3379 O   0  0  0  0  0  0  0  0  0  0  0  0
    4.0371    2.4415  -13.2075 C   0  0  0  0  0  0  0  0  0  0  0  0
    4.2187   -1.0032  -10.9219 C   0  0  0  0  0  0  0  0  0  0  0  0
    3.7883   -1.4755  -12.1845 O   0  0  0  0  0  0  0  0  0  0  0  0
    2.5663   -1.0059  -12.7924 C   0  0  0  0  0  0  0  0  0  0  0  0
    1.6840   -0.5468  -12.0894 O   0  0  0  0  0  0  0  0  0  0  0  0
    1.5434   -2.1084  -14.8861 C   0  0  0  0  0  0  0  0  0  0  0  0
    1.4375   -2.1626  -16.2739 C   0  0  0  0  0  0  0  0  0  0  0  0
    2.1526   -1.2699  -17.0753 C   0  0  0  0  0  0  0  0  0  0  0  0
    2.9920   -0.3083  -16.5049 C   0  0  0  0  0  0  0  0  0  0  0  0
    3.1325   -0.2185  -15.1128 C   0  0  0  0  0  0  0  0  0  0  0  0
    2.4329   -1.0950  -14.2779 C   0  0  0  0  0  0  0  0  0  0  0  0
    2.5189   -4.5060  -13.5929 O   0  0  0  0  0  0  0  0  0  0  0  0
    1.4055   -4.0128  -13.3986 C   0  0  0  0  0  0  0  0  0  0  0  0
    0.4549   -4.5056  -12.3286 C   0  0  0  0  0  0  0  0  0  0  0  0
   -0.7907   -3.6656  -12.5379 C   0  0  0  0  0  0  0  0  0  0  0  0
   -1.9962   -4.4957  -12.9579 C   0  0  0  0  0  0  0  0  0  0  0  0
   -0.3836   -2.7032  -13.6130 C   0  0  0  0  0  0  0  0  0  0  0  0
   -1.1286   -1.8270  -14.0284 O   0  0  0  0  0  0  0  0  0  0  0  0
    0.8363   -2.9942  -14.0634 N   0  0  0  0  0  0  0  0  0  0  0  0
 44 45  2  0  0  0
 45 46  1  0  0  0
 45 51  1  0  0  0
 46 47  1  0  0  0
 47 48  1  0  0  0
 47 49  1  0  0  0
 49 50  2  0  0  0
 49 51  1  0  0  0
 51 38  1  0  0  0
 38 39  2  0  0  0
 38 43  1  0  0  0
 39 40  1  0  0  0
 40 41  2  0  0  0
 41 42  1  0  0  0
 42 43  2  0  0  0
 43 36  1  0  0  0
 36 37  2  0  0  0
 36 35  1  0  0  0
 35 34  1  0  0  0
 34  1  1  0  0  0
  1  2  1  0  0  0
  1  6  1  0  0  0
  1  9  1  0  0  0
  2  3  1  0  0  0
  3  4  1  0  0  0
  4 24  1  0  0  0
  4  5  1  0  0  0
 24 25  1  0  0  0
  5  6  1  0  0  0
  5  7  1  0  0  0
  5 10  1  0  0  0
  6 21  1  0  0  0
  7  8  1  0  0  0
  7 19  1  0  0  0
  8 26  1  0  0  0
  8  9  1  0  0  0
 26 27  1  0  0  0
 10 11  1  0  0  0
 10 15  1  0  0  0
 11 12  1  0  0  0
 12 13  1  0  0  0
 12 16  1  0  0  0
 13 28  1  0  0  0
 13 14  1  0  0  0
 28 29  1  0  0  0
 14 17  1  0  0  0
 15 16  1  0  0  0
 15 17  1  0  0  0
 16 30  1  0  0  0
 30 31  1  0  0  0
 17 18  1  0  0  0
 17 19  1  0  0  0
 19 20  1  0  0  0
 19 21  1  0  0  0
 21 32  1  0  0  0
 32 33  1  0  0  0
 18 22  1  0  0  0
 20 23  1  0  0  0
M  END
> <minimizedAffinity>
-9.32998

$$$$
2BYR_MLK_A_301


 51 58  0  0  0  0  0  0  0  0999 V2000
    2.9420   -1.9290  -12.8308 C   0  0  0  0  0  0  0  0  0  0  0  0
    2.1403   -2.2329  -11.5523 C   0  0  0  0  0  0  0  0  0  0  0  0
    0.6591   -2.0066  -11.7537 C   0  0  0  0  0  0  0  0  0  0  0  0
    0.1617   -2.7775  -12.9827 C   0  0  0  0  0  0  0  0  0  0  0  0
    0.9332   -2.3979  -14.2679 C   0  0  0  0  0  0  0  0  0  0  0  0
    2.0679   -1.4071  -13.9885 C   0  0  0  0  0  0  0  0  0  0  0  0
    1.7920   -3.4647  -14.9431 C   0  0  0  0  0  0  0  0  0  0  0  0
    2.6711   -4.1442  -13.9423 N   0  0  0  0  0  0  0  0  0  0  0  0
    3.6256   -3.2289  -13.2745 C   0  0  0  0  0  0  0  0  0  0  0  0
   -0.1342   -1.9088  -15.2837 C   0  0  0  0  0  0  0  0  0  0  0  0
   -1.2117   -2.9698  -15.5826 C   0  0  0  0  0  0  0  0  0  0  0  0
   -1.2670   -3.1156  -17.0991 C   0  0  0  0  0  0  0  0  0  0  0  0
   -0.2747   -4.1527  -17.6127 C   0  0  0  0  0  0  0  0  0  0  0  0
    1.1199   -3.5825  -17.9267 C   0  0  0  0  0  0  0  0  0  0  0  0
    0.3255   -1.4887  -16.6874 C   0  0  0  0  0  0  0  0  0  0  0  0
   -0.9080   -1.7272  -17.5538 C   0  0  0  0  0  0  0  0  0  0  0  0
    1.5359   -2.3014  -17.1750 C   0  0  0  0  0  0  0  0  0  0  0  0
    2.2785   -1.5119  -18.0849 O   0  0  0  0  0  0  0  0  0  0  0  0
    2.4920   -2.6171  -16.0222 C   0  0  0  0  0  0  0  0  0  0  0  0
    3.6549   -3.2217  -16.5994 O   0  0  0  0  0  0  0  0  0  0  0  0
    2.8862   -1.3465  -15.2739 C   0  0  0  0  0  0  0  0  0  0  0  0
    1.7192   -1.2795  -18.8425 H   0  0  0  0  0  0  0  0  0  0  0  0
    3.3985   -4.0282  -17.0734 H   0  0  0  0  0  0  0  0  0  0  0  0
    0.2190   -4.1834  -12.7682 O   0  0  0  0  0  0  0  0  0  0  0  0
   -0.9544   -4.7792  -12.2232 C   0  0  0  0  0  0  0  0  0  0  0  0
    3.4053   -5.3041  -14.5060 C   0  0  0  0  0  0  0  0  0  0  0  0
    4.8507   -5.3446  -14.0441 C   0  0  0  0  0  0  0  0  0  0  0  0
   -0.7645   -4.7998  -18.7922 O   0  0  0  0  0  0  0  0  0  0  0  0
   -1.9867   -5.5321  -18.5870 C   0  0  0  0  0  0  0  0  0  0  0  0
   -0.7394   -1.6427  -18.9744 O   0  0  0  0  0  0  0  0  0  0  0  0
   -1.9897   -1.5144  -19.6542 C   0  0  0  0  0  0  0  0  0  0  0  0
    2.6203   -0.1612  -16.0062 O   0  0  0  0  0  0  0  0  0  0  0  0
    3.2621    0.9877  -15.4691 C   0  0  0  0  0  0  0  0  0  0  0  0
    3.9761   -0.8903  -12.4282 C   0  0  0  0  0  0  0  0  0  0  0  0
    5.2357   -1.5344  -12.3977 O   0  0  0  0  0  0  0  0  0  0  0  0
    5.9440   -1.7546  -11.1594 C   0  0  0  0  0  0  0  0  0  0  0  0
    5.3160   -1.9823  -10.1410 O   0  0  0  0  0  0  0  0  0  0  0  0
    8.1361   -0.3981  -11.1681 C   0  0  0  0  0  0  0  0  0  0  0  0
    9.5289   -0.3829  -11.1803 C   0  0  0  0  0  0  0  0  0  0  0  0
   10.2512   -1.5782  -11.1921 C   0  0  0  0  0  0  0  0  0  0  0  0
    9.5950   -2.8126  -11.1971 C   0  0  0  0  0  0  0  0  0  0  0  0
    8.1944   -2.8768  -11.1886 C   0  0  0  0  0  0  0  0  0  0  0  0
    7.4371   -1.7017  -11.1769 C   0  0  0  0  0  0  0  0  0  0  0  0
    7.3239    1.1769   -8.8807 O   0  0  0  0  0  0  0  0  0  0  0  0
    7.1726    1.5229  -10.0546 C   0  0  0  0  0  0  0  0  0  0  0  0
    6.6874    2.8988  -10.4582 C   0  0  0  0  0  0  0  0  0  0  0  0
    6.5779    2.8141  -11.9687 C   0  0  0  0  0  0  0  0  0  0  0  0
    5.1462    2.9674  -12.4642 C   0  0  0  0  0  0  0  0  0  0  0  0
    7.1254    1.4536  -12.2806 C   0  0  0  0  0  0  0  0  0  0  0  0
    7.2351    1.0348  -13.4242 O   0  0  0  0  0  0  0  0  0  0  0  0
    7.3917    0.7882  -11.1572 N   0  0  0  0  0  0  0  0  0  0  0  0
 44 45  2  0  0  0
 45 46  1  0  0  0
 45 51  1  0  0  0
 46 47  1  0  0  0
 47 48  1  0  0  0
 47 49  1  0  0  0
 49 50  2  0  0  0
 49 51  1  0  0  0
 51 38  1  0  0  0
 38 39  2  0  0  0
 38 43  1  0  0  0
 39 40  1  0  0  0
 40 41  2  0  0  0
 41 42  1  0  0  0
 42 43  2  0  0  0
 43 36  1  0  0  0
 36 37  2  0  0  0
 36 35  1  0  0  0
 35 34  1  0  0  0
 34  1  1  0  0  0
  1  2  1  0  0  0
  1  6  1  0  0  0
  1  9  1  0  0  0
  2  3  1  0  0  0
  3  4  1  0  0  0
  4 24  1  0  0  0
  4  5  1  0  0  0
 24 25  1  0  0  0
  5  6  1  0  0  0
  5  7  1  0  0  0
  5 10  1  0  0  0
  6 21  1  0  0  0
  7  8  1  0  0  0
  7 19  1  0  0  0
  8 26  1  0  0  0
  8  9  1  0  0  0
 26 27  1  0  0  0
 10 11  1  0  0  0
 10 15  1  0  0  0
 11 12  1  0  0  0
 12 13  1  0  0  0
 12 16  1  0  0  0
 13 28  1  0  0  0
 13 14  1  0  0  0
 28 29  1  0  0  0
 14 17  1  0  0  0
 15 16  1  0  0  0
 15 17  1  0  0  0
 16 30  1  0  0  0
 30 31  1  0  0  0
 17 18  1  0  0  0
 17 19  1  0  0  0
 19 20  1  0  0  0
 19 21  1  0  0  0
 21 32  1  0  0  0
 32 33  1  0  0  0
 18 22  1  0  0  0
 20 23  1  0  0  0
M  END
> <minimizedAffinity>
-9.17169

$$$$
2BYR_MLK_A_301


 51 58  0  0  0  0  0  0  0  0999 V2000
    5.8922   -1.0379  -11.1156 C   0  0  0  0  0  0  0  0  0  0  0  0
    6.4531   -2.4695  -11.0402 C   0  0  0  0  0  0  0  0  0  0  0  0
    7.4127   -2.7548  -12.1731 C   0  0  0  0  0  0  0  0  0  0  0  0
    8.5012   -1.6763  -12.2375 C   0  0  0  0  0  0  0  0  0  0  0  0
    7.9131   -0.2544  -12.3894 C   0  0  0  0  0  0  0  0  0  0  0  0
    6.3816   -0.2561  -12.3510 C   0  0  0  0  0  0  0  0  0  0  0  0
    8.1175    0.7431  -11.2516 C   0  0  0  0  0  0  0  0  0  0  0  0
    7.7569    0.1253   -9.9385 N   0  0  0  0  0  0  0  0  0  0  0  0
    6.3385   -0.2933   -9.8505 C   0  0  0  0  0  0  0  0  0  0  0  0
    8.5397    0.3363  -13.6813 C   0  0  0  0  0  0  0  0  0  0  0  0
   10.0799    0.3803  -13.6377 C   0  0  0  0  0  0  0  0  0  0  0  0
   10.4818    1.8127  -13.9708 C   0  0  0  0  0  0  0  0  0  0  0  0
   10.5413    2.6957  -12.7295 C   0  0  0  0  0  0  0  0  0  0  0  0
    9.2046    3.3729  -12.3787 C   0  0  0  0  0  0  0  0  0  0  0  0
    8.1716    1.7710  -14.0869 C   0  0  0  0  0  0  0  0  0  0  0  0
    9.3768    2.2326  -14.9013 C   0  0  0  0  0  0  0  0  0  0  0  0
    7.9189    2.6769  -12.8708 C   0  0  0  0  0  0  0  0  0  0  0  0
    7.0135    3.6986  -13.2435 O   0  0  0  0  0  0  0  0  0  0  0  0
    7.2339    1.9070  -11.7391 C   0  0  0  0  0  0  0  0  0  0  0  0
    6.8929    2.8649  -10.7306 O   0  0  0  0  0  0  0  0  0  0  0  0
    5.9717    1.2083  -12.2376 C   0  0  0  0  0  0  0  0  0  0  0  0
    7.3970    4.2237  -13.9633 H   0  0  0  0  0  0  0  0  0  0  0  0
    7.6984    3.3055  -10.4177 H   0  0  0  0  0  0  0  0  0  0  0  0
    9.3577   -1.7389  -11.1024 O   0  0  0  0  0  0  0  0  0  0  0  0
   10.0631   -2.9629  -10.9203 C   0  0  0  0  0  0  0  0  0  0  0  0
    8.0942    0.9870   -8.7783 C   0  0  0  0  0  0  0  0  0  0  0  0
    9.5350    1.4630   -8.8199 C   0  0  0  0  0  0  0  0  0  0  0  0
   11.5334    3.7188  -12.8677 O   0  0  0  0  0  0  0  0  0  0  0  0
   12.8346    3.2201  -13.2282 C   0  0  0  0  0  0  0  0  0  0  0  0
    9.4462    3.6230  -15.2417 O   0  0  0  0  0  0  0  0  0  0  0  0
    8.5565    3.9569  -16.3089 C   0  0  0  0  0  0  0  0  0  0  0  0
    5.5038    1.7164  -13.4766 O   0  0  0  0  0  0  0  0  0  0  0  0
    4.2681    2.4106  -13.3693 C   0  0  0  0  0  0  0  0  0  0  0  0
    4.3803   -1.1917  -11.1415 C   0  0  0  0  0  0  0  0  0  0  0  0
    4.0446   -1.8919  -12.3245 O   0  0  0  0  0  0  0  0  0  0  0  0
    2.9474   -1.4760  -13.1652 C   0  0  0  0  0  0  0  0  0  0  0  0
    2.9792   -0.3797  -13.6950 O   0  0  0  0  0  0  0  0  0  0  0  0
    1.4684   -2.9089  -14.7158 C   0  0  0  0  0  0  0  0  0  0  0  0
    0.4015   -3.7921  -14.8644 C   0  0  0  0  0  0  0  0  0  0  0  0
   -0.3300   -4.2143  -13.7521 C   0  0  0  0  0  0  0  0  0  0  0  0
   -0.0124   -3.7577  -12.4695 C   0  0  0  0  0  0  0  0  0  0  0  0
    1.0510   -2.8654  -12.2721 C   0  0  0  0  0  0  0  0  0  0  0  0
    1.8062   -2.4202  -13.3612 C   0  0  0  0  0  0  0  0  0  0  0  0
    3.9592   -3.9837  -15.7224 O   0  0  0  0  0  0  0  0  0  0  0  0
    3.2946   -3.1146  -16.2911 C   0  0  0  0  0  0  0  0  0  0  0  0
    3.6095   -2.6064  -17.6817 C   0  0  0  0  0  0  0  0  0  0  0  0
    2.5907   -1.5045  -17.9025 C   0  0  0  0  0  0  0  0  0  0  0  0
    3.2322   -0.1314  -18.0506 C   0  0  0  0  0  0  0  0  0  0  0  0
    1.7276   -1.5796  -16.6789 C   0  0  0  0  0  0  0  0  0  0  0  0
    0.7556   -0.8562  -16.5139 O   0  0  0  0  0  0  0  0  0  0  0  0
    2.2149   -2.4717  -15.8173 N   0  0  0  0  0  0  0  0  0  0  0  0
 44 45  2  0  0  0
 45 46  1  0  0  0
 45 51  1  0  0  0
 46 47  1  0  0  0
 47 48  1  0  0  0
 47 49  1  0  0  0
 49 50  2  0  0  0
 49 51  1  0  0  0
 51 38  1  0  0  0
 38 39  2  0  0  0
 38 43  1  0  0  0
 39 40  1  0  0  0
 40 41  2  0  0  0
 41 42  1  0  0  0
 42 43  2  0  0  0
 43 36  1  0  0  0
 36 37  2  0  0  0
 36 35  1  0  0  0
 35 34  1  0  0  0
 34  1  1  0  0  0
  1  2  1  0  0  0
  1  6  1  0  0  0
  1  9  1  0  0  0
  2  3  1  0  0  0
  3  4  1  0  0  0
  4 24  1  0  0  0
  4  5  1  0  0  0
 24 25  1  0  0  0
  5  6  1  0  0  0
  5  7  1  0  0  0
  5 10  1  0  0  0
  6 21  1  0  0  0
  7  8  1  0  0  0
  7 19  1  0  0  0
  8 26  1  0  0  0
  8  9  1  0  0  0
 26 27  1  0  0  0
 10 11  1  0  0  0
 10 15  1  0  0  0
 11 12  1  0  0  0
 12 13  1  0  0  0
 12 16  1  0  0  0
 13 28  1  0  0  0
 13 14  1  0  0  0
 28 29  1  0  0  0
 14 17  1  0  0  0
 15 16  1  0  0  0
 15 17  1  0  0  0
 16 30  1  0  0  0
 30 31  1  0  0  0
 17 18  1  0  0  0
 17 19  1  0  0  0
 19 20  1  0  0  0
 19 21  1  0  0  0
 21 32  1  0  0  0
 32 33  1  0  0  0
 18 22  1  0  0  0
 20 23  1  0  0  0
M  END
> <minimizedAffinity>
-9.16979

$$$$
2BYR_MLK_A_301


 51 58  0  0  0  0  0  0  0  0999 V2000
    2.9842   -1.5910  -12.8534 C   0  0  0  0  0  0  0  0  0  0  0  0
    2.2457   -1.8997  -11.5386 C   0  0  0  0  0  0  0  0  0  0  0  0
    0.7450   -1.8407  -11.7125 C   0  0  0  0  0  0  0  0  0  0  0  0
    0.3060   -2.7308  -12.8817 C   0  0  0  0  0  0  0  0  0  0  0  0
    1.0063   -2.3505  -14.2067 C   0  0  0  0  0  0  0  0  0  0  0  0
    2.0361   -1.2325  -14.0151 C   0  0  0  0  0  0  0  0  0  0  0  0
    1.9581   -3.3608  -14.8429 C   0  0  0  0  0  0  0  0  0  0  0  0
    2.9245   -3.8846  -13.8290 N   0  0  0  0  0  0  0  0  0  0  0  0
    3.7913   -2.8372  -13.2405 C   0  0  0  0  0  0  0  0  0  0  0  0
   -0.1276   -2.0361  -15.2197 C   0  0  0  0  0  0  0  0  0  0  0  0
   -1.0936   -3.2190  -15.4284 C   0  0  0  0  0  0  0  0  0  0  0  0
   -1.1648   -3.4598  -16.9320 C   0  0  0  0  0  0  0  0  0  0  0  0
   -0.0799   -4.4171  -17.4122 C   0  0  0  0  0  0  0  0  0  0  0  0
    1.2402   -3.7251  -17.7957 C   0  0  0  0  0  0  0  0  0  0  0  0
    0.2561   -1.6549  -16.6569 C   0  0  0  0  0  0  0  0  0  0  0  0
   -0.9633   -2.0712  -17.4748 C   0  0  0  0  0  0  0  0  0  0  0  0
    1.5348   -2.3653  -17.1298 C   0  0  0  0  0  0  0  0  0  0  0  0
    2.1712   -1.5587  -18.1029 O   0  0  0  0  0  0  0  0  0  0  0  0
    2.5426   -2.5110  -15.9871 C   0  0  0  0  0  0  0  0  0  0  0  0
    3.7503   -3.0249  -16.5600 O   0  0  0  0  0  0  0  0  0  0  0  0
    2.8166   -1.1640  -15.3233 C   0  0  0  0  0  0  0  0  0  0  0  0
    1.5749   -1.4310  -18.8573 H   0  0  0  0  0  0  0  0  0  0  0  0
    3.5703   -3.8805  -16.9801 H   0  0  0  0  0  0  0  0  0  0  0  0
    0.5152   -4.1079  -12.5889 O   0  0  0  0  0  0  0  0  0  0  0  0
   -0.6032   -4.8081  -12.0522 C   0  0  0  0  0  0  0  0  0  0  0  0
    3.7647   -4.9937  -14.3452 C   0  0  0  0  0  0  0  0  0  0  0  0
    5.1267   -5.0375  -13.6766 C   0  0  0  0  0  0  0  0  0  0  0  0
   -0.5235   -5.1807  -18.5392 O   0  0  0  0  0  0  0  0  0  0  0  0
   -1.8306   -5.7591  -18.3698 C   0  0  0  0  0  0  0  0  0  0  0  0
   -0.8342   -2.0544  -18.9019 O   0  0  0  0  0  0  0  0  0  0  0  0
   -2.1051   -2.0936  -19.5539 C   0  0  0  0  0  0  0  0  0  0  0  0
    2.4123   -0.0584  -16.1146 O   0  0  0  0  0  0  0  0  0  0  0  0
    3.2207    1.0951  -15.9243 C   0  0  0  0  0  0  0  0  0  0  0  0
    3.9115   -0.4286  -12.5387 C   0  0  0  0  0  0  0  0  0  0  0  0
    5.2402   -0.9026  -12.6507 O   0  0  0  0  0  0  0  0  0  0  0  0
    6.3711   -0.0076  -12.5908 C   0  0  0  0  0  0  0  0  0  0  0  0
    6.9966    0.2381  -13.6066 O   0  0  0  0  0  0  0  0  0  0  0  0
    7.7832   -0.0185  -10.4341 C   0  0  0  0  0  0  0  0  0  0  0  0
    8.0972    0.5705   -9.2115 C   0  0  0  0  0  0  0  0  0  0  0  0
    7.4342    1.7249   -8.7893 C   0  0  0  0  0  0  0  0  0  0  0  0
    6.4402    2.3105   -9.5788 C   0  0  0  0  0  0  0  0  0  0  0  0
    6.0883    1.7508  -10.8152 C   0  0  0  0  0  0  0  0  0  0  0  0
    6.7297    0.5954  -11.2717 C   0  0  0  0  0  0  0  0  0  0  0  0
   10.4583   -0.2595  -11.5103 O   0  0  0  0  0  0  0  0  0  0  0  0
    9.7269   -1.2147  -11.2400 C   0  0  0  0  0  0  0  0  0  0  0  0
   10.1930   -2.6543  -11.2810 C   0  0  0  0  0  0  0  0  0  0  0  0
    8.9393   -3.4486  -10.9677 C   0  0  0  0  0  0  0  0  0  0  0  0
    8.4943   -4.3275  -12.1289 C   0  0  0  0  0  0  0  0  0  0  0  0
    7.9248   -2.3885  -10.6598 C   0  0  0  0  0  0  0  0  0  0  0  0
    6.7803   -2.6520  -10.3191 O   0  0  0  0  0  0  0  0  0  0  0  0
    8.4346   -1.1766  -10.8769 N   0  0  0  0  0  0  0  0  0  0  0  0
 44 45  2  0  0  0
 45 46  1  0  0  0
 45 51  1  0  0  0
 46 47  1  0  0  0
 47 48  1  0  0  0
 47 49  1  0  0  0
 49 50  2  0  0  0
 49 51  1  0  0  0
 51 38  1  0  0  0
 38 39  2  0  0  0
 38 43  1  0  0  0
 39 40  1  0  0  0
 40 41  2  0  0  0
 41 42  1  0  0  0
 42 43  2  0  0  0
 43 36  1  0  0  0
 36 37  2  0  0  0
 36 35  1  0  0  0
 35 34  1  0  0  0
 34  1  1  0  0  0
  1  2  1  0  0  0
  1  6  1  0  0  0
  1  9  1  0  0  0
  2  3  1  0  0  0
  3  4  1  0  0  0
  4 24  1  0  0  0
  4  5  1  0  0  0
 24 25  1  0  0  0
  5  6  1  0  0  0
  5  7  1  0  0  0
  5 10  1  0  0  0
  6 21  1  0  0  0
  7  8  1  0  0  0
  7 19  1  0  0  0
  8 26  1  0  0  0
  8  9  1  0  0  0
 26 27  1  0  0  0
 10 11  1  0  0  0
 10 15  1  0  0  0
 11 12  1  0  0  0
 12 13  1  0  0  0
 12 16  1  0  0  0
 13 28  1  0  0  0
 13 14  1  0  0  0
 28 29  1  0  0  0
 14 17  1  0  0  0
 15 16  1  0  0  0
 15 17  1  0  0  0
 16 30  1  0  0  0
 30 31  1  0  0  0
 17 18  1  0  0  0
 17 19  1  0  0  0
 19 20  1  0  0  0
 19 21  1  0  0  0
 21 32  1  0  0  0
 32 33  1  0  0  0
 18 22  1  0  0  0
 20 23  1  0  0  0
M  END
> <minimizedAffinity>
-9.06820

$$$$
2BYR_MLK_A_301


 51 58  0  0  0  0  0  0  0  0999 V2000
    3.2869   -1.9417  -12.7033 C   0  0  0  0  0  0  0  0  0  0  0  0
    2.5105   -2.1965  -11.3987 C   0  0  0  0  0  0  0  0  0  0  0  0
    1.0332   -1.9209  -11.5638 C   0  0  0  0  0  0  0  0  0  0  0  0
    0.4754   -2.6931  -12.7657 C   0  0  0  0  0  0  0  0  0  0  0  0
    1.2239   -2.3618  -14.0774 C   0  0  0  0  0  0  0  0  0  0  0  0
    2.3999   -1.4076  -13.8457 C   0  0  0  0  0  0  0  0  0  0  0  0
    2.0257   -3.4690  -14.7575 C   0  0  0  0  0  0  0  0  0  0  0  0
    2.9077   -4.1633  -13.7695 N   0  0  0  0  0  0  0  0  0  0  0  0
    3.9119   -3.2721  -13.1433 C   0  0  0  0  0  0  0  0  0  0  0  0
    0.1466   -1.8512  -15.0722 C   0  0  0  0  0  0  0  0  0  0  0  0
   -0.9753   -2.8779  -15.3239 C   0  0  0  0  0  0  0  0  0  0  0  0
   -1.0775   -3.0457  -16.8356 C   0  0  0  0  0  0  0  0  0  0  0  0
   -0.1368   -4.1255  -17.3583 C   0  0  0  0  0  0  0  0  0  0  0  0
    1.2678   -3.6103  -17.7194 C   0  0  0  0  0  0  0  0  0  0  0  0
    0.5819   -1.4701  -16.4947 C   0  0  0  0  0  0  0  0  0  0  0  0
   -0.6826   -1.6784  -17.3233 C   0  0  0  0  0  0  0  0  0  0  0  0
    1.7491   -2.3330  -17.0010 C   0  0  0  0  0  0  0  0  0  0  0  0
    2.4936   -1.5850  -17.9439 O   0  0  0  0  0  0  0  0  0  0  0  0
    2.7250   -2.6642  -15.8693 C   0  0  0  0  0  0  0  0  0  0  0  0
    3.8496   -3.3188  -16.4674 O   0  0  0  0  0  0  0  0  0  0  0  0
    3.1841   -1.3967  -15.1535 C   0  0  0  0  0  0  0  0  0  0  0  0
    1.9221   -1.3449  -18.6899 H   0  0  0  0  0  0  0  0  0  0  0  0
    3.5521   -4.1231  -16.9207 H   0  0  0  0  0  0  0  0  0  0  0  0
    0.4891   -4.0966  -12.5291 O   0  0  0  0  0  0  0  0  0  0  0  0
   -0.6748   -4.6359  -11.9100 C   0  0  0  0  0  0  0  0  0  0  0  0
    3.5849   -5.3575  -14.3332 C   0  0  0  0  0  0  0  0  0  0  0  0
    5.0758   -5.3567  -14.0478 C   0  0  0  0  0  0  0  0  0  0  0  0
   -0.6814   -4.7735  -18.5130 O   0  0  0  0  0  0  0  0  0  0  0  0
   -2.0616   -5.1550  -18.3672 C   0  0  0  0  0  0  0  0  0  0  0  0
   -0.5504   -1.6225  -18.7492 O   0  0  0  0  0  0  0  0  0  0  0  0
   -1.8141   -1.4638  -19.3971 C   0  0  0  0  0  0  0  0  0  0  0  0
    2.9398   -0.2144  -15.8983 O   0  0  0  0  0  0  0  0  0  0  0  0
    3.2482    0.9747  -15.1832 C   0  0  0  0  0  0  0  0  0  0  0  0
    4.3674   -0.9342  -12.3464 C   0  0  0  0  0  0  0  0  0  0  0  0
    5.5738   -1.6514  -12.1649 O   0  0  0  0  0  0  0  0  0  0  0  0
    6.7642   -1.0141  -11.6546 C   0  0  0  0  0  0  0  0  0  0  0  0
    6.9632   -0.9882  -10.4533 O   0  0  0  0  0  0  0  0  0  0  0  0
    9.0191   -1.0656  -12.9029 C   0  0  0  0  0  0  0  0  0  0  0  0
    9.8866   -0.4807  -13.8225 C   0  0  0  0  0  0  0  0  0  0  0  0
    9.5315    0.6981  -14.4819 C   0  0  0  0  0  0  0  0  0  0  0  0
    8.3041    1.3184  -14.2312 C   0  0  0  0  0  0  0  0  0  0  0  0
    7.4005    0.7678  -13.3113 C   0  0  0  0  0  0  0  0  0  0  0  0
    7.7206   -0.4113  -12.6314 C   0  0  0  0  0  0  0  0  0  0  0  0
   10.8532   -1.3972  -10.6896 O   0  0  0  0  0  0  0  0  0  0  0  0
   10.1186   -2.2865  -11.1255 C   0  0  0  0  0  0  0  0  0  0  0  0
    9.9568   -3.6330  -10.4531 C   0  0  0  0  0  0  0  0  0  0  0  0
    9.0438   -4.3980  -11.3923 C   0  0  0  0  0  0  0  0  0  0  0  0
    9.7225   -5.6111  -12.0140 C   0  0  0  0  0  0  0  0  0  0  0  0
    8.6807   -3.3786  -12.4300 C   0  0  0  0  0  0  0  0  0  0  0  0
    7.9128   -3.6211  -13.3503 O   0  0  0  0  0  0  0  0  0  0  0  0
    9.3549   -2.2468  -12.2294 N   0  0  0  0  0  0  0  0  0  0  0  0
 44 45  2  0  0  0
 45 46  1  0  0  0
 45 51  1  0  0  0
 46 47  1  0  0  0
 47 48  1  0  0  0
 47 49  1  0  0  0
 49 50  2  0  0  0
 49 51  1  0  0  0
 51 38  1  0  0  0
 38 39  2  0  0  0
 38 43  1  0  0  0
 39 40  1  0  0  0
 40 41  2  0  0  0
 41 42  1  0  0  0
 42 43  2  0  0  0
 43 36  1  0  0  0
 36 37  2  0  0  0
 36 35  1  0  0  0
 35 34  1  0  0  0
 34  1  1  0  0  0
  1  2  1  0  0  0
  1  6  1  0  0  0
  1  9  1  0  0  0
  2  3  1  0  0  0
  3  4  1  0  0  0
  4 24  1  0  0  0
  4  5  1  0  0  0
 24 25  1  0  0  0
  5  6  1  0  0  0
  5  7  1  0  0  0
  5 10  1  0  0  0
  6 21  1  0  0  0
  7  8  1  0  0  0
  7 19  1  0  0  0
  8 26  1  0  0  0
  8  9  1  0  0  0
 26 27  1  0  0  0
 10 11  1  0  0  0
 10 15  1  0  0  0
 11 12  1  0  0  0
 12 13  1  0  0  0
 12 16  1  0  0  0
 13 28  1  0  0  0
 13 14  1  0  0  0
 28 29  1  0  0  0
 14 17  1  0  0  0
 15 16  1  0  0  0
 15 17  1  0  0  0
 16 30  1  0  0  0
 30 31  1  0  0  0
 17 18  1  0  0  0
 17 19  1  0  0  0
 19 20  1  0  0  0
 19 21  1  0  0  0
 21 32  1  0  0  0
 32 33  1  0  0  0
 18 22  1  0  0  0
 20 23  1  0  0  0
M  END
> <minimizedAffinity>
-9.01467

$$$$
2BYR_MLK_A_301


 51 58  0  0  0  0  0  0  0  0999 V2000
    3.2509   -1.8635  -12.9664 C   0  0  0  0  0  0  0  0  0  0  0  0
    2.5450   -2.0741  -11.6147 C   0  0  0  0  0  0  0  0  0  0  0  0
    1.0582   -1.8188  -11.7141 C   0  0  0  0  0  0  0  0  0  0  0  0
    0.4484   -2.6426  -12.8550 C   0  0  0  0  0  0  0  0  0  0  0  0
    1.1253   -2.3561  -14.2153 C   0  0  0  0  0  0  0  0  0  0  0  0
    2.3008   -1.3828  -14.0815 C   0  0  0  0  0  0  0  0  0  0  0  0
    1.9037   -3.4817  -14.8924 C   0  0  0  0  0  0  0  0  0  0  0  0
    2.8427   -4.1286  -13.9249 N   0  0  0  0  0  0  0  0  0  0  0  0
    3.8675   -3.2043  -13.3862 C   0  0  0  0  0  0  0  0  0  0  0  0
   -0.0070   -1.8949  -15.1724 C   0  0  0  0  0  0  0  0  0  0  0  0
   -1.1287   -2.9408  -15.3261 C   0  0  0  0  0  0  0  0  0  0  0  0
   -1.3060   -3.1688  -16.8230 C   0  0  0  0  0  0  0  0  0  0  0  0
   -0.3812   -4.2595  -17.3512 C   0  0  0  0  0  0  0  0  0  0  0  0
    0.9973   -3.7460  -17.8037 C   0  0  0  0  0  0  0  0  0  0  0  0
    0.3508   -1.5658  -16.6291 C   0  0  0  0  0  0  0  0  0  0  0  0
   -0.9519   -1.8180  -17.3829 C   0  0  0  0  0  0  0  0  0  0  0  0
    1.5003   -2.4372  -17.1610 C   0  0  0  0  0  0  0  0  0  0  0  0
    2.1873   -1.7199  -18.1691 O   0  0  0  0  0  0  0  0  0  0  0  0
    2.5363   -2.7147  -16.0690 C   0  0  0  0  0  0  0  0  0  0  0  0
    3.6361   -3.3819  -16.6984 O   0  0  0  0  0  0  0  0  0  0  0  0
    3.0171   -1.4159  -15.4273 C   0  0  0  0  0  0  0  0  0  0  0  0
    1.5758   -1.5145  -18.8935 H   0  0  0  0  0  0  0  0  0  0  0  0
    3.3249   -4.2061  -17.1043 H   0  0  0  0  0  0  0  0  0  0  0  0
    0.4900   -4.0355  -12.5653 O   0  0  0  0  0  0  0  0  0  0  0  0
   -0.7318   -4.6162  -12.1190 C   0  0  0  0  0  0  0  0  0  0  0  0
    3.5036   -5.3377  -14.4760 C   0  0  0  0  0  0  0  0  0  0  0  0
    4.9848   -5.3792  -14.1471 C   0  0  0  0  0  0  0  0  0  0  0  0
   -0.9768   -4.9573  -18.4504 O   0  0  0  0  0  0  0  0  0  0  0  0
   -2.2371   -5.5749  -18.1311 C   0  0  0  0  0  0  0  0  0  0  0  0
   -0.8933   -1.8170  -18.8148 O   0  0  0  0  0  0  0  0  0  0  0  0
   -2.1894   -1.6882  -19.4025 C   0  0  0  0  0  0  0  0  0  0  0  0
    2.7219   -0.2661  -16.2037 O   0  0  0  0  0  0  0  0  0  0  0  0
    3.1108    0.9498  -15.5786 C   0  0  0  0  0  0  0  0  0  0  0  0
    4.3369   -0.8329  -12.7048 C   0  0  0  0  0  0  0  0  0  0  0  0
    5.4865   -1.5298  -12.2629 O   0  0  0  0  0  0  0  0  0  0  0  0
    6.7554   -0.8641  -12.0886 C   0  0  0  0  0  0  0  0  0  0  0  0
    7.7524   -1.3253  -12.6146 O   0  0  0  0  0  0  0  0  0  0  0  0
    7.5484    1.5641  -11.7423 C   0  0  0  0  0  0  0  0  0  0  0  0
    7.5622    2.7132  -10.9551 C   0  0  0  0  0  0  0  0  0  0  0  0
    6.8699    2.7507   -9.7427 C   0  0  0  0  0  0  0  0  0  0  0  0
    6.1540    1.6382   -9.2908 C   0  0  0  0  0  0  0  0  0  0  0  0
    6.1145    0.4588  -10.0481 C   0  0  0  0  0  0  0  0  0  0  0  0
    6.7953    0.3831  -11.2669 C   0  0  0  0  0  0  0  0  0  0  0  0
    6.5555    2.2016  -14.3843 O   0  0  0  0  0  0  0  0  0  0  0  0
    7.7334    1.9449  -14.1254 C   0  0  0  0  0  0  0  0  0  0  0  0
    8.8548    2.0898  -15.1319 C   0  0  0  0  0  0  0  0  0  0  0  0
   10.0747    1.5790  -14.3889 C   0  0  0  0  0  0  0  0  0  0  0  0
   10.6608    0.3209  -15.0154 C   0  0  0  0  0  0  0  0  0  0  0  0
    9.5544    1.3149  -13.0078 C   0  0  0  0  0  0  0  0  0  0  0  0
   10.2714    0.9218  -12.0985 O   0  0  0  0  0  0  0  0  0  0  0  0
    8.2362    1.5040  -12.9608 N   0  0  0  0  0  0  0  0  0  0  0  0
 44 45  2  0  0  0
 45 46  1  0  0  0
 45 51  1  0  0  0
 46 47  1  0  0  0
 47 48  1  0  0  0
 47 49  1  0  0  0
 49 50  2  0  0  0
 49 51  1  0  0  0
 51 38  1  0  0  0
 38 39  2  0  0  0
 38 43  1  0  0  0
 39 40  1  0  0  0
 40 41  2  0  0  0
 41 42  1  0  0  0
 42 43  2  0  0  0
 43 36  1  0  0  0
 36 37  2  0  0  0
 36 35  1  0  0  0
 35 34  1  0  0  0
 34  1  1  0  0  0
  1  2  1  0  0  0
  1  6  1  0  0  0
  1  9  1  0  0  0
  2  3  1  0  0  0
  3  4  1  0  0  0
  4 24  1  0  0  0
  4  5  1  0  0  0
 24 25  1  0  0  0
  5  6  1  0  0  0
  5  7  1  0  0  0
  5 10  1  0  0  0
  6 21  1  0  0  0
  7  8  1  0  0  0
  7 19  1  0  0  0
  8 26  1  0  0  0
  8  9  1  0  0  0
 26 27  1  0  0  0
 10 11  1  0  0  0
 10 15  1  0  0  0
 11 12  1  0  0  0
 12 13  1  0  0  0
 12 16  1  0  0  0
 13 28  1  0  0  0
 13 14  1  0  0  0
 28 29  1  0  0  0
 14 17  1  0  0  0
 15 16  1  0  0  0
 15 17  1  0  0  0
 16 30  1  0  0  0
 30 31  1  0  0  0
 17 18  1  0  0  0
 17 19  1  0  0  0
 19 20  1  0  0  0
 19 21  1  0  0  0
 21 32  1  0  0  0
 32 33  1  0  0  0
 18 22  1  0  0  0
 20 23  1  0  0  0
M  END
> <minimizedAffinity>
-8.68088

$$$$
2BYR_MLK_A_301


 51 58  0  0  0  0  0  0  0  0999 V2000
    5.9809    0.0847  -12.3774 C   0  0  0  0  0  0  0  0  0  0  0  0
    5.7977   -1.3876  -11.9668 C   0  0  0  0  0  0  0  0  0  0  0  0
    7.0079   -2.2219  -12.3204 C   0  0  0  0  0  0  0  0  0  0  0  0
    8.2822   -1.5847  -11.7525 C   0  0  0  0  0  0  0  0  0  0  0  0
    8.4819   -0.1313  -12.2408 C   0  0  0  0  0  0  0  0  0  0  0  0
    7.3134    0.3529  -13.1051 C   0  0  0  0  0  0  0  0  0  0  0  0
    8.4215    0.9965  -11.2134 C   0  0  0  0  0  0  0  0  0  0  0  0
    7.2087    0.8577  -10.3498 N   0  0  0  0  0  0  0  0  0  0  0  0
    5.9344    0.9355  -11.1015 C   0  0  0  0  0  0  0  0  0  0  0  0
    9.8722   -0.0951  -12.9313 C   0  0  0  0  0  0  0  0  0  0  0  0
   11.0202   -0.5235  -11.9962 C   0  0  0  0  0  0  0  0  0  0  0  0
   12.0624    0.5878  -12.0529 C   0  0  0  0  0  0  0  0  0  0  0  0
   11.7932    1.6804  -11.0245 C   0  0  0  0  0  0  0  0  0  0  0  0
   10.8712    2.8035  -11.5316 C   0  0  0  0  0  0  0  0  0  0  0  0
   10.3769    1.2403  -13.4971 C   0  0  0  0  0  0  0  0  0  0  0  0
   11.8954    1.0931  -13.4601 C   0  0  0  0  0  0  0  0  0  0  0  0
    9.8962    2.4451  -12.6719 C   0  0  0  0  0  0  0  0  0  0  0  0
    9.8185    3.5760  -13.5190 O   0  0  0  0  0  0  0  0  0  0  0  0
    8.4771    2.2237  -12.1429 C   0  0  0  0  0  0  0  0  0  0  0  0
    8.0614    3.4536  -11.5387 O   0  0  0  0  0  0  0  0  0  0  0  0
    7.5221    1.8540  -13.2748 C   0  0  0  0  0  0  0  0  0  0  0  0
   10.6959    3.7657  -13.8865 H   0  0  0  0  0  0  0  0  0  0  0  0
    8.6715    3.6835  -10.8205 H   0  0  0  0  0  0  0  0  0  0  0  0
    8.2945   -1.6349  -10.3301 O   0  0  0  0  0  0  0  0  0  0  0  0
    7.4559   -2.6197   -9.7336 C   0  0  0  0  0  0  0  0  0  0  0  0
    7.1824    1.8248   -9.2244 C   0  0  0  0  0  0  0  0  0  0  0  0
    8.4356    1.7433   -8.3718 C   0  0  0  0  0  0  0  0  0  0  0  0
   13.0127    2.2788  -10.5719 O   0  0  0  0  0  0  0  0  0  0  0  0
   13.1099    2.3855   -9.1398 C   0  0  0  0  0  0  0  0  0  0  0  0
   12.6759    2.2674  -13.7164 O   0  0  0  0  0  0  0  0  0  0  0  0
   14.0767    1.9858  -13.7284 C   0  0  0  0  0  0  0  0  0  0  0  0
    8.0316    2.1676  -14.5609 O   0  0  0  0  0  0  0  0  0  0  0  0
    7.1409    2.9524  -15.3427 C   0  0  0  0  0  0  0  0  0  0  0  0
    4.8015    0.4076  -13.2799 C   0  0  0  0  0  0  0  0  0  0  0  0
    3.6668   -0.2496  -12.7479 O   0  0  0  0  0  0  0  0  0  0  0  0
    2.3612   -0.1120  -13.3480 C   0  0  0  0  0  0  0  0  0  0  0  0
    2.1815    0.7322  -14.2073 O   0  0  0  0  0  0  0  0  0  0  0  0
    1.1412   -2.3793  -13.4753 C   0  0  0  0  0  0  0  0  0  0  0  0
    0.1167   -3.2091  -13.0254 C   0  0  0  0  0  0  0  0  0  0  0  0
   -0.7663   -2.7728  -12.0352 C   0  0  0  0  0  0  0  0  0  0  0  0
   -0.6456   -1.4960  -11.4787 C   0  0  0  0  0  0  0  0  0  0  0  0
    0.3680   -0.6251  -11.9027 C   0  0  0  0  0  0  0  0  0  0  0  0
    1.2709   -1.0262  -12.8920 C   0  0  0  0  0  0  0  0  0  0  0  0
    3.5707   -3.9176  -13.1532 O   0  0  0  0  0  0  0  0  0  0  0  0
    3.0728   -3.6204  -14.2415 C   0  0  0  0  0  0  0  0  0  0  0  0
    3.5788   -4.1623  -15.5612 C   0  0  0  0  0  0  0  0  0  0  0  0
    2.7254   -3.4514  -16.5942 C   0  0  0  0  0  0  0  0  0  0  0  0
    3.5379   -2.5334  -17.4974 C   0  0  0  0  0  0  0  0  0  0  0  0
    1.7456   -2.6790  -15.7628 C   0  0  0  0  0  0  0  0  0  0  0  0
    0.8558   -2.0001  -16.2554 O   0  0  0  0  0  0  0  0  0  0  0  0
    2.0373   -2.7958  -14.4678 N   0  0  0  0  0  0  0  0  0  0  0  0
 44 45  2  0  0  0
 45 46  1  0  0  0
 45 51  1  0  0  0
 46 47  1  0  0  0
 47 48  1  0  0  0
 47 49  1  0  0  0
 49 50  2  0  0  0
 49 51  1  0  0  0
 51 38  1  0  0  0
 38 39  2  0  0  0
 38 43  1  0  0  0
 39 40  1  0  0  0
 40 41  2  0  0  0
 41 42  1  0  0  0
 42 43  2  0  0  0
 43 36  1  0  0  0
 36 37  2  0  0  0
 36 35  1  0  0  0
 35 34  1  0  0  0
 34  1  1  0  0  0
  1  2  1  0  0  0
  1  6  1  0  0  0
  1  9  1  0  0  0
  2  3  1  0  0  0
  3  4  1  0  0  0
  4 24  1  0  0  0
  4  5  1  0  0  0
 24 25  1  0  0  0
  5  6  1  0  0  0
  5  7  1  0  0  0
  5 10  1  0  0  0
  6 21  1  0  0  0
  7  8  1  0  0  0
  7 19  1  0  0  0
  8 26  1  0  0  0
  8  9  1  0  0  0
 26 27  1  0  0  0
 10 11  1  0  0  0
 10 15  1  0  0  0
 11 12  1  0  0  0
 12 13  1  0  0  0
 12 16  1  0  0  0
 13 28  1  0  0  0
 13 14  1  0  0  0
 28 29  1  0  0  0
 14 17  1  0  0  0
 15 16  1  0  0  0
 15 17  1  0  0  0
 16 30  1  0  0  0
 30 31  1  0  0  0
 17 18  1  0  0  0
 17 19  1  0  0  0
 19 20  1  0  0  0
 19 21  1  0  0  0
 21 32  1  0  0  0
 32 33  1  0  0  0
 18 22  1  0  0  0
 20 23  1  0  0  0
M  END
> <minimizedAffinity>
-8.51139

$$$$
2BYR_MLK_A_301


 51 58  0  0  0  0  0  0  0  0999 V2000
    3.9616   -1.9187  -12.4499 C   0  0  0  0  0  0  0  0  0  0  0  0
    4.4930   -0.4969  -12.1931 C   0  0  0  0  0  0  0  0  0  0  0  0
    4.6921    0.2673  -13.4823 C   0  0  0  0  0  0  0  0  0  0  0  0
    3.4111    0.2384  -14.3253 C   0  0  0  0  0  0  0  0  0  0  0  0
    2.9409   -1.2022  -14.6328 C   0  0  0  0  0  0  0  0  0  0  0  0
    3.8187   -2.2545  -13.9478 C   0  0  0  0  0  0  0  0  0  0  0  0
    1.6112   -1.6739  -14.0493 C   0  0  0  0  0  0  0  0  0  0  0  0
    1.5358   -1.3599  -12.5892 N   0  0  0  0  0  0  0  0  0  0  0  0
    2.5836   -2.0303  -11.7845 C   0  0  0  0  0  0  0  0  0  0  0  0
    2.8667   -1.3111  -16.1798 C   0  0  0  0  0  0  0  0  0  0  0  0
    1.9152   -0.2758  -16.8114 C   0  0  0  0  0  0  0  0  0  0  0  0
    0.9521   -1.0571  -17.6980 C   0  0  0  0  0  0  0  0  0  0  0  0
   -0.2742   -1.5372  -16.9300 C   0  0  0  0  0  0  0  0  0  0  0  0
   -0.0969   -2.9140  -16.2656 C   0  0  0  0  0  0  0  0  0  0  0  0
    2.3900   -2.6321  -16.8013 C   0  0  0  0  0  0  0  0  0  0  0  0
    1.8130   -2.2057  -18.1482 C   0  0  0  0  0  0  0  0  0  0  0  0
    1.3450   -3.3464  -15.9288 C   0  0  0  0  0  0  0  0  0  0  0  0
    1.4251   -4.7386  -16.1692 O   0  0  0  0  0  0  0  0  0  0  0  0
    1.6482   -3.1636  -14.4397 C   0  0  0  0  0  0  0  0  0  0  0  0
    0.7289   -3.9950  -13.7225 O   0  0  0  0  0  0  0  0  0  0  0  0
    3.0813   -3.5784  -14.1176 C   0  0  0  0  0  0  0  0  0  0  0  0
    1.2406   -4.9163  -17.1048 H   0  0  0  0  0  0  0  0  0  0  0  0
   -0.1798   -3.7271  -13.9309 H   0  0  0  0  0  0  0  0  0  0  0  0
    2.3664    0.9775  -13.7023 O   0  0  0  0  0  0  0  0  0  0  0  0
    2.6940    2.3053  -13.3039 C   0  0  0  0  0  0  0  0  0  0  0  0
    0.2020   -1.6404  -12.0022 C   0  0  0  0  0  0  0  0  0  0  0  0
   -0.9266   -1.1187  -12.8730 C   0  0  0  0  0  0  0  0  0  0  0  0
   -1.4260   -1.5995  -17.7782 O   0  0  0  0  0  0  0  0  0  0  0  0
   -2.6718   -1.4252  -17.0785 C   0  0  0  0  0  0  0  0  0  0  0  0
    1.0745   -3.1869  -18.8869 O   0  0  0  0  0  0  0  0  0  0  0  0
    0.9552   -2.8382  -20.2675 C   0  0  0  0  0  0  0  0  0  0  0  0
    3.6723   -4.3786  -15.1288 O   0  0  0  0  0  0  0  0  0  0  0  0
    4.6565   -5.2760  -14.6324 C   0  0  0  0  0  0  0  0  0  0  0  0
    4.9563   -2.8541  -11.7822 C   0  0  0  0  0  0  0  0  0  0  0  0
    6.2246   -2.2282  -11.8274 O   0  0  0  0  0  0  0  0  0  0  0  0
    6.9815   -1.9628  -10.6273 C   0  0  0  0  0  0  0  0  0  0  0  0
    6.4005   -1.8596   -9.5618 O   0  0  0  0  0  0  0  0  0  0  0  0
    9.0957   -0.4933  -10.7534 C   0  0  0  0  0  0  0  0  0  0  0  0
   10.4822   -0.4050  -10.8539 C   0  0  0  0  0  0  0  0  0  0  0  0
   11.2628   -1.5605  -10.9311 C   0  0  0  0  0  0  0  0  0  0  0  0
   10.6721   -2.8274  -10.9145 C   0  0  0  0  0  0  0  0  0  0  0  0
    9.2801   -2.9651  -10.8180 C   0  0  0  0  0  0  0  0  0  0  0  0
    8.4656   -1.8315  -10.7389 C   0  0  0  0  0  0  0  0  0  0  0  0
    8.1612    0.8723   -8.3797 O   0  0  0  0  0  0  0  0  0  0  0  0
    8.0164    1.2942   -9.5293 C   0  0  0  0  0  0  0  0  0  0  0  0
    7.4718    2.6708   -9.8456 C   0  0  0  0  0  0  0  0  0  0  0  0
    7.3968    2.6898  -11.3604 C   0  0  0  0  0  0  0  0  0  0  0  0
    5.9693    2.8096  -11.8771 C   0  0  0  0  0  0  0  0  0  0  0  0
    8.0169    1.3831  -11.7551 C   0  0  0  0  0  0  0  0  0  0  0  0
    8.1700    1.0534  -12.9226 O   0  0  0  0  0  0  0  0  0  0  0  0
    8.2935    0.6521  -10.6758 N   0  0  0  0  0  0  0  0  0  0  0  0
 44 45  2  0  0  0
 45 46  1  0  0  0
 45 51  1  0  0  0
 46 47  1  0  0  0
 47 48  1  0  0  0
 47 49  1  0  0  0
 49 50  2  0  0  0
 49 51  1  0  0  0
 51 38  1  0  0  0
 38 39  2  0  0  0
 38 43  1  0  0  0
 39 40  1  0  0  0
 40 41  2  0  0  0
 41 42  1  0  0  0
 42 43  2  0  0  0
 43 36  1  0  0  0
 36 37  2  0  0  0
 36 35  1  0  0  0
 35 34  1  0  0  0
 34  1  1  0  0  0
  1  2  1  0  0  0
  1  6  1  0  0  0
  1  9  1  0  0  0
  2  3  1  0  0  0
  3  4  1  0  0  0
  4 24  1  0  0  0
  4  5  1  0  0  0
 24 25  1  0  0  0
  5  6  1  0  0  0
  5  7  1  0  0  0
  5 10  1  0  0  0
  6 21  1  0  0  0
  7  8  1  0  0  0
  7 19  1  0  0  0
  8 26  1  0  0  0
  8  9  1  0  0  0
 26 27  1  0  0  0
 10 11  1  0  0  0
 10 15  1  0  0  0
 11 12  1  0  0  0
 12 13  1  0  0  0
 12 16  1  0  0  0
 13 28  1  0  0  0
 13 14  1  0  0  0
 28 29  1  0  0  0
 14 17  1  0  0  0
 15 16  1  0  0  0
 15 17  1  0  0  0
 16 30  1  0  0  0
 30 31  1  0  0  0
 17 18  1  0  0  0
 17 19  1  0  0  0
 19 20  1  0  0  0
 19 21  1  0  0  0
 21 32  1  0  0  0
 32 33  1  0  0  0
 18 22  1  0  0  0
 20 23  1  0  0  0
M  END
> <minimizedAffinity>
-8.49753

$$$$
2BYR_MLK_A_301


 51 58  0  0  0  0  0  0  0  0999 V2000
    5.5946    2.0913  -13.0672 C   0  0  0  0  0  0  0  0  0  0  0  0
    6.5481    1.0326  -12.4844 C   0  0  0  0  0  0  0  0  0  0  0  0
    7.7062    0.7501  -13.4143 C   0  0  0  0  0  0  0  0  0  0  0  0
    8.4103    2.0555  -13.8047 C   0  0  0  0  0  0  0  0  0  0  0  0
    7.4455    3.0727  -14.4569 C   0  0  0  0  0  0  0  0  0  0  0  0
    5.9999    2.5661  -14.4769 C   0  0  0  0  0  0  0  0  0  0  0  0
    7.1642    4.3822  -13.7238 C   0  0  0  0  0  0  0  0  0  0  0  0
    6.8184    4.1207  -12.2927 N   0  0  0  0  0  0  0  0  0  0  0  0
    5.5990    3.2975  -12.1189 C   0  0  0  0  0  0  0  0  0  0  0  0
    8.0467    3.4065  -15.8490 C   0  0  0  0  0  0  0  0  0  0  0  0
    9.4754    3.9791  -15.7663 C   0  0  0  0  0  0  0  0  0  0  0  0
    9.4655    5.2833  -16.5556 C   0  0  0  0  0  0  0  0  0  0  0  0
    9.0675    6.4744  -15.6915 C   0  0  0  0  0  0  0  0  0  0  0  0
    7.5512    6.7339  -15.6439 C   0  0  0  0  0  0  0  0  0  0  0  0
    7.3226    4.4302  -16.7356 C   0  0  0  0  0  0  0  0  0  0  0  0
    8.4363    4.9934  -17.6139 C   0  0  0  0  0  0  0  0  0  0  0  0
    6.6276    5.5285  -15.9144 C   0  0  0  0  0  0  0  0  0  0  0  0
    5.5195    6.0142  -16.6483 O   0  0  0  0  0  0  0  0  0  0  0  0
    6.0501    4.9658  -14.6134 C   0  0  0  0  0  0  0  0  0  0  0  0
    5.2870    6.0157  -14.0082 O   0  0  0  0  0  0  0  0  0  0  0  0
    5.1504    3.7639  -14.8882 C   0  0  0  0  0  0  0  0  0  0  0  0
    5.8269    6.3859  -17.4899 H   0  0  0  0  0  0  0  0  0  0  0  0
    5.8636    6.7765  -13.8360 H   0  0  0  0  0  0  0  0  0  0  0  0
    9.0662    2.6426  -12.6862 O   0  0  0  0  0  0  0  0  0  0  0  0
   10.3362    2.0927  -12.3490 C   0  0  0  0  0  0  0  0  0  0  0  0
    6.7001    5.3614  -11.4870 C   0  0  0  0  0  0  0  0  0  0  0  0
    5.4457    5.3703  -10.6324 C   0  0  0  0  0  0  0  0  0  0  0  0
    9.7087    7.6750  -16.1356 O   0  0  0  0  0  0  0  0  0  0  0  0
   11.0665    7.4802  -16.5719 C   0  0  0  0  0  0  0  0  0  0  0  0
    8.1277    6.1458  -18.4079 O   0  0  0  0  0  0  0  0  0  0  0  0
    7.9315    5.8103  -19.7830 C   0  0  0  0  0  0  0  0  0  0  0  0
    4.7394    3.6713  -16.2426 O   0  0  0  0  0  0  0  0  0  0  0  0
    3.9001    2.5535  -16.5007 C   0  0  0  0  0  0  0  0  0  0  0  0
    4.2234    1.4363  -13.0945 C   0  0  0  0  0  0  0  0  0  0  0  0
    4.3359    0.2463  -13.8520 O   0  0  0  0  0  0  0  0  0  0  0  0
    3.1713   -0.4639  -14.3242 C   0  0  0  0  0  0  0  0  0  0  0  0
    2.1488    0.1527  -14.5645 O   0  0  0  0  0  0  0  0  0  0  0  0
    3.7212   -2.8048  -13.3953 C   0  0  0  0  0  0  0  0  0  0  0  0
    3.7972   -4.1807  -13.5987 C   0  0  0  0  0  0  0  0  0  0  0  0
    3.4444   -4.7362  -14.8306 C   0  0  0  0  0  0  0  0  0  0  0  0
    3.0135   -3.9263  -15.8855 C   0  0  0  0  0  0  0  0  0  0  0  0
    2.9244   -2.5359  -15.7279 C   0  0  0  0  0  0  0  0  0  0  0  0
    3.2691   -1.9432  -14.5095 C   0  0  0  0  0  0  0  0  0  0  0  0
    1.9646   -1.6954  -11.3813 O   0  0  0  0  0  0  0  0  0  0  0  0
    3.1786   -1.8552  -11.2360 C   0  0  0  0  0  0  0  0  0  0  0  0
    3.8916   -1.6436   -9.9176 C   0  0  0  0  0  0  0  0  0  0  0  0
    5.3528   -1.8674  -10.2575 C   0  0  0  0  0  0  0  0  0  0  0  0
    6.1975   -0.6133  -10.0770 C   0  0  0  0  0  0  0  0  0  0  0  0
    5.3128   -2.3022  -11.6918 C   0  0  0  0  0  0  0  0  0  0  0  0
    6.3186   -2.6150  -12.3129 O   0  0  0  0  0  0  0  0  0  0  0  0
    4.0708   -2.2263  -12.1687 N   0  0  0  0  0  0  0  0  0  0  0  0
 44 45  2  0  0  0
 45 46  1  0  0  0
 45 51  1  0  0  0
 46 47  1  0  0  0
 47 48  1  0  0  0
 47 49  1  0  0  0
 49 50  2  0  0  0
 49 51  1  0  0  0
 51 38  1  0  0  0
 38 39  2  0  0  0
 38 43  1  0  0  0
 39 40  1  0  0  0
 40 41  2  0  0  0
 41 42  1  0  0  0
 42 43  2  0  0  0
 43 36  1  0  0  0
 36 37  2  0  0  0
 36 35  1  0  0  0
 35 34  1  0  0  0
 34  1  1  0  0  0
  1  2  1  0  0  0
  1  6  1  0  0  0
  1  9  1  0  0  0
  2  3  1  0  0  0
  3  4  1  0  0  0
  4 24  1  0  0  0
  4  5  1  0  0  0
 24 25  1  0  0  0
  5  6  1  0  0  0
  5  7  1  0  0  0
  5 10  1  0  0  0
  6 21  1  0  0  0
  7  8  1  0  0  0
  7 19  1  0  0  0
  8 26  1  0  0  0
  8  9  1  0  0  0
 26 27  1  0  0  0
 10 11  1  0  0  0
 10 15  1  0  0  0
 11 12  1  0  0  0
 12 13  1  0  0  0
 12 16  1  0  0  0
 13 28  1  0  0  0
 13 14  1  0  0  0
 28 29  1  0  0  0
 14 17  1  0  0  0
 15 16  1  0  0  0
 15 17  1  0  0  0
 16 30  1  0  0  0
 30 31  1  0  0  0
 17 18  1  0  0  0
 17 19  1  0  0  0
 19 20  1  0  0  0
 19 21  1  0  0  0
 21 32  1  0  0  0
 32 33  1  0  0  0
 18 22  1  0  0  0
 20 23  1  0  0  0
M  END
> <minimizedAffinity>
-8.49226

$$$$
