4MR6_1K0_A_505


 29 31  0  0  0  0  0  0  0  0999 V2000
  -11.3273   46.7756   43.8569 C   0  0  0  0  0  0  0  0  0  0  0  0
  -11.5089   46.5837   45.2093 C   0  0  0  0  0  0  0  0  0  0  0  0
  -10.7901   45.5449   45.8585 C   0  0  0  0  0  0  0  0  0  0  0  0
   -8.2689   43.0192   44.8812 N   0  0  0  0  0  0  0  0  0  0  0  0
   -9.8990   44.7486   45.1214 C   0  0  0  0  0  0  0  0  0  0  0  0
   -8.7675   44.3072   43.0000 N   0  0  0  0  0  0  0  0  0  0  0  0
   -9.1689   43.6423   45.7218 C   0  0  0  0  0  0  0  0  0  0  0  0
   -8.1005   43.3585   43.5863 C   0  0  0  0  0  0  0  0  0  0  0  0
   -9.2858   43.1562   46.8508 O   0  0  0  0  0  0  0  0  0  0  0  0
   -9.7108   45.0098   43.7415 C   0  0  0  0  0  0  0  0  0  0  0  0
  -10.4379   46.0183   43.0889 C   0  0  0  0  0  0  0  0  0  0  0  0
   -7.7203   42.2877   45.2461 H   0  0  0  0  0  0  0  0  0  0  0  0
   -7.1232   42.5312   42.8058 C   0  0  0  0  0  0  0  0  0  0  0  0
   -6.2397   41.6285   43.4075 C   0  0  0  0  0  0  0  0  0  0  0  0
   -5.3738   40.8172   42.6440 C   0  0  0  0  0  0  0  0  0  0  0  0
   -4.5090   39.8201   43.3670 C   0  0  0  0  0  0  0  0  0  0  0  0
   -5.4165   40.9278   41.2636 C   0  0  0  0  0  0  0  0  0  0  0  0
   -6.2797   41.8096   40.6477 C   0  0  0  0  0  0  0  0  0  0  0  0
   -6.3783   41.8749   39.1309 C   0  0  0  0  0  0  0  0  0  0  0  0
   -7.1410   42.6220   41.4093 C   0  0  0  0  0  0  0  0  0  0  0  0
   -4.6079   40.0643   40.4734 O   0  0  0  0  0  0  0  0  0  0  0  0
   -3.3294   40.5782   40.3783 C   0  0  0  0  0  0  0  0  0  0  0  0
   -1.4727   39.2525   39.6977 O   0  0  0  0  0  0  0  0  0  0  0  0
   -2.6981   39.7782   39.1793 C   0  0  0  0  0  0  0  0  0  0  0  0
   -1.0224   38.7413   39.0072 H   0  0  0  0  0  0  0  0  0  0  0  0
  -12.0825   47.7434   43.2074 O   0  0  0  0  0  0  0  0  0  0  0  0
  -12.5070   47.5465   41.8539 C   0  0  0  0  0  0  0  0  0  0  0  0
  -12.2579   44.9566   47.7268 C   0  0  0  0  0  0  0  0  0  0  0  0
  -10.9567   45.3384   47.1817 O   0  0  0  0  0  0  0  0  0  0  0  0
 28 29  1  0  0  0
 29  3  1  0  0  0
  2  3  2  0  0  0
  2  1  1  0  0  0
 26  1  1  0  0  0
 26 27  1  0  0  0
  3  5  1  0  0  0
  1 11  2  0  0  0
  5 10  2  0  0  0
  5  7  1  0  0  0
 11 10  1  0  0  0
  9  7  2  0  0  0
 10  6  1  0  0  0
  7  4  1  0  0  0
  6  8  2  0  0  0
  4  8  1  0  0  0
  8 13  1  0  0  0
 13 14  2  0  0  0
 13 20  1  0  0  0
 14 15  1  0  0  0
 20 18  2  0  0  0
 15 16  1  0  0  0
 15 17  2  0  0  0
 18 17  1  0  0  0
 18 19  1  0  0  0
 17 21  1  0  0  0
 21 22  1  0  0  0
 22 24  1  0  0  0
 23 24  1  0  0  0
  4 12  1  0  0  0
 23 25  1  0  0  0
M  END
> <minimizedAffinity>
-7.11031

$$$$
4MR6_1K0_A_505


 29 31  0  0  0  0  0  0  0  0999 V2000
   -6.2893   41.8051   40.8496 C   0  0  0  0  0  0  0  0  0  0  0  0
   -6.4690   42.7630   39.8755 C   0  0  0  0  0  0  0  0  0  0  0  0
   -7.3034   43.8781   40.1541 C   0  0  0  0  0  0  0  0  0  0  0  0
   -9.2524   45.1051   43.0501 N   0  0  0  0  0  0  0  0  0  0  0  0
   -7.9118   43.9950   41.4142 C   0  0  0  0  0  0  0  0  0  0  0  0
   -8.1698   43.1389   43.6893 N   0  0  0  0  0  0  0  0  0  0  0  0
   -8.8113   45.0908   41.7425 C   0  0  0  0  0  0  0  0  0  0  0  0
   -8.9297   44.1588   43.9560 C   0  0  0  0  0  0  0  0  0  0  0  0
   -9.2717   45.9660   41.0030 O   0  0  0  0  0  0  0  0  0  0  0  0
   -7.6640   43.0086   42.4008 C   0  0  0  0  0  0  0  0  0  0  0  0
   -6.8610   41.8908   42.1224 C   0  0  0  0  0  0  0  0  0  0  0  0
   -9.8339   45.8458   43.3374 H   0  0  0  0  0  0  0  0  0  0  0  0
   -9.5512   44.3009   45.3132 C   0  0  0  0  0  0  0  0  0  0  0  0
  -10.2698   45.4353   45.7059 C   0  0  0  0  0  0  0  0  0  0  0  0
  -10.8969   45.5165   46.9673 C   0  0  0  0  0  0  0  0  0  0  0  0
  -11.7123   46.7420   47.2804 C   0  0  0  0  0  0  0  0  0  0  0  0
  -10.7914   44.4332   47.8245 C   0  0  0  0  0  0  0  0  0  0  0  0
  -10.0892   43.3037   47.4594 C   0  0  0  0  0  0  0  0  0  0  0  0
  -10.0383   42.0870   48.3715 C   0  0  0  0  0  0  0  0  0  0  0  0
   -9.4601   43.2239   46.2025 C   0  0  0  0  0  0  0  0  0  0  0  0
  -11.4807   44.4638   49.0686 O   0  0  0  0  0  0  0  0  0  0  0  0
  -10.7864   45.2484   49.9687 C   0  0  0  0  0  0  0  0  0  0  0  0
   -8.9311   44.1695   50.9991 O   0  0  0  0  0  0  0  0  0  0  0  0
  -10.3573   44.2318   51.0906 C   0  0  0  0  0  0  0  0  0  0  0  0
   -8.5907   43.5550   51.6679 H   0  0  0  0  0  0  0  0  0  0  0  0
   -5.5321   40.6789   40.5539 O   0  0  0  0  0  0  0  0  0  0  0  0
   -4.5177   40.2275   41.4584 C   0  0  0  0  0  0  0  0  0  0  0  0
   -6.4746   45.8360   38.9413 C   0  0  0  0  0  0  0  0  0  0  0  0
   -7.4952   44.8254   39.2123 O   0  0  0  0  0  0  0  0  0  0  0  0
 28 29  1  0  0  0
 29  3  1  0  0  0
  2  3  2  0  0  0
  2  1  1  0  0  0
 26  1  1  0  0  0
 26 27  1  0  0  0
  3  5  1  0  0  0
  1 11  2  0  0  0
  5 10  2  0  0  0
  5  7  1  0  0  0
 11 10  1  0  0  0
  9  7  2  0  0  0
 10  6  1  0  0  0
  7  4  1  0  0  0
  6  8  2  0  0  0
  4  8  1  0  0  0
  8 13  1  0  0  0
 13 14  2  0  0  0
 13 20  1  0  0  0
 14 15  1  0  0  0
 20 18  2  0  0  0
 15 16  1  0  0  0
 15 17  2  0  0  0
 18 17  1  0  0  0
 18 19  1  0  0  0
 17 21  1  0  0  0
 21 22  1  0  0  0
 22 24  1  0  0  0
 23 24  1  0  0  0
  4 12  1  0  0  0
 23 25  1  0  0  0
M  END
> <minimizedAffinity>
-7.04401

$$$$
4MR6_1K0_A_505


 29 31  0  0  0  0  0  0  0  0999 V2000
   -6.8955   49.1844   36.1842 C   0  0  0  0  0  0  0  0  0  0  0  0
   -7.9108   50.0076   36.6203 C   0  0  0  0  0  0  0  0  0  0  0  0
   -8.7310   49.5759   37.6966 C   0  0  0  0  0  0  0  0  0  0  0  0
   -8.8846   46.6298   39.9301 N   0  0  0  0  0  0  0  0  0  0  0  0
   -8.4839   48.3354   38.3064 C   0  0  0  0  0  0  0  0  0  0  0  0
   -7.0659   46.3532   38.4939 N   0  0  0  0  0  0  0  0  0  0  0  0
   -9.3171   47.8207   39.3826 C   0  0  0  0  0  0  0  0  0  0  0  0
   -7.8067   45.9523   39.4835 C   0  0  0  0  0  0  0  0  0  0  0  0
  -10.3768   48.2715   39.8282 O   0  0  0  0  0  0  0  0  0  0  0  0
   -7.4014   47.5410   37.8539 C   0  0  0  0  0  0  0  0  0  0  0  0
   -6.6036   47.9507   36.7734 C   0  0  0  0  0  0  0  0  0  0  0  0
   -9.3898   46.2546   40.6871 H   0  0  0  0  0  0  0  0  0  0  0  0
   -7.5207   44.6434   40.1569 C   0  0  0  0  0  0  0  0  0  0  0  0
   -6.8067   43.6104   39.5398 C   0  0  0  0  0  0  0  0  0  0  0  0
   -6.4982   42.4128   40.2191 C   0  0  0  0  0  0  0  0  0  0  0  0
   -5.6624   41.3841   39.5065 C   0  0  0  0  0  0  0  0  0  0  0  0
   -6.9175   42.2757   41.5325 C   0  0  0  0  0  0  0  0  0  0  0  0
   -7.6216   43.2805   42.1624 C   0  0  0  0  0  0  0  0  0  0  0  0
   -8.0150   43.1584   43.6270 C   0  0  0  0  0  0  0  0  0  0  0  0
   -7.9330   44.4738   41.4836 C   0  0  0  0  0  0  0  0  0  0  0  0
   -6.5499   41.1093   42.2595 O   0  0  0  0  0  0  0  0  0  0  0  0
   -5.3236   41.3028   42.8647 C   0  0  0  0  0  0  0  0  0  0  0  0
   -3.6517   39.9844   41.7996 O   0  0  0  0  0  0  0  0  0  0  0  0
   -4.6569   39.8784   42.8119 C   0  0  0  0  0  0  0  0  0  0  0  0
   -3.1929   39.1345   41.7093 H   0  0  0  0  0  0  0  0  0  0  0  0
   -6.1390   49.5731   35.0862 O   0  0  0  0  0  0  0  0  0  0  0  0
   -4.9204   50.3036   35.2654 C   0  0  0  0  0  0  0  0  0  0  0  0
  -10.8731   50.6839   37.2788 C   0  0  0  0  0  0  0  0  0  0  0  0
   -9.7330   50.3658   38.1362 O   0  0  0  0  0  0  0  0  0  0  0  0
 28 29  1  0  0  0
 29  3  1  0  0  0
  2  3  2  0  0  0
  2  1  1  0  0  0
 26  1  1  0  0  0
 26 27  1  0  0  0
  3  5  1  0  0  0
  1 11  2  0  0  0
  5 10  2  0  0  0
  5  7  1  0  0  0
 11 10  1  0  0  0
  9  7  2  0  0  0
 10  6  1  0  0  0
  7  4  1  0  0  0
  6  8  2  0  0  0
  4  8  1  0  0  0
  8 13  1  0  0  0
 13 14  2  0  0  0
 13 20  1  0  0  0
 14 15  1  0  0  0
 20 18  2  0  0  0
 15 16  1  0  0  0
 15 17  2  0  0  0
 18 17  1  0  0  0
 18 19  1  0  0  0
 17 21  1  0  0  0
 21 22  1  0  0  0
 22 24  1  0  0  0
 23 24  1  0  0  0
  4 12  1  0  0  0
 23 25  1  0  0  0
M  END
> <minimizedAffinity>
-7.00836

$$$$
4MR6_1K0_A_505


 29 31  0  0  0  0  0  0  0  0999 V2000
   -7.8164   44.8344   39.8008 C   0  0  0  0  0  0  0  0  0  0  0  0
   -6.9922   43.7343   39.7053 C   0  0  0  0  0  0  0  0  0  0  0  0
   -6.7993   42.9187   40.8520 C   0  0  0  0  0  0  0  0  0  0  0  0
   -8.0604   42.8493   44.3299 N   0  0  0  0  0  0  0  0  0  0  0  0
   -7.4612   43.2333   42.0497 C   0  0  0  0  0  0  0  0  0  0  0  0
   -9.0800   44.6360   43.2277 N   0  0  0  0  0  0  0  0  0  0  0  0
   -7.2685   42.4615   43.2682 C   0  0  0  0  0  0  0  0  0  0  0  0
   -8.9150   43.8922   44.2804 C   0  0  0  0  0  0  0  0  0  0  0  0
   -6.4614   41.5546   43.4937 O   0  0  0  0  0  0  0  0  0  0  0  0
   -8.3337   44.3491   42.0902 C   0  0  0  0  0  0  0  0  0  0  0  0
   -8.5080   45.1739   40.9673 C   0  0  0  0  0  0  0  0  0  0  0  0
   -7.9983   42.3374   45.1686 H   0  0  0  0  0  0  0  0  0  0  0  0
   -9.6490   44.2086   45.5491 C   0  0  0  0  0  0  0  0  0  0  0  0
  -10.3747   45.3905   45.7336 C   0  0  0  0  0  0  0  0  0  0  0  0
  -11.1074   45.6346   46.9145 C   0  0  0  0  0  0  0  0  0  0  0  0
  -11.9205   46.8980   47.0005 C   0  0  0  0  0  0  0  0  0  0  0  0
  -11.1000   44.6654   47.9045 C   0  0  0  0  0  0  0  0  0  0  0  0
  -10.3931   43.4920   47.7451 C   0  0  0  0  0  0  0  0  0  0  0  0
  -10.4478   42.3979   48.8009 C   0  0  0  0  0  0  0  0  0  0  0  0
   -9.6588   43.2498   46.5687 C   0  0  0  0  0  0  0  0  0  0  0  0
  -11.8943   44.8578   49.0691 O   0  0  0  0  0  0  0  0  0  0  0  0
  -11.1787   45.5716   50.0104 C   0  0  0  0  0  0  0  0  0  0  0  0
  -10.4832   44.2084   51.8341 O   0  0  0  0  0  0  0  0  0  0  0  0
  -11.6281   44.9343   51.3772 C   0  0  0  0  0  0  0  0  0  0  0  0
  -10.6871   43.7834   52.6819 H   0  0  0  0  0  0  0  0  0  0  0  0
   -7.9493   45.6728   38.7015 O   0  0  0  0  0  0  0  0  0  0  0  0
   -6.8436   46.4654   38.2543 C   0  0  0  0  0  0  0  0  0  0  0  0
   -5.5796   41.2917   39.4895 C   0  0  0  0  0  0  0  0  0  0  0  0
   -5.9932   41.8388   40.7802 O   0  0  0  0  0  0  0  0  0  0  0  0
 28 29  1  0  0  0
 29  3  1  0  0  0
  2  3  2  0  0  0
  2  1  1  0  0  0
 26  1  1  0  0  0
 26 27  1  0  0  0
  3  5  1  0  0  0
  1 11  2  0  0  0
  5 10  2  0  0  0
  5  7  1  0  0  0
 11 10  1  0  0  0
  9  7  2  0  0  0
 10  6  1  0  0  0
  7  4  1  0  0  0
  6  8  2  0  0  0
  4  8  1  0  0  0
  8 13  1  0  0  0
 13 14  2  0  0  0
 13 20  1  0  0  0
 14 15  1  0  0  0
 20 18  2  0  0  0
 15 16  1  0  0  0
 15 17  2  0  0  0
 18 17  1  0  0  0
 18 19  1  0  0  0
 17 21  1  0  0  0
 21 22  1  0  0  0
 22 24  1  0  0  0
 23 24  1  0  0  0
  4 12  1  0  0  0
 23 25  1  0  0  0
M  END
> <minimizedAffinity>
-6.98241

$$$$
4MR6_1K0_A_505


 29 31  0  0  0  0  0  0  0  0999 V2000
  -10.5798   44.3596   47.1039 C   0  0  0  0  0  0  0  0  0  0  0  0
  -11.2439   45.3954   46.4835 C   0  0  0  0  0  0  0  0  0  0  0  0
  -10.9214   45.7092   45.1363 C   0  0  0  0  0  0  0  0  0  0  0  0
   -8.6513   44.3614   42.5438 N   0  0  0  0  0  0  0  0  0  0  0  0
   -9.9523   44.9529   44.4579 C   0  0  0  0  0  0  0  0  0  0  0  0
   -8.4332   43.0377   44.4536 N   0  0  0  0  0  0  0  0  0  0  0  0
   -9.5485   45.2549   43.0928 C   0  0  0  0  0  0  0  0  0  0  0  0
   -8.1359   43.3130   43.2189 C   0  0  0  0  0  0  0  0  0  0  0  0
   -9.8535   46.2223   42.3886 O   0  0  0  0  0  0  0  0  0  0  0  0
   -9.3259   43.8687   45.1212 C   0  0  0  0  0  0  0  0  0  0  0  0
   -9.6218   43.5702   46.4610 C   0  0  0  0  0  0  0  0  0  0  0  0
   -8.3724   44.4962   41.6094 H   0  0  0  0  0  0  0  0  0  0  0  0
   -7.1261   42.4831   42.4840 C   0  0  0  0  0  0  0  0  0  0  0  0
   -6.2359   41.6190   43.1307 C   0  0  0  0  0  0  0  0  0  0  0  0
   -5.3381   40.8031   42.4101 C   0  0  0  0  0  0  0  0  0  0  0  0
   -4.4671   39.8481   43.1808 C   0  0  0  0  0  0  0  0  0  0  0  0
   -5.3557   40.8696   41.0264 C   0  0  0  0  0  0  0  0  0  0  0  0
   -6.2249   41.7129   40.3664 C   0  0  0  0  0  0  0  0  0  0  0  0
   -6.2946   41.7285   38.8466 C   0  0  0  0  0  0  0  0  0  0  0  0
   -7.1180   42.5298   41.0852 C   0  0  0  0  0  0  0  0  0  0  0  0
   -4.5136   39.9995   40.2796 O   0  0  0  0  0  0  0  0  0  0  0  0
   -3.5329   40.7326   39.6405 C   0  0  0  0  0  0  0  0  0  0  0  0
   -2.6209   38.8050   40.6989 O   0  0  0  0  0  0  0  0  0  0  0  0
   -2.1983   40.0195   40.0721 C   0  0  0  0  0  0  0  0  0  0  0  0
   -1.8433   38.3062   40.9946 H   0  0  0  0  0  0  0  0  0  0  0  0
  -10.8425   44.0980   48.4424 O   0  0  0  0  0  0  0  0  0  0  0  0
   -9.9836   43.2351   49.1963 C   0  0  0  0  0  0  0  0  0  0  0  0
  -11.5035   48.0847   45.0385 C   0  0  0  0  0  0  0  0  0  0  0  0
  -11.5578   46.7223   44.5119 O   0  0  0  0  0  0  0  0  0  0  0  0
 28 29  1  0  0  0
 29  3  1  0  0  0
  2  3  2  0  0  0
  2  1  1  0  0  0
 26  1  1  0  0  0
 26 27  1  0  0  0
  3  5  1  0  0  0
  1 11  2  0  0  0
  5 10  2  0  0  0
  5  7  1  0  0  0
 11 10  1  0  0  0
  9  7  2  0  0  0
 10  6  1  0  0  0
  7  4  1  0  0  0
  6  8  2  0  0  0
  4  8  1  0  0  0
  8 13  1  0  0  0
 13 14  2  0  0  0
 13 20  1  0  0  0
 14 15  1  0  0  0
 20 18  2  0  0  0
 15 16  1  0  0  0
 15 17  2  0  0  0
 18 17  1  0  0  0
 18 19  1  0  0  0
 17 21  1  0  0  0
 21 22  1  0  0  0
 22 24  1  0  0  0
 23 24  1  0  0  0
  4 12  1  0  0  0
 23 25  1  0  0  0
M  END
> <minimizedAffinity>
-6.92100

$$$$
4MR6_1K0_A_505


 29 31  0  0  0  0  0  0  0  0999 V2000
   -6.2370   41.7291   40.7905 C   0  0  0  0  0  0  0  0  0  0  0  0
   -6.3221   42.7243   39.8412 C   0  0  0  0  0  0  0  0  0  0  0  0
   -7.1284   43.8624   40.1093 C   0  0  0  0  0  0  0  0  0  0  0  0
   -9.1975   45.0728   42.9280 N   0  0  0  0  0  0  0  0  0  0  0  0
   -7.8055   43.9630   41.3352 C   0  0  0  0  0  0  0  0  0  0  0  0
   -8.2303   43.0453   43.5607 N   0  0  0  0  0  0  0  0  0  0  0  0
   -8.6805   45.0828   41.6484 C   0  0  0  0  0  0  0  0  0  0  0  0
   -8.9653   44.0856   43.8179 C   0  0  0  0  0  0  0  0  0  0  0  0
   -9.0626   45.9990   40.9140 O   0  0  0  0  0  0  0  0  0  0  0  0
   -7.6544   42.9362   42.2999 C   0  0  0  0  0  0  0  0  0  0  0  0
   -6.8795   41.7967   42.0302 C   0  0  0  0  0  0  0  0  0  0  0  0
   -9.7663   45.8265   43.2064 H   0  0  0  0  0  0  0  0  0  0  0  0
   -9.6602   44.2088   45.1409 C   0  0  0  0  0  0  0  0  0  0  0  0
   -9.5973   43.2195   46.1283 C   0  0  0  0  0  0  0  0  0  0  0  0
  -10.2095   43.3887   47.3883 C   0  0  0  0  0  0  0  0  0  0  0  0
  -10.0302   42.3069   48.4189 C   0  0  0  0  0  0  0  0  0  0  0  0
  -10.8823   44.5738   47.6380 C   0  0  0  0  0  0  0  0  0  0  0  0
  -10.9570   45.5640   46.6809 C   0  0  0  0  0  0  0  0  0  0  0  0
  -11.6312   46.8937   46.9841 C   0  0  0  0  0  0  0  0  0  0  0  0
  -10.3497   45.3938   45.4224 C   0  0  0  0  0  0  0  0  0  0  0  0
  -11.4396   44.7961   48.9280 O   0  0  0  0  0  0  0  0  0  0  0  0
  -12.7302   44.3059   48.9705 C   0  0  0  0  0  0  0  0  0  0  0  0
  -11.6402   44.1269   51.0795 O   0  0  0  0  0  0  0  0  0  0  0  0
  -12.8894   43.8138   50.4567 C   0  0  0  0  0  0  0  0  0  0  0  0
  -11.6636   43.8493   52.0087 H   0  0  0  0  0  0  0  0  0  0  0  0
   -5.5071   40.5836   40.5006 O   0  0  0  0  0  0  0  0  0  0  0  0
   -4.4172   40.1849   41.3397 C   0  0  0  0  0  0  0  0  0  0  0  0
   -6.1624   45.8331   39.0257 C   0  0  0  0  0  0  0  0  0  0  0  0
   -7.2279   44.8464   39.1911 O   0  0  0  0  0  0  0  0  0  0  0  0
 28 29  1  0  0  0
 29  3  1  0  0  0
  2  3  2  0  0  0
  2  1  1  0  0  0
 26  1  1  0  0  0
 26 27  1  0  0  0
  3  5  1  0  0  0
  1 11  2  0  0  0
  5 10  2  0  0  0
  5  7  1  0  0  0
 11 10  1  0  0  0
  9  7  2  0  0  0
 10  6  1  0  0  0
  7  4  1  0  0  0
  6  8  2  0  0  0
  4  8  1  0  0  0
  8 13  1  0  0  0
 13 14  2  0  0  0
 13 20  1  0  0  0
 14 15  1  0  0  0
 20 18  2  0  0  0
 15 16  1  0  0  0
 15 17  2  0  0  0
 18 17  1  0  0  0
 18 19  1  0  0  0
 17 21  1  0  0  0
 21 22  1  0  0  0
 22 24  1  0  0  0
 23 24  1  0  0  0
  4 12  1  0  0  0
 23 25  1  0  0  0
M  END
> <minimizedAffinity>
-6.87737

$$$$
4MR6_1K0_A_505


 29 31  0  0  0  0  0  0  0  0999 V2000
   -7.8218   49.5415   37.5676 C   0  0  0  0  0  0  0  0  0  0  0  0
   -9.0473   49.9726   38.0269 C   0  0  0  0  0  0  0  0  0  0  0  0
   -9.7711   49.1491   38.9299 C   0  0  0  0  0  0  0  0  0  0  0  0
   -9.2186   45.9075   40.6264 N   0  0  0  0  0  0  0  0  0  0  0  0
   -9.2220   47.9274   39.3512 C   0  0  0  0  0  0  0  0  0  0  0  0
   -7.3213   46.3902   39.3560 N   0  0  0  0  0  0  0  0  0  0  0  0
   -9.9352   47.0217   40.2394 C   0  0  0  0  0  0  0  0  0  0  0  0
   -7.9729   45.6328   40.1869 C   0  0  0  0  0  0  0  0  0  0  0  0
  -11.1004   47.0868   40.6428 O   0  0  0  0  0  0  0  0  0  0  0  0
   -7.9391   47.5443   38.8874 C   0  0  0  0  0  0  0  0  0  0  0  0
   -7.2304   48.3419   37.9745 C   0  0  0  0  0  0  0  0  0  0  0  0
   -9.6391   45.2793   41.2572 H   0  0  0  0  0  0  0  0  0  0  0  0
   -7.3708   44.3449   40.6635 C   0  0  0  0  0  0  0  0  0  0  0  0
   -7.2608   44.0118   42.0180 C   0  0  0  0  0  0  0  0  0  0  0  0
   -6.7468   42.7661   42.4364 C   0  0  0  0  0  0  0  0  0  0  0  0
   -6.7326   42.4593   43.9096 C   0  0  0  0  0  0  0  0  0  0  0  0
   -6.3495   41.8600   41.4665 C   0  0  0  0  0  0  0  0  0  0  0  0
   -6.4493   42.1652   40.1252 C   0  0  0  0  0  0  0  0  0  0  0  0
   -6.0833   41.1405   39.0619 C   0  0  0  0  0  0  0  0  0  0  0  0
   -6.9585   43.4094   39.7076 C   0  0  0  0  0  0  0  0  0  0  0  0
   -5.9014   40.5699   41.8649 O   0  0  0  0  0  0  0  0  0  0  0  0
   -4.5419   40.6012   42.1068 C   0  0  0  0  0  0  0  0  0  0  0  0
   -2.8224   39.1280   41.3713 O   0  0  0  0  0  0  0  0  0  0  0  0
   -3.9270   39.8751   40.8534 C   0  0  0  0  0  0  0  0  0  0  0  0
   -2.3889   38.6485   40.6481 H   0  0  0  0  0  0  0  0  0  0  0  0
   -7.1460   50.3116   36.6300 O   0  0  0  0  0  0  0  0  0  0  0  0
   -6.5954   49.7072   35.4542 C   0  0  0  0  0  0  0  0  0  0  0  0
  -12.1204   49.6761   38.4894 C   0  0  0  0  0  0  0  0  0  0  0  0
  -10.9748   49.5514   39.3885 O   0  0  0  0  0  0  0  0  0  0  0  0
 28 29  1  0  0  0
 29  3  1  0  0  0
  2  3  2  0  0  0
  2  1  1  0  0  0
 26  1  1  0  0  0
 26 27  1  0  0  0
  3  5  1  0  0  0
  1 11  2  0  0  0
  5 10  2  0  0  0
  5  7  1  0  0  0
 11 10  1  0  0  0
  9  7  2  0  0  0
 10  6  1  0  0  0
  7  4  1  0  0  0
  6  8  2  0  0  0
  4  8  1  0  0  0
  8 13  1  0  0  0
 13 14  2  0  0  0
 13 20  1  0  0  0
 14 15  1  0  0  0
 20 18  2  0  0  0
 15 16  1  0  0  0
 15 17  2  0  0  0
 18 17  1  0  0  0
 18 19  1  0  0  0
 17 21  1  0  0  0
 21 22  1  0  0  0
 22 24  1  0  0  0
 23 24  1  0  0  0
  4 12  1  0  0  0
 23 25  1  0  0  0
M  END
> <minimizedAffinity>
-6.87450

$$$$
4MR6_1K0_A_505


 29 31  0  0  0  0  0  0  0  0999 V2000
   -7.8291   44.8376   39.7886 C   0  0  0  0  0  0  0  0  0  0  0  0
   -6.9955   43.7435   39.7053 C   0  0  0  0  0  0  0  0  0  0  0  0
   -6.8123   42.9302   40.8553 C   0  0  0  0  0  0  0  0  0  0  0  0
   -8.1205   42.8541   44.3156 N   0  0  0  0  0  0  0  0  0  0  0  0
   -7.4929   43.2408   42.0435 C   0  0  0  0  0  0  0  0  0  0  0  0
   -9.1381   44.6323   43.1979 N   0  0  0  0  0  0  0  0  0  0  0  0
   -7.3112   42.4714   43.2652 C   0  0  0  0  0  0  0  0  0  0  0  0
   -8.9820   43.8905   44.2535 C   0  0  0  0  0  0  0  0  0  0  0  0
   -6.5007   41.5706   43.5026 O   0  0  0  0  0  0  0  0  0  0  0  0
   -8.3742   44.3501   42.0711 C   0  0  0  0  0  0  0  0  0  0  0  0
   -8.5391   45.1728   40.9452 C   0  0  0  0  0  0  0  0  0  0  0  0
   -8.0662   42.3433   45.1555 H   0  0  0  0  0  0  0  0  0  0  0  0
   -9.7358   44.2024   45.5117 C   0  0  0  0  0  0  0  0  0  0  0  0
   -9.7808   43.3330   46.6069 C   0  0  0  0  0  0  0  0  0  0  0  0
  -10.4461   43.6789   47.8022 C   0  0  0  0  0  0  0  0  0  0  0  0
  -10.3825   42.7168   48.9576 C   0  0  0  0  0  0  0  0  0  0  0  0
  -11.0616   44.9179   47.8765 C   0  0  0  0  0  0  0  0  0  0  0  0
  -11.0299   45.7924   46.8105 C   0  0  0  0  0  0  0  0  0  0  0  0
  -11.6413   47.1812   46.9214 C   0  0  0  0  0  0  0  0  0  0  0  0
  -10.3695   45.4459   45.6165 C   0  0  0  0  0  0  0  0  0  0  0  0
  -11.6708   45.3173   49.0986 O   0  0  0  0  0  0  0  0  0  0  0  0
  -12.9977   44.9341   49.1067 C   0  0  0  0  0  0  0  0  0  0  0  0
  -14.8918   46.3759   49.0678 O   0  0  0  0  0  0  0  0  0  0  0  0
  -13.7200   46.1197   49.8474 C   0  0  0  0  0  0  0  0  0  0  0  0
  -15.3937   47.1032   49.4678 H   0  0  0  0  0  0  0  0  0  0  0  0
   -7.9530   45.6741   38.6869 O   0  0  0  0  0  0  0  0  0  0  0  0
   -6.8619   46.5085   38.2817 C   0  0  0  0  0  0  0  0  0  0  0  0
   -5.5993   41.2830   39.5113 C   0  0  0  0  0  0  0  0  0  0  0  0
   -5.9973   41.8563   40.7955 O   0  0  0  0  0  0  0  0  0  0  0  0
 28 29  1  0  0  0
 29  3  1  0  0  0
  2  3  2  0  0  0
  2  1  1  0  0  0
 26  1  1  0  0  0
 26 27  1  0  0  0
  3  5  1  0  0  0
  1 11  2  0  0  0
  5 10  2  0  0  0
  5  7  1  0  0  0
 11 10  1  0  0  0
  9  7  2  0  0  0
 10  6  1  0  0  0
  7  4  1  0  0  0
  6  8  2  0  0  0
  4  8  1  0  0  0
  8 13  1  0  0  0
 13 14  2  0  0  0
 13 20  1  0  0  0
 14 15  1  0  0  0
 20 18  2  0  0  0
 15 16  1  0  0  0
 15 17  2  0  0  0
 18 17  1  0  0  0
 18 19  1  0  0  0
 17 21  1  0  0  0
 21 22  1  0  0  0
 22 24  1  0  0  0
 23 24  1  0  0  0
  4 12  1  0  0  0
 23 25  1  0  0  0
M  END
> <minimizedAffinity>
-6.79702

$$$$
4MR6_1K0_A_505


 29 31  0  0  0  0  0  0  0  0999 V2000
   -7.4625   45.2055   39.8431 C   0  0  0  0  0  0  0  0  0  0  0  0
   -6.7504   44.0363   39.6853 C   0  0  0  0  0  0  0  0  0  0  0  0
   -6.7168   43.1026   40.7551 C   0  0  0  0  0  0  0  0  0  0  0  0
   -8.2017   42.8499   44.1348 N   0  0  0  0  0  0  0  0  0  0  0  0
   -7.4195   43.3753   41.9398 C   0  0  0  0  0  0  0  0  0  0  0  0
   -8.9597   44.8299   43.1593 N   0  0  0  0  0  0  0  0  0  0  0  0
   -7.3862   42.4784   43.0852 C   0  0  0  0  0  0  0  0  0  0  0  0
   -8.9403   43.9790   44.1412 C   0  0  0  0  0  0  0  0  0  0  0  0
   -6.6923   41.4728   43.2645 O   0  0  0  0  0  0  0  0  0  0  0  0
   -8.1743   44.5701   42.0418 C   0  0  0  0  0  0  0  0  0  0  0  0
   -8.1901   45.5088   40.9976 C   0  0  0  0  0  0  0  0  0  0  0  0
   -8.2469   42.2593   44.9212 H   0  0  0  0  0  0  0  0  0  0  0  0
   -9.7191   44.2546   45.3926 C   0  0  0  0  0  0  0  0  0  0  0  0
   -9.8563   43.3200   46.4247 C   0  0  0  0  0  0  0  0  0  0  0  0
  -10.5426   43.6281   47.6184 C   0  0  0  0  0  0  0  0  0  0  0  0
  -10.5793   42.5905   48.7077 C   0  0  0  0  0  0  0  0  0  0  0  0
  -11.0845   44.8957   47.7563 C   0  0  0  0  0  0  0  0  0  0  0  0
  -10.9613   45.8343   46.7532 C   0  0  0  0  0  0  0  0  0  0  0  0
  -11.4913   47.2484   46.9378 C   0  0  0  0  0  0  0  0  0  0  0  0
  -10.2800   45.5259   45.5606 C   0  0  0  0  0  0  0  0  0  0  0  0
  -11.7125   45.2518   48.9822 O   0  0  0  0  0  0  0  0  0  0  0  0
  -10.7594   45.6615   49.8940 C   0  0  0  0  0  0  0  0  0  0  0  0
  -11.0178   46.5777   52.0761 O   0  0  0  0  0  0  0  0  0  0  0  0
  -11.5071   46.7549   50.7435 C   0  0  0  0  0  0  0  0  0  0  0  0
  -11.4388   47.2245   52.6638 H   0  0  0  0  0  0  0  0  0  0  0  0
   -7.4373   46.1509   38.8260 O   0  0  0  0  0  0  0  0  0  0  0  0
   -6.3791   47.1131   38.7544 C   0  0  0  0  0  0  0  0  0  0  0  0
   -5.7154   41.4071   39.3014 C   0  0  0  0  0  0  0  0  0  0  0  0
   -6.0221   41.9533   40.6219 O   0  0  0  0  0  0  0  0  0  0  0  0
 28 29  1  0  0  0
 29  3  1  0  0  0
  2  3  2  0  0  0
  2  1  1  0  0  0
 26  1  1  0  0  0
 26 27  1  0  0  0
  3  5  1  0  0  0
  1 11  2  0  0  0
  5 10  2  0  0  0
  5  7  1  0  0  0
 11 10  1  0  0  0
  9  7  2  0  0  0
 10  6  1  0  0  0
  7  4  1  0  0  0
  6  8  2  0  0  0
  4  8  1  0  0  0
  8 13  1  0  0  0
 13 14  2  0  0  0
 13 20  1  0  0  0
 14 15  1  0  0  0
 20 18  2  0  0  0
 15 16  1  0  0  0
 15 17  2  0  0  0
 18 17  1  0  0  0
 18 19  1  0  0  0
 17 21  1  0  0  0
 21 22  1  0  0  0
 22 24  1  0  0  0
 23 24  1  0  0  0
  4 12  1  0  0  0
 23 25  1  0  0  0
M  END
> <minimizedAffinity>
-6.60778

$$$$
4MR6_1K0_A_505


 29 31  0  0  0  0  0  0  0  0999 V2000
  -11.2655   43.6045   48.6851 C   0  0  0  0  0  0  0  0  0  0  0  0
  -11.8503   44.8503   48.7539 C   0  0  0  0  0  0  0  0  0  0  0  0
  -11.6136   45.7792   47.7059 C   0  0  0  0  0  0  0  0  0  0  0  0
   -9.7670   45.7835   44.4994 N   0  0  0  0  0  0  0  0  0  0  0  0
  -10.8092   45.4095   46.6160 C   0  0  0  0  0  0  0  0  0  0  0  0
   -9.5430   43.6679   45.4589 N   0  0  0  0  0  0  0  0  0  0  0  0
  -10.4951   46.3323   45.5356 C   0  0  0  0  0  0  0  0  0  0  0  0
   -9.3257   44.5086   44.4920 C   0  0  0  0  0  0  0  0  0  0  0  0
  -10.7409   47.5393   45.4488 O   0  0  0  0  0  0  0  0  0  0  0  0
  -10.2637   44.1027   46.5655 C   0  0  0  0  0  0  0  0  0  0  0  0
  -10.4729   43.1891   47.6111 C   0  0  0  0  0  0  0  0  0  0  0  0
   -9.5583   46.3531   43.7240 H   0  0  0  0  0  0  0  0  0  0  0  0
   -8.4952   44.1013   43.3118 C   0  0  0  0  0  0  0  0  0  0  0  0
   -8.6303   44.6866   42.0482 C   0  0  0  0  0  0  0  0  0  0  0  0
   -7.7929   44.3276   40.9708 C   0  0  0  0  0  0  0  0  0  0  0  0
   -7.9567   45.0594   39.6661 C   0  0  0  0  0  0  0  0  0  0  0  0
   -6.8140   43.3719   41.1896 C   0  0  0  0  0  0  0  0  0  0  0  0
   -6.6608   42.7817   42.4267 C   0  0  0  0  0  0  0  0  0  0  0  0
   -5.5375   41.7885   42.6843 C   0  0  0  0  0  0  0  0  0  0  0  0
   -7.4987   43.1368   43.5008 C   0  0  0  0  0  0  0  0  0  0  0  0
   -5.9098   43.0523   40.1389 O   0  0  0  0  0  0  0  0  0  0  0  0
   -6.2951   41.8723   39.5331 C   0  0  0  0  0  0  0  0  0  0  0  0
   -4.3341   41.9160   38.1838 O   0  0  0  0  0  0  0  0  0  0  0  0
   -4.9305   41.1483   39.2334 C   0  0  0  0  0  0  0  0  0  0  0  0
   -3.4796   41.5253   37.9429 H   0  0  0  0  0  0  0  0  0  0  0  0
  -11.4375   42.7212   49.7430 O   0  0  0  0  0  0  0  0  0  0  0  0
  -10.3075   42.0802   50.3455 C   0  0  0  0  0  0  0  0  0  0  0  0
  -11.7482   47.9887   48.7505 C   0  0  0  0  0  0  0  0  0  0  0  0
  -12.1742   47.0058   47.7562 O   0  0  0  0  0  0  0  0  0  0  0  0
 28 29  1  0  0  0
 29  3  1  0  0  0
  2  3  2  0  0  0
  2  1  1  0  0  0
 26  1  1  0  0  0
 26 27  1  0  0  0
  3  5  1  0  0  0
  1 11  2  0  0  0
  5 10  2  0  0  0
  5  7  1  0  0  0
 11 10  1  0  0  0
  9  7  2  0  0  0
 10  6  1  0  0  0
  7  4  1  0  0  0
  6  8  2  0  0  0
  4  8  1  0  0  0
  8 13  1  0  0  0
 13 14  2  0  0  0
 13 20  1  0  0  0
 14 15  1  0  0  0
 20 18  2  0  0  0
 15 16  1  0  0  0
 15 17  2  0  0  0
 18 17  1  0  0  0
 18 19  1  0  0  0
 17 21  1  0  0  0
 21 22  1  0  0  0
 22 24  1  0  0  0
 23 24  1  0  0  0
  4 12  1  0  0  0
 23 25  1  0  0  0
M  END
> <minimizedAffinity>
-6.48044

$$$$
