3O4K_LTC_C_172


 61 62  0  0  0  0  0  0  0  0999 V2000
   20.2685   14.6644  -25.7759 C   0  0  0  0  0  0  0  0  0  0  0  0
   18.9605   14.9495  -25.1948 O   0  0  0  0  0  0  0  0  0  0  0  0
   21.3805   15.6391  -25.3023 C   0  0  0  0  0  0  0  0  0  0  0  0
   20.9029   16.6930  -24.2665 C   0  0  0  0  0  0  0  0  0  0  0  0
   19.4800   16.9232  -22.2106 O   0  0  0  0  0  0  0  0  0  0  0  0
   20.0279   16.0077  -23.1818 C   0  0  0  0  0  0  0  0  0  0  0  0
   22.1010   16.2271  -26.4185 O   0  0  0  0  0  0  0  0  0  0  0  0
   18.8742   15.1446  -23.7520 C   0  0  0  0  0  0  0  0  0  0  0  0
   20.1921   17.4708  -21.8447 H   0  0  0  0  0  0  0  0  0  0  0  0
   21.4983   16.7850  -26.9346 H   0  0  0  0  0  0  0  0  0  0  0  0
   21.3909   12.7184  -26.6647 O   0  0  0  0  0  0  0  0  0  0  0  0
   20.6843   13.2155  -25.5169 C   0  0  0  0  0  0  0  0  0  0  0  0
   21.6577   11.7992  -26.5071 H   0  0  0  0  0  0  0  0  0  0  0  0
   17.5656   15.6398  -23.3552 O   0  0  0  0  0  0  0  0  0  0  0  0
   16.5959   15.9247  -24.3907 C   0  0  0  0  0  0  0  0  0  0  0  0
   16.6758   17.3434  -24.9908 C   0  0  0  0  0  0  0  0  0  0  0  0
   15.3594   17.8004  -25.6329 C   0  0  0  0  0  0  0  0  0  0  0  0
   15.5818   18.8104  -26.6449 O   0  0  0  0  0  0  0  0  0  0  0  0
   15.0336   20.8453  -27.7348 O   0  0  0  0  0  0  0  0  0  0  0  0
   14.7376   20.0162  -26.8581 C   0  0  0  0  0  0  0  0  0  0  0  0
   13.4951   20.2081  -25.9848 C   0  0  0  0  0  0  0  0  0  0  0  0
   12.5898   21.3202  -26.5134 C   0  0  0  0  0  0  0  0  0  0  0  0
   11.1122   21.1025  -26.1826 C   0  0  0  0  0  0  0  0  0  0  0  0
   10.8241   21.4426  -24.7132 C   0  0  0  0  0  0  0  0  0  0  0  0
    9.3404   21.4612  -24.3363 C   0  0  0  0  0  0  0  0  0  0  0  0
    8.4288   21.5970  -25.5468 C   0  0  0  0  0  0  0  0  0  0  0  0
   17.1107   18.2761  -23.9800 O   0  0  0  0  0  0  0  0  0  0  0  0
   15.4581   18.4432  -22.2846 O   0  0  0  0  0  0  0  0  0  0  0  0
   16.1151   19.0130  -23.1527 C   0  0  0  0  0  0  0  0  0  0  0  0
   15.9145   20.5076  -23.3701 C   0  0  0  0  0  0  0  0  0  0  0  0
   14.9749   21.0674  -22.2971 C   0  0  0  0  0  0  0  0  0  0  0  0
   15.4972   22.3832  -21.7191 C   0  0  0  0  0  0  0  0  0  0  0  0
   15.9763   22.2024  -20.2803 C   0  0  0  0  0  0  0  0  0  0  0  0
   15.8053   20.7850  -19.7132 C   0  0  0  0  0  0  0  0  0  0  0  0
   15.4494   22.0717  -17.4511 C   0  0  0  0  0  0  0  0  0  0  0  0
   15.8000   20.7917  -18.1845 C   0  0  0  0  0  0  0  0  0  0  0  0
   14.8966   21.8757  -16.0254 C   0  0  0  0  0  0  0  0  0  0  0  0
   13.5631   22.5707  -15.6698 C   0  0  0  0  0  0  0  0  0  0  0  0
   13.6189   24.0873  -15.3929 C   0  0  0  0  0  0  0  0  0  0  0  0
   12.2866   24.6485  -14.8509 C   0  0  0  0  0  0  0  0  0  0  0  0
   12.4224   25.8647  -13.9225 C   0  0  0  0  0  0  0  0  0  0  0  0
   11.3573   24.4740  -12.0510 C   0  0  0  0  0  0  0  0  0  0  0  0
   11.4580   25.8425  -12.7264 C   0  0  0  0  0  0  0  0  0  0  0  0
   22.0782   17.4266  -23.8122 O   0  0  0  0  0  0  0  0  0  0  0  0
   24.3314   19.5617  -25.7245 C   0  0  0  0  0  0  0  0  0  0  0  0
   23.8329   18.4979  -24.8971 O   0  0  0  0  0  0  0  0  0  0  0  0
   23.4285   20.7925  -25.7419 C   0  0  0  0  0  0  0  0  0  0  0  0
   24.0842   21.8856  -26.4462 N   0  0  0  0  0  0  0  0  0  0  0  0
   23.9859   21.9679  -23.6693 O   0  0  0  0  0  0  0  0  0  0  0  0
   22.9500   21.2063  -24.3346 C   0  0  0  0  0  0  0  0  0  0  0  0
   22.4052   20.0164  -23.4971 C   0  0  0  0  0  0  0  0  0  0  0  0
   22.5185   18.6975  -24.3602 C   0  0  0  0  0  0  0  0  0  0  0  0
   25.7250   20.1378  -25.4630 C   0  0  0  0  0  0  0  0  0  0  0  0
   24.9365   22.1468  -25.9504 H   0  0  0  0  0  0  0  0  0  0  0  0
   23.4560   22.6880  -26.4886 H   0  0  0  0  0  0  0  0  0  0  0  0
   24.2774   22.6906  -24.2468 H   0  0  0  0  0  0  0  0  0  0  0  0
   21.0551   20.2746  -22.9201 N   0  0  0  0  0  0  0  0  0  0  0  0
   20.4319   19.8986  -21.7514 C   0  0  0  0  0  0  0  0  0  0  0  0
   20.8421   19.1410  -20.8765 O   0  0  0  0  0  0  0  0  0  0  0  0
   19.1408   20.6210  -21.4115 C   0  0  0  0  0  0  0  0  0  0  0  0
   20.4877   20.8338  -23.4986 H   0  0  0  0  0  0  0  0  0  0  0  0
  1  2  1  0  0  0
  1  3  1  0  0  0
  1 12  1  0  0  0
  2  8  1  0  0  0
  3  4  1  0  0  0
  3  7  1  0  0  0
 44  4  1  0  0  0
 44 52  1  0  0  0
  4  6  1  0  0  0
  5  6  1  0  0  0
  6  8  1  0  0  0
  8 14  1  0  0  0
 11 12  1  0  0  0
 28 29  2  0  0  0
 27 29  1  0  0  0
 27 16  1  0  0  0
 42 43  1  0  0  0
 14 15  1  0  0  0
 43 41  1  0  0  0
 18 17  1  0  0  0
 18 20  1  0  0  0
 41 40  1  0  0  0
 19 20  2  0  0  0
 40 39  1  0  0  0
 39 38  1  0  0  0
 38 37  1  0  0  0
 37 35  1  0  0  0
 35 36  2  0  0  0
 36 34  1  0  0  0
 34 33  1  0  0  0
 33 32  1  0  0  0
 32 31  1  0  0  0
 31 30  1  0  0  0
 30 29  1  0  0  0
 16 15  1  0  0  0
 16 17  1  0  0  0
 20 21  1  0  0  0
 21 22  1  0  0  0
 22 23  1  0  0  0
 23 24  1  0  0  0
 24 25  1  0  0  0
 25 26  1  0  0  0
 45 46  1  0  0  0
 45 47  1  0  0  0
 45 53  1  0  0  0
 46 52  1  0  0  0
 47 48  1  0  0  0
 47 50  1  0  0  0
 49 50  1  0  0  0
 50 51  1  0  0  0
 51 57  1  0  0  0
 51 52  1  0  0  0
 57 58  1  0  0  0
 58 59  2  0  0  0
 58 60  1  0  0  0
  5  9  1  0  0  0
  7 10  1  0  0  0
 11 13  1  0  0  0
 48 54  1  0  0  0
 48 55  1  0  0  0
 49 56  1  0  0  0
 57 61  1  0  0  0
M  END
> <minimizedAffinity>
-8.61575

$$$$
3O4K_LTC_C_172


 61 62  0  0  0  0  0  0  0  0999 V2000
   20.1118   14.5217  -26.0163 C   0  0  0  0  0  0  0  0  0  0  0  0
   18.8774   15.0106  -25.4106 O   0  0  0  0  0  0  0  0  0  0  0  0
   21.3618   15.3593  -25.6329 C   0  0  0  0  0  0  0  0  0  0  0  0
   21.0701   16.5192  -24.6422 C   0  0  0  0  0  0  0  0  0  0  0  0
   19.7718   17.0437  -22.5581 O   0  0  0  0  0  0  0  0  0  0  0  0
   20.1542   16.0146  -23.4942 C   0  0  0  0  0  0  0  0  0  0  0  0
   22.1105   15.7871  -26.8022 O   0  0  0  0  0  0  0  0  0  0  0  0
   18.8742   15.2882  -23.9788 C   0  0  0  0  0  0  0  0  0  0  0  0
   20.5645   17.5074  -22.2458 H   0  0  0  0  0  0  0  0  0  0  0  0
   21.5681   16.3949  -27.3289 H   0  0  0  0  0  0  0  0  0  0  0  0
   21.1477   12.9449  -24.5073 O   0  0  0  0  0  0  0  0  0  0  0  0
   20.3399   13.0448  -25.6910 C   0  0  0  0  0  0  0  0  0  0  0  0
   21.2963   12.0101  -24.2952 H   0  0  0  0  0  0  0  0  0  0  0  0
   17.6599   15.9756  -23.5686 O   0  0  0  0  0  0  0  0  0  0  0  0
   16.6589   16.2608  -24.5738 C   0  0  0  0  0  0  0  0  0  0  0  0
   15.8711   17.5698  -24.3611 C   0  0  0  0  0  0  0  0  0  0  0  0
   16.0858   18.1825  -22.9709 C   0  0  0  0  0  0  0  0  0  0  0  0
   15.0846   19.1823  -22.6680 O   0  0  0  0  0  0  0  0  0  0  0  0
   15.8019   21.2806  -23.5115 O   0  0  0  0  0  0  0  0  0  0  0  0
   15.3347   20.6438  -22.5523 C   0  0  0  0  0  0  0  0  0  0  0  0
   14.9959   21.3461  -21.2351 C   0  0  0  0  0  0  0  0  0  0  0  0
   16.1542   22.2057  -20.7300 C   0  0  0  0  0  0  0  0  0  0  0  0
   16.6969   21.7491  -19.3746 C   0  0  0  0  0  0  0  0  0  0  0  0
   15.7213   20.7792  -18.6926 C   0  0  0  0  0  0  0  0  0  0  0  0
   15.0376   21.3304  -17.4386 C   0  0  0  0  0  0  0  0  0  0  0  0
   16.0236   21.9346  -16.4499 C   0  0  0  0  0  0  0  0  0  0  0  0
   16.2043   18.5132  -25.4003 O   0  0  0  0  0  0  0  0  0  0  0  0
   15.1162   17.9224  -27.4252 O   0  0  0  0  0  0  0  0  0  0  0  0
   15.2666   18.7531  -26.5324 C   0  0  0  0  0  0  0  0  0  0  0  0
   14.4612   20.0455  -26.5816 C   0  0  0  0  0  0  0  0  0  0  0  0
   13.2769   19.9570  -25.6135 C   0  0  0  0  0  0  0  0  0  0  0  0
   12.2552   21.0660  -25.8674 C   0  0  0  0  0  0  0  0  0  0  0  0
   11.6299   21.5502  -24.5609 C   0  0  0  0  0  0  0  0  0  0  0  0
   10.1001   21.6882  -24.5864 C   0  0  0  0  0  0  0  0  0  0  0  0
    8.4425   21.7157  -26.6238 C   0  0  0  0  0  0  0  0  0  0  0  0
    9.4968   20.9938  -25.8074 C   0  0  0  0  0  0  0  0  0  0  0  0
    8.3254   21.2555  -28.0905 C   0  0  0  0  0  0  0  0  0  0  0  0
    9.5630   21.4292  -28.9992 C   0  0  0  0  0  0  0  0  0  0  0  0
    9.7145   22.7845  -29.7203 C   0  0  0  0  0  0  0  0  0  0  0  0
   11.1888   23.1932  -29.9279 C   0  0  0  0  0  0  0  0  0  0  0  0
   11.3980   24.5842  -30.5449 C   0  0  0  0  0  0  0  0  0  0  0  0
   13.8469   25.2270  -30.9460 C   0  0  0  0  0  0  0  0  0  0  0  0
   12.5630   24.6503  -31.5446 C   0  0  0  0  0  0  0  0  0  0  0  0
   22.3497   17.1086  -24.2668 O   0  0  0  0  0  0  0  0  0  0  0  0
   24.5340   19.6799  -25.6487 C   0  0  0  0  0  0  0  0  0  0  0  0
   24.0719   18.4523  -25.0621 O   0  0  0  0  0  0  0  0  0  0  0  0
   23.5690   20.8470  -25.4560 C   0  0  0  0  0  0  0  0  0  0  0  0
   24.1837   22.0863  -25.9110 N   0  0  0  0  0  0  0  0  0  0  0  0
   24.0147   21.6166  -23.1763 O   0  0  0  0  0  0  0  0  0  0  0  0
   23.0360   20.9535  -24.0121 C   0  0  0  0  0  0  0  0  0  0  0  0
   22.5339   19.5983  -23.4416 C   0  0  0  0  0  0  0  0  0  0  0  0
   22.7363   18.4814  -24.5411 C   0  0  0  0  0  0  0  0  0  0  0  0
   25.8891   20.2573  -25.2330 C   0  0  0  0  0  0  0  0  0  0  0  0
   25.0090   22.2842  -25.3454 H   0  0  0  0  0  0  0  0  0  0  0  0
   23.5158   22.8515  -25.8172 H   0  0  0  0  0  0  0  0  0  0  0  0
   24.2820   22.4515  -23.5917 H   0  0  0  0  0  0  0  0  0  0  0  0
   21.1588   19.6753  -22.8712 N   0  0  0  0  0  0  0  0  0  0  0  0
   20.6306   20.2450  -21.7344 C   0  0  0  0  0  0  0  0  0  0  0  0
   21.2222   20.7997  -20.8124 O   0  0  0  0  0  0  0  0  0  0  0  0
   19.1173   20.3454  -21.6694 C   0  0  0  0  0  0  0  0  0  0  0  0
   20.4838   19.2218  -23.4262 H   0  0  0  0  0  0  0  0  0  0  0  0
  1  2  1  0  0  0
  1  3  1  0  0  0
  1 12  1  0  0  0
  2  8  1  0  0  0
  3  4  1  0  0  0
  3  7  1  0  0  0
 44  4  1  0  0  0
 44 52  1  0  0  0
  4  6  1  0  0  0
  5  6  1  0  0  0
  6  8  1  0  0  0
  8 14  1  0  0  0
 11 12  1  0  0  0
 28 29  2  0  0  0
 27 29  1  0  0  0
 27 16  1  0  0  0
 42 43  1  0  0  0
 14 15  1  0  0  0
 43 41  1  0  0  0
 18 17  1  0  0  0
 18 20  1  0  0  0
 41 40  1  0  0  0
 19 20  2  0  0  0
 40 39  1  0  0  0
 39 38  1  0  0  0
 38 37  1  0  0  0
 37 35  1  0  0  0
 35 36  2  0  0  0
 36 34  1  0  0  0
 34 33  1  0  0  0
 33 32  1  0  0  0
 32 31  1  0  0  0
 31 30  1  0  0  0
 30 29  1  0  0  0
 16 15  1  0  0  0
 16 17  1  0  0  0
 20 21  1  0  0  0
 21 22  1  0  0  0
 22 23  1  0  0  0
 23 24  1  0  0  0
 24 25  1  0  0  0
 25 26  1  0  0  0
 45 46  1  0  0  0
 45 47  1  0  0  0
 45 53  1  0  0  0
 46 52  1  0  0  0
 47 48  1  0  0  0
 47 50  1  0  0  0
 49 50  1  0  0  0
 50 51  1  0  0  0
 51 57  1  0  0  0
 51 52  1  0  0  0
 57 58  1  0  0  0
 58 59  2  0  0  0
 58 60  1  0  0  0
  5  9  1  0  0  0
  7 10  1  0  0  0
 11 13  1  0  0  0
 48 54  1  0  0  0
 48 55  1  0  0  0
 49 56  1  0  0  0
 57 61  1  0  0  0
M  END
> <minimizedAffinity>
-8.56339

$$$$
3O4K_LTC_C_172


 61 62  0  0  0  0  0  0  0  0999 V2000
   20.1007   14.5548  -26.0003 C   0  0  0  0  0  0  0  0  0  0  0  0
   18.8502   15.1067  -25.4891 O   0  0  0  0  0  0  0  0  0  0  0  0
   21.3504   15.3874  -25.6053 C   0  0  0  0  0  0  0  0  0  0  0  0
   21.0387   16.6124  -24.7032 C   0  0  0  0  0  0  0  0  0  0  0  0
   19.6522   17.2929  -22.7236 O   0  0  0  0  0  0  0  0  0  0  0  0
   20.0549   16.1998  -23.5747 C   0  0  0  0  0  0  0  0  0  0  0  0
   22.1664   15.7256  -26.7589 O   0  0  0  0  0  0  0  0  0  0  0  0
   18.7830   15.4726  -24.0789 C   0  0  0  0  0  0  0  0  0  0  0  0
   20.4396   17.7579  -22.4002 H   0  0  0  0  0  0  0  0  0  0  0  0
   21.6659   16.3111  -27.3485 H   0  0  0  0  0  0  0  0  0  0  0  0
   21.3371   12.5079  -26.3435 O   0  0  0  0  0  0  0  0  0  0  0  0
   20.2759   13.0963  -25.5746 C   0  0  0  0  0  0  0  0  0  0  0  0
   21.4536   11.5821  -26.0784 H   0  0  0  0  0  0  0  0  0  0  0  0
   17.5672   16.2101  -23.7736 O   0  0  0  0  0  0  0  0  0  0  0  0
   16.5967   16.4023  -24.8295 C   0  0  0  0  0  0  0  0  0  0  0  0
   16.1768   17.8661  -25.0751 C   0  0  0  0  0  0  0  0  0  0  0  0
   17.2914   18.8728  -24.7615 C   0  0  0  0  0  0  0  0  0  0  0  0
   16.8365   19.9087  -23.8596 O   0  0  0  0  0  0  0  0  0  0  0  0
   15.3933   18.6053  -22.5005 O   0  0  0  0  0  0  0  0  0  0  0  0
   15.8025   19.7384  -22.8041 C   0  0  0  0  0  0  0  0  0  0  0  0
   15.2631   20.9832  -22.0951 C   0  0  0  0  0  0  0  0  0  0  0  0
   15.3150   20.8436  -20.5741 C   0  0  0  0  0  0  0  0  0  0  0  0
   16.2233   21.8767  -19.9049 C   0  0  0  0  0  0  0  0  0  0  0  0
   16.7425   21.3576  -18.5563 C   0  0  0  0  0  0  0  0  0  0  0  0
   15.6525   20.9641  -17.5559 C   0  0  0  0  0  0  0  0  0  0  0  0
   15.6927   21.7997  -16.2851 C   0  0  0  0  0  0  0  0  0  0  0  0
   15.7080   18.0174  -26.4309 O   0  0  0  0  0  0  0  0  0  0  0  0
   16.7468   19.6439  -27.8125 O   0  0  0  0  0  0  0  0  0  0  0  0
   15.7832   19.3391  -27.1136 C   0  0  0  0  0  0  0  0  0  0  0  0
   14.6372   20.3314  -26.9609 C   0  0  0  0  0  0  0  0  0  0  0  0
   13.7196   19.8933  -25.8147 C   0  0  0  0  0  0  0  0  0  0  0  0
   13.0198   21.0867  -25.1632 C   0  0  0  0  0  0  0  0  0  0  0  0
   11.5126   21.0423  -25.4054 C   0  0  0  0  0  0  0  0  0  0  0  0
   11.0689   21.4730  -26.8116 C   0  0  0  0  0  0  0  0  0  0  0  0
    8.6384   21.4266  -25.8165 C   0  0  0  0  0  0  0  0  0  0  0  0
    9.5653   21.2778  -27.0072 C   0  0  0  0  0  0  0  0  0  0  0  0
    7.1844   21.8021  -26.1651 C   0  0  0  0  0  0  0  0  0  0  0  0
    6.8661   22.1558  -27.6352 C   0  0  0  0  0  0  0  0  0  0  0  0
    5.7718   21.3215  -28.3324 C   0  0  0  0  0  0  0  0  0  0  0  0
    5.1534   20.2499  -27.4089 C   0  0  0  0  0  0  0  0  0  0  0  0
    5.3810   18.7974  -27.8538 C   0  0  0  0  0  0  0  0  0  0  0  0
    7.8440   18.2654  -28.3248 C   0  0  0  0  0  0  0  0  0  0  0  0
    6.4825   18.6388  -28.9133 C   0  0  0  0  0  0  0  0  0  0  0  0
   22.3123   17.1962  -24.2996 O   0  0  0  0  0  0  0  0  0  0  0  0
   24.4339   19.8256  -25.6698 C   0  0  0  0  0  0  0  0  0  0  0  0
   23.9967   18.5716  -25.1212 O   0  0  0  0  0  0  0  0  0  0  0  0
   23.4894   20.9853  -25.3643 C   0  0  0  0  0  0  0  0  0  0  0  0
   24.0863   22.2437  -25.7897 N   0  0  0  0  0  0  0  0  0  0  0  0
   24.0671   21.6358  -23.0772 O   0  0  0  0  0  0  0  0  0  0  0  0
   23.0386   21.0202  -23.8892 C   0  0  0  0  0  0  0  0  0  0  0  0
   22.5598   19.6397  -23.3609 C   0  0  0  0  0  0  0  0  0  0  0  0
   22.6926   18.5796  -24.5252 C   0  0  0  0  0  0  0  0  0  0  0  0
   25.8141   20.3755  -25.3021 C   0  0  0  0  0  0  0  0  0  0  0  0
   24.9433   22.4090  -25.2620 H   0  0  0  0  0  0  0  0  0  0  0  0
   23.4300   23.0059  -25.6198 H   0  0  0  0  0  0  0  0  0  0  0  0
   24.3165   22.4896  -23.4640 H   0  0  0  0  0  0  0  0  0  0  0  0
   21.2192   19.6933  -22.7110 N   0  0  0  0  0  0  0  0  0  0  0  0
   20.7492   20.2520  -21.5437 C   0  0  0  0  0  0  0  0  0  0  0  0
   21.3845   20.8146  -20.6562 O   0  0  0  0  0  0  0  0  0  0  0  0
   19.2408   20.3276  -21.3902 C   0  0  0  0  0  0  0  0  0  0  0  0
   20.5204   19.2299  -23.2269 H   0  0  0  0  0  0  0  0  0  0  0  0
  1  2  1  0  0  0
  1  3  1  0  0  0
  1 12  1  0  0  0
  2  8  1  0  0  0
  3  4  1  0  0  0
  3  7  1  0  0  0
 44  4  1  0  0  0
 44 52  1  0  0  0
  4  6  1  0  0  0
  5  6  1  0  0  0
  6  8  1  0  0  0
  8 14  1  0  0  0
 11 12  1  0  0  0
 28 29  2  0  0  0
 27 29  1  0  0  0
 27 16  1  0  0  0
 42 43  1  0  0  0
 14 15  1  0  0  0
 43 41  1  0  0  0
 18 17  1  0  0  0
 18 20  1  0  0  0
 41 40  1  0  0  0
 19 20  2  0  0  0
 40 39  1  0  0  0
 39 38  1  0  0  0
 38 37  1  0  0  0
 37 35  1  0  0  0
 35 36  2  0  0  0
 36 34  1  0  0  0
 34 33  1  0  0  0
 33 32  1  0  0  0
 32 31  1  0  0  0
 31 30  1  0  0  0
 30 29  1  0  0  0
 16 15  1  0  0  0
 16 17  1  0  0  0
 20 21  1  0  0  0
 21 22  1  0  0  0
 22 23  1  0  0  0
 23 24  1  0  0  0
 24 25  1  0  0  0
 25 26  1  0  0  0
 45 46  1  0  0  0
 45 47  1  0  0  0
 45 53  1  0  0  0
 46 52  1  0  0  0
 47 48  1  0  0  0
 47 50  1  0  0  0
 49 50  1  0  0  0
 50 51  1  0  0  0
 51 57  1  0  0  0
 51 52  1  0  0  0
 57 58  1  0  0  0
 58 59  2  0  0  0
 58 60  1  0  0  0
  5  9  1  0  0  0
  7 10  1  0  0  0
 11 13  1  0  0  0
 48 54  1  0  0  0
 48 55  1  0  0  0
 49 56  1  0  0  0
 57 61  1  0  0  0
M  END
> <minimizedAffinity>
-8.50095

$$$$
3O4K_LTC_C_172


 61 62  0  0  0  0  0  0  0  0999 V2000
   20.3772   14.4657  -26.0762 C   0  0  0  0  0  0  0  0  0  0  0  0
   19.1157   14.8542  -25.4538 O   0  0  0  0  0  0  0  0  0  0  0  0
   21.5688   15.3786  -25.6791 C   0  0  0  0  0  0  0  0  0  0  0  0
   21.2039   16.4927  -24.6605 C   0  0  0  0  0  0  0  0  0  0  0  0
   19.8854   16.8785  -22.5588 O   0  0  0  0  0  0  0  0  0  0  0  0
   20.3320   15.8999  -23.5203 C   0  0  0  0  0  0  0  0  0  0  0  0
   22.2791   15.8837  -26.8416 O   0  0  0  0  0  0  0  0  0  0  0  0
   19.1022   15.0982  -24.0159 C   0  0  0  0  0  0  0  0  0  0  0  0
   20.6461   17.3886  -22.2395 H   0  0  0  0  0  0  0  0  0  0  0  0
   21.6930   16.4644  -27.3515 H   0  0  0  0  0  0  0  0  0  0  0  0
   21.5578   12.4973  -26.8297 O   0  0  0  0  0  0  0  0  0  0  0  0
   20.7085   13.0010  -25.7864 C   0  0  0  0  0  0  0  0  0  0  0  0
   21.7719   11.5681  -26.6519 H   0  0  0  0  0  0  0  0  0  0  0  0
   17.8459   15.6906  -23.5844 O   0  0  0  0  0  0  0  0  0  0  0  0
   16.8392   15.9714  -24.5850 C   0  0  0  0  0  0  0  0  0  0  0  0
   16.2638   17.4021  -24.5522 C   0  0  0  0  0  0  0  0  0  0  0  0
   16.0606   17.9367  -23.1285 C   0  0  0  0  0  0  0  0  0  0  0  0
   15.1538   19.0640  -23.1061 O   0  0  0  0  0  0  0  0  0  0  0  0
   15.6999   21.3566  -23.3794 O   0  0  0  0  0  0  0  0  0  0  0  0
   15.4796   20.4211  -22.5920 C   0  0  0  0  0  0  0  0  0  0  0  0
   15.5271   20.6424  -21.0781 C   0  0  0  0  0  0  0  0  0  0  0  0
   15.9020   22.0804  -20.7211 C   0  0  0  0  0  0  0  0  0  0  0  0
   16.5431   22.2102  -19.3382 C   0  0  0  0  0  0  0  0  0  0  0  0
   16.2990   20.9466  -18.5007 C   0  0  0  0  0  0  0  0  0  0  0  0
   15.2862   21.1137  -17.3648 C   0  0  0  0  0  0  0  0  0  0  0  0
   15.4313   22.4434  -16.6398 C   0  0  0  0  0  0  0  0  0  0  0  0
   17.1070   18.2841  -25.3216 O   0  0  0  0  0  0  0  0  0  0  0  0
   17.0627   20.4325  -26.3292 O   0  0  0  0  0  0  0  0  0  0  0  0
   16.5085   19.3465  -26.1770 C   0  0  0  0  0  0  0  0  0  0  0  0
   15.1911   19.0815  -26.8949 C   0  0  0  0  0  0  0  0  0  0  0  0
   14.2893   20.3165  -26.7989 C   0  0  0  0  0  0  0  0  0  0  0  0
   13.2504   20.1727  -25.6861 C   0  0  0  0  0  0  0  0  0  0  0  0
   12.4915   21.4798  -25.4672 C   0  0  0  0  0  0  0  0  0  0  0  0
   11.4452   21.8099  -26.5425 C   0  0  0  0  0  0  0  0  0  0  0  0
    8.8786   21.3069  -26.2988 C   0  0  0  0  0  0  0  0  0  0  0  0
   10.2918   20.8066  -26.5264 C   0  0  0  0  0  0  0  0  0  0  0  0
    7.7673   20.4015  -26.8660 C   0  0  0  0  0  0  0  0  0  0  0  0
    7.3975   20.5657  -28.3572 C   0  0  0  0  0  0  0  0  0  0  0  0
    7.7539   21.9122  -29.0203 C   0  0  0  0  0  0  0  0  0  0  0  0
    6.5527   22.8789  -29.1008 C   0  0  0  0  0  0  0  0  0  0  0  0
    6.0885   23.2231  -30.5240 C   0  0  0  0  0  0  0  0  0  0  0  0
    4.8636   21.5335  -32.0127 C   0  0  0  0  0  0  0  0  0  0  0  0
    4.7444   22.5857  -30.9090 C   0  0  0  0  0  0  0  0  0  0  0  0
   22.4422   17.1602  -24.2772 O   0  0  0  0  0  0  0  0  0  0  0  0
   24.4358   19.8584  -25.7047 C   0  0  0  0  0  0  0  0  0  0  0  0
   24.0610   18.6023  -25.1160 O   0  0  0  0  0  0  0  0  0  0  0  0
   23.4167   20.9697  -25.4665 C   0  0  0  0  0  0  0  0  0  0  0  0
   23.9477   22.2446  -25.9286 N   0  0  0  0  0  0  0  0  0  0  0  0
   23.8991   21.7417  -23.1950 O   0  0  0  0  0  0  0  0  0  0  0  0
   22.9291   21.0342  -24.0041 C   0  0  0  0  0  0  0  0  0  0  0  0
   22.5207   19.6486  -23.4317 C   0  0  0  0  0  0  0  0  0  0  0  0
   22.7447   18.5544  -24.5496 C   0  0  0  0  0  0  0  0  0  0  0  0
   25.7715   20.5046  -25.3291 C   0  0  0  0  0  0  0  0  0  0  0  0
   24.7803   22.4817  -25.3893 H   0  0  0  0  0  0  0  0  0  0  0  0
   23.2432   22.9716  -25.8037 H   0  0  0  0  0  0  0  0  0  0  0  0
   24.1065   22.5935  -23.6101 H   0  0  0  0  0  0  0  0  0  0  0  0
   21.1640   19.6460  -22.8139 N   0  0  0  0  0  0  0  0  0  0  0  0
   20.6473   20.1695  -21.6499 C   0  0  0  0  0  0  0  0  0  0  0  0
   21.2416   20.7390  -20.7387 O   0  0  0  0  0  0  0  0  0  0  0  0
   19.1341   20.1912  -21.5321 C   0  0  0  0  0  0  0  0  0  0  0  0
   20.4941   19.1674  -23.3537 H   0  0  0  0  0  0  0  0  0  0  0  0
  1  2  1  0  0  0
  1  3  1  0  0  0
  1 12  1  0  0  0
  2  8  1  0  0  0
  3  4  1  0  0  0
  3  7  1  0  0  0
 44  4  1  0  0  0
 44 52  1  0  0  0
  4  6  1  0  0  0
  5  6  1  0  0  0
  6  8  1  0  0  0
  8 14  1  0  0  0
 11 12  1  0  0  0
 28 29  2  0  0  0
 27 29  1  0  0  0
 27 16  1  0  0  0
 42 43  1  0  0  0
 14 15  1  0  0  0
 43 41  1  0  0  0
 18 17  1  0  0  0
 18 20  1  0  0  0
 41 40  1  0  0  0
 19 20  2  0  0  0
 40 39  1  0  0  0
 39 38  1  0  0  0
 38 37  1  0  0  0
 37 35  1  0  0  0
 35 36  2  0  0  0
 36 34  1  0  0  0
 34 33  1  0  0  0
 33 32  1  0  0  0
 32 31  1  0  0  0
 31 30  1  0  0  0
 30 29  1  0  0  0
 16 15  1  0  0  0
 16 17  1  0  0  0
 20 21  1  0  0  0
 21 22  1  0  0  0
 22 23  1  0  0  0
 23 24  1  0  0  0
 24 25  1  0  0  0
 25 26  1  0  0  0
 45 46  1  0  0  0
 45 47  1  0  0  0
 45 53  1  0  0  0
 46 52  1  0  0  0
 47 48  1  0  0  0
 47 50  1  0  0  0
 49 50  1  0  0  0
 50 51  1  0  0  0
 51 57  1  0  0  0
 51 52  1  0  0  0
 57 58  1  0  0  0
 58 59  2  0  0  0
 58 60  1  0  0  0
  5  9  1  0  0  0
  7 10  1  0  0  0
 11 13  1  0  0  0
 48 54  1  0  0  0
 48 55  1  0  0  0
 49 56  1  0  0  0
 57 61  1  0  0  0
M  END
> <minimizedAffinity>
-8.48665

$$$$
3O4K_LTC_C_172


 61 62  0  0  0  0  0  0  0  0999 V2000
   15.4700   19.7019  -25.2616 C   0  0  0  0  0  0  0  0  0  0  0  0
   15.4969   19.9903  -23.8313 O   0  0  0  0  0  0  0  0  0  0  0  0
   16.7132   18.9140  -25.7563 C   0  0  0  0  0  0  0  0  0  0  0  0
   17.7171   18.5399  -24.6320 C   0  0  0  0  0  0  0  0  0  0  0  0
   17.7964   17.6739  -22.2766 O   0  0  0  0  0  0  0  0  0  0  0  0
   16.9486   17.9856  -23.4016 C   0  0  0  0  0  0  0  0  0  0  0  0
   17.3490   19.5576  -26.8932 O   0  0  0  0  0  0  0  0  0  0  0  0
   15.7953   18.8976  -22.9126 C   0  0  0  0  0  0  0  0  0  0  0  0
   18.5239   17.1026  -22.5684 H   0  0  0  0  0  0  0  0  0  0  0  0
   17.7045   20.4180  -26.6206 H   0  0  0  0  0  0  0  0  0  0  0  0
   14.4786   17.5777  -25.8460 O   0  0  0  0  0  0  0  0  0  0  0  0
   14.1852   18.9708  -25.6540 C   0  0  0  0  0  0  0  0  0  0  0  0
   13.6675   17.1077  -26.0952 H   0  0  0  0  0  0  0  0  0  0  0  0
   16.0090   19.3798  -21.5572 O   0  0  0  0  0  0  0  0  0  0  0  0
   15.9785   20.8073  -21.3231 C   0  0  0  0  0  0  0  0  0  0  0  0
   16.9322   21.3110  -20.2203 C   0  0  0  0  0  0  0  0  0  0  0  0
   18.3731   21.5020  -20.7117 C   0  0  0  0  0  0  0  0  0  0  0  0
   18.8476   20.3433  -21.4368 O   0  0  0  0  0  0  0  0  0  0  0  0
   20.3401   18.5057  -21.2784 O   0  0  0  0  0  0  0  0  0  0  0  0
   20.2008   19.7400  -21.3055 C   0  0  0  0  0  0  0  0  0  0  0  0
   21.4145   20.6685  -21.2154 C   0  0  0  0  0  0  0  0  0  0  0  0
   22.6642   19.9322  -20.7337 C   0  0  0  0  0  0  0  0  0  0  0  0
   23.9649   20.6467  -21.1047 C   0  0  0  0  0  0  0  0  0  0  0  0
   23.7174   21.7081  -22.1863 C   0  0  0  0  0  0  0  0  0  0  0  0
   24.9835   22.2654  -22.8422 C   0  0  0  0  0  0  0  0  0  0  0  0
   24.7200   23.5294  -23.6472 C   0  0  0  0  0  0  0  0  0  0  0  0
   16.4142   22.5293  -19.6473 O   0  0  0  0  0  0  0  0  0  0  0  0
   16.3197   23.7230  -17.5981 O   0  0  0  0  0  0  0  0  0  0  0  0
   16.2076   22.6449  -18.1768 C   0  0  0  0  0  0  0  0  0  0  0  0
   15.8323   21.4082  -17.3699 C   0  0  0  0  0  0  0  0  0  0  0  0
   14.4505   21.6004  -16.7365 C   0  0  0  0  0  0  0  0  0  0  0  0
   14.5054   21.4800  -15.2131 C   0  0  0  0  0  0  0  0  0  0  0  0
   13.5051   22.4235  -14.5484 C   0  0  0  0  0  0  0  0  0  0  0  0
   13.0152   23.5783  -15.4352 C   0  0  0  0  0  0  0  0  0  0  0  0
   14.0093   26.0028  -15.2531 C   0  0  0  0  0  0  0  0  0  0  0  0
   13.1017   24.9187  -14.7052 C   0  0  0  0  0  0  0  0  0  0  0  0
   13.6179   27.4411  -14.8600 C   0  0  0  0  0  0  0  0  0  0  0  0
   14.5208   28.5927  -15.3561 C   0  0  0  0  0  0  0  0  0  0  0  0
   15.3824   28.3153  -16.6053 C   0  0  0  0  0  0  0  0  0  0  0  0
   16.7662   28.9974  -16.5444 C   0  0  0  0  0  0  0  0  0  0  0  0
   17.8429   28.3662  -17.4397 C   0  0  0  0  0  0  0  0  0  0  0  0
   19.9791   28.8821  -18.7595 C   0  0  0  0  0  0  0  0  0  0  0  0
   19.1437   29.1808  -17.5135 C   0  0  0  0  0  0  0  0  0  0  0  0
   18.7395   17.6846  -25.2227 O   0  0  0  0  0  0  0  0  0  0  0  0
   21.7773   19.5762  -24.5256 C   0  0  0  0  0  0  0  0  0  0  0  0
   20.4729   19.2190  -25.0109 O   0  0  0  0  0  0  0  0  0  0  0  0
   22.6645   18.3713  -24.2231 C   0  0  0  0  0  0  0  0  0  0  0  0
   24.0186   18.8102  -23.9155 N   0  0  0  0  0  0  0  0  0  0  0  0
   23.5210   17.6988  -26.4145 O   0  0  0  0  0  0  0  0  0  0  0  0
   22.6335   17.3071  -25.3398 C   0  0  0  0  0  0  0  0  0  0  0  0
   21.1955   16.9502  -25.8077 C   0  0  0  0  0  0  0  0  0  0  0  0
   20.1655   17.8188  -24.9819 C   0  0  0  0  0  0  0  0  0  0  0  0
   22.6766   20.4872  -25.3646 C   0  0  0  0  0  0  0  0  0  0  0  0
   24.4174   19.2785  -24.7292 H   0  0  0  0  0  0  0  0  0  0  0  0
   24.5915   18.0016  -23.6739 H   0  0  0  0  0  0  0  0  0  0  0  0
   24.3963   17.9062  -26.0516 H   0  0  0  0  0  0  0  0  0  0  0  0
   20.9245   15.4843  -25.8045 N   0  0  0  0  0  0  0  0  0  0  0  0
   20.8854   14.5259  -24.8167 C   0  0  0  0  0  0  0  0  0  0  0  0
   21.1606   14.6446  -23.6259 O   0  0  0  0  0  0  0  0  0  0  0  0
   20.2811   13.1866  -25.1982 C   0  0  0  0  0  0  0  0  0  0  0  0
   20.7324   15.1244  -26.7005 H   0  0  0  0  0  0  0  0  0  0  0  0
  1  2  1  0  0  0
  1  3  1  0  0  0
  1 12  1  0  0  0
  2  8  1  0  0  0
  3  4  1  0  0  0
  3  7  1  0  0  0
 44  4  1  0  0  0
 44 52  1  0  0  0
  4  6  1  0  0  0
  5  6  1  0  0  0
  6  8  1  0  0  0
  8 14  1  0  0  0
 11 12  1  0  0  0
 28 29  2  0  0  0
 27 29  1  0  0  0
 27 16  1  0  0  0
 42 43  1  0  0  0
 14 15  1  0  0  0
 43 41  1  0  0  0
 18 17  1  0  0  0
 18 20  1  0  0  0
 41 40  1  0  0  0
 19 20  2  0  0  0
 40 39  1  0  0  0
 39 38  1  0  0  0
 38 37  1  0  0  0
 37 35  1  0  0  0
 35 36  2  0  0  0
 36 34  1  0  0  0
 34 33  1  0  0  0
 33 32  1  0  0  0
 32 31  1  0  0  0
 31 30  1  0  0  0
 30 29  1  0  0  0
 16 15  1  0  0  0
 16 17  1  0  0  0
 20 21  1  0  0  0
 21 22  1  0  0  0
 22 23  1  0  0  0
 23 24  1  0  0  0
 24 25  1  0  0  0
 25 26  1  0  0  0
 45 46  1  0  0  0
 45 47  1  0  0  0
 45 53  1  0  0  0
 46 52  1  0  0  0
 47 48  1  0  0  0
 47 50  1  0  0  0
 49 50  1  0  0  0
 50 51  1  0  0  0
 51 57  1  0  0  0
 51 52  1  0  0  0
 57 58  1  0  0  0
 58 59  2  0  0  0
 58 60  1  0  0  0
  5  9  1  0  0  0
  7 10  1  0  0  0
 11 13  1  0  0  0
 48 54  1  0  0  0
 48 55  1  0  0  0
 49 56  1  0  0  0
 57 61  1  0  0  0
M  END
> <minimizedAffinity>
-8.30562

$$$$
3O4K_LTC_C_172


 61 62  0  0  0  0  0  0  0  0999 V2000
   15.0713   19.8637  -25.7526 C   0  0  0  0  0  0  0  0  0  0  0  0
   15.2264   20.8487  -24.6870 O   0  0  0  0  0  0  0  0  0  0  0  0
   16.4143   19.2347  -26.2125 C   0  0  0  0  0  0  0  0  0  0  0  0
   17.6535   19.7322  -25.4197 C   0  0  0  0  0  0  0  0  0  0  0  0
   18.4119   20.2548  -23.0839 O   0  0  0  0  0  0  0  0  0  0  0  0
   17.3385   19.7401  -23.8990 C   0  0  0  0  0  0  0  0  0  0  0  0
   16.5907   19.3192  -27.6521 O   0  0  0  0  0  0  0  0  0  0  0  0
   16.0339   20.4889  -23.5271 C   0  0  0  0  0  0  0  0  0  0  0  0
   19.2362   19.7944  -23.3063 H   0  0  0  0  0  0  0  0  0  0  0  0
   16.6607   20.2503  -27.9152 H   0  0  0  0  0  0  0  0  0  0  0  0
   14.2776   17.6264  -26.2007 O   0  0  0  0  0  0  0  0  0  0  0  0
   14.0794   18.7699  -25.3540 C   0  0  0  0  0  0  0  0  0  0  0  0
   13.6513   16.9283  -25.9531 H   0  0  0  0  0  0  0  0  0  0  0  0
   16.2812   21.6368  -22.6689 O   0  0  0  0  0  0  0  0  0  0  0  0
   15.6404   21.6759  -21.3722 C   0  0  0  0  0  0  0  0  0  0  0  0
   16.4879   21.1278  -20.2057 C   0  0  0  0  0  0  0  0  0  0  0  0
   17.9894   21.0886  -20.5190 C   0  0  0  0  0  0  0  0  0  0  0  0
   18.5926   19.8468  -20.0859 O   0  0  0  0  0  0  0  0  0  0  0  0
   20.7413   19.8280  -21.0916 O   0  0  0  0  0  0  0  0  0  0  0  0
   19.7442   19.1736  -20.7436 C   0  0  0  0  0  0  0  0  0  0  0  0
   19.6796   17.6613  -20.9722 C   0  0  0  0  0  0  0  0  0  0  0  0
   19.1561   17.3148  -22.3656 C   0  0  0  0  0  0  0  0  0  0  0  0
   18.1943   16.1252  -22.3692 C   0  0  0  0  0  0  0  0  0  0  0  0
   16.7420   16.5957  -22.5346 C   0  0  0  0  0  0  0  0  0  0  0  0
   15.9539   15.8759  -23.6322 C   0  0  0  0  0  0  0  0  0  0  0  0
   16.7146   15.8003  -24.9477 C   0  0  0  0  0  0  0  0  0  0  0  0
   16.2273   21.8946  -19.0120 O   0  0  0  0  0  0  0  0  0  0  0  0
   17.4152   21.0791  -17.1260 O   0  0  0  0  0  0  0  0  0  0  0  0
   16.3276   21.2593  -17.6685 C   0  0  0  0  0  0  0  0  0  0  0  0
   15.0584   20.8376  -16.9388 C   0  0  0  0  0  0  0  0  0  0  0  0
   14.4265   22.0521  -16.2508 C   0  0  0  0  0  0  0  0  0  0  0  0
   14.0595   21.7508  -14.7972 C   0  0  0  0  0  0  0  0  0  0  0  0
   13.2374   22.8850  -14.1890 C   0  0  0  0  0  0  0  0  0  0  0  0
   12.9301   24.0478  -15.1448 C   0  0  0  0  0  0  0  0  0  0  0  0
   13.4181   26.6042  -15.4997 C   0  0  0  0  0  0  0  0  0  0  0  0
   13.6639   25.3225  -14.7279 C   0  0  0  0  0  0  0  0  0  0  0  0
   13.6896   27.9016  -14.7125 C   0  0  0  0  0  0  0  0  0  0  0  0
   14.5520   28.9881  -15.3930 C   0  0  0  0  0  0  0  0  0  0  0  0
   16.0619   28.7001  -15.5235 C   0  0  0  0  0  0  0  0  0  0  0  0
   16.6211   29.0458  -16.9205 C   0  0  0  0  0  0  0  0  0  0  0  0
   17.7459   28.1252  -17.4174 C   0  0  0  0  0  0  0  0  0  0  0  0
   20.2133   28.0388  -16.7280 C   0  0  0  0  0  0  0  0  0  0  0  0
   19.1225   28.8051  -17.4778 C   0  0  0  0  0  0  0  0  0  0  0  0
   18.8010   18.9483  -25.8607 O   0  0  0  0  0  0  0  0  0  0  0  0
   21.6764   20.5097  -24.2523 C   0  0  0  0  0  0  0  0  0  0  0  0
   20.5502   20.2863  -25.1163 O   0  0  0  0  0  0  0  0  0  0  0  0
   22.2859   19.2225  -23.7027 C   0  0  0  0  0  0  0  0  0  0  0  0
   23.5225   19.5167  -22.9920 N   0  0  0  0  0  0  0  0  0  0  0  0
   23.6872   18.3999  -25.5323 O   0  0  0  0  0  0  0  0  0  0  0  0
   22.4758   18.1384  -24.7840 C   0  0  0  0  0  0  0  0  0  0  0  0
   21.2180   17.9306  -25.6722 C   0  0  0  0  0  0  0  0  0  0  0  0
   20.0913   18.9301  -25.1942 C   0  0  0  0  0  0  0  0  0  0  0  0
   22.8862   21.2923  -24.7685 C   0  0  0  0  0  0  0  0  0  0  0  0
   24.2009   19.9156  -23.6408 H   0  0  0  0  0  0  0  0  0  0  0  0
   23.8984   18.6564  -22.5933 H   0  0  0  0  0  0  0  0  0  0  0  0
   24.4279   18.5188  -24.9173 H   0  0  0  0  0  0  0  0  0  0  0  0
   20.7939   16.5044  -25.7640 N   0  0  0  0  0  0  0  0  0  0  0  0
   20.9465   15.4113  -24.9408 C   0  0  0  0  0  0  0  0  0  0  0  0
   21.5821   15.3266  -23.8936 O   0  0  0  0  0  0  0  0  0  0  0  0
   20.1050   14.1924  -25.2731 C   0  0  0  0  0  0  0  0  0  0  0  0
   20.2988   16.3004  -26.5901 H   0  0  0  0  0  0  0  0  0  0  0  0
  1  2  1  0  0  0
  1  3  1  0  0  0
  1 12  1  0  0  0
  2  8  1  0  0  0
  3  4  1  0  0  0
  3  7  1  0  0  0
 44  4  1  0  0  0
 44 52  1  0  0  0
  4  6  1  0  0  0
  5  6  1  0  0  0
  6  8  1  0  0  0
  8 14  1  0  0  0
 11 12  1  0  0  0
 28 29  2  0  0  0
 27 29  1  0  0  0
 27 16  1  0  0  0
 42 43  1  0  0  0
 14 15  1  0  0  0
 43 41  1  0  0  0
 18 17  1  0  0  0
 18 20  1  0  0  0
 41 40  1  0  0  0
 19 20  2  0  0  0
 40 39  1  0  0  0
 39 38  1  0  0  0
 38 37  1  0  0  0
 37 35  1  0  0  0
 35 36  2  0  0  0
 36 34  1  0  0  0
 34 33  1  0  0  0
 33 32  1  0  0  0
 32 31  1  0  0  0
 31 30  1  0  0  0
 30 29  1  0  0  0
 16 15  1  0  0  0
 16 17  1  0  0  0
 20 21  1  0  0  0
 21 22  1  0  0  0
 22 23  1  0  0  0
 23 24  1  0  0  0
 24 25  1  0  0  0
 25 26  1  0  0  0
 45 46  1  0  0  0
 45 47  1  0  0  0
 45 53  1  0  0  0
 46 52  1  0  0  0
 47 48  1  0  0  0
 47 50  1  0  0  0
 49 50  1  0  0  0
 50 51  1  0  0  0
 51 57  1  0  0  0
 51 52  1  0  0  0
 57 58  1  0  0  0
 58 59  2  0  0  0
 58 60  1  0  0  0
  5  9  1  0  0  0
  7 10  1  0  0  0
 11 13  1  0  0  0
 48 54  1  0  0  0
 48 55  1  0  0  0
 49 56  1  0  0  0
 57 61  1  0  0  0
M  END
> <minimizedAffinity>
-8.25439

$$$$
3O4K_LTC_C_172


 61 62  0  0  0  0  0  0  0  0999 V2000
   20.2747   18.1489  -23.8767 C   0  0  0  0  0  0  0  0  0  0  0  0
   19.2387   18.5777  -24.8107 O   0  0  0  0  0  0  0  0  0  0  0  0
   21.3598   19.2293  -23.6193 C   0  0  0  0  0  0  0  0  0  0  0  0
   21.1090   20.5709  -24.3601 C   0  0  0  0  0  0  0  0  0  0  0  0
   19.2757   22.1911  -24.9246 O   0  0  0  0  0  0  0  0  0  0  0  0
   19.6204   20.9867  -24.2089 C   0  0  0  0  0  0  0  0  0  0  0  0
   22.7023   18.7120  -23.8220 O   0  0  0  0  0  0  0  0  0  0  0  0
   18.6111   19.8766  -24.5962 C   0  0  0  0  0  0  0  0  0  0  0  0
   19.9003   22.8957  -24.6914 H   0  0  0  0  0  0  0  0  0  0  0  0
   22.8195   18.4733  -24.7548 H   0  0  0  0  0  0  0  0  0  0  0  0
   19.9997   16.2966  -22.3503 O   0  0  0  0  0  0  0  0  0  0  0  0
   19.6666   17.6790  -22.5543 C   0  0  0  0  0  0  0  0  0  0  0  0
   19.6168   15.9920  -21.5127 H   0  0  0  0  0  0  0  0  0  0  0  0
   17.7734   20.2598  -25.7217 O   0  0  0  0  0  0  0  0  0  0  0  0
   17.1353   19.2135  -26.4908 C   0  0  0  0  0  0  0  0  0  0  0  0
   15.6986   18.8619  -26.0532 C   0  0  0  0  0  0  0  0  0  0  0  0
   14.6545   19.8715  -26.5478 C   0  0  0  0  0  0  0  0  0  0  0  0
   13.3586   19.6356  -25.9490 O   0  0  0  0  0  0  0  0  0  0  0  0
   13.0412   21.0651  -24.0822 O   0  0  0  0  0  0  0  0  0  0  0  0
   12.5859   20.6248  -25.1510 C   0  0  0  0  0  0  0  0  0  0  0  0
   11.2276   21.0948  -25.6778 C   0  0  0  0  0  0  0  0  0  0  0  0
   10.2475   21.3972  -24.5448 C   0  0  0  0  0  0  0  0  0  0  0  0
    8.8669   21.8297  -25.0418 C   0  0  0  0  0  0  0  0  0  0  0  0
    8.5736   21.2374  -26.4277 C   0  0  0  0  0  0  0  0  0  0  0  0
    7.0882   21.0402  -26.7416 C   0  0  0  0  0  0  0  0  0  0  0  0
    6.4912   22.2075  -27.5134 C   0  0  0  0  0  0  0  0  0  0  0  0
   15.3715   17.5247  -26.4844 O   0  0  0  0  0  0  0  0  0  0  0  0
   15.2974   15.2258  -25.8990 O   0  0  0  0  0  0  0  0  0  0  0  0
   15.7129   16.3511  -25.6331 C   0  0  0  0  0  0  0  0  0  0  0  0
   16.6098   16.5397  -24.4160 C   0  0  0  0  0  0  0  0  0  0  0  0
   15.9011   16.0167  -23.1622 C   0  0  0  0  0  0  0  0  0  0  0  0
   15.8674   17.0679  -22.0522 C   0  0  0  0  0  0  0  0  0  0  0  0
   16.0788   18.4718  -22.6148 C   0  0  0  0  0  0  0  0  0  0  0  0
   15.5346   19.6102  -21.7386 C   0  0  0  0  0  0  0  0  0  0  0  0
   16.3245   21.4935  -20.0867 C   0  0  0  0  0  0  0  0  0  0  0  0
   16.6514   20.2849  -20.9420 C   0  0  0  0  0  0  0  0  0  0  0  0
   17.2893   21.7395  -18.9097 C   0  0  0  0  0  0  0  0  0  0  0  0
   16.8288   21.3053  -17.5002 C   0  0  0  0  0  0  0  0  0  0  0  0
   15.3120   21.1214  -17.2874 C   0  0  0  0  0  0  0  0  0  0  0  0
   14.8266   21.6609  -15.9247 C   0  0  0  0  0  0  0  0  0  0  0  0
   14.0901   23.0077  -15.9829 C   0  0  0  0  0  0  0  0  0  0  0  0
   12.3047   24.4940  -14.8993 C   0  0  0  0  0  0  0  0  0  0  0  0
   12.8511   23.0765  -15.0767 C   0  0  0  0  0  0  0  0  0  0  0  0
   22.1178   21.5198  -23.9042 O   0  0  0  0  0  0  0  0  0  0  0  0
   22.2593   24.3982  -26.1375 C   0  0  0  0  0  0  0  0  0  0  0  0
   21.7932   23.2262  -25.4491 O   0  0  0  0  0  0  0  0  0  0  0  0
   23.7800   24.5313  -26.1501 C   0  0  0  0  0  0  0  0  0  0  0  0
   24.1799   25.6323  -27.0154 N   0  0  0  0  0  0  0  0  0  0  0  0
   24.4930   23.0324  -27.9482 O   0  0  0  0  0  0  0  0  0  0  0  0
   24.4954   23.2130  -26.5117 C   0  0  0  0  0  0  0  0  0  0  0  0
   23.9601   21.9873  -25.7210 C   0  0  0  0  0  0  0  0  0  0  0  0
   22.8008   22.4717  -24.7625 C   0  0  0  0  0  0  0  0  0  0  0  0
   21.8628   24.6293  -27.5976 C   0  0  0  0  0  0  0  0  0  0  0  0
   23.8889   25.4352  -27.9729 H   0  0  0  0  0  0  0  0  0  0  0  0
   25.1938   25.7390  -26.9833 H   0  0  0  0  0  0  0  0  0  0  0  0
   24.8379   23.8322  -28.3752 H   0  0  0  0  0  0  0  0  0  0  0  0
   25.0384   21.2027  -25.0546 N   0  0  0  0  0  0  0  0  0  0  0  0
   25.4716   19.9000  -25.1606 C   0  0  0  0  0  0  0  0  0  0  0  0
   24.9877   18.9854  -25.8217 O   0  0  0  0  0  0  0  0  0  0  0  0
   26.8022   19.5751  -24.5060 C   0  0  0  0  0  0  0  0  0  0  0  0
   25.5503   21.7285  -24.3984 H   0  0  0  0  0  0  0  0  0  0  0  0
  1  2  1  0  0  0
  1  3  1  0  0  0
  1 12  1  0  0  0
  2  8  1  0  0  0
  3  4  1  0  0  0
  3  7  1  0  0  0
 44  4  1  0  0  0
 44 52  1  0  0  0
  4  6  1  0  0  0
  5  6  1  0  0  0
  6  8  1  0  0  0
  8 14  1  0  0  0
 11 12  1  0  0  0
 28 29  2  0  0  0
 27 29  1  0  0  0
 27 16  1  0  0  0
 42 43  1  0  0  0
 14 15  1  0  0  0
 43 41  1  0  0  0
 18 17  1  0  0  0
 18 20  1  0  0  0
 41 40  1  0  0  0
 19 20  2  0  0  0
 40 39  1  0  0  0
 39 38  1  0  0  0
 38 37  1  0  0  0
 37 35  1  0  0  0
 35 36  2  0  0  0
 36 34  1  0  0  0
 34 33  1  0  0  0
 33 32  1  0  0  0
 32 31  1  0  0  0
 31 30  1  0  0  0
 30 29  1  0  0  0
 16 15  1  0  0  0
 16 17  1  0  0  0
 20 21  1  0  0  0
 21 22  1  0  0  0
 22 23  1  0  0  0
 23 24  1  0  0  0
 24 25  1  0  0  0
 25 26  1  0  0  0
 45 46  1  0  0  0
 45 47  1  0  0  0
 45 53  1  0  0  0
 46 52  1  0  0  0
 47 48  1  0  0  0
 47 50  1  0  0  0
 49 50  1  0  0  0
 50 51  1  0  0  0
 51 57  1  0  0  0
 51 52  1  0  0  0
 57 58  1  0  0  0
 58 59  2  0  0  0
 58 60  1  0  0  0
  5  9  1  0  0  0
  7 10  1  0  0  0
 11 13  1  0  0  0
 48 54  1  0  0  0
 48 55  1  0  0  0
 49 56  1  0  0  0
 57 61  1  0  0  0
M  END
> <minimizedAffinity>
-8.05325

$$$$
3O4K_LTC_C_172


 61 62  0  0  0  0  0  0  0  0999 V2000
   21.0758   15.7297  -24.3289 C   0  0  0  0  0  0  0  0  0  0  0  0
   22.0165   16.8330  -24.4941 O   0  0  0  0  0  0  0  0  0  0  0  0
   19.7125   16.1653  -23.7267 C   0  0  0  0  0  0  0  0  0  0  0  0
   19.5919   17.6913  -23.4651 C   0  0  0  0  0  0  0  0  0  0  0  0
   20.1218   19.9121  -24.5100 O   0  0  0  0  0  0  0  0  0  0  0  0
   20.1301   18.4805  -24.6895 C   0  0  0  0  0  0  0  0  0  0  0  0
   19.3447   15.3615  -22.5737 O   0  0  0  0  0  0  0  0  0  0  0  0
   21.5460   18.0490  -25.1477 C   0  0  0  0  0  0  0  0  0  0  0  0
   19.2402   20.1968  -24.2227 H   0  0  0  0  0  0  0  0  0  0  0  0
   19.9813   15.5128  -21.8577 H   0  0  0  0  0  0  0  0  0  0  0  0
   19.4561   14.9410  -25.9386 O   0  0  0  0  0  0  0  0  0  0  0  0
   20.8621   14.9837  -25.6469 C   0  0  0  0  0  0  0  0  0  0  0  0
   19.3134   14.4689  -26.7739 H   0  0  0  0  0  0  0  0  0  0  0  0
   22.5155   19.1273  -25.0360 O   0  0  0  0  0  0  0  0  0  0  0  0
   23.6481   18.9444  -24.1544 C   0  0  0  0  0  0  0  0  0  0  0  0
   23.7123   19.9177  -22.9596 C   0  0  0  0  0  0  0  0  0  0  0  0
   24.8780   20.9109  -23.0541 C   0  0  0  0  0  0  0  0  0  0  0  0
   24.5567   22.0306  -23.9124 O   0  0  0  0  0  0  0  0  0  0  0  0
   25.3527   21.2536  -26.0081 O   0  0  0  0  0  0  0  0  0  0  0  0
   24.5765   22.0091  -25.3994 C   0  0  0  0  0  0  0  0  0  0  0  0
   23.6164   22.9263  -26.1612 C   0  0  0  0  0  0  0  0  0  0  0  0
   22.2545   23.0264  -25.4749 C   0  0  0  0  0  0  0  0  0  0  0  0
   21.3145   24.0302  -26.1449 C   0  0  0  0  0  0  0  0  0  0  0  0
   22.0294   24.7758  -27.2810 C   0  0  0  0  0  0  0  0  0  0  0  0
   21.4024   26.1191  -27.6632 C   0  0  0  0  0  0  0  0  0  0  0  0
   21.4762   26.3976  -29.1572 C   0  0  0  0  0  0  0  0  0  0  0  0
   22.4528   20.6081  -22.8254 O   0  0  0  0  0  0  0  0  0  0  0  0
   21.7694   19.4703  -20.8577 O   0  0  0  0  0  0  0  0  0  0  0  0
   21.6261   20.4407  -21.5977 C   0  0  0  0  0  0  0  0  0  0  0  0
   20.5918   21.4996  -21.2367 C   0  0  0  0  0  0  0  0  0  0  0  0
   19.2025   20.8598  -21.1474 C   0  0  0  0  0  0  0  0  0  0  0  0
   18.3184   21.5691  -20.1210 C   0  0  0  0  0  0  0  0  0  0  0  0
   17.1566   20.6793  -19.6844 C   0  0  0  0  0  0  0  0  0  0  0  0
   15.7953   21.3860  -19.5986 C   0  0  0  0  0  0  0  0  0  0  0  0
   14.7350   21.2249  -17.2008 C   0  0  0  0  0  0  0  0  0  0  0  0
   15.5655   21.9896  -18.2130 C   0  0  0  0  0  0  0  0  0  0  0  0
   15.0288   21.5648  -15.7262 C   0  0  0  0  0  0  0  0  0  0  0  0
   13.8810   22.1670  -14.8850 C   0  0  0  0  0  0  0  0  0  0  0  0
   13.0405   23.2789  -15.5460 C   0  0  0  0  0  0  0  0  0  0  0  0
   13.6639   24.6817  -15.3811 C   0  0  0  0  0  0  0  0  0  0  0  0
   12.8838   25.6371  -14.4657 C   0  0  0  0  0  0  0  0  0  0  0  0
   11.8273   24.6631  -12.3429 C   0  0  0  0  0  0  0  0  0  0  0  0
   11.6408   25.0029  -13.8225 C   0  0  0  0  0  0  0  0  0  0  0  0
   18.2208   17.9585  -23.0476 O   0  0  0  0  0  0  0  0  0  0  0  0
   15.9725   15.9278  -25.0760 C   0  0  0  0  0  0  0  0  0  0  0  0
   17.1600   16.4312  -24.4427 O   0  0  0  0  0  0  0  0  0  0  0  0
   14.8544   16.9619  -25.1810 C   0  0  0  0  0  0  0  0  0  0  0  0
   13.7627   16.4396  -25.9909 N   0  0  0  0  0  0  0  0  0  0  0  0
   15.4751   18.3133  -27.1243 O   0  0  0  0  0  0  0  0  0  0  0  0
   15.3506   18.3342  -25.6820 C   0  0  0  0  0  0  0  0  0  0  0  0
   16.6251   18.8322  -24.9459 C   0  0  0  0  0  0  0  0  0  0  0  0
   17.0500   17.7455  -23.8802 C   0  0  0  0  0  0  0  0  0  0  0  0
   16.0554   15.3389  -26.4863 C   0  0  0  0  0  0  0  0  0  0  0  0
   14.0966   16.2629  -26.9384 H   0  0  0  0  0  0  0  0  0  0  0  0
   13.0042   17.1210  -26.0193 H   0  0  0  0  0  0  0  0  0  0  0  0
   14.6471   17.9938  -27.5157 H   0  0  0  0  0  0  0  0  0  0  0  0
   16.4899   20.2169  -24.4105 N   0  0  0  0  0  0  0  0  0  0  0  0
   15.7089   20.7858  -23.4295 C   0  0  0  0  0  0  0  0  0  0  0  0
   14.8165   20.2652  -22.7659 O   0  0  0  0  0  0  0  0  0  0  0  0
   16.0884   22.1893  -22.9930 C   0  0  0  0  0  0  0  0  0  0  0  0
   17.0867   20.8628  -24.8530 H   0  0  0  0  0  0  0  0  0  0  0  0
  1  2  1  0  0  0
  1  3  1  0  0  0
  1 12  1  0  0  0
  2  8  1  0  0  0
  3  4  1  0  0  0
  3  7  1  0  0  0
 44  4  1  0  0  0
 44 52  1  0  0  0
  4  6  1  0  0  0
  5  6  1  0  0  0
  6  8  1  0  0  0
  8 14  1  0  0  0
 11 12  1  0  0  0
 28 29  2  0  0  0
 27 29  1  0  0  0
 27 16  1  0  0  0
 42 43  1  0  0  0
 14 15  1  0  0  0
 43 41  1  0  0  0
 18 17  1  0  0  0
 18 20  1  0  0  0
 41 40  1  0  0  0
 19 20  2  0  0  0
 40 39  1  0  0  0
 39 38  1  0  0  0
 38 37  1  0  0  0
 37 35  1  0  0  0
 35 36  2  0  0  0
 36 34  1  0  0  0
 34 33  1  0  0  0
 33 32  1  0  0  0
 32 31  1  0  0  0
 31 30  1  0  0  0
 30 29  1  0  0  0
 16 15  1  0  0  0
 16 17  1  0  0  0
 20 21  1  0  0  0
 21 22  1  0  0  0
 22 23  1  0  0  0
 23 24  1  0  0  0
 24 25  1  0  0  0
 25 26  1  0  0  0
 45 46  1  0  0  0
 45 47  1  0  0  0
 45 53  1  0  0  0
 46 52  1  0  0  0
 47 48  1  0  0  0
 47 50  1  0  0  0
 49 50  1  0  0  0
 50 51  1  0  0  0
 51 57  1  0  0  0
 51 52  1  0  0  0
 57 58  1  0  0  0
 58 59  2  0  0  0
 58 60  1  0  0  0
  5  9  1  0  0  0
  7 10  1  0  0  0
 11 13  1  0  0  0
 48 54  1  0  0  0
 48 55  1  0  0  0
 49 56  1  0  0  0
 57 61  1  0  0  0
M  END
> <minimizedAffinity>
-7.99477

$$$$
3O4K_LTC_C_172


 61 62  0  0  0  0  0  0  0  0999 V2000
    6.1924   22.1277  -26.6120 C   0  0  0  0  0  0  0  0  0  0  0  0
    7.3866   22.3409  -25.8008 O   0  0  0  0  0  0  0  0  0  0  0  0
    6.4709   22.1521  -28.1393 C   0  0  0  0  0  0  0  0  0  0  0  0
    7.9667   22.3455  -28.5096 C   0  0  0  0  0  0  0  0  0  0  0  0
   10.2680   21.5878  -27.8505 O   0  0  0  0  0  0  0  0  0  0  0  0
    8.8522   21.4264  -27.6248 C   0  0  0  0  0  0  0  0  0  0  0  0
    5.5901   23.0716  -28.8390 O   0  0  0  0  0  0  0  0  0  0  0  0
    8.5770   21.5551  -26.1053 C   0  0  0  0  0  0  0  0  0  0  0  0
   10.4551   21.5095  -28.7991 H   0  0  0  0  0  0  0  0  0  0  0  0
    5.7730   23.9788  -28.5484 H   0  0  0  0  0  0  0  0  0  0  0  0
    4.4023   21.1395  -25.3254 O   0  0  0  0  0  0  0  0  0  0  0  0
    5.4827   20.8307  -26.2205 C   0  0  0  0  0  0  0  0  0  0  0  0
    3.9475   20.3208  -25.0729 H   0  0  0  0  0  0  0  0  0  0  0  0
    9.7380   22.0345  -25.3723 O   0  0  0  0  0  0  0  0  0  0  0  0
   10.3411   21.1583  -24.3914 C   0  0  0  0  0  0  0  0  0  0  0  0
   11.8828   21.1842  -24.3497 C   0  0  0  0  0  0  0  0  0  0  0  0
   12.5264   20.9334  -25.7197 C   0  0  0  0  0  0  0  0  0  0  0  0
   13.1061   19.6103  -25.8028 O   0  0  0  0  0  0  0  0  0  0  0  0
   15.3421   20.2008  -26.3328 O   0  0  0  0  0  0  0  0  0  0  0  0
   14.5546   19.3135  -25.9637 C   0  0  0  0  0  0  0  0  0  0  0  0
   15.0544   17.8997  -25.6560 C   0  0  0  0  0  0  0  0  0  0  0  0
   15.5406   17.7656  -24.2132 C   0  0  0  0  0  0  0  0  0  0  0  0
   15.9171   16.3320  -23.8351 C   0  0  0  0  0  0  0  0  0  0  0  0
   17.0422   16.3188  -22.7903 C   0  0  0  0  0  0  0  0  0  0  0  0
   18.3788   15.7655  -23.2914 C   0  0  0  0  0  0  0  0  0  0  0  0
   18.9638   16.5865  -24.4310 C   0  0  0  0  0  0  0  0  0  0  0  0
   12.3340   22.4329  -23.7858 O   0  0  0  0  0  0  0  0  0  0  0  0
   14.1590   23.6274  -22.8499 O   0  0  0  0  0  0  0  0  0  0  0  0
   13.6856   22.5393  -23.1689 C   0  0  0  0  0  0  0  0  0  0  0  0
   14.4960   21.2756  -22.9093 C   0  0  0  0  0  0  0  0  0  0  0  0
   15.0423   21.2934  -21.4779 C   0  0  0  0  0  0  0  0  0  0  0  0
   16.4629   21.8563  -21.4221 C   0  0  0  0  0  0  0  0  0  0  0  0
   17.4242   20.8649  -20.7696 C   0  0  0  0  0  0  0  0  0  0  0  0
   17.7303   19.6128  -21.6053 C   0  0  0  0  0  0  0  0  0  0  0  0
   19.0536   20.2843  -23.7727 C   0  0  0  0  0  0  0  0  0  0  0  0
   19.0564   19.7509  -22.3534 C   0  0  0  0  0  0  0  0  0  0  0  0
   20.3744   20.9370  -24.2265 C   0  0  0  0  0  0  0  0  0  0  0  0
   21.5928   20.8252  -23.2827 C   0  0  0  0  0  0  0  0  0  0  0  0
   22.5243   19.6126  -23.4865 C   0  0  0  0  0  0  0  0  0  0  0  0
   22.3793   18.9716  -24.8836 C   0  0  0  0  0  0  0  0  0  0  0  0
   23.6670   18.9362  -25.7203 C   0  0  0  0  0  0  0  0  0  0  0  0
   24.2647   21.3890  -26.1653 C   0  0  0  0  0  0  0  0  0  0  0  0
   24.6283   20.0989  -25.4284 C   0  0  0  0  0  0  0  0  0  0  0  0
    8.0842   22.1967  -29.9552 O   0  0  0  0  0  0  0  0  0  0  0  0
   11.3183   23.6144  -30.8628 C   0  0  0  0  0  0  0  0  0  0  0  0
   10.2178   23.1100  -30.0887 O   0  0  0  0  0  0  0  0  0  0  0  0
   10.9163   24.0787  -32.2603 C   0  0  0  0  0  0  0  0  0  0  0  0
   12.0383   24.7412  -32.9108 N   0  0  0  0  0  0  0  0  0  0  0  0
    9.9786   26.3098  -31.8986 O   0  0  0  0  0  0  0  0  0  0  0  0
    9.6423   24.9491  -32.2608 C   0  0  0  0  0  0  0  0  0  0  0  0
    8.4835   24.3413  -31.4231 C   0  0  0  0  0  0  0  0  0  0  0  0
    8.9762   22.9780  -30.7938 C   0  0  0  0  0  0  0  0  0  0  0  0
   12.1580   24.7744  -30.3227 C   0  0  0  0  0  0  0  0  0  0  0  0
   12.2949   25.5742  -32.3810 H   0  0  0  0  0  0  0  0  0  0  0  0
   11.7721   25.0093  -33.8582 H   0  0  0  0  0  0  0  0  0  0  0  0
   10.7057   26.6233  -32.4590 H   0  0  0  0  0  0  0  0  0  0  0  0
    7.1983   24.2575  -32.1738 N   0  0  0  0  0  0  0  0  0  0  0  0
    5.9278   24.7347  -31.9416 C   0  0  0  0  0  0  0  0  0  0  0  0
    5.5010   25.3201  -30.9502 O   0  0  0  0  0  0  0  0  0  0  0  0
    4.9597   24.6749  -33.1094 C   0  0  0  0  0  0  0  0  0  0  0  0
    7.2742   23.7531  -33.0158 H   0  0  0  0  0  0  0  0  0  0  0  0
  1  2  1  0  0  0
  1  3  1  0  0  0
  1 12  1  0  0  0
  2  8  1  0  0  0
  3  4  1  0  0  0
  3  7  1  0  0  0
 44  4  1  0  0  0
 44 52  1  0  0  0
  4  6  1  0  0  0
  5  6  1  0  0  0
  6  8  1  0  0  0
  8 14  1  0  0  0
 11 12  1  0  0  0
 28 29  2  0  0  0
 27 29  1  0  0  0
 27 16  1  0  0  0
 42 43  1  0  0  0
 14 15  1  0  0  0
 43 41  1  0  0  0
 18 17  1  0  0  0
 18 20  1  0  0  0
 41 40  1  0  0  0
 19 20  2  0  0  0
 40 39  1  0  0  0
 39 38  1  0  0  0
 38 37  1  0  0  0
 37 35  1  0  0  0
 35 36  2  0  0  0
 36 34  1  0  0  0
 34 33  1  0  0  0
 33 32  1  0  0  0
 32 31  1  0  0  0
 31 30  1  0  0  0
 30 29  1  0  0  0
 16 15  1  0  0  0
 16 17  1  0  0  0
 20 21  1  0  0  0
 21 22  1  0  0  0
 22 23  1  0  0  0
 23 24  1  0  0  0
 24 25  1  0  0  0
 25 26  1  0  0  0
 45 46  1  0  0  0
 45 47  1  0  0  0
 45 53  1  0  0  0
 46 52  1  0  0  0
 47 48  1  0  0  0
 47 50  1  0  0  0
 49 50  1  0  0  0
 50 51  1  0  0  0
 51 57  1  0  0  0
 51 52  1  0  0  0
 57 58  1  0  0  0
 58 59  2  0  0  0
 58 60  1  0  0  0
  5  9  1  0  0  0
  7 10  1  0  0  0
 11 13  1  0  0  0
 48 54  1  0  0  0
 48 55  1  0  0  0
 49 56  1  0  0  0
 57 61  1  0  0  0
M  END
> <minimizedAffinity>
-7.97888

$$$$
3O4K_LTC_C_172


 61 62  0  0  0  0  0  0  0  0999 V2000
   15.6038   19.8516  -25.3665 C   0  0  0  0  0  0  0  0  0  0  0  0
   15.8573   20.6256  -24.1556 O   0  0  0  0  0  0  0  0  0  0  0  0
   16.8942   19.2882  -26.0208 C   0  0  0  0  0  0  0  0  0  0  0  0
   18.1963   19.6099  -25.2379 C   0  0  0  0  0  0  0  0  0  0  0  0
   19.1168   19.6887  -22.9032 O   0  0  0  0  0  0  0  0  0  0  0  0
   17.9781   19.3508  -23.7224 C   0  0  0  0  0  0  0  0  0  0  0  0
   16.9822   19.6265  -27.4311 O   0  0  0  0  0  0  0  0  0  0  0  0
   16.7243   20.0469  -23.1356 C   0  0  0  0  0  0  0  0  0  0  0  0
   19.9102   19.2590  -23.2594 H   0  0  0  0  0  0  0  0  0  0  0  0
   17.0653   20.5880  -27.5283 H   0  0  0  0  0  0  0  0  0  0  0  0
   14.6892   17.7639  -26.1676 O   0  0  0  0  0  0  0  0  0  0  0  0
   14.6043   18.7243  -25.1026 C   0  0  0  0  0  0  0  0  0  0  0  0
   14.0575   17.0457  -26.0064 H   0  0  0  0  0  0  0  0  0  0  0  0
   17.0619   21.0167  -22.1056 O   0  0  0  0  0  0  0  0  0  0  0  0
   16.9494   20.6148  -20.7202 C   0  0  0  0  0  0  0  0  0  0  0  0
   17.6754   21.5287  -19.7118 C   0  0  0  0  0  0  0  0  0  0  0  0
   19.0380   22.0203  -20.2176 C   0  0  0  0  0  0  0  0  0  0  0  0
   19.9326   20.9180  -20.4976 O   0  0  0  0  0  0  0  0  0  0  0  0
   21.2984   21.9108  -22.1643 O   0  0  0  0  0  0  0  0  0  0  0  0
   21.1591   20.9959  -21.3353 C   0  0  0  0  0  0  0  0  0  0  0  0
   22.2466   19.9351  -21.1477 C   0  0  0  0  0  0  0  0  0  0  0  0
   23.6391   20.5556  -21.0393 C   0  0  0  0  0  0  0  0  0  0  0  0
   24.5944   20.0879  -22.1387 C   0  0  0  0  0  0  0  0  0  0  0  0
   26.0471   20.4413  -21.7887 C   0  0  0  0  0  0  0  0  0  0  0  0
   27.0988   19.5001  -22.3819 C   0  0  0  0  0  0  0  0  0  0  0  0
   27.3430   19.7513  -23.8625 C   0  0  0  0  0  0  0  0  0  0  0  0
   16.8231   22.6374  -19.3578 O   0  0  0  0  0  0  0  0  0  0  0  0
   16.5233   24.1329  -17.5393 O   0  0  0  0  0  0  0  0  0  0  0  0
   16.5676   22.9681  -17.9282 C   0  0  0  0  0  0  0  0  0  0  0  0
   16.3382   21.8445  -16.9251 C   0  0  0  0  0  0  0  0  0  0  0  0
   14.8551   21.4603  -16.9052 C   0  0  0  0  0  0  0  0  0  0  0  0
   14.0193   22.4732  -16.1217 C   0  0  0  0  0  0  0  0  0  0  0  0
   13.7842   22.0033  -14.6878 C   0  0  0  0  0  0  0  0  0  0  0  0
   12.9694   22.9692  -13.8143 C   0  0  0  0  0  0  0  0  0  0  0  0
   13.3121   25.4703  -13.0884 C   0  0  0  0  0  0  0  0  0  0  0  0
   13.2451   24.4263  -14.1859 C   0  0  0  0  0  0  0  0  0  0  0  0
   14.1435   26.7228  -13.4297 C   0  0  0  0  0  0  0  0  0  0  0  0
   14.2534   27.1292  -14.9164 C   0  0  0  0  0  0  0  0  0  0  0  0
   14.0765   28.6259  -15.2455 C   0  0  0  0  0  0  0  0  0  0  0  0
   15.3890   29.3007  -15.6989 C   0  0  0  0  0  0  0  0  0  0  0  0
   16.0769   28.6422  -16.9042 C   0  0  0  0  0  0  0  0  0  0  0  0
   18.2886   28.0467  -18.0551 C   0  0  0  0  0  0  0  0  0  0  0  0
   17.6115   28.6603  -16.8286 C   0  0  0  0  0  0  0  0  0  0  0  0
   19.2879   18.8948  -25.8882 O   0  0  0  0  0  0  0  0  0  0  0  0
   18.6022   15.4456  -24.9264 C   0  0  0  0  0  0  0  0  0  0  0  0
   18.5160   16.8760  -25.0324 O   0  0  0  0  0  0  0  0  0  0  0  0
   19.9806   14.8918  -25.2781 C   0  0  0  0  0  0  0  0  0  0  0  0
   20.0427   13.4694  -24.9719 N   0  0  0  0  0  0  0  0  0  0  0  0
   21.3013   15.2522  -23.2498 O   0  0  0  0  0  0  0  0  0  0  0  0
   21.1312   15.6828  -24.6216 C   0  0  0  0  0  0  0  0  0  0  0  0
   20.9909   17.2213  -24.7870 C   0  0  0  0  0  0  0  0  0  0  0  0
   19.6657   17.5239  -25.5930 C   0  0  0  0  0  0  0  0  0  0  0  0
   18.2638   14.7606  -23.6001 C   0  0  0  0  0  0  0  0  0  0  0  0
   19.9117   13.3313  -23.9698 H   0  0  0  0  0  0  0  0  0  0  0  0
   20.9525   13.1012  -25.2498 H   0  0  0  0  0  0  0  0  0  0  0  0
   21.3819   14.2859  -23.2219 H   0  0  0  0  0  0  0  0  0  0  0  0
   22.2186   17.8669  -25.3330 N   0  0  0  0  0  0  0  0  0  0  0  0
   22.7409   19.1384  -25.2534 C   0  0  0  0  0  0  0  0  0  0  0  0
   22.2443   20.1375  -24.7404 O   0  0  0  0  0  0  0  0  0  0  0  0
   24.1763   19.3095  -25.7167 C   0  0  0  0  0  0  0  0  0  0  0  0
   22.7752   17.2526  -25.8642 H   0  0  0  0  0  0  0  0  0  0  0  0
  1  2  1  0  0  0
  1  3  1  0  0  0
  1 12  1  0  0  0
  2  8  1  0  0  0
  3  4  1  0  0  0
  3  7  1  0  0  0
 44  4  1  0  0  0
 44 52  1  0  0  0
  4  6  1  0  0  0
  5  6  1  0  0  0
  6  8  1  0  0  0
  8 14  1  0  0  0
 11 12  1  0  0  0
 28 29  2  0  0  0
 27 29  1  0  0  0
 27 16  1  0  0  0
 42 43  1  0  0  0
 14 15  1  0  0  0
 43 41  1  0  0  0
 18 17  1  0  0  0
 18 20  1  0  0  0
 41 40  1  0  0  0
 19 20  2  0  0  0
 40 39  1  0  0  0
 39 38  1  0  0  0
 38 37  1  0  0  0
 37 35  1  0  0  0
 35 36  2  0  0  0
 36 34  1  0  0  0
 34 33  1  0  0  0
 33 32  1  0  0  0
 32 31  1  0  0  0
 31 30  1  0  0  0
 30 29  1  0  0  0
 16 15  1  0  0  0
 16 17  1  0  0  0
 20 21  1  0  0  0
 21 22  1  0  0  0
 22 23  1  0  0  0
 23 24  1  0  0  0
 24 25  1  0  0  0
 25 26  1  0  0  0
 45 46  1  0  0  0
 45 47  1  0  0  0
 45 53  1  0  0  0
 46 52  1  0  0  0
 47 48  1  0  0  0
 47 50  1  0  0  0
 49 50  1  0  0  0
 50 51  1  0  0  0
 51 57  1  0  0  0
 51 52  1  0  0  0
 57 58  1  0  0  0
 58 59  2  0  0  0
 58 60  1  0  0  0
  5  9  1  0  0  0
  7 10  1  0  0  0
 11 13  1  0  0  0
 48 54  1  0  0  0
 48 55  1  0  0  0
 49 56  1  0  0  0
 57 61  1  0  0  0
M  END
> <minimizedAffinity>
-7.75239

$$$$
