4XU2_44Q_A_300


 44 48  0  0  0  0  0  0  0  0999 V2000
   -3.9847   -4.9494    5.9543 S   0  0  0  0  0  0  0  0  0  0  0  0
   -4.5185   -5.3241    4.6757 O   0  0  0  0  0  0  0  0  0  0  0  0
   -2.5783   -4.6953    5.8078 O   0  0  0  0  0  0  0  0  0  0  0  0
   -4.1326   -5.8960    8.3250 C   0  0  0  0  0  0  0  0  0  0  0  0
   -3.5512   -4.9276    8.7873 O   0  0  0  0  0  0  0  0  0  0  0  0
   -4.2313   -6.1265    7.0156 N   0  0  0  0  0  0  0  0  0  0  0  0
   -4.4583   -7.0297    6.6964 H   0  0  0  0  0  0  0  0  0  0  0  0
   -4.7838   -6.9041    9.2476 C   0  0  0  0  0  0  0  0  0  0  0  0
   -3.7434   -7.4843   10.2002 C   0  0  0  0  0  0  0  0  0  0  0  0
   -4.2851   -7.6225   11.6207 C   0  0  0  0  0  0  0  0  0  0  0  0
   -3.1626   -7.7998   12.6422 C   0  0  0  0  0  0  0  0  0  0  0  0
   -2.5045  -10.0660   13.5820 C   0  0  0  0  0  0  0  0  0  0  0  0
   -1.1830   -9.6200   13.1803 N   0  0  0  0  0  0  0  0  0  0  0  0
   -0.2641   -9.9246   14.0929 C   0  0  0  0  0  0  0  0  0  0  0  0
    0.9058   -9.5815   14.0558 O   0  0  0  0  0  0  0  0  0  0  0  0
   -0.8005  -10.6380   15.0721 N   0  0  0  0  0  0  0  0  0  0  0  0
   -2.2423  -10.6381   14.9757 C   0  0  0  0  0  0  0  0  0  0  0  0
   -2.7769   -9.7432   16.0830 C   0  0  0  0  0  0  0  0  0  0  0  0
   -3.5491   -8.3820   15.2881 S   0  0  0  0  0  0  0  0  0  0  0  0
   -3.5145   -8.9217   13.6136 C   0  0  0  0  0  0  0  0  0  0  0  0
   -0.9905   -9.1501   12.3369 H   0  0  0  0  0  0  0  0  0  0  0  0
   -0.2867  -11.1046   15.7703 H   0  0  0  0  0  0  0  0  0  0  0  0
   -4.6954   -3.5932    6.4134 N   0  0  0  0  0  0  0  0  0  0  0  0
   -4.7604   -3.6366    7.4304 H   0  0  0  0  0  0  0  0  0  0  0  0
   -4.1495   -2.2880    6.0991 C   0  0  0  0  0  0  0  0  0  0  0  0
   -5.2915   -1.2903    6.2428 C   0  0  0  0  0  0  0  0  0  0  0  0
   -6.0357   -1.5457    7.4382 O   0  0  0  0  0  0  0  0  0  0  0  0
   -4.7869    0.1423    6.3364 C   0  0  0  0  0  0  0  0  0  0  0  0
   -5.7717    0.8124    7.2784 C   0  0  0  0  0  0  0  0  0  0  0  0
   -6.3219   -0.3241    8.1279 C   0  0  0  0  0  0  0  0  0  0  0  0
   -6.8492    1.3606    6.5097 O   0  0  0  0  0  0  0  0  0  0  0  0
   -7.2607    0.6579    5.9827 H   0  0  0  0  0  0  0  0  0  0  0  0
   -8.0418   -0.6872   12.1976 C   0  0  0  0  0  0  0  0  0  0  0  0
   -6.3353   -0.4595   10.6215 C   0  0  0  0  0  0  0  0  0  0  0  0
   -5.3983   -0.4360   11.6386 C   0  0  0  0  0  0  0  0  0  0  0  0
   -4.9437   -0.5245   13.9752 N   0  0  0  0  0  0  0  0  0  0  0  0
   -4.3689   -0.2480    9.7273 C   0  0  0  0  0  0  0  0  0  0  0  0
   -5.6803   -0.3431    9.4648 N   0  0  0  0  0  0  0  0  0  0  0  0
   -4.1836   -0.3049   11.0656 N   0  0  0  0  0  0  0  0  0  0  0  0
   -7.6497   -0.5842   10.9211 N   0  0  0  0  0  0  0  0  0  0  0  0
   -7.1532   -0.6647   13.2015 N   0  0  0  0  0  0  0  0  0  0  0  0
   -5.8316   -0.5417   12.9526 C   0  0  0  0  0  0  0  0  0  0  0  0
   -3.9810   -0.4346   13.7897 H   0  0  0  0  0  0  0  0  0  0  0  0
   -5.2610   -0.6018   14.9039 H   0  0  0  0  0  0  0  0  0  0  0  0
  3  1  2  0  0  0
  2  1  2  0  0  0
  1 23  1  0  0  0
  1  6  1  0  0  0
 23 25  1  0  0  0
  6  4  1  0  0  0
 26 25  1  0  0  0
 26 28  1  0  0  0
 26 27  1  0  0  0
 31 29  1  0  0  0
 28 29  1  0  0  0
  4  5  2  0  0  0
  4  8  1  0  0  0
 27 30  1  0  0  0
 29 30  1  0  0  0
  8  9  1  0  0  0
 30 38  1  0  0  0
  9 10  1  0  0  0
 38 34  1  0  0  0
 38 37  1  0  0  0
 40 34  2  0  0  0
 40 33  1  0  0  0
 34 35  1  0  0  0
 10 11  1  0  0  0
 37 39  2  0  0  0
 33 41  2  0  0  0
 35 39  1  0  0  0
 35 42  2  0  0  0
 11 20  1  0  0  0
 41 42  1  0  0  0
 13 12  1  0  0  0
 13 14  1  0  0  0
 42 36  1  0  0  0
 12 20  1  0  0  0
 12 17  1  0  0  0
 20 19  1  0  0  0
 15 14  2  0  0  0
 14 16  1  0  0  0
 17 16  1  0  0  0
 17 18  1  0  0  0
 19 18  1  0  0  0
 36 43  1  0  0  0
 36 44  1  0  0  0
 13 21  1  0  0  0
 16 22  1  0  0  0
  6  7  1  0  0  0
 23 24  1  0  0  0
 31 32  1  0  0  0
M  END
> <minimizedAffinity>
-12.77274

$$$$
4XU2_44Q_A_300


 44 48  0  0  0  0  0  0  0  0999 V2000
   -3.2274   -4.3049    7.0408 S   0  0  0  0  0  0  0  0  0  0  0  0
   -3.1003   -4.9443    5.7621 O   0  0  0  0  0  0  0  0  0  0  0  0
   -1.9961   -3.6278    7.3397 O   0  0  0  0  0  0  0  0  0  0  0  0
   -4.4863   -6.3272    7.9701 C   0  0  0  0  0  0  0  0  0  0  0  0
   -5.3540   -6.2249    7.1179 O   0  0  0  0  0  0  0  0  0  0  0  0
   -3.5509   -5.3984    8.1688 N   0  0  0  0  0  0  0  0  0  0  0  0
   -3.0528   -5.3834    9.0179 H   0  0  0  0  0  0  0  0  0  0  0  0
   -4.4366   -7.5492    8.8622 C   0  0  0  0  0  0  0  0  0  0  0  0
   -3.5152   -7.2885   10.0494 C   0  0  0  0  0  0  0  0  0  0  0  0
   -4.1780   -7.6508   11.3760 C   0  0  0  0  0  0  0  0  0  0  0  0
   -3.1660   -7.7107   12.5193 C   0  0  0  0  0  0  0  0  0  0  0  0
   -2.5436   -9.9859   13.4619 C   0  0  0  0  0  0  0  0  0  0  0  0
   -1.2137   -9.5566   13.0698 N   0  0  0  0  0  0  0  0  0  0  0  0
   -0.3052   -9.8736   13.9885 C   0  0  0  0  0  0  0  0  0  0  0  0
    0.8693   -9.5455   13.9599 O   0  0  0  0  0  0  0  0  0  0  0  0
   -0.8576  -10.5807   14.9634 N   0  0  0  0  0  0  0  0  0  0  0  0
   -2.2985  -10.5622   14.8570 C   0  0  0  0  0  0  0  0  0  0  0  0
   -2.8293   -9.6613   15.9611 C   0  0  0  0  0  0  0  0  0  0  0  0
   -3.5784   -8.2897   15.1620 S   0  0  0  0  0  0  0  0  0  0  0  0
   -3.5390   -8.8287   13.4873 C   0  0  0  0  0  0  0  0  0  0  0  0
   -1.0093   -9.0886   12.2281 H   0  0  0  0  0  0  0  0  0  0  0  0
   -0.3547  -11.0544   15.6649 H   0  0  0  0  0  0  0  0  0  0  0  0
   -4.3899   -3.2125    6.9387 N   0  0  0  0  0  0  0  0  0  0  0  0
   -4.1033   -2.4359    7.5346 H   0  0  0  0  0  0  0  0  0  0  0  0
   -4.7921   -2.6254    5.6761 C   0  0  0  0  0  0  0  0  0  0  0  0
   -4.5502   -1.1262    5.7944 C   0  0  0  0  0  0  0  0  0  0  0  0
   -5.5988   -0.5045    6.5441 O   0  0  0  0  0  0  0  0  0  0  0  0
   -3.2482   -0.8153    6.5182 C   0  0  0  0  0  0  0  0  0  0  0  0
   -3.5546    0.4601    7.2833 C   0  0  0  0  0  0  0  0  0  0  0  0
   -5.0628    0.4318    7.4852 C   0  0  0  0  0  0  0  0  0  0  0  0
   -3.2334    1.5853    6.4569 O   0  0  0  0  0  0  0  0  0  0  0  0
   -3.7266    1.5259    5.6237 H   0  0  0  0  0  0  0  0  0  0  0  0
   -2.8699    0.8682   11.3132 C   0  0  0  0  0  0  0  0  0  0  0  0
   -4.6339    0.2068    9.9351 C   0  0  0  0  0  0  0  0  0  0  0  0
   -5.2876   -0.3308   11.0289 C   0  0  0  0  0  0  0  0  0  0  0  0
   -5.2967   -0.7621   13.3716 N   0  0  0  0  0  0  0  0  0  0  0  0
   -6.5128   -0.6397    9.2536 C   0  0  0  0  0  0  0  0  0  0  0  0
   -5.4035    0.0049    8.8639 N   0  0  0  0  0  0  0  0  0  0  0  0
   -6.4520   -0.8512   10.5880 N   0  0  0  0  0  0  0  0  0  0  0  0
   -3.4276    0.7998   10.0974 N   0  0  0  0  0  0  0  0  0  0  0  0
   -3.4825    0.3526   12.3887 N   0  0  0  0  0  0  0  0  0  0  0  0
   -4.6863   -0.2489   12.2769 C   0  0  0  0  0  0  0  0  0  0  0  0
   -6.1744   -1.1999   13.2860 H   0  0  0  0  0  0  0  0  0  0  0  0
   -4.8627   -0.6975   14.2529 H   0  0  0  0  0  0  0  0  0  0  0  0
  3  1  2  0  0  0
  2  1  2  0  0  0
  1 23  1  0  0  0
  1  6  1  0  0  0
 23 25  1  0  0  0
  6  4  1  0  0  0
 26 25  1  0  0  0
 26 28  1  0  0  0
 26 27  1  0  0  0
 31 29  1  0  0  0
 28 29  1  0  0  0
  4  5  2  0  0  0
  4  8  1  0  0  0
 27 30  1  0  0  0
 29 30  1  0  0  0
  8  9  1  0  0  0
 30 38  1  0  0  0
  9 10  1  0  0  0
 38 34  1  0  0  0
 38 37  1  0  0  0
 40 34  2  0  0  0
 40 33  1  0  0  0
 34 35  1  0  0  0
 10 11  1  0  0  0
 37 39  2  0  0  0
 33 41  2  0  0  0
 35 39  1  0  0  0
 35 42  2  0  0  0
 11 20  1  0  0  0
 41 42  1  0  0  0
 13 12  1  0  0  0
 13 14  1  0  0  0
 42 36  1  0  0  0
 12 20  1  0  0  0
 12 17  1  0  0  0
 20 19  1  0  0  0
 15 14  2  0  0  0
 14 16  1  0  0  0
 17 16  1  0  0  0
 17 18  1  0  0  0
 19 18  1  0  0  0
 36 43  1  0  0  0
 36 44  1  0  0  0
 13 21  1  0  0  0
 16 22  1  0  0  0
  6  7  1  0  0  0
 23 24  1  0  0  0
 31 32  1  0  0  0
M  END
> <minimizedAffinity>
-11.30426

$$$$
4XU2_44Q_A_300


 44 48  0  0  0  0  0  0  0  0999 V2000
   -3.7682   -4.5861    6.6944 S   0  0  0  0  0  0  0  0  0  0  0  0
   -2.6242   -4.6723    5.8319 O   0  0  0  0  0  0  0  0  0  0  0  0
   -3.8523   -3.2489    7.2128 O   0  0  0  0  0  0  0  0  0  0  0  0
   -4.5434   -6.5949    8.0735 C   0  0  0  0  0  0  0  0  0  0  0  0
   -5.6627   -6.5415    7.5898 O   0  0  0  0  0  0  0  0  0  0  0  0
   -3.6288   -5.6417    7.8941 N   0  0  0  0  0  0  0  0  0  0  0  0
   -2.8589   -5.5850    8.5050 H   0  0  0  0  0  0  0  0  0  0  0  0
   -4.1373   -7.7809    8.9220 C   0  0  0  0  0  0  0  0  0  0  0  0
   -4.2369   -7.4201   10.4007 C   0  0  0  0  0  0  0  0  0  0  0  0
   -3.5970   -8.4820   11.2912 C   0  0  0  0  0  0  0  0  0  0  0  0
   -3.2813   -7.9403   12.6847 C   0  0  0  0  0  0  0  0  0  0  0  0
   -2.4821  -10.0929   13.7709 C   0  0  0  0  0  0  0  0  0  0  0  0
   -1.1926   -9.5985   13.3243 N   0  0  0  0  0  0  0  0  0  0  0  0
   -0.2505   -9.7841   14.2452 C   0  0  0  0  0  0  0  0  0  0  0  0
    0.8965   -9.3759   14.1712 O   0  0  0  0  0  0  0  0  0  0  0  0
   -0.7362  -10.4583   15.2773 N   0  0  0  0  0  0  0  0  0  0  0  0
   -2.1760  -10.5503   15.1976 C   0  0  0  0  0  0  0  0  0  0  0  0
   -2.7551   -9.6138   16.2465 C   0  0  0  0  0  0  0  0  0  0  0  0
   -3.6130   -8.3592   15.3687 S   0  0  0  0  0  0  0  0  0  0  0  0
   -3.5584   -9.0109   13.7350 C   0  0  0  0  0  0  0  0  0  0  0  0
   -1.0347   -9.1778   12.4484 H   0  0  0  0  0  0  0  0  0  0  0  0
   -0.1903  -10.8440   16.0001 H   0  0  0  0  0  0  0  0  0  0  0  0
   -5.0754   -4.8690    5.8189 N   0  0  0  0  0  0  0  0  0  0  0  0
   -5.8181   -4.2999    6.2250 H   0  0  0  0  0  0  0  0  0  0  0  0
   -5.1176   -4.6285    4.3904 C   0  0  0  0  0  0  0  0  0  0  0  0
   -6.2097   -3.5934    4.1535 C   0  0  0  0  0  0  0  0  0  0  0  0
   -6.4177   -2.8030    5.3283 O   0  0  0  0  0  0  0  0  0  0  0  0
   -5.8464   -2.6293    3.0335 C   0  0  0  0  0  0  0  0  0  0  0  0
   -6.4602   -1.3126    3.4757 C   0  0  0  0  0  0  0  0  0  0  0  0
   -6.5366   -1.4165    4.9920 C   0  0  0  0  0  0  0  0  0  0  0  0
   -7.7956   -1.2281    2.9637 O   0  0  0  0  0  0  0  0  0  0  0  0
   -8.3069   -1.9949    3.2661 H   0  0  0  0  0  0  0  0  0  0  0  0
   -5.7471   -0.4128    9.2372 C   0  0  0  0  0  0  0  0  0  0  0  0
   -5.3294   -0.4258    6.9408 C   0  0  0  0  0  0  0  0  0  0  0  0
   -4.1816    0.3184    7.1448 C   0  0  0  0  0  0  0  0  0  0  0  0
   -2.7251    1.4147    8.6782 N   0  0  0  0  0  0  0  0  0  0  0  0
   -4.3976   -0.0739    5.0123 C   0  0  0  0  0  0  0  0  0  0  0  0
   -5.4379   -0.6517    5.6302 N   0  0  0  0  0  0  0  0  0  0  0  0
   -3.6156    0.5270    5.9377 N   0  0  0  0  0  0  0  0  0  0  0  0
   -6.0979   -0.7796    7.9978 N   0  0  0  0  0  0  0  0  0  0  0  0
   -4.6405    0.3106    9.4608 N   0  0  0  0  0  0  0  0  0  0  0  0
   -3.8424    0.6876    8.4388 C   0  0  0  0  0  0  0  0  0  0  0  0
   -2.1459    1.6876    7.9304 H   0  0  0  0  0  0  0  0  0  0  0  0
   -2.4923    1.6703    9.6000 H   0  0  0  0  0  0  0  0  0  0  0  0
  3  1  2  0  0  0
  2  1  2  0  0  0
  1 23  1  0  0  0
  1  6  1  0  0  0
 23 25  1  0  0  0
  6  4  1  0  0  0
 26 25  1  0  0  0
 26 28  1  0  0  0
 26 27  1  0  0  0
 31 29  1  0  0  0
 28 29  1  0  0  0
  4  5  2  0  0  0
  4  8  1  0  0  0
 27 30  1  0  0  0
 29 30  1  0  0  0
  8  9  1  0  0  0
 30 38  1  0  0  0
  9 10  1  0  0  0
 38 34  1  0  0  0
 38 37  1  0  0  0
 40 34  2  0  0  0
 40 33  1  0  0  0
 34 35  1  0  0  0
 10 11  1  0  0  0
 37 39  2  0  0  0
 33 41  2  0  0  0
 35 39  1  0  0  0
 35 42  2  0  0  0
 11 20  1  0  0  0
 41 42  1  0  0  0
 13 12  1  0  0  0
 13 14  1  0  0  0
 42 36  1  0  0  0
 12 20  1  0  0  0
 12 17  1  0  0  0
 20 19  1  0  0  0
 15 14  2  0  0  0
 14 16  1  0  0  0
 17 16  1  0  0  0
 17 18  1  0  0  0
 19 18  1  0  0  0
 36 43  1  0  0  0
 36 44  1  0  0  0
 13 21  1  0  0  0
 16 22  1  0  0  0
  6  7  1  0  0  0
 23 24  1  0  0  0
 31 32  1  0  0  0
M  END
> <minimizedAffinity>
-11.03613

$$$$
4XU2_44Q_A_300


 44 48  0  0  0  0  0  0  0  0999 V2000
   -4.1514   -4.6834    6.2459 S   0  0  0  0  0  0  0  0  0  0  0  0
   -2.8000   -4.6453    5.7639 O   0  0  0  0  0  0  0  0  0  0  0  0
   -4.3812   -3.5219    7.0596 O   0  0  0  0  0  0  0  0  0  0  0  0
   -4.0710   -6.0670    8.3948 C   0  0  0  0  0  0  0  0  0  0  0  0
   -3.3085   -5.2725    8.9212 O   0  0  0  0  0  0  0  0  0  0  0  0
   -4.3892   -6.0194    7.1010 N   0  0  0  0  0  0  0  0  0  0  0  0
   -4.7747   -6.8137    6.6653 H   0  0  0  0  0  0  0  0  0  0  0  0
   -4.7043   -7.1710    9.2144 C   0  0  0  0  0  0  0  0  0  0  0  0
   -3.6849   -7.7383   10.1970 C   0  0  0  0  0  0  0  0  0  0  0  0
   -4.2960   -7.9844   11.5740 C   0  0  0  0  0  0  0  0  0  0  0  0
   -3.2427   -7.9371   12.6800 C   0  0  0  0  0  0  0  0  0  0  0  0
   -2.3877  -10.0975   13.7067 C   0  0  0  0  0  0  0  0  0  0  0  0
   -1.1094   -9.5473   13.2947 N   0  0  0  0  0  0  0  0  0  0  0  0
   -0.1737   -9.7327   14.2221 C   0  0  0  0  0  0  0  0  0  0  0  0
    0.9602   -9.2855   14.1776 O   0  0  0  0  0  0  0  0  0  0  0  0
   -0.6505  -10.4559   15.2248 N   0  0  0  0  0  0  0  0  0  0  0  0
   -2.0854  -10.5916   15.1220 C   0  0  0  0  0  0  0  0  0  0  0  0
   -2.7084   -9.7093   16.1926 C   0  0  0  0  0  0  0  0  0  0  0  0
   -3.5954   -8.4547   15.3440 S   0  0  0  0  0  0  0  0  0  0  0  0
   -3.4983   -9.0501   13.6909 C   0  0  0  0  0  0  0  0  0  0  0  0
   -0.9539   -9.0931   12.4352 H   0  0  0  0  0  0  0  0  0  0  0  0
   -0.1018  -10.8475   15.9423 H   0  0  0  0  0  0  0  0  0  0  0  0
   -5.1324   -4.6164    4.9856 N   0  0  0  0  0  0  0  0  0  0  0  0
   -6.0714   -4.7838    5.3472 H   0  0  0  0  0  0  0  0  0  0  0  0
   -5.2284   -3.4430    4.1405 C   0  0  0  0  0  0  0  0  0  0  0  0
   -6.6726   -3.3655    3.6625 C   0  0  0  0  0  0  0  0  0  0  0  0
   -7.4613   -2.5864    4.5676 O   0  0  0  0  0  0  0  0  0  0  0  0
   -6.7852   -2.7019    2.2977 C   0  0  0  0  0  0  0  0  0  0  0  0
   -8.1034   -1.9511    2.3676 C   0  0  0  0  0  0  0  0  0  0  0  0
   -8.3149   -1.6873    3.8514 C   0  0  0  0  0  0  0  0  0  0  0  0
   -9.1528   -2.8129    1.9108 O   0  0  0  0  0  0  0  0  0  0  0  0
   -9.1600   -3.6237    2.4431 H   0  0  0  0  0  0  0  0  0  0  0  0
   -5.6168   -0.0152    6.9460 C   0  0  0  0  0  0  0  0  0  0  0  0
   -7.1254    0.0708    5.1670 C   0  0  0  0  0  0  0  0  0  0  0  0
   -7.0602    1.4523    5.1777 C   0  0  0  0  0  0  0  0  0  0  0  0
   -6.1532    3.4290    6.1495 N   0  0  0  0  0  0  0  0  0  0  0  0
   -8.4252    0.8232    3.6000 C   0  0  0  0  0  0  0  0  0  0  0  0
   -7.9657   -0.2874    4.1943 N   0  0  0  0  0  0  0  0  0  0  0  0
   -7.8723    1.9025    4.1985 N   0  0  0  0  0  0  0  0  0  0  0  0
   -6.3986   -0.6435    6.0584 N   0  0  0  0  0  0  0  0  0  0  0  0
   -5.5382    1.3230    6.9780 N   0  0  0  0  0  0  0  0  0  0  0  0
   -6.2444    2.0783    6.1096 C   0  0  0  0  0  0  0  0  0  0  0  0
   -6.6697    3.9762    5.5146 H   0  0  0  0  0  0  0  0  0  0  0  0
   -5.5704    3.8636    6.8133 H   0  0  0  0  0  0  0  0  0  0  0  0
  3  1  2  0  0  0
  2  1  2  0  0  0
  1 23  1  0  0  0
  1  6  1  0  0  0
 23 25  1  0  0  0
  6  4  1  0  0  0
 26 25  1  0  0  0
 26 28  1  0  0  0
 26 27  1  0  0  0
 31 29  1  0  0  0
 28 29  1  0  0  0
  4  5  2  0  0  0
  4  8  1  0  0  0
 27 30  1  0  0  0
 29 30  1  0  0  0
  8  9  1  0  0  0
 30 38  1  0  0  0
  9 10  1  0  0  0
 38 34  1  0  0  0
 38 37  1  0  0  0
 40 34  2  0  0  0
 40 33  1  0  0  0
 34 35  1  0  0  0
 10 11  1  0  0  0
 37 39  2  0  0  0
 33 41  2  0  0  0
 35 39  1  0  0  0
 35 42  2  0  0  0
 11 20  1  0  0  0
 41 42  1  0  0  0
 13 12  1  0  0  0
 13 14  1  0  0  0
 42 36  1  0  0  0
 12 20  1  0  0  0
 12 17  1  0  0  0
 20 19  1  0  0  0
 15 14  2  0  0  0
 14 16  1  0  0  0
 17 16  1  0  0  0
 17 18  1  0  0  0
 19 18  1  0  0  0
 36 43  1  0  0  0
 36 44  1  0  0  0
 13 21  1  0  0  0
 16 22  1  0  0  0
  6  7  1  0  0  0
 23 24  1  0  0  0
 31 32  1  0  0  0
M  END
> <minimizedAffinity>
-10.75080

$$$$
4XU2_44Q_A_300


 44 48  0  0  0  0  0  0  0  0999 V2000
   -3.0589   -4.2653    7.4173 S   0  0  0  0  0  0  0  0  0  0  0  0
   -3.1150   -4.7292    6.0603 O   0  0  0  0  0  0  0  0  0  0  0  0
   -1.7188   -3.8306    7.6987 O   0  0  0  0  0  0  0  0  0  0  0  0
   -4.4473   -6.3059    8.0857 C   0  0  0  0  0  0  0  0  0  0  0  0
   -5.2671   -6.0806    7.2101 O   0  0  0  0  0  0  0  0  0  0  0  0
   -3.4837   -5.4460    8.4165 N   0  0  0  0  0  0  0  0  0  0  0  0
   -3.0275   -5.5368    9.2842 H   0  0  0  0  0  0  0  0  0  0  0  0
   -4.4937   -7.6093    8.8541 C   0  0  0  0  0  0  0  0  0  0  0  0
   -3.4662   -7.5847    9.9811 C   0  0  0  0  0  0  0  0  0  0  0  0
   -4.1270   -7.6336   11.3564 C   0  0  0  0  0  0  0  0  0  0  0  0
   -3.0953   -7.7300   12.4795 C   0  0  0  0  0  0  0  0  0  0  0  0
   -2.3655   -9.9367   13.5043 C   0  0  0  0  0  0  0  0  0  0  0  0
   -1.0479   -9.3923   13.2319 N   0  0  0  0  0  0  0  0  0  0  0  0
   -0.2048   -9.6233   14.2349 C   0  0  0  0  0  0  0  0  0  0  0  0
    0.9336   -9.1920   14.3112 O   0  0  0  0  0  0  0  0  0  0  0  0
   -0.7814  -10.3727   15.1631 N   0  0  0  0  0  0  0  0  0  0  0  0
   -2.2021  -10.4830   14.9232 C   0  0  0  0  0  0  0  0  0  0  0  0
   -2.9113   -9.6282   15.9619 C   0  0  0  0  0  0  0  0  0  0  0  0
   -3.7004   -8.3322   15.0796 S   0  0  0  0  0  0  0  0  0  0  0  0
   -3.4572   -8.8727   13.4227 C   0  0  0  0  0  0  0  0  0  0  0  0
   -0.8077   -8.9117   12.4070 H   0  0  0  0  0  0  0  0  0  0  0  0
   -0.3065  -10.7966   15.9141 H   0  0  0  0  0  0  0  0  0  0  0  0
   -4.0350   -3.0069    7.5550 N   0  0  0  0  0  0  0  0  0  0  0  0
   -4.6028   -3.1771    8.3851 H   0  0  0  0  0  0  0  0  0  0  0  0
   -3.5378   -1.6510    7.6769 C   0  0  0  0  0  0  0  0  0  0  0  0
   -4.5879   -0.7424    7.0508 C   0  0  0  0  0  0  0  0  0  0  0  0
   -4.5291   -0.8146    5.6226 O   0  0  0  0  0  0  0  0  0  0  0  0
   -5.9997   -1.1426    7.4535 C   0  0  0  0  0  0  0  0  0  0  0  0
   -6.8305   -0.8293    6.2217 C   0  0  0  0  0  0  0  0  0  0  0  0
   -5.8445   -0.9086    5.0652 C   0  0  0  0  0  0  0  0  0  0  0  0
   -7.3066    0.5188    6.3139 O   0  0  0  0  0  0  0  0  0  0  0  0
   -6.5533    1.1215    6.4155 H   0  0  0  0  0  0  0  0  0  0  0  0
   -8.6284   -2.1562    1.8487 C   0  0  0  0  0  0  0  0  0  0  0  0
   -6.8852   -2.4266    3.3772 C   0  0  0  0  0  0  0  0  0  0  0  0
   -6.7072   -3.7282    2.9449 C   0  0  0  0  0  0  0  0  0  0  0  0
   -7.3835   -5.4887    1.4896 N   0  0  0  0  0  0  0  0  0  0  0  0
   -5.2574   -3.3025    4.5149 C   0  0  0  0  0  0  0  0  0  0  0  0
   -5.9873   -2.1921    4.3361 N   0  0  0  0  0  0  0  0  0  0  0  0
   -5.6928   -4.2566    3.6610 N   0  0  0  0  0  0  0  0  0  0  0  0
   -7.8502   -1.6586    2.8186 N   0  0  0  0  0  0  0  0  0  0  0  0
   -8.4771   -3.4155    1.4138 N   0  0  0  0  0  0  0  0  0  0  0  0
   -7.5289   -4.2199    1.9404 C   0  0  0  0  0  0  0  0  0  0  0  0
   -6.6910   -6.0721    1.8761 H   0  0  0  0  0  0  0  0  0  0  0  0
   -7.9703   -5.8277    0.7755 H   0  0  0  0  0  0  0  0  0  0  0  0
  3  1  2  0  0  0
  2  1  2  0  0  0
  1 23  1  0  0  0
  1  6  1  0  0  0
 23 25  1  0  0  0
  6  4  1  0  0  0
 26 25  1  0  0  0
 26 28  1  0  0  0
 26 27  1  0  0  0
 31 29  1  0  0  0
 28 29  1  0  0  0
  4  5  2  0  0  0
  4  8  1  0  0  0
 27 30  1  0  0  0
 29 30  1  0  0  0
  8  9  1  0  0  0
 30 38  1  0  0  0
  9 10  1  0  0  0
 38 34  1  0  0  0
 38 37  1  0  0  0
 40 34  2  0  0  0
 40 33  1  0  0  0
 34 35  1  0  0  0
 10 11  1  0  0  0
 37 39  2  0  0  0
 33 41  2  0  0  0
 35 39  1  0  0  0
 35 42  2  0  0  0
 11 20  1  0  0  0
 41 42  1  0  0  0
 13 12  1  0  0  0
 13 14  1  0  0  0
 42 36  1  0  0  0
 12 20  1  0  0  0
 12 17  1  0  0  0
 20 19  1  0  0  0
 15 14  2  0  0  0
 14 16  1  0  0  0
 17 16  1  0  0  0
 17 18  1  0  0  0
 19 18  1  0  0  0
 36 43  1  0  0  0
 36 44  1  0  0  0
 13 21  1  0  0  0
 16 22  1  0  0  0
  6  7  1  0  0  0
 23 24  1  0  0  0
 31 32  1  0  0  0
M  END
> <minimizedAffinity>
-10.72191

$$$$
4XU2_44Q_A_300


 44 48  0  0  0  0  0  0  0  0999 V2000
   -3.3078   -4.2268    6.9989 S   0  0  0  0  0  0  0  0  0  0  0  0
   -2.9736   -4.9268    5.7913 O   0  0  0  0  0  0  0  0  0  0  0  0
   -2.1768   -3.4366    7.3993 O   0  0  0  0  0  0  0  0  0  0  0  0
   -4.5555   -6.2628    7.9136 C   0  0  0  0  0  0  0  0  0  0  0  0
   -5.3358   -6.2519    6.9752 O   0  0  0  0  0  0  0  0  0  0  0  0
   -3.6911   -5.2758    8.1503 N   0  0  0  0  0  0  0  0  0  0  0  0
   -3.2833   -5.1897    9.0422 H   0  0  0  0  0  0  0  0  0  0  0  0
   -4.5378   -7.4321    8.8747 C   0  0  0  0  0  0  0  0  0  0  0  0
   -3.7478   -7.0636   10.1265 C   0  0  0  0  0  0  0  0  0  0  0  0
   -4.1743   -7.8933   11.3348 C   0  0  0  0  0  0  0  0  0  0  0  0
   -3.0914   -7.9265   12.4123 C   0  0  0  0  0  0  0  0  0  0  0  0
   -2.3431  -10.0512   13.5860 C   0  0  0  0  0  0  0  0  0  0  0  0
   -1.0317   -9.5453   13.2240 N   0  0  0  0  0  0  0  0  0  0  0  0
   -0.1549   -9.7039   14.2120 C   0  0  0  0  0  0  0  0  0  0  0  0
    0.9890   -9.2805   14.2129 O   0  0  0  0  0  0  0  0  0  0  0  0
   -0.7037  -10.3695   15.2177 N   0  0  0  0  0  0  0  0  0  0  0  0
   -2.1329  -10.4831   15.0379 C   0  0  0  0  0  0  0  0  0  0  0  0
   -2.7971   -9.5395   16.0284 C   0  0  0  0  0  0  0  0  0  0  0  0
   -3.6070   -8.3102   15.0724 S   0  0  0  0  0  0  0  0  0  0  0  0
   -3.4282   -8.9852   13.4571 C   0  0  0  0  0  0  0  0  0  0  0  0
   -0.8176   -9.1354   12.3549 H   0  0  0  0  0  0  0  0  0  0  0  0
   -0.2055  -10.7367   15.9833 H   0  0  0  0  0  0  0  0  0  0  0  0
   -4.5244   -3.2393    6.6826 N   0  0  0  0  0  0  0  0  0  0  0  0
   -5.3400   -3.6342    7.1507 H   0  0  0  0  0  0  0  0  0  0  0  0
   -4.4946   -1.8350    7.0395 C   0  0  0  0  0  0  0  0  0  0  0  0
   -4.9668   -1.7411    8.4847 C   0  0  0  0  0  0  0  0  0  0  0  0
   -3.8509   -1.6124    9.3715 O   0  0  0  0  0  0  0  0  0  0  0  0
   -5.8543   -0.5267    8.7155 C   0  0  0  0  0  0  0  0  0  0  0  0
   -5.5172   -0.0956   10.1320 C   0  0  0  0  0  0  0  0  0  0  0  0
   -4.1035   -0.6099   10.3620 C   0  0  0  0  0  0  0  0  0  0  0  0
   -6.3938   -0.7696   11.0429 O   0  0  0  0  0  0  0  0  0  0  0  0
   -6.3140   -1.7283   10.9189 H   0  0  0  0  0  0  0  0  0  0  0  0
   -0.8961    0.0901    7.3829 C   0  0  0  0  0  0  0  0  0  0  0  0
   -2.1931    0.5656    9.2644 C   0  0  0  0  0  0  0  0  0  0  0  0
   -1.4635    1.7214    9.4759 C   0  0  0  0  0  0  0  0  0  0  0  0
    0.3017    3.1585    8.7737 N   0  0  0  0  0  0  0  0  0  0  0  0
   -2.9822    1.5523   11.0293 C   0  0  0  0  0  0  0  0  0  0  0  0
   -3.1139    0.4863   10.2269 N   0  0  0  0  0  0  0  0  0  0  0  0
   -1.9671    2.3216   10.5746 N   0  0  0  0  0  0  0  0  0  0  0  0
   -1.8936   -0.2359    8.2152 N   0  0  0  0  0  0  0  0  0  0  0  0
   -0.1728    1.2039    7.5678 N   0  0  0  0  0  0  0  0  0  0  0  0
   -0.4335    2.0344    8.6002 C   0  0  0  0  0  0  0  0  0  0  0  0
    0.1086    3.7615    9.5275 H   0  0  0  0  0  0  0  0  0  0  0  0
    1.0293    3.3726    8.1460 H   0  0  0  0  0  0  0  0  0  0  0  0
  3  1  2  0  0  0
  2  1  2  0  0  0
  1 23  1  0  0  0
  1  6  1  0  0  0
 23 25  1  0  0  0
  6  4  1  0  0  0
 26 25  1  0  0  0
 26 28  1  0  0  0
 26 27  1  0  0  0
 31 29  1  0  0  0
 28 29  1  0  0  0
  4  5  2  0  0  0
  4  8  1  0  0  0
 27 30  1  0  0  0
 29 30  1  0  0  0
  8  9  1  0  0  0
 30 38  1  0  0  0
  9 10  1  0  0  0
 38 34  1  0  0  0
 38 37  1  0  0  0
 40 34  2  0  0  0
 40 33  1  0  0  0
 34 35  1  0  0  0
 10 11  1  0  0  0
 37 39  2  0  0  0
 33 41  2  0  0  0
 35 39  1  0  0  0
 35 42  2  0  0  0
 11 20  1  0  0  0
 41 42  1  0  0  0
 13 12  1  0  0  0
 13 14  1  0  0  0
 42 36  1  0  0  0
 12 20  1  0  0  0
 12 17  1  0  0  0
 20 19  1  0  0  0
 15 14  2  0  0  0
 14 16  1  0  0  0
 17 16  1  0  0  0
 17 18  1  0  0  0
 19 18  1  0  0  0
 36 43  1  0  0  0
 36 44  1  0  0  0
 13 21  1  0  0  0
 16 22  1  0  0  0
  6  7  1  0  0  0
 23 24  1  0  0  0
 31 32  1  0  0  0
M  END
> <minimizedAffinity>
-10.54931

$$$$
4XU2_44Q_A_300


 44 48  0  0  0  0  0  0  0  0999 V2000
   -3.7772   -4.3483    6.6578 S   0  0  0  0  0  0  0  0  0  0  0  0
   -2.3516   -4.2122    6.5624 O   0  0  0  0  0  0  0  0  0  0  0  0
   -4.2777   -3.3287    7.5374 O   0  0  0  0  0  0  0  0  0  0  0  0
   -3.9469   -6.1122    8.5013 C   0  0  0  0  0  0  0  0  0  0  0  0
   -3.1951   -5.4802    9.2258 O   0  0  0  0  0  0  0  0  0  0  0  0
   -4.1508   -5.8032    7.2205 N   0  0  0  0  0  0  0  0  0  0  0  0
   -4.5352   -6.4758    6.6130 H   0  0  0  0  0  0  0  0  0  0  0  0
   -4.7000   -7.3079    9.0442 C   0  0  0  0  0  0  0  0  0  0  0  0
   -3.8564   -8.0183   10.0979 C   0  0  0  0  0  0  0  0  0  0  0  0
   -4.2612   -7.6213   11.5152 C   0  0  0  0  0  0  0  0  0  0  0  0
   -3.1147   -7.8096   12.5076 C   0  0  0  0  0  0  0  0  0  0  0  0
   -2.3765   -9.9939   13.5735 C   0  0  0  0  0  0  0  0  0  0  0  0
   -1.0625   -9.4743   13.2418 N   0  0  0  0  0  0  0  0  0  0  0  0
   -0.1893   -9.6860   14.2230 C   0  0  0  0  0  0  0  0  0  0  0  0
    0.9558   -9.2668   14.2490 O   0  0  0  0  0  0  0  0  0  0  0  0
   -0.7433  -10.4004   15.1917 N   0  0  0  0  0  0  0  0  0  0  0  0
   -2.1723  -10.5001   15.0020 C   0  0  0  0  0  0  0  0  0  0  0  0
   -2.8368   -9.6063   16.0374 C   0  0  0  0  0  0  0  0  0  0  0  0
   -3.6400   -8.3272   15.1431 S   0  0  0  0  0  0  0  0  0  0  0  0
   -3.4580   -8.9193   13.4960 C   0  0  0  0  0  0  0  0  0  0  0  0
   -0.8444   -9.0212   12.3954 H   0  0  0  0  0  0  0  0  0  0  0  0
   -0.2486  -10.8079   15.9390 H   0  0  0  0  0  0  0  0  0  0  0  0
   -4.3994   -4.1087    5.2050 N   0  0  0  0  0  0  0  0  0  0  0  0
   -5.0737   -4.8596    5.0572 H   0  0  0  0  0  0  0  0  0  0  0  0
   -5.0787   -2.8797    4.8466 C   0  0  0  0  0  0  0  0  0  0  0  0
   -6.4498   -3.2770    4.3151 C   0  0  0  0  0  0  0  0  0  0  0  0
   -7.4166   -2.2635    4.6087 O   0  0  0  0  0  0  0  0  0  0  0  0
   -6.4443   -3.4550    2.8038 C   0  0  0  0  0  0  0  0  0  0  0  0
   -7.8230   -2.9817    2.3783 C   0  0  0  0  0  0  0  0  0  0  0  0
   -8.2482   -2.0114    3.4709 C   0  0  0  0  0  0  0  0  0  0  0  0
   -8.7218   -4.0973    2.3942 O   0  0  0  0  0  0  0  0  0  0  0  0
   -8.7243   -4.4980    3.2775 H   0  0  0  0  0  0  0  0  0  0  0  0
  -10.8693    1.5388    3.8937 C   0  0  0  0  0  0  0  0  0  0  0  0
   -8.9626    0.3691    3.2269 C   0  0  0  0  0  0  0  0  0  0  0  0
   -8.4464    1.5260    2.6719 C   0  0  0  0  0  0  0  0  0  0  0  0
   -8.7152    3.8489    2.2181 N   0  0  0  0  0  0  0  0  0  0  0  0
   -7.0250   -0.0972    2.3672 C   0  0  0  0  0  0  0  0  0  0  0  0
   -8.0750   -0.6069    3.0271 N   0  0  0  0  0  0  0  0  0  0  0  0
   -7.2434    1.2185    2.1435 N   0  0  0  0  0  0  0  0  0  0  0  0
  -10.1740    0.3958    3.8311 N   0  0  0  0  0  0  0  0  0  0  0  0
  -10.3915    2.6729    3.3613 N   0  0  0  0  0  0  0  0  0  0  0  0
   -9.1886    2.6960    2.7483 C   0  0  0  0  0  0  0  0  0  0  0  0
   -7.8377    3.8618    1.7720 H   0  0  0  0  0  0  0  0  0  0  0  0
   -9.2487    4.6742    2.2789 H   0  0  0  0  0  0  0  0  0  0  0  0
  3  1  2  0  0  0
  2  1  2  0  0  0
  1 23  1  0  0  0
  1  6  1  0  0  0
 23 25  1  0  0  0
  6  4  1  0  0  0
 26 25  1  0  0  0
 26 28  1  0  0  0
 26 27  1  0  0  0
 31 29  1  0  0  0
 28 29  1  0  0  0
  4  5  2  0  0  0
  4  8  1  0  0  0
 27 30  1  0  0  0
 29 30  1  0  0  0
  8  9  1  0  0  0
 30 38  1  0  0  0
  9 10  1  0  0  0
 38 34  1  0  0  0
 38 37  1  0  0  0
 40 34  2  0  0  0
 40 33  1  0  0  0
 34 35  1  0  0  0
 10 11  1  0  0  0
 37 39  2  0  0  0
 33 41  2  0  0  0
 35 39  1  0  0  0
 35 42  2  0  0  0
 11 20  1  0  0  0
 41 42  1  0  0  0
 13 12  1  0  0  0
 13 14  1  0  0  0
 42 36  1  0  0  0
 12 20  1  0  0  0
 12 17  1  0  0  0
 20 19  1  0  0  0
 15 14  2  0  0  0
 14 16  1  0  0  0
 17 16  1  0  0  0
 17 18  1  0  0  0
 19 18  1  0  0  0
 36 43  1  0  0  0
 36 44  1  0  0  0
 13 21  1  0  0  0
 16 22  1  0  0  0
  6  7  1  0  0  0
 23 24  1  0  0  0
 31 32  1  0  0  0
M  END
> <minimizedAffinity>
-10.45551

$$$$
4XU2_44Q_A_300


 44 48  0  0  0  0  0  0  0  0999 V2000
   -3.0560   -4.2321    6.8879 S   0  0  0  0  0  0  0  0  0  0  0  0
   -3.1439   -4.8970    5.6189 O   0  0  0  0  0  0  0  0  0  0  0  0
   -1.6905   -3.8443    7.1091 O   0  0  0  0  0  0  0  0  0  0  0  0
   -4.4768   -6.1450    7.8155 C   0  0  0  0  0  0  0  0  0  0  0  0
   -5.2210   -6.1097    6.8489 O   0  0  0  0  0  0  0  0  0  0  0  0
   -3.5531   -5.2139    8.0548 N   0  0  0  0  0  0  0  0  0  0  0  0
   -3.1717   -5.1278    8.9584 H   0  0  0  0  0  0  0  0  0  0  0  0
   -4.5761   -7.2810    8.8110 C   0  0  0  0  0  0  0  0  0  0  0  0
   -3.8136   -6.9250   10.0832 C   0  0  0  0  0  0  0  0  0  0  0  0
   -4.2151   -7.8150   11.2566 C   0  0  0  0  0  0  0  0  0  0  0  0
   -3.0960   -7.9315   12.2906 C   0  0  0  0  0  0  0  0  0  0  0  0
   -2.4301  -10.0983   13.4368 C   0  0  0  0  0  0  0  0  0  0  0  0
   -1.1035   -9.6582   13.0454 N   0  0  0  0  0  0  0  0  0  0  0  0
   -0.2127   -9.8671   14.0113 C   0  0  0  0  0  0  0  0  0  0  0  0
    0.9512   -9.5030   13.9864 O   0  0  0  0  0  0  0  0  0  0  0  0
   -0.7708  -10.5092   15.0270 N   0  0  0  0  0  0  0  0  0  0  0  0
   -2.2079  -10.5483   14.8813 C   0  0  0  0  0  0  0  0  0  0  0  0
   -2.7988   -9.5774   15.8916 C   0  0  0  0  0  0  0  0  0  0  0  0
   -3.5671   -8.3030   14.9607 S   0  0  0  0  0  0  0  0  0  0  0  0
   -3.4618   -8.9773   13.3387 C   0  0  0  0  0  0  0  0  0  0  0  0
   -0.8894   -9.2551   12.1732 H   0  0  0  0  0  0  0  0  0  0  0  0
   -0.2740  -10.9058   15.7788 H   0  0  0  0  0  0  0  0  0  0  0  0
   -3.9498   -2.9086    6.8204 N   0  0  0  0  0  0  0  0  0  0  0  0
   -4.5995   -2.9641    7.6048 H   0  0  0  0  0  0  0  0  0  0  0  0
   -3.3717   -1.5805    6.8682 C   0  0  0  0  0  0  0  0  0  0  0  0
   -4.3971   -0.6815    7.5469 C   0  0  0  0  0  0  0  0  0  0  0  0
   -4.6585    0.4767    6.7478 O   0  0  0  0  0  0  0  0  0  0  0  0
   -5.7299   -1.3882    7.7463 C   0  0  0  0  0  0  0  0  0  0  0  0
   -6.7559   -0.2823    7.5727 C   0  0  0  0  0  0  0  0  0  0  0  0
   -6.0634    0.7467    6.6910 C   0  0  0  0  0  0  0  0  0  0  0  0
   -7.0110    0.3182    8.8481 O   0  0  0  0  0  0  0  0  0  0  0  0
   -6.1781    0.6420    9.2254 H   0  0  0  0  0  0  0  0  0  0  0  0
  -10.1434    0.8360    4.9596 C   0  0  0  0  0  0  0  0  0  0  0  0
   -7.8145    0.6874    4.9115 C   0  0  0  0  0  0  0  0  0  0  0  0
   -7.8505    0.5600    3.5348 C   0  0  0  0  0  0  0  0  0  0  0  0
   -9.1552    0.4539    1.5446 N   0  0  0  0  0  0  0  0  0  0  0  0
   -5.7748    0.4949    4.1947 C   0  0  0  0  0  0  0  0  0  0  0  0
   -6.5353    0.6446    5.2888 N   0  0  0  0  0  0  0  0  0  0  0  0
   -6.5762    0.4423    3.1066 N   0  0  0  0  0  0  0  0  0  0  0  0
   -8.9697    0.8228    5.6046 N   0  0  0  0  0  0  0  0  0  0  0  0
  -10.2049    0.7120    3.6259 N   0  0  0  0  0  0  0  0  0  0  0  0
   -9.0801    0.5742    2.8915 C   0  0  0  0  0  0  0  0  0  0  0  0
   -8.3329    0.3536    1.0127 H   0  0  0  0  0  0  0  0  0  0  0  0
  -10.0322    0.4668    1.0975 H   0  0  0  0  0  0  0  0  0  0  0  0
  3  1  2  0  0  0
  2  1  2  0  0  0
  1 23  1  0  0  0
  1  6  1  0  0  0
 23 25  1  0  0  0
  6  4  1  0  0  0
 26 25  1  0  0  0
 26 28  1  0  0  0
 26 27  1  0  0  0
 31 29  1  0  0  0
 28 29  1  0  0  0
  4  5  2  0  0  0
  4  8  1  0  0  0
 27 30  1  0  0  0
 29 30  1  0  0  0
  8  9  1  0  0  0
 30 38  1  0  0  0
  9 10  1  0  0  0
 38 34  1  0  0  0
 38 37  1  0  0  0
 40 34  2  0  0  0
 40 33  1  0  0  0
 34 35  1  0  0  0
 10 11  1  0  0  0
 37 39  2  0  0  0
 33 41  2  0  0  0
 35 39  1  0  0  0
 35 42  2  0  0  0
 11 20  1  0  0  0
 41 42  1  0  0  0
 13 12  1  0  0  0
 13 14  1  0  0  0
 42 36  1  0  0  0
 12 20  1  0  0  0
 12 17  1  0  0  0
 20 19  1  0  0  0
 15 14  2  0  0  0
 14 16  1  0  0  0
 17 16  1  0  0  0
 17 18  1  0  0  0
 19 18  1  0  0  0
 36 43  1  0  0  0
 36 44  1  0  0  0
 13 21  1  0  0  0
 16 22  1  0  0  0
  6  7  1  0  0  0
 23 24  1  0  0  0
 31 32  1  0  0  0
M  END
> <minimizedAffinity>
-10.25997

$$$$
4XU2_44Q_A_300


 44 48  0  0  0  0  0  0  0  0999 V2000
   -3.3291   -4.2624    7.0580 S   0  0  0  0  0  0  0  0  0  0  0  0
   -3.0807   -4.8873    5.7901 O   0  0  0  0  0  0  0  0  0  0  0  0
   -2.2033   -3.4339    7.3897 O   0  0  0  0  0  0  0  0  0  0  0  0
   -4.4304   -6.3663    8.0063 C   0  0  0  0  0  0  0  0  0  0  0  0
   -5.3283   -6.3124    7.1814 O   0  0  0  0  0  0  0  0  0  0  0  0
   -3.5491   -5.3820    8.1854 N   0  0  0  0  0  0  0  0  0  0  0  0
   -3.0273   -5.3419    9.0192 H   0  0  0  0  0  0  0  0  0  0  0  0
   -4.2773   -7.5891    8.8854 C   0  0  0  0  0  0  0  0  0  0  0  0
   -3.6075   -7.2030   10.2002 C   0  0  0  0  0  0  0  0  0  0  0  0
   -4.0742   -8.0821   11.3577 C   0  0  0  0  0  0  0  0  0  0  0  0
   -3.2022   -7.8978   12.5989 C   0  0  0  0  0  0  0  0  0  0  0  0
   -2.3775  -10.0606   13.6450 C   0  0  0  0  0  0  0  0  0  0  0  0
   -1.0884   -9.5142   13.2625 N   0  0  0  0  0  0  0  0  0  0  0  0
   -0.1749   -9.7024   14.2113 C   0  0  0  0  0  0  0  0  0  0  0  0
    0.9611   -9.2585   14.1928 O   0  0  0  0  0  0  0  0  0  0  0  0
   -0.6768  -10.4240   15.2027 N   0  0  0  0  0  0  0  0  0  0  0  0
   -2.1093  -10.5554   15.0669 C   0  0  0  0  0  0  0  0  0  0  0  0
   -2.7541   -9.6713   16.1229 C   0  0  0  0  0  0  0  0  0  0  0  0
   -3.6176   -8.4141   15.2541 S   0  0  0  0  0  0  0  0  0  0  0  0
   -3.4843   -9.0099   13.6037 C   0  0  0  0  0  0  0  0  0  0  0  0
   -0.9118   -9.0606   12.4068 H   0  0  0  0  0  0  0  0  0  0  0  0
   -0.1459  -10.8172   15.9327 H   0  0  0  0  0  0  0  0  0  0  0  0
   -4.6159   -3.3258    6.9088 N   0  0  0  0  0  0  0  0  0  0  0  0
   -4.7063   -2.8242    7.7923 H   0  0  0  0  0  0  0  0  0  0  0  0
   -4.7302   -2.3277    5.8643 C   0  0  0  0  0  0  0  0  0  0  0  0
   -5.3824   -1.1053    6.4972 C   0  0  0  0  0  0  0  0  0  0  0  0
   -4.3883   -0.2171    7.0179 O   0  0  0  0  0  0  0  0  0  0  0  0
   -6.1982   -0.3096    5.4887 C   0  0  0  0  0  0  0  0  0  0  0  0
   -6.0215    1.1309    5.9357 C   0  0  0  0  0  0  0  0  0  0  0  0
   -4.6942    1.1401    6.6800 C   0  0  0  0  0  0  0  0  0  0  0  0
   -7.0603    1.4586    6.8663 O   0  0  0  0  0  0  0  0  0  0  0  0
   -7.0375    0.8351    7.6090 H   0  0  0  0  0  0  0  0  0  0  0  0
   -2.2300    4.8011    7.1014 C   0  0  0  0  0  0  0  0  0  0  0  0
   -2.9523    2.8279    6.0850 C   0  0  0  0  0  0  0  0  0  0  0  0
   -2.0317    3.0133    5.0697 C   0  0  0  0  0  0  0  0  0  0  0  0
   -0.2949    4.3452    4.1295 N   0  0  0  0  0  0  0  0  0  0  0  0
   -3.1387    1.1751    4.6906 C   0  0  0  0  0  0  0  0  0  0  0  0
   -3.6151    1.6984    5.8295 N   0  0  0  0  0  0  0  0  0  0  0  0
   -2.1607    1.9781    4.2136 N   0  0  0  0  0  0  0  0  0  0  0  0
   -3.0368    3.7320    7.0893 N   0  0  0  0  0  0  0  0  0  0  0  0
   -1.3309    5.0043    6.1276 N   0  0  0  0  0  0  0  0  0  0  0  0
   -1.2097    4.1308    5.1049 C   0  0  0  0  0  0  0  0  0  0  0  0
   -0.2096    3.7060    3.3856 H   0  0  0  0  0  0  0  0  0  0  0  0
    0.2847    5.1402    4.1644 H   0  0  0  0  0  0  0  0  0  0  0  0
  3  1  2  0  0  0
  2  1  2  0  0  0
  1 23  1  0  0  0
  1  6  1  0  0  0
 23 25  1  0  0  0
  6  4  1  0  0  0
 26 25  1  0  0  0
 26 28  1  0  0  0
 26 27  1  0  0  0
 31 29  1  0  0  0
 28 29  1  0  0  0
  4  5  2  0  0  0
  4  8  1  0  0  0
 27 30  1  0  0  0
 29 30  1  0  0  0
  8  9  1  0  0  0
 30 38  1  0  0  0
  9 10  1  0  0  0
 38 34  1  0  0  0
 38 37  1  0  0  0
 40 34  2  0  0  0
 40 33  1  0  0  0
 34 35  1  0  0  0
 10 11  1  0  0  0
 37 39  2  0  0  0
 33 41  2  0  0  0
 35 39  1  0  0  0
 35 42  2  0  0  0
 11 20  1  0  0  0
 41 42  1  0  0  0
 13 12  1  0  0  0
 13 14  1  0  0  0
 42 36  1  0  0  0
 12 20  1  0  0  0
 12 17  1  0  0  0
 20 19  1  0  0  0
 15 14  2  0  0  0
 14 16  1  0  0  0
 17 16  1  0  0  0
 17 18  1  0  0  0
 19 18  1  0  0  0
 36 43  1  0  0  0
 36 44  1  0  0  0
 13 21  1  0  0  0
 16 22  1  0  0  0
  6  7  1  0  0  0
 23 24  1  0  0  0
 31 32  1  0  0  0
M  END
> <minimizedAffinity>
-10.06509

$$$$
4XU2_44Q_A_300


 44 48  0  0  0  0  0  0  0  0999 V2000
   -3.9140   -4.8251    6.3683 S   0  0  0  0  0  0  0  0  0  0  0  0
   -2.6414   -4.8553    5.7053 O   0  0  0  0  0  0  0  0  0  0  0  0
   -4.0372   -6.0046    7.1791 O   0  0  0  0  0  0  0  0  0  0  0  0
   -5.2106   -3.7293    4.4561 C   0  0  0  0  0  0  0  0  0  0  0  0
   -4.6786   -2.6508    4.6646 O   0  0  0  0  0  0  0  0  0  0  0  0
   -5.0941   -4.7682    5.2834 N   0  0  0  0  0  0  0  0  0  0  0  0
   -5.7400   -5.5091    5.2279 H   0  0  0  0  0  0  0  0  0  0  0  0
   -6.0489   -3.9362    3.2127 C   0  0  0  0  0  0  0  0  0  0  0  0
   -7.2952   -3.0590    3.2747 C   0  0  0  0  0  0  0  0  0  0  0  0
   -7.1567   -1.8094    2.4090 C   0  0  0  0  0  0  0  0  0  0  0  0
   -7.4194   -0.5331    3.2070 C   0  0  0  0  0  0  0  0  0  0  0  0
   -7.2021   -0.6746    5.7339 C   0  0  0  0  0  0  0  0  0  0  0  0
   -6.1891    0.3378    5.4982 N   0  0  0  0  0  0  0  0  0  0  0  0
   -6.2422    1.3062    6.4089 C   0  0  0  0  0  0  0  0  0  0  0  0
   -5.5738    2.3263    6.3917 O   0  0  0  0  0  0  0  0  0  0  0  0
   -7.1465    1.0236    7.3352 N   0  0  0  0  0  0  0  0  0  0  0  0
   -7.9604   -0.0999    6.9310 C   0  0  0  0  0  0  0  0  0  0  0  0
   -9.3302    0.4389    6.5490 C   0  0  0  0  0  0  0  0  0  0  0  0
   -9.5188    0.1347    4.8306 S   0  0  0  0  0  0  0  0  0  0  0  0
   -8.1103   -0.8744    4.5232 C   0  0  0  0  0  0  0  0  0  0  0  0
   -5.5426    0.3112    4.7561 H   0  0  0  0  0  0  0  0  0  0  0  0
   -7.2498    1.5125    8.1834 H   0  0  0  0  0  0  0  0  0  0  0  0
   -3.9453   -3.5485    7.3299 N   0  0  0  0  0  0  0  0  0  0  0  0
   -4.3090   -3.8758    8.2249 H   0  0  0  0  0  0  0  0  0  0  0  0
   -2.7554   -2.7793    7.6346 C   0  0  0  0  0  0  0  0  0  0  0  0
   -3.1349   -1.3112    7.4896 C   0  0  0  0  0  0  0  0  0  0  0  0
   -4.3385   -1.0287    8.2107 O   0  0  0  0  0  0  0  0  0  0  0  0
   -2.0612   -0.3883    8.0474 C   0  0  0  0  0  0  0  0  0  0  0  0
   -2.8474    0.7784    8.6187 C   0  0  0  0  0  0  0  0  0  0  0  0
   -4.2155    0.1957    8.9425 C   0  0  0  0  0  0  0  0  0  0  0  0
   -3.0123    1.7707    7.5985 O   0  0  0  0  0  0  0  0  0  0  0  0
   -3.4473    1.3731    6.8281 H   0  0  0  0  0  0  0  0  0  0  0  0
   -7.7769   -0.5088   11.4866 C   0  0  0  0  0  0  0  0  0  0  0  0
   -5.4997   -0.2696   11.0331 C   0  0  0  0  0  0  0  0  0  0  0  0
   -5.2103   -0.4898   12.3675 C   0  0  0  0  0  0  0  0  0  0  0  0
   -6.0106   -0.9415   14.5652 N   0  0  0  0  0  0  0  0  0  0  0  0
   -3.3464   -0.1673   11.2859 C   0  0  0  0  0  0  0  0  0  0  0  0
   -4.3441   -0.0754   10.3948 N   0  0  0  0  0  0  0  0  0  0  0  0
   -3.8696   -0.4235   12.5063 N   0  0  0  0  0  0  0  0  0  0  0  0
   -6.7869   -0.2817   10.6135 N   0  0  0  0  0  0  0  0  0  0  0  0
   -7.5223   -0.7228   12.7856 N   0  0  0  0  0  0  0  0  0  0  0  0
   -6.2549   -0.7199   13.2516 C   0  0  0  0  0  0  0  0  0  0  0  0
   -5.0852   -0.9386   14.9011 H   0  0  0  0  0  0  0  0  0  0  0  0
   -6.7585   -1.1054   15.1841 H   0  0  0  0  0  0  0  0  0  0  0  0
  3  1  2  0  0  0
  2  1  2  0  0  0
  1 23  1  0  0  0
  1  6  1  0  0  0
 23 25  1  0  0  0
  6  4  1  0  0  0
 26 25  1  0  0  0
 26 28  1  0  0  0
 26 27  1  0  0  0
 31 29  1  0  0  0
 28 29  1  0  0  0
  4  5  2  0  0  0
  4  8  1  0  0  0
 27 30  1  0  0  0
 29 30  1  0  0  0
  8  9  1  0  0  0
 30 38  1  0  0  0
  9 10  1  0  0  0
 38 34  1  0  0  0
 38 37  1  0  0  0
 40 34  2  0  0  0
 40 33  1  0  0  0
 34 35  1  0  0  0
 10 11  1  0  0  0
 37 39  2  0  0  0
 33 41  2  0  0  0
 35 39  1  0  0  0
 35 42  2  0  0  0
 11 20  1  0  0  0
 41 42  1  0  0  0
 13 12  1  0  0  0
 13 14  1  0  0  0
 42 36  1  0  0  0
 12 20  1  0  0  0
 12 17  1  0  0  0
 20 19  1  0  0  0
 15 14  2  0  0  0
 14 16  1  0  0  0
 17 16  1  0  0  0
 17 18  1  0  0  0
 19 18  1  0  0  0
 36 43  1  0  0  0
 36 44  1  0  0  0
 13 21  1  0  0  0
 16 22  1  0  0  0
  6  7  1  0  0  0
 23 24  1  0  0  0
 31 32  1  0  0  0
M  END
> <minimizedAffinity>
-10.02475

$$$$
