4XU2_44Q_A_300
  RCSB PDB12061716173D
Coordinates from PDB:4XU2:A:300 Model:1 without hydrogens
 37 41  0  0  0  0            999 V2000
   -8.0475   -0.8142   11.9869   C 0  0  0  0  0  0  0  0  0  0  0  0
   -5.7990   -0.4327   11.4899   C 0  0  0  0  0  0  0  0  0  0  0  0
   -5.4652   -0.6778   12.8095   C 0  0  0  0  0  0  0  0  0  0  0  0
   -6.1851   -1.2423   15.0089   N 0  0  0  0  0  0  0  0  0  0  0  0
   -3.6492   -0.2169   11.6969   C 0  0  0  0  0  0  0  0  0  0  0  0
   -2.0960  -10.0155   13.8725   C 0  0  0  0  0  0  0  0  0  0  0  0
   -0.9023   -9.2935   13.4720   N 0  0  0  0  0  0  0  0  0  0  0  0
    0.0731   -9.4235   14.3674   C 0  0  0  0  0  0  0  0  0  0  0  0
    1.1453   -8.8432   14.3298   O 0  0  0  0  0  0  0  0  0  0  0  0
   -0.2888  -10.2583   15.3306   N 0  0  0  0  0  0  0  0  0  0  0  0
   -1.7002  -10.5564   15.2470   C 0  0  0  0  0  0  0  0  0  0  0  0
   -2.3932   -9.8217   16.3839   C 0  0  0  0  0  0  0  0  0  0  0  0
   -3.4433   -8.6312   15.6350   S 0  0  0  0  0  0  0  0  0  0  0  0
   -3.3215   -9.1081   13.9455   C 0  0  0  0  0  0  0  0  0  0  0  0
   -3.2250   -7.9126   13.0034   C 0  0  0  0  0  0  0  0  0  0  0  0
   -3.5100   -8.3543   11.5686   C 0  0  0  0  0  0  0  0  0  0  0  0
   -3.7101   -7.1620   10.6366   C 0  0  0  0  0  0  0  0  0  0  0  0
   -4.0704   -7.5998    9.2206   C 0  0  0  0  0  0  0  0  0  0  0  0
   -4.4596   -6.3944    8.3917   C 0  0  0  0  0  0  0  0  0  0  0  0
   -5.5723   -5.9058    8.5046   O 0  0  0  0  0  0  0  0  0  0  0  0
   -3.5377   -5.9151    7.5564   N 0  0  0  0  0  0  0  0  0  0  0  0
   -3.9522   -4.9556    6.3397   S 0  0  0  0  0  0  0  0  0  0  0  0
   -5.1545   -5.4395    5.7230   O 0  0  0  0  0  0  0  0  0  0  0  0
   -2.9102   -4.9237    5.3512   O 0  0  0  0  0  0  0  0  0  0  0  0
   -4.2156   -3.4607    6.8409   N 0  0  0  0  0  0  0  0  0  0  0  0
   -3.4269   -2.8453    7.8895   C 0  0  0  0  0  0  0  0  0  0  0  0
   -3.7018   -1.3486    7.8221   C 0  0  0  0  0  0  0  0  0  0  0  0
   -4.8442   -1.0103    8.6150   O 0  0  0  0  0  0  0  0  0  0  0  0
   -2.5360   -0.5313    8.3593   C 0  0  0  0  0  0  0  0  0  0  0  0
   -3.2037    0.6641    9.0159   C 0  0  0  0  0  0  0  0  0  0  0  0
   -4.5942    0.1693    9.3869   C 0  0  0  0  0  0  0  0  0  0  0  0
   -4.6720   -0.1538   10.8322   N 0  0  0  0  0  0  0  0  0  0  0  0
   -4.1273   -0.5402   12.9199   N 0  0  0  0  0  0  0  0  0  0  0  0
   -7.0934   -0.5044   11.0994   N 0  0  0  0  0  0  0  0  0  0  0  0
   -7.7497   -1.0539   13.2721   N 0  0  0  0  0  0  0  0  0  0  0  0
   -6.4734   -0.9940   13.7091   C 0  0  0  0  0  0  0  0  0  0  0  0
   -3.3431    1.7086    8.0453   O 0  0  0  0  0  0  0  0  0  0  0  0
 24 22  2  0  0  0  0
 23 22  2  0  0  0  0
 22 25  1  0  0  0  0
 22 21  1  0  0  0  0
 25 26  1  0  0  0  0
 21 19  1  0  0  0  0
 27 26  1  0  0  0  0
 27 29  1  0  0  0  0
 27 28  1  0  0  0  0
 37 30  1  0  0  0  0
 29 30  1  0  0  0  0
 19 20  2  0  0  0  0
 19 18  1  0  0  0  0
 28 31  1  0  0  0  0
 30 31  1  0  0  0  0
 18 17  1  0  0  0  0
 31 32  1  0  0  0  0
 17 16  1  0  0  0  0
 32  2  1  0  0  0  0
 32  5  1  0  0  0  0
 34  2  2  0  0  0  0
 34  1  1  0  0  0  0
  2  3  1  0  0  0  0
 16 15  1  0  0  0  0
  5 33  2  0  0  0  0
  1 35  2  0  0  0  0
  3 33  1  0  0  0  0
  3 36  2  0  0  0  0
 15 14  1  0  0  0  0
 35 36  1  0  0  0  0
  7  6  1  0  0  0  0
  7  8  1  0  0  0  0
 36  4  1  0  0  0  0
  6 14  1  0  0  0  0
  6 11  1  0  0  0  0
 14 13  1  0  0  0  0
  9  8  2  0  0  0  0
  8 10  1  0  0  0  0
 11 10  1  0  0  0  0
 11 12  1  0  0  0  0
 13 12  1  0  0  0  0
A    1
C2
A    2
C4
A    3
C5
A    4
N6
A    5
C8
A    6
CBI
A    7
NAU
A    8
CBA
A    9
OAC
A   10
NAT
A   11
CBF
A   12
CAO
A   13
SAY
A   14
CBH
A   15
CAK
A   16
CAI
A   17
CAH
A   18
CAJ
A   19
CAZ
A   20
OAB
A   21
NAV
A   22
SBK
A   23
OAD
A   24
OAE
A   25
NAW
A   26
CAN
A   27
CBE
A   28
OAX
A   29
CAL
A   30
CAM
A   31
CBG
A   32
N9
A   33
N7
A   34
N3
A   35
N1
A   36
C6
A   37
O1
M  END
>  <InstanceId>
4XU2_44Q_A_300

>  <ChemCompId>
44Q

>  <PdbId>
4XU2

>  <ChainId>
A

>  <ResidueNumber>
300

>  <InsertionCode>


>  <Model>
1

>  <AltIds>


>  <MissingHeavyAtoms>
0

>  <ObservedFormula>
C20 N9 O6 S2

>  <Name>
3',5'-dideoxy-5'-[({5-[(3aS,4S,6aR)-2-oxohexahydro-1H-thieno[3,4-d]imidazol-4-yl]pentanoyl}sulfamoyl)amino]adenosine

>  <SystematicName>
5-[(3aS,4S,6aR)-2-oxidanylidene-1,3,3a,4,6,6a-hexahydrothieno[3,4-d]imidazol-4-yl]-N-[[(2S,4R,5R)-5-(6-aminopurin-9-yl)-4-oxidanyl-oxolan-2-yl]methylsulfamoyl]pentanamide

>  <Synonyms>


>  <Type>
NON-POLYMER

>  <Formula>
C20 H29 N9 O6 S2

>  <MolecularWeight>
555.631

>  <ModifiedDate>
2015-08-28

>  <Parent>


>  <OneLetterCode>


>  <SubcomponentList>


>  <AmbiguousFlag>
N

>  <InChI>
InChI=1S/C20H29N9O6S2/c21-17-16-18(23-8-22-17)29(9-24-16)19-12(30)5-10(35-19)6-25-37(33,34)28-14(31)4-2-1-3-13-15-11(7-36-13)26-20(32)27-15/h8-13,15,19,25,30H,1-7H2,(H,28,31)(H2,21,22,23)(H2,26,27,32)/t10-,11-,12+,13-,15-,19+/m0/s1

>  <InChIKey>
CZQLNGUCLOAYQM-TVYLXWJSSA-N

>  <SMILES>
c1nc(c2c(n1)n(cn2)[C@H]3[C@@H](C[C@H](O3)CNS(=O)(=O)NC(=O)CCCC[C@H]4[C@@H]5[C@H](CS4)NC(=O)N5)O)N

$$$$
