6EZQ_C7K_A_601


 29 30  0  0  0  0  0  0  0  0999 V2000
  -23.7582   11.4363   27.7324 C   0  0  0  0  0  0  0  0  0  0  0  0
  -24.7033   10.9808   26.7250 N   0  0  0  0  0  0  0  0  0  0  0  0
  -25.5483   10.6119   27.0702 H   0  0  0  0  0  0  0  0  0  0  0  0
  -23.9283    9.9558   24.6207 C   0  0  0  0  0  0  0  0  0  0  0  0
  -23.8038   10.0469   23.1476 C   0  0  0  0  0  0  0  0  0  0  0  0
  -24.5746   10.9959   25.3344 C   0  0  0  0  0  0  0  0  0  0  0  0
  -23.1871    8.9185   22.7068 N   0  0  0  0  0  0  0  0  0  0  0  0
  -25.0724   12.0923   24.6283 C   0  0  0  0  0  0  0  0  0  0  0  0
  -24.9327   12.2237   23.2580 C   0  0  0  0  0  0  0  0  0  0  0  0
  -23.3741    8.7471   24.9197 N   0  0  0  0  0  0  0  0  0  0  0  0
  -24.2949   11.2445   22.5164 C   0  0  0  0  0  0  0  0  0  0  0  0
  -22.9380    8.1563   23.7846 O   0  0  0  0  0  0  0  0  0  0  0  0
  -24.2738   11.4183   21.0674 N   0  0  0  0  0  0  0  0  0  0  0  0
  -25.3257   11.3082   20.4522 O   0  0  0  0  0  0  0  0  0  0  0  0
  -23.2080   11.6889   20.5329 O   0  0  0  0  0  0  0  0  0  0  0  0
  -24.4186   12.4140   28.6987 C   0  0  0  0  0  0  0  0  0  0  0  0
  -24.1549   13.8825   28.3806 C   0  0  0  0  0  0  0  0  0  0  0  0
  -23.1887   14.5713   29.3383 C   0  0  0  0  0  0  0  0  0  0  0  0
  -23.8444   15.1145   30.5994 C   0  0  0  0  0  0  0  0  0  0  0  0
  -25.3111   15.4801   30.4533 C   0  0  0  0  0  0  0  0  0  0  0  0
  -26.1820   15.3469   31.7111 C   0  0  0  0  0  0  0  0  0  0  0  0
  -27.2845   14.2879   31.6670 C   0  0  0  0  0  0  0  0  0  0  0  0
  -27.3161   13.4384   30.3992 C   0  0  0  0  0  0  0  0  0  0  0  0
  -28.5243   12.5165   30.2455 C   0  0  0  0  0  0  0  0  0  0  0  0
  -29.7374   12.9925   31.0262 C   0  0  0  0  0  0  0  0  0  0  0  0
  -30.3139   11.9960   31.9908 C   0  0  0  0  0  0  0  0  0  0  0  0
  -29.6143   11.8882   33.0859 O   0  0  0  0  0  0  0  0  0  0  0  0
  -31.3484   11.3815   31.7901 O   0  0  0  0  0  0  0  0  0  0  0  0
  -31.8127   11.4963   30.9843 H   0  0  0  0  0  0  0  0  0  0  0  0
 23 22  1  0  0  0
 23 24  1  0  0  0
 22 21  1  0  0  0
 24 25  1  0  0  0
 21 20  1  0  0  0
 25 26  1  0  0  0
 20 19  1  0  0  0
 26 27  2  0  0  0
 26 28  1  0  0  0
 19 18  1  0  0  0
 18 17  1  0  0  0
 17 16  1  0  0  0
 16  1  1  0  0  0
  1  2  1  0  0  0
  2  6  1  0  0  0
  6  4  1  0  0  0
  6  8  2  0  0  0
 10  4  2  0  0  0
 10 12  1  0  0  0
  4  5  1  0  0  0
  8  9  1  0  0  0
 12  7  1  0  0  0
  5  7  2  0  0  0
  5 11  1  0  0  0
  9 11  2  0  0  0
 11 13  1  0  0  0
 13 14  1  0  0  0
 13 15  2  0  0  0
  2  3  1  0  0  0
 28 29  1  0  0  0
M  CHG 1  13   1
M  CHG 1  14  -1
M  END
> <minimizedAffinity>
-8.42892

$$$$
6EZQ_C7K_A_601


 29 30  0  0  0  0  0  0  0  0999 V2000
  -24.9948   10.6343   27.1363 C   0  0  0  0  0  0  0  0  0  0  0  0
  -25.3706   11.4275   25.9764 N   0  0  0  0  0  0  0  0  0  0  0  0
  -26.0321   12.1374   26.1426 H   0  0  0  0  0  0  0  0  0  0  0  0
  -25.5197   12.0311   23.5904 C   0  0  0  0  0  0  0  0  0  0  0  0
  -25.0086   11.8499   22.2122 C   0  0  0  0  0  0  0  0  0  0  0  0
  -24.9201   11.3185   24.6589 C   0  0  0  0  0  0  0  0  0  0  0  0
  -25.7198   12.6650   21.3890 N   0  0  0  0  0  0  0  0  0  0  0  0
  -23.8625   10.4503   24.3832 C   0  0  0  0  0  0  0  0  0  0  0  0
  -23.3928   10.2296   23.1005 C   0  0  0  0  0  0  0  0  0  0  0  0
  -26.4985   12.9695   23.4534 N   0  0  0  0  0  0  0  0  0  0  0  0
  -23.9546   10.8875   22.0202 C   0  0  0  0  0  0  0  0  0  0  0  0
  -26.6065   13.3239   22.1533 O   0  0  0  0  0  0  0  0  0  0  0  0
  -23.3380   10.6672   20.7157 N   0  0  0  0  0  0  0  0  0  0  0  0
  -24.0433   10.2718   19.7974 O   0  0  0  0  0  0  0  0  0  0  0  0
  -22.1461   10.9091   20.5912 O   0  0  0  0  0  0  0  0  0  0  0  0
  -24.9875   11.4860   28.4014 C   0  0  0  0  0  0  0  0  0  0  0  0
  -23.7337   12.3374   28.5752 C   0  0  0  0  0  0  0  0  0  0  0  0
  -23.9402   13.8251   28.3118 C   0  0  0  0  0  0  0  0  0  0  0  0
  -23.1192   14.7361   29.2126 C   0  0  0  0  0  0  0  0  0  0  0  0
  -23.7784   15.0966   30.5323 C   0  0  0  0  0  0  0  0  0  0  0  0
  -25.2971   15.3231   30.5036 C   0  0  0  0  0  0  0  0  0  0  0  0
  -25.9903   15.4642   31.8594 C   0  0  0  0  0  0  0  0  0  0  0  0
  -27.2981   14.6901   32.0019 C   0  0  0  0  0  0  0  0  0  0  0  0
  -27.5796   13.6530   30.9162 C   0  0  0  0  0  0  0  0  0  0  0  0
  -29.0556   13.3190   30.7827 C   0  0  0  0  0  0  0  0  0  0  0  0
  -29.4455   11.9374   31.2243 C   0  0  0  0  0  0  0  0  0  0  0  0
  -28.7344   11.0043   30.6550 O   0  0  0  0  0  0  0  0  0  0  0  0
  -30.3082   11.7123   32.0568 O   0  0  0  0  0  0  0  0  0  0  0  0
  -30.7906   12.4209   32.4351 H   0  0  0  0  0  0  0  0  0  0  0  0
 23 22  1  0  0  0
 23 24  1  0  0  0
 22 21  1  0  0  0
 24 25  1  0  0  0
 21 20  1  0  0  0
 25 26  1  0  0  0
 20 19  1  0  0  0
 26 27  2  0  0  0
 26 28  1  0  0  0
 19 18  1  0  0  0
 18 17  1  0  0  0
 17 16  1  0  0  0
 16  1  1  0  0  0
  1  2  1  0  0  0
  2  6  1  0  0  0
  6  4  1  0  0  0
  6  8  2  0  0  0
 10  4  2  0  0  0
 10 12  1  0  0  0
  4  5  1  0  0  0
  8  9  1  0  0  0
 12  7  1  0  0  0
  5  7  2  0  0  0
  5 11  1  0  0  0
  9 11  2  0  0  0
 11 13  1  0  0  0
 13 14  1  0  0  0
 13 15  2  0  0  0
  2  3  1  0  0  0
 28 29  1  0  0  0
M  CHG 1  13   1
M  CHG 1  14  -1
M  END
> <minimizedAffinity>
-8.39888

$$$$
6EZQ_C7K_A_601


 29 30  0  0  0  0  0  0  0  0999 V2000
  -22.7542   11.5652   28.0135 C   0  0  0  0  0  0  0  0  0  0  0  0
  -23.6539   10.8380   27.1318 N   0  0  0  0  0  0  0  0  0  0  0  0
  -24.0596   10.0262   27.5134 H   0  0  0  0  0  0  0  0  0  0  0  0
  -23.7679   10.2490   24.7402 C   0  0  0  0  0  0  0  0  0  0  0  0
  -24.1597   10.6375   23.3658 C   0  0  0  0  0  0  0  0  0  0  0  0
  -24.0201   11.1352   25.8172 C   0  0  0  0  0  0  0  0  0  0  0  0
  -23.8479    9.6096   22.5327 N   0  0  0  0  0  0  0  0  0  0  0  0
  -24.6264   12.3645   25.5533 C   0  0  0  0  0  0  0  0  0  0  0  0
  -24.9641   12.7711   24.2746 C   0  0  0  0  0  0  0  0  0  0  0  0
  -23.2626    8.9921   24.5912 N   0  0  0  0  0  0  0  0  0  0  0  0
  -24.7238   11.9504   23.1864 C   0  0  0  0  0  0  0  0  0  0  0  0
  -23.3109    8.6368   23.2877 O   0  0  0  0  0  0  0  0  0  0  0  0
  -25.1956   12.4174   21.8865 N   0  0  0  0  0  0  0  0  0  0  0  0
  -26.3235   12.8854   21.8100 O   0  0  0  0  0  0  0  0  0  0  0  0
  -24.4338   12.3412   20.9333 O   0  0  0  0  0  0  0  0  0  0  0  0
  -23.5351   12.4121   29.0129 C   0  0  0  0  0  0  0  0  0  0  0  0
  -23.3235   13.9150   28.8596 C   0  0  0  0  0  0  0  0  0  0  0  0
  -23.7115   14.7347   30.0855 C   0  0  0  0  0  0  0  0  0  0  0  0
  -25.1547   15.2168   30.0799 C   0  0  0  0  0  0  0  0  0  0  0  0
  -25.6058   15.9057   31.3559 C   0  0  0  0  0  0  0  0  0  0  0  0
  -26.9450   15.4452   31.9500 C   0  0  0  0  0  0  0  0  0  0  0  0
  -27.3283   13.9838   31.7135 C   0  0  0  0  0  0  0  0  0  0  0  0
  -28.6359   13.7718   30.9551 C   0  0  0  0  0  0  0  0  0  0  0  0
  -28.6589   12.5924   29.9844 C   0  0  0  0  0  0  0  0  0  0  0  0
  -27.2758   12.2007   29.4933 C   0  0  0  0  0  0  0  0  0  0  0  0
  -27.1240   10.7668   29.0729 C   0  0  0  0  0  0  0  0  0  0  0  0
  -27.8091    9.9453   29.8188 O   0  0  0  0  0  0  0  0  0  0  0  0
  -26.4627   10.4106   28.1118 O   0  0  0  0  0  0  0  0  0  0  0  0
  -25.9886   11.0433   27.6090 H   0  0  0  0  0  0  0  0  0  0  0  0
 23 22  1  0  0  0
 23 24  1  0  0  0
 22 21  1  0  0  0
 24 25  1  0  0  0
 21 20  1  0  0  0
 25 26  1  0  0  0
 20 19  1  0  0  0
 26 27  2  0  0  0
 26 28  1  0  0  0
 19 18  1  0  0  0
 18 17  1  0  0  0
 17 16  1  0  0  0
 16  1  1  0  0  0
  1  2  1  0  0  0
  2  6  1  0  0  0
  6  4  1  0  0  0
  6  8  2  0  0  0
 10  4  2  0  0  0
 10 12  1  0  0  0
  4  5  1  0  0  0
  8  9  1  0  0  0
 12  7  1  0  0  0
  5  7  2  0  0  0
  5 11  1  0  0  0
  9 11  2  0  0  0
 11 13  1  0  0  0
 13 14  1  0  0  0
 13 15  2  0  0  0
  2  3  1  0  0  0
 28 29  1  0  0  0
M  CHG 1  13   1
M  CHG 1  14  -1
M  END
> <minimizedAffinity>
-8.21463

$$$$
6EZQ_C7K_A_601


 29 30  0  0  0  0  0  0  0  0999 V2000
  -24.5900   11.4267   28.0392 C   0  0  0  0  0  0  0  0  0  0  0  0
  -25.3430   12.6691   28.1106 N   0  0  0  0  0  0  0  0  0  0  0  0
  -25.5211   13.1090   27.2481 H   0  0  0  0  0  0  0  0  0  0  0  0
  -27.0755   12.9544   29.8418 C   0  0  0  0  0  0  0  0  0  0  0  0
  -27.5655   13.7064   31.0198 C   0  0  0  0  0  0  0  0  0  0  0  0
  -25.8476   13.3227   29.2371 C   0  0  0  0  0  0  0  0  0  0  0  0
  -28.7299   13.1363   31.4286 N   0  0  0  0  0  0  0  0  0  0  0  0
  -25.1306   14.3983   29.7637 C   0  0  0  0  0  0  0  0  0  0  0  0
  -25.5850   15.1449   30.8364 C   0  0  0  0  0  0  0  0  0  0  0  0
  -28.0096   11.9773   29.6682 N   0  0  0  0  0  0  0  0  0  0  0  0
  -26.7858   14.8373   31.4522 C   0  0  0  0  0  0  0  0  0  0  0  0
  -28.9767   12.1047   30.6042 O   0  0  0  0  0  0  0  0  0  0  0  0
  -27.1441   15.6165   32.6332 N   0  0  0  0  0  0  0  0  0  0  0  0
  -27.4473   16.7926   32.4851 O   0  0  0  0  0  0  0  0  0  0  0  0
  -27.1476   15.0534   33.7184 O   0  0  0  0  0  0  0  0  0  0  0  0
  -23.0931   11.6868   28.1712 C   0  0  0  0  0  0  0  0  0  0  0  0
  -22.2155   10.6751   27.4410 C   0  0  0  0  0  0  0  0  0  0  0  0
  -22.9318    9.8947   26.3442 C   0  0  0  0  0  0  0  0  0  0  0  0
  -22.7134   10.4475   24.9435 C   0  0  0  0  0  0  0  0  0  0  0  0
  -22.8542    9.4314   23.8237 C   0  0  0  0  0  0  0  0  0  0  0  0
  -21.9256    9.6083   22.6134 C   0  0  0  0  0  0  0  0  0  0  0  0
  -22.5115   10.3438   21.4074 C   0  0  0  0  0  0  0  0  0  0  0  0
  -24.0055   10.1286   21.1806 C   0  0  0  0  0  0  0  0  0  0  0  0
  -24.8365   11.3934   20.9727 C   0  0  0  0  0  0  0  0  0  0  0  0
  -24.6255   12.4284   22.0645 C   0  0  0  0  0  0  0  0  0  0  0  0
  -25.7984   12.6513   22.9758 C   0  0  0  0  0  0  0  0  0  0  0  0
  -25.9057   11.7342   23.8966 O   0  0  0  0  0  0  0  0  0  0  0  0
  -26.5484   13.6095   22.8901 O   0  0  0  0  0  0  0  0  0  0  0  0
  -26.4265   14.2403   22.2080 H   0  0  0  0  0  0  0  0  0  0  0  0
 23 22  1  0  0  0
 23 24  1  0  0  0
 22 21  1  0  0  0
 24 25  1  0  0  0
 21 20  1  0  0  0
 25 26  1  0  0  0
 20 19  1  0  0  0
 26 27  2  0  0  0
 26 28  1  0  0  0
 19 18  1  0  0  0
 18 17  1  0  0  0
 17 16  1  0  0  0
 16  1  1  0  0  0
  1  2  1  0  0  0
  2  6  1  0  0  0
  6  4  1  0  0  0
  6  8  2  0  0  0
 10  4  2  0  0  0
 10 12  1  0  0  0
  4  5  1  0  0  0
  8  9  1  0  0  0
 12  7  1  0  0  0
  5  7  2  0  0  0
  5 11  1  0  0  0
  9 11  2  0  0  0
 11 13  1  0  0  0
 13 14  1  0  0  0
 13 15  2  0  0  0
  2  3  1  0  0  0
 28 29  1  0  0  0
M  CHG 1  13   1
M  CHG 1  14  -1
M  END
> <minimizedAffinity>
-8.09937

$$$$
6EZQ_C7K_A_601


 29 30  0  0  0  0  0  0  0  0999 V2000
  -23.7445   10.2512   26.4126 C   0  0  0  0  0  0  0  0  0  0  0  0
  -24.1706   10.9712   25.2228 N   0  0  0  0  0  0  0  0  0  0  0  0
  -23.4464   11.3087   24.6475 H   0  0  0  0  0  0  0  0  0  0  0  0
  -25.7301   12.0639   23.6565 C   0  0  0  0  0  0  0  0  0  0  0  0
  -27.1310   12.3390   23.2622 C   0  0  0  0  0  0  0  0  0  0  0  0
  -25.4678   11.2487   24.7858 C   0  0  0  0  0  0  0  0  0  0  0  0
  -27.1095   13.1035   22.1383 N   0  0  0  0  0  0  0  0  0  0  0  0
  -26.5428   10.7299   25.5095 C   0  0  0  0  0  0  0  0  0  0  0  0
  -27.8604   11.0051   25.1893 C   0  0  0  0  0  0  0  0  0  0  0  0
  -24.9931   12.6934   22.6984 N   0  0  0  0  0  0  0  0  0  0  0  0
  -28.1705   11.8091   24.1063 C   0  0  0  0  0  0  0  0  0  0  0  0
  -25.8199   13.3043   21.8203 O   0  0  0  0  0  0  0  0  0  0  0  0
  -29.5849   11.9716   23.7843 N   0  0  0  0  0  0  0  0  0  0  0  0
  -30.0638   11.2776   22.8977 O   0  0  0  0  0  0  0  0  0  0  0  0
  -30.2360   12.7795   24.4308 O   0  0  0  0  0  0  0  0  0  0  0  0
  -23.3061   11.2174   27.5081 C   0  0  0  0  0  0  0  0  0  0  0  0
  -24.4017   11.5648   28.5112 C   0  0  0  0  0  0  0  0  0  0  0  0
  -24.8639   13.0171   28.4621 C   0  0  0  0  0  0  0  0  0  0  0  0
  -23.7644   14.0297   28.7465 C   0  0  0  0  0  0  0  0  0  0  0  0
  -23.9280   14.8079   30.0402 C   0  0  0  0  0  0  0  0  0  0  0  0
  -25.2929   15.4709   30.2764 C   0  0  0  0  0  0  0  0  0  0  0  0
  -25.7779   15.5336   31.7254 C   0  0  0  0  0  0  0  0  0  0  0  0
  -27.2296   15.1141   31.9412 C   0  0  0  0  0  0  0  0  0  0  0  0
  -27.7049   13.9150   31.1228 C   0  0  0  0  0  0  0  0  0  0  0  0
  -28.6241   12.9907   31.9028 C   0  0  0  0  0  0  0  0  0  0  0  0
  -29.2330   11.8694   31.1105 C   0  0  0  0  0  0  0  0  0  0  0  0
  -28.4006   11.3430   30.2559 O   0  0  0  0  0  0  0  0  0  0  0  0
  -30.3723   11.4662   31.2756 O   0  0  0  0  0  0  0  0  0  0  0  0
  -30.9298   11.8813   31.9040 H   0  0  0  0  0  0  0  0  0  0  0  0
 23 22  1  0  0  0
 23 24  1  0  0  0
 22 21  1  0  0  0
 24 25  1  0  0  0
 21 20  1  0  0  0
 25 26  1  0  0  0
 20 19  1  0  0  0
 26 27  2  0  0  0
 26 28  1  0  0  0
 19 18  1  0  0  0
 18 17  1  0  0  0
 17 16  1  0  0  0
 16  1  1  0  0  0
  1  2  1  0  0  0
  2  6  1  0  0  0
  6  4  1  0  0  0
  6  8  2  0  0  0
 10  4  2  0  0  0
 10 12  1  0  0  0
  4  5  1  0  0  0
  8  9  1  0  0  0
 12  7  1  0  0  0
  5  7  2  0  0  0
  5 11  1  0  0  0
  9 11  2  0  0  0
 11 13  1  0  0  0
 13 14  1  0  0  0
 13 15  2  0  0  0
  2  3  1  0  0  0
 28 29  1  0  0  0
M  CHG 1  13   1
M  CHG 1  14  -1
M  END
> <minimizedAffinity>
-8.04451

$$$$
6EZQ_C7K_A_601


 29 30  0  0  0  0  0  0  0  0999 V2000
  -23.0396    9.4850   25.0898 C   0  0  0  0  0  0  0  0  0  0  0  0
  -24.1836    9.8496   24.2690 N   0  0  0  0  0  0  0  0  0  0  0  0
  -25.0600    9.5506   24.6035 H   0  0  0  0  0  0  0  0  0  0  0  0
  -25.1158   11.6299   22.8402 C   0  0  0  0  0  0  0  0  0  0  0  0
  -25.1049   12.3321   21.5362 C   0  0  0  0  0  0  0  0  0  0  0  0
  -24.2075   10.5665   23.0706 C   0  0  0  0  0  0  0  0  0  0  0  0
  -26.0329   13.3242   21.5846 N   0  0  0  0  0  0  0  0  0  0  0  0
  -23.3261   10.1980   22.0529 C   0  0  0  0  0  0  0  0  0  0  0  0
  -23.3227   10.8080   20.8110 C   0  0  0  0  0  0  0  0  0  0  0  0
  -26.0609   12.2970   23.5608 N   0  0  0  0  0  0  0  0  0  0  0  0
  -24.2007   11.8400   20.5291 C   0  0  0  0  0  0  0  0  0  0  0  0
  -26.5935   13.2832   22.8048 O   0  0  0  0  0  0  0  0  0  0  0  0
  -24.0665   12.4883   19.2283 N   0  0  0  0  0  0  0  0  0  0  0  0
  -24.5778   11.9519   18.2547 O   0  0  0  0  0  0  0  0  0  0  0  0
  -23.4673   13.5525   19.1716 O   0  0  0  0  0  0  0  0  0  0  0  0
  -23.2311    9.9479   26.5303 C   0  0  0  0  0  0  0  0  0  0  0  0
  -22.5402   11.2672   26.8606 C   0  0  0  0  0  0  0  0  0  0  0  0
  -22.0172   11.3645   28.2897 C   0  0  0  0  0  0  0  0  0  0  0  0
  -22.8524   12.2544   29.1984 C   0  0  0  0  0  0  0  0  0  0  0  0
  -23.2596   13.5865   28.5937 C   0  0  0  0  0  0  0  0  0  0  0  0
  -24.7406   13.7490   28.2210 C   0  0  0  0  0  0  0  0  0  0  0  0
  -25.7026   12.7002   28.7806 C   0  0  0  0  0  0  0  0  0  0  0  0
  -26.6473   13.2031   29.8689 C   0  0  0  0  0  0  0  0  0  0  0  0
  -26.1724   14.4274   30.6493 C   0  0  0  0  0  0  0  0  0  0  0  0
  -27.1138   14.8144   31.7771 C   0  0  0  0  0  0  0  0  0  0  0  0
  -26.5382   15.7458   32.8052 C   0  0  0  0  0  0  0  0  0  0  0  0
  -25.5573   16.4688   32.3408 O   0  0  0  0  0  0  0  0  0  0  0  0
  -26.9675   15.8455   33.9426 O   0  0  0  0  0  0  0  0  0  0  0  0
  -27.6752   15.3006   34.2257 H   0  0  0  0  0  0  0  0  0  0  0  0
 23 22  1  0  0  0
 23 24  1  0  0  0
 22 21  1  0  0  0
 24 25  1  0  0  0
 21 20  1  0  0  0
 25 26  1  0  0  0
 20 19  1  0  0  0
 26 27  2  0  0  0
 26 28  1  0  0  0
 19 18  1  0  0  0
 18 17  1  0  0  0
 17 16  1  0  0  0
 16  1  1  0  0  0
  1  2  1  0  0  0
  2  6  1  0  0  0
  6  4  1  0  0  0
  6  8  2  0  0  0
 10  4  2  0  0  0
 10 12  1  0  0  0
  4  5  1  0  0  0
  8  9  1  0  0  0
 12  7  1  0  0  0
  5  7  2  0  0  0
  5 11  1  0  0  0
  9 11  2  0  0  0
 11 13  1  0  0  0
 13 14  1  0  0  0
 13 15  2  0  0  0
  2  3  1  0  0  0
 28 29  1  0  0  0
M  CHG 1  13   1
M  CHG 1  14  -1
M  END
> <minimizedAffinity>
-8.01385

$$$$
6EZQ_C7K_A_601


 29 30  0  0  0  0  0  0  0  0999 V2000
  -26.2830   10.4204   27.0939 C   0  0  0  0  0  0  0  0  0  0  0  0
  -25.1782   11.0671   26.4035 N   0  0  0  0  0  0  0  0  0  0  0  0
  -24.5667   11.5875   26.9731 H   0  0  0  0  0  0  0  0  0  0  0  0
  -24.1541    9.9834   24.4397 C   0  0  0  0  0  0  0  0  0  0  0  0
  -23.8349   10.0404   22.9946 C   0  0  0  0  0  0  0  0  0  0  0  0
  -24.8673   11.0499   25.0420 C   0  0  0  0  0  0  0  0  0  0  0  0
  -23.1888    8.8920   22.6606 N   0  0  0  0  0  0  0  0  0  0  0  0
  -25.2451   12.1396   24.2557 C   0  0  0  0  0  0  0  0  0  0  0  0
  -24.9235   12.2390   22.9136 C   0  0  0  0  0  0  0  0  0  0  0  0
  -23.6691    8.7717   24.8322 N   0  0  0  0  0  0  0  0  0  0  0  0
  -24.2139   11.2328   22.2814 C   0  0  0  0  0  0  0  0  0  0  0  0
  -23.0995    8.1489   23.7761 O   0  0  0  0  0  0  0  0  0  0  0  0
  -23.9986   11.3749   20.8448 N   0  0  0  0  0  0  0  0  0  0  0  0
  -24.9737   11.5313   20.1224 O   0  0  0  0  0  0  0  0  0  0  0  0
  -22.8497   11.3540   20.4274 O   0  0  0  0  0  0  0  0  0  0  0  0
  -26.0674   10.4351   28.6035 C   0  0  0  0  0  0  0  0  0  0  0  0
  -27.2915   10.8644   29.4063 C   0  0  0  0  0  0  0  0  0  0  0  0
  -27.4689   12.3741   29.5265 C   0  0  0  0  0  0  0  0  0  0  0  0
  -28.4382   12.8015   30.6188 C   0  0  0  0  0  0  0  0  0  0  0  0
  -27.8320   13.6618   31.7136 C   0  0  0  0  0  0  0  0  0  0  0  0
  -27.6686   15.1568   31.4026 C   0  0  0  0  0  0  0  0  0  0  0  0
  -26.5038   15.8717   32.0888 C   0  0  0  0  0  0  0  0  0  0  0  0
  -25.1290   15.5961   31.4856 C   0  0  0  0  0  0  0  0  0  0  0  0
  -25.1185   15.1723   30.0180 C   0  0  0  0  0  0  0  0  0  0  0  0
  -23.7925   14.5723   29.5828 C   0  0  0  0  0  0  0  0  0  0  0  0
  -23.8868   13.4728   28.5640 C   0  0  0  0  0  0  0  0  0  0  0  0
  -24.7781   13.7113   27.6425 O   0  0  0  0  0  0  0  0  0  0  0  0
  -23.1779   12.4801   28.5734 O   0  0  0  0  0  0  0  0  0  0  0  0
  -22.5526   12.3575   29.2604 H   0  0  0  0  0  0  0  0  0  0  0  0
 23 22  1  0  0  0
 23 24  1  0  0  0
 22 21  1  0  0  0
 24 25  1  0  0  0
 21 20  1  0  0  0
 25 26  1  0  0  0
 20 19  1  0  0  0
 26 27  2  0  0  0
 26 28  1  0  0  0
 19 18  1  0  0  0
 18 17  1  0  0  0
 17 16  1  0  0  0
 16  1  1  0  0  0
  1  2  1  0  0  0
  2  6  1  0  0  0
  6  4  1  0  0  0
  6  8  2  0  0  0
 10  4  2  0  0  0
 10 12  1  0  0  0
  4  5  1  0  0  0
  8  9  1  0  0  0
 12  7  1  0  0  0
  5  7  2  0  0  0
  5 11  1  0  0  0
  9 11  2  0  0  0
 11 13  1  0  0  0
 13 14  1  0  0  0
 13 15  2  0  0  0
  2  3  1  0  0  0
 28 29  1  0  0  0
M  CHG 1  13   1
M  CHG 1  14  -1
M  END
> <minimizedAffinity>
-8.01203

$$$$
6EZQ_C7K_A_601


 29 30  0  0  0  0  0  0  0  0999 V2000
  -24.3667   11.3540   25.0099 C   0  0  0  0  0  0  0  0  0  0  0  0
  -25.1033   11.4964   23.7638 N   0  0  0  0  0  0  0  0  0  0  0  0
  -26.0821   11.5540   23.8523 H   0  0  0  0  0  0  0  0  0  0  0  0
  -24.5229   12.7814   21.7411 C   0  0  0  0  0  0  0  0  0  0  0  0
  -24.0139   12.7769   20.3502 C   0  0  0  0  0  0  0  0  0  0  0  0
  -24.6102   11.5623   22.4587 C   0  0  0  0  0  0  0  0  0  0  0  0
  -23.9932   14.0614   19.9055 N   0  0  0  0  0  0  0  0  0  0  0  0
  -24.2214   10.3784   21.8299 C   0  0  0  0  0  0  0  0  0  0  0  0
  -23.7825   10.3390   20.5182 C   0  0  0  0  0  0  0  0  0  0  0  0
  -24.7471   14.1004   22.0010 N   0  0  0  0  0  0  0  0  0  0  0  0
  -23.6946   11.4989   19.7683 C   0  0  0  0  0  0  0  0  0  0  0  0
  -24.4376   14.8355   20.9094 O   0  0  0  0  0  0  0  0  0  0  0  0
  -23.1344   11.3798   18.4258 N   0  0  0  0  0  0  0  0  0  0  0  0
  -22.0543   10.8205   18.2929 O   0  0  0  0  0  0  0  0  0  0  0  0
  -23.7802   11.8250   17.4880 O   0  0  0  0  0  0  0  0  0  0  0  0
  -24.8533   12.3577   26.0498 C   0  0  0  0  0  0  0  0  0  0  0  0
  -25.6935   11.7447   27.1659 C   0  0  0  0  0  0  0  0  0  0  0  0
  -25.5129   12.4071   28.5274 C   0  0  0  0  0  0  0  0  0  0  0  0
  -24.1842   13.1292   28.6965 C   0  0  0  0  0  0  0  0  0  0  0  0
  -24.2945   14.6154   28.9882 C   0  0  0  0  0  0  0  0  0  0  0  0
  -24.5007   15.0149   30.4566 C   0  0  0  0  0  0  0  0  0  0  0  0
  -25.9129   15.4479   30.8527 C   0  0  0  0  0  0  0  0  0  0  0  0
  -26.7630   14.3630   31.5086 C   0  0  0  0  0  0  0  0  0  0  0  0
  -28.2171   14.2865   31.0470 C   0  0  0  0  0  0  0  0  0  0  0  0
  -28.5422   12.9921   30.3213 C   0  0  0  0  0  0  0  0  0  0  0  0
  -29.3725   12.0100   31.0972 C   0  0  0  0  0  0  0  0  0  0  0  0
  -30.4556   12.5418   31.5916 O   0  0  0  0  0  0  0  0  0  0  0  0
  -29.0860   10.8306   31.2191 O   0  0  0  0  0  0  0  0  0  0  0  0
  -28.2940   10.4996   30.8435 H   0  0  0  0  0  0  0  0  0  0  0  0
 23 22  1  0  0  0
 23 24  1  0  0  0
 22 21  1  0  0  0
 24 25  1  0  0  0
 21 20  1  0  0  0
 25 26  1  0  0  0
 20 19  1  0  0  0
 26 27  2  0  0  0
 26 28  1  0  0  0
 19 18  1  0  0  0
 18 17  1  0  0  0
 17 16  1  0  0  0
 16  1  1  0  0  0
  1  2  1  0  0  0
  2  6  1  0  0  0
  6  4  1  0  0  0
  6  8  2  0  0  0
 10  4  2  0  0  0
 10 12  1  0  0  0
  4  5  1  0  0  0
  8  9  1  0  0  0
 12  7  1  0  0  0
  5  7  2  0  0  0
  5 11  1  0  0  0
  9 11  2  0  0  0
 11 13  1  0  0  0
 13 14  1  0  0  0
 13 15  2  0  0  0
  2  3  1  0  0  0
 28 29  1  0  0  0
M  CHG 1  13   1
M  CHG 1  14  -1
M  END
> <minimizedAffinity>
-7.83018

$$$$
6EZQ_C7K_A_601


 29 30  0  0  0  0  0  0  0  0999 V2000
  -25.1572   11.4793   24.8106 C   0  0  0  0  0  0  0  0  0  0  0  0
  -25.3506   12.2175   23.5723 N   0  0  0  0  0  0  0  0  0  0  0  0
  -25.9534   12.9938   23.6294 H   0  0  0  0  0  0  0  0  0  0  0  0
  -24.5045   13.0166   21.3985 C   0  0  0  0  0  0  0  0  0  0  0  0
  -23.9416   12.6868   20.0689 C   0  0  0  0  0  0  0  0  0  0  0  0
  -24.7970   11.9743   22.3133 C   0  0  0  0  0  0  0  0  0  0  0  0
  -23.7174   13.8522   19.4059 N   0  0  0  0  0  0  0  0  0  0  0  0
  -24.5553   10.6532   21.9327 C   0  0  0  0  0  0  0  0  0  0  0  0
  -24.0702   10.3135   20.6822 C   0  0  0  0  0  0  0  0  0  0  0  0
  -24.5481   14.3788   21.4044 N   0  0  0  0  0  0  0  0  0  0  0  0
  -23.7842   11.2922   19.7462 C   0  0  0  0  0  0  0  0  0  0  0  0
  -24.0892   14.8511   20.2236 O   0  0  0  0  0  0  0  0  0  0  0  0
  -23.1892   10.8529   18.4879 N   0  0  0  0  0  0  0  0  0  0  0  0
  -22.0645   11.2447   18.2074 O   0  0  0  0  0  0  0  0  0  0  0  0
  -23.8325   10.0932   17.7781 O   0  0  0  0  0  0  0  0  0  0  0  0
  -26.4202   11.5055   25.6650 C   0  0  0  0  0  0  0  0  0  0  0  0
  -26.6085   10.2710   26.5412 C   0  0  0  0  0  0  0  0  0  0  0  0
  -25.8279   10.3021   27.8507 C   0  0  0  0  0  0  0  0  0  0  0  0
  -25.6977   11.6884   28.4643 C   0  0  0  0  0  0  0  0  0  0  0  0
  -24.3049   12.2902   28.4000 C   0  0  0  0  0  0  0  0  0  0  0  0
  -24.2209   13.8181   28.2699 C   0  0  0  0  0  0  0  0  0  0  0  0
  -23.1118   14.5092   29.0644 C   0  0  0  0  0  0  0  0  0  0  0  0
  -23.5560   15.1426   30.3802 C   0  0  0  0  0  0  0  0  0  0  0  0
  -25.0622   15.1643   30.6337 C   0  0  0  0  0  0  0  0  0  0  0  0
  -25.4431   15.9429   31.8813 C   0  0  0  0  0  0  0  0  0  0  0  0
  -26.8830   15.8333   32.2941 C   0  0  0  0  0  0  0  0  0  0  0  0
  -27.3109   14.6017   32.3171 O   0  0  0  0  0  0  0  0  0  0  0  0
  -27.5694   16.7900   32.6130 O   0  0  0  0  0  0  0  0  0  0  0  0
  -27.2119   17.6554   32.5780 H   0  0  0  0  0  0  0  0  0  0  0  0
 23 22  1  0  0  0
 23 24  1  0  0  0
 22 21  1  0  0  0
 24 25  1  0  0  0
 21 20  1  0  0  0
 25 26  1  0  0  0
 20 19  1  0  0  0
 26 27  2  0  0  0
 26 28  1  0  0  0
 19 18  1  0  0  0
 18 17  1  0  0  0
 17 16  1  0  0  0
 16  1  1  0  0  0
  1  2  1  0  0  0
  2  6  1  0  0  0
  6  4  1  0  0  0
  6  8  2  0  0  0
 10  4  2  0  0  0
 10 12  1  0  0  0
  4  5  1  0  0  0
  8  9  1  0  0  0
 12  7  1  0  0  0
  5  7  2  0  0  0
  5 11  1  0  0  0
  9 11  2  0  0  0
 11 13  1  0  0  0
 13 14  1  0  0  0
 13 15  2  0  0  0
  2  3  1  0  0  0
 28 29  1  0  0  0
M  CHG 1  13   1
M  CHG 1  14  -1
M  END
> <minimizedAffinity>
-7.78994

$$$$
6EZQ_C7K_A_601


 29 30  0  0  0  0  0  0  0  0999 V2000
  -22.8847   12.2561   28.5013 C   0  0  0  0  0  0  0  0  0  0  0  0
  -23.7460   13.4273   28.4583 N   0  0  0  0  0  0  0  0  0  0  0  0
  -23.7253   13.9402   27.6182 H   0  0  0  0  0  0  0  0  0  0  0  0
  -25.9128   13.4268   29.6351 C   0  0  0  0  0  0  0  0  0  0  0  0
  -26.7739   14.0152   30.6867 C   0  0  0  0  0  0  0  0  0  0  0  0
  -24.5985   13.9231   29.4473 C   0  0  0  0  0  0  0  0  0  0  0  0
  -27.9560   13.3439   30.6871 N   0  0  0  0  0  0  0  0  0  0  0  0
  -24.1484   14.9676   30.2565 C   0  0  0  0  0  0  0  0  0  0  0  0
  -24.9453   15.5643   31.2174 C   0  0  0  0  0  0  0  0  0  0  0  0
  -26.6779   12.4291   29.1089 N   0  0  0  0  0  0  0  0  0  0  0  0
  -26.2417   15.1284   31.4292 C   0  0  0  0  0  0  0  0  0  0  0  0
  -27.8763   12.4007   29.7339 O   0  0  0  0  0  0  0  0  0  0  0  0
  -26.9799   15.7502   32.5242 N   0  0  0  0  0  0  0  0  0  0  0  0
  -27.4162   16.8819   32.3638 O   0  0  0  0  0  0  0  0  0  0  0  0
  -27.1497   15.1035   33.5477 O   0  0  0  0  0  0  0  0  0  0  0  0
  -23.4520   11.1291   27.6446 C   0  0  0  0  0  0  0  0  0  0  0  0
  -24.2476   11.6040   26.4328 C   0  0  0  0  0  0  0  0  0  0  0  0
  -23.7497   11.0588   25.0986 C   0  0  0  0  0  0  0  0  0  0  0  0
  -24.7142   10.0965   24.4210 C   0  0  0  0  0  0  0  0  0  0  0  0
  -24.1205    8.7492   24.0490 C   0  0  0  0  0  0  0  0  0  0  0  0
  -22.5882    8.6647   23.9914 C   0  0  0  0  0  0  0  0  0  0  0  0
  -21.9568    8.6877   22.5987 C   0  0  0  0  0  0  0  0  0  0  0  0
  -21.3875   10.0369   22.1680 C   0  0  0  0  0  0  0  0  0  0  0  0
  -21.9827   10.6348   20.8945 C   0  0  0  0  0  0  0  0  0  0  0  0
  -23.4961   10.5168   20.8344 C   0  0  0  0  0  0  0  0  0  0  0  0
  -24.1150   10.8427   19.5053 C   0  0  0  0  0  0  0  0  0  0  0  0
  -23.4006   10.4243   18.4978 O   0  0  0  0  0  0  0  0  0  0  0  0
  -25.1910   11.4035   19.3801 O   0  0  0  0  0  0  0  0  0  0  0  0
  -25.6640   11.6844   20.1387 H   0  0  0  0  0  0  0  0  0  0  0  0
 23 22  1  0  0  0
 23 24  1  0  0  0
 22 21  1  0  0  0
 24 25  1  0  0  0
 21 20  1  0  0  0
 25 26  1  0  0  0
 20 19  1  0  0  0
 26 27  2  0  0  0
 26 28  1  0  0  0
 19 18  1  0  0  0
 18 17  1  0  0  0
 17 16  1  0  0  0
 16  1  1  0  0  0
  1  2  1  0  0  0
  2  6  1  0  0  0
  6  4  1  0  0  0
  6  8  2  0  0  0
 10  4  2  0  0  0
 10 12  1  0  0  0
  4  5  1  0  0  0
  8  9  1  0  0  0
 12  7  1  0  0  0
  5  7  2  0  0  0
  5 11  1  0  0  0
  9 11  2  0  0  0
 11 13  1  0  0  0
 13 14  1  0  0  0
 13 15  2  0  0  0
  2  3  1  0  0  0
 28 29  1  0  0  0
M  CHG 1  13   1
M  CHG 1  14  -1
M  END
> <minimizedAffinity>
-7.75975

$$$$
