5KR2_ROC_A_101


 55 59  0  0  0  0  0  0  0  0999 V2000
   -3.8370  -19.8674   57.6523 C   0  0  0  0  0  0  0  0  0  0  0  0
   -2.1020  -21.5191   58.4361 C   0  0  0  0  0  0  0  0  0  0  0  0
   -1.7597  -21.8067   57.2980 O   0  0  0  0  0  0  0  0  0  0  0  0
   -3.1621  -20.5496   58.7081 N   0  0  0  0  0  0  0  0  0  0  0  0
   -3.4159  -20.3633   59.6409 H   0  0  0  0  0  0  0  0  0  0  0  0
   -1.4417  -22.2123   59.6266 C   0  0  0  0  0  0  0  0  0  0  0  0
   -2.9929  -23.1708   61.3185 C   0  0  0  0  0  0  0  0  0  0  0  0
   -2.6692  -22.3064   62.1286 O   0  0  0  0  0  0  0  0  0  0  0  0
   -2.3804  -23.2047   60.0243 N   0  0  0  0  0  0  0  0  0  0  0  0
   -2.6132  -23.9280   59.3983 H   0  0  0  0  0  0  0  0  0  0  0  0
   -4.0468  -25.3509   60.7775 N   0  0  0  0  0  0  0  0  0  0  0  0
   -4.0050  -24.2898   61.6530 C   0  0  0  0  0  0  0  0  0  0  0  0
   -4.8379  -24.2850   62.7638 C   0  0  0  0  0  0  0  0  0  0  0  0
   -5.6988  -25.3315   62.9695 C   0  0  0  0  0  0  0  0  0  0  0  0
   -6.6295  -27.4831   62.3086 C   0  0  0  0  0  0  0  0  0  0  0  0
   -6.6693  -28.5567   61.4207 C   0  0  0  0  0  0  0  0  0  0  0  0
   -5.8341  -28.5685   60.3084 C   0  0  0  0  0  0  0  0  0  0  0  0
   -4.9588  -27.4974   60.0906 C   0  0  0  0  0  0  0  0  0  0  0  0
   -5.7430  -26.4020   62.0862 C   0  0  0  0  0  0  0  0  0  0  0  0
   -4.9190  -26.4083   60.9889 C   0  0  0  0  0  0  0  0  0  0  0  0
   -0.1400  -22.8242   59.2001 C   0  0  0  0  0  0  0  0  0  0  0  0
    0.9119  -22.5608   60.2583 C   0  0  0  0  0  0  0  0  0  0  0  0
    0.6611  -22.7337   61.4387 O   0  0  0  0  0  0  0  0  0  0  0  0
    2.1989  -22.1041   59.8592 N   0  0  0  0  0  0  0  0  0  0  0  0
    2.3980  -21.9655   58.9050 H   0  0  0  0  0  0  0  0  0  0  0  0
    2.8903  -21.9268   60.5372 H   0  0  0  0  0  0  0  0  0  0  0  0
   -3.0916  -18.5512   57.4144 C   0  0  0  0  0  0  0  0  0  0  0  0
   -3.2607  -17.6979   58.4970 O   0  0  0  0  0  0  0  0  0  0  0  0
   -4.2017  -17.4851   58.5971 H   0  0  0  0  0  0  0  0  0  0  0  0
   -3.5635  -17.8533   56.1183 C   0  0  0  0  0  0  0  0  0  0  0  0
   -2.7463  -18.3860   55.0123 N   0  0  0  0  0  0  0  0  0  0  0  0
   -3.4147  -18.1681   53.6745 C   0  0  0  0  0  0  0  0  0  0  0  0
   -2.5636  -18.6947   52.5099 C   0  0  0  0  0  0  0  0  0  0  0  0
   -1.1939  -18.0708   52.5487 C   0  0  0  0  0  0  0  0  0  0  0  0
   -0.3549  -18.6874   51.3938 C   0  0  0  0  0  0  0  0  0  0  0  0
   -0.0434  -20.1612   51.6397 C   0  0  0  0  0  0  0  0  0  0  0  0
    0.6562  -20.3594   52.9728 C   0  0  0  0  0  0  0  0  0  0  0  0
   -0.1128  -19.7272   54.1443 C   0  0  0  0  0  0  0  0  0  0  0  0
   -0.5192  -18.2551   53.8780 C   0  0  0  0  0  0  0  0  0  0  0  0
   -1.3854  -17.7750   55.0477 C   0  0  0  0  0  0  0  0  0  0  0  0
   -4.7727  -18.7781   53.6404 C   0  0  0  0  0  0  0  0  0  0  0  0
   -4.9704  -19.9375   53.9387 O   0  0  0  0  0  0  0  0  0  0  0  0
   -5.8177  -17.8732   53.2275 N   0  0  0  0  0  0  0  0  0  0  0  0
   -5.5836  -16.9439   53.0019 H   0  0  0  0  0  0  0  0  0  0  0  0
   -7.2033  -18.2927   53.1349 C   0  0  0  0  0  0  0  0  0  0  0  0
   -7.3367  -19.5748   52.3303 C   0  0  0  0  0  0  0  0  0  0  0  0
   -7.7244  -18.4983   54.5492 C   0  0  0  0  0  0  0  0  0  0  0  0
   -7.9690  -17.2078   52.4232 C   0  0  0  0  0  0  0  0  0  0  0  0
   -5.2766  -19.6313   58.0758 C   0  0  0  0  0  0  0  0  0  0  0  0
   -5.9040  -20.9367   58.6024 C   0  0  0  0  0  0  0  0  0  0  0  0
   -6.2954  -21.0330   59.9351 C   0  0  0  0  0  0  0  0  0  0  0  0
   -6.0881  -22.0270   57.7603 C   0  0  0  0  0  0  0  0  0  0  0  0
   -6.8540  -22.2065   60.4180 C   0  0  0  0  0  0  0  0  0  0  0  0
   -6.6629  -23.2065   58.2441 C   0  0  0  0  0  0  0  0  0  0  0  0
   -7.0469  -23.2934   59.5779 C   0  0  0  0  0  0  0  0  0  0  0  0
  8  7  2  0  0  0
  7 12  1  0  0  0
 11 12  2  0  0  0
 11 20  1  0  0  0
 12 13  1  0  0  0
 13 14  2  0  0  0
 14 19  1  0  0  0
 19 15  2  0  0  0
 19 20  1  0  0  0
 15 16  1  0  0  0
 16 17  2  0  0  0
 17 18  1  0  0  0
 18 20  2  0  0  0
  9  6  1  0  0  0
  6  2  1  0  0  0
  6 21  1  0  0  0
  2  3  2  0  0  0
 21 22  1  0  0  0
 22 23  2  0  0  0
 22 24  1  0  0  0
 27 28  1  0  0  0
 27  1  1  0  0  0
  1  4  1  0  0  0
  1 49  1  0  0  0
 49 50  1  0  0  0
 50 51  2  0  0  0
 50 52  1  0  0  0
 51 53  1  0  0  0
 52 54  2  0  0  0
 53 55  2  0  0  0
 54 55  1  0  0  0
 31 30  1  0  0  0
 31 32  1  0  0  0
 31 40  1  0  0  0
 32 41  1  0  0  0
 32 33  1  0  0  0
 41 42  2  0  0  0
 33 34  1  0  0  0
 34 35  1  0  0  0
 34 39  1  0  0  0
 35 36  1  0  0  0
 36 37  1  0  0  0
 37 38  1  0  0  0
 38 39  1  0  0  0
 39 40  1  0  0  0
 43 45  1  0  0  0
 45 46  1  0  0  0
 45 47  1  0  0  0
 45 48  1  0  0  0
  7  9  1  0  0  0
  2  4  1  0  0  0
 27 30  1  0  0  0
 41 43  1  0  0  0
  9 10  1  0  0  0
 24 25  1  0  0  0
 24 26  1  0  0  0
 28 29  1  0  0  0
  4  5  1  0  0  0
 43 44  1  0  0  0
M  END
> <minimizedAffinity>
-12.05770

$$$$
5KR2_ROC_A_101


 55 59  0  0  0  0  0  0  0  0999 V2000
   -3.6095  -20.0667   57.5441 C   0  0  0  0  0  0  0  0  0  0  0  0
   -2.0651  -21.8236   58.4825 C   0  0  0  0  0  0  0  0  0  0  0  0
   -2.3286  -22.6275   57.5995 O   0  0  0  0  0  0  0  0  0  0  0  0
   -2.6822  -20.4994   58.5383 N   0  0  0  0  0  0  0  0  0  0  0  0
   -2.4525  -19.8924   59.2786 H   0  0  0  0  0  0  0  0  0  0  0  0
   -1.0926  -22.2091   59.5958 C   0  0  0  0  0  0  0  0  0  0  0  0
   -2.3827  -23.3139   61.4132 C   0  0  0  0  0  0  0  0  0  0  0  0
   -2.4688  -22.2500   62.0207 O   0  0  0  0  0  0  0  0  0  0  0  0
   -1.6631  -23.3760   60.1764 N   0  0  0  0  0  0  0  0  0  0  0  0
   -1.5612  -24.2422   59.7196 H   0  0  0  0  0  0  0  0  0  0  0  0
   -2.2162  -25.7668   61.7474 N   0  0  0  0  0  0  0  0  0  0  0  0
   -2.9706  -24.6351   61.9581 C   0  0  0  0  0  0  0  0  0  0  0  0
   -4.1765  -24.7329   62.6393 C   0  0  0  0  0  0  0  0  0  0  0  0
   -4.6059  -25.9559   63.0845 C   0  0  0  0  0  0  0  0  0  0  0  0
   -4.2924  -28.3577   63.3402 C   0  0  0  0  0  0  0  0  0  0  0  0
   -3.5260  -29.5020   63.1261 C   0  0  0  0  0  0  0  0  0  0  0  0
   -2.3152  -29.4092   62.4477 C   0  0  0  0  0  0  0  0  0  0  0  0
   -1.8769  -28.1625   61.9845 C   0  0  0  0  0  0  0  0  0  0  0  0
   -3.8463  -27.0986   62.8713 C   0  0  0  0  0  0  0  0  0  0  0  0
   -2.6536  -27.0027   62.1995 C   0  0  0  0  0  0  0  0  0  0  0  0
    0.2613  -22.4887   59.0133 C   0  0  0  0  0  0  0  0  0  0  0  0
    1.2997  -22.4648   60.1165 C   0  0  0  0  0  0  0  0  0  0  0  0
    0.9609  -22.4797   61.2875 O   0  0  0  0  0  0  0  0  0  0  0  0
    2.6790  -22.4207   59.7706 N   0  0  0  0  0  0  0  0  0  0  0  0
    2.9490  -22.4088   58.8240 H   0  0  0  0  0  0  0  0  0  0  0  0
    3.3635  -22.4022   60.4780 H   0  0  0  0  0  0  0  0  0  0  0  0
   -2.9405  -18.9315   56.7642 C   0  0  0  0  0  0  0  0  0  0  0  0
   -3.5993  -17.7315   56.9977 O   0  0  0  0  0  0  0  0  0  0  0  0
   -4.5149  -17.7990   56.6846 H   0  0  0  0  0  0  0  0  0  0  0  0
   -2.9057  -19.2238   55.2466 C   0  0  0  0  0  0  0  0  0  0  0  0
   -4.1777  -18.7399   54.6788 N   0  0  0  0  0  0  0  0  0  0  0  0
   -4.0295  -18.3728   53.2203 C   0  0  0  0  0  0  0  0  0  0  0  0
   -5.3526  -17.8911   52.6075 C   0  0  0  0  0  0  0  0  0  0  0  0
   -6.4224  -18.9315   52.8069 C   0  0  0  0  0  0  0  0  0  0  0  0
   -7.7518  -18.3666   52.2312 C   0  0  0  0  0  0  0  0  0  0  0  0
   -8.2810  -17.1991   53.0598 C   0  0  0  0  0  0  0  0  0  0  0  0
   -8.4545  -17.5934   54.5159 C   0  0  0  0  0  0  0  0  0  0  0  0
   -7.1780  -18.2005   55.1206 C   0  0  0  0  0  0  0  0  0  0  0  0
   -6.5717  -19.3291   54.2477 C   0  0  0  0  0  0  0  0  0  0  0  0
   -5.2439  -19.7648   54.8772 C   0  0  0  0  0  0  0  0  0  0  0  0
   -2.9652  -17.3501   53.0234 C   0  0  0  0  0  0  0  0  0  0  0  0
   -3.1515  -16.1706   53.2390 O   0  0  0  0  0  0  0  0  0  0  0  0
   -1.7081  -17.8858   52.5608 N   0  0  0  0  0  0  0  0  0  0  0  0
   -1.6287  -18.8552   52.4086 H   0  0  0  0  0  0  0  0  0  0  0  0
   -0.5575  -17.0376   52.3133 C   0  0  0  0  0  0  0  0  0  0  0  0
    0.6924  -17.8655   52.0652 C   0  0  0  0  0  0  0  0  0  0  0  0
   -0.8679  -16.1713   51.1021 C   0  0  0  0  0  0  0  0  0  0  0  0
   -0.3294  -16.1966   53.5422 C   0  0  0  0  0  0  0  0  0  0  0  0
   -4.8775  -19.6019   58.2396 C   0  0  0  0  0  0  0  0  0  0  0  0
   -5.7553  -20.8092   58.6226 C   0  0  0  0  0  0  0  0  0  0  0  0
   -5.9720  -21.8321   57.7032 C   0  0  0  0  0  0  0  0  0  0  0  0
   -6.3370  -20.8940   59.8820 C   0  0  0  0  0  0  0  0  0  0  0  0
   -6.7664  -22.9181   58.0379 C   0  0  0  0  0  0  0  0  0  0  0  0
   -7.1282  -21.9952   60.2241 C   0  0  0  0  0  0  0  0  0  0  0  0
   -7.3413  -23.0096   59.2970 C   0  0  0  0  0  0  0  0  0  0  0  0
  8  7  2  0  0  0
  7 12  1  0  0  0
 11 12  2  0  0  0
 11 20  1  0  0  0
 12 13  1  0  0  0
 13 14  2  0  0  0
 14 19  1  0  0  0
 19 15  2  0  0  0
 19 20  1  0  0  0
 15 16  1  0  0  0
 16 17  2  0  0  0
 17 18  1  0  0  0
 18 20  2  0  0  0
  9  6  1  0  0  0
  6  2  1  0  0  0
  6 21  1  0  0  0
  2  3  2  0  0  0
 21 22  1  0  0  0
 22 23  2  0  0  0
 22 24  1  0  0  0
 27 28  1  0  0  0
 27  1  1  0  0  0
  1  4  1  0  0  0
  1 49  1  0  0  0
 49 50  1  0  0  0
 50 51  2  0  0  0
 50 52  1  0  0  0
 51 53  1  0  0  0
 52 54  2  0  0  0
 53 55  2  0  0  0
 54 55  1  0  0  0
 31 30  1  0  0  0
 31 32  1  0  0  0
 31 40  1  0  0  0
 32 41  1  0  0  0
 32 33  1  0  0  0
 41 42  2  0  0  0
 33 34  1  0  0  0
 34 35  1  0  0  0
 34 39  1  0  0  0
 35 36  1  0  0  0
 36 37  1  0  0  0
 37 38  1  0  0  0
 38 39  1  0  0  0
 39 40  1  0  0  0
 43 45  1  0  0  0
 45 46  1  0  0  0
 45 47  1  0  0  0
 45 48  1  0  0  0
  7  9  1  0  0  0
  2  4  1  0  0  0
 27 30  1  0  0  0
 41 43  1  0  0  0
  9 10  1  0  0  0
 24 25  1  0  0  0
 24 26  1  0  0  0
 28 29  1  0  0  0
  4  5  1  0  0  0
 43 44  1  0  0  0
M  END
> <minimizedAffinity>
-10.59435

$$$$
5KR2_ROC_A_101


 55 59  0  0  0  0  0  0  0  0999 V2000
   -4.0526  -20.5051   57.6214 C   0  0  0  0  0  0  0  0  0  0  0  0
   -2.1154  -21.8917   58.4443 C   0  0  0  0  0  0  0  0  0  0  0  0
   -2.1830  -22.6713   57.5047 O   0  0  0  0  0  0  0  0  0  0  0  0
   -3.0374  -20.7663   58.5893 N   0  0  0  0  0  0  0  0  0  0  0  0
   -2.9559  -20.1754   59.3724 H   0  0  0  0  0  0  0  0  0  0  0  0
   -1.0668  -22.1046   59.5347 C   0  0  0  0  0  0  0  0  0  0  0  0
   -2.1593  -23.4231   61.3391 C   0  0  0  0  0  0  0  0  0  0  0  0
   -2.4659  -22.3909   61.9297 O   0  0  0  0  0  0  0  0  0  0  0  0
   -1.4120  -23.3550   60.1191 N   0  0  0  0  0  0  0  0  0  0  0  0
   -1.1321  -24.1888   59.6768 H   0  0  0  0  0  0  0  0  0  0  0  0
   -1.5150  -25.7865   61.7331 N   0  0  0  0  0  0  0  0  0  0  0  0
   -2.4907  -24.8286   61.8897 C   0  0  0  0  0  0  0  0  0  0  0  0
   -3.6796  -25.1595   62.5257 C   0  0  0  0  0  0  0  0  0  0  0  0
   -3.8715  -26.4380   62.9806 C   0  0  0  0  0  0  0  0  0  0  0  0
   -3.0904  -28.7227   63.3006 C   0  0  0  0  0  0  0  0  0  0  0  0
   -2.1003  -29.6907   63.1413 C   0  0  0  0  0  0  0  0  0  0  0  0
   -0.9056  -29.3636   62.5084 C   0  0  0  0  0  0  0  0  0  0  0  0
   -0.7090  -28.0603   62.0353 C   0  0  0  0  0  0  0  0  0  0  0  0
   -2.8884  -27.4058   62.8220 C   0  0  0  0  0  0  0  0  0  0  0  0
   -1.7124  -27.0792   62.1948 C   0  0  0  0  0  0  0  0  0  0  0  0
    0.3023  -22.1415   58.9225 C   0  0  0  0  0  0  0  0  0  0  0  0
    1.3396  -22.2977   60.0158 C   0  0  0  0  0  0  0  0  0  0  0  0
    1.0034  -22.3540   61.1863 O   0  0  0  0  0  0  0  0  0  0  0  0
    2.7154  -22.3743   59.6616 N   0  0  0  0  0  0  0  0  0  0  0  0
    2.9833  -22.3285   58.7154 H   0  0  0  0  0  0  0  0  0  0  0  0
    3.3994  -22.4732   60.3627 H   0  0  0  0  0  0  0  0  0  0  0  0
   -3.5839  -19.3118   56.7843 C   0  0  0  0  0  0  0  0  0  0  0  0
   -4.1469  -18.1357   57.2623 O   0  0  0  0  0  0  0  0  0  0  0  0
   -5.1125  -18.1843   57.1839 H   0  0  0  0  0  0  0  0  0  0  0  0
   -3.9330  -19.4902   55.2890 C   0  0  0  0  0  0  0  0  0  0  0  0
   -2.8850  -18.8048   54.5103 N   0  0  0  0  0  0  0  0  0  0  0  0
   -3.3776  -17.4876   53.9571 C   0  0  0  0  0  0  0  0  0  0  0  0
   -2.2889  -16.7493   53.1648 C   0  0  0  0  0  0  0  0  0  0  0  0
   -1.0646  -16.5631   54.0209 C   0  0  0  0  0  0  0  0  0  0  0  0
    0.0261  -15.8747   53.1522 C   0  0  0  0  0  0  0  0  0  0  0  0
    0.5421  -16.7961   52.0502 C   0  0  0  0  0  0  0  0  0  0  0  0
    1.0626  -18.1016   52.6251 C   0  0  0  0  0  0  0  0  0  0  0  0
    0.0351  -18.8009   53.5301 C   0  0  0  0  0  0  0  0  0  0  0  0
   -0.5702  -17.8574   54.6009 C   0  0  0  0  0  0  0  0  0  0  0  0
   -1.6665  -18.6211   55.3518 C   0  0  0  0  0  0  0  0  0  0  0  0
   -4.5935  -17.6721   53.1176 C   0  0  0  0  0  0  0  0  0  0  0  0
   -4.5553  -17.6411   51.9052 O   0  0  0  0  0  0  0  0  0  0  0  0
   -5.8048  -17.8906   53.8704 N   0  0  0  0  0  0  0  0  0  0  0  0
   -5.7603  -17.9051   54.8538 H   0  0  0  0  0  0  0  0  0  0  0  0
   -7.0864  -18.0896   53.2205 C   0  0  0  0  0  0  0  0  0  0  0  0
   -7.3516  -17.0085   52.1860 C   0  0  0  0  0  0  0  0  0  0  0  0
   -7.0678  -19.4603   52.5613 C   0  0  0  0  0  0  0  0  0  0  0  0
   -8.1586  -18.0055   54.2755 C   0  0  0  0  0  0  0  0  0  0  0  0
   -5.3491  -20.2052   58.3540 C   0  0  0  0  0  0  0  0  0  0  0  0
   -5.9012  -21.4824   59.0165 C   0  0  0  0  0  0  0  0  0  0  0  0
   -6.3773  -22.5261   58.2274 C   0  0  0  0  0  0  0  0  0  0  0  0
   -5.9300  -21.6098   60.4002 C   0  0  0  0  0  0  0  0  0  0  0  0
   -6.8822  -23.6754   58.8162 C   0  0  0  0  0  0  0  0  0  0  0  0
   -6.4278  -22.7739   60.9941 C   0  0  0  0  0  0  0  0  0  0  0  0
   -6.9042  -23.8089   60.1968 C   0  0  0  0  0  0  0  0  0  0  0  0
  8  7  2  0  0  0
  7 12  1  0  0  0
 11 12  2  0  0  0
 11 20  1  0  0  0
 12 13  1  0  0  0
 13 14  2  0  0  0
 14 19  1  0  0  0
 19 15  2  0  0  0
 19 20  1  0  0  0
 15 16  1  0  0  0
 16 17  2  0  0  0
 17 18  1  0  0  0
 18 20  2  0  0  0
  9  6  1  0  0  0
  6  2  1  0  0  0
  6 21  1  0  0  0
  2  3  2  0  0  0
 21 22  1  0  0  0
 22 23  2  0  0  0
 22 24  1  0  0  0
 27 28  1  0  0  0
 27  1  1  0  0  0
  1  4  1  0  0  0
  1 49  1  0  0  0
 49 50  1  0  0  0
 50 51  2  0  0  0
 50 52  1  0  0  0
 51 53  1  0  0  0
 52 54  2  0  0  0
 53 55  2  0  0  0
 54 55  1  0  0  0
 31 30  1  0  0  0
 31 32  1  0  0  0
 31 40  1  0  0  0
 32 41  1  0  0  0
 32 33  1  0  0  0
 41 42  2  0  0  0
 33 34  1  0  0  0
 34 35  1  0  0  0
 34 39  1  0  0  0
 35 36  1  0  0  0
 36 37  1  0  0  0
 37 38  1  0  0  0
 38 39  1  0  0  0
 39 40  1  0  0  0
 43 45  1  0  0  0
 45 46  1  0  0  0
 45 47  1  0  0  0
 45 48  1  0  0  0
  7  9  1  0  0  0
  2  4  1  0  0  0
 27 30  1  0  0  0
 41 43  1  0  0  0
  9 10  1  0  0  0
 24 25  1  0  0  0
 24 26  1  0  0  0
 28 29  1  0  0  0
  4  5  1  0  0  0
 43 44  1  0  0  0
M  END
> <minimizedAffinity>
-10.26504

$$$$
5KR2_ROC_A_101


 55 59  0  0  0  0  0  0  0  0999 V2000
   -3.4254  -21.7438   58.3439 C   0  0  0  0  0  0  0  0  0  0  0  0
   -5.1471  -22.1817   60.1317 C   0  0  0  0  0  0  0  0  0  0  0  0
   -5.4879  -21.0088   60.1898 O   0  0  0  0  0  0  0  0  0  0  0  0
   -4.0943  -22.6421   59.2277 N   0  0  0  0  0  0  0  0  0  0  0  0
   -3.8412  -23.5935   59.2289 H   0  0  0  0  0  0  0  0  0  0  0  0
   -5.8013  -23.2098   61.0530 C   0  0  0  0  0  0  0  0  0  0  0  0
   -5.1719  -25.5974   61.3547 C   0  0  0  0  0  0  0  0  0  0  0  0
   -6.3558  -25.9223   61.3853 O   0  0  0  0  0  0  0  0  0  0  0  0
   -4.8112  -24.2180   61.2188 N   0  0  0  0  0  0  0  0  0  0  0  0
   -3.8606  -23.9627   61.2405 H   0  0  0  0  0  0  0  0  0  0  0  0
   -2.7545  -26.0910   61.6175 N   0  0  0  0  0  0  0  0  0  0  0  0
   -4.0228  -26.6171   61.5228 C   0  0  0  0  0  0  0  0  0  0  0  0
   -4.2011  -27.9921   61.5943 C   0  0  0  0  0  0  0  0  0  0  0  0
   -3.1117  -28.8094   61.7477 C   0  0  0  0  0  0  0  0  0  0  0  0
   -0.7112  -29.1296   62.0076 C   0  0  0  0  0  0  0  0  0  0  0  0
    0.5720  -28.5942   62.1039 C   0  0  0  0  0  0  0  0  0  0  0  0
    0.7560  -27.2170   62.0369 C   0  0  0  0  0  0  0  0  0  0  0  0
   -0.3539  -26.3792   61.8723 C   0  0  0  0  0  0  0  0  0  0  0  0
   -1.8314  -28.2800   61.8419 C   0  0  0  0  0  0  0  0  0  0  0  0
   -1.6544  -26.9210   61.7730 C   0  0  0  0  0  0  0  0  0  0  0  0
   -6.1572  -22.5664   62.3607 C   0  0  0  0  0  0  0  0  0  0  0  0
   -4.9376  -22.5424   63.2594 C   0  0  0  0  0  0  0  0  0  0  0  0
   -4.6946  -23.4795   64.0003 O   0  0  0  0  0  0  0  0  0  0  0  0
   -4.0777  -21.4092   63.2326 N   0  0  0  0  0  0  0  0  0  0  0  0
   -4.2770  -20.6542   62.6331 H   0  0  0  0  0  0  0  0  0  0  0  0
   -3.2835  -21.3802   63.8136 H   0  0  0  0  0  0  0  0  0  0  0  0
   -4.4497  -21.2877   57.3011 C   0  0  0  0  0  0  0  0  0  0  0  0
   -4.2887  -22.0025   56.1213 O   0  0  0  0  0  0  0  0  0  0  0  0
   -3.4065  -21.8303   55.7568 H   0  0  0  0  0  0  0  0  0  0  0  0
   -4.3387  -19.7726   57.0154 C   0  0  0  0  0  0  0  0  0  0  0  0
   -3.3390  -19.6015   55.9449 N   0  0  0  0  0  0  0  0  0  0  0  0
   -3.8267  -18.6481   54.8785 C   0  0  0  0  0  0  0  0  0  0  0  0
   -2.7857  -18.4396   53.7690 C   0  0  0  0  0  0  0  0  0  0  0  0
   -1.4823  -17.9784   54.3647 C   0  0  0  0  0  0  0  0  0  0  0  0
   -0.4483  -17.8490   53.2105 C   0  0  0  0  0  0  0  0  0  0  0  0
   -0.0718  -19.2086   52.6279 C   0  0  0  0  0  0  0  0  0  0  0  0
    0.4460  -20.1437   53.7064 C   0  0  0  0  0  0  0  0  0  0  0  0
   -0.5223  -20.2712   54.8938 C   0  0  0  0  0  0  0  0  0  0  0  0
   -0.9895  -18.8993   55.4442 C   0  0  0  0  0  0  0  0  0  0  0  0
   -2.0428  -19.1488   56.5293 C   0  0  0  0  0  0  0  0  0  0  0  0
   -5.1203  -19.1008   54.2961 C   0  0  0  0  0  0  0  0  0  0  0  0
   -5.4136  -20.2744   54.2018 O   0  0  0  0  0  0  0  0  0  0  0  0
   -5.9817  -18.0278   53.8625 N   0  0  0  0  0  0  0  0  0  0  0  0
   -5.6786  -17.0976   53.9720 H   0  0  0  0  0  0  0  0  0  0  0  0
   -7.2816  -18.2796   53.2698 C   0  0  0  0  0  0  0  0  0  0  0  0
   -7.2595  -19.5311   52.4081 C   0  0  0  0  0  0  0  0  0  0  0  0
   -8.2883  -18.4325   54.3998 C   0  0  0  0  0  0  0  0  0  0  0  0
   -7.6238  -17.1066   52.3885 C   0  0  0  0  0  0  0  0  0  0  0  0
   -2.2591  -22.4778   57.7049 C   0  0  0  0  0  0  0  0  0  0  0  0
   -1.0238  -22.4307   58.6251 C   0  0  0  0  0  0  0  0  0  0  0  0
   -1.1273  -22.8421   59.9512 C   0  0  0  0  0  0  0  0  0  0  0  0
    0.2017  -21.9819   58.1473 C   0  0  0  0  0  0  0  0  0  0  0  0
   -0.0221  -22.7959   60.7873 C   0  0  0  0  0  0  0  0  0  0  0  0
    1.3196  -21.9468   58.9869 C   0  0  0  0  0  0  0  0  0  0  0  0
    1.2043  -22.3566   60.3109 C   0  0  0  0  0  0  0  0  0  0  0  0
  8  7  2  0  0  0
  7 12  1  0  0  0
 11 12  2  0  0  0
 11 20  1  0  0  0
 12 13  1  0  0  0
 13 14  2  0  0  0
 14 19  1  0  0  0
 19 15  2  0  0  0
 19 20  1  0  0  0
 15 16  1  0  0  0
 16 17  2  0  0  0
 17 18  1  0  0  0
 18 20  2  0  0  0
  9  6  1  0  0  0
  6  2  1  0  0  0
  6 21  1  0  0  0
  2  3  2  0  0  0
 21 22  1  0  0  0
 22 23  2  0  0  0
 22 24  1  0  0  0
 27 28  1  0  0  0
 27  1  1  0  0  0
  1  4  1  0  0  0
  1 49  1  0  0  0
 49 50  1  0  0  0
 50 51  2  0  0  0
 50 52  1  0  0  0
 51 53  1  0  0  0
 52 54  2  0  0  0
 53 55  2  0  0  0
 54 55  1  0  0  0
 31 30  1  0  0  0
 31 32  1  0  0  0
 31 40  1  0  0  0
 32 41  1  0  0  0
 32 33  1  0  0  0
 41 42  2  0  0  0
 33 34  1  0  0  0
 34 35  1  0  0  0
 34 39  1  0  0  0
 35 36  1  0  0  0
 36 37  1  0  0  0
 37 38  1  0  0  0
 38 39  1  0  0  0
 39 40  1  0  0  0
 43 45  1  0  0  0
 45 46  1  0  0  0
 45 47  1  0  0  0
 45 48  1  0  0  0
  7  9  1  0  0  0
  2  4  1  0  0  0
 27 30  1  0  0  0
 41 43  1  0  0  0
  9 10  1  0  0  0
 24 25  1  0  0  0
 24 26  1  0  0  0
 28 29  1  0  0  0
  4  5  1  0  0  0
 43 44  1  0  0  0
M  END
> <minimizedAffinity>
-9.97249

$$$$
5KR2_ROC_A_101


 55 59  0  0  0  0  0  0  0  0999 V2000
   -2.0648  -21.2327   58.0459 C   0  0  0  0  0  0  0  0  0  0  0  0
   -3.1848  -22.5309   59.8932 C   0  0  0  0  0  0  0  0  0  0  0  0
   -2.3060  -22.2726   60.7033 O   0  0  0  0  0  0  0  0  0  0  0  0
   -3.1354  -22.0520   58.5127 N   0  0  0  0  0  0  0  0  0  0  0  0
   -3.8573  -22.3006   57.8911 H   0  0  0  0  0  0  0  0  0  0  0  0
   -4.3617  -23.4139   60.3041 C   0  0  0  0  0  0  0  0  0  0  0  0
   -4.3605  -25.8714   60.6896 C   0  0  0  0  0  0  0  0  0  0  0  0
   -5.4481  -25.9761   60.1289 O   0  0  0  0  0  0  0  0  0  0  0  0
   -3.7562  -24.5822   60.8453 N   0  0  0  0  0  0  0  0  0  0  0  0
   -2.9063  -24.5030   61.3357 H   0  0  0  0  0  0  0  0  0  0  0  0
   -2.2465  -27.0144   61.3068 N   0  0  0  0  0  0  0  0  0  0  0  0
   -3.6213  -27.0797   61.3076 C   0  0  0  0  0  0  0  0  0  0  0  0
   -4.2541  -28.1863   61.8578 C   0  0  0  0  0  0  0  0  0  0  0  0
   -3.5026  -29.2045   62.3839 C   0  0  0  0  0  0  0  0  0  0  0  0
   -1.3454  -30.1925   62.9342 C   0  0  0  0  0  0  0  0  0  0  0  0
    0.0467  -30.1234   62.9327 C   0  0  0  0  0  0  0  0  0  0  0  0
    0.6858  -29.0153   62.3864 C   0  0  0  0  0  0  0  0  0  0  0  0
   -0.0786  -27.9765   61.8408 C   0  0  0  0  0  0  0  0  0  0  0  0
   -2.1155  -29.1404   62.3825 C   0  0  0  0  0  0  0  0  0  0  0  0
   -1.4892  -28.0464   61.8403 C   0  0  0  0  0  0  0  0  0  0  0  0
   -5.1979  -22.7025   61.3266 C   0  0  0  0  0  0  0  0  0  0  0  0
   -4.5148  -22.7766   62.6769 C   0  0  0  0  0  0  0  0  0  0  0  0
   -4.6191  -23.7735   63.3709 O   0  0  0  0  0  0  0  0  0  0  0  0
   -3.7506  -21.6654   63.1302 N   0  0  0  0  0  0  0  0  0  0  0  0
   -3.6685  -20.8620   62.5672 H   0  0  0  0  0  0  0  0  0  0  0  0
   -3.3040  -21.7000   64.0069 H   0  0  0  0  0  0  0  0  0  0  0  0
   -2.6663  -20.2092   57.0787 C   0  0  0  0  0  0  0  0  0  0  0  0
   -3.7998  -19.6291   57.6329 O   0  0  0  0  0  0  0  0  0  0  0  0
   -4.4706  -20.3127   57.7868 H   0  0  0  0  0  0  0  0  0  0  0  0
   -3.0176  -20.8486   55.7158 C   0  0  0  0  0  0  0  0  0  0  0  0
   -4.1182  -20.0589   55.1330 N   0  0  0  0  0  0  0  0  0  0  0  0
   -3.8608  -19.7387   53.6786 C   0  0  0  0  0  0  0  0  0  0  0  0
   -5.0107  -18.9381   53.0502 C   0  0  0  0  0  0  0  0  0  0  0  0
   -6.3109  -19.6756   53.2294 C   0  0  0  0  0  0  0  0  0  0  0  0
   -7.4466  -18.7931   52.6383 C   0  0  0  0  0  0  0  0  0  0  0  0
   -7.6766  -17.5312   53.4656 C   0  0  0  0  0  0  0  0  0  0  0  0
   -7.9652  -17.8713   54.9170 C   0  0  0  0  0  0  0  0  0  0  0  0
   -6.8918  -18.7815   55.5361 C   0  0  0  0  0  0  0  0  0  0  0  0
   -6.5768  -20.0250   54.6658 C   0  0  0  0  0  0  0  0  0  0  0  0
   -5.4110  -20.7823   55.3114 C   0  0  0  0  0  0  0  0  0  0  0  0
   -2.5704  -19.0170   53.5018 C   0  0  0  0  0  0  0  0  0  0  0  0
   -2.4133  -17.8706   53.8671 O   0  0  0  0  0  0  0  0  0  0  0  0
   -1.5376  -19.7984   52.8662 N   0  0  0  0  0  0  0  0  0  0  0  0
   -1.7360  -20.7246   52.5976 H   0  0  0  0  0  0  0  0  0  0  0  0
   -0.2151  -19.2593   52.6114 C   0  0  0  0  0  0  0  0  0  0  0  0
   -0.2577  -18.1826   51.5399 C   0  0  0  0  0  0  0  0  0  0  0  0
    0.3152  -18.6865   53.9170 C   0  0  0  0  0  0  0  0  0  0  0  0
    0.6557  -20.3840   52.1149 C   0  0  0  0  0  0  0  0  0  0  0  0
   -1.0422  -22.1226   57.3605 C   0  0  0  0  0  0  0  0  0  0  0  0
    0.0783  -22.5119   58.3443 C   0  0  0  0  0  0  0  0  0  0  0  0
    0.1427  -23.8080   58.8488 C   0  0  0  0  0  0  0  0  0  0  0  0
    1.0338  -21.5823   58.7374 C   0  0  0  0  0  0  0  0  0  0  0  0
    1.1436  -24.1639   59.7399 C   0  0  0  0  0  0  0  0  0  0  0  0
    2.0507  -21.9443   59.6265 C   0  0  0  0  0  0  0  0  0  0  0  0
    2.1036  -23.2406   60.1273 C   0  0  0  0  0  0  0  0  0  0  0  0
  8  7  2  0  0  0
  7 12  1  0  0  0
 11 12  2  0  0  0
 11 20  1  0  0  0
 12 13  1  0  0  0
 13 14  2  0  0  0
 14 19  1  0  0  0
 19 15  2  0  0  0
 19 20  1  0  0  0
 15 16  1  0  0  0
 16 17  2  0  0  0
 17 18  1  0  0  0
 18 20  2  0  0  0
  9  6  1  0  0  0
  6  2  1  0  0  0
  6 21  1  0  0  0
  2  3  2  0  0  0
 21 22  1  0  0  0
 22 23  2  0  0  0
 22 24  1  0  0  0
 27 28  1  0  0  0
 27  1  1  0  0  0
  1  4  1  0  0  0
  1 49  1  0  0  0
 49 50  1  0  0  0
 50 51  2  0  0  0
 50 52  1  0  0  0
 51 53  1  0  0  0
 52 54  2  0  0  0
 53 55  2  0  0  0
 54 55  1  0  0  0
 31 30  1  0  0  0
 31 32  1  0  0  0
 31 40  1  0  0  0
 32 41  1  0  0  0
 32 33  1  0  0  0
 41 42  2  0  0  0
 33 34  1  0  0  0
 34 35  1  0  0  0
 34 39  1  0  0  0
 35 36  1  0  0  0
 36 37  1  0  0  0
 37 38  1  0  0  0
 38 39  1  0  0  0
 39 40  1  0  0  0
 43 45  1  0  0  0
 45 46  1  0  0  0
 45 47  1  0  0  0
 45 48  1  0  0  0
  7  9  1  0  0  0
  2  4  1  0  0  0
 27 30  1  0  0  0
 41 43  1  0  0  0
  9 10  1  0  0  0
 24 25  1  0  0  0
 24 26  1  0  0  0
 28 29  1  0  0  0
  4  5  1  0  0  0
 43 44  1  0  0  0
M  END
> <minimizedAffinity>
-9.70211

$$$$
5KR2_ROC_A_101


 55 59  0  0  0  0  0  0  0  0999 V2000
   -2.1702  -21.1097   58.4635 C   0  0  0  0  0  0  0  0  0  0  0  0
   -3.2477  -22.5658   60.2159 C   0  0  0  0  0  0  0  0  0  0  0  0
   -2.3151  -22.4380   60.9965 O   0  0  0  0  0  0  0  0  0  0  0  0
   -3.2510  -21.9336   58.8976 N   0  0  0  0  0  0  0  0  0  0  0  0
   -4.0163  -22.0798   58.2959 H   0  0  0  0  0  0  0  0  0  0  0  0
   -4.4406  -23.4422   60.5938 C   0  0  0  0  0  0  0  0  0  0  0  0
   -4.3994  -25.9218   60.7879 C   0  0  0  0  0  0  0  0  0  0  0  0
   -5.4196  -26.0079   60.1096 O   0  0  0  0  0  0  0  0  0  0  0  0
   -3.8564  -24.6348   61.1045 N   0  0  0  0  0  0  0  0  0  0  0  0
   -3.0644  -24.5743   61.6861 H   0  0  0  0  0  0  0  0  0  0  0  0
   -2.3132  -27.1415   61.3504 N   0  0  0  0  0  0  0  0  0  0  0  0
   -3.6890  -27.1572   61.3857 C   0  0  0  0  0  0  0  0  0  0  0  0
   -4.3472  -28.2413   61.9505 C   0  0  0  0  0  0  0  0  0  0  0  0
   -3.6198  -29.2870   62.4564 C   0  0  0  0  0  0  0  0  0  0  0  0
   -1.4865  -30.3531   62.9511 C   0  0  0  0  0  0  0  0  0  0  0  0
   -0.0933  -30.3342   62.9146 C   0  0  0  0  0  0  0  0  0  0  0  0
    0.5714  -29.2487   62.3536 C   0  0  0  0  0  0  0  0  0  0  0  0
   -0.1686  -28.1820   61.8285 C   0  0  0  0  0  0  0  0  0  0  0  0
   -2.2318  -29.2729   62.4202 C   0  0  0  0  0  0  0  0  0  0  0  0
   -1.5803  -28.2011   61.8635 C   0  0  0  0  0  0  0  0  0  0  0  0
   -5.2726  -22.7479   61.6313 C   0  0  0  0  0  0  0  0  0  0  0  0
   -4.5078  -22.6944   62.9381 C   0  0  0  0  0  0  0  0  0  0  0  0
   -4.4472  -23.6735   63.6619 O   0  0  0  0  0  0  0  0  0  0  0  0
   -3.8617  -21.4842   63.3153 N   0  0  0  0  0  0  0  0  0  0  0  0
   -3.9127  -20.6954   62.7283 H   0  0  0  0  0  0  0  0  0  0  0  0
   -3.3638  -21.4355   64.1631 H   0  0  0  0  0  0  0  0  0  0  0  0
   -2.7753  -19.9551   57.6602 C   0  0  0  0  0  0  0  0  0  0  0  0
   -3.8540  -19.4062   58.3412 O   0  0  0  0  0  0  0  0  0  0  0  0
   -4.5446  -20.0788   58.4486 H   0  0  0  0  0  0  0  0  0  0  0  0
   -3.2212  -20.4106   56.2519 C   0  0  0  0  0  0  0  0  0  0  0  0
   -2.6340  -19.4685   55.2811 N   0  0  0  0  0  0  0  0  0  0  0  0
   -3.2915  -18.1101   55.3599 C   0  0  0  0  0  0  0  0  0  0  0  0
   -2.6732  -17.1099   54.3722 C   0  0  0  0  0  0  0  0  0  0  0  0
   -1.1874  -17.0157   54.5958 C   0  0  0  0  0  0  0  0  0  0  0  0
   -0.6040  -16.0459   53.5295 C   0  0  0  0  0  0  0  0  0  0  0  0
   -0.6803  -16.6332   52.1227 C   0  0  0  0  0  0  0  0  0  0  0  0
    0.0123  -17.9827   52.0529 C   0  0  0  0  0  0  0  0  0  0  0  0
   -0.4987  -18.9658   53.1189 C   0  0  0  0  0  0  0  0  0  0  0  0
   -0.5153  -18.3581   54.5449 C   0  0  0  0  0  0  0  0  0  0  0  0
   -1.1602  -19.3739   55.4943 C   0  0  0  0  0  0  0  0  0  0  0  0
   -4.7622  -18.2057   55.1471 C   0  0  0  0  0  0  0  0  0  0  0  0
   -5.5542  -18.1648   56.0655 O   0  0  0  0  0  0  0  0  0  0  0  0
   -5.1523  -18.3471   53.7654 N   0  0  0  0  0  0  0  0  0  0  0  0
   -4.4541  -18.3709   53.0717 H   0  0  0  0  0  0  0  0  0  0  0  0
   -6.5434  -18.4554   53.3684 C   0  0  0  0  0  0  0  0  0  0  0  0
   -6.8972  -17.4169   52.3169 C   0  0  0  0  0  0  0  0  0  0  0  0
   -6.7656  -19.8580   52.8233 C   0  0  0  0  0  0  0  0  0  0  0  0
   -7.3935  -18.2017   54.5860 C   0  0  0  0  0  0  0  0  0  0  0  0
   -1.2321  -21.9538   57.6179 C   0  0  0  0  0  0  0  0  0  0  0  0
   -0.0228  -22.4164   58.4537 C   0  0  0  0  0  0  0  0  0  0  0  0
    0.0607  -23.7373   58.8857 C   0  0  0  0  0  0  0  0  0  0  0  0
    0.9942  -21.5286   58.7841 C   0  0  0  0  0  0  0  0  0  0  0  0
    1.1420  -24.1593   59.6442 C   0  0  0  0  0  0  0  0  0  0  0  0
    2.0911  -21.9569   59.5386 C   0  0  0  0  0  0  0  0  0  0  0  0
    2.1628  -23.2777   59.9681 C   0  0  0  0  0  0  0  0  0  0  0  0
  8  7  2  0  0  0
  7 12  1  0  0  0
 11 12  2  0  0  0
 11 20  1  0  0  0
 12 13  1  0  0  0
 13 14  2  0  0  0
 14 19  1  0  0  0
 19 15  2  0  0  0
 19 20  1  0  0  0
 15 16  1  0  0  0
 16 17  2  0  0  0
 17 18  1  0  0  0
 18 20  2  0  0  0
  9  6  1  0  0  0
  6  2  1  0  0  0
  6 21  1  0  0  0
  2  3  2  0  0  0
 21 22  1  0  0  0
 22 23  2  0  0  0
 22 24  1  0  0  0
 27 28  1  0  0  0
 27  1  1  0  0  0
  1  4  1  0  0  0
  1 49  1  0  0  0
 49 50  1  0  0  0
 50 51  2  0  0  0
 50 52  1  0  0  0
 51 53  1  0  0  0
 52 54  2  0  0  0
 53 55  2  0  0  0
 54 55  1  0  0  0
 31 30  1  0  0  0
 31 32  1  0  0  0
 31 40  1  0  0  0
 32 41  1  0  0  0
 32 33  1  0  0  0
 41 42  2  0  0  0
 33 34  1  0  0  0
 34 35  1  0  0  0
 34 39  1  0  0  0
 35 36  1  0  0  0
 36 37  1  0  0  0
 37 38  1  0  0  0
 38 39  1  0  0  0
 39 40  1  0  0  0
 43 45  1  0  0  0
 45 46  1  0  0  0
 45 47  1  0  0  0
 45 48  1  0  0  0
  7  9  1  0  0  0
  2  4  1  0  0  0
 27 30  1  0  0  0
 41 43  1  0  0  0
  9 10  1  0  0  0
 24 25  1  0  0  0
 24 26  1  0  0  0
 28 29  1  0  0  0
  4  5  1  0  0  0
 43 44  1  0  0  0
M  END
> <minimizedAffinity>
-9.70016

$$$$
5KR2_ROC_A_101


 55 59  0  0  0  0  0  0  0  0999 V2000
   -2.1757  -21.3332   58.5412 C   0  0  0  0  0  0  0  0  0  0  0  0
   -3.4932  -22.6765   60.2180 C   0  0  0  0  0  0  0  0  0  0  0  0
   -2.7253  -22.4180   61.1340 O   0  0  0  0  0  0  0  0  0  0  0  0
   -3.2820  -22.1754   58.8609 N   0  0  0  0  0  0  0  0  0  0  0  0
   -3.9175  -22.4248   58.1516 H   0  0  0  0  0  0  0  0  0  0  0  0
   -4.6970  -23.5831   60.4684 C   0  0  0  0  0  0  0  0  0  0  0  0
   -4.4969  -26.0607   60.5646 C   0  0  0  0  0  0  0  0  0  0  0  0
   -5.3369  -26.1791   59.6765 O   0  0  0  0  0  0  0  0  0  0  0  0
   -4.1413  -24.7591   61.0450 N   0  0  0  0  0  0  0  0  0  0  0  0
   -3.5005  -24.6766   61.7878 H   0  0  0  0  0  0  0  0  0  0  0  0
   -4.6545  -28.3496   61.5093 N   0  0  0  0  0  0  0  0  0  0  0  0
   -3.8334  -27.2754   61.2520 C   0  0  0  0  0  0  0  0  0  0  0  0
   -2.4909  -27.3408   61.5998 C   0  0  0  0  0  0  0  0  0  0  0  0
   -2.0019  -28.4695   62.2043 C   0  0  0  0  0  0  0  0  0  0  0  0
   -2.3163  -30.7189   63.0838 C   0  0  0  0  0  0  0  0  0  0  0  0
   -3.1500  -31.8055   63.3425 C   0  0  0  0  0  0  0  0  0  0  0  0
   -4.4949  -31.7469   62.9925 C   0  0  0  0  0  0  0  0  0  0  0  0
   -5.0000  -30.5923   62.3819 C   0  0  0  0  0  0  0  0  0  0  0  0
   -2.8296  -29.5533   62.4657 C   0  0  0  0  0  0  0  0  0  0  0  0
   -4.1563  -29.4902   62.1208 C   0  0  0  0  0  0  0  0  0  0  0  0
   -5.6544  -22.9088   61.4062 C   0  0  0  0  0  0  0  0  0  0  0  0
   -5.3705  -23.3574   62.8253 C   0  0  0  0  0  0  0  0  0  0  0  0
   -5.8377  -24.3997   63.2515 O   0  0  0  0  0  0  0  0  0  0  0  0
   -4.5534  -22.5450   63.6598 N   0  0  0  0  0  0  0  0  0  0  0  0
   -4.1778  -21.7039   63.3124 H   0  0  0  0  0  0  0  0  0  0  0  0
   -4.3636  -22.8240   64.5847 H   0  0  0  0  0  0  0  0  0  0  0  0
   -2.7277  -20.1374   57.7602 C   0  0  0  0  0  0  0  0  0  0  0  0
   -3.7684  -19.5418   58.4609 O   0  0  0  0  0  0  0  0  0  0  0  0
   -4.4923  -20.1785   58.5677 H   0  0  0  0  0  0  0  0  0  0  0  0
   -3.2126  -20.5495   56.3514 C   0  0  0  0  0  0  0  0  0  0  0  0
   -2.6230  -19.5989   55.3905 N   0  0  0  0  0  0  0  0  0  0  0  0
   -3.3063  -18.2524   55.4526 C   0  0  0  0  0  0  0  0  0  0  0  0
   -2.6862  -17.2433   54.4752 C   0  0  0  0  0  0  0  0  0  0  0  0
   -1.2072  -17.1218   54.7286 C   0  0  0  0  0  0  0  0  0  0  0  0
   -0.6199  -16.1437   53.6720 C   0  0  0  0  0  0  0  0  0  0  0  0
   -0.6571  -16.7352   52.2654 C   0  0  0  0  0  0  0  0  0  0  0  0
    0.0609  -18.0721   52.2128 C   0  0  0  0  0  0  0  0  0  0  0  0
   -0.4537  -19.0621   53.2706 C   0  0  0  0  0  0  0  0  0  0  0  0
   -0.5102  -18.4519   54.6945 C   0  0  0  0  0  0  0  0  0  0  0  0
   -1.1557  -19.4773   55.6331 C   0  0  0  0  0  0  0  0  0  0  0  0
   -4.7704  -18.3750   55.2104 C   0  0  0  0  0  0  0  0  0  0  0  0
   -5.5652  -18.5407   56.1122 O   0  0  0  0  0  0  0  0  0  0  0  0
   -5.1508  -18.2773   53.8222 N   0  0  0  0  0  0  0  0  0  0  0  0
   -4.4510  -18.1406   53.1434 H   0  0  0  0  0  0  0  0  0  0  0  0
   -6.5345  -18.3747   53.3974 C   0  0  0  0  0  0  0  0  0  0  0  0
   -7.4835  -18.0255   54.5317 C   0  0  0  0  0  0  0  0  0  0  0  0
   -6.7324  -17.4212   52.2288 C   0  0  0  0  0  0  0  0  0  0  0  0
   -6.7939  -19.8012   52.9882 C   0  0  0  0  0  0  0  0  0  0  0  0
   -1.1836  -22.1353   57.7167 C   0  0  0  0  0  0  0  0  0  0  0  0
    0.0156  -22.5641   58.5846 C   0  0  0  0  0  0  0  0  0  0  0  0
    1.1624  -21.7758   58.6259 C   0  0  0  0  0  0  0  0  0  0  0  0
   -0.0314  -23.7340   59.3335 C   0  0  0  0  0  0  0  0  0  0  0  0
    2.2481  -22.1587   59.3987 C   0  0  0  0  0  0  0  0  0  0  0  0
    1.0588  -24.1140   60.1228 C   0  0  0  0  0  0  0  0  0  0  0  0
    2.2009  -23.3212   60.1540 C   0  0  0  0  0  0  0  0  0  0  0  0
  8  7  2  0  0  0
  7 12  1  0  0  0
 11 12  2  0  0  0
 11 20  1  0  0  0
 12 13  1  0  0  0
 13 14  2  0  0  0
 14 19  1  0  0  0
 19 15  2  0  0  0
 19 20  1  0  0  0
 15 16  1  0  0  0
 16 17  2  0  0  0
 17 18  1  0  0  0
 18 20  2  0  0  0
  9  6  1  0  0  0
  6  2  1  0  0  0
  6 21  1  0  0  0
  2  3  2  0  0  0
 21 22  1  0  0  0
 22 23  2  0  0  0
 22 24  1  0  0  0
 27 28  1  0  0  0
 27  1  1  0  0  0
  1  4  1  0  0  0
  1 49  1  0  0  0
 49 50  1  0  0  0
 50 51  2  0  0  0
 50 52  1  0  0  0
 51 53  1  0  0  0
 52 54  2  0  0  0
 53 55  2  0  0  0
 54 55  1  0  0  0
 31 30  1  0  0  0
 31 32  1  0  0  0
 31 40  1  0  0  0
 32 41  1  0  0  0
 32 33  1  0  0  0
 41 42  2  0  0  0
 33 34  1  0  0  0
 34 35  1  0  0  0
 34 39  1  0  0  0
 35 36  1  0  0  0
 36 37  1  0  0  0
 37 38  1  0  0  0
 38 39  1  0  0  0
 39 40  1  0  0  0
 43 45  1  0  0  0
 45 46  1  0  0  0
 45 47  1  0  0  0
 45 48  1  0  0  0
  7  9  1  0  0  0
  2  4  1  0  0  0
 27 30  1  0  0  0
 41 43  1  0  0  0
  9 10  1  0  0  0
 24 25  1  0  0  0
 24 26  1  0  0  0
 28 29  1  0  0  0
  4  5  1  0  0  0
 43 44  1  0  0  0
M  END
> <minimizedAffinity>
-9.19202

$$$$
5KR2_ROC_A_101


 55 59  0  0  0  0  0  0  0  0999 V2000
   -2.9492  -23.5060   61.0328 C   0  0  0  0  0  0  0  0  0  0  0  0
   -4.5552  -22.1719   59.6208 C   0  0  0  0  0  0  0  0  0  0  0  0
   -4.0767  -22.5751   58.5703 O   0  0  0  0  0  0  0  0  0  0  0  0
   -4.0336  -22.5853   60.9226 N   0  0  0  0  0  0  0  0  0  0  0  0
   -4.4398  -22.2202   61.7417 H   0  0  0  0  0  0  0  0  0  0  0  0
   -5.7102  -21.1724   59.5958 C   0  0  0  0  0  0  0  0  0  0  0  0
   -5.6097  -19.7461   57.5603 C   0  0  0  0  0  0  0  0  0  0  0  0
   -5.1126  -18.8287   58.2081 O   0  0  0  0  0  0  0  0  0  0  0  0
   -5.9726  -20.9686   58.2123 N   0  0  0  0  0  0  0  0  0  0  0  0
   -6.4117  -21.6810   57.6937 H   0  0  0  0  0  0  0  0  0  0  0  0
   -6.8119  -18.6281   55.6999 N   0  0  0  0  0  0  0  0  0  0  0  0
   -5.9306  -19.6243   56.0535 C   0  0  0  0  0  0  0  0  0  0  0  0
   -5.3819  -20.4346   55.0686 C   0  0  0  0  0  0  0  0  0  0  0  0
   -5.7322  -20.2397   53.7580 C   0  0  0  0  0  0  0  0  0  0  0  0
   -6.9743  -19.0354   52.0436 C   0  0  0  0  0  0  0  0  0  0  0  0
   -7.8666  -18.0253   51.6883 C   0  0  0  0  0  0  0  0  0  0  0  0
   -8.4162  -17.2079   52.6705 C   0  0  0  0  0  0  0  0  0  0  0  0
   -8.0668  -17.4091   54.0116 C   0  0  0  0  0  0  0  0  0  0  0  0
   -6.6224  -19.2359   53.4001 C   0  0  0  0  0  0  0  0  0  0  0  0
   -7.1640  -18.4335   54.3727 C   0  0  0  0  0  0  0  0  0  0  0  0
   -6.8995  -21.7526   60.3027 C   0  0  0  0  0  0  0  0  0  0  0  0
   -7.3800  -22.9807   59.5567 C   0  0  0  0  0  0  0  0  0  0  0  0
   -8.3445  -22.9172   58.8138 O   0  0  0  0  0  0  0  0  0  0  0  0
   -6.6941  -24.2142   59.7357 N   0  0  0  0  0  0  0  0  0  0  0  0
   -5.9156  -24.2619   60.3364 H   0  0  0  0  0  0  0  0  0  0  0  0
   -6.9979  -25.0201   59.2588 H   0  0  0  0  0  0  0  0  0  0  0  0
   -3.4136  -24.6456   61.9439 C   0  0  0  0  0  0  0  0  0  0  0  0
   -3.4788  -24.2139   63.2623 O   0  0  0  0  0  0  0  0  0  0  0  0
   -2.5949  -23.9463   63.5590 H   0  0  0  0  0  0  0  0  0  0  0  0
   -2.4828  -25.8755   61.8405 C   0  0  0  0  0  0  0  0  0  0  0  0
   -3.3278  -27.0366   61.5055 N   0  0  0  0  0  0  0  0  0  0  0  0
   -3.0052  -28.2272   62.3786 C   0  0  0  0  0  0  0  0  0  0  0  0
   -3.8950  -29.4372   62.0590 C   0  0  0  0  0  0  0  0  0  0  0  0
   -5.3466  -29.0529   62.1673 C   0  0  0  0  0  0  0  0  0  0  0  0
   -6.1997  -30.2903   61.7687 C   0  0  0  0  0  0  0  0  0  0  0  0
   -6.0651  -30.6212   60.2848 C   0  0  0  0  0  0  0  0  0  0  0  0
   -6.4234  -29.4249   59.4209 C   0  0  0  0  0  0  0  0  0  0  0  0
   -5.6374  -28.1607   59.8056 C   0  0  0  0  0  0  0  0  0  0  0  0
   -5.6856  -27.8565   61.3249 C   0  0  0  0  0  0  0  0  0  0  0  0
   -4.7684  -26.6612   61.6064 C   0  0  0  0  0  0  0  0  0  0  0  0
   -1.5673  -28.6009   62.2772 C   0  0  0  0  0  0  0  0  0  0  0  0
   -0.9871  -28.6636   61.2134 O   0  0  0  0  0  0  0  0  0  0  0  0
   -0.9364  -28.8754   63.5453 N   0  0  0  0  0  0  0  0  0  0  0  0
   -1.4693  -28.8027   64.3699 H   0  0  0  0  0  0  0  0  0  0  0  0
    0.4604  -29.2554   63.6407 C   0  0  0  0  0  0  0  0  0  0  0  0
    0.6976  -30.6317   63.0418 C   0  0  0  0  0  0  0  0  0  0  0  0
    1.2807  -28.2082   62.9030 C   0  0  0  0  0  0  0  0  0  0  0  0
    0.8274  -29.3073   65.1010 C   0  0  0  0  0  0  0  0  0  0  0  0
   -1.7528  -22.7719   61.6135 C   0  0  0  0  0  0  0  0  0  0  0  0
   -0.5777  -22.7840   60.6165 C   0  0  0  0  0  0  0  0  0  0  0  0
   -0.7258  -22.2057   59.3587 C   0  0  0  0  0  0  0  0  0  0  0  0
    0.6374  -23.3663   60.9570 C   0  0  0  0  0  0  0  0  0  0  0  0
    0.3244  -22.2189   58.4535 C   0  0  0  0  0  0  0  0  0  0  0  0
    1.7009  -23.3689   60.0489 C   0  0  0  0  0  0  0  0  0  0  0  0
    1.5411  -22.7917   58.7937 C   0  0  0  0  0  0  0  0  0  0  0  0
  8  7  2  0  0  0
  7 12  1  0  0  0
 11 12  2  0  0  0
 11 20  1  0  0  0
 12 13  1  0  0  0
 13 14  2  0  0  0
 14 19  1  0  0  0
 19 15  2  0  0  0
 19 20  1  0  0  0
 15 16  1  0  0  0
 16 17  2  0  0  0
 17 18  1  0  0  0
 18 20  2  0  0  0
  9  6  1  0  0  0
  6  2  1  0  0  0
  6 21  1  0  0  0
  2  3  2  0  0  0
 21 22  1  0  0  0
 22 23  2  0  0  0
 22 24  1  0  0  0
 27 28  1  0  0  0
 27  1  1  0  0  0
  1  4  1  0  0  0
  1 49  1  0  0  0
 49 50  1  0  0  0
 50 51  2  0  0  0
 50 52  1  0  0  0
 51 53  1  0  0  0
 52 54  2  0  0  0
 53 55  2  0  0  0
 54 55  1  0  0  0
 31 30  1  0  0  0
 31 32  1  0  0  0
 31 40  1  0  0  0
 32 41  1  0  0  0
 32 33  1  0  0  0
 41 42  2  0  0  0
 33 34  1  0  0  0
 34 35  1  0  0  0
 34 39  1  0  0  0
 35 36  1  0  0  0
 36 37  1  0  0  0
 37 38  1  0  0  0
 38 39  1  0  0  0
 39 40  1  0  0  0
 43 45  1  0  0  0
 45 46  1  0  0  0
 45 47  1  0  0  0
 45 48  1  0  0  0
  7  9  1  0  0  0
  2  4  1  0  0  0
 27 30  1  0  0  0
 41 43  1  0  0  0
  9 10  1  0  0  0
 24 25  1  0  0  0
 24 26  1  0  0  0
 28 29  1  0  0  0
  4  5  1  0  0  0
 43 44  1  0  0  0
M  END
> <minimizedAffinity>
-9.18092

$$$$
5KR2_ROC_A_101


 55 59  0  0  0  0  0  0  0  0999 V2000
   -4.6776  -19.4749   56.4639 C   0  0  0  0  0  0  0  0  0  0  0  0
   -3.1702  -18.0135   55.0695 C   0  0  0  0  0  0  0  0  0  0  0  0
   -3.8231  -17.0043   55.2945 O   0  0  0  0  0  0  0  0  0  0  0  0
   -3.5417  -19.3181   55.6151 N   0  0  0  0  0  0  0  0  0  0  0  0
   -2.9955  -20.1062   55.3918 H   0  0  0  0  0  0  0  0  0  0  0  0
   -1.9458  -17.9394   54.1590 C   0  0  0  0  0  0  0  0  0  0  0  0
   -2.6122  -18.0119   51.7635 C   0  0  0  0  0  0  0  0  0  0  0  0
   -2.3201  -19.2031   51.7017 O   0  0  0  0  0  0  0  0  0  0  0  0
   -2.4164  -17.2890   52.9843 N   0  0  0  0  0  0  0  0  0  0  0  0
   -2.6111  -16.3243   53.0112 H   0  0  0  0  0  0  0  0  0  0  0  0
   -4.1871  -16.3642   50.7832 N   0  0  0  0  0  0  0  0  0  0  0  0
   -3.1334  -17.2169   50.5450 C   0  0  0  0  0  0  0  0  0  0  0  0
   -2.6006  -17.3068   49.2661 C   0  0  0  0  0  0  0  0  0  0  0  0
   -3.1368  -16.5535   48.2544 C   0  0  0  0  0  0  0  0  0  0  0  0
   -4.7451  -14.9132   47.4450 C   0  0  0  0  0  0  0  0  0  0  0  0
   -5.8118  -14.0499   47.6892 C   0  0  0  0  0  0  0  0  0  0  0  0
   -6.3468  -13.9529   48.9695 C   0  0  0  0  0  0  0  0  0  0  0  0
   -5.8068  -14.7269   50.0041 C   0  0  0  0  0  0  0  0  0  0  0  0
   -4.2008  -15.6938   48.4931 C   0  0  0  0  0  0  0  0  0  0  0  0
   -4.7270  -15.6031   49.7572 C   0  0  0  0  0  0  0  0  0  0  0  0
   -0.8612  -17.1491   54.8296 C   0  0  0  0  0  0  0  0  0  0  0  0
   -0.2899  -16.1443   53.8500 C   0  0  0  0  0  0  0  0  0  0  0  0
    0.2964  -16.5185   52.8488 O   0  0  0  0  0  0  0  0  0  0  0  0
   -0.4419  -14.7545   54.1133 N   0  0  0  0  0  0  0  0  0  0  0  0
   -0.9159  -14.4558   54.9228 H   0  0  0  0  0  0  0  0  0  0  0  0
   -0.0730  -14.0914   53.4860 H   0  0  0  0  0  0  0  0  0  0  0  0
   -4.1827  -20.0973   57.7725 C   0  0  0  0  0  0  0  0  0  0  0  0
   -3.2141  -19.2905   58.3550 O   0  0  0  0  0  0  0  0  0  0  0  0
   -2.4513  -19.2200   57.7600 H   0  0  0  0  0  0  0  0  0  0  0  0
   -3.6171  -21.5188   57.5511 C   0  0  0  0  0  0  0  0  0  0  0  0
   -3.9725  -22.3205   58.7367 N   0  0  0  0  0  0  0  0  0  0  0  0
   -3.0842  -21.9922   59.9144 C   0  0  0  0  0  0  0  0  0  0  0  0
   -3.4588  -22.8010   61.1649 C   0  0  0  0  0  0  0  0  0  0  0  0
   -4.9123  -22.5930   61.4974 C   0  0  0  0  0  0  0  0  0  0  0  0
   -5.2541  -23.4838   62.7253 C   0  0  0  0  0  0  0  0  0  0  0  0
   -5.2132  -24.9700   62.3799 C   0  0  0  0  0  0  0  0  0  0  0  0
   -6.1348  -25.2887   61.2159 C   0  0  0  0  0  0  0  0  0  0  0  0
   -5.8666  -24.4019   59.9889 C   0  0  0  0  0  0  0  0  0  0  0  0
   -5.8135  -22.8914   60.3333 C   0  0  0  0  0  0  0  0  0  0  0  0
   -5.4137  -22.1226   59.0691 C   0  0  0  0  0  0  0  0  0  0  0  0
   -1.6463  -22.1900   59.5816 C   0  0  0  0  0  0  0  0  0  0  0  0
   -1.0570  -21.4726   58.8003 O   0  0  0  0  0  0  0  0  0  0  0  0
   -1.0271  -23.2979   60.2675 N   0  0  0  0  0  0  0  0  0  0  0  0
   -1.5670  -23.8365   60.8901 H   0  0  0  0  0  0  0  0  0  0  0  0
    0.3679  -23.6413   60.0666 C   0  0  0  0  0  0  0  0  0  0  0  0
    0.6617  -23.9116   58.6004 C   0  0  0  0  0  0  0  0  0  0  0  0
    1.2119  -22.4805   60.5707 C   0  0  0  0  0  0  0  0  0  0  0  0
    0.6514  -24.9004   60.8439 C   0  0  0  0  0  0  0  0  0  0  0  0
   -5.6839  -20.3688   55.7598 C   0  0  0  0  0  0  0  0  0  0  0  0
   -6.4724  -19.5665   54.7064 C   0  0  0  0  0  0  0  0  0  0  0  0
   -7.2890  -18.5109   55.1030 C   0  0  0  0  0  0  0  0  0  0  0  0
   -6.3790  -19.8823   53.3562 C   0  0  0  0  0  0  0  0  0  0  0  0
   -8.0072  -17.7890   54.1619 C   0  0  0  0  0  0  0  0  0  0  0  0
   -7.0936  -19.1464   52.4055 C   0  0  0  0  0  0  0  0  0  0  0  0
   -7.9092  -18.0962   52.8128 C   0  0  0  0  0  0  0  0  0  0  0  0
  8  7  2  0  0  0
  7 12  1  0  0  0
 11 12  2  0  0  0
 11 20  1  0  0  0
 12 13  1  0  0  0
 13 14  2  0  0  0
 14 19  1  0  0  0
 19 15  2  0  0  0
 19 20  1  0  0  0
 15 16  1  0  0  0
 16 17  2  0  0  0
 17 18  1  0  0  0
 18 20  2  0  0  0
  9  6  1  0  0  0
  6  2  1  0  0  0
  6 21  1  0  0  0
  2  3  2  0  0  0
 21 22  1  0  0  0
 22 23  2  0  0  0
 22 24  1  0  0  0
 27 28  1  0  0  0
 27  1  1  0  0  0
  1  4  1  0  0  0
  1 49  1  0  0  0
 49 50  1  0  0  0
 50 51  2  0  0  0
 50 52  1  0  0  0
 51 53  1  0  0  0
 52 54  2  0  0  0
 53 55  2  0  0  0
 54 55  1  0  0  0
 31 30  1  0  0  0
 31 32  1  0  0  0
 31 40  1  0  0  0
 32 41  1  0  0  0
 32 33  1  0  0  0
 41 42  2  0  0  0
 33 34  1  0  0  0
 34 35  1  0  0  0
 34 39  1  0  0  0
 35 36  1  0  0  0
 36 37  1  0  0  0
 37 38  1  0  0  0
 38 39  1  0  0  0
 39 40  1  0  0  0
 43 45  1  0  0  0
 45 46  1  0  0  0
 45 47  1  0  0  0
 45 48  1  0  0  0
  7  9  1  0  0  0
  2  4  1  0  0  0
 27 30  1  0  0  0
 41 43  1  0  0  0
  9 10  1  0  0  0
 24 25  1  0  0  0
 24 26  1  0  0  0
 28 29  1  0  0  0
  4  5  1  0  0  0
 43 44  1  0  0  0
M  END
> <minimizedAffinity>
-9.15399

$$$$
