3PWW_ROC_A_1001
  RCSB PDB12061710203D
Coordinates from PDB:3PWW:A:1001 Model:1 without hydrogens
 49 53  0  0  0  0            999 V2000
   -3.8230    3.0390    6.5360   C 0  0  0  0  0  0  0  0  0  0  0  0
   -3.4140    3.3890    5.3210   O 0  0  0  0  0  0  0  0  0  0  0  0
   -5.6860    1.5970    5.7010   N 0  0  0  0  0  0  0  0  0  0  0  0
   -4.6260    1.7350    6.5600   C 0  0  0  0  0  0  0  0  0  0  0  0
   -4.3070    0.6970    7.4450   C 0  0  0  0  0  0  0  0  0  0  0  0
   -5.0640   -0.4670    7.4460   C 0  0  0  0  0  0  0  0  0  0  0  0
   -6.9150   -1.7640    6.5690   C 0  0  0  0  0  0  0  0  0  0  0  0
   -7.9870   -1.8750    5.6920   C 0  0  0  0  0  0  0  0  0  0  0  0
   -8.2960   -0.8450    4.8270   C 0  0  0  0  0  0  0  0  0  0  0  0
   -7.5120    0.3330    4.8280   C 0  0  0  0  0  0  0  0  0  0  0  0
   -6.1360   -0.5970    6.5780   C 0  0  0  0  0  0  0  0  0  0  0  0
   -6.4490    0.4400    5.7000   C 0  0  0  0  0  0  0  0  0  0  0  0
   -3.7350    3.5710    7.7830   N 0  0  0  0  0  0  0  0  0  0  0  0
   -3.1770    4.8980    7.8610   C 0  0  0  0  0  0  0  0  0  0  0  0
   -2.2680    5.0170    9.0860   C 0  0  0  0  0  0  0  0  0  0  0  0
   -2.6590    5.9510    9.9580   O 0  0  0  0  0  0  0  0  0  0  0  0
   -4.2870    5.9570    7.8020   C 0  0  0  0  0  0  0  0  0  0  0  0
   -4.8080    6.1730    6.3620   C 0  0  0  0  0  0  0  0  0  0  0  0
   -3.8630    6.6760    5.5290   O 0  0  0  0  0  0  0  0  0  0  0  0
   -6.1180    5.8030    6.2770   N 0  0  0  0  0  0  0  0  0  0  0  0
    0.9120    4.9110   10.0310   C 0  0  0  0  0  0  0  0  0  0  0  0
    1.7150    4.7790   11.1660   O 0  0  0  0  0  0  0  0  0  0  0  0
   -0.3360    4.0370   10.2270   C 0  0  0  0  0  0  0  0  0  0  0  0
   -1.2060    4.1270    9.0320   N 0  0  0  0  0  0  0  0  0  0  0  0
   -0.0480    2.5940   10.6310   C 0  0  0  0  0  0  0  0  0  0  0  0
   -1.3570    1.7950   10.8180   C 0  0  0  0  0  0  0  0  0  0  0  0
   -2.4380    2.3340   11.4900   C 0  0  0  0  0  0  0  0  0  0  0  0
   -1.4490    0.4990   10.3080   C 0  0  0  0  0  0  0  0  0  0  0  0
   -3.6220    1.5790   11.6540   C 0  0  0  0  0  0  0  0  0  0  0  0
   -2.6290   -0.2520   10.4680   C 0  0  0  0  0  0  0  0  0  0  0  0
   -3.7080    0.2910   11.1390   C 0  0  0  0  0  0  0  0  0  0  0  0
    1.6050    7.2440    9.4440   N 0  0  0  0  0  0  0  0  0  0  0  0
    0.5110    6.3500    9.8860   C 0  0  0  0  0  0  0  0  0  0  0  0
    2.6830    7.4200   10.4590   C 0  0  0  0  0  0  0  0  0  0  0  0
    2.2520    7.8100   11.8650   C 0  0  0  0  0  0  0  0  0  0  0  0
    0.9860    8.1400   12.0230   O 0  0  0  0  0  0  0  0  0  0  0  0
    3.7160    8.4030    9.9380   C 0  0  0  0  0  0  0  0  0  0  0  0
    3.1960    9.7200    9.4160   C 0  0  0  0  0  0  0  0  0  0  0  0
    2.7960   10.6620   10.5700   C 0  0  0  0  0  0  0  0  0  0  0  0
    2.2350   11.9500   10.1080   C 0  0  0  0  0  0  0  0  0  0  0  0
    1.0770   11.7350    9.1480   C 0  0  0  0  0  0  0  0  0  0  0  0
    1.4350   10.7860    8.0010   C 0  0  0  0  0  0  0  0  0  0  0  0
    2.0850    9.4930    8.4360   C 0  0  0  0  0  0  0  0  0  0  0  0
    1.0290    8.5180    8.9910   C 0  0  0  0  0  0  0  0  0  0  0  0
    3.3120    7.7420   12.7660   N 0  0  0  0  0  0  0  0  0  0  0  0
    3.1440    8.1630   14.1980   C 0  0  0  0  0  0  0  0  0  0  0  0
    4.4580    7.9090   14.8570   C 0  0  0  0  0  0  0  0  0  0  0  0
    2.0700    7.3580   14.8740   C 0  0  0  0  0  0  0  0  0  0  0  0
    2.8060    9.6380   14.2990   C 0  0  0  0  0  0  0  0  0  0  0  0
  2  1  2  0  0  0  0
  1  4  1  0  0  0  0
  3  4  2  0  0  0  0
  3 12  1  0  0  0  0
  4  5  1  0  0  0  0
  5  6  2  0  0  0  0
  6 11  1  0  0  0  0
 11  7  2  0  0  0  0
 11 12  1  0  0  0  0
  7  8  1  0  0  0  0
  8  9  2  0  0  0  0
  9 10  1  0  0  0  0
 10 12  2  0  0  0  0
 13 14  1  0  0  0  0
 14 15  1  0  0  0  0
 14 17  1  0  0  0  0
 15 16  2  0  0  0  0
 17 18  1  0  0  0  0
 18 19  2  0  0  0  0
 18 20  1  0  0  0  0
 21 22  1  0  0  0  0
 21 23  1  0  0  0  0
 23 24  1  0  0  0  0
 23 25  1  0  0  0  0
 25 26  1  0  0  0  0
 26 27  2  0  0  0  0
 26 28  1  0  0  0  0
 27 29  1  0  0  0  0
 28 30  2  0  0  0  0
 29 31  2  0  0  0  0
 30 31  1  0  0  0  0
 32 33  1  0  0  0  0
 32 34  1  0  0  0  0
 32 44  1  0  0  0  0
 34 35  1  0  0  0  0
 34 37  1  0  0  0  0
 35 36  2  0  0  0  0
 37 38  1  0  0  0  0
 38 39  1  0  0  0  0
 38 43  1  0  0  0  0
 39 40  1  0  0  0  0
 40 41  1  0  0  0  0
 41 42  1  0  0  0  0
 42 43  1  0  0  0  0
 43 44  1  0  0  0  0
 45 46  1  0  0  0  0
 46 47  1  0  0  0  0
 46 48  1  0  0  0  0
 46 49  1  0  0  0  0
  1 13  1  0  0  0  0
 15 24  1  0  0  0  0
 21 33  1  0  0  0  0
 35 45  1  0  0  0  0
A    1
C
A    2
O
A    3
N1
A    4
C2
A    5
C3
A    6
C4
A    7
C5
A    8
C6
A    9
C7
A   10
C8
A   11
C4A
A   12
C8A
A   13
N
A   14
CA
A   15
C1
A   16
O1
A   17
CB
A   18
CG
A   19
OD1
A   20
ND2
A   21
C9
A   22
O2
A   23
CA1
A   24
N2
A   25
CB1
A   26
CG1
A   27
CD1
A   28
CD2
A   29
CE1
A   30
CE2
A   31
CZ
A   32
N11
A   33
CM
A   34
C21
A   35
CC
A   36
O3
A   37
C31
A   38
C3A
A   39
C41
A   40
C51
A   41
C61
A   42
C71
A   43
C7A
A   44
C81
A   45
N3
A   46
CD
A   47
C11
A   48
C22
A   49
C32
M  END
>  <InstanceId>
3PWW_ROC_A_1001

>  <ChemCompId>
ROC

>  <PdbId>
3PWW

>  <ChainId>
A

>  <ResidueNumber>
1001

>  <InsertionCode>


>  <Model>
1

>  <AltIds>


>  <MissingHeavyAtoms>
0

>  <ObservedFormula>
C38 N6 O5

>  <Name>
(2S)-N-[(2S,3R)-4-[(2S,3S,4aS,8aS)-3-(tert-butylcarbamoyl)-3,4,4a,5,6,7,8,8a-octahydro-1H-isoquinolin-2-yl]-3-hydroxy-1-phenyl-butan-2-yl]-2-(quinolin-2-ylcarbonylamino)butanediamide

>  <SystematicName>
(2S)-N-[(2S,3R)-4-[(2S,3S,4aS,8aS)-3-(tert-butylcarbamoyl)-3,4,4a,5,6,7,8,8a-octahydro-1H-isoquinolin-2-yl]-3-hydroxy-1-phenyl-butan-2-yl]-2-(quinolin-2-ylcarbonylamino)butanediamide

>  <Synonyms>
Fortovase; SAQUINAVIR,RO 31-8959

>  <Type>
peptide-like

>  <Formula>
C38 H50 N6 O5

>  <MolecularWeight>
670.841

>  <ModifiedDate>
2011-11-17

>  <Parent>


>  <OneLetterCode>


>  <SubcomponentList>
QNC ASN HP0 NTB

>  <AmbiguousFlag>
N

>  <InChI>
InChI=1S/C38H50N6O5/c1-38(2,3)43-37(49)32-20-26-14-7-8-15-27(26)22-44(32)23-33(45)30(19-24-11-5-4-6-12-24)41-36(48)31(21-34(39)46)42-35(47)29-18-17-25-13-9-10-16-28(25)40-29/h4-6,9-13,16-18,26-27,30-33,45H,7-8,14-15,19-23H2,1-3H3,(H2,39,46)(H,41,48)(H,42,47)(H,43,49)/t26-,27+,30-,31-,32-,33+/m0/s1

>  <InChIKey>
QWAXKHKRTORLEM-UGJKXSETSA-N

>  <SMILES>
CC(C)(C)NC(=O)[C@@H]1C[C@@H]2CCCC[C@@H]2C[N@]1C[C@H]([C@H](Cc3ccccc3)NC(=O)[C@H](CC(=O)N)NC(=O)c4ccc5ccccc5n4)O

$$$$
