3PWW_ROC_A_1001


 55 59  0  0  0  0  0  0  0  0999 V2000
   -0.9213    4.2934   10.1169 C   0  0  0  0  0  0  0  0  0  0  0  0
   -2.9343    5.0345    8.9366 C   0  0  0  0  0  0  0  0  0  0  0  0
   -3.3772    6.0118    9.7331 O   0  0  0  0  0  0  0  0  0  0  0  0
   -1.8131    4.2186    8.9371 N   0  0  0  0  0  0  0  0  0  0  0  0
   -1.6181    3.6147    8.1844 H   0  0  0  0  0  0  0  0  0  0  0  0
   -3.8508    4.7468    7.7457 C   0  0  0  0  0  0  0  0  0  0  0  0
   -4.2296    2.5539    6.9230 C   0  0  0  0  0  0  0  0  0  0  0  0
   -3.4328    2.4978    5.8609 O   0  0  0  0  0  0  0  0  0  0  0  0
   -4.4817    3.4601    7.9033 N   0  0  0  0  0  0  0  0  0  0  0  0
   -5.0589    3.2512    8.6731 H   0  0  0  0  0  0  0  0  0  0  0  0
   -6.2660    1.4263    7.8334 N   0  0  0  0  0  0  0  0  0  0  0  0
   -5.1216    1.3195    7.0854 C   0  0  0  0  0  0  0  0  0  0  0  0
   -4.7845    0.0926    6.4995 C   0  0  0  0  0  0  0  0  0  0  0  0
   -5.6119   -1.0082    6.6770 C   0  0  0  0  0  0  0  0  0  0  0  0
   -7.6091   -1.9965    7.6320 C   0  0  0  0  0  0  0  0  0  0  0  0
   -8.7596   -1.8617    8.3993 C   0  0  0  0  0  0  0  0  0  0  0  0
   -9.0809   -0.6498    8.9761 C   0  0  0  0  0  0  0  0  0  0  0  0
   -8.2352    0.4679    8.7808 C   0  0  0  0  0  0  0  0  0  0  0  0
   -6.7641   -0.8933    7.4377 C   0  0  0  0  0  0  0  0  0  0  0  0
   -7.0940    0.3305    8.0190 C   0  0  0  0  0  0  0  0  0  0  0  0
   -4.9005    5.8371    7.4879 C   0  0  0  0  0  0  0  0  0  0  0  0
   -4.3536    6.9687    6.5868 C   0  0  0  0  0  0  0  0  0  0  0  0
   -4.4208    6.6699    5.2654 O   0  0  0  0  0  0  0  0  0  0  0  0
   -3.9231    8.0116    7.3531 N   0  0  0  0  0  0  0  0  0  0  0  0
   -3.9944    7.9641    8.3339 H   0  0  0  0  0  0  0  0  0  0  0  0
   -3.5412    8.8119    6.9255 H   0  0  0  0  0  0  0  0  0  0  0  0
    0.3663    5.0471    9.7510 C   0  0  0  0  0  0  0  0  0  0  0  0
    1.4272    4.4476   10.4332 O   0  0  0  0  0  0  0  0  0  0  0  0
    1.2641    4.4927   11.3883 H   0  0  0  0  0  0  0  0  0  0  0  0
    0.2604    6.4804   10.1836 C   0  0  0  0  0  0  0  0  0  0  0  0
    1.3112    7.3622    9.6272 N   0  0  0  0  0  0  0  0  0  0  0  0
    2.4929    7.5256   10.5219 C   0  0  0  0  0  0  0  0  0  0  0  0
    3.4757    8.4971    9.8933 C   0  0  0  0  0  0  0  0  0  0  0  0
    2.9180    9.8201    9.4286 C   0  0  0  0  0  0  0  0  0  0  0  0
    2.6535   10.7660   10.6178 C   0  0  0  0  0  0  0  0  0  0  0  0
    2.0611   12.0605   10.2171 C   0  0  0  0  0  0  0  0  0  0  0  0
    0.8054   11.8590    9.3857 C   0  0  0  0  0  0  0  0  0  0  0  0
    1.0288   10.9065    8.2078 C   0  0  0  0  0  0  0  0  0  0  0  0
    1.7067    9.6061    8.5723 C   0  0  0  0  0  0  0  0  0  0  0  0
    0.7048    8.6428    9.2370 C   0  0  0  0  0  0  0  0  0  0  0  0
    2.2181    7.9197   11.9654 C   0  0  0  0  0  0  0  0  0  0  0  0
    0.9741    8.2370   12.2630 O   0  0  0  0  0  0  0  0  0  0  0  0
    3.3733    7.8689   12.7419 N   0  0  0  0  0  0  0  0  0  0  0  0
    4.2121    7.5465   12.3398 H   0  0  0  0  0  0  0  0  0  0  0  0
    3.3624    8.2971   14.1815 C   0  0  0  0  0  0  0  0  0  0  0  0
    4.7698    8.1671   14.6588 C   0  0  0  0  0  0  0  0  0  0  0  0
    2.4624    7.4143   14.9996 C   0  0  0  0  0  0  0  0  0  0  0  0
    2.9141    9.7393   14.3204 C   0  0  0  0  0  0  0  0  0  0  0  0
   -0.7005    2.9311   10.7680 C   0  0  0  0  0  0  0  0  0  0  0  0
   -2.0113    2.1144   10.8115 C   0  0  0  0  0  0  0  0  0  0  0  0
   -3.0879    2.5238   11.5756 C   0  0  0  0  0  0  0  0  0  0  0  0
   -2.1093    0.9340   10.0732 C   0  0  0  0  0  0  0  0  0  0  0  0
   -4.2736    1.7543   11.6039 C   0  0  0  0  0  0  0  0  0  0  0  0
   -3.2910    0.1691   10.0982 C   0  0  0  0  0  0  0  0  0  0  0  0
   -4.3656    0.5826   10.8622 C   0  0  0  0  0  0  0  0  0  0  0  0
  8  7  2  0  0  0
  7 12  1  0  0  0
 11 12  2  0  0  0
 11 20  1  0  0  0
 12 13  1  0  0  0
 13 14  2  0  0  0
 14 19  1  0  0  0
 19 15  2  0  0  0
 19 20  1  0  0  0
 15 16  1  0  0  0
 16 17  2  0  0  0
 17 18  1  0  0  0
 18 20  2  0  0  0
  9  6  1  0  0  0
  6  2  1  0  0  0
  6 21  1  0  0  0
  2  3  2  0  0  0
 21 22  1  0  0  0
 22 23  2  0  0  0
 22 24  1  0  0  0
 27 28  1  0  0  0
 27  1  1  0  0  0
  1  4  1  0  0  0
  1 49  1  0  0  0
 49 50  1  0  0  0
 50 51  2  0  0  0
 50 52  1  0  0  0
 51 53  1  0  0  0
 52 54  2  0  0  0
 53 55  2  0  0  0
 54 55  1  0  0  0
 31 30  1  0  0  0
 31 32  1  0  0  0
 31 40  1  0  0  0
 32 41  1  0  0  0
 32 33  1  0  0  0
 41 42  2  0  0  0
 33 34  1  0  0  0
 34 35  1  0  0  0
 34 39  1  0  0  0
 35 36  1  0  0  0
 36 37  1  0  0  0
 37 38  1  0  0  0
 38 39  1  0  0  0
 39 40  1  0  0  0
 43 45  1  0  0  0
 45 46  1  0  0  0
 45 47  1  0  0  0
 45 48  1  0  0  0
  7  9  1  0  0  0
  2  4  1  0  0  0
 27 30  1  0  0  0
 41 43  1  0  0  0
  9 10  1  0  0  0
 24 25  1  0  0  0
 24 26  1  0  0  0
 28 29  1  0  0  0
  4  5  1  0  0  0
 43 44  1  0  0  0
M  END
> <minimizedAffinity>
-11.66888

$$$$
3PWW_ROC_A_1001


 55 59  0  0  0  0  0  0  0  0999 V2000
   -0.8552    4.2909   10.1190 C   0  0  0  0  0  0  0  0  0  0  0  0
   -3.0788    4.8526    9.2616 C   0  0  0  0  0  0  0  0  0  0  0  0
   -3.4709    5.8043   10.1138 O   0  0  0  0  0  0  0  0  0  0  0  0
   -1.9091    4.1276    9.0915 N   0  0  0  0  0  0  0  0  0  0  0  0
   -1.7844    3.5292    8.3197 H   0  0  0  0  0  0  0  0  0  0  0  0
   -4.1415    4.4748    8.2277 C   0  0  0  0  0  0  0  0  0  0  0  0
   -3.4702    6.3776    6.9796 C   0  0  0  0  0  0  0  0  0  0  0  0
   -2.1460    6.2659    6.9648 O   0  0  0  0  0  0  0  0  0  0  0  0
   -4.5045    5.6288    7.4435 N   0  0  0  0  0  0  0  0  0  0  0  0
   -5.4430    5.8597    7.2559 H   0  0  0  0  0  0  0  0  0  0  0  0
   -5.3341    7.8543    6.2100 N   0  0  0  0  0  0  0  0  0  0  0  0
   -3.9820    7.6807    6.3585 C   0  0  0  0  0  0  0  0  0  0  0  0
   -3.1002    8.6821    5.9319 C   0  0  0  0  0  0  0  0  0  0  0  0
   -3.5999    9.8462    5.3634 C   0  0  0  0  0  0  0  0  0  0  0  0
   -5.4893   11.1796    4.6358 C   0  0  0  0  0  0  0  0  0  0  0  0
   -6.8635   11.3270    4.4922 C   0  0  0  0  0  0  0  0  0  0  0  0
   -7.7238   10.3328    4.9116 C   0  0  0  0  0  0  0  0  0  0  0  0
   -7.2041    9.1546    5.4982 C   0  0  0  0  0  0  0  0  0  0  0  0
   -4.9671   10.0122    5.2129 C   0  0  0  0  0  0  0  0  0  0  0  0
   -5.8397    9.0114    5.6388 C   0  0  0  0  0  0  0  0  0  0  0  0
   -3.7392    3.3058    7.3174 C   0  0  0  0  0  0  0  0  0  0  0  0
   -4.6635    3.1855    6.0834 C   0  0  0  0  0  0  0  0  0  0  0  0
   -4.1066    3.6936    4.9557 O   0  0  0  0  0  0  0  0  0  0  0  0
   -5.8395    2.5907    6.4346 N   0  0  0  0  0  0  0  0  0  0  0  0
   -5.9887    2.3065    7.3654 H   0  0  0  0  0  0  0  0  0  0  0  0
   -6.5392    2.4455    5.7575 H   0  0  0  0  0  0  0  0  0  0  0  0
    0.3044    5.1222    9.5497 C   0  0  0  0  0  0  0  0  0  0  0  0
    1.5002    4.4855    9.8890 O   0  0  0  0  0  0  0  0  0  0  0  0
    1.5686    4.4190   10.8543 H   0  0  0  0  0  0  0  0  0  0  0  0
    0.2967    6.4944   10.1577 C   0  0  0  0  0  0  0  0  0  0  0  0
    1.3263    7.4069    9.6111 N   0  0  0  0  0  0  0  0  0  0  0  0
    2.5031    7.5898   10.5082 C   0  0  0  0  0  0  0  0  0  0  0  0
    3.4625    8.5911    9.8902 C   0  0  0  0  0  0  0  0  0  0  0  0
    2.8732    9.9048    9.4383 C   0  0  0  0  0  0  0  0  0  0  0  0
    2.5852   10.8321   10.6367 C   0  0  0  0  0  0  0  0  0  0  0  0
    1.9619   12.1158   10.2485 C   0  0  0  0  0  0  0  0  0  0  0  0
    0.7119   11.8923    9.4142 C   0  0  0  0  0  0  0  0  0  0  0  0
    0.9589   10.9574    8.2270 C   0  0  0  0  0  0  0  0  0  0  0  0
    1.6679    9.6702    8.5790 C   0  0  0  0  0  0  0  0  0  0  0  0
    0.6892    8.6763    9.2332 C   0  0  0  0  0  0  0  0  0  0  0  0
    2.2181    7.9627   11.9554 C   0  0  0  0  0  0  0  0  0  0  0  0
    0.9866    8.3392   12.2353 O   0  0  0  0  0  0  0  0  0  0  0  0
    3.3516    7.8306   12.7540 N   0  0  0  0  0  0  0  0  0  0  0  0
    4.1806    7.4733   12.3612 H   0  0  0  0  0  0  0  0  0  0  0  0
    3.3319    8.2233   14.2036 C   0  0  0  0  0  0  0  0  0  0  0  0
    2.9756    9.6717   14.2314 C   0  0  0  0  0  0  0  0  0  0  0  0
    4.6794    8.0170   14.8363 C   0  0  0  0  0  0  0  0  0  0  0  0
    2.2895    7.4329   14.9709 C   0  0  0  0  0  0  0  0  0  0  0  0
   -0.4413    2.9626   10.7457 C   0  0  0  0  0  0  0  0  0  0  0  0
   -1.6523    2.0152   10.8962 C   0  0  0  0  0  0  0  0  0  0  0  0
   -2.7657    2.3829   11.6282 C   0  0  0  0  0  0  0  0  0  0  0  0
   -1.6200    0.7582   10.2903 C   0  0  0  0  0  0  0  0  0  0  0  0
   -3.8578    1.4943   11.7567 C   0  0  0  0  0  0  0  0  0  0  0  0
   -2.7086   -0.1257   10.4150 C   0  0  0  0  0  0  0  0  0  0  0  0
   -3.8204    0.2463   11.1464 C   0  0  0  0  0  0  0  0  0  0  0  0
  8  7  2  0  0  0
  7 12  1  0  0  0
 11 12  2  0  0  0
 11 20  1  0  0  0
 12 13  1  0  0  0
 13 14  2  0  0  0
 14 19  1  0  0  0
 19 15  2  0  0  0
 19 20  1  0  0  0
 15 16  1  0  0  0
 16 17  2  0  0  0
 17 18  1  0  0  0
 18 20  2  0  0  0
  9  6  1  0  0  0
  6  2  1  0  0  0
  6 21  1  0  0  0
  2  3  2  0  0  0
 21 22  1  0  0  0
 22 23  2  0  0  0
 22 24  1  0  0  0
 27 28  1  0  0  0
 27  1  1  0  0  0
  1  4  1  0  0  0
  1 49  1  0  0  0
 49 50  1  0  0  0
 50 51  2  0  0  0
 50 52  1  0  0  0
 51 53  1  0  0  0
 52 54  2  0  0  0
 53 55  2  0  0  0
 54 55  1  0  0  0
 31 30  1  0  0  0
 31 32  1  0  0  0
 31 40  1  0  0  0
 32 41  1  0  0  0
 32 33  1  0  0  0
 41 42  2  0  0  0
 33 34  1  0  0  0
 34 35  1  0  0  0
 34 39  1  0  0  0
 35 36  1  0  0  0
 36 37  1  0  0  0
 37 38  1  0  0  0
 38 39  1  0  0  0
 39 40  1  0  0  0
 43 45  1  0  0  0
 45 46  1  0  0  0
 45 47  1  0  0  0
 45 48  1  0  0  0
  7  9  1  0  0  0
  2  4  1  0  0  0
 27 30  1  0  0  0
 41 43  1  0  0  0
  9 10  1  0  0  0
 24 25  1  0  0  0
 24 26  1  0  0  0
 28 29  1  0  0  0
  4  5  1  0  0  0
 43 44  1  0  0  0
M  END
> <minimizedAffinity>
-11.66773

$$$$
3PWW_ROC_A_1001


 55 59  0  0  0  0  0  0  0  0999 V2000
   -0.7420    4.8276   10.1258 C   0  0  0  0  0  0  0  0  0  0  0  0
   -2.8619    5.2768    8.9861 C   0  0  0  0  0  0  0  0  0  0  0  0
   -3.5063    6.0249    9.8865 O   0  0  0  0  0  0  0  0  0  0  0  0
   -1.5925    4.7228    8.9180 N   0  0  0  0  0  0  0  0  0  0  0  0
   -1.2702    4.2784    8.1008 H   0  0  0  0  0  0  0  0  0  0  0  0
   -3.6911    4.9621    7.7392 C   0  0  0  0  0  0  0  0  0  0  0  0
   -4.0239    2.9027    6.6092 C   0  0  0  0  0  0  0  0  0  0  0  0
   -3.4813    3.1312    5.4178 O   0  0  0  0  0  0  0  0  0  0  0  0
   -4.1405    3.5927    7.7737 N   0  0  0  0  0  0  0  0  0  0  0  0
   -4.5088    3.1833    8.5898 H   0  0  0  0  0  0  0  0  0  0  0  0
   -5.8773    1.3459    5.9857 N   0  0  0  0  0  0  0  0  0  0  0  0
   -4.7308    1.5478    6.7105 C   0  0  0  0  0  0  0  0  0  0  0  0
   -4.2380    0.5266    7.5332 C   0  0  0  0  0  0  0  0  0  0  0  0
   -4.9114   -0.6854    7.6083 C   0  0  0  0  0  0  0  0  0  0  0  0
   -6.7675   -2.0964    6.9440 C   0  0  0  0  0  0  0  0  0  0  0  0
   -7.9298   -2.2720    6.2032 C   0  0  0  0  0  0  0  0  0  0  0  0
   -8.4098   -1.2583    5.3990 C   0  0  0  0  0  0  0  0  0  0  0  0
   -7.7104   -0.0306    5.3228 C   0  0  0  0  0  0  0  0  0  0  0  0
   -6.0713   -0.8800    6.8761 C   0  0  0  0  0  0  0  0  0  0  0  0
   -6.5573    0.1405    6.0597 C   0  0  0  0  0  0  0  0  0  0  0  0
   -4.8742    5.9154    7.5192 C   0  0  0  0  0  0  0  0  0  0  0  0
   -4.5008    7.1025    6.6010 C   0  0  0  0  0  0  0  0  0  0  0  0
   -4.6549    8.3065    7.2064 O   0  0  0  0  0  0  0  0  0  0  0  0
   -4.1037    6.6436    5.3795 N   0  0  0  0  0  0  0  0  0  0  0  0
   -4.0846    5.6758    5.1997 H   0  0  0  0  0  0  0  0  0  0  0  0
   -3.8362    7.2801    4.6777 H   0  0  0  0  0  0  0  0  0  0  0  0
    0.1533    6.0720   10.0273 C   0  0  0  0  0  0  0  0  0  0  0  0
    0.6898    6.1179    8.7387 O   0  0  0  0  0  0  0  0  0  0  0  0
    1.2044    5.3124    8.5739 H   0  0  0  0  0  0  0  0  0  0  0  0
    1.2774    5.9729   11.0168 C   0  0  0  0  0  0  0  0  0  0  0  0
    1.1598    6.9001   12.1648 N   0  0  0  0  0  0  0  0  0  0  0  0
    0.8684    8.3084   11.7710 C   0  0  0  0  0  0  0  0  0  0  0  0
    0.8360    9.1861   13.0094 C   0  0  0  0  0  0  0  0  0  0  0  0
    2.0153    9.0821   13.9452 C   0  0  0  0  0  0  0  0  0  0  0  0
    3.2455    9.8222   13.3814 C   0  0  0  0  0  0  0  0  0  0  0  0
    4.4431    9.7091   14.2417 C   0  0  0  0  0  0  0  0  0  0  0  0
    4.7683    8.2566   14.5469 C   0  0  0  0  0  0  0  0  0  0  0  0
    3.5606    7.4869   15.0886 C   0  0  0  0  0  0  0  0  0  0  0  0
    2.2976    7.6475   14.2746 C   0  0  0  0  0  0  0  0  0  0  0  0
    2.3584    6.7752   13.0061 C   0  0  0  0  0  0  0  0  0  0  0  0
    1.7667    8.9304   10.7122 C   0  0  0  0  0  0  0  0  0  0  0  0
    2.9515    8.3778   10.5461 O   0  0  0  0  0  0  0  0  0  0  0  0
    1.1505   10.0098   10.0836 N   0  0  0  0  0  0  0  0  0  0  0  0
    0.2207   10.2370   10.3141 H   0  0  0  0  0  0  0  0  0  0  0  0
    1.8788   10.8335    9.0603 C   0  0  0  0  0  0  0  0  0  0  0  0
    0.9523   11.9430    8.6919 C   0  0  0  0  0  0  0  0  0  0  0  0
    2.2048   10.0153    7.8426 C   0  0  0  0  0  0  0  0  0  0  0  0
    3.1574   11.4136    9.6337 C   0  0  0  0  0  0  0  0  0  0  0  0
    0.0001    3.5295   10.4304 C   0  0  0  0  0  0  0  0  0  0  0  0
   -0.9863    2.3866   10.7584 C   0  0  0  0  0  0  0  0  0  0  0  0
   -0.7879    1.1060   10.2773 C   0  0  0  0  0  0  0  0  0  0  0  0
   -2.1065    2.6519   11.5477 C   0  0  0  0  0  0  0  0  0  0  0  0
   -1.7096    0.0794   10.5860 C   0  0  0  0  0  0  0  0  0  0  0  0
   -3.0229    1.6293   11.8582 C   0  0  0  0  0  0  0  0  0  0  0  0
   -2.8201    0.3501   11.3767 C   0  0  0  0  0  0  0  0  0  0  0  0
  8  7  2  0  0  0
  7 12  1  0  0  0
 11 12  2  0  0  0
 11 20  1  0  0  0
 12 13  1  0  0  0
 13 14  2  0  0  0
 14 19  1  0  0  0
 19 15  2  0  0  0
 19 20  1  0  0  0
 15 16  1  0  0  0
 16 17  2  0  0  0
 17 18  1  0  0  0
 18 20  2  0  0  0
  9  6  1  0  0  0
  6  2  1  0  0  0
  6 21  1  0  0  0
  2  3  2  0  0  0
 21 22  1  0  0  0
 22 23  2  0  0  0
 22 24  1  0  0  0
 27 28  1  0  0  0
 27  1  1  0  0  0
  1  4  1  0  0  0
  1 49  1  0  0  0
 49 50  1  0  0  0
 50 51  2  0  0  0
 50 52  1  0  0  0
 51 53  1  0  0  0
 52 54  2  0  0  0
 53 55  2  0  0  0
 54 55  1  0  0  0
 31 30  1  0  0  0
 31 32  1  0  0  0
 31 40  1  0  0  0
 32 41  1  0  0  0
 32 33  1  0  0  0
 41 42  2  0  0  0
 33 34  1  0  0  0
 34 35  1  0  0  0
 34 39  1  0  0  0
 35 36  1  0  0  0
 36 37  1  0  0  0
 37 38  1  0  0  0
 38 39  1  0  0  0
 39 40  1  0  0  0
 43 45  1  0  0  0
 45 46  1  0  0  0
 45 47  1  0  0  0
 45 48  1  0  0  0
  7  9  1  0  0  0
  2  4  1  0  0  0
 27 30  1  0  0  0
 41 43  1  0  0  0
  9 10  1  0  0  0
 24 25  1  0  0  0
 24 26  1  0  0  0
 28 29  1  0  0  0
  4  5  1  0  0  0
 43 44  1  0  0  0
M  END
> <minimizedAffinity>
-11.54313

$$$$
3PWW_ROC_A_1001


 55 59  0  0  0  0  0  0  0  0999 V2000
   -5.2034    1.7918    7.7240 C   0  0  0  0  0  0  0  0  0  0  0  0
   -3.9656    3.6444    6.7089 C   0  0  0  0  0  0  0  0  0  0  0  0
   -3.1837    3.0067    5.8327 O   0  0  0  0  0  0  0  0  0  0  0  0
   -4.9701    3.2469    7.5782 N   0  0  0  0  0  0  0  0  0  0  0  0
   -5.5058    3.9047    8.0778 H   0  0  0  0  0  0  0  0  0  0  0  0
   -3.7195    5.1533    6.7706 C   0  0  0  0  0  0  0  0  0  0  0  0
   -2.5457    5.8497    8.7113 C   0  0  0  0  0  0  0  0  0  0  0  0
   -3.5168    5.9846    9.6083 O   0  0  0  0  0  0  0  0  0  0  0  0
   -2.4632    5.4258    7.4231 N   0  0  0  0  0  0  0  0  0  0  0  0
   -1.5997    5.3120    6.9641 H   0  0  0  0  0  0  0  0  0  0  0  0
   -0.6005    7.4177    8.6428 N   0  0  0  0  0  0  0  0  0  0  0  0
   -1.1763    6.3133    9.2166 C   0  0  0  0  0  0  0  0  0  0  0  0
   -0.5032    5.6271   10.2357 C   0  0  0  0  0  0  0  0  0  0  0  0
    0.7421    6.0702   10.6612 C   0  0  0  0  0  0  0  0  0  0  0  0
    2.5787    7.6431   10.4872 C   0  0  0  0  0  0  0  0  0  0  0  0
    3.1414    8.7615    9.8846 C   0  0  0  0  0  0  0  0  0  0  0  0
    2.4723    9.4282    8.8784 C   0  0  0  0  0  0  0  0  0  0  0  0
    1.1996    8.9734    8.4591 C   0  0  0  0  0  0  0  0  0  0  0  0
    1.3189    7.1844   10.0734 C   0  0  0  0  0  0  0  0  0  0  0  0
    0.6443    7.8627    9.0591 C   0  0  0  0  0  0  0  0  0  0  0  0
   -3.7841    5.8528    5.4055 C   0  0  0  0  0  0  0  0  0  0  0  0
   -3.7410    7.3929    5.5391 C   0  0  0  0  0  0  0  0  0  0  0  0
   -2.4914    7.8677    5.7693 O   0  0  0  0  0  0  0  0  0  0  0  0
   -4.9944    7.9112    5.3953 N   0  0  0  0  0  0  0  0  0  0  0  0
   -5.7582    7.3130    5.2276 H   0  0  0  0  0  0  0  0  0  0  0  0
   -5.1353    8.8834    5.4591 H   0  0  0  0  0  0  0  0  0  0  0  0
   -6.0891    1.2876    6.5746 C   0  0  0  0  0  0  0  0  0  0  0  0
   -5.2560    0.7552    5.5882 O   0  0  0  0  0  0  0  0  0  0  0  0
   -4.6465    1.4416    5.2746 H   0  0  0  0  0  0  0  0  0  0  0  0
   -6.8654    2.4302    5.9880 C   0  0  0  0  0  0  0  0  0  0  0  0
   -6.8346    2.4900    4.5091 N   0  0  0  0  0  0  0  0  0  0  0  0
   -6.4706    3.8318    3.9704 C   0  0  0  0  0  0  0  0  0  0  0  0
   -6.5345    3.8050    2.4538 C   0  0  0  0  0  0  0  0  0  0  0  0
   -7.8004    3.2613    1.8380 C   0  0  0  0  0  0  0  0  0  0  0  0
   -8.9514    4.2843    1.9267 C   0  0  0  0  0  0  0  0  0  0  0  0
  -10.2285    3.7792    1.3780 C   0  0  0  0  0  0  0  0  0  0  0  0
  -10.6188    2.4567    2.0162 C   0  0  0  0  0  0  0  0  0  0  0  0
   -9.4888    1.4247    1.9641 C   0  0  0  0  0  0  0  0  0  0  0  0
   -8.1499    1.9355    2.4434 C   0  0  0  0  0  0  0  0  0  0  0  0
   -8.1112    1.9867    3.9828 C   0  0  0  0  0  0  0  0  0  0  0  0
   -7.2469    5.0258    4.5058 C   0  0  0  0  0  0  0  0  0  0  0  0
   -6.9263    6.2056    4.0140 O   0  0  0  0  0  0  0  0  0  0  0  0
   -8.1941    4.6418    5.4520 N   0  0  0  0  0  0  0  0  0  0  0  0
   -8.3227    3.6853    5.6467 H   0  0  0  0  0  0  0  0  0  0  0  0
   -9.0232    5.6606    6.1806 C   0  0  0  0  0  0  0  0  0  0  0  0
   -9.6015    4.9519    7.3590 C   0  0  0  0  0  0  0  0  0  0  0  0
  -10.1283    6.1816    5.3056 C   0  0  0  0  0  0  0  0  0  0  0  0
   -8.1704    6.8202    6.6581 C   0  0  0  0  0  0  0  0  0  0  0  0
   -5.6936    1.4170    9.1196 C   0  0  0  0  0  0  0  0  0  0  0  0
   -4.5290    1.4016   10.1346 C   0  0  0  0  0  0  0  0  0  0  0  0
   -4.2950    2.4730   10.9759 C   0  0  0  0  0  0  0  0  0  0  0  0
   -3.6886    0.2890   10.1984 C   0  0  0  0  0  0  0  0  0  0  0  0
   -3.2177    2.4370   11.8909 C   0  0  0  0  0  0  0  0  0  0  0  0
   -2.6179    0.2511   11.1117 C   0  0  0  0  0  0  0  0  0  0  0  0
   -2.3883    1.3235   11.9522 C   0  0  0  0  0  0  0  0  0  0  0  0
  8  7  2  0  0  0
  7 12  1  0  0  0
 11 12  2  0  0  0
 11 20  1  0  0  0
 12 13  1  0  0  0
 13 14  2  0  0  0
 14 19  1  0  0  0
 19 15  2  0  0  0
 19 20  1  0  0  0
 15 16  1  0  0  0
 16 17  2  0  0  0
 17 18  1  0  0  0
 18 20  2  0  0  0
  9  6  1  0  0  0
  6  2  1  0  0  0
  6 21  1  0  0  0
  2  3  2  0  0  0
 21 22  1  0  0  0
 22 23  2  0  0  0
 22 24  1  0  0  0
 27 28  1  0  0  0
 27  1  1  0  0  0
  1  4  1  0  0  0
  1 49  1  0  0  0
 49 50  1  0  0  0
 50 51  2  0  0  0
 50 52  1  0  0  0
 51 53  1  0  0  0
 52 54  2  0  0  0
 53 55  2  0  0  0
 54 55  1  0  0  0
 31 30  1  0  0  0
 31 32  1  0  0  0
 31 40  1  0  0  0
 32 41  1  0  0  0
 32 33  1  0  0  0
 41 42  2  0  0  0
 33 34  1  0  0  0
 34 35  1  0  0  0
 34 39  1  0  0  0
 35 36  1  0  0  0
 36 37  1  0  0  0
 37 38  1  0  0  0
 38 39  1  0  0  0
 39 40  1  0  0  0
 43 45  1  0  0  0
 45 46  1  0  0  0
 45 47  1  0  0  0
 45 48  1  0  0  0
  7  9  1  0  0  0
  2  4  1  0  0  0
 27 30  1  0  0  0
 41 43  1  0  0  0
  9 10  1  0  0  0
 24 25  1  0  0  0
 24 26  1  0  0  0
 28 29  1  0  0  0
  4  5  1  0  0  0
 43 44  1  0  0  0
M  END
> <minimizedAffinity>
-10.74880

$$$$
3PWW_ROC_A_1001


 55 59  0  0  0  0  0  0  0  0999 V2000
   -3.1348    5.1503    7.1981 C   0  0  0  0  0  0  0  0  0  0  0  0
   -1.6953    5.8263    9.0598 C   0  0  0  0  0  0  0  0  0  0  0  0
   -2.5636    5.8815   10.0740 O   0  0  0  0  0  0  0  0  0  0  0  0
   -1.7848    5.4495    7.7283 N   0  0  0  0  0  0  0  0  0  0  0  0
   -0.9842    5.3837    7.1591 H   0  0  0  0  0  0  0  0  0  0  0  0
   -0.2776    6.2606    9.4374 C   0  0  0  0  0  0  0  0  0  0  0  0
    0.0292    8.3912    8.4399 C   0  0  0  0  0  0  0  0  0  0  0  0
    0.1297    8.0980    7.1476 O   0  0  0  0  0  0  0  0  0  0  0  0
   -0.2180    7.6940    9.5794 N   0  0  0  0  0  0  0  0  0  0  0  0
   -0.3483    8.1396   10.4476 H   0  0  0  0  0  0  0  0  0  0  0  0
    1.5724   10.2745    9.0050 N   0  0  0  0  0  0  0  0  0  0  0  0
    0.2869    9.8678    8.7548 C   0  0  0  0  0  0  0  0  0  0  0  0
   -0.7598   10.7976    8.8039 C   0  0  0  0  0  0  0  0  0  0  0  0
   -0.4898   12.1263    9.1031 C   0  0  0  0  0  0  0  0  0  0  0  0
    1.1014   13.8660    9.6679 C   0  0  0  0  0  0  0  0  0  0  0  0
    2.4124   14.2496    9.9227 C   0  0  0  0  0  0  0  0  0  0  0  0
    3.4361   13.3252    9.8762 C   0  0  0  0  0  0  0  0  0  0  0  0
    3.1508   11.9755    9.5611 C   0  0  0  0  0  0  0  0  0  0  0  0
    0.8111   12.5284    9.3588 C   0  0  0  0  0  0  0  0  0  0  0  0
    1.8485   11.5981    9.3092 C   0  0  0  0  0  0  0  0  0  0  0  0
    0.2741    5.5682   10.6917 C   0  0  0  0  0  0  0  0  0  0  0  0
    1.8128    5.6875   10.7918 C   0  0  0  0  0  0  0  0  0  0  0  0
    2.4594    5.0083    9.8117 O   0  0  0  0  0  0  0  0  0  0  0  0
    2.1545    6.4574   11.8644 N   0  0  0  0  0  0  0  0  0  0  0  0
    1.4527    6.8451   12.4357 H   0  0  0  0  0  0  0  0  0  0  0  0
    3.1031    6.6256   12.0675 H   0  0  0  0  0  0  0  0  0  0  0  0
   -3.3546    3.6304    7.1578 C   0  0  0  0  0  0  0  0  0  0  0  0
   -3.6850    3.2758    5.8480 O   0  0  0  0  0  0  0  0  0  0  0  0
   -4.4902    3.7452    5.5793 H   0  0  0  0  0  0  0  0  0  0  0  0
   -4.4910    3.2538    8.0629 C   0  0  0  0  0  0  0  0  0  0  0  0
   -4.1023    2.3854    9.1970 N   0  0  0  0  0  0  0  0  0  0  0  0
   -3.4221    1.1251    8.7819 C   0  0  0  0  0  0  0  0  0  0  0  0
   -3.1285    0.2786   10.0075 C   0  0  0  0  0  0  0  0  0  0  0  0
   -4.2800    0.0280   10.9502 C   0  0  0  0  0  0  0  0  0  0  0  0
   -5.2506   -1.0274   10.3816 C   0  0  0  0  0  0  0  0  0  0  0  0
   -6.4228   -1.2737   11.2490 C   0  0  0  0  0  0  0  0  0  0  0  0
   -7.1488    0.0204   11.5763 C   0  0  0  0  0  0  0  0  0  0  0  0
   -6.2084    1.0978   12.1233 C   0  0  0  0  0  0  0  0  0  0  0  0
   -4.9595    1.3168   11.3013 C   0  0  0  0  0  0  0  0  0  0  0  0
   -5.2791    2.1504   10.0456 C   0  0  0  0  0  0  0  0  0  0  0  0
   -4.1129    0.2844    7.7186 C   0  0  0  0  0  0  0  0  0  0  0  0
   -3.3308   -0.3439    6.8641 O   0  0  0  0  0  0  0  0  0  0  0  0
   -5.4991    0.3292    7.8469 N   0  0  0  0  0  0  0  0  0  0  0  0
   -5.8991    0.8201    8.6007 H   0  0  0  0  0  0  0  0  0  0  0  0
   -6.3947   -0.3579    6.8560 C   0  0  0  0  0  0  0  0  0  0  0  0
   -7.7782   -0.2367    7.4008 C   0  0  0  0  0  0  0  0  0  0  0  0
   -6.0278   -1.8082    6.7130 C   0  0  0  0  0  0  0  0  0  0  0  0
   -6.3267    0.3146    5.4983 C   0  0  0  0  0  0  0  0  0  0  0  0
   -3.4178    5.8715    5.8835 C   0  0  0  0  0  0  0  0  0  0  0  0
   -3.6311    7.3845    6.1117 C   0  0  0  0  0  0  0  0  0  0  0  0
   -2.7751    8.3215    5.5639 C   0  0  0  0  0  0  0  0  0  0  0  0
   -4.7029    7.8162    6.8947 C   0  0  0  0  0  0  0  0  0  0  0  0
   -2.9881    9.7000    5.7941 C   0  0  0  0  0  0  0  0  0  0  0  0
   -4.9175    9.1890    7.1214 C   0  0  0  0  0  0  0  0  0  0  0  0
   -4.0605   10.1226    6.5707 C   0  0  0  0  0  0  0  0  0  0  0  0
  8  7  2  0  0  0
  7 12  1  0  0  0
 11 12  2  0  0  0
 11 20  1  0  0  0
 12 13  1  0  0  0
 13 14  2  0  0  0
 14 19  1  0  0  0
 19 15  2  0  0  0
 19 20  1  0  0  0
 15 16  1  0  0  0
 16 17  2  0  0  0
 17 18  1  0  0  0
 18 20  2  0  0  0
  9  6  1  0  0  0
  6  2  1  0  0  0
  6 21  1  0  0  0
  2  3  2  0  0  0
 21 22  1  0  0  0
 22 23  2  0  0  0
 22 24  1  0  0  0
 27 28  1  0  0  0
 27  1  1  0  0  0
  1  4  1  0  0  0
  1 49  1  0  0  0
 49 50  1  0  0  0
 50 51  2  0  0  0
 50 52  1  0  0  0
 51 53  1  0  0  0
 52 54  2  0  0  0
 53 55  2  0  0  0
 54 55  1  0  0  0
 31 30  1  0  0  0
 31 32  1  0  0  0
 31 40  1  0  0  0
 32 41  1  0  0  0
 32 33  1  0  0  0
 41 42  2  0  0  0
 33 34  1  0  0  0
 34 35  1  0  0  0
 34 39  1  0  0  0
 35 36  1  0  0  0
 36 37  1  0  0  0
 37 38  1  0  0  0
 38 39  1  0  0  0
 39 40  1  0  0  0
 43 45  1  0  0  0
 45 46  1  0  0  0
 45 47  1  0  0  0
 45 48  1  0  0  0
  7  9  1  0  0  0
  2  4  1  0  0  0
 27 30  1  0  0  0
 41 43  1  0  0  0
  9 10  1  0  0  0
 24 25  1  0  0  0
 24 26  1  0  0  0
 28 29  1  0  0  0
  4  5  1  0  0  0
 43 44  1  0  0  0
M  END
> <minimizedAffinity>
-10.48438

$$$$
3PWW_ROC_A_1001


 55 59  0  0  0  0  0  0  0  0999 V2000
   -5.1193    1.7755   10.2177 C   0  0  0  0  0  0  0  0  0  0  0  0
   -4.0378    2.7762    8.2622 C   0  0  0  0  0  0  0  0  0  0  0  0
   -3.4911    1.7088    7.6728 O   0  0  0  0  0  0  0  0  0  0  0  0
   -4.8528    2.9595    9.3690 N   0  0  0  0  0  0  0  0  0  0  0  0
   -5.2382    3.8400    9.5818 H   0  0  0  0  0  0  0  0  0  0  0  0
   -3.7122    4.0992    7.5661 C   0  0  0  0  0  0  0  0  0  0  0  0
   -2.5783    5.4792    9.1277 C   0  0  0  0  0  0  0  0  0  0  0  0
   -3.5588    5.8813    9.9295 O   0  0  0  0  0  0  0  0  0  0  0  0
   -2.4716    4.6338    8.0696 N   0  0  0  0  0  0  0  0  0  0  0  0
   -1.6018    4.4009    7.6716 H   0  0  0  0  0  0  0  0  0  0  0  0
   -0.8280    7.1962    8.6421 N   0  0  0  0  0  0  0  0  0  0  0  0
   -1.2317    6.1454    9.4253 C   0  0  0  0  0  0  0  0  0  0  0  0
   -0.4080    5.6952   10.4652 C   0  0  0  0  0  0  0  0  0  0  0  0
    0.8114    6.3168   10.6990 C   0  0  0  0  0  0  0  0  0  0  0  0
    2.4451    8.0116   10.1192 C   0  0  0  0  0  0  0  0  0  0  0  0
    2.8319    9.0704    9.3069 C   0  0  0  0  0  0  0  0  0  0  0  0
    2.0153    9.5038    8.2821 C   0  0  0  0  0  0  0  0  0  0  0  0
    0.7705    8.8690    8.0587 C   0  0  0  0  0  0  0  0  0  0  0  0
    1.2139    7.3751    9.9006 C   0  0  0  0  0  0  0  0  0  0  0  0
    0.3900    7.8182    8.8666 C   0  0  0  0  0  0  0  0  0  0  0  0
   -3.6806    4.0073    6.0339 C   0  0  0  0  0  0  0  0  0  0  0  0
   -3.9352    5.3779    5.3643 C   0  0  0  0  0  0  0  0  0  0  0  0
   -3.3189    6.4014    6.0065 O   0  0  0  0  0  0  0  0  0  0  0  0
   -4.7370    5.2241    4.2717 N   0  0  0  0  0  0  0  0  0  0  0  0
   -5.0568    4.3282    4.0180 H   0  0  0  0  0  0  0  0  0  0  0  0
   -4.9959    6.0089    3.7367 H   0  0  0  0  0  0  0  0  0  0  0  0
   -6.6283    1.6468   10.4750 C   0  0  0  0  0  0  0  0  0  0  0  0
   -6.8280    0.5782   11.3517 O   0  0  0  0  0  0  0  0  0  0  0  0
   -6.4779   -0.2350   10.9553 H   0  0  0  0  0  0  0  0  0  0  0  0
   -7.3438    1.3574    9.1877 C   0  0  0  0  0  0  0  0  0  0  0  0
   -7.3106   -0.0656    8.7809 N   0  0  0  0  0  0  0  0  0  0  0  0
   -6.4448   -0.3308    7.5963 C   0  0  0  0  0  0  0  0  0  0  0  0
   -6.5337   -1.7990    7.2203 C   0  0  0  0  0  0  0  0  0  0  0  0
   -7.9192   -2.3756    7.0616 C   0  0  0  0  0  0  0  0  0  0  0  0
   -8.5605   -1.9355    5.7296 C   0  0  0  0  0  0  0  0  0  0  0  0
   -9.9399   -2.4373    5.5488 C   0  0  0  0  0  0  0  0  0  0  0  0
  -10.8207   -2.0686    6.7307 C   0  0  0  0  0  0  0  0  0  0  0  0
  -10.2018   -2.4729    8.0716 C   0  0  0  0  0  0  0  0  0  0  0  0
   -8.7643   -2.0439    8.2540 C   0  0  0  0  0  0  0  0  0  0  0  0
   -8.6886   -0.5454    8.6042 C   0  0  0  0  0  0  0  0  0  0  0  0
   -6.6685    0.5384    6.3677 C   0  0  0  0  0  0  0  0  0  0  0  0
   -5.6498    0.6638    5.5412 O   0  0  0  0  0  0  0  0  0  0  0  0
   -7.9590    1.0615    6.3351 N   0  0  0  0  0  0  0  0  0  0  0  0
   -8.6044    0.7996    7.0309 H   0  0  0  0  0  0  0  0  0  0  0  0
   -8.3837    2.0178    5.2576 C   0  0  0  0  0  0  0  0  0  0  0  0
   -9.8404    2.2573    5.4726 C   0  0  0  0  0  0  0  0  0  0  0  0
   -8.1594    1.4274    3.8939 C   0  0  0  0  0  0  0  0  0  0  0  0
   -7.6352    3.3324    5.3660 C   0  0  0  0  0  0  0  0  0  0  0  0
   -4.2531    1.7517   11.4737 C   0  0  0  0  0  0  0  0  0  0  0  0
   -2.7638    1.5416   11.1205 C   0  0  0  0  0  0  0  0  0  0  0  0
   -2.3054    0.3336   10.6293 C   0  0  0  0  0  0  0  0  0  0  0  0
   -1.8592    2.5875   11.3099 C   0  0  0  0  0  0  0  0  0  0  0  0
   -0.9361    0.1648   10.3209 C   0  0  0  0  0  0  0  0  0  0  0  0
   -0.4961    2.4211   10.9997 C   0  0  0  0  0  0  0  0  0  0  0  0
   -0.0421    1.2125   10.5073 C   0  0  0  0  0  0  0  0  0  0  0  0
  8  7  2  0  0  0
  7 12  1  0  0  0
 11 12  2  0  0  0
 11 20  1  0  0  0
 12 13  1  0  0  0
 13 14  2  0  0  0
 14 19  1  0  0  0
 19 15  2  0  0  0
 19 20  1  0  0  0
 15 16  1  0  0  0
 16 17  2  0  0  0
 17 18  1  0  0  0
 18 20  2  0  0  0
  9  6  1  0  0  0
  6  2  1  0  0  0
  6 21  1  0  0  0
  2  3  2  0  0  0
 21 22  1  0  0  0
 22 23  2  0  0  0
 22 24  1  0  0  0
 27 28  1  0  0  0
 27  1  1  0  0  0
  1  4  1  0  0  0
  1 49  1  0  0  0
 49 50  1  0  0  0
 50 51  2  0  0  0
 50 52  1  0  0  0
 51 53  1  0  0  0
 52 54  2  0  0  0
 53 55  2  0  0  0
 54 55  1  0  0  0
 31 30  1  0  0  0
 31 32  1  0  0  0
 31 40  1  0  0  0
 32 41  1  0  0  0
 32 33  1  0  0  0
 41 42  2  0  0  0
 33 34  1  0  0  0
 34 35  1  0  0  0
 34 39  1  0  0  0
 35 36  1  0  0  0
 36 37  1  0  0  0
 37 38  1  0  0  0
 38 39  1  0  0  0
 39 40  1  0  0  0
 43 45  1  0  0  0
 45 46  1  0  0  0
 45 47  1  0  0  0
 45 48  1  0  0  0
  7  9  1  0  0  0
  2  4  1  0  0  0
 27 30  1  0  0  0
 41 43  1  0  0  0
  9 10  1  0  0  0
 24 25  1  0  0  0
 24 26  1  0  0  0
 28 29  1  0  0  0
  4  5  1  0  0  0
 43 44  1  0  0  0
M  END
> <minimizedAffinity>
-10.46048

$$$$
3PWW_ROC_A_1001


 55 59  0  0  0  0  0  0  0  0999 V2000
   -4.1686    4.1472    6.4456 C   0  0  0  0  0  0  0  0  0  0  0  0
   -3.0380    4.5542    8.5789 C   0  0  0  0  0  0  0  0  0  0  0  0
   -3.9126    5.3444    9.2085 O   0  0  0  0  0  0  0  0  0  0  0  0
   -3.0393    3.8819    7.3661 N   0  0  0  0  0  0  0  0  0  0  0  0
   -2.3195    3.2543    7.1270 H   0  0  0  0  0  0  0  0  0  0  0  0
   -1.7456    4.3174    9.3629 C   0  0  0  0  0  0  0  0  0  0  0  0
    0.1817    5.6908    9.5310 C   0  0  0  0  0  0  0  0  0  0  0  0
    1.1184    4.9544    8.9425 O   0  0  0  0  0  0  0  0  0  0  0  0
   -1.1557    5.5773    9.7413 N   0  0  0  0  0  0  0  0  0  0  0  0
   -1.6886    6.3094   10.1278 H   0  0  0  0  0  0  0  0  0  0  0  0
    1.2285    7.9537    9.3559 N   0  0  0  0  0  0  0  0  0  0  0  0
    0.7225    6.9733   10.1702 C   0  0  0  0  0  0  0  0  0  0  0  0
    0.7209    7.1538   11.5594 C   0  0  0  0  0  0  0  0  0  0  0  0
    1.2292    8.3254   12.1043 C   0  0  0  0  0  0  0  0  0  0  0  0
    2.2651   10.4973   11.8087 C   0  0  0  0  0  0  0  0  0  0  0  0
    2.7768   11.4718   10.9607 C   0  0  0  0  0  0  0  0  0  0  0  0
    2.7779   11.2827    9.5936 C   0  0  0  0  0  0  0  0  0  0  0  0
    2.2488   10.0889    9.0486 C   0  0  0  0  0  0  0  0  0  0  0  0
    1.7426    9.3094   11.2750 C   0  0  0  0  0  0  0  0  0  0  0  0
    1.7421    9.1235    9.8931 C   0  0  0  0  0  0  0  0  0  0  0  0
   -1.9165    3.4091   10.5888 C   0  0  0  0  0  0  0  0  0  0  0  0
   -0.8545    2.2856   10.6321 C   0  0  0  0  0  0  0  0  0  0  0  0
    0.3031    2.6764   11.2212 O   0  0  0  0  0  0  0  0  0  0  0  0
   -1.3462    1.1533   10.0522 N   0  0  0  0  0  0  0  0  0  0  0  0
   -2.2611    1.1437    9.6887 H   0  0  0  0  0  0  0  0  0  0  0  0
   -0.7861    0.3455    9.9971 H   0  0  0  0  0  0  0  0  0  0  0  0
   -4.7762    2.8194    5.9687 C   0  0  0  0  0  0  0  0  0  0  0  0
   -5.5357    3.0773    4.8254 O   0  0  0  0  0  0  0  0  0  0  0  0
   -6.2339    3.7161    5.0383 H   0  0  0  0  0  0  0  0  0  0  0  0
   -5.6754    2.2577    7.0310 C   0  0  0  0  0  0  0  0  0  0  0  0
   -4.9737    1.4587    8.0609 N   0  0  0  0  0  0  0  0  0  0  0  0
   -4.7668    0.0330    7.6761 C   0  0  0  0  0  0  0  0  0  0  0  0
   -4.1046   -0.7115    8.8216 C   0  0  0  0  0  0  0  0  0  0  0  0
   -4.7425   -0.5689   10.1817 C   0  0  0  0  0  0  0  0  0  0  0  0
   -6.0240   -1.4201   10.2921 C   0  0  0  0  0  0  0  0  0  0  0  0
   -6.7129   -1.2770   11.5929 C   0  0  0  0  0  0  0  0  0  0  0  0
   -6.9935    0.1820   11.9113 C   0  0  0  0  0  0  0  0  0  0  0  0
   -5.7444    1.0592   11.7896 C   0  0  0  0  0  0  0  0  0  0  0  0
   -4.9724    0.8767   10.5034 C   0  0  0  0  0  0  0  0  0  0  0  0
   -5.6730    1.6115    9.3445 C   0  0  0  0  0  0  0  0  0  0  0  0
   -5.9857   -0.7354    7.1878 C   0  0  0  0  0  0  0  0  0  0  0  0
   -5.7527   -1.8139    6.4673 O   0  0  0  0  0  0  0  0  0  0  0  0
   -7.1724   -0.1401    7.6091 N   0  0  0  0  0  0  0  0  0  0  0  0
   -7.1354    0.6460    8.2006 H   0  0  0  0  0  0  0  0  0  0  0  0
   -8.5075   -0.6758    7.1771 C   0  0  0  0  0  0  0  0  0  0  0  0
   -8.4798   -0.6924    5.6857 C   0  0  0  0  0  0  0  0  0  0  0  0
   -9.6239    0.2084    7.6570 C   0  0  0  0  0  0  0  0  0  0  0  0
   -8.7249   -2.0853    7.6931 C   0  0  0  0  0  0  0  0  0  0  0  0
   -3.7941    5.1160    5.3278 C   0  0  0  0  0  0  0  0  0  0  0  0
   -4.0860    6.5775    5.7349 C   0  0  0  0  0  0  0  0  0  0  0  0
   -3.1527    7.5781    5.5388 C   0  0  0  0  0  0  0  0  0  0  0  0
   -5.3119    6.8948    6.3220 C   0  0  0  0  0  0  0  0  0  0  0  0
   -3.4418    8.9064    5.9271 C   0  0  0  0  0  0  0  0  0  0  0  0
   -5.6016    8.2180    6.7057 C   0  0  0  0  0  0  0  0  0  0  0  0
   -4.6666    9.2157    6.5065 C   0  0  0  0  0  0  0  0  0  0  0  0
  8  7  2  0  0  0
  7 12  1  0  0  0
 11 12  2  0  0  0
 11 20  1  0  0  0
 12 13  1  0  0  0
 13 14  2  0  0  0
 14 19  1  0  0  0
 19 15  2  0  0  0
 19 20  1  0  0  0
 15 16  1  0  0  0
 16 17  2  0  0  0
 17 18  1  0  0  0
 18 20  2  0  0  0
  9  6  1  0  0  0
  6  2  1  0  0  0
  6 21  1  0  0  0
  2  3  2  0  0  0
 21 22  1  0  0  0
 22 23  2  0  0  0
 22 24  1  0  0  0
 27 28  1  0  0  0
 27  1  1  0  0  0
  1  4  1  0  0  0
  1 49  1  0  0  0
 49 50  1  0  0  0
 50 51  2  0  0  0
 50 52  1  0  0  0
 51 53  1  0  0  0
 52 54  2  0  0  0
 53 55  2  0  0  0
 54 55  1  0  0  0
 31 30  1  0  0  0
 31 32  1  0  0  0
 31 40  1  0  0  0
 32 41  1  0  0  0
 32 33  1  0  0  0
 41 42  2  0  0  0
 33 34  1  0  0  0
 34 35  1  0  0  0
 34 39  1  0  0  0
 35 36  1  0  0  0
 36 37  1  0  0  0
 37 38  1  0  0  0
 38 39  1  0  0  0
 39 40  1  0  0  0
 43 45  1  0  0  0
 45 46  1  0  0  0
 45 47  1  0  0  0
 45 48  1  0  0  0
  7  9  1  0  0  0
  2  4  1  0  0  0
 27 30  1  0  0  0
 41 43  1  0  0  0
  9 10  1  0  0  0
 24 25  1  0  0  0
 24 26  1  0  0  0
 28 29  1  0  0  0
  4  5  1  0  0  0
 43 44  1  0  0  0
M  END
> <minimizedAffinity>
-10.32977

$$$$
3PWW_ROC_A_1001


 55 59  0  0  0  0  0  0  0  0999 V2000
   -1.7843    5.0524    9.7184 C   0  0  0  0  0  0  0  0  0  0  0  0
   -3.1500    5.3897    7.7144 C   0  0  0  0  0  0  0  0  0  0  0  0
   -2.3522    4.9146    6.7535 O   0  0  0  0  0  0  0  0  0  0  0  0
   -3.0659    5.4577    9.0969 N   0  0  0  0  0  0  0  0  0  0  0  0
   -3.8265    5.7626    9.6424 H   0  0  0  0  0  0  0  0  0  0  0  0
   -4.4592    5.9839    7.1910 C   0  0  0  0  0  0  0  0  0  0  0  0
   -3.6689    8.1351    6.5776 C   0  0  0  0  0  0  0  0  0  0  0  0
   -2.9138    7.8777    5.5147 O   0  0  0  0  0  0  0  0  0  0  0  0
   -4.4750    7.4107    7.3968 N   0  0  0  0  0  0  0  0  0  0  0  0
   -5.0347    7.8335    8.0876 H   0  0  0  0  0  0  0  0  0  0  0  0
   -4.7187   10.3818    6.8899 N   0  0  0  0  0  0  0  0  0  0  0  0
   -3.6048    9.5953    7.0353 C   0  0  0  0  0  0  0  0  0  0  0  0
   -2.4351   10.1386    7.5821 C   0  0  0  0  0  0  0  0  0  0  0  0
   -2.4105   11.4697    7.9764 C   0  0  0  0  0  0  0  0  0  0  0  0
   -3.5301   13.6073    8.2104 C   0  0  0  0  0  0  0  0  0  0  0  0
   -4.6712   14.3830    8.0466 C   0  0  0  0  0  0  0  0  0  0  0  0
   -5.8174   13.8396    7.5027 C   0  0  0  0  0  0  0  0  0  0  0  0
   -5.8342   12.4794    7.1130 C   0  0  0  0  0  0  0  0  0  0  0  0
   -3.5387   12.2589    7.8223 C   0  0  0  0  0  0  0  0  0  0  0  0
   -4.6998   11.7125    7.2767 C   0  0  0  0  0  0  0  0  0  0  0  0
   -4.7561    5.6447    5.7234 C   0  0  0  0  0  0  0  0  0  0  0  0
   -6.2709    5.6791    5.4140 C   0  0  0  0  0  0  0  0  0  0  0  0
   -7.0356    5.7681    6.5309 O   0  0  0  0  0  0  0  0  0  0  0  0
   -6.4763    5.6054    4.0677 N   0  0  0  0  0  0  0  0  0  0  0  0
   -5.7079    5.5462    3.4551 H   0  0  0  0  0  0  0  0  0  0  0  0
   -7.3929    5.6115    3.7085 H   0  0  0  0  0  0  0  0  0  0  0  0
   -0.6244    5.8277    9.0756 C   0  0  0  0  0  0  0  0  0  0  0  0
    0.2913    4.8996    8.5750 O   0  0  0  0  0  0  0  0  0  0  0  0
    0.6134    4.3403    9.2990 H   0  0  0  0  0  0  0  0  0  0  0  0
    0.0598    6.6742   10.1090 C   0  0  0  0  0  0  0  0  0  0  0  0
    1.1845    7.4818    9.5853 N   0  0  0  0  0  0  0  0  0  0  0  0
    2.3497    7.5600   10.5124 C   0  0  0  0  0  0  0  0  0  0  0  0
    3.4148    8.4620    9.9151 C   0  0  0  0  0  0  0  0  0  0  0  0
    2.9637    9.8219    9.4411 C   0  0  0  0  0  0  0  0  0  0  0  0
    2.7334   10.7811   10.6269 C   0  0  0  0  0  0  0  0  0  0  0  0
    2.2440   12.1147   10.2160 C   0  0  0  0  0  0  0  0  0  0  0  0
    1.0005   12.0036    9.3499 C   0  0  0  0  0  0  0  0  0  0  0  0
    1.1891   11.0408    8.1744 C   0  0  0  0  0  0  0  0  0  0  0  0
    1.7644    9.6952    8.5514 C   0  0  0  0  0  0  0  0  0  0  0  0
    0.6798    8.8027    9.1844 C   0  0  0  0  0  0  0  0  0  0  0  0
    2.0636    7.9688   11.9496 C   0  0  0  0  0  0  0  0  0  0  0  0
    0.8204    8.3033   12.2308 O   0  0  0  0  0  0  0  0  0  0  0  0
    3.2094    7.9102   12.7394 N   0  0  0  0  0  0  0  0  0  0  0  0
    4.0487    7.5746   12.3494 H   0  0  0  0  0  0  0  0  0  0  0  0
    3.1877    8.3499   14.1755 C   0  0  0  0  0  0  0  0  0  0  0  0
    2.3338    7.3602   14.8945 C   0  0  0  0  0  0  0  0  0  0  0  0
    2.5975    9.7255   14.3092 C   0  0  0  0  0  0  0  0  0  0  0  0
    4.5819    8.3405   14.7722 C   0  0  0  0  0  0  0  0  0  0  0  0
   -1.6027    3.5376    9.7451 C   0  0  0  0  0  0  0  0  0  0  0  0
   -2.9096    2.8261   10.1605 C   0  0  0  0  0  0  0  0  0  0  0  0
   -3.7285    2.2235    9.2241 C   0  0  0  0  0  0  0  0  0  0  0  0
   -3.2783    2.7985   11.5064 C   0  0  0  0  0  0  0  0  0  0  0  0
   -4.9232    1.5853    9.6296 C   0  0  0  0  0  0  0  0  0  0  0  0
   -4.4660    2.1602   11.9112 C   0  0  0  0  0  0  0  0  0  0  0  0
   -5.2811    1.5575   10.9722 C   0  0  0  0  0  0  0  0  0  0  0  0
  8  7  2  0  0  0
  7 12  1  0  0  0
 11 12  2  0  0  0
 11 20  1  0  0  0
 12 13  1  0  0  0
 13 14  2  0  0  0
 14 19  1  0  0  0
 19 15  2  0  0  0
 19 20  1  0  0  0
 15 16  1  0  0  0
 16 17  2  0  0  0
 17 18  1  0  0  0
 18 20  2  0  0  0
  9  6  1  0  0  0
  6  2  1  0  0  0
  6 21  1  0  0  0
  2  3  2  0  0  0
 21 22  1  0  0  0
 22 23  2  0  0  0
 22 24  1  0  0  0
 27 28  1  0  0  0
 27  1  1  0  0  0
  1  4  1  0  0  0
  1 49  1  0  0  0
 49 50  1  0  0  0
 50 51  2  0  0  0
 50 52  1  0  0  0
 51 53  1  0  0  0
 52 54  2  0  0  0
 53 55  2  0  0  0
 54 55  1  0  0  0
 31 30  1  0  0  0
 31 32  1  0  0  0
 31 40  1  0  0  0
 32 41  1  0  0  0
 32 33  1  0  0  0
 41 42  2  0  0  0
 33 34  1  0  0  0
 34 35  1  0  0  0
 34 39  1  0  0  0
 35 36  1  0  0  0
 36 37  1  0  0  0
 37 38  1  0  0  0
 38 39  1  0  0  0
 39 40  1  0  0  0
 43 45  1  0  0  0
 45 46  1  0  0  0
 45 47  1  0  0  0
 45 48  1  0  0  0
  7  9  1  0  0  0
  2  4  1  0  0  0
 27 30  1  0  0  0
 41 43  1  0  0  0
  9 10  1  0  0  0
 24 25  1  0  0  0
 24 26  1  0  0  0
 28 29  1  0  0  0
  4  5  1  0  0  0
 43 44  1  0  0  0
M  END
> <minimizedAffinity>
-10.13706

$$$$
3PWW_ROC_A_1001


 55 59  0  0  0  0  0  0  0  0999 V2000
   -9.5403    4.3038    6.4992 C   0  0  0  0  0  0  0  0  0  0  0  0
   -7.3710    5.4373    6.4317 C   0  0  0  0  0  0  0  0  0  0  0  0
   -7.7327    6.7193    6.3249 O   0  0  0  0  0  0  0  0  0  0  0  0
   -8.0632    4.2460    6.5887 N   0  0  0  0  0  0  0  0  0  0  0  0
   -7.5923    3.3972    6.7527 H   0  0  0  0  0  0  0  0  0  0  0  0
   -5.8575    5.2177    6.3849 C   0  0  0  0  0  0  0  0  0  0  0  0
   -4.1949    4.7214    8.0030 C   0  0  0  0  0  0  0  0  0  0  0  0
   -3.2682    5.6431    7.7631 O   0  0  0  0  0  0  0  0  0  0  0  0
   -5.4330    4.4379    7.5207 N   0  0  0  0  0  0  0  0  0  0  0  0
   -6.0043    3.7435    7.9216 H   0  0  0  0  0  0  0  0  0  0  0  0
   -3.6500    2.3768    8.6762 N   0  0  0  0  0  0  0  0  0  0  0  0
   -3.7746    3.6892    9.0536 C   0  0  0  0  0  0  0  0  0  0  0  0
   -3.5308    4.0578   10.3829 C   0  0  0  0  0  0  0  0  0  0  0  0
   -3.1617    3.0929   11.3107 C   0  0  0  0  0  0  0  0  0  0  0  0
   -2.6752    0.7793   11.8476 C   0  0  0  0  0  0  0  0  0  0  0  0
   -2.5618   -0.5439   11.4393 C   0  0  0  0  0  0  0  0  0  0  0  0
   -2.8085   -0.8978   10.1283 C   0  0  0  0  0  0  0  0  0  0  0  0
   -3.1748    0.0953    9.1892 C   0  0  0  0  0  0  0  0  0  0  0  0
   -3.0421    1.7683   10.9224 C   0  0  0  0  0  0  0  0  0  0  0  0
   -3.2868    1.4076    9.5979 C   0  0  0  0  0  0  0  0  0  0  0  0
   -5.3584    4.5868    5.0773 C   0  0  0  0  0  0  0  0  0  0  0  0
   -4.3543    5.5012    4.3373 C   0  0  0  0  0  0  0  0  0  0  0  0
   -3.9026    4.9596    3.1786 O   0  0  0  0  0  0  0  0  0  0  0  0
   -4.1583    6.6509    5.0443 N   0  0  0  0  0  0  0  0  0  0  0  0
   -4.6354    6.7941    5.8934 H   0  0  0  0  0  0  0  0  0  0  0  0
   -3.5396    7.3377    4.7054 H   0  0  0  0  0  0  0  0  0  0  0  0
  -10.1587    3.9970    7.8715 C   0  0  0  0  0  0  0  0  0  0  0  0
   -9.4389    4.7032    8.8378 O   0  0  0  0  0  0  0  0  0  0  0  0
   -8.5088    4.4290    8.8127 H   0  0  0  0  0  0  0  0  0  0  0  0
  -10.0512    2.5289    8.1642 C   0  0  0  0  0  0  0  0  0  0  0  0
   -8.6613    2.0272    8.2530 N   0  0  0  0  0  0  0  0  0  0  0  0
   -8.3959    0.8399    7.3909 C   0  0  0  0  0  0  0  0  0  0  0  0
   -6.9703    0.3643    7.6059 C   0  0  0  0  0  0  0  0  0  0  0  0
   -6.5362    0.1470    9.0348 C   0  0  0  0  0  0  0  0  0  0  0  0
   -7.1208   -1.1612    9.6057 C   0  0  0  0  0  0  0  0  0  0  0  0
   -6.7619   -1.3953   11.0212 C   0  0  0  0  0  0  0  0  0  0  0  0
   -7.1317   -0.2038   11.8887 C   0  0  0  0  0  0  0  0  0  0  0  0
   -6.5842    1.1153   11.3370 C   0  0  0  0  0  0  0  0  0  0  0  0
   -6.8653    1.3470    9.8704 C   0  0  0  0  0  0  0  0  0  0  0  0
   -8.3238    1.7988    9.6651 C   0  0  0  0  0  0  0  0  0  0  0  0
   -9.3612   -0.3300    7.5090 C   0  0  0  0  0  0  0  0  0  0  0  0
  -10.2009   -0.3011    8.5243 O   0  0  0  0  0  0  0  0  0  0  0  0
   -9.1791   -1.2535    6.4823 N   0  0  0  0  0  0  0  0  0  0  0  0
   -8.5243   -1.0638    5.7721 H   0  0  0  0  0  0  0  0  0  0  0  0
   -9.9636   -2.5337    6.4393 C   0  0  0  0  0  0  0  0  0  0  0  0
  -11.3633   -2.1457    6.0992 C   0  0  0  0  0  0  0  0  0  0  0  0
   -9.9359   -3.2279    7.7719 C   0  0  0  0  0  0  0  0  0  0  0  0
   -9.4265   -3.4694    5.3734 C   0  0  0  0  0  0  0  0  0  0  0  0
  -10.0879    3.4630    5.3496 C   0  0  0  0  0  0  0  0  0  0  0  0
   -9.0742    3.3800    4.1867 C   0  0  0  0  0  0  0  0  0  0  0  0
   -8.2810    2.2629    4.0033 C   0  0  0  0  0  0  0  0  0  0  0  0
   -8.9477    4.4572    3.3081 C   0  0  0  0  0  0  0  0  0  0  0  0
   -7.3557    2.2151    2.9354 C   0  0  0  0  0  0  0  0  0  0  0  0
   -8.0289    4.4087    2.2425 C   0  0  0  0  0  0  0  0  0  0  0  0
   -7.2389    3.2896    2.0617 C   0  0  0  0  0  0  0  0  0  0  0  0
  8  7  2  0  0  0
  7 12  1  0  0  0
 11 12  2  0  0  0
 11 20  1  0  0  0
 12 13  1  0  0  0
 13 14  2  0  0  0
 14 19  1  0  0  0
 19 15  2  0  0  0
 19 20  1  0  0  0
 15 16  1  0  0  0
 16 17  2  0  0  0
 17 18  1  0  0  0
 18 20  2  0  0  0
  9  6  1  0  0  0
  6  2  1  0  0  0
  6 21  1  0  0  0
  2  3  2  0  0  0
 21 22  1  0  0  0
 22 23  2  0  0  0
 22 24  1  0  0  0
 27 28  1  0  0  0
 27  1  1  0  0  0
  1  4  1  0  0  0
  1 49  1  0  0  0
 49 50  1  0  0  0
 50 51  2  0  0  0
 50 52  1  0  0  0
 51 53  1  0  0  0
 52 54  2  0  0  0
 53 55  2  0  0  0
 54 55  1  0  0  0
 31 30  1  0  0  0
 31 32  1  0  0  0
 31 40  1  0  0  0
 32 41  1  0  0  0
 32 33  1  0  0  0
 41 42  2  0  0  0
 33 34  1  0  0  0
 34 35  1  0  0  0
 34 39  1  0  0  0
 35 36  1  0  0  0
 36 37  1  0  0  0
 37 38  1  0  0  0
 38 39  1  0  0  0
 39 40  1  0  0  0
 43 45  1  0  0  0
 45 46  1  0  0  0
 45 47  1  0  0  0
 45 48  1  0  0  0
  7  9  1  0  0  0
  2  4  1  0  0  0
 27 30  1  0  0  0
 41 43  1  0  0  0
  9 10  1  0  0  0
 24 25  1  0  0  0
 24 26  1  0  0  0
 28 29  1  0  0  0
  4  5  1  0  0  0
 43 44  1  0  0  0
M  END
> <minimizedAffinity>
-10.10422

$$$$
3PWW_ROC_A_1001


 55 59  0  0  0  0  0  0  0  0999 V2000
   -4.7116    0.4725    7.8041 C   0  0  0  0  0  0  0  0  0  0  0  0
   -3.7635    2.4327    6.6843 C   0  0  0  0  0  0  0  0  0  0  0  0
   -2.9927    1.8702    5.7488 O   0  0  0  0  0  0  0  0  0  0  0  0
   -4.6461    1.9422    7.6348 N   0  0  0  0  0  0  0  0  0  0  0  0
   -5.2058    2.5460    8.1746 H   0  0  0  0  0  0  0  0  0  0  0  0
   -3.6742    3.9597    6.7205 C   0  0  0  0  0  0  0  0  0  0  0  0
   -2.5905    4.7832    8.6638 C   0  0  0  0  0  0  0  0  0  0  0  0
   -3.5728    4.8087    9.5584 O   0  0  0  0  0  0  0  0  0  0  0  0
   -2.4578    4.3711    7.3760 N   0  0  0  0  0  0  0  0  0  0  0  0
   -1.5859    4.3545    6.9191 H   0  0  0  0  0  0  0  0  0  0  0  0
   -0.9425    6.6600    8.7601 N   0  0  0  0  0  0  0  0  0  0  0  0
   -1.2827    5.3971    9.1723 C   0  0  0  0  0  0  0  0  0  0  0  0
   -0.4307    4.6920   10.0322 C   0  0  0  0  0  0  0  0  0  0  0  0
    0.7523    5.2764   10.4646 C   0  0  0  0  0  0  0  0  0  0  0  0
    2.2848    7.1550   10.4629 C   0  0  0  0  0  0  0  0  0  0  0  0
    2.6076    8.4336   10.0252 C   0  0  0  0  0  0  0  0  0  0  0  0
    1.7637    9.1184    9.1745 C   0  0  0  0  0  0  0  0  0  0  0  0
    0.5561    8.5169    8.7476 C   0  0  0  0  0  0  0  0  0  0  0  0
    1.0909    6.5511   10.0402 C   0  0  0  0  0  0  0  0  0  0  0  0
    0.2391    7.2475    9.1837 C   0  0  0  0  0  0  0  0  0  0  0  0
   -3.7991    4.6253    5.3427 C   0  0  0  0  0  0  0  0  0  0  0  0
   -4.9431    5.6652    5.3014 C   0  0  0  0  0  0  0  0  0  0  0  0
   -6.1727    5.0949    5.2499 O   0  0  0  0  0  0  0  0  0  0  0  0
   -4.4292    6.9284    5.3223 N   0  0  0  0  0  0  0  0  0  0  0  0
   -3.4548    7.0628    5.3633 H   0  0  0  0  0  0  0  0  0  0  0  0
   -5.0327    7.7058    5.2964 H   0  0  0  0  0  0  0  0  0  0  0  0
   -5.7608   -0.1166    6.8492 C   0  0  0  0  0  0  0  0  0  0  0  0
   -5.2200   -0.1203    5.5615 O   0  0  0  0  0  0  0  0  0  0  0  0
   -4.9935    0.7869    5.3034 H   0  0  0  0  0  0  0  0  0  0  0  0
   -6.9942    0.7385    6.8541 C   0  0  0  0  0  0  0  0  0  0  0  0
   -7.7510    0.7060    8.1259 N   0  0  0  0  0  0  0  0  0  0  0  0
   -8.3694   -0.6181    8.4223 C   0  0  0  0  0  0  0  0  0  0  0  0
   -9.1752   -0.5268    9.7057 C   0  0  0  0  0  0  0  0  0  0  0  0
  -10.1664    0.6068    9.8047 C   0  0  0  0  0  0  0  0  0  0  0  0
  -11.4281    0.3236    8.9638 C   0  0  0  0  0  0  0  0  0  0  0  0
  -12.4109    1.4283    8.9906 C   0  0  0  0  0  0  0  0  0  0  0  0
  -11.7699    2.7471    8.5922 C   0  0  0  0  0  0  0  0  0  0  0  0
  -10.5010    3.0480    9.3945 C   0  0  0  0  0  0  0  0  0  0  0  0
   -9.5108    1.9080    9.4536 C   0  0  0  0  0  0  0  0  0  0  0  0
   -8.7229    1.8084    8.1333 C   0  0  0  0  0  0  0  0  0  0  0  0
   -9.2077   -1.2516    7.3220 C   0  0  0  0  0  0  0  0  0  0  0  0
   -9.6410   -0.4460    6.3735 O   0  0  0  0  0  0  0  0  0  0  0  0
   -9.3691   -2.6206    7.5213 N   0  0  0  0  0  0  0  0  0  0  0  0
   -8.9105   -3.0567    8.2754 H   0  0  0  0  0  0  0  0  0  0  0  0
  -10.2303   -3.4437    6.6064 C   0  0  0  0  0  0  0  0  0  0  0  0
  -11.6299   -2.9798    6.8332 C   0  0  0  0  0  0  0  0  0  0  0  0
  -10.1184   -4.9065    6.9322 C   0  0  0  0  0  0  0  0  0  0  0  0
   -9.8546   -3.2216    5.1540 C   0  0  0  0  0  0  0  0  0  0  0  0
   -4.8744    0.0607    9.2643 C   0  0  0  0  0  0  0  0  0  0  0  0
   -3.8272    0.7580   10.1609 C   0  0  0  0  0  0  0  0  0  0  0  0
   -4.2046    1.6580   11.1398 C   0  0  0  0  0  0  0  0  0  0  0  0
   -2.4715    0.4833    9.9741 C   0  0  0  0  0  0  0  0  0  0  0  0
   -3.2259    2.2883   11.9421 C   0  0  0  0  0  0  0  0  0  0  0  0
   -1.4967    1.1080   10.7750 C   0  0  0  0  0  0  0  0  0  0  0  0
   -1.8782    2.0059   11.7536 C   0  0  0  0  0  0  0  0  0  0  0  0
  8  7  2  0  0  0
  7 12  1  0  0  0
 11 12  2  0  0  0
 11 20  1  0  0  0
 12 13  1  0  0  0
 13 14  2  0  0  0
 14 19  1  0  0  0
 19 15  2  0  0  0
 19 20  1  0  0  0
 15 16  1  0  0  0
 16 17  2  0  0  0
 17 18  1  0  0  0
 18 20  2  0  0  0
  9  6  1  0  0  0
  6  2  1  0  0  0
  6 21  1  0  0  0
  2  3  2  0  0  0
 21 22  1  0  0  0
 22 23  2  0  0  0
 22 24  1  0  0  0
 27 28  1  0  0  0
 27  1  1  0  0  0
  1  4  1  0  0  0
  1 49  1  0  0  0
 49 50  1  0  0  0
 50 51  2  0  0  0
 50 52  1  0  0  0
 51 53  1  0  0  0
 52 54  2  0  0  0
 53 55  2  0  0  0
 54 55  1  0  0  0
 31 30  1  0  0  0
 31 32  1  0  0  0
 31 40  1  0  0  0
 32 41  1  0  0  0
 32 33  1  0  0  0
 41 42  2  0  0  0
 33 34  1  0  0  0
 34 35  1  0  0  0
 34 39  1  0  0  0
 35 36  1  0  0  0
 36 37  1  0  0  0
 37 38  1  0  0  0
 38 39  1  0  0  0
 39 40  1  0  0  0
 43 45  1  0  0  0
 45 46  1  0  0  0
 45 47  1  0  0  0
 45 48  1  0  0  0
  7  9  1  0  0  0
  2  4  1  0  0  0
 27 30  1  0  0  0
 41 43  1  0  0  0
  9 10  1  0  0  0
 24 25  1  0  0  0
 24 26  1  0  0  0
 28 29  1  0  0  0
  4  5  1  0  0  0
 43 44  1  0  0  0
M  END
> <minimizedAffinity>
-10.06778

$$$$
