1X1Z_BMP_A_301


 28 29  0  0  0  0  0  0  0  0999 V2000
   24.8311  -18.3441   11.8483 C   0  0  0  0  0  0  0  0  0  0  0  0
   25.6088  -19.1856   12.7458 O   0  0  0  0  0  0  0  0  0  0  0  0
   24.3722  -17.2191   12.7012 C   0  0  0  0  0  0  0  0  0  0  0  0
   23.1330  -17.5122   13.3680 O   0  0  0  0  0  0  0  0  0  0  0  0
   25.4734  -17.0744   13.7595 C   0  0  0  0  0  0  0  0  0  0  0  0
   25.0033  -16.4323   14.9064 O   0  0  0  0  0  0  0  0  0  0  0  0
   25.8917  -18.5096   13.9777 C   0  0  0  0  0  0  0  0  0  0  0  0
   23.2399  -18.3065   13.9144 H   0  0  0  0  0  0  0  0  0  0  0  0
   24.2425  -16.9188   15.2605 H   0  0  0  0  0  0  0  0  0  0  0  0
   27.3165  -18.7690   14.2983 N   0  0  0  0  0  0  0  0  0  0  0  0
   28.3317  -17.9924   13.7628 C   0  0  0  0  0  0  0  0  0  0  0  0
   28.1109  -17.0992   12.9788 O   0  0  0  0  0  0  0  0  0  0  0  0
   29.5823  -18.2969   14.1435 N   0  0  0  0  0  0  0  0  0  0  0  0
   29.9632  -19.3344   15.0344 C   0  0  0  0  0  0  0  0  0  0  0  0
   31.1613  -19.4626   15.2504 O   0  0  0  0  0  0  0  0  0  0  0  0
   28.8991  -20.1279   15.5572 C   0  0  0  0  0  0  0  0  0  0  0  0
   27.6002  -19.8655   15.1815 C   0  0  0  0  0  0  0  0  0  0  0  0
   26.6104  -20.5511   15.5559 O   0  0  0  0  0  0  0  0  0  0  0  0
   30.3070  -17.7465   13.7677 H   0  0  0  0  0  0  0  0  0  0  0  0
   25.7479  -20.3249   15.2677 H   0  0  0  0  0  0  0  0  0  0  0  0
   25.7152  -17.9632   10.6895 C   0  0  0  0  0  0  0  0  0  0  0  0
   25.2516  -16.6316   10.3800 O   0  0  0  0  0  0  0  0  0  0  0  0
   24.9707  -16.1775    8.8649 P   0  0  0  0  0  0  0  0  0  0  0  0
   23.6761  -15.4011    8.7934 O   0  0  0  0  0  0  0  0  0  0  0  0
   24.8599  -17.4738    8.1081 O   0  0  0  0  0  0  0  0  0  0  0  0
   26.1236  -15.3224    8.3969 O   0  0  0  0  0  0  0  0  0  0  0  0
   24.6881  -17.2879    7.1717 H   0  0  0  0  0  0  0  0  0  0  0  0
   25.9668  -15.0408    7.4820 H   0  0  0  0  0  0  0  0  0  0  0  0
 23 24  2  0  0  0
 23 25  1  0  0  0
 23 26  1  0  0  0
 23 22  1  0  0  0
 22 21  1  0  0  0
 21  1  1  0  0  0
  1  2  1  0  0  0
  1  3  1  0  0  0
  2  7  1  0  0  0
  3  4  1  0  0  0
  3  5  1  0  0  0
  5  6  1  0  0  0
  5  7  1  0  0  0
  7 10  1  0  0  0
 10 11  1  0  0  0
 10 17  1  0  0  0
 11 12  2  0  0  0
 11 13  1  0  0  0
 13 14  1  0  0  0
 14 15  2  0  0  0
 14 16  1  0  0  0
 16 17  2  0  0  0
 17 18  1  0  0  0
 25 27  1  0  0  0
 26 28  1  0  0  0
  4  8  1  0  0  0
  6  9  1  0  0  0
 13 19  1  0  0  0
 18 20  1  0  0  0
M  END
> <minimizedAffinity>
-10.19631

$$$$
1X1Z_BMP_A_301


 28 29  0  0  0  0  0  0  0  0999 V2000
   23.8895  -16.9240    9.9538 C   0  0  0  0  0  0  0  0  0  0  0  0
   23.9611  -17.6604   11.2073 O   0  0  0  0  0  0  0  0  0  0  0  0
   23.5521  -15.5364   10.3589 C   0  0  0  0  0  0  0  0  0  0  0  0
   22.1335  -15.3307   10.4661 O   0  0  0  0  0  0  0  0  0  0  0  0
   24.1732  -15.3891   11.7540 C   0  0  0  0  0  0  0  0  0  0  0  0
   23.5589  -14.3711   12.4856 O   0  0  0  0  0  0  0  0  0  0  0  0
   23.9825  -16.7719   12.3318 C   0  0  0  0  0  0  0  0  0  0  0  0
   21.7645  -15.9527   11.1126 H   0  0  0  0  0  0  0  0  0  0  0  0
   22.6066  -14.5454   12.5456 H   0  0  0  0  0  0  0  0  0  0  0  0
   25.0202  -17.2762   13.2641 N   0  0  0  0  0  0  0  0  0  0  0  0
   24.7140  -17.6169   14.5720 C   0  0  0  0  0  0  0  0  0  0  0  0
   23.6029  -17.4793   15.0276 O   0  0  0  0  0  0  0  0  0  0  0  0
   25.7237  -18.0899   15.3192 N   0  0  0  0  0  0  0  0  0  0  0  0
   27.0684  -18.2708   14.9017 C   0  0  0  0  0  0  0  0  0  0  0  0
   27.8504  -18.7066   15.7367 O   0  0  0  0  0  0  0  0  0  0  0  0
   27.3582  -17.8964   13.5559 C   0  0  0  0  0  0  0  0  0  0  0  0
   26.3588  -17.3886   12.7557 C   0  0  0  0  0  0  0  0  0  0  0  0
   26.5430  -16.9861   11.5750 O   0  0  0  0  0  0  0  0  0  0  0  0
   25.5108  -18.3358   16.2484 H   0  0  0  0  0  0  0  0  0  0  0  0
   25.8240  -16.6498   11.0771 H   0  0  0  0  0  0  0  0  0  0  0  0
   25.2073  -17.0918    9.2431 C   0  0  0  0  0  0  0  0  0  0  0  0
   24.7932  -17.2350    7.8677 O   0  0  0  0  0  0  0  0  0  0  0  0
   25.0649  -16.0750    6.7899 P   0  0  0  0  0  0  0  0  0  0  0  0
   24.4893  -14.7687    7.2857 O   0  0  0  0  0  0  0  0  0  0  0  0
   24.3421  -16.5444    5.5560 O   0  0  0  0  0  0  0  0  0  0  0  0
   26.5552  -15.9488    6.5838 O   0  0  0  0  0  0  0  0  0  0  0  0
   24.4567  -15.8928    4.8466 H   0  0  0  0  0  0  0  0  0  0  0  0
   26.7338  -15.2509    5.9343 H   0  0  0  0  0  0  0  0  0  0  0  0
 23 24  2  0  0  0
 23 25  1  0  0  0
 23 26  1  0  0  0
 23 22  1  0  0  0
 22 21  1  0  0  0
 21  1  1  0  0  0
  1  2  1  0  0  0
  1  3  1  0  0  0
  2  7  1  0  0  0
  3  4  1  0  0  0
  3  5  1  0  0  0
  5  6  1  0  0  0
  5  7  1  0  0  0
  7 10  1  0  0  0
 10 11  1  0  0  0
 10 17  1  0  0  0
 11 12  2  0  0  0
 11 13  1  0  0  0
 13 14  1  0  0  0
 14 15  2  0  0  0
 14 16  1  0  0  0
 16 17  2  0  0  0
 17 18  1  0  0  0
 25 27  1  0  0  0
 26 28  1  0  0  0
  4  8  1  0  0  0
  6  9  1  0  0  0
 13 19  1  0  0  0
 18 20  1  0  0  0
M  END
> <minimizedAffinity>
-9.24753

$$$$
1X1Z_BMP_A_301


 28 29  0  0  0  0  0  0  0  0999 V2000
   25.3474  -15.9380    8.7333 C   0  0  0  0  0  0  0  0  0  0  0  0
   25.9222  -16.0579   10.0652 O   0  0  0  0  0  0  0  0  0  0  0  0
   25.4130  -17.3127    8.1772 C   0  0  0  0  0  0  0  0  0  0  0  0
   26.6660  -17.5760    7.5237 O   0  0  0  0  0  0  0  0  0  0  0  0
   25.3036  -18.2229    9.4072 C   0  0  0  0  0  0  0  0  0  0  0  0
   25.8321  -19.4907    9.1577 O   0  0  0  0  0  0  0  0  0  0  0  0
   26.0535  -17.4315   10.4530 C   0  0  0  0  0  0  0  0  0  0  0  0
   27.3922  -17.4497    8.1542 H   0  0  0  0  0  0  0  0  0  0  0  0
   26.7543  -19.4054    8.8691 H   0  0  0  0  0  0  0  0  0  0  0  0
   25.5867  -17.5329   11.8573 N   0  0  0  0  0  0  0  0  0  0  0  0
   24.2438  -17.6845   12.1643 C   0  0  0  0  0  0  0  0  0  0  0  0
   23.3880  -17.6974   11.3108 O   0  0  0  0  0  0  0  0  0  0  0  0
   23.9364  -17.7955   13.4662 N   0  0  0  0  0  0  0  0  0  0  0  0
   24.8493  -17.7693   14.5530 C   0  0  0  0  0  0  0  0  0  0  0  0
   24.3724  -17.8752   15.6754 O   0  0  0  0  0  0  0  0  0  0  0  0
   26.2228  -17.5956   14.2084 C   0  0  0  0  0  0  0  0  0  0  0  0
   26.5855  -17.4588   12.8867 C   0  0  0  0  0  0  0  0  0  0  0  0
   27.7682  -17.2496   12.5027 O   0  0  0  0  0  0  0  0  0  0  0  0
   22.9840  -17.9059   13.6893 H   0  0  0  0  0  0  0  0  0  0  0  0
   27.9560  -17.1648   11.5886 H   0  0  0  0  0  0  0  0  0  0  0  0
   23.9636  -15.3599    8.8771 C   0  0  0  0  0  0  0  0  0  0  0  0
   24.0898  -14.5676   10.0771 O   0  0  0  0  0  0  0  0  0  0  0  0
   22.8460  -14.3566   11.0717 P   0  0  0  0  0  0  0  0  0  0  0  0
   22.4465  -12.8993   11.0919 O   0  0  0  0  0  0  0  0  0  0  0  0
   23.3734  -14.7856   12.4145 O   0  0  0  0  0  0  0  0  0  0  0  0
   21.6967  -15.2107   10.5933 O   0  0  0  0  0  0  0  0  0  0  0  0
   22.6762  -14.6885   13.0818 H   0  0  0  0  0  0  0  0  0  0  0  0
   20.9377  -15.0928   11.1858 H   0  0  0  0  0  0  0  0  0  0  0  0
 23 24  2  0  0  0
 23 25  1  0  0  0
 23 26  1  0  0  0
 23 22  1  0  0  0
 22 21  1  0  0  0
 21  1  1  0  0  0
  1  2  1  0  0  0
  1  3  1  0  0  0
  2  7  1  0  0  0
  3  4  1  0  0  0
  3  5  1  0  0  0
  5  6  1  0  0  0
  5  7  1  0  0  0
  7 10  1  0  0  0
 10 11  1  0  0  0
 10 17  1  0  0  0
 11 12  2  0  0  0
 11 13  1  0  0  0
 13 14  1  0  0  0
 14 15  2  0  0  0
 14 16  1  0  0  0
 16 17  2  0  0  0
 17 18  1  0  0  0
 25 27  1  0  0  0
 26 28  1  0  0  0
  4  8  1  0  0  0
  6  9  1  0  0  0
 13 19  1  0  0  0
 18 20  1  0  0  0
M  END
> <minimizedAffinity>
-9.21016

$$$$
1X1Z_BMP_A_301


 28 29  0  0  0  0  0  0  0  0999 V2000
   24.8641  -18.4024   11.8939 C   0  0  0  0  0  0  0  0  0  0  0  0
   25.6017  -19.3397   12.7282 O   0  0  0  0  0  0  0  0  0  0  0  0
   24.2310  -17.4680   12.8581 C   0  0  0  0  0  0  0  0  0  0  0  0
   22.9527  -17.9411   13.3146 O   0  0  0  0  0  0  0  0  0  0  0  0
   25.1965  -17.4446   14.0501 C   0  0  0  0  0  0  0  0  0  0  0  0
   24.5572  -17.0362   15.2219 O   0  0  0  0  0  0  0  0  0  0  0  0
   25.6967  -18.8698   14.0790 C   0  0  0  0  0  0  0  0  0  0  0  0
   23.0598  -18.8099   13.7325 H   0  0  0  0  0  0  0  0  0  0  0  0
   23.8017  -17.6187   15.3978 H   0  0  0  0  0  0  0  0  0  0  0  0
   27.0939  -19.0989   14.5212 N   0  0  0  0  0  0  0  0  0  0  0  0
   27.4389  -20.2006   15.2879 C   0  0  0  0  0  0  0  0  0  0  0  0
   26.6164  -21.0003   15.6686 O   0  0  0  0  0  0  0  0  0  0  0  0
   28.7368  -20.3247   15.6071 N   0  0  0  0  0  0  0  0  0  0  0  0
   29.7836  -19.4392   15.2396 C   0  0  0  0  0  0  0  0  0  0  0  0
   30.9068  -19.7187   15.6384 O   0  0  0  0  0  0  0  0  0  0  0  0
   29.3969  -18.3055   14.4646 C   0  0  0  0  0  0  0  0  0  0  0  0
   28.0736  -18.1251   14.1277 C   0  0  0  0  0  0  0  0  0  0  0  0
   27.6425  -17.1252   13.4919 O   0  0  0  0  0  0  0  0  0  0  0  0
   28.9874  -21.1071   16.1496 H   0  0  0  0  0  0  0  0  0  0  0  0
   26.7301  -17.0559   13.2904 H   0  0  0  0  0  0  0  0  0  0  0  0
   25.8372  -17.7789   10.9274 C   0  0  0  0  0  0  0  0  0  0  0  0
   25.1638  -16.5537   10.5680 O   0  0  0  0  0  0  0  0  0  0  0  0
   24.8832  -16.1759    9.0320 P   0  0  0  0  0  0  0  0  0  0  0  0
   24.8100  -17.4347    8.1990 O   0  0  0  0  0  0  0  0  0  0  0  0
   26.0716  -15.3411    8.6368 O   0  0  0  0  0  0  0  0  0  0  0  0
   23.5810  -15.4162    8.9531 O   0  0  0  0  0  0  0  0  0  0  0  0
   25.9809  -15.0674    7.7106 H   0  0  0  0  0  0  0  0  0  0  0  0
   23.3990  -15.1814    8.0297 H   0  0  0  0  0  0  0  0  0  0  0  0
 23 24  2  0  0  0
 23 25  1  0  0  0
 23 26  1  0  0  0
 23 22  1  0  0  0
 22 21  1  0  0  0
 21  1  1  0  0  0
  1  2  1  0  0  0
  1  3  1  0  0  0
  2  7  1  0  0  0
  3  4  1  0  0  0
  3  5  1  0  0  0
  5  6  1  0  0  0
  5  7  1  0  0  0
  7 10  1  0  0  0
 10 11  1  0  0  0
 10 17  1  0  0  0
 11 12  2  0  0  0
 11 13  1  0  0  0
 13 14  1  0  0  0
 14 15  2  0  0  0
 14 16  1  0  0  0
 16 17  2  0  0  0
 17 18  1  0  0  0
 25 27  1  0  0  0
 26 28  1  0  0  0
  4  8  1  0  0  0
  6  9  1  0  0  0
 13 19  1  0  0  0
 18 20  1  0  0  0
M  END
> <minimizedAffinity>
-9.08731

$$$$
1X1Z_BMP_A_301


 28 29  0  0  0  0  0  0  0  0999 V2000
   24.9713  -18.3555   14.4139 C   0  0  0  0  0  0  0  0  0  0  0  0
   24.7632  -18.5009   12.9807 O   0  0  0  0  0  0  0  0  0  0  0  0
   26.4219  -18.0712   14.5499 C   0  0  0  0  0  0  0  0  0  0  0  0
   27.2055  -19.2728   14.6408 O   0  0  0  0  0  0  0  0  0  0  0  0
   26.7882  -17.3472   13.2479 C   0  0  0  0  0  0  0  0  0  0  0  0
   28.1535  -17.4422   12.9732 O   0  0  0  0  0  0  0  0  0  0  0  0
   25.9016  -18.0415   12.2408 C   0  0  0  0  0  0  0  0  0  0  0  0
   27.0574  -19.8160   13.8509 H   0  0  0  0  0  0  0  0  0  0  0  0
   28.4116  -18.3765   12.9360 H   0  0  0  0  0  0  0  0  0  0  0  0
   25.3864  -17.2350   11.1075 N   0  0  0  0  0  0  0  0  0  0  0  0
   24.7352  -16.0293   11.3144 C   0  0  0  0  0  0  0  0  0  0  0  0
   24.5175  -15.5996   12.4230 O   0  0  0  0  0  0  0  0  0  0  0  0
   24.3366  -15.3683   10.2163 N   0  0  0  0  0  0  0  0  0  0  0  0
   24.5140  -15.7849    8.8709 C   0  0  0  0  0  0  0  0  0  0  0  0
   24.0686  -15.0460    8.0023 O   0  0  0  0  0  0  0  0  0  0  0  0
   25.1725  -17.0373    8.6885 C   0  0  0  0  0  0  0  0  0  0  0  0
   25.5838  -17.7612    9.7858 C   0  0  0  0  0  0  0  0  0  0  0  0
   26.1243  -18.8981    9.7127 O   0  0  0  0  0  0  0  0  0  0  0  0
   23.8757  -14.5100   10.3579 H   0  0  0  0  0  0  0  0  0  0  0  0
   26.3841  -19.3445   10.4945 H   0  0  0  0  0  0  0  0  0  0  0  0
   24.0473  -17.2729   14.9079 C   0  0  0  0  0  0  0  0  0  0  0  0
   23.6301  -17.7921   16.1885 O   0  0  0  0  0  0  0  0  0  0  0  0
   22.1033  -17.6818   16.6758 P   0  0  0  0  0  0  0  0  0  0  0  0
   21.5027  -16.3824   16.1917 O   0  0  0  0  0  0  0  0  0  0  0  0
   22.1955  -17.7019   18.1780 O   0  0  0  0  0  0  0  0  0  0  0  0
   21.3345  -18.8563   16.1201 O   0  0  0  0  0  0  0  0  0  0  0  0
   21.3051  -17.6384   18.5575 H   0  0  0  0  0  0  0  0  0  0  0  0
   20.4095  -18.8021   16.4071 H   0  0  0  0  0  0  0  0  0  0  0  0
 23 24  2  0  0  0
 23 25  1  0  0  0
 23 26  1  0  0  0
 23 22  1  0  0  0
 22 21  1  0  0  0
 21  1  1  0  0  0
  1  2  1  0  0  0
  1  3  1  0  0  0
  2  7  1  0  0  0
  3  4  1  0  0  0
  3  5  1  0  0  0
  5  6  1  0  0  0
  5  7  1  0  0  0
  7 10  1  0  0  0
 10 11  1  0  0  0
 10 17  1  0  0  0
 11 12  2  0  0  0
 11 13  1  0  0  0
 13 14  1  0  0  0
 14 15  2  0  0  0
 14 16  1  0  0  0
 16 17  2  0  0  0
 17 18  1  0  0  0
 25 27  1  0  0  0
 26 28  1  0  0  0
  4  8  1  0  0  0
  6  9  1  0  0  0
 13 19  1  0  0  0
 18 20  1  0  0  0
M  END
> <minimizedAffinity>
-8.76493

$$$$
1X1Z_BMP_A_301


 28 29  0  0  0  0  0  0  0  0999 V2000
   25.0147  -18.4014   14.3183 C   0  0  0  0  0  0  0  0  0  0  0  0
   24.8258  -18.5651   12.8844 O   0  0  0  0  0  0  0  0  0  0  0  0
   26.4597  -18.0961   14.4683 C   0  0  0  0  0  0  0  0  0  0  0  0
   27.2582  -19.2859   14.5816 O   0  0  0  0  0  0  0  0  0  0  0  0
   26.8318  -17.3813   13.1629 C   0  0  0  0  0  0  0  0  0  0  0  0
   28.2015  -17.4608   12.9053 O   0  0  0  0  0  0  0  0  0  0  0  0
   25.9667  -18.0984   12.1530 C   0  0  0  0  0  0  0  0  0  0  0  0
   27.1268  -19.8395   13.7960 H   0  0  0  0  0  0  0  0  0  0  0  0
   28.4725  -18.3919   12.8814 H   0  0  0  0  0  0  0  0  0  0  0  0
   25.4543  -17.3112   11.0050 N   0  0  0  0  0  0  0  0  0  0  0  0
   25.6285  -17.7395    9.6985 C   0  0  0  0  0  0  0  0  0  0  0  0
   26.2407  -18.7465    9.4296 O   0  0  0  0  0  0  0  0  0  0  0  0
   25.0989  -16.9645    8.7391 N   0  0  0  0  0  0  0  0  0  0  0  0
   24.3843  -15.7533    8.9326 C   0  0  0  0  0  0  0  0  0  0  0  0
   23.9868  -15.1816    7.9258 O   0  0  0  0  0  0  0  0  0  0  0  0
   24.2346  -15.3283   10.2863 C   0  0  0  0  0  0  0  0  0  0  0  0
   24.7767  -16.0808   11.3046 C   0  0  0  0  0  0  0  0  0  0  0  0
   24.7344  -15.7487   12.5202 O   0  0  0  0  0  0  0  0  0  0  0  0
   25.2178  -17.2658    7.8094 H   0  0  0  0  0  0  0  0  0  0  0  0
   25.1210  -16.3014   13.1706 H   0  0  0  0  0  0  0  0  0  0  0  0
   24.0705  -17.3261   14.7894 C   0  0  0  0  0  0  0  0  0  0  0  0
   23.6868  -17.8106   16.0939 O   0  0  0  0  0  0  0  0  0  0  0  0
   22.1688  -17.7054   16.6092 P   0  0  0  0  0  0  0  0  0  0  0  0
   21.5910  -16.3608   16.2326 O   0  0  0  0  0  0  0  0  0  0  0  0
   22.2788  -17.8410   18.1041 O   0  0  0  0  0  0  0  0  0  0  0  0
   21.3676  -18.8181   15.9772 O   0  0  0  0  0  0  0  0  0  0  0  0
   21.3947  -17.7877   18.4996 H   0  0  0  0  0  0  0  0  0  0  0  0
   20.4476  -18.7664   16.2802 H   0  0  0  0  0  0  0  0  0  0  0  0
 23 24  2  0  0  0
 23 25  1  0  0  0
 23 26  1  0  0  0
 23 22  1  0  0  0
 22 21  1  0  0  0
 21  1  1  0  0  0
  1  2  1  0  0  0
  1  3  1  0  0  0
  2  7  1  0  0  0
  3  4  1  0  0  0
  3  5  1  0  0  0
  5  6  1  0  0  0
  5  7  1  0  0  0
  7 10  1  0  0  0
 10 11  1  0  0  0
 10 17  1  0  0  0
 11 12  2  0  0  0
 11 13  1  0  0  0
 13 14  1  0  0  0
 14 15  2  0  0  0
 14 16  1  0  0  0
 16 17  2  0  0  0
 17 18  1  0  0  0
 25 27  1  0  0  0
 26 28  1  0  0  0
  4  8  1  0  0  0
  6  9  1  0  0  0
 13 19  1  0  0  0
 18 20  1  0  0  0
M  END
> <minimizedAffinity>
-8.55188

$$$$
1X1Z_BMP_A_301


 28 29  0  0  0  0  0  0  0  0999 V2000
   26.5559  -16.9756   13.6842 C   0  0  0  0  0  0  0  0  0  0  0  0
   26.1128  -16.1844   12.5457 O   0  0  0  0  0  0  0  0  0  0  0  0
   25.3405  -17.7072   14.1215 C   0  0  0  0  0  0  0  0  0  0  0  0
   24.5565  -16.9489   15.0577 O   0  0  0  0  0  0  0  0  0  0  0  0
   24.5248  -17.8866   12.8346 C   0  0  0  0  0  0  0  0  0  0  0  0
   23.1717  -18.0947   13.1082 O   0  0  0  0  0  0  0  0  0  0  0  0
   24.8190  -16.6036   12.0932 C   0  0  0  0  0  0  0  0  0  0  0  0
   24.2962  -16.1063   14.6537 H   0  0  0  0  0  0  0  0  0  0  0  0
   22.8311  -17.3553   13.6356 H   0  0  0  0  0  0  0  0  0  0  0  0
   24.8752  -16.6633   10.6121 N   0  0  0  0  0  0  0  0  0  0  0  0
   25.3083  -17.8008    9.9496 C   0  0  0  0  0  0  0  0  0  0  0  0
   25.7007  -18.7784   10.5424 O   0  0  0  0  0  0  0  0  0  0  0  0
   25.2907  -17.7552    8.6082 N   0  0  0  0  0  0  0  0  0  0  0  0
   24.8766  -16.6587    7.8074 C   0  0  0  0  0  0  0  0  0  0  0  0
   24.9440  -16.8064    6.5941 O   0  0  0  0  0  0  0  0  0  0  0  0
   24.4515  -15.4957    8.5160 C   0  0  0  0  0  0  0  0  0  0  0  0
   24.4692  -15.4880    9.8933 C   0  0  0  0  0  0  0  0  0  0  0  0
   24.1603  -14.4851   10.5923 O   0  0  0  0  0  0  0  0  0  0  0  0
   25.5951  -18.5618    8.1328 H   0  0  0  0  0  0  0  0  0  0  0  0
   24.1909  -14.5384   11.5273 H   0  0  0  0  0  0  0  0  0  0  0  0
   27.7052  -17.8371   13.2295 C   0  0  0  0  0  0  0  0  0  0  0  0
   27.8386  -18.7669   14.3256 O   0  0  0  0  0  0  0  0  0  0  0  0
   29.0894  -18.6964   15.3313 P   0  0  0  0  0  0  0  0  0  0  0  0
   29.2808  -20.0346   16.0068 O   0  0  0  0  0  0  0  0  0  0  0  0
   28.6964  -17.6431   16.3320 O   0  0  0  0  0  0  0  0  0  0  0  0
   30.3215  -18.3243   14.5420 O   0  0  0  0  0  0  0  0  0  0  0  0
   29.4061  -17.5362   16.9845 H   0  0  0  0  0  0  0  0  0  0  0  0
   31.0855  -18.2781   15.1379 H   0  0  0  0  0  0  0  0  0  0  0  0
 23 24  2  0  0  0
 23 25  1  0  0  0
 23 26  1  0  0  0
 23 22  1  0  0  0
 22 21  1  0  0  0
 21  1  1  0  0  0
  1  2  1  0  0  0
  1  3  1  0  0  0
  2  7  1  0  0  0
  3  4  1  0  0  0
  3  5  1  0  0  0
  5  6  1  0  0  0
  5  7  1  0  0  0
  7 10  1  0  0  0
 10 11  1  0  0  0
 10 17  1  0  0  0
 11 12  2  0  0  0
 11 13  1  0  0  0
 13 14  1  0  0  0
 14 15  2  0  0  0
 14 16  1  0  0  0
 16 17  2  0  0  0
 17 18  1  0  0  0
 25 27  1  0  0  0
 26 28  1  0  0  0
  4  8  1  0  0  0
  6  9  1  0  0  0
 13 19  1  0  0  0
 18 20  1  0  0  0
M  END
> <minimizedAffinity>
-8.36609

$$$$
1X1Z_BMP_A_301


 28 29  0  0  0  0  0  0  0  0999 V2000
   26.5154  -16.9730   13.7091 C   0  0  0  0  0  0  0  0  0  0  0  0
   26.0578  -16.1450   12.6029 O   0  0  0  0  0  0  0  0  0  0  0  0
   25.3010  -17.7033   14.1513 C   0  0  0  0  0  0  0  0  0  0  0  0
   24.5456  -16.9633   15.1249 O   0  0  0  0  0  0  0  0  0  0  0  0
   24.4566  -17.8371   12.8776 C   0  0  0  0  0  0  0  0  0  0  0  0
   23.1072  -18.0380   13.1738 O   0  0  0  0  0  0  0  0  0  0  0  0
   24.7501  -16.5369   12.1664 C   0  0  0  0  0  0  0  0  0  0  0  0
   24.2867  -16.1068   14.7504 H   0  0  0  0  0  0  0  0  0  0  0  0
   22.7862  -17.3102   13.7289 H   0  0  0  0  0  0  0  0  0  0  0  0
   24.7745  -16.5551   10.6834 N   0  0  0  0  0  0  0  0  0  0  0  0
   24.3166  -15.4797    9.9388 C   0  0  0  0  0  0  0  0  0  0  0  0
   23.8373  -14.4984   10.4567 O   0  0  0  0  0  0  0  0  0  0  0  0
   24.4125  -15.5915    8.6046 N   0  0  0  0  0  0  0  0  0  0  0  0
   24.9320  -16.7006    7.8869 C   0  0  0  0  0  0  0  0  0  0  0  0
   24.9251  -16.6183    6.6655 O   0  0  0  0  0  0  0  0  0  0  0  0
   25.3807  -17.7996    8.6784 C   0  0  0  0  0  0  0  0  0  0  0  0
   25.2856  -17.7392   10.0511 C   0  0  0  0  0  0  0  0  0  0  0  0
   25.6101  -18.6858   10.8183 O   0  0  0  0  0  0  0  0  0  0  0  0
   24.0909  -14.8291    8.0713 H   0  0  0  0  0  0  0  0  0  0  0  0
   25.5237  -18.5875   11.7461 H   0  0  0  0  0  0  0  0  0  0  0  0
   27.6449  -17.8337   13.2060 C   0  0  0  0  0  0  0  0  0  0  0  0
   27.8122  -18.7756   14.2870 O   0  0  0  0  0  0  0  0  0  0  0  0
   29.0484  -18.6633   15.3070 P   0  0  0  0  0  0  0  0  0  0  0  0
   30.2968  -18.2585   14.5578 O   0  0  0  0  0  0  0  0  0  0  0  0
   29.1879  -20.0528   15.8683 O   0  0  0  0  0  0  0  0  0  0  0  0
   28.7110  -17.6365   16.3612 O   0  0  0  0  0  0  0  0  0  0  0  0
   29.9221  -20.0734   16.5019 H   0  0  0  0  0  0  0  0  0  0  0  0
   29.4500  -17.5585   16.9847 H   0  0  0  0  0  0  0  0  0  0  0  0
 23 24  2  0  0  0
 23 25  1  0  0  0
 23 26  1  0  0  0
 23 22  1  0  0  0
 22 21  1  0  0  0
 21  1  1  0  0  0
  1  2  1  0  0  0
  1  3  1  0  0  0
  2  7  1  0  0  0
  3  4  1  0  0  0
  3  5  1  0  0  0
  5  6  1  0  0  0
  5  7  1  0  0  0
  7 10  1  0  0  0
 10 11  1  0  0  0
 10 17  1  0  0  0
 11 12  2  0  0  0
 11 13  1  0  0  0
 13 14  1  0  0  0
 14 15  2  0  0  0
 14 16  1  0  0  0
 16 17  2  0  0  0
 17 18  1  0  0  0
 25 27  1  0  0  0
 26 28  1  0  0  0
  4  8  1  0  0  0
  6  9  1  0  0  0
 13 19  1  0  0  0
 18 20  1  0  0  0
M  END
> <minimizedAffinity>
-8.21995

$$$$
1X1Z_BMP_A_301


 28 29  0  0  0  0  0  0  0  0999 V2000
   24.5073  -15.5096   10.6749 C   0  0  0  0  0  0  0  0  0  0  0  0
   25.5232  -15.8513   11.6596 O   0  0  0  0  0  0  0  0  0  0  0  0
   24.8589  -16.3224    9.4836 C   0  0  0  0  0  0  0  0  0  0  0  0
   25.7985  -15.6528    8.6262 O   0  0  0  0  0  0  0  0  0  0  0  0
   25.5333  -17.5717   10.0649 C   0  0  0  0  0  0  0  0  0  0  0  0
   26.3552  -18.1968    9.1255 O   0  0  0  0  0  0  0  0  0  0  0  0
   26.2697  -17.0068   11.2570 C   0  0  0  0  0  0  0  0  0  0  0  0
   26.6048  -15.4501    9.1260 H   0  0  0  0  0  0  0  0  0  0  0  0
   27.0153  -17.5642    8.8015 H   0  0  0  0  0  0  0  0  0  0  0  0
   26.4077  -17.8731   12.4531 N   0  0  0  0  0  0  0  0  0  0  0  0
   25.4070  -18.7561   12.8265 C   0  0  0  0  0  0  0  0  0  0  0  0
   24.3610  -18.8319   12.2255 O   0  0  0  0  0  0  0  0  0  0  0  0
   25.6495  -19.5126   13.9084 N   0  0  0  0  0  0  0  0  0  0  0  0
   26.8247  -19.4930   14.7044 C   0  0  0  0  0  0  0  0  0  0  0  0
   26.8536  -20.2544   15.6626 O   0  0  0  0  0  0  0  0  0  0  0  0
   27.8308  -18.5630   14.3065 C   0  0  0  0  0  0  0  0  0  0  0  0
   27.6202  -17.7519   13.2134 C   0  0  0  0  0  0  0  0  0  0  0  0
   28.4345  -16.8695   12.8284 O   0  0  0  0  0  0  0  0  0  0  0  0
   24.9427  -20.1434   14.1763 H   0  0  0  0  0  0  0  0  0  0  0  0
   28.2376  -16.3464   12.0764 H   0  0  0  0  0  0  0  0  0  0  0  0
   23.1590  -15.7961   11.2829 C   0  0  0  0  0  0  0  0  0  0  0  0
   23.1568  -14.9289   12.4368 O   0  0  0  0  0  0  0  0  0  0  0  0
   22.5684  -13.4362   12.3570 P   0  0  0  0  0  0  0  0  0  0  0  0
   22.1515  -13.1240   10.9384 O   0  0  0  0  0  0  0  0  0  0  0  0
   23.7204  -12.5648   12.7803 O   0  0  0  0  0  0  0  0  0  0  0  0
   21.3842  -13.3350   13.2879 O   0  0  0  0  0  0  0  0  0  0  0  0
   23.4467  -11.6345   12.7597 H   0  0  0  0  0  0  0  0  0  0  0  0
   21.0185  -12.4374   13.2496 H   0  0  0  0  0  0  0  0  0  0  0  0
 23 24  2  0  0  0
 23 25  1  0  0  0
 23 26  1  0  0  0
 23 22  1  0  0  0
 22 21  1  0  0  0
 21  1  1  0  0  0
  1  2  1  0  0  0
  1  3  1  0  0  0
  2  7  1  0  0  0
  3  4  1  0  0  0
  3  5  1  0  0  0
  5  6  1  0  0  0
  5  7  1  0  0  0
  7 10  1  0  0  0
 10 11  1  0  0  0
 10 17  1  0  0  0
 11 12  2  0  0  0
 11 13  1  0  0  0
 13 14  1  0  0  0
 14 15  2  0  0  0
 14 16  1  0  0  0
 16 17  2  0  0  0
 17 18  1  0  0  0
 25 27  1  0  0  0
 26 28  1  0  0  0
  4  8  1  0  0  0
  6  9  1  0  0  0
 13 19  1  0  0  0
 18 20  1  0  0  0
M  END
> <minimizedAffinity>
-8.03808

$$$$
1X1Z_BMP_A_301


 28 29  0  0  0  0  0  0  0  0999 V2000
   25.1379  -18.4203    9.6897 C   0  0  0  0  0  0  0  0  0  0  0  0
   23.9655  -17.5845    9.9025 O   0  0  0  0  0  0  0  0  0  0  0  0
   25.9080  -17.7152    8.6345 C   0  0  0  0  0  0  0  0  0  0  0  0
   25.4957  -18.0988    7.3120 O   0  0  0  0  0  0  0  0  0  0  0  0
   25.5644  -16.2346    8.8424 C   0  0  0  0  0  0  0  0  0  0  0  0
   25.7803  -15.4887    7.6823 O   0  0  0  0  0  0  0  0  0  0  0  0
   24.1192  -16.3042    9.2769 C   0  0  0  0  0  0  0  0  0  0  0  0
   24.5508  -17.9100    7.2004 H   0  0  0  0  0  0  0  0  0  0  0  0
   25.2631  -15.8667    6.9540 H   0  0  0  0  0  0  0  0  0  0  0  0
   23.6433  -15.2872   10.2463 N   0  0  0  0  0  0  0  0  0  0  0  0
   22.2970  -14.9858   10.3766 C   0  0  0  0  0  0  0  0  0  0  0  0
   21.4537  -15.5014    9.6807 O   0  0  0  0  0  0  0  0  0  0  0  0
   21.9756  -14.0712   11.3049 N   0  0  0  0  0  0  0  0  0  0  0  0
   22.8776  -13.3843   12.1591 C   0  0  0  0  0  0  0  0  0  0  0  0
   22.3907  -12.5742   12.9371 O   0  0  0  0  0  0  0  0  0  0  0  0
   24.2583  -13.7023   11.9916 C   0  0  0  0  0  0  0  0  0  0  0  0
   24.6390  -14.6214   11.0389 C   0  0  0  0  0  0  0  0  0  0  0  0
   25.8392  -14.9187   10.7923 O   0  0  0  0  0  0  0  0  0  0  0  0
   21.0201  -13.8554   11.4031 H   0  0  0  0  0  0  0  0  0  0  0  0
   26.0387  -15.5525   10.1317 H   0  0  0  0  0  0  0  0  0  0  0  0
   25.8408  -18.5767   11.0131 C   0  0  0  0  0  0  0  0  0  0  0  0
   24.7475  -18.4758   11.9502 O   0  0  0  0  0  0  0  0  0  0  0  0
   24.9108  -17.6871   13.3403 P   0  0  0  0  0  0  0  0  0  0  0  0
   26.1534  -16.8280   13.3000 O   0  0  0  0  0  0  0  0  0  0  0  0
   25.0479  -18.7788   14.3673 O   0  0  0  0  0  0  0  0  0  0  0  0
   23.6859  -16.8311   13.5549 O   0  0  0  0  0  0  0  0  0  0  0  0
   25.1523  -18.3838   15.2471 H   0  0  0  0  0  0  0  0  0  0  0  0
   23.7713  -16.3485   14.3920 H   0  0  0  0  0  0  0  0  0  0  0  0
 23 24  2  0  0  0
 23 25  1  0  0  0
 23 26  1  0  0  0
 23 22  1  0  0  0
 22 21  1  0  0  0
 21  1  1  0  0  0
  1  2  1  0  0  0
  1  3  1  0  0  0
  2  7  1  0  0  0
  3  4  1  0  0  0
  3  5  1  0  0  0
  5  6  1  0  0  0
  5  7  1  0  0  0
  7 10  1  0  0  0
 10 11  1  0  0  0
 10 17  1  0  0  0
 11 12  2  0  0  0
 11 13  1  0  0  0
 13 14  1  0  0  0
 14 15  2  0  0  0
 14 16  1  0  0  0
 16 17  2  0  0  0
 17 18  1  0  0  0
 25 27  1  0  0  0
 26 28  1  0  0  0
  4  8  1  0  0  0
  6  9  1  0  0  0
 13 19  1  0  0  0
 18 20  1  0  0  0
M  END
> <minimizedAffinity>
-7.77427

$$$$
