4I8N_1CG_A_401


 37 40  0  0  0  0  0  0  0  0999 V2000
  -12.1115   40.9292   34.7224 C   0  0  0  0  0  0  0  0  0  0  0  0
  -12.3298   39.8082   35.6442 C   0  0  0  0  0  0  0  0  0  0  0  0
  -12.3344   37.8976   36.7501 C   0  0  0  0  0  0  0  0  0  0  0  0
  -13.2847   39.9445   36.5818 O   0  0  0  0  0  0  0  0  0  0  0  0
  -13.2615   38.7268   37.2641 C   0  0  0  0  0  0  0  0  0  0  0  0
  -14.0578   38.3681   38.3145 C   0  0  0  0  0  0  0  0  0  0  0  0
  -13.8927   37.1048   38.8366 C   0  0  0  0  0  0  0  0  0  0  0  0
  -12.9562   36.2534   38.3178 C   0  0  0  0  0  0  0  0  0  0  0  0
  -12.1644   36.6469   37.2702 C   0  0  0  0  0  0  0  0  0  0  0  0
  -11.7555   38.5951   35.7561 N   0  0  0  0  0  0  0  0  0  0  0  0
  -13.3051   40.7217   33.6060 S   0  0  0  0  0  0  0  0  0  0  0  0
  -13.9345   39.4094   33.6709 O   0  0  0  0  0  0  0  0  0  0  0  0
  -12.6553   40.7367   32.3192 O   0  0  0  0  0  0  0  0  0  0  0  0
  -14.3442   41.9192   33.7929 N   0  0  0  0  0  0  0  0  0  0  0  0
  -14.8509   41.9310   34.6369 H   0  0  0  0  0  0  0  0  0  0  0  0
  -13.6227   43.6743   32.2878 C   0  0  0  0  0  0  0  0  0  0  0  0
  -14.6063   42.9211   32.9191 C   0  0  0  0  0  0  0  0  0  0  0  0
  -15.9292   43.2077   32.6148 C   0  0  0  0  0  0  0  0  0  0  0  0
  -13.9699   44.6910   31.3884 C   0  0  0  0  0  0  0  0  0  0  0  0
  -15.2968   44.9767   31.0957 C   0  0  0  0  0  0  0  0  0  0  0  0
  -15.6356   45.9526   30.2252 F   0  0  0  0  0  0  0  0  0  0  0  0
  -16.2725   44.2201   31.7202 C   0  0  0  0  0  0  0  0  0  0  0  0
  -12.2689   42.2376   35.5144 C   0  0  0  0  0  0  0  0  0  0  0  0
  -11.0845   42.8334   36.2647 C   0  0  0  0  0  0  0  0  0  0  0  0
   -9.4424   42.5285   38.0254 C   0  0  0  0  0  0  0  0  0  0  0  0
  -10.4916   44.0529   35.9954 C   0  0  0  0  0  0  0  0  0  0  0  0
   -8.8637   43.7445   37.7621 C   0  0  0  0  0  0  0  0  0  0  0  0
  -10.5192   42.0898   37.2788 C   0  0  0  0  0  0  0  0  0  0  0  0
   -9.4042   44.5046   36.7416 C   0  0  0  0  0  0  0  0  0  0  0  0
   -6.6988   43.4277   38.8248 C   0  0  0  0  0  0  0  0  0  0  0  0
   -6.4458   42.3283   38.4452 O   0  0  0  0  0  0  0  0  0  0  0  0
   -7.8082   44.1016   38.5209 N   0  0  0  0  0  0  0  0  0  0  0  0
   -7.8658   45.0030   38.9127 H   0  0  0  0  0  0  0  0  0  0  0  0
   -6.0516   44.7614   40.5628 O   0  0  0  0  0  0  0  0  0  0  0  0
   -5.6995   44.0623   39.6502 C   0  0  0  0  0  0  0  0  0  0  0  0
   -4.4265   43.8720   39.4593 O   0  0  0  0  0  0  0  0  0  0  0  0
   -6.9644   44.9092   40.7146 H   0  0  0  0  0  0  0  0  0  0  0  0
 22 18  2  0  0  0
 22 20  1  0  0  0
 21 20  1  0  0  0
 18 17  1  0  0  0
 20 19  2  0  0  0
 17 14  1  0  0  0
 17 16  2  0  0  0
 12 11  2  0  0  0
 19 16  1  0  0  0
 14 11  1  0  0  0
 11 13  2  0  0  0
 11  1  1  0  0  0
  1 23  1  0  0  0
  1  2  1  0  0  0
 23 24  1  0  0  0
 28 24  2  0  0  0
 28 25  1  0  0  0
  2  4  1  0  0  0
  2 10  2  0  0  0
 24 26  1  0  0  0
  4  5  1  0  0  0
 10  3  1  0  0  0
 25 27  2  0  0  0
 26 29  2  0  0  0
  5  3  2  0  0  0
  5  6  1  0  0  0
  3  9  1  0  0  0
 27 29  1  0  0  0
 27 32  1  0  0  0
  6  7  2  0  0  0
  9  8  2  0  0  0
 32 30  1  0  0  0
  7  8  1  0  0  0
 30 35  1  0  0  0
 30 31  2  0  0  0
 36 35  2  0  0  0
 35 34  1  0  0  0
 34 37  1  0  0  0
 32 33  1  0  0  0
 14 15  1  0  0  0
M  END
> <minimizedAffinity>
-10.10467

$$$$
4I8N_1CG_A_401


 37 40  0  0  0  0  0  0  0  0999 V2000
  -11.8179   42.1495   33.8076 C   0  0  0  0  0  0  0  0  0  0  0  0
  -12.5174   40.8696   33.9703 C   0  0  0  0  0  0  0  0  0  0  0  0
  -13.5046   38.9088   33.7371 C   0  0  0  0  0  0  0  0  0  0  0  0
  -13.0123   40.5759   35.1862 O   0  0  0  0  0  0  0  0  0  0  0  0
  -13.6252   39.3343   35.0083 C   0  0  0  0  0  0  0  0  0  0  0  0
  -14.2820   38.6078   35.9606 C   0  0  0  0  0  0  0  0  0  0  0  0
  -14.8403   37.4098   35.5752 C   0  0  0  0  0  0  0  0  0  0  0  0
  -14.7269   36.9713   34.2845 C   0  0  0  0  0  0  0  0  0  0  0  0
  -14.0518   37.7182   33.3541 C   0  0  0  0  0  0  0  0  0  0  0  0
  -12.7985   39.8692   33.1135 N   0  0  0  0  0  0  0  0  0  0  0  0
  -12.5686   42.8122   32.4994 S   0  0  0  0  0  0  0  0  0  0  0  0
  -12.1213   42.2513   31.2314 O   0  0  0  0  0  0  0  0  0  0  0  0
  -12.1390   44.1874   32.4466 O   0  0  0  0  0  0  0  0  0  0  0  0
  -14.1415   42.6594   32.7261 N   0  0  0  0  0  0  0  0  0  0  0  0
  -14.4222   42.2005   33.5507 H   0  0  0  0  0  0  0  0  0  0  0  0
  -15.6677   42.3332   30.8740 C   0  0  0  0  0  0  0  0  0  0  0  0
  -15.1331   43.0912   31.9099 C   0  0  0  0  0  0  0  0  0  0  0  0
  -15.6666   44.3540   32.1234 C   0  0  0  0  0  0  0  0  0  0  0  0
  -16.6993   42.8439   30.0750 C   0  0  0  0  0  0  0  0  0  0  0  0
  -17.2218   44.1120   30.2905 C   0  0  0  0  0  0  0  0  0  0  0  0
  -18.2200   44.6060   29.5259 F   0  0  0  0  0  0  0  0  0  0  0  0
  -16.6924   44.8604   31.3270 C   0  0  0  0  0  0  0  0  0  0  0  0
  -12.0283   42.9759   35.0869 C   0  0  0  0  0  0  0  0  0  0  0  0
  -10.8932   43.1531   36.0873 C   0  0  0  0  0  0  0  0  0  0  0  0
   -9.0740   44.5633   36.8564 C   0  0  0  0  0  0  0  0  0  0  0  0
  -10.5776   42.2785   37.1105 C   0  0  0  0  0  0  0  0  0  0  0  0
   -8.7571   43.6872   37.8639 C   0  0  0  0  0  0  0  0  0  0  0  0
  -10.1273   44.2964   36.0028 C   0  0  0  0  0  0  0  0  0  0  0  0
   -9.5180   42.5385   37.9780 C   0  0  0  0  0  0  0  0  0  0  0  0
   -6.5901   43.3704   38.9222 C   0  0  0  0  0  0  0  0  0  0  0  0
   -6.2827   42.3242   38.4451 O   0  0  0  0  0  0  0  0  0  0  0  0
   -7.7267   44.0189   38.6673 N   0  0  0  0  0  0  0  0  0  0  0  0
   -7.8298   44.8758   39.1408 H   0  0  0  0  0  0  0  0  0  0  0  0
   -5.9914   44.8307   40.5737 O   0  0  0  0  0  0  0  0  0  0  0  0
   -5.6293   43.9692   39.8171 C   0  0  0  0  0  0  0  0  0  0  0  0
   -4.3884   43.5797   39.8559 O   0  0  0  0  0  0  0  0  0  0  0  0
   -6.8814   45.1232   40.5592 H   0  0  0  0  0  0  0  0  0  0  0  0
 22 18  2  0  0  0
 22 20  1  0  0  0
 21 20  1  0  0  0
 18 17  1  0  0  0
 20 19  2  0  0  0
 17 14  1  0  0  0
 17 16  2  0  0  0
 12 11  2  0  0  0
 19 16  1  0  0  0
 14 11  1  0  0  0
 11 13  2  0  0  0
 11  1  1  0  0  0
  1 23  1  0  0  0
  1  2  1  0  0  0
 23 24  1  0  0  0
 28 24  2  0  0  0
 28 25  1  0  0  0
  2  4  1  0  0  0
  2 10  2  0  0  0
 24 26  1  0  0  0
  4  5  1  0  0  0
 10  3  1  0  0  0
 25 27  2  0  0  0
 26 29  2  0  0  0
  5  3  2  0  0  0
  5  6  1  0  0  0
  3  9  1  0  0  0
 27 29  1  0  0  0
 27 32  1  0  0  0
  6  7  2  0  0  0
  9  8  2  0  0  0
 32 30  1  0  0  0
  7  8  1  0  0  0
 30 35  1  0  0  0
 30 31  2  0  0  0
 36 35  2  0  0  0
 35 34  1  0  0  0
 34 37  1  0  0  0
 32 33  1  0  0  0
 14 15  1  0  0  0
M  END
> <minimizedAffinity>
-9.74278

$$$$
4I8N_1CG_A_401


 37 40  0  0  0  0  0  0  0  0999 V2000
  -12.0572   40.9058   34.6742 C   0  0  0  0  0  0  0  0  0  0  0  0
  -12.5715   39.8134   35.5086 C   0  0  0  0  0  0  0  0  0  0  0  0
  -13.7349   38.4537   36.8013 C   0  0  0  0  0  0  0  0  0  0  0  0
  -11.7399   38.7937   35.7886 O   0  0  0  0  0  0  0  0  0  0  0  0
  -12.5019   37.9525   36.6013 C   0  0  0  0  0  0  0  0  0  0  0  0
  -12.0970   36.7711   37.1548 C   0  0  0  0  0  0  0  0  0  0  0  0
  -12.9976   36.0983   37.9497 C   0  0  0  0  0  0  0  0  0  0  0  0
  -14.2514   36.6021   38.1624 C   0  0  0  0  0  0  0  0  0  0  0  0
  -14.6318   37.7853   37.5839 C   0  0  0  0  0  0  0  0  0  0  0  0
  -13.7628   39.6013   36.0998 N   0  0  0  0  0  0  0  0  0  0  0  0
  -13.0170   40.8272   33.3375 S   0  0  0  0  0  0  0  0  0  0  0  0
  -14.3167   41.4591   33.5220 O   0  0  0  0  0  0  0  0  0  0  0  0
  -13.3278   39.4319   33.1506 O   0  0  0  0  0  0  0  0  0  0  0  0
  -12.1905   41.4494   32.1216 N   0  0  0  0  0  0  0  0  0  0  0  0
  -12.2924   41.0037   31.2498 H   0  0  0  0  0  0  0  0  0  0  0  0
  -11.8081   43.8391   32.2189 C   0  0  0  0  0  0  0  0  0  0  0  0
  -11.3644   42.5229   32.1562 C   0  0  0  0  0  0  0  0  0  0  0  0
   -9.9939   42.3067   32.1484 C   0  0  0  0  0  0  0  0  0  0  0  0
  -10.8930   44.8994   32.2600 C   0  0  0  0  0  0  0  0  0  0  0  0
   -9.5230   44.6744   32.2435 C   0  0  0  0  0  0  0  0  0  0  0  0
   -8.6374   45.6935   32.2883 F   0  0  0  0  0  0  0  0  0  0  0  0
   -9.0852   43.3629   32.1886 C   0  0  0  0  0  0  0  0  0  0  0  0
  -12.2339   42.2227   35.4477 C   0  0  0  0  0  0  0  0  0  0  0  0
  -11.0618   42.8395   36.2004 C   0  0  0  0  0  0  0  0  0  0  0  0
   -9.4440   42.5807   37.9906 C   0  0  0  0  0  0  0  0  0  0  0  0
  -10.4685   44.0542   35.9111 C   0  0  0  0  0  0  0  0  0  0  0  0
   -8.8649   43.7921   37.7072 C   0  0  0  0  0  0  0  0  0  0  0  0
  -10.5089   42.1215   37.2394 C   0  0  0  0  0  0  0  0  0  0  0  0
   -9.3930   44.5265   36.6617 C   0  0  0  0  0  0  0  0  0  0  0  0
   -6.7368   43.4906   38.8460 C   0  0  0  0  0  0  0  0  0  0  0  0
   -6.5009   42.3648   38.5395 O   0  0  0  0  0  0  0  0  0  0  0  0
   -7.8212   44.1700   38.4721 N   0  0  0  0  0  0  0  0  0  0  0  0
   -7.8670   45.0944   38.8079 H   0  0  0  0  0  0  0  0  0  0  0  0
   -6.0972   44.7625   40.6323 O   0  0  0  0  0  0  0  0  0  0  0  0
   -5.7443   44.1506   39.6593 C   0  0  0  0  0  0  0  0  0  0  0  0
   -4.4731   44.0739   39.3922 O   0  0  0  0  0  0  0  0  0  0  0  0
   -7.0087   44.8279   40.8395 H   0  0  0  0  0  0  0  0  0  0  0  0
 22 18  2  0  0  0
 22 20  1  0  0  0
 21 20  1  0  0  0
 18 17  1  0  0  0
 20 19  2  0  0  0
 17 14  1  0  0  0
 17 16  2  0  0  0
 12 11  2  0  0  0
 19 16  1  0  0  0
 14 11  1  0  0  0
 11 13  2  0  0  0
 11  1  1  0  0  0
  1 23  1  0  0  0
  1  2  1  0  0  0
 23 24  1  0  0  0
 28 24  2  0  0  0
 28 25  1  0  0  0
  2  4  1  0  0  0
  2 10  2  0  0  0
 24 26  1  0  0  0
  4  5  1  0  0  0
 10  3  1  0  0  0
 25 27  2  0  0  0
 26 29  2  0  0  0
  5  3  2  0  0  0
  5  6  1  0  0  0
  3  9  1  0  0  0
 27 29  1  0  0  0
 27 32  1  0  0  0
  6  7  2  0  0  0
  9  8  2  0  0  0
 32 30  1  0  0  0
  7  8  1  0  0  0
 30 35  1  0  0  0
 30 31  2  0  0  0
 36 35  2  0  0  0
 35 34  1  0  0  0
 34 37  1  0  0  0
 32 33  1  0  0  0
 14 15  1  0  0  0
M  END
> <minimizedAffinity>
-9.72109

$$$$
4I8N_1CG_A_401


 37 40  0  0  0  0  0  0  0  0999 V2000
  -12.0568   40.6892   34.7907 C   0  0  0  0  0  0  0  0  0  0  0  0
  -12.5156   39.6962   35.7693 C   0  0  0  0  0  0  0  0  0  0  0  0
  -13.5406   38.5363   37.3433 C   0  0  0  0  0  0  0  0  0  0  0  0
  -11.7773   38.5827   35.9256 O   0  0  0  0  0  0  0  0  0  0  0  0
  -12.4496   37.8710   36.9207 C   0  0  0  0  0  0  0  0  0  0  0  0
  -12.0875   36.6607   37.4405 C   0  0  0  0  0  0  0  0  0  0  0  0
  -12.8770   36.1339   38.4378 C   0  0  0  0  0  0  0  0  0  0  0  0
  -13.9852   36.8049   38.8770 C   0  0  0  0  0  0  0  0  0  0  0  0
  -14.3286   38.0130   38.3275 C   0  0  0  0  0  0  0  0  0  0  0  0
  -13.5726   39.6592   36.6031 N   0  0  0  0  0  0  0  0  0  0  0  0
  -13.0803   40.4514   33.5219 S   0  0  0  0  0  0  0  0  0  0  0  0
  -12.5051   40.8284   32.2375 O   0  0  0  0  0  0  0  0  0  0  0  0
  -14.1675   41.3799   33.7064 O   0  0  0  0  0  0  0  0  0  0  0  0
  -13.5493   38.9261   33.5690 N   0  0  0  0  0  0  0  0  0  0  0  0
  -14.1030   38.6622   34.3391 H   0  0  0  0  0  0  0  0  0  0  0  0
  -14.1556   37.5377   31.6793 C   0  0  0  0  0  0  0  0  0  0  0  0
  -13.2701   37.9543   32.6669 C   0  0  0  0  0  0  0  0  0  0  0  0
  -12.0237   37.3464   32.7101 C   0  0  0  0  0  0  0  0  0  0  0  0
  -13.7935   36.5308   30.7747 C   0  0  0  0  0  0  0  0  0  0  0  0
  -12.5469   35.9218   30.8303 C   0  0  0  0  0  0  0  0  0  0  0  0
  -12.1919   34.9544   29.9569 F   0  0  0  0  0  0  0  0  0  0  0  0
  -11.6656   36.3443   31.8098 C   0  0  0  0  0  0  0  0  0  0  0  0
  -12.2114   42.0849   35.4166 C   0  0  0  0  0  0  0  0  0  0  0  0
  -11.0607   42.7163   36.1899 C   0  0  0  0  0  0  0  0  0  0  0  0
   -9.4681   42.4755   38.0052 C   0  0  0  0  0  0  0  0  0  0  0  0
  -10.4806   43.9405   35.9137 C   0  0  0  0  0  0  0  0  0  0  0  0
   -8.9023   43.6960   37.7346 C   0  0  0  0  0  0  0  0  0  0  0  0
  -10.5140   42.0031   37.2356 C   0  0  0  0  0  0  0  0  0  0  0  0
   -9.4243   44.4260   36.6829 C   0  0  0  0  0  0  0  0  0  0  0  0
   -6.7422   43.4588   38.8274 C   0  0  0  0  0  0  0  0  0  0  0  0
   -6.4328   42.3796   38.4320 O   0  0  0  0  0  0  0  0  0  0  0  0
   -7.8767   44.0867   38.5173 N   0  0  0  0  0  0  0  0  0  0  0  0
   -7.9820   44.9768   38.9245 H   0  0  0  0  0  0  0  0  0  0  0  0
   -6.0986   45.1509   40.2204 O   0  0  0  0  0  0  0  0  0  0  0  0
   -5.7866   44.1227   39.6808 C   0  0  0  0  0  0  0  0  0  0  0  0
   -4.6078   43.6234   39.9138 O   0  0  0  0  0  0  0  0  0  0  0  0
   -6.9435   45.5245   40.0639 H   0  0  0  0  0  0  0  0  0  0  0  0
 22 18  2  0  0  0
 22 20  1  0  0  0
 21 20  1  0  0  0
 18 17  1  0  0  0
 20 19  2  0  0  0
 17 14  1  0  0  0
 17 16  2  0  0  0
 12 11  2  0  0  0
 19 16  1  0  0  0
 14 11  1  0  0  0
 11 13  2  0  0  0
 11  1  1  0  0  0
  1 23  1  0  0  0
  1  2  1  0  0  0
 23 24  1  0  0  0
 28 24  2  0  0  0
 28 25  1  0  0  0
  2  4  1  0  0  0
  2 10  2  0  0  0
 24 26  1  0  0  0
  4  5  1  0  0  0
 10  3  1  0  0  0
 25 27  2  0  0  0
 26 29  2  0  0  0
  5  3  2  0  0  0
  5  6  1  0  0  0
  3  9  1  0  0  0
 27 29  1  0  0  0
 27 32  1  0  0  0
  6  7  2  0  0  0
  9  8  2  0  0  0
 32 30  1  0  0  0
  7  8  1  0  0  0
 30 35  1  0  0  0
 30 31  2  0  0  0
 36 35  2  0  0  0
 35 34  1  0  0  0
 34 37  1  0  0  0
 32 33  1  0  0  0
 14 15  1  0  0  0
M  END
> <minimizedAffinity>
-9.34959

$$$$
4I8N_1CG_A_401


 37 40  0  0  0  0  0  0  0  0999 V2000
  -12.8072   40.0245   34.6016 C   0  0  0  0  0  0  0  0  0  0  0  0
  -13.5678   40.8127   33.6247 C   0  0  0  0  0  0  0  0  0  0  0  0
  -14.5061   41.7005   31.8345 C   0  0  0  0  0  0  0  0  0  0  0  0
  -14.2455   41.8840   34.0749 O   0  0  0  0  0  0  0  0  0  0  0  0
  -14.8282   42.4201   32.9253 C   0  0  0  0  0  0  0  0  0  0  0  0
  -15.6208   43.5307   32.8576 C   0  0  0  0  0  0  0  0  0  0  0  0
  -16.0809   43.9102   31.6167 C   0  0  0  0  0  0  0  0  0  0  0  0
  -15.7551   43.1877   30.5018 C   0  0  0  0  0  0  0  0  0  0  0  0
  -14.9664   42.0711   30.6038 C   0  0  0  0  0  0  0  0  0  0  0  0
  -13.7368   40.6969   32.2936 N   0  0  0  0  0  0  0  0  0  0  0  0
  -11.4010   40.8717   34.7388 S   0  0  0  0  0  0  0  0  0  0  0  0
  -10.9392   41.4325   33.4760 O   0  0  0  0  0  0  0  0  0  0  0  0
  -10.3867   39.9083   35.0875 O   0  0  0  0  0  0  0  0  0  0  0  0
  -11.6216   41.9795   35.8669 N   0  0  0  0  0  0  0  0  0  0  0  0
  -12.5552   42.1803   36.1063 H   0  0  0  0  0  0  0  0  0  0  0  0
   -9.9621   42.1732   37.6204 C   0  0  0  0  0  0  0  0  0  0  0  0
  -10.6668   42.6743   36.5316 C   0  0  0  0  0  0  0  0  0  0  0  0
  -10.3527   43.9538   36.0967 C   0  0  0  0  0  0  0  0  0  0  0  0
   -8.9814   42.9483   38.2535 C   0  0  0  0  0  0  0  0  0  0  0  0
   -8.6790   44.2311   37.8169 C   0  0  0  0  0  0  0  0  0  0  0  0
   -7.7306   44.9796   38.4211 F   0  0  0  0  0  0  0  0  0  0  0  0
   -9.3772   44.7235   36.7284 C   0  0  0  0  0  0  0  0  0  0  0  0
  -13.6046   39.9928   35.9157 C   0  0  0  0  0  0  0  0  0  0  0  0
  -13.5259   38.7826   36.8378 C   0  0  0  0  0  0  0  0  0  0  0  0
  -12.7155   36.5148   37.1373 C   0  0  0  0  0  0  0  0  0  0  0  0
  -14.0444   38.7101   38.1173 C   0  0  0  0  0  0  0  0  0  0  0  0
  -13.2412   36.4429   38.4028 C   0  0  0  0  0  0  0  0  0  0  0  0
  -12.8512   37.6677   36.3877 C   0  0  0  0  0  0  0  0  0  0  0  0
  -13.9122   37.5524   38.8826 C   0  0  0  0  0  0  0  0  0  0  0  0
  -13.9292   34.3367   39.4062 C   0  0  0  0  0  0  0  0  0  0  0  0
  -15.0860   34.3474   39.1262 O   0  0  0  0  0  0  0  0  0  0  0  0
  -13.0585   35.2925   39.0813 N   0  0  0  0  0  0  0  0  0  0  0  0
  -12.1357   35.1330   39.3852 H   0  0  0  0  0  0  0  0  0  0  0  0
  -12.3816   32.7175   39.8549 O   0  0  0  0  0  0  0  0  0  0  0  0
  -13.4587   33.1779   40.1261 C   0  0  0  0  0  0  0  0  0  0  0  0
  -14.1497   32.6365   41.0865 O   0  0  0  0  0  0  0  0  0  0  0  0
  -11.8707   33.0950   39.1662 H   0  0  0  0  0  0  0  0  0  0  0  0
 22 18  2  0  0  0
 22 20  1  0  0  0
 21 20  1  0  0  0
 18 17  1  0  0  0
 20 19  2  0  0  0
 17 14  1  0  0  0
 17 16  2  0  0  0
 12 11  2  0  0  0
 19 16  1  0  0  0
 14 11  1  0  0  0
 11 13  2  0  0  0
 11  1  1  0  0  0
  1 23  1  0  0  0
  1  2  1  0  0  0
 23 24  1  0  0  0
 28 24  2  0  0  0
 28 25  1  0  0  0
  2  4  1  0  0  0
  2 10  2  0  0  0
 24 26  1  0  0  0
  4  5  1  0  0  0
 10  3  1  0  0  0
 25 27  2  0  0  0
 26 29  2  0  0  0
  5  3  2  0  0  0
  5  6  1  0  0  0
  3  9  1  0  0  0
 27 29  1  0  0  0
 27 32  1  0  0  0
  6  7  2  0  0  0
  9  8  2  0  0  0
 32 30  1  0  0  0
  7  8  1  0  0  0
 30 35  1  0  0  0
 30 31  2  0  0  0
 36 35  2  0  0  0
 35 34  1  0  0  0
 34 37  1  0  0  0
 32 33  1  0  0  0
 14 15  1  0  0  0
M  END
> <minimizedAffinity>
-9.19625

$$$$
4I8N_1CG_A_401


 37 40  0  0  0  0  0  0  0  0999 V2000
  -12.4215   42.2738   33.2396 C   0  0  0  0  0  0  0  0  0  0  0  0
  -11.1508   41.6284   32.8892 C   0  0  0  0  0  0  0  0  0  0  0  0
   -9.4277   40.2796   32.5977 C   0  0  0  0  0  0  0  0  0  0  0  0
  -10.2120   42.3792   32.2854 O   0  0  0  0  0  0  0  0  0  0  0  0
   -9.1404   41.5015   32.1120 C   0  0  0  0  0  0  0  0  0  0  0  0
   -7.9345   41.7935   31.5406 C   0  0  0  0  0  0  0  0  0  0  0  0
   -6.9960   40.7876   31.4846 C   0  0  0  0  0  0  0  0  0  0  0  0
   -7.2772   39.5439   31.9797 C   0  0  0  0  0  0  0  0  0  0  0  0
   -8.5011   39.2788   32.5375 C   0  0  0  0  0  0  0  0  0  0  0  0
  -10.6873   40.3755   33.0602 N   0  0  0  0  0  0  0  0  0  0  0  0
  -13.5308   41.3530   32.4423 S   0  0  0  0  0  0  0  0  0  0  0  0
  -13.4507   39.9365   32.7738 O   0  0  0  0  0  0  0  0  0  0  0  0
  -13.1683   41.4089   31.0482 O   0  0  0  0  0  0  0  0  0  0  0  0
  -14.9691   41.9798   32.7374 N   0  0  0  0  0  0  0  0  0  0  0  0
  -15.4660   41.5968   33.4962 H   0  0  0  0  0  0  0  0  0  0  0  0
  -15.3945   44.3300   32.3355 C   0  0  0  0  0  0  0  0  0  0  0  0
  -15.5821   42.9802   32.0597 C   0  0  0  0  0  0  0  0  0  0  0  0
  -16.4338   42.6503   31.0153 C   0  0  0  0  0  0  0  0  0  0  0  0
  -16.0575   45.3105   31.5855 C   0  0  0  0  0  0  0  0  0  0  0  0
  -16.9145   44.9712   30.5471 C   0  0  0  0  0  0  0  0  0  0  0  0
  -17.5515   45.9135   29.8182 F   0  0  0  0  0  0  0  0  0  0  0  0
  -17.0929   43.6272   30.2708 C   0  0  0  0  0  0  0  0  0  0  0  0
  -12.5886   42.2042   34.7664 C   0  0  0  0  0  0  0  0  0  0  0  0
  -11.4787   42.6940   35.6879 C   0  0  0  0  0  0  0  0  0  0  0  0
   -9.9040   44.4697   36.1945 C   0  0  0  0  0  0  0  0  0  0  0  0
  -11.0016   42.0254   36.7999 C   0  0  0  0  0  0  0  0  0  0  0  0
   -9.4256   43.7978   37.2912 C   0  0  0  0  0  0  0  0  0  0  0  0
  -10.9153   43.9249   35.4265 C   0  0  0  0  0  0  0  0  0  0  0  0
   -9.9825   42.5663   37.5823 C   0  0  0  0  0  0  0  0  0  0  0  0
   -7.7930   43.9782   39.0853 C   0  0  0  0  0  0  0  0  0  0  0  0
   -7.9779   42.9374   39.6326 O   0  0  0  0  0  0  0  0  0  0  0  0
   -8.4486   44.3956   38.0020 N   0  0  0  0  0  0  0  0  0  0  0  0
   -8.1758   45.2807   37.6683 H   0  0  0  0  0  0  0  0  0  0  0  0
   -6.7229   45.9798   39.3432 O   0  0  0  0  0  0  0  0  0  0  0  0
   -6.7581   44.8157   39.6420 C   0  0  0  0  0  0  0  0  0  0  0  0
   -5.8817   44.3572   40.4874 O   0  0  0  0  0  0  0  0  0  0  0  0
   -7.3465   46.3266   38.7358 H   0  0  0  0  0  0  0  0  0  0  0  0
 22 18  2  0  0  0
 22 20  1  0  0  0
 21 20  1  0  0  0
 18 17  1  0  0  0
 20 19  2  0  0  0
 17 14  1  0  0  0
 17 16  2  0  0  0
 12 11  2  0  0  0
 19 16  1  0  0  0
 14 11  1  0  0  0
 11 13  2  0  0  0
 11  1  1  0  0  0
  1 23  1  0  0  0
  1  2  1  0  0  0
 23 24  1  0  0  0
 28 24  2  0  0  0
 28 25  1  0  0  0
  2  4  1  0  0  0
  2 10  2  0  0  0
 24 26  1  0  0  0
  4  5  1  0  0  0
 10  3  1  0  0  0
 25 27  2  0  0  0
 26 29  2  0  0  0
  5  3  2  0  0  0
  5  6  1  0  0  0
  3  9  1  0  0  0
 27 29  1  0  0  0
 27 32  1  0  0  0
  6  7  2  0  0  0
  9  8  2  0  0  0
 32 30  1  0  0  0
  7  8  1  0  0  0
 30 35  1  0  0  0
 30 31  2  0  0  0
 36 35  2  0  0  0
 35 34  1  0  0  0
 34 37  1  0  0  0
 32 33  1  0  0  0
 14 15  1  0  0  0
M  END
> <minimizedAffinity>
-9.18231

$$$$
4I8N_1CG_A_401


 37 40  0  0  0  0  0  0  0  0999 V2000
  -12.7013   40.5706   35.5915 C   0  0  0  0  0  0  0  0  0  0  0  0
  -11.7381   41.5739   36.0604 C   0  0  0  0  0  0  0  0  0  0  0  0
  -10.4602   43.3426   36.3952 C   0  0  0  0  0  0  0  0  0  0  0  0
  -10.9132   41.2291   37.0655 O   0  0  0  0  0  0  0  0  0  0  0  0
  -10.1229   42.3641   37.2556 C   0  0  0  0  0  0  0  0  0  0  0  0
   -9.1206   42.5129   38.1717 C   0  0  0  0  0  0  0  0  0  0  0  0
   -8.4414   43.7104   38.1839 C   0  0  0  0  0  0  0  0  0  0  0  0
   -8.7740   44.7091   37.3103 C   0  0  0  0  0  0  0  0  0  0  0  0
   -9.7925   44.5332   36.4096 C   0  0  0  0  0  0  0  0  0  0  0  0
  -11.4768   42.8372   35.6735 N   0  0  0  0  0  0  0  0  0  0  0  0
  -12.9682   41.0227   34.0299 S   0  0  0  0  0  0  0  0  0  0  0  0
  -13.7019   40.0282   33.2583 O   0  0  0  0  0  0  0  0  0  0  0  0
  -11.6720   41.0697   33.4006 O   0  0  0  0  0  0  0  0  0  0  0  0
  -13.6958   42.4433   34.0641 N   0  0  0  0  0  0  0  0  0  0  0  0
  -13.6867   42.9189   34.9260 H   0  0  0  0  0  0  0  0  0  0  0  0
  -15.7042   43.0740   32.8663 C   0  0  0  0  0  0  0  0  0  0  0  0
  -14.3245   43.0672   33.0387 C   0  0  0  0  0  0  0  0  0  0  0  0
  -13.5579   43.7586   32.1118 C   0  0  0  0  0  0  0  0  0  0  0  0
  -16.2848   43.7487   31.7841 C   0  0  0  0  0  0  0  0  0  0  0  0
  -15.5095   44.4314   30.8565 C   0  0  0  0  0  0  0  0  0  0  0  0
  -16.0655   45.0876   29.8147 F   0  0  0  0  0  0  0  0  0  0  0  0
  -14.1374   44.4286   31.0355 C   0  0  0  0  0  0  0  0  0  0  0  0
  -12.0404   39.1865   35.6976 C   0  0  0  0  0  0  0  0  0  0  0  0
  -12.6506   38.1050   36.5801 C   0  0  0  0  0  0  0  0  0  0  0  0
  -13.3902   37.4881   38.8077 C   0  0  0  0  0  0  0  0  0  0  0  0
  -13.0679   36.8579   36.1535 C   0  0  0  0  0  0  0  0  0  0  0  0
  -13.7930   36.2472   38.3823 C   0  0  0  0  0  0  0  0  0  0  0  0
  -12.8446   38.3907   37.9149 C   0  0  0  0  0  0  0  0  0  0  0  0
  -13.6207   35.9402   37.0453 C   0  0  0  0  0  0  0  0  0  0  0  0
  -13.8042   34.3672   39.9257 C   0  0  0  0  0  0  0  0  0  0  0  0
  -12.7003   33.9570   39.7531 O   0  0  0  0  0  0  0  0  0  0  0  0
  -14.3294   35.4238   39.3051 N   0  0  0  0  0  0  0  0  0  0  0  0
  -15.2559   35.6364   39.5613 H   0  0  0  0  0  0  0  0  0  0  0  0
  -14.4492   33.9184   42.0706 O   0  0  0  0  0  0  0  0  0  0  0  0
  -14.5987   33.6654   40.9047 C   0  0  0  0  0  0  0  0  0  0  0  0
  -15.4996   32.7912   40.5621 O   0  0  0  0  0  0  0  0  0  0  0  0
  -13.8050   34.5454   42.3351 H   0  0  0  0  0  0  0  0  0  0  0  0
 22 18  2  0  0  0
 22 20  1  0  0  0
 21 20  1  0  0  0
 18 17  1  0  0  0
 20 19  2  0  0  0
 17 14  1  0  0  0
 17 16  2  0  0  0
 12 11  2  0  0  0
 19 16  1  0  0  0
 14 11  1  0  0  0
 11 13  2  0  0  0
 11  1  1  0  0  0
  1 23  1  0  0  0
  1  2  1  0  0  0
 23 24  1  0  0  0
 28 24  2  0  0  0
 28 25  1  0  0  0
  2  4  1  0  0  0
  2 10  2  0  0  0
 24 26  1  0  0  0
  4  5  1  0  0  0
 10  3  1  0  0  0
 25 27  2  0  0  0
 26 29  2  0  0  0
  5  3  2  0  0  0
  5  6  1  0  0  0
  3  9  1  0  0  0
 27 29  1  0  0  0
 27 32  1  0  0  0
  6  7  2  0  0  0
  9  8  2  0  0  0
 32 30  1  0  0  0
  7  8  1  0  0  0
 30 35  1  0  0  0
 30 31  2  0  0  0
 36 35  2  0  0  0
 35 34  1  0  0  0
 34 37  1  0  0  0
 32 33  1  0  0  0
 14 15  1  0  0  0
M  END
> <minimizedAffinity>
-8.92896

$$$$
4I8N_1CG_A_401


 37 40  0  0  0  0  0  0  0  0999 V2000
  -11.9071   40.8455   34.5706 C   0  0  0  0  0  0  0  0  0  0  0  0
  -12.5187   39.6585   35.1798 C   0  0  0  0  0  0  0  0  0  0  0  0
  -13.2954   37.6557   35.6887 C   0  0  0  0  0  0  0  0  0  0  0  0
  -13.1762   39.8190   36.3424 O   0  0  0  0  0  0  0  0  0  0  0  0
  -13.6511   38.5402   36.6388 C   0  0  0  0  0  0  0  0  0  0  0  0
  -14.3911   38.1801   37.7291 C   0  0  0  0  0  0  0  0  0  0  0  0
  -14.7828   36.8638   37.8265 C   0  0  0  0  0  0  0  0  0  0  0  0
  -14.4299   35.9586   36.8636 C   0  0  0  0  0  0  0  0  0  0  0  0
  -13.6771   36.3487   35.7863 C   0  0  0  0  0  0  0  0  0  0  0  0
  -12.5781   38.3676   34.8007 N   0  0  0  0  0  0  0  0  0  0  0  0
  -12.7040   40.9702   33.1341 S   0  0  0  0  0  0  0  0  0  0  0  0
  -13.0352   42.3428   32.7749 O   0  0  0  0  0  0  0  0  0  0  0  0
  -13.9852   40.3397   33.3321 O   0  0  0  0  0  0  0  0  0  0  0  0
  -11.8129   40.2369   32.0310 N   0  0  0  0  0  0  0  0  0  0  0  0
  -12.2951   39.8540   31.2628 H   0  0  0  0  0  0  0  0  0  0  0  0
   -9.8269   38.8719   32.2735 C   0  0  0  0  0  0  0  0  0  0  0  0
  -10.4667   40.0830   32.0344 C   0  0  0  0  0  0  0  0  0  0  0  0
   -9.6713   41.1877   31.7659 C   0  0  0  0  0  0  0  0  0  0  0  0
   -8.4285   38.7874   32.2529 C   0  0  0  0  0  0  0  0  0  0  0  0
   -7.6397   39.8997   31.9914 C   0  0  0  0  0  0  0  0  0  0  0  0
   -6.2913   39.8213   31.9654 F   0  0  0  0  0  0  0  0  0  0  0  0
   -8.2801   41.1016   31.7466 C   0  0  0  0  0  0  0  0  0  0  0  0
  -12.1694   42.0464   35.4941 C   0  0  0  0  0  0  0  0  0  0  0  0
  -11.0226   42.7022   36.2528 C   0  0  0  0  0  0  0  0  0  0  0  0
   -9.3673   42.4745   38.0128 C   0  0  0  0  0  0  0  0  0  0  0  0
  -10.5017   43.9571   35.9977 C   0  0  0  0  0  0  0  0  0  0  0  0
   -8.8603   43.7251   37.7637 C   0  0  0  0  0  0  0  0  0  0  0  0
  -10.4158   41.9818   37.2597 C   0  0  0  0  0  0  0  0  0  0  0  0
   -9.4433   44.4634   36.7505 C   0  0  0  0  0  0  0  0  0  0  0  0
   -6.7062   43.5020   38.8712 C   0  0  0  0  0  0  0  0  0  0  0  0
   -6.4168   42.3988   38.5308 O   0  0  0  0  0  0  0  0  0  0  0  0
   -7.8283   44.1349   38.5279 N   0  0  0  0  0  0  0  0  0  0  0  0
   -7.9172   45.0461   38.8900 H   0  0  0  0  0  0  0  0  0  0  0  0
   -6.0894   44.6552   40.7441 O   0  0  0  0  0  0  0  0  0  0  0  0
   -5.7391   44.1896   39.6924 C   0  0  0  0  0  0  0  0  0  0  0  0
   -4.4889   44.2901   39.3460 O   0  0  0  0  0  0  0  0  0  0  0  0
   -6.9859   44.5918   41.0092 H   0  0  0  0  0  0  0  0  0  0  0  0
 22 18  2  0  0  0
 22 20  1  0  0  0
 21 20  1  0  0  0
 18 17  1  0  0  0
 20 19  2  0  0  0
 17 14  1  0  0  0
 17 16  2  0  0  0
 12 11  2  0  0  0
 19 16  1  0  0  0
 14 11  1  0  0  0
 11 13  2  0  0  0
 11  1  1  0  0  0
  1 23  1  0  0  0
  1  2  1  0  0  0
 23 24  1  0  0  0
 28 24  2  0  0  0
 28 25  1  0  0  0
  2  4  1  0  0  0
  2 10  2  0  0  0
 24 26  1  0  0  0
  4  5  1  0  0  0
 10  3  1  0  0  0
 25 27  2  0  0  0
 26 29  2  0  0  0
  5  3  2  0  0  0
  5  6  1  0  0  0
  3  9  1  0  0  0
 27 29  1  0  0  0
 27 32  1  0  0  0
  6  7  2  0  0  0
  9  8  2  0  0  0
 32 30  1  0  0  0
  7  8  1  0  0  0
 30 35  1  0  0  0
 30 31  2  0  0  0
 36 35  2  0  0  0
 35 34  1  0  0  0
 34 37  1  0  0  0
 32 33  1  0  0  0
 14 15  1  0  0  0
M  END
> <minimizedAffinity>
-8.84761

$$$$
4I8N_1CG_A_401


 37 40  0  0  0  0  0  0  0  0999 V2000
  -13.4572   42.9674   32.4441 C   0  0  0  0  0  0  0  0  0  0  0  0
  -14.1497   44.1255   31.8668 C   0  0  0  0  0  0  0  0  0  0  0  0
  -14.7806   45.9217   30.7491 C   0  0  0  0  0  0  0  0  0  0  0  0
  -15.3555   44.4487   32.3681 O   0  0  0  0  0  0  0  0  0  0  0  0
  -15.7282   45.5814   31.6423 C   0  0  0  0  0  0  0  0  0  0  0  0
  -16.8847   46.2943   31.7849 C   0  0  0  0  0  0  0  0  0  0  0  0
  -17.0538   47.4009   30.9832 C   0  0  0  0  0  0  0  0  0  0  0  0
  -16.0942   47.7571   30.0758 C   0  0  0  0  0  0  0  0  0  0  0  0
  -14.9488   47.0147   29.9487 C   0  0  0  0  0  0  0  0  0  0  0  0
  -13.8166   44.9945   30.8933 N   0  0  0  0  0  0  0  0  0  0  0  0
  -13.7875   41.7686   31.3634 S   0  0  0  0  0  0  0  0  0  0  0  0
  -12.8691   41.7414   30.2327 O   0  0  0  0  0  0  0  0  0  0  0  0
  -15.0605   42.1015   30.7744 O   0  0  0  0  0  0  0  0  0  0  0  0
  -13.8167   40.3932   32.1734 N   0  0  0  0  0  0  0  0  0  0  0  0
  -14.2823   39.6409   31.7416 H   0  0  0  0  0  0  0  0  0  0  0  0
  -11.9493   39.7628   33.5811 C   0  0  0  0  0  0  0  0  0  0  0  0
  -13.2720   40.1462   33.3892 C   0  0  0  0  0  0  0  0  0  0  0  0
  -14.0660   40.3003   34.5165 C   0  0  0  0  0  0  0  0  0  0  0  0
  -11.4531   39.5321   34.8710 C   0  0  0  0  0  0  0  0  0  0  0  0
  -12.2570   39.6808   35.9932 C   0  0  0  0  0  0  0  0  0  0  0  0
  -11.7812   39.4644   37.2389 F   0  0  0  0  0  0  0  0  0  0  0  0
  -13.5707   40.0696   35.7988 C   0  0  0  0  0  0  0  0  0  0  0  0
  -11.9568   43.2948   32.5179 C   0  0  0  0  0  0  0  0  0  0  0  0
  -11.2991   43.6057   33.8564 C   0  0  0  0  0  0  0  0  0  0  0  0
   -9.4755   44.7207   35.0055 C   0  0  0  0  0  0  0  0  0  0  0  0
  -11.7695   43.2125   35.0955 C   0  0  0  0  0  0  0  0  0  0  0  0
   -9.9397   44.3191   36.2328 C   0  0  0  0  0  0  0  0  0  0  0  0
  -10.1553   44.3756   33.8532 C   0  0  0  0  0  0  0  0  0  0  0  0
  -11.0922   43.5561   36.2643 C   0  0  0  0  0  0  0  0  0  0  0  0
   -8.6051   43.9753   38.2371 C   0  0  0  0  0  0  0  0  0  0  0  0
   -8.5624   42.7859   38.2503 O   0  0  0  0  0  0  0  0  0  0  0  0
   -9.2338   44.7043   37.3147 N   0  0  0  0  0  0  0  0  0  0  0  0
   -9.1728   45.6783   37.4442 H   0  0  0  0  0  0  0  0  0  0  0  0
   -8.1110   45.8145   39.4985 O   0  0  0  0  0  0  0  0  0  0  0  0
   -7.8914   44.6501   39.2943 C   0  0  0  0  0  0  0  0  0  0  0  0
   -7.0423   44.0274   40.0586 O   0  0  0  0  0  0  0  0  0  0  0  0
   -8.7195   46.2784   38.9578 H   0  0  0  0  0  0  0  0  0  0  0  0
 22 18  2  0  0  0
 22 20  1  0  0  0
 21 20  1  0  0  0
 18 17  1  0  0  0
 20 19  2  0  0  0
 17 14  1  0  0  0
 17 16  2  0  0  0
 12 11  2  0  0  0
 19 16  1  0  0  0
 14 11  1  0  0  0
 11 13  2  0  0  0
 11  1  1  0  0  0
  1 23  1  0  0  0
  1  2  1  0  0  0
 23 24  1  0  0  0
 28 24  2  0  0  0
 28 25  1  0  0  0
  2  4  1  0  0  0
  2 10  2  0  0  0
 24 26  1  0  0  0
  4  5  1  0  0  0
 10  3  1  0  0  0
 25 27  2  0  0  0
 26 29  2  0  0  0
  5  3  2  0  0  0
  5  6  1  0  0  0
  3  9  1  0  0  0
 27 29  1  0  0  0
 27 32  1  0  0  0
  6  7  2  0  0  0
  9  8  2  0  0  0
 32 30  1  0  0  0
  7  8  1  0  0  0
 30 35  1  0  0  0
 30 31  2  0  0  0
 36 35  2  0  0  0
 35 34  1  0  0  0
 34 37  1  0  0  0
 32 33  1  0  0  0
 14 15  1  0  0  0
M  END
> <minimizedAffinity>
-8.54893

$$$$
4I8N_1CG_A_401


 37 40  0  0  0  0  0  0  0  0999 V2000
  -12.3390   41.9688   33.3656 C   0  0  0  0  0  0  0  0  0  0  0  0
  -11.0221   41.4270   33.0102 C   0  0  0  0  0  0  0  0  0  0  0  0
   -8.9940   41.0286   32.2346 C   0  0  0  0  0  0  0  0  0  0  0  0
  -10.7377   40.1692   33.3932 O   0  0  0  0  0  0  0  0  0  0  0  0
   -9.4532   39.9482   32.8930 C   0  0  0  0  0  0  0  0  0  0  0  0
   -8.7177   38.8039   33.0178 C   0  0  0  0  0  0  0  0  0  0  0  0
   -7.4733   38.7792   32.4293 C   0  0  0  0  0  0  0  0  0  0  0  0
   -6.9999   39.8707   31.7542 C   0  0  0  0  0  0  0  0  0  0  0  0
   -7.7578   41.0088   31.6558 C   0  0  0  0  0  0  0  0  0  0  0  0
   -9.9771   41.9415   32.3342 N   0  0  0  0  0  0  0  0  0  0  0  0
  -13.3733   40.9772   32.5525 S   0  0  0  0  0  0  0  0  0  0  0  0
  -12.7747   40.3567   31.3781 O   0  0  0  0  0  0  0  0  0  0  0  0
  -14.4030   41.8300   32.0133 O   0  0  0  0  0  0  0  0  0  0  0  0
  -13.9330   39.9115   33.6011 N   0  0  0  0  0  0  0  0  0  0  0  0
  -14.5930   40.2432   34.2520 H   0  0  0  0  0  0  0  0  0  0  0  0
  -12.7827   38.0798   34.6909 C   0  0  0  0  0  0  0  0  0  0  0  0
  -13.6008   38.6012   33.6949 C   0  0  0  0  0  0  0  0  0  0  0  0
  -14.1170   37.7166   32.7590 C   0  0  0  0  0  0  0  0  0  0  0  0
  -12.4888   36.7103   34.7287 C   0  0  0  0  0  0  0  0  0  0  0  0
  -13.0031   35.8332   33.7832 C   0  0  0  0  0  0  0  0  0  0  0  0
  -12.7265   34.5114   33.8191 F   0  0  0  0  0  0  0  0  0  0  0  0
  -13.8228   36.3546   32.7979 C   0  0  0  0  0  0  0  0  0  0  0  0
  -12.5032   41.8655   34.8908 C   0  0  0  0  0  0  0  0  0  0  0  0
  -11.4264   42.4079   35.8220 C   0  0  0  0  0  0  0  0  0  0  0  0
  -10.0409   44.3066   36.4261 C   0  0  0  0  0  0  0  0  0  0  0  0
  -10.8460   41.7181   36.8701 C   0  0  0  0  0  0  0  0  0  0  0  0
   -9.4593   43.6147   37.4586 C   0  0  0  0  0  0  0  0  0  0  0  0
  -11.0092   43.7095   35.6416 C   0  0  0  0  0  0  0  0  0  0  0  0
   -9.8692   42.3111   37.6685 C   0  0  0  0  0  0  0  0  0  0  0  0
   -7.4667   43.7980   38.8415 C   0  0  0  0  0  0  0  0  0  0  0  0
   -7.1403   42.6540   38.8790 O   0  0  0  0  0  0  0  0  0  0  0  0
   -8.5327   44.2646   38.1908 N   0  0  0  0  0  0  0  0  0  0  0  0
   -8.6639   45.2382   38.2553 H   0  0  0  0  0  0  0  0  0  0  0  0
   -6.7658   45.9077   39.3668 O   0  0  0  0  0  0  0  0  0  0  0  0
   -6.6107   44.7277   39.5381 C   0  0  0  0  0  0  0  0  0  0  0  0
   -5.6979   44.3290   40.3752 O   0  0  0  0  0  0  0  0  0  0  0  0
   -7.4186   46.2123   38.7676 H   0  0  0  0  0  0  0  0  0  0  0  0
 22 18  2  0  0  0
 22 20  1  0  0  0
 21 20  1  0  0  0
 18 17  1  0  0  0
 20 19  2  0  0  0
 17 14  1  0  0  0
 17 16  2  0  0  0
 12 11  2  0  0  0
 19 16  1  0  0  0
 14 11  1  0  0  0
 11 13  2  0  0  0
 11  1  1  0  0  0
  1 23  1  0  0  0
  1  2  1  0  0  0
 23 24  1  0  0  0
 28 24  2  0  0  0
 28 25  1  0  0  0
  2  4  1  0  0  0
  2 10  2  0  0  0
 24 26  1  0  0  0
  4  5  1  0  0  0
 10  3  1  0  0  0
 25 27  2  0  0  0
 26 29  2  0  0  0
  5  3  2  0  0  0
  5  6  1  0  0  0
  3  9  1  0  0  0
 27 29  1  0  0  0
 27 32  1  0  0  0
  6  7  2  0  0  0
  9  8  2  0  0  0
 32 30  1  0  0  0
  7  8  1  0  0  0
 30 35  1  0  0  0
 30 31  2  0  0  0
 36 35  2  0  0  0
 35 34  1  0  0  0
 34 37  1  0  0  0
 32 33  1  0  0  0
 14 15  1  0  0  0
M  END
> <minimizedAffinity>
-8.47481

$$$$
