1R5Y_DQU_A_900


 18 19  0  0  0  0  0  0  0  0999 V2000
   16.1670   16.4939   23.0006 C   0  0  0  0  0  0  0  0  0  0  0  0
   15.2219   16.4523   24.1598 N   0  0  0  0  0  0  0  0  0  0  0  0
   17.4875   16.8982   23.2225 C   0  0  0  0  0  0  0  0  0  0  0  0
   18.3710   17.0152   22.1710 C   0  0  0  0  0  0  0  0  0  0  0  0
   17.8967   16.8548   20.8496 C   0  0  0  0  0  0  0  0  0  0  0  0
   18.7268   17.0794   19.7718 N   0  0  0  0  0  0  0  0  0  0  0  0
   18.3318   16.9094   18.5386 C   0  0  0  0  0  0  0  0  0  0  0  0
   19.1743   17.1029   17.4480 N   0  0  0  0  0  0  0  0  0  0  0  0
   16.9969   16.5768   18.2107 N   0  0  0  0  0  0  0  0  0  0  0  0
   16.0718   16.4091   19.2623 C   0  0  0  0  0  0  0  0  0  0  0  0
   14.9196   16.0070   19.0377 O   0  0  0  0  0  0  0  0  0  0  0  0
   16.5346   16.5620   20.6345 C   0  0  0  0  0  0  0  0  0  0  0  0
   15.6729   16.4374   21.7185 C   0  0  0  0  0  0  0  0  0  0  0  0
   15.5695   16.4924   25.0800 H   0  0  0  0  0  0  0  0  0  0  0  0
   14.2524   16.3848   24.0023 H   0  0  0  0  0  0  0  0  0  0  0  0
   20.1196   17.3374   17.5918 H   0  0  0  0  0  0  0  0  0  0  0  0
   18.8250   17.0055   16.5327 H   0  0  0  0  0  0  0  0  0  0  0  0
   14.6215   15.9085   18.1549 H   0  0  0  0  0  0  0  0  0  0  0  0
  1  2  1  0  0  0
  1  3  1  0  0  0
  1 13  2  0  0  0
  3  4  2  0  0  0
  4  5  1  0  0  0
  5  6  1  0  0  0
  5 12  2  0  0  0
  6  7  2  0  0  0
  7  8  1  0  0  0
  7  9  1  0  0  0
  9 10  2  0  0  0
 10 11  1  0  0  0
 10 12  1  0  0  0
 12 13  1  0  0  0
  2 14  1  0  0  0
  2 15  1  0  0  0
  8 16  1  0  0  0
  8 17  1  0  0  0
 11 18  1  0  0  0
M  END
> <minimizedAffinity>
-7.31768

$$$$
1R5Y_DQU_A_900


 18 19  0  0  0  0  0  0  0  0999 V2000
   18.2366   16.7640   19.1380 C   0  0  0  0  0  0  0  0  0  0  0  0
   19.2471   17.0543   18.0735 N   0  0  0  0  0  0  0  0  0  0  0  0
   16.9249   16.4625   18.7572 C   0  0  0  0  0  0  0  0  0  0  0  0
   15.9487   16.2557   19.7080 C   0  0  0  0  0  0  0  0  0  0  0  0
   16.2514   16.4841   21.0692 C   0  0  0  0  0  0  0  0  0  0  0  0
   15.2685   16.3994   22.0326 N   0  0  0  0  0  0  0  0  0  0  0  0
   15.5188   16.5721   23.3028 C   0  0  0  0  0  0  0  0  0  0  0  0
   14.5376   16.4559   24.2828 N   0  0  0  0  0  0  0  0  0  0  0  0
   16.7950   16.9543   23.7774 N   0  0  0  0  0  0  0  0  0  0  0  0
   17.8310   17.1367   22.8377 C   0  0  0  0  0  0  0  0  0  0  0  0
   18.9939   17.3601   23.2084 O   0  0  0  0  0  0  0  0  0  0  0  0
   17.5490   16.9019   21.4285 C   0  0  0  0  0  0  0  0  0  0  0  0
   18.5142   17.0881   20.4453 C   0  0  0  0  0  0  0  0  0  0  0  0
   19.0542   16.8246   17.1358 H   0  0  0  0  0  0  0  0  0  0  0  0
   20.1050   17.4750   18.3107 H   0  0  0  0  0  0  0  0  0  0  0  0
   13.6219   16.1938   24.0339 H   0  0  0  0  0  0  0  0  0  0  0  0
   14.7592   16.6358   25.2250 H   0  0  0  0  0  0  0  0  0  0  0  0
   19.1757   17.5112   24.1151 H   0  0  0  0  0  0  0  0  0  0  0  0
  1  2  1  0  0  0
  1  3  1  0  0  0
  1 13  2  0  0  0
  3  4  2  0  0  0
  4  5  1  0  0  0
  5  6  1  0  0  0
  5 12  2  0  0  0
  6  7  2  0  0  0
  7  8  1  0  0  0
  7  9  1  0  0  0
  9 10  2  0  0  0
 10 11  1  0  0  0
 10 12  1  0  0  0
 12 13  1  0  0  0
  2 14  1  0  0  0
  2 15  1  0  0  0
  8 16  1  0  0  0
  8 17  1  0  0  0
 11 18  1  0  0  0
M  END
> <minimizedAffinity>
-7.25600

$$$$
1R5Y_DQU_A_900


 18 19  0  0  0  0  0  0  0  0999 V2000
   15.7565   16.2705   17.6314 C   0  0  0  0  0  0  0  0  0  0  0  0
   15.4192   16.3399   16.1754 N   0  0  0  0  0  0  0  0  0  0  0  0
   14.7162   16.1519   18.5588 C   0  0  0  0  0  0  0  0  0  0  0  0
   14.9795   16.1530   19.9118 C   0  0  0  0  0  0  0  0  0  0  0  0
   16.2948   16.4111   20.3590 C   0  0  0  0  0  0  0  0  0  0  0  0
   16.5693   16.5345   21.7046 N   0  0  0  0  0  0  0  0  0  0  0  0
   17.7778   16.7404   22.1550 C   0  0  0  0  0  0  0  0  0  0  0  0
   18.0660   16.8333   23.5133 N   0  0  0  0  0  0  0  0  0  0  0  0
   18.8805   16.9495   21.2946 N   0  0  0  0  0  0  0  0  0  0  0  0
   18.6581   16.9159   19.9020 C   0  0  0  0  0  0  0  0  0  0  0  0
   19.6068   16.9796   19.1047 O   0  0  0  0  0  0  0  0  0  0  0  0
   17.3134   16.6454   19.4130 C   0  0  0  0  0  0  0  0  0  0  0  0
   17.0163   16.6238   18.0549 C   0  0  0  0  0  0  0  0  0  0  0  0
   14.5191   16.0883   15.8661 H   0  0  0  0  0  0  0  0  0  0  0  0
   16.0974   16.6373   15.5266 H   0  0  0  0  0  0  0  0  0  0  0  0
   17.3522   16.7006   24.1781 H   0  0  0  0  0  0  0  0  0  0  0  0
   18.9837   17.0317   23.8093 H   0  0  0  0  0  0  0  0  0  0  0  0
   20.4721   17.1536   19.4191 H   0  0  0  0  0  0  0  0  0  0  0  0
  1  2  1  0  0  0
  1  3  1  0  0  0
  1 13  2  0  0  0
  3  4  2  0  0  0
  4  5  1  0  0  0
  5  6  1  0  0  0
  5 12  2  0  0  0
  6  7  2  0  0  0
  7  8  1  0  0  0
  7  9  1  0  0  0
  9 10  2  0  0  0
 10 11  1  0  0  0
 10 12  1  0  0  0
 12 13  1  0  0  0
  2 14  1  0  0  0
  2 15  1  0  0  0
  8 16  1  0  0  0
  8 17  1  0  0  0
 11 18  1  0  0  0
M  END
> <minimizedAffinity>
-6.89344

$$$$
1R5Y_DQU_A_900


 18 19  0  0  0  0  0  0  0  0999 V2000
   12.9915   15.9441   17.1893 C   0  0  0  0  0  0  0  0  0  0  0  0
   11.5790   15.4505   17.1906 N   0  0  0  0  0  0  0  0  0  0  0  0
   13.6194   16.1853   15.9630 C   0  0  0  0  0  0  0  0  0  0  0  0
   14.9406   16.5754   15.9165 C   0  0  0  0  0  0  0  0  0  0  0  0
   15.6960   16.5987   17.1105 C   0  0  0  0  0  0  0  0  0  0  0  0
   17.0474   16.8712   17.0832 N   0  0  0  0  0  0  0  0  0  0  0  0
   17.7695   16.9330   18.1696 C   0  0  0  0  0  0  0  0  0  0  0  0
   19.1269   17.2395   18.1513 N   0  0  0  0  0  0  0  0  0  0  0  0
   17.2427   16.6301   19.4467 N   0  0  0  0  0  0  0  0  0  0  0  0
   15.8833   16.2654   19.5399 C   0  0  0  0  0  0  0  0  0  0  0  0
   15.3433   16.1008   20.6450 O   0  0  0  0  0  0  0  0  0  0  0  0
   15.0792   16.2393   18.3261 C   0  0  0  0  0  0  0  0  0  0  0  0
   13.7407   15.8636   18.3397 C   0  0  0  0  0  0  0  0  0  0  0  0
   11.0376   15.5055   16.3702 H   0  0  0  0  0  0  0  0  0  0  0  0
   11.1910   15.0709   18.0119 H   0  0  0  0  0  0  0  0  0  0  0  0
   19.5698   17.4618   17.3006 H   0  0  0  0  0  0  0  0  0  0  0  0
   19.6441   17.2340   18.9889 H   0  0  0  0  0  0  0  0  0  0  0  0
   15.8604   16.1175   21.4262 H   0  0  0  0  0  0  0  0  0  0  0  0
  1  2  1  0  0  0
  1  3  1  0  0  0
  1 13  2  0  0  0
  3  4  2  0  0  0
  4  5  1  0  0  0
  5  6  1  0  0  0
  5 12  2  0  0  0
  6  7  2  0  0  0
  7  8  1  0  0  0
  7  9  1  0  0  0
  9 10  2  0  0  0
 10 11  1  0  0  0
 10 12  1  0  0  0
 12 13  1  0  0  0
  2 14  1  0  0  0
  2 15  1  0  0  0
  8 16  1  0  0  0
  8 17  1  0  0  0
 11 18  1  0  0  0
M  END
> <minimizedAffinity>
-6.40893

$$$$
1R5Y_DQU_A_900


 18 19  0  0  0  0  0  0  0  0999 V2000
   13.4161   15.4895   17.8669 C   0  0  0  0  0  0  0  0  0  0  0  0
   12.3925   14.6950   18.6151 N   0  0  0  0  0  0  0  0  0  0  0  0
   13.1973   15.7647   16.5131 C   0  0  0  0  0  0  0  0  0  0  0  0
   14.1466   16.4347   15.7715 C   0  0  0  0  0  0  0  0  0  0  0  0
   15.4013   16.7224   16.3544 C   0  0  0  0  0  0  0  0  0  0  0  0
   16.4125   17.2864   15.6055 N   0  0  0  0  0  0  0  0  0  0  0  0
   17.5728   17.5955   16.1191 C   0  0  0  0  0  0  0  0  0  0  0  0
   18.5858   18.1946   15.3764 N   0  0  0  0  0  0  0  0  0  0  0  0
   17.9148   17.2870   17.4562 N   0  0  0  0  0  0  0  0  0  0  0  0
   16.9545   16.6369   18.2592 C   0  0  0  0  0  0  0  0  0  0  0  0
   17.1603   16.4460   19.4679 O   0  0  0  0  0  0  0  0  0  0  0  0
   15.6504   16.3340   17.6864 C   0  0  0  0  0  0  0  0  0  0  0  0
   14.6660   15.6715   18.4109 C   0  0  0  0  0  0  0  0  0  0  0  0
   11.4960   14.5612   18.2309 H   0  0  0  0  0  0  0  0  0  0  0  0
   12.6155   14.3060   19.4916 H   0  0  0  0  0  0  0  0  0  0  0  0
   18.4273   18.4406   14.4363 H   0  0  0  0  0  0  0  0  0  0  0  0
   19.4608   18.3724   15.7909 H   0  0  0  0  0  0  0  0  0  0  0  0
   17.9993   16.6408   19.8368 H   0  0  0  0  0  0  0  0  0  0  0  0
  1  2  1  0  0  0
  1  3  1  0  0  0
  1 13  2  0  0  0
  3  4  2  0  0  0
  4  5  1  0  0  0
  5  6  1  0  0  0
  5 12  2  0  0  0
  6  7  2  0  0  0
  7  8  1  0  0  0
  7  9  1  0  0  0
  9 10  2  0  0  0
 10 11  1  0  0  0
 10 12  1  0  0  0
 12 13  1  0  0  0
  2 14  1  0  0  0
  2 15  1  0  0  0
  8 16  1  0  0  0
  8 17  1  0  0  0
 11 18  1  0  0  0
M  END
> <minimizedAffinity>
-6.26774

$$$$
1R5Y_DQU_A_900


 18 19  0  0  0  0  0  0  0  0999 V2000
   14.2361   14.2888   18.4280 C   0  0  0  0  0  0  0  0  0  0  0  0
   14.3561   13.2096   19.4574 N   0  0  0  0  0  0  0  0  0  0  0  0
   15.3315   15.1287   18.2019 C   0  0  0  0  0  0  0  0  0  0  0  0
   15.2394   16.1769   17.3116 C   0  0  0  0  0  0  0  0  0  0  0  0
   13.9881   16.4802   16.7294 C   0  0  0  0  0  0  0  0  0  0  0  0
   13.8361   17.5909   15.9265 N   0  0  0  0  0  0  0  0  0  0  0  0
   12.7032   17.8835   15.3463 C   0  0  0  0  0  0  0  0  0  0  0  0
   12.5522   18.9848   14.5090 N   0  0  0  0  0  0  0  0  0  0  0  0
   11.5221   17.1397   15.5740 N   0  0  0  0  0  0  0  0  0  0  0  0
   11.5858   16.0347   16.4484 C   0  0  0  0  0  0  0  0  0  0  0  0
   10.6099   15.2823   16.5946 O   0  0  0  0  0  0  0  0  0  0  0  0
   12.8641   15.6951   17.0575 C   0  0  0  0  0  0  0  0  0  0  0  0
   12.9947   14.6363   17.9491 C   0  0  0  0  0  0  0  0  0  0  0  0
   15.2421   12.9564   19.8041 H   0  0  0  0  0  0  0  0  0  0  0  0
   13.5492   12.7527   19.7879 H   0  0  0  0  0  0  0  0  0  0  0  0
   13.3275   19.5545   14.3004 H   0  0  0  0  0  0  0  0  0  0  0  0
   11.6701   19.1940   14.1252 H   0  0  0  0  0  0  0  0  0  0  0  0
    9.7872   15.5005   16.2028 H   0  0  0  0  0  0  0  0  0  0  0  0
  1  2  1  0  0  0
  1  3  1  0  0  0
  1 13  2  0  0  0
  3  4  2  0  0  0
  4  5  1  0  0  0
  5  6  1  0  0  0
  5 12  2  0  0  0
  6  7  2  0  0  0
  7  8  1  0  0  0
  7  9  1  0  0  0
  9 10  2  0  0  0
 10 11  1  0  0  0
 10 12  1  0  0  0
 12 13  1  0  0  0
  2 14  1  0  0  0
  2 15  1  0  0  0
  8 16  1  0  0  0
  8 17  1  0  0  0
 11 18  1  0  0  0
M  END
> <minimizedAffinity>
-6.15940

$$$$
1R5Y_DQU_A_900


 18 19  0  0  0  0  0  0  0  0999 V2000
   17.4057   16.8797   18.0058 C   0  0  0  0  0  0  0  0  0  0  0  0
   18.8901   17.0619   17.9588 N   0  0  0  0  0  0  0  0  0  0  0  0
   16.8244   16.3883   19.1793 C   0  0  0  0  0  0  0  0  0  0  0  0
   15.4696   16.1422   19.2408 C   0  0  0  0  0  0  0  0  0  0  0  0
   14.6923   16.2612   18.0668 C   0  0  0  0  0  0  0  0  0  0  0  0
   13.3587   15.9106   18.0670 N   0  0  0  0  0  0  0  0  0  0  0  0
   12.6028   16.0383   17.0097 C   0  0  0  0  0  0  0  0  0  0  0  0
   11.2488   15.7169   17.0128 N   0  0  0  0  0  0  0  0  0  0  0  0
   13.1154   16.4533   15.7586 N   0  0  0  0  0  0  0  0  0  0  0  0
   14.4906   16.7531   15.6655 C   0  0  0  0  0  0  0  0  0  0  0  0
   14.9687   17.2292   14.6241 O   0  0  0  0  0  0  0  0  0  0  0  0
   15.3144   16.6453   16.8614 C   0  0  0  0  0  0  0  0  0  0  0  0
   16.6812   16.8993   16.8371 C   0  0  0  0  0  0  0  0  0  0  0  0
   19.4143   17.0489   18.7920 H   0  0  0  0  0  0  0  0  0  0  0  0
   19.3426   17.1948   17.0946 H   0  0  0  0  0  0  0  0  0  0  0  0
   10.8156   15.4189   17.8452 H   0  0  0  0  0  0  0  0  0  0  0  0
   10.7242   15.7874   16.1828 H   0  0  0  0  0  0  0  0  0  0  0  0
   14.4388   17.2987   13.8544 H   0  0  0  0  0  0  0  0  0  0  0  0
  1  2  1  0  0  0
  1  3  1  0  0  0
  1 13  2  0  0  0
  3  4  2  0  0  0
  4  5  1  0  0  0
  5  6  1  0  0  0
  5 12  2  0  0  0
  6  7  2  0  0  0
  7  8  1  0  0  0
  7  9  1  0  0  0
  9 10  2  0  0  0
 10 11  1  0  0  0
 10 12  1  0  0  0
 12 13  1  0  0  0
  2 14  1  0  0  0
  2 15  1  0  0  0
  8 16  1  0  0  0
  8 17  1  0  0  0
 11 18  1  0  0  0
M  END
> <minimizedAffinity>
-6.15685

$$$$
1R5Y_DQU_A_900


 18 19  0  0  0  0  0  0  0  0999 V2000
   16.5874   16.3330   19.9855 C   0  0  0  0  0  0  0  0  0  0  0  0
   15.8279   16.0350   21.2398 N   0  0  0  0  0  0  0  0  0  0  0  0
   17.9177   16.7526   20.0874 C   0  0  0  0  0  0  0  0  0  0  0  0
   18.6310   17.1019   18.9608 C   0  0  0  0  0  0  0  0  0  0  0  0
   17.9671   17.1633   17.7149 C   0  0  0  0  0  0  0  0  0  0  0  0
   18.6214   17.6206   16.5905 N   0  0  0  0  0  0  0  0  0  0  0  0
   18.0493   17.6602   15.4172 C   0  0  0  0  0  0  0  0  0  0  0  0
   18.7145   18.0899   14.2729 N   0  0  0  0  0  0  0  0  0  0  0  0
   16.6873   17.3296   15.2279 N   0  0  0  0  0  0  0  0  0  0  0  0
   15.9341   16.9285   16.3510 C   0  0  0  0  0  0  0  0  0  0  0  0
   14.7695   16.5197   16.2228 O   0  0  0  0  0  0  0  0  0  0  0  0
   16.5943   16.8500   17.6465 C   0  0  0  0  0  0  0  0  0  0  0  0
   15.9077   16.4883   18.8001 C   0  0  0  0  0  0  0  0  0  0  0  0
   16.3088   15.9228   22.0915 H   0  0  0  0  0  0  0  0  0  0  0  0
   14.8474   15.9512   21.2134 H   0  0  0  0  0  0  0  0  0  0  0  0
   19.6658   18.3390   14.3208 H   0  0  0  0  0  0  0  0  0  0  0  0
   18.2339   18.1448   13.4154 H   0  0  0  0  0  0  0  0  0  0  0  0
   14.3444   16.5701   15.3893 H   0  0  0  0  0  0  0  0  0  0  0  0
  1  2  1  0  0  0
  1  3  1  0  0  0
  1 13  2  0  0  0
  3  4  2  0  0  0
  4  5  1  0  0  0
  5  6  1  0  0  0
  5 12  2  0  0  0
  6  7  2  0  0  0
  7  8  1  0  0  0
  7  9  1  0  0  0
  9 10  2  0  0  0
 10 11  1  0  0  0
 10 12  1  0  0  0
 12 13  1  0  0  0
  2 14  1  0  0  0
  2 15  1  0  0  0
  8 16  1  0  0  0
  8 17  1  0  0  0
 11 18  1  0  0  0
M  END
> <minimizedAffinity>
-6.15681

$$$$
1R5Y_DQU_A_900


 18 19  0  0  0  0  0  0  0  0999 V2000
   17.6875   16.6531   20.5838 C   0  0  0  0  0  0  0  0  0  0  0  0
   18.4825   16.5099   21.8432 N   0  0  0  0  0  0  0  0  0  0  0  0
   16.3810   16.1548   20.5518 C   0  0  0  0  0  0  0  0  0  0  0  0
   15.6393   16.2058   19.3912 C   0  0  0  0  0  0  0  0  0  0  0  0
   16.2555   16.6420   18.1967 C   0  0  0  0  0  0  0  0  0  0  0  0
   15.5773   16.5953   16.9971 N   0  0  0  0  0  0  0  0  0  0  0  0
   16.1038   17.0201   15.8800 C   0  0  0  0  0  0  0  0  0  0  0  0
   15.4127   17.0057   14.6722 N   0  0  0  0  0  0  0  0  0  0  0  0
   17.4422   17.4697   15.7972 N   0  0  0  0  0  0  0  0  0  0  0  0
   18.2215   17.4700   16.9729 C   0  0  0  0  0  0  0  0  0  0  0  0
   19.3619   17.9593   16.9799 O   0  0  0  0  0  0  0  0  0  0  0  0
   17.6101   17.0318   18.2197 C   0  0  0  0  0  0  0  0  0  0  0  0
   18.3258   16.9808   19.4106 C   0  0  0  0  0  0  0  0  0  0  0  0
   18.0313   16.2755   22.6862 H   0  0  0  0  0  0  0  0  0  0  0  0
   19.4569   16.6501   21.8289 H   0  0  0  0  0  0  0  0  0  0  0  0
   14.4754   16.7057   14.6450 H   0  0  0  0  0  0  0  0  0  0  0  0
   15.8611   17.2954   13.8450 H   0  0  0  0  0  0  0  0  0  0  0  0
   19.7555   18.2414   16.1778 H   0  0  0  0  0  0  0  0  0  0  0  0
  1  2  1  0  0  0
  1  3  1  0  0  0
  1 13  2  0  0  0
  3  4  2  0  0  0
  4  5  1  0  0  0
  5  6  1  0  0  0
  5 12  2  0  0  0
  6  7  2  0  0  0
  7  8  1  0  0  0
  7  9  1  0  0  0
  9 10  2  0  0  0
 10 11  1  0  0  0
 10 12  1  0  0  0
 12 13  1  0  0  0
  2 14  1  0  0  0
  2 15  1  0  0  0
  8 16  1  0  0  0
  8 17  1  0  0  0
 11 18  1  0  0  0
M  END
> <minimizedAffinity>
-6.15393

$$$$
1R5Y_DQU_A_900


 18 19  0  0  0  0  0  0  0  0999 V2000
   17.8043   16.5971   21.1627 C   0  0  0  0  0  0  0  0  0  0  0  0
   17.9347   16.5718   22.6530 N   0  0  0  0  0  0  0  0  0  0  0  0
   18.8668   17.0960   20.4020 C   0  0  0  0  0  0  0  0  0  0  0  0
   18.7602   17.1994   19.0317 C   0  0  0  0  0  0  0  0  0  0  0  0
   17.5198   16.9249   18.4130 C   0  0  0  0  0  0  0  0  0  0  0  0
   17.3471   17.1304   17.0605 N   0  0  0  0  0  0  0  0  0  0  0  0
   16.2254   16.8569   16.4501 C   0  0  0  0  0  0  0  0  0  0  0  0
   16.0555   17.0316   15.0800 N   0  0  0  0  0  0  0  0  0  0  0  0
   15.0727   16.4217   17.1444 N   0  0  0  0  0  0  0  0  0  0  0  0
   15.1542   16.2652   18.5439 C   0  0  0  0  0  0  0  0  0  0  0  0
   14.2100   15.7787   19.1855 O   0  0  0  0  0  0  0  0  0  0  0  0
   16.4222   16.5349   19.2071 C   0  0  0  0  0  0  0  0  0  0  0  0
   16.5676   16.4273   20.5856 C   0  0  0  0  0  0  0  0  0  0  0  0
   18.8174   16.6928   23.0720 H   0  0  0  0  0  0  0  0  0  0  0  0
   17.1379   16.4343   23.2146 H   0  0  0  0  0  0  0  0  0  0  0  0
   16.8105   17.3330   14.5248 H   0  0  0  0  0  0  0  0  0  0  0  0
   15.1802   16.8537   14.6659 H   0  0  0  0  0  0  0  0  0  0  0  0
   13.3940   15.6051   18.7591 H   0  0  0  0  0  0  0  0  0  0  0  0
  1  2  1  0  0  0
  1  3  1  0  0  0
  1 13  2  0  0  0
  3  4  2  0  0  0
  4  5  1  0  0  0
  5  6  1  0  0  0
  5 12  2  0  0  0
  6  7  2  0  0  0
  7  8  1  0  0  0
  7  9  1  0  0  0
  9 10  2  0  0  0
 10 11  1  0  0  0
 10 12  1  0  0  0
 12 13  1  0  0  0
  2 14  1  0  0  0
  2 15  1  0  0  0
  8 16  1  0  0  0
  8 17  1  0  0  0
 11 18  1  0  0  0
M  END
> <minimizedAffinity>
-6.02890

$$$$
