1XKK_FMM_A_91


 42 46  0  0  0  0  0  0  0  0999 V2000
   16.6275   31.5260   35.2708 C   0  0  0  0  0  0  0  0  0  0  0  0
   15.4480   31.4112   34.5388 C   0  0  0  0  0  0  0  0  0  0  0  0
   14.2710   31.8928   35.0583 C   0  0  0  0  0  0  0  0  0  0  0  0
   14.2480   32.4903   36.3175 C   0  0  0  0  0  0  0  0  0  0  0  0
   13.0567   32.9700   36.8243 N   0  0  0  0  0  0  0  0  0  0  0  0
   13.0174   33.5636   38.0698 C   0  0  0  0  0  0  0  0  0  0  0  0
   14.1688   33.6815   38.8201 N   0  0  0  0  0  0  0  0  0  0  0  0
   15.3711   33.2073   38.3335 C   0  0  0  0  0  0  0  0  0  0  0  0
   15.4127   32.6034   37.0619 C   0  0  0  0  0  0  0  0  0  0  0  0
   16.6054   32.1241   36.5491 C   0  0  0  0  0  0  0  0  0  0  0  0
   19.9224   30.6050   34.3129 C   0  0  0  0  0  0  0  0  0  0  0  0
   19.2110   30.1196   33.2754 C   0  0  0  0  0  0  0  0  0  0  0  0
   17.9666   30.3774   33.5055 C   0  0  0  0  0  0  0  0  0  0  0  0
   17.8893   31.0420   34.7040 C   0  0  0  0  0  0  0  0  0  0  0  0
   19.1223   31.2371   35.3314 O   0  0  0  0  0  0  0  0  0  0  0  0
   21.4263   30.4990   34.4052 C   0  0  0  0  0  0  0  0  0  0  0  0
   21.9518   31.6525   35.1397 N   0  0  0  0  0  0  0  0  0  0  0  0
   22.6047   32.1642   34.5462 H   0  0  0  0  0  0  0  0  0  0  0  0
   22.6486   31.1904   36.3491 C   0  0  0  0  0  0  0  0  0  0  0  0
   21.6904   31.2604   37.5438 C   0  0  0  0  0  0  0  0  0  0  0  0
   19.9310   33.5807   37.8510 C   0  0  0  0  0  0  0  0  0  0  0  0
   21.5726   32.9743   38.1275 S   0  0  0  0  0  0  0  0  0  0  0  0
   21.8717   33.0261   39.5425 O   0  0  0  0  0  0  0  0  0  0  0  0
   22.5165   33.7948   37.4025 O   0  0  0  0  0  0  0  0  0  0  0  0
   16.5362   33.3275   39.0904 N   0  0  0  0  0  0  0  0  0  0  0  0
   17.4052   33.1632   38.6580 H   0  0  0  0  0  0  0  0  0  0  0  0
   16.5078   33.6762   40.4521 C   0  0  0  0  0  0  0  0  0  0  0  0
   17.2775   34.7451   40.9160 C   0  0  0  0  0  0  0  0  0  0  0  0
   17.2457   35.0836   42.2657 C   0  0  0  0  0  0  0  0  0  0  0  0
   16.4489   34.3547   43.1407 C   0  0  0  0  0  0  0  0  0  0  0  0
   15.7022   33.3096   42.6815 C   0  0  0  0  0  0  0  0  0  0  0  0
   14.7456   32.4447   43.7767 Cl  0  0  0  0  0  0  0  0  0  0  0  0
   15.7208   32.9607   41.3493 C   0  0  0  0  0  0  0  0  0  0  0  0
   16.3871   34.6782   44.5220 O   0  0  0  0  0  0  0  0  0  0  0  0
   17.0543   35.9039   44.8533 C   0  0  0  0  0  0  0  0  0  0  0  0
   16.0850   37.1023   44.8557 C   0  0  0  0  0  0  0  0  0  0  0  0
   16.5495   38.3479   45.2176 C   0  0  0  0  0  0  0  0  0  0  0  0
   15.6931   39.4302   45.2184 C   0  0  0  0  0  0  0  0  0  0  0  0
   14.3732   39.2684   44.8544 C   0  0  0  0  0  0  0  0  0  0  0  0
   13.9047   38.0281   44.4912 C   0  0  0  0  0  0  0  0  0  0  0  0
   12.6477   37.8801   44.1406 F   0  0  0  0  0  0  0  0  0  0  0  0
   14.7510   36.9408   44.4904 C   0  0  0  0  0  0  0  0  0  0  0  0
 21 22  1  0  0  0
 22 23  2  0  0  0
 22 24  2  0  0  0
 22 20  1  0  0  0
 20 19  1  0  0  0
 19 17  1  0  0  0
 17 16  1  0  0  0
 16 11  1  0  0  0
 11 12  2  0  0  0
 11 15  1  0  0  0
 12 13  1  0  0  0
 13 14  2  0  0  0
 14 15  1  0  0  0
 14  1  1  0  0  0
  1  2  1  0  0  0
  1 10  2  0  0  0
  2  3  2  0  0  0
  3  4  1  0  0  0
  4  5  2  0  0  0
  4  9  1  0  0  0
  5  6  1  0  0  0
  6  7  2  0  0  0
  7  8  1  0  0  0
  8 25  1  0  0  0
  8  9  2  0  0  0
 25 27  1  0  0  0
 27 28  2  0  0  0
 27 33  1  0  0  0
 28 29  1  0  0  0
 29 30  2  0  0  0
 30 34  1  0  0  0
 30 31  1  0  0  0
 34 35  1  0  0  0
 35 36  1  0  0  0
 36 37  2  0  0  0
 36 42  1  0  0  0
 37 38  1  0  0  0
 38 39  2  0  0  0
 39 40  1  0  0  0
 40 41  1  0  0  0
 40 42  2  0  0  0
 31 32  1  0  0  0
 31 33  2  0  0  0
  9 10  1  0  0  0
 17 18  1  0  0  0
 25 26  1  0  0  0
M  END
> <minimizedAffinity>
-11.24092

$$$$
1XKK_FMM_A_91


 42 46  0  0  0  0  0  0  0  0999 V2000
   16.4963   31.5622   35.1641 C   0  0  0  0  0  0  0  0  0  0  0  0
   15.3004   31.5166   34.4513 C   0  0  0  0  0  0  0  0  0  0  0  0
   14.1507   32.0176   35.0119 C   0  0  0  0  0  0  0  0  0  0  0  0
   14.1716   32.5658   36.2933 C   0  0  0  0  0  0  0  0  0  0  0  0
   13.0072   33.0660   36.8414 N   0  0  0  0  0  0  0  0  0  0  0  0
   13.0115   33.6114   38.1094 C   0  0  0  0  0  0  0  0  0  0  0  0
   14.1798   33.6602   38.8410 N   0  0  0  0  0  0  0  0  0  0  0  0
   15.3556   33.1644   38.3131 C   0  0  0  0  0  0  0  0  0  0  0  0
   15.3529   32.6097   37.0187 C   0  0  0  0  0  0  0  0  0  0  0  0
   16.5185   32.1102   36.4645 C   0  0  0  0  0  0  0  0  0  0  0  0
   19.1874   30.2638   33.2420 C   0  0  0  0  0  0  0  0  0  0  0  0
   19.7785   30.4019   34.4461 C   0  0  0  0  0  0  0  0  0  0  0  0
   18.8981   30.8901   35.2552 C   0  0  0  0  0  0  0  0  0  0  0  0
   17.7299   31.0576   34.5544 C   0  0  0  0  0  0  0  0  0  0  0  0
   17.8100   30.6862   33.2100 O   0  0  0  0  0  0  0  0  0  0  0  0
   19.9012   29.7149   32.0292 C   0  0  0  0  0  0  0  0  0  0  0  0
   19.3798   30.3620   30.8227 N   0  0  0  0  0  0  0  0  0  0  0  0
   18.7353   31.1067   31.0883 H   0  0  0  0  0  0  0  0  0  0  0  0
   18.6708   29.3714   29.9998 C   0  0  0  0  0  0  0  0  0  0  0  0
   17.1792   29.7229   29.9565 C   0  0  0  0  0  0  0  0  0  0  0  0
   17.7128   31.1954   27.4824 C   0  0  0  0  0  0  0  0  0  0  0  0
   16.9516   31.2948   29.0791 S   0  0  0  0  0  0  0  0  0  0  0  0
   15.5379   31.5616   28.9215 O   0  0  0  0  0  0  0  0  0  0  0  0
   17.5642   32.3618   29.8381 O   0  0  0  0  0  0  0  0  0  0  0  0
   16.5378   33.2149   39.0512 N   0  0  0  0  0  0  0  0  0  0  0  0
   17.3845   32.9683   38.6135 H   0  0  0  0  0  0  0  0  0  0  0  0
   16.5576   33.6069   40.4011 C   0  0  0  0  0  0  0  0  0  0  0  0
   17.3952   34.6449   40.8153 C   0  0  0  0  0  0  0  0  0  0  0  0
   17.4108   35.0266   42.1537 C   0  0  0  0  0  0  0  0  0  0  0  0
   16.5933   34.3714   43.0670 C   0  0  0  0  0  0  0  0  0  0  0  0
   15.7800   33.3562   42.6564 C   0  0  0  0  0  0  0  0  0  0  0  0
   14.8001   32.5811   43.7973 Cl  0  0  0  0  0  0  0  0  0  0  0  0
   15.7511   32.9653   41.3361 C   0  0  0  0  0  0  0  0  0  0  0  0
   16.5787   34.7409   44.4380 O   0  0  0  0  0  0  0  0  0  0  0  0
   17.1921   36.0117   44.6950 C   0  0  0  0  0  0  0  0  0  0  0  0
   16.1514   37.1461   44.7717 C   0  0  0  0  0  0  0  0  0  0  0  0
   16.5455   38.3994   45.1862 C   0  0  0  0  0  0  0  0  0  0  0  0
   15.6246   39.4252   45.2538 C   0  0  0  0  0  0  0  0  0  0  0  0
   14.3102   39.1991   44.9040 C   0  0  0  0  0  0  0  0  0  0  0  0
   13.9118   37.9508   44.4885 C   0  0  0  0  0  0  0  0  0  0  0  0
   12.6596   37.7419   44.1518 F   0  0  0  0  0  0  0  0  0  0  0  0
   14.8230   36.9196   44.4208 C   0  0  0  0  0  0  0  0  0  0  0  0
 21 22  1  0  0  0
 22 23  2  0  0  0
 22 24  2  0  0  0
 22 20  1  0  0  0
 20 19  1  0  0  0
 19 17  1  0  0  0
 17 16  1  0  0  0
 16 11  1  0  0  0
 11 12  2  0  0  0
 11 15  1  0  0  0
 12 13  1  0  0  0
 13 14  2  0  0  0
 14 15  1  0  0  0
 14  1  1  0  0  0
  1  2  1  0  0  0
  1 10  2  0  0  0
  2  3  2  0  0  0
  3  4  1  0  0  0
  4  5  2  0  0  0
  4  9  1  0  0  0
  5  6  1  0  0  0
  6  7  2  0  0  0
  7  8  1  0  0  0
  8 25  1  0  0  0
  8  9  2  0  0  0
 25 27  1  0  0  0
 27 28  2  0  0  0
 27 33  1  0  0  0
 28 29  1  0  0  0
 29 30  2  0  0  0
 30 34  1  0  0  0
 30 31  1  0  0  0
 34 35  1  0  0  0
 35 36  1  0  0  0
 36 37  2  0  0  0
 36 42  1  0  0  0
 37 38  1  0  0  0
 38 39  2  0  0  0
 39 40  1  0  0  0
 40 41  1  0  0  0
 40 42  2  0  0  0
 31 32  1  0  0  0
 31 33  2  0  0  0
  9 10  1  0  0  0
 17 18  1  0  0  0
 25 26  1  0  0  0
M  END
> <minimizedAffinity>
-11.02071

$$$$
1XKK_FMM_A_91


 42 46  0  0  0  0  0  0  0  0999 V2000
   16.4173   33.0699   37.9173 C   0  0  0  0  0  0  0  0  0  0  0  0
   15.0974   33.0798   37.4722 C   0  0  0  0  0  0  0  0  0  0  0  0
   14.7785   32.5070   36.2649 C   0  0  0  0  0  0  0  0  0  0  0  0
   15.7692   31.9212   35.4785 C   0  0  0  0  0  0  0  0  0  0  0  0
   15.4313   31.3490   34.2683 N   0  0  0  0  0  0  0  0  0  0  0  0
   16.4008   30.7656   33.4779 C   0  0  0  0  0  0  0  0  0  0  0  0
   17.7171   30.7506   33.8900 N   0  0  0  0  0  0  0  0  0  0  0  0
   18.0779   31.3184   35.0960 C   0  0  0  0  0  0  0  0  0  0  0  0
   17.0891   31.9120   35.9043 C   0  0  0  0  0  0  0  0  0  0  0  0
   17.4233   32.4838   37.1194 C   0  0  0  0  0  0  0  0  0  0  0  0
   16.6981   34.5023   41.1564 C   0  0  0  0  0  0  0  0  0  0  0  0
   17.9905   34.4881   40.7718 C   0  0  0  0  0  0  0  0  0  0  0  0
   18.0368   33.9667   39.5911 C   0  0  0  0  0  0  0  0  0  0  0  0
   16.7535   33.6518   39.2197 C   0  0  0  0  0  0  0  0  0  0  0  0
   15.7879   33.9524   40.1837 O   0  0  0  0  0  0  0  0  0  0  0  0
   16.2383   35.0458   42.4886 C   0  0  0  0  0  0  0  0  0  0  0  0
   17.0631   36.1999   42.8547 N   0  0  0  0  0  0  0  0  0  0  0  0
   18.0010   36.0823   42.4712 H   0  0  0  0  0  0  0  0  0  0  0  0
   17.1425   36.3037   44.3190 C   0  0  0  0  0  0  0  0  0  0  0  0
   15.7267   36.2755   44.9065 C   0  0  0  0  0  0  0  0  0  0  0  0
   13.9379   38.4088   45.8139 C   0  0  0  0  0  0  0  0  0  0  0  0
   14.8392   37.7825   44.4231 S   0  0  0  0  0  0  0  0  0  0  0  0
   15.7869   38.7807   43.9759 O   0  0  0  0  0  0  0  0  0  0  0  0
   13.9179   37.4751   43.3523 O   0  0  0  0  0  0  0  0  0  0  0  0
   19.4081   31.3023   35.5145 N   0  0  0  0  0  0  0  0  0  0  0  0
   19.6527   30.7710   36.3064 H   0  0  0  0  0  0  0  0  0  0  0  0
   20.4104   32.0214   34.8402 C   0  0  0  0  0  0  0  0  0  0  0  0
   20.7260   33.3221   35.2392 C   0  0  0  0  0  0  0  0  0  0  0  0
   21.7183   34.0286   34.5659 C   0  0  0  0  0  0  0  0  0  0  0  0
   22.3865   33.4344   33.5019 C   0  0  0  0  0  0  0  0  0  0  0  0
   22.0710   32.1649   33.1152 C   0  0  0  0  0  0  0  0  0  0  0  0
   22.9049   31.4752   31.8146 Cl  0  0  0  0  0  0  0  0  0  0  0  0
   21.0923   31.4506   33.7700 C   0  0  0  0  0  0  0  0  0  0  0  0
   23.4094   34.1240   32.7985 O   0  0  0  0  0  0  0  0  0  0  0  0
   24.7046   33.9966   33.4015 C   0  0  0  0  0  0  0  0  0  0  0  0
   25.8199   34.5357   32.4844 C   0  0  0  0  0  0  0  0  0  0  0  0
   26.0801   33.9005   31.2899 C   0  0  0  0  0  0  0  0  0  0  0  0
   27.0724   34.3765   30.4570 C   0  0  0  0  0  0  0  0  0  0  0  0
   27.8026   35.4894   30.8165 C   0  0  0  0  0  0  0  0  0  0  0  0
   27.5463   36.1278   32.0067 C   0  0  0  0  0  0  0  0  0  0  0  0
   28.2414   37.1905   32.3423 F   0  0  0  0  0  0  0  0  0  0  0  0
   26.5600   35.6583   32.8464 C   0  0  0  0  0  0  0  0  0  0  0  0
 21 22  1  0  0  0
 22 23  2  0  0  0
 22 24  2  0  0  0
 22 20  1  0  0  0
 20 19  1  0  0  0
 19 17  1  0  0  0
 17 16  1  0  0  0
 16 11  1  0  0  0
 11 12  2  0  0  0
 11 15  1  0  0  0
 12 13  1  0  0  0
 13 14  2  0  0  0
 14 15  1  0  0  0
 14  1  1  0  0  0
  1  2  1  0  0  0
  1 10  2  0  0  0
  2  3  2  0  0  0
  3  4  1  0  0  0
  4  5  2  0  0  0
  4  9  1  0  0  0
  5  6  1  0  0  0
  6  7  2  0  0  0
  7  8  1  0  0  0
  8 25  1  0  0  0
  8  9  2  0  0  0
 25 27  1  0  0  0
 27 28  2  0  0  0
 27 33  1  0  0  0
 28 29  1  0  0  0
 29 30  2  0  0  0
 30 34  1  0  0  0
 30 31  1  0  0  0
 34 35  1  0  0  0
 35 36  1  0  0  0
 36 37  2  0  0  0
 36 42  1  0  0  0
 37 38  1  0  0  0
 38 39  2  0  0  0
 39 40  1  0  0  0
 40 41  1  0  0  0
 40 42  2  0  0  0
 31 32  1  0  0  0
 31 33  2  0  0  0
  9 10  1  0  0  0
 17 18  1  0  0  0
 25 26  1  0  0  0
M  END
> <minimizedAffinity>
-9.94732

$$$$
1XKK_FMM_A_91


 42 46  0  0  0  0  0  0  0  0999 V2000
   16.8288   31.7237   34.8732 C   0  0  0  0  0  0  0  0  0  0  0  0
   15.6708   31.5432   34.1204 C   0  0  0  0  0  0  0  0  0  0  0  0
   14.4523   31.9026   34.6432 C   0  0  0  0  0  0  0  0  0  0  0  0
   14.3663   32.4413   35.9259 C   0  0  0  0  0  0  0  0  0  0  0  0
   13.1339   32.7983   36.4357 N   0  0  0  0  0  0  0  0  0  0  0  0
   13.0321   33.3322   37.7045 C   0  0  0  0  0  0  0  0  0  0  0  0
   14.1618   33.5126   38.4752 N   0  0  0  0  0  0  0  0  0  0  0  0
   15.4044   33.1612   37.9860 C   0  0  0  0  0  0  0  0  0  0  0  0
   15.5097   32.6183   36.6908 C   0  0  0  0  0  0  0  0  0  0  0  0
   16.7435   32.2621   36.1751 C   0  0  0  0  0  0  0  0  0  0  0  0
   19.7336   30.4435   33.2776 C   0  0  0  0  0  0  0  0  0  0  0  0
   20.2568   31.4782   33.9660 C   0  0  0  0  0  0  0  0  0  0  0  0
   19.2867   32.0547   34.5942 C   0  0  0  0  0  0  0  0  0  0  0  0
   18.1326   31.3708   34.3043 C   0  0  0  0  0  0  0  0  0  0  0  0
   18.3089   30.2927   33.4332 O   0  0  0  0  0  0  0  0  0  0  0  0
   20.5629   29.5197   32.4172 C   0  0  0  0  0  0  0  0  0  0  0  0
   20.9438   30.2134   31.1843 N   0  0  0  0  0  0  0  0  0  0  0  0
   20.3405   29.9059   30.4215 H   0  0  0  0  0  0  0  0  0  0  0  0
   22.3432   29.9035   30.8571 C   0  0  0  0  0  0  0  0  0  0  0  0
   23.2180   30.1455   32.0927 C   0  0  0  0  0  0  0  0  0  0  0  0
   23.9087   32.3708   33.8660 C   0  0  0  0  0  0  0  0  0  0  0  0
   23.6819   31.8978   32.1738 S   0  0  0  0  0  0  0  0  0  0  0  0
   24.9160   32.1065   31.4472 O   0  0  0  0  0  0  0  0  0  0  0  0
   22.6326   32.7004   31.5869 O   0  0  0  0  0  0  0  0  0  0  0  0
   16.5474   33.3448   38.7636 N   0  0  0  0  0  0  0  0  0  0  0  0
   17.4319   33.2484   38.3421 H   0  0  0  0  0  0  0  0  0  0  0  0
   16.4754   33.6633   40.1311 C   0  0  0  0  0  0  0  0  0  0  0  0
   17.1069   34.8108   40.6156 C   0  0  0  0  0  0  0  0  0  0  0  0
   17.0328   35.1190   41.9709 C   0  0  0  0  0  0  0  0  0  0  0  0
   16.3316   34.2820   42.8309 C   0  0  0  0  0  0  0  0  0  0  0  0
   15.7200   33.1610   42.3516 C   0  0  0  0  0  0  0  0  0  0  0  0
   14.8769   32.1654   43.4290 Cl  0  0  0  0  0  0  0  0  0  0  0  0
   15.7823   32.8405   41.0136 C   0  0  0  0  0  0  0  0  0  0  0  0
   16.2295   34.5711   44.2174 O   0  0  0  0  0  0  0  0  0  0  0  0
   14.9921   35.1985   44.5818 C   0  0  0  0  0  0  0  0  0  0  0  0
   15.1734   36.7024   44.8664 C   0  0  0  0  0  0  0  0  0  0  0  0
   16.4406   37.2428   44.8697 C   0  0  0  0  0  0  0  0  0  0  0  0
   16.6161   38.5891   45.1175 C   0  0  0  0  0  0  0  0  0  0  0  0
   15.5246   39.3962   45.3589 C   0  0  0  0  0  0  0  0  0  0  0  0
   14.2577   38.8625   45.3555 C   0  0  0  0  0  0  0  0  0  0  0  0
   13.2209   39.6364   45.5813 F   0  0  0  0  0  0  0  0  0  0  0  0
   14.0726   37.5190   45.1124 C   0  0  0  0  0  0  0  0  0  0  0  0
 21 22  1  0  0  0
 22 23  2  0  0  0
 22 24  2  0  0  0
 22 20  1  0  0  0
 20 19  1  0  0  0
 19 17  1  0  0  0
 17 16  1  0  0  0
 16 11  1  0  0  0
 11 12  2  0  0  0
 11 15  1  0  0  0
 12 13  1  0  0  0
 13 14  2  0  0  0
 14 15  1  0  0  0
 14  1  1  0  0  0
  1  2  1  0  0  0
  1 10  2  0  0  0
  2  3  2  0  0  0
  3  4  1  0  0  0
  4  5  2  0  0  0
  4  9  1  0  0  0
  5  6  1  0  0  0
  6  7  2  0  0  0
  7  8  1  0  0  0
  8 25  1  0  0  0
  8  9  2  0  0  0
 25 27  1  0  0  0
 27 28  2  0  0  0
 27 33  1  0  0  0
 28 29  1  0  0  0
 29 30  2  0  0  0
 30 34  1  0  0  0
 30 31  1  0  0  0
 34 35  1  0  0  0
 35 36  1  0  0  0
 36 37  2  0  0  0
 36 42  1  0  0  0
 37 38  1  0  0  0
 38 39  2  0  0  0
 39 40  1  0  0  0
 40 41  1  0  0  0
 40 42  2  0  0  0
 31 32  1  0  0  0
 31 33  2  0  0  0
  9 10  1  0  0  0
 17 18  1  0  0  0
 25 26  1  0  0  0
M  END
> <minimizedAffinity>
-9.92778

$$$$
1XKK_FMM_A_91


 42 46  0  0  0  0  0  0  0  0999 V2000
   18.3122   31.5733   34.5284 C   0  0  0  0  0  0  0  0  0  0  0  0
   17.4285   30.9555   33.6465 C   0  0  0  0  0  0  0  0  0  0  0  0
   16.0747   31.0394   33.8641 C   0  0  0  0  0  0  0  0  0  0  0  0
   15.5791   31.7338   34.9665 C   0  0  0  0  0  0  0  0  0  0  0  0
   14.2156   31.8093   35.1697 N   0  0  0  0  0  0  0  0  0  0  0  0
   13.7094   32.4926   36.2569 C   0  0  0  0  0  0  0  0  0  0  0  0
   14.5623   33.1053   37.1512 N   0  0  0  0  0  0  0  0  0  0  0  0
   15.9296   33.0413   36.9683 C   0  0  0  0  0  0  0  0  0  0  0  0
   16.4471   32.3462   35.8582 C   0  0  0  0  0  0  0  0  0  0  0  0
   17.8131   32.2709   35.6492 C   0  0  0  0  0  0  0  0  0  0  0  0
   21.7945   31.9653   33.9437 C   0  0  0  0  0  0  0  0  0  0  0  0
   21.6638   30.6295   33.8141 C   0  0  0  0  0  0  0  0  0  0  0  0
   20.4221   30.3407   34.0212 C   0  0  0  0  0  0  0  0  0  0  0  0
   19.7551   31.5121   34.2795 C   0  0  0  0  0  0  0  0  0  0  0  0
   20.5672   32.6489   34.2651 O   0  0  0  0  0  0  0  0  0  0  0  0
   23.1093   32.6878   33.7683 C   0  0  0  0  0  0  0  0  0  0  0  0
   23.1988   33.7797   34.7409 N   0  0  0  0  0  0  0  0  0  0  0  0
   24.0482   34.3180   34.5700 H   0  0  0  0  0  0  0  0  0  0  0  0
   23.2362   33.2251   36.1019 C   0  0  0  0  0  0  0  0  0  0  0  0
   22.3920   34.1051   37.0311 C   0  0  0  0  0  0  0  0  0  0  0  0
   21.6172   31.3561   37.6763 C   0  0  0  0  0  0  0  0  0  0  0  0
   21.4194   33.0533   38.1446 S   0  0  0  0  0  0  0  0  0  0  0  0
   21.8789   33.2328   39.5052 O   0  0  0  0  0  0  0  0  0  0  0  0
   20.0235   33.4177   38.0527 O   0  0  0  0  0  0  0  0  0  0  0  0
   16.7928   33.6619   37.8709 N   0  0  0  0  0  0  0  0  0  0  0  0
   17.6844   33.9430   37.5621 H   0  0  0  0  0  0  0  0  0  0  0  0
   16.4288   33.8985   39.2080 C   0  0  0  0  0  0  0  0  0  0  0  0
   17.1052   33.2477   40.2421 C   0  0  0  0  0  0  0  0  0  0  0  0
   16.7383   33.4854   41.5635 C   0  0  0  0  0  0  0  0  0  0  0  0
   15.7017   34.3679   41.8431 C   0  0  0  0  0  0  0  0  0  0  0  0
   15.0429   34.9977   40.8281 C   0  0  0  0  0  0  0  0  0  0  0  0
   13.7851   36.0640   41.2071 Cl  0  0  0  0  0  0  0  0  0  0  0  0
   15.3925   34.7750   39.5148 C   0  0  0  0  0  0  0  0  0  0  0  0
   15.3073   34.6394   43.1800 O   0  0  0  0  0  0  0  0  0  0  0  0
   16.1988   35.5253   43.8712 C   0  0  0  0  0  0  0  0  0  0  0  0
   15.4756   36.7906   44.3728 C   0  0  0  0  0  0  0  0  0  0  0  0
   14.1001   36.7984   44.4500 C   0  0  0  0  0  0  0  0  0  0  0  0
   13.4407   37.9231   44.9029 C   0  0  0  0  0  0  0  0  0  0  0  0
   14.1562   39.0391   45.2817 C   0  0  0  0  0  0  0  0  0  0  0  0
   15.5289   39.0364   45.2078 C   0  0  0  0  0  0  0  0  0  0  0  0
   16.2061   40.1003   45.5744 F   0  0  0  0  0  0  0  0  0  0  0  0
   16.1961   37.9196   44.7540 C   0  0  0  0  0  0  0  0  0  0  0  0
 21 22  1  0  0  0
 22 23  2  0  0  0
 22 24  2  0  0  0
 22 20  1  0  0  0
 20 19  1  0  0  0
 19 17  1  0  0  0
 17 16  1  0  0  0
 16 11  1  0  0  0
 11 12  2  0  0  0
 11 15  1  0  0  0
 12 13  1  0  0  0
 13 14  2  0  0  0
 14 15  1  0  0  0
 14  1  1  0  0  0
  1  2  1  0  0  0
  1 10  2  0  0  0
  2  3  2  0  0  0
  3  4  1  0  0  0
  4  5  2  0  0  0
  4  9  1  0  0  0
  5  6  1  0  0  0
  6  7  2  0  0  0
  7  8  1  0  0  0
  8 25  1  0  0  0
  8  9  2  0  0  0
 25 27  1  0  0  0
 27 28  2  0  0  0
 27 33  1  0  0  0
 28 29  1  0  0  0
 29 30  2  0  0  0
 30 34  1  0  0  0
 30 31  1  0  0  0
 34 35  1  0  0  0
 35 36  1  0  0  0
 36 37  2  0  0  0
 36 42  1  0  0  0
 37 38  1  0  0  0
 38 39  2  0  0  0
 39 40  1  0  0  0
 40 41  1  0  0  0
 40 42  2  0  0  0
 31 32  1  0  0  0
 31 33  2  0  0  0
  9 10  1  0  0  0
 17 18  1  0  0  0
 25 26  1  0  0  0
M  END
> <minimizedAffinity>
-9.89477

$$$$
1XKK_FMM_A_91


 42 46  0  0  0  0  0  0  0  0999 V2000
   19.1298   33.6140   38.3250 C   0  0  0  0  0  0  0  0  0  0  0  0
   20.1045   34.5868   38.5345 C   0  0  0  0  0  0  0  0  0  0  0  0
   21.2902   34.5269   37.8432 C   0  0  0  0  0  0  0  0  0  0  0  0
   21.5272   33.4942   36.9375 C   0  0  0  0  0  0  0  0  0  0  0  0
   22.7238   33.4495   36.2501 N   0  0  0  0  0  0  0  0  0  0  0  0
   22.9738   32.4330   35.3505 C   0  0  0  0  0  0  0  0  0  0  0  0
   22.0299   31.4513   35.1312 N   0  0  0  0  0  0  0  0  0  0  0  0
   20.8268   31.4754   35.8087 C   0  0  0  0  0  0  0  0  0  0  0  0
   20.5698   32.5133   36.7253 C   0  0  0  0  0  0  0  0  0  0  0  0
   19.3704   32.5634   37.4138 C   0  0  0  0  0  0  0  0  0  0  0  0
   16.3241   33.9859   40.4725 C   0  0  0  0  0  0  0  0  0  0  0  0
   15.7424   33.4360   39.3873 C   0  0  0  0  0  0  0  0  0  0  0  0
   16.6661   33.2575   38.5024 C   0  0  0  0  0  0  0  0  0  0  0  0
   17.8518   33.6950   39.0377 C   0  0  0  0  0  0  0  0  0  0  0  0
   17.7411   34.2077   40.3326 O   0  0  0  0  0  0  0  0  0  0  0  0
   15.5624   34.3402   41.7278 C   0  0  0  0  0  0  0  0  0  0  0  0
   16.2224   35.4638   42.3972 N   0  0  0  0  0  0  0  0  0  0  0  0
   17.0823   35.6973   41.9007 H   0  0  0  0  0  0  0  0  0  0  0  0
   16.5430   35.0920   43.7830 C   0  0  0  0  0  0  0  0  0  0  0  0
   15.3819   35.4982   44.6981 C   0  0  0  0  0  0  0  0  0  0  0  0
   14.1274   37.9299   45.7408 C   0  0  0  0  0  0  0  0  0  0  0  0
   14.8676   37.1943   44.3091 S   0  0  0  0  0  0  0  0  0  0  0  0
   16.0220   37.9717   43.9121 O   0  0  0  0  0  0  0  0  0  0  0  0
   13.9060   37.1693   43.2300 O   0  0  0  0  0  0  0  0  0  0  0  0
   19.8710   30.4845   35.5865 N   0  0  0  0  0  0  0  0  0  0  0  0
   19.8211   29.7220   36.2073 H   0  0  0  0  0  0  0  0  0  0  0  0
   18.9766   30.5410   34.5033 C   0  0  0  0  0  0  0  0  0  0  0  0
   19.4167   30.2244   33.2163 C   0  0  0  0  0  0  0  0  0  0  0  0
   18.5261   30.2842   32.1484 C   0  0  0  0  0  0  0  0  0  0  0  0
   17.2065   30.6590   32.3714 C   0  0  0  0  0  0  0  0  0  0  0  0
   16.7840   30.9703   33.6305 C   0  0  0  0  0  0  0  0  0  0  0  0
   15.1707   31.4239   33.8629 Cl  0  0  0  0  0  0  0  0  0  0  0  0
   17.6511   30.9162   34.6992 C   0  0  0  0  0  0  0  0  0  0  0  0
   16.2699   30.7226   31.3059 O   0  0  0  0  0  0  0  0  0  0  0  0
   16.4840   29.7273   30.2954 C   0  0  0  0  0  0  0  0  0  0  0  0
   16.7133   30.3583   28.9080 C   0  0  0  0  0  0  0  0  0  0  0  0
   17.4090   29.6534   27.9504 C   0  0  0  0  0  0  0  0  0  0  0  0
   17.6163   30.2049   26.7023 C   0  0  0  0  0  0  0  0  0  0  0  0
   17.1254   31.4597   26.4102 C   0  0  0  0  0  0  0  0  0  0  0  0
   16.4294   32.1670   27.3615 C   0  0  0  0  0  0  0  0  0  0  0  0
   15.9597   33.3600   27.0767 F   0  0  0  0  0  0  0  0  0  0  0  0
   16.2202   31.6264   28.6115 C   0  0  0  0  0  0  0  0  0  0  0  0
 21 22  1  0  0  0
 22 23  2  0  0  0
 22 24  2  0  0  0
 22 20  1  0  0  0
 20 19  1  0  0  0
 19 17  1  0  0  0
 17 16  1  0  0  0
 16 11  1  0  0  0
 11 12  2  0  0  0
 11 15  1  0  0  0
 12 13  1  0  0  0
 13 14  2  0  0  0
 14 15  1  0  0  0
 14  1  1  0  0  0
  1  2  1  0  0  0
  1 10  2  0  0  0
  2  3  2  0  0  0
  3  4  1  0  0  0
  4  5  2  0  0  0
  4  9  1  0  0  0
  5  6  1  0  0  0
  6  7  2  0  0  0
  7  8  1  0  0  0
  8 25  1  0  0  0
  8  9  2  0  0  0
 25 27  1  0  0  0
 27 28  2  0  0  0
 27 33  1  0  0  0
 28 29  1  0  0  0
 29 30  2  0  0  0
 30 34  1  0  0  0
 30 31  1  0  0  0
 34 35  1  0  0  0
 35 36  1  0  0  0
 36 37  2  0  0  0
 36 42  1  0  0  0
 37 38  1  0  0  0
 38 39  2  0  0  0
 39 40  1  0  0  0
 40 41  1  0  0  0
 40 42  2  0  0  0
 31 32  1  0  0  0
 31 33  2  0  0  0
  9 10  1  0  0  0
 17 18  1  0  0  0
 25 26  1  0  0  0
M  END
> <minimizedAffinity>
-9.87945

$$$$
1XKK_FMM_A_91


 42 46  0  0  0  0  0  0  0  0999 V2000
   16.2465   33.1130   38.1170 C   0  0  0  0  0  0  0  0  0  0  0  0
   14.9772   33.4340   37.6414 C   0  0  0  0  0  0  0  0  0  0  0  0
   14.5701   32.9724   36.4133 C   0  0  0  0  0  0  0  0  0  0  0  0
   15.4222   32.1896   35.6360 C   0  0  0  0  0  0  0  0  0  0  0  0
   14.9968   31.7329   34.4045 N   0  0  0  0  0  0  0  0  0  0  0  0
   15.8291   30.9574   33.6228 C   0  0  0  0  0  0  0  0  0  0  0  0
   17.0947   30.6328   34.0651 N   0  0  0  0  0  0  0  0  0  0  0  0
   17.5414   31.0800   35.2929 C   0  0  0  0  0  0  0  0  0  0  0  0
   16.6922   31.8695   36.0923 C   0  0  0  0  0  0  0  0  0  0  0  0
   17.1138   32.3266   37.3287 C   0  0  0  0  0  0  0  0  0  0  0  0
   16.7444   34.2732   41.4378 C   0  0  0  0  0  0  0  0  0  0  0  0
   18.0144   34.2449   40.9854 C   0  0  0  0  0  0  0  0  0  0  0  0
   17.9813   33.8176   39.7670 C   0  0  0  0  0  0  0  0  0  0  0  0
   16.6698   33.5777   39.4409 C   0  0  0  0  0  0  0  0  0  0  0  0
   15.7661   33.8341   40.4751 O   0  0  0  0  0  0  0  0  0  0  0  0
   16.3734   34.7248   42.8306 C   0  0  0  0  0  0  0  0  0  0  0  0
   17.5037   35.4402   43.4281 N   0  0  0  0  0  0  0  0  0  0  0  0
   18.1495   34.7685   43.8432 H   0  0  0  0  0  0  0  0  0  0  0  0
   17.0128   36.3549   44.4691 C   0  0  0  0  0  0  0  0  0  0  0  0
   15.5008   36.1657   44.6379 C   0  0  0  0  0  0  0  0  0  0  0  0
   13.1676   37.6911   43.7417 C   0  0  0  0  0  0  0  0  0  0  0  0
   14.6845   37.7862   44.6520 S   0  0  0  0  0  0  0  0  0  0  0  0
   14.4019   38.1746   46.0172 O   0  0  0  0  0  0  0  0  0  0  0  0
   15.5522   38.7667   44.0391 O   0  0  0  0  0  0  0  0  0  0  0  0
   18.8200   30.7510   35.7420 N   0  0  0  0  0  0  0  0  0  0  0  0
   19.0421   29.8047   35.8982 H   0  0  0  0  0  0  0  0  0  0  0  0
   19.8017   31.7293   35.9784 C   0  0  0  0  0  0  0  0  0  0  0  0
   20.2101   32.0082   37.2845 C   0  0  0  0  0  0  0  0  0  0  0  0
   21.1812   32.9792   37.5111 C   0  0  0  0  0  0  0  0  0  0  0  0
   21.7359   33.6636   36.4361 C   0  0  0  0  0  0  0  0  0  0  0  0
   21.3300   33.3886   35.1632 C   0  0  0  0  0  0  0  0  0  0  0  0
   22.0269   34.2433   33.8801 Cl  0  0  0  0  0  0  0  0  0  0  0  0
   20.3707   32.4308   34.9200 C   0  0  0  0  0  0  0  0  0  0  0  0
   22.7344   34.6543   36.6313 O   0  0  0  0  0  0  0  0  0  0  0  0
   23.9537   34.1376   37.1822 C   0  0  0  0  0  0  0  0  0  0  0  0
   24.3254   34.8336   38.5063 C   0  0  0  0  0  0  0  0  0  0  0  0
   23.4721   34.7386   39.5837 C   0  0  0  0  0  0  0  0  0  0  0  0
   23.7959   35.3526   40.7766 C   0  0  0  0  0  0  0  0  0  0  0  0
   24.9743   36.0587   40.8938 C   0  0  0  0  0  0  0  0  0  0  0  0
   25.8300   36.1557   39.8223 C   0  0  0  0  0  0  0  0  0  0  0  0
   26.9536   36.8255   39.9405 F   0  0  0  0  0  0  0  0  0  0  0  0
   25.5140   35.5491   38.6262 C   0  0  0  0  0  0  0  0  0  0  0  0
 21 22  1  0  0  0
 22 23  2  0  0  0
 22 24  2  0  0  0
 22 20  1  0  0  0
 20 19  1  0  0  0
 19 17  1  0  0  0
 17 16  1  0  0  0
 16 11  1  0  0  0
 11 12  2  0  0  0
 11 15  1  0  0  0
 12 13  1  0  0  0
 13 14  2  0  0  0
 14 15  1  0  0  0
 14  1  1  0  0  0
  1  2  1  0  0  0
  1 10  2  0  0  0
  2  3  2  0  0  0
  3  4  1  0  0  0
  4  5  2  0  0  0
  4  9  1  0  0  0
  5  6  1  0  0  0
  6  7  2  0  0  0
  7  8  1  0  0  0
  8 25  1  0  0  0
  8  9  2  0  0  0
 25 27  1  0  0  0
 27 28  2  0  0  0
 27 33  1  0  0  0
 28 29  1  0  0  0
 29 30  2  0  0  0
 30 34  1  0  0  0
 30 31  1  0  0  0
 34 35  1  0  0  0
 35 36  1  0  0  0
 36 37  2  0  0  0
 36 42  1  0  0  0
 37 38  1  0  0  0
 38 39  2  0  0  0
 39 40  1  0  0  0
 40 41  1  0  0  0
 40 42  2  0  0  0
 31 32  1  0  0  0
 31 33  2  0  0  0
  9 10  1  0  0  0
 17 18  1  0  0  0
 25 26  1  0  0  0
M  END
> <minimizedAffinity>
-9.72840

$$$$
1XKK_FMM_A_91


 42 46  0  0  0  0  0  0  0  0999 V2000
   16.1368   33.3193   38.1626 C   0  0  0  0  0  0  0  0  0  0  0  0
   15.1538   32.3975   37.8102 C   0  0  0  0  0  0  0  0  0  0  0  0
   15.1649   31.8305   36.5590 C   0  0  0  0  0  0  0  0  0  0  0  0
   16.1506   32.1769   35.6363 C   0  0  0  0  0  0  0  0  0  0  0  0
   16.1478   31.5967   34.3834 N   0  0  0  0  0  0  0  0  0  0  0  0
   17.1167   31.9298   33.4585 C   0  0  0  0  0  0  0  0  0  0  0  0
   18.0961   32.8471   33.7778 N   0  0  0  0  0  0  0  0  0  0  0  0
   18.1173   33.4408   35.0244 C   0  0  0  0  0  0  0  0  0  0  0  0
   17.1305   33.1001   35.9697 C   0  0  0  0  0  0  0  0  0  0  0  0
   17.1317   33.6770   37.2276 C   0  0  0  0  0  0  0  0  0  0  0  0
   16.6792   34.5881   41.4364 C   0  0  0  0  0  0  0  0  0  0  0  0
   15.3502   34.7770   41.3075 C   0  0  0  0  0  0  0  0  0  0  0  0
   15.0133   34.3638   40.1312 C   0  0  0  0  0  0  0  0  0  0  0  0
   16.1450   33.9003   39.5080 C   0  0  0  0  0  0  0  0  0  0  0  0
   17.3075   34.0109   40.2750 O   0  0  0  0  0  0  0  0  0  0  0  0
   17.4475   34.9479   42.6861 C   0  0  0  0  0  0  0  0  0  0  0  0
   17.1758   36.3433   43.0402 N   0  0  0  0  0  0  0  0  0  0  0  0
   17.9359   36.9336   42.7023 H   0  0  0  0  0  0  0  0  0  0  0  0
   17.0708   36.4690   44.5012 C   0  0  0  0  0  0  0  0  0  0  0  0
   15.5976   36.3697   44.9138 C   0  0  0  0  0  0  0  0  0  0  0  0
   13.8595   38.5618   45.7785 C   0  0  0  0  0  0  0  0  0  0  0  0
   14.7193   37.8696   44.3928 S   0  0  0  0  0  0  0  0  0  0  0  0
   15.6695   38.8361   43.8855 O   0  0  0  0  0  0  0  0  0  0  0  0
   13.7691   37.5343   43.3562 O   0  0  0  0  0  0  0  0  0  0  0  0
   19.1081   34.3670   35.3489 N   0  0  0  0  0  0  0  0  0  0  0  0
   18.8697   35.3205   35.4061 H   0  0  0  0  0  0  0  0  0  0  0  0
   20.4370   33.9808   35.5969 C   0  0  0  0  0  0  0  0  0  0  0  0
   21.1677   33.3165   34.6094 C   0  0  0  0  0  0  0  0  0  0  0  0
   22.4822   32.9357   34.8626 C   0  0  0  0  0  0  0  0  0  0  0  0
   23.0567   33.2191   36.0960 C   0  0  0  0  0  0  0  0  0  0  0  0
   22.3364   33.8653   37.0574 C   0  0  0  0  0  0  0  0  0  0  0  0
   23.0689   34.1917   38.5471 Cl  0  0  0  0  0  0  0  0  0  0  0  0
   21.0346   34.2500   36.8244 C   0  0  0  0  0  0  0  0  0  0  0  0
   24.3978   32.8519   36.3844 O   0  0  0  0  0  0  0  0  0  0  0  0
   25.1408   32.4429   35.2276 C   0  0  0  0  0  0  0  0  0  0  0  0
   26.1514   33.5191   34.7848 C   0  0  0  0  0  0  0  0  0  0  0  0
   27.1678   33.8857   35.6393 C   0  0  0  0  0  0  0  0  0  0  0  0
   28.0826   34.8442   35.2526 C   0  0  0  0  0  0  0  0  0  0  0  0
   27.9833   35.4339   34.0103 C   0  0  0  0  0  0  0  0  0  0  0  0
   26.9718   35.0710   33.1531 C   0  0  0  0  0  0  0  0  0  0  0  0
   26.8845   35.6323   31.9689 F   0  0  0  0  0  0  0  0  0  0  0  0
   26.0518   34.1176   33.5313 C   0  0  0  0  0  0  0  0  0  0  0  0
 21 22  1  0  0  0
 22 23  2  0  0  0
 22 24  2  0  0  0
 22 20  1  0  0  0
 20 19  1  0  0  0
 19 17  1  0  0  0
 17 16  1  0  0  0
 16 11  1  0  0  0
 11 12  2  0  0  0
 11 15  1  0  0  0
 12 13  1  0  0  0
 13 14  2  0  0  0
 14 15  1  0  0  0
 14  1  1  0  0  0
  1  2  1  0  0  0
  1 10  2  0  0  0
  2  3  2  0  0  0
  3  4  1  0  0  0
  4  5  2  0  0  0
  4  9  1  0  0  0
  5  6  1  0  0  0
  6  7  2  0  0  0
  7  8  1  0  0  0
  8 25  1  0  0  0
  8  9  2  0  0  0
 25 27  1  0  0  0
 27 28  2  0  0  0
 27 33  1  0  0  0
 28 29  1  0  0  0
 29 30  2  0  0  0
 30 34  1  0  0  0
 30 31  1  0  0  0
 34 35  1  0  0  0
 35 36  1  0  0  0
 36 37  2  0  0  0
 36 42  1  0  0  0
 37 38  1  0  0  0
 38 39  2  0  0  0
 39 40  1  0  0  0
 40 41  1  0  0  0
 40 42  2  0  0  0
 31 32  1  0  0  0
 31 33  2  0  0  0
  9 10  1  0  0  0
 17 18  1  0  0  0
 25 26  1  0  0  0
M  END
> <minimizedAffinity>
-9.67215

$$$$
1XKK_FMM_A_91


 42 46  0  0  0  0  0  0  0  0999 V2000
   18.6943   31.7443   35.3640 C   0  0  0  0  0  0  0  0  0  0  0  0
   17.7497   31.2338   34.4766 C   0  0  0  0  0  0  0  0  0  0  0  0
   16.4103   31.3903   34.7389 C   0  0  0  0  0  0  0  0  0  0  0  0
   15.9898   32.0513   35.8918 C   0  0  0  0  0  0  0  0  0  0  0  0
   14.6398   32.2008   36.1397 N   0  0  0  0  0  0  0  0  0  0  0  0
   14.2076   32.8524   37.2771 C   0  0  0  0  0  0  0  0  0  0  0  0
   15.1215   33.3590   38.1776 N   0  0  0  0  0  0  0  0  0  0  0  0
   16.4765   33.2195   37.9505 C   0  0  0  0  0  0  0  0  0  0  0  0
   16.9187   32.5568   36.7892 C   0  0  0  0  0  0  0  0  0  0  0  0
   18.2710   32.4077   36.5356 C   0  0  0  0  0  0  0  0  0  0  0  0
   22.0375   31.6260   34.1676 C   0  0  0  0  0  0  0  0  0  0  0  0
   22.1705   31.0025   35.3559 C   0  0  0  0  0  0  0  0  0  0  0  0
   21.0075   30.9884   35.9173 C   0  0  0  0  0  0  0  0  0  0  0  0
   20.1232   31.6066   35.0690 C   0  0  0  0  0  0  0  0  0  0  0  0
   20.6983   32.0778   33.8861 O   0  0  0  0  0  0  0  0  0  0  0  0
   23.1875   31.8353   33.2110 C   0  0  0  0  0  0  0  0  0  0  0  0
   22.6707   32.3060   31.9235 N   0  0  0  0  0  0  0  0  0  0  0  0
   22.5155   31.5078   31.3077 H   0  0  0  0  0  0  0  0  0  0  0  0
   23.6441   33.2186   31.3061 C   0  0  0  0  0  0  0  0  0  0  0  0
   24.1477   34.2111   32.3605 C   0  0  0  0  0  0  0  0  0  0  0  0
   26.4855   34.0655   30.6035 C   0  0  0  0  0  0  0  0  0  0  0  0
   25.9568   34.3211   32.2750 S   0  0  0  0  0  0  0  0  0  0  0  0
   26.3842   35.6306   32.7190 O   0  0  0  0  0  0  0  0  0  0  0  0
   26.5406   33.3072   33.1241 O   0  0  0  0  0  0  0  0  0  0  0  0
   17.4015   33.7328   38.8593 N   0  0  0  0  0  0  0  0  0  0  0  0
   18.3041   33.9647   38.5418 H   0  0  0  0  0  0  0  0  0  0  0  0
   17.0846   33.9293   40.2148 C   0  0  0  0  0  0  0  0  0  0  0  0
   17.6081   35.0258   40.9032 C   0  0  0  0  0  0  0  0  0  0  0  0
   17.2914   35.2131   42.2455 C   0  0  0  0  0  0  0  0  0  0  0  0
   16.4573   34.3071   42.8899 C   0  0  0  0  0  0  0  0  0  0  0  0
   15.9521   33.2363   42.2126 C   0  0  0  0  0  0  0  0  0  0  0  0
   14.9414   32.1539   43.0309 Cl  0  0  0  0  0  0  0  0  0  0  0  0
   16.2543   33.0354   40.8840 C   0  0  0  0  0  0  0  0  0  0  0  0
   16.1076   34.4727   44.2563 O   0  0  0  0  0  0  0  0  0  0  0  0
   16.7605   35.5853   44.8835 C   0  0  0  0  0  0  0  0  0  0  0  0
   15.9118   36.8693   44.8013 C   0  0  0  0  0  0  0  0  0  0  0  0
   16.4843   38.0807   45.1217 C   0  0  0  0  0  0  0  0  0  0  0  0
   15.7368   39.2385   45.0468 C   0  0  0  0  0  0  0  0  0  0  0  0
   14.4179   39.1860   44.6486 C   0  0  0  0  0  0  0  0  0  0  0  0
   13.8419   37.9800   44.3266 C   0  0  0  0  0  0  0  0  0  0  0  0
   12.5865   37.9359   43.9432 F   0  0  0  0  0  0  0  0  0  0  0  0
   14.5789   36.8183   44.4014 C   0  0  0  0  0  0  0  0  0  0  0  0
 21 22  1  0  0  0
 22 23  2  0  0  0
 22 24  2  0  0  0
 22 20  1  0  0  0
 20 19  1  0  0  0
 19 17  1  0  0  0
 17 16  1  0  0  0
 16 11  1  0  0  0
 11 12  2  0  0  0
 11 15  1  0  0  0
 12 13  1  0  0  0
 13 14  2  0  0  0
 14 15  1  0  0  0
 14  1  1  0  0  0
  1  2  1  0  0  0
  1 10  2  0  0  0
  2  3  2  0  0  0
  3  4  1  0  0  0
  4  5  2  0  0  0
  4  9  1  0  0  0
  5  6  1  0  0  0
  6  7  2  0  0  0
  7  8  1  0  0  0
  8 25  1  0  0  0
  8  9  2  0  0  0
 25 27  1  0  0  0
 27 28  2  0  0  0
 27 33  1  0  0  0
 28 29  1  0  0  0
 29 30  2  0  0  0
 30 34  1  0  0  0
 30 31  1  0  0  0
 34 35  1  0  0  0
 35 36  1  0  0  0
 36 37  2  0  0  0
 36 42  1  0  0  0
 37 38  1  0  0  0
 38 39  2  0  0  0
 39 40  1  0  0  0
 40 41  1  0  0  0
 40 42  2  0  0  0
 31 32  1  0  0  0
 31 33  2  0  0  0
  9 10  1  0  0  0
 17 18  1  0  0  0
 25 26  1  0  0  0
M  END
> <minimizedAffinity>
-9.53985

$$$$
1XKK_FMM_A_91


 42 46  0  0  0  0  0  0  0  0999 V2000
   15.6985   33.2893   38.9522 C   0  0  0  0  0  0  0  0  0  0  0  0
   14.3875   33.5415   38.5547 C   0  0  0  0  0  0  0  0  0  0  0  0
   13.9562   33.1274   37.3179 C   0  0  0  0  0  0  0  0  0  0  0  0
   14.8246   32.4617   36.4545 C   0  0  0  0  0  0  0  0  0  0  0  0
   14.3746   32.0513   35.2154 N   0  0  0  0  0  0  0  0  0  0  0  0
   15.2225   31.3916   34.3488 C   0  0  0  0  0  0  0  0  0  0  0  0
   16.5284   31.1375   34.7132 N   0  0  0  0  0  0  0  0  0  0  0  0
   17.0003   31.5403   35.9470 C   0  0  0  0  0  0  0  0  0  0  0  0
   16.1354   32.2116   36.8328 C   0  0  0  0  0  0  0  0  0  0  0  0
   16.5818   32.6217   38.0768 C   0  0  0  0  0  0  0  0  0  0  0  0
   16.3255   34.0845   42.3576 C   0  0  0  0  0  0  0  0  0  0  0  0
   17.3963   34.6490   41.7634 C   0  0  0  0  0  0  0  0  0  0  0  0
   17.3018   34.4179   40.4963 C   0  0  0  0  0  0  0  0  0  0  0  0
   16.1504   33.7017   40.2840 C   0  0  0  0  0  0  0  0  0  0  0  0
   15.4314   33.4148   41.4471 O   0  0  0  0  0  0  0  0  0  0  0  0
   16.0790   34.1454   43.8465 C   0  0  0  0  0  0  0  0  0  0  0  0
   16.0606   35.5446   44.2804 N   0  0  0  0  0  0  0  0  0  0  0  0
   16.0262   35.5839   45.2990 H   0  0  0  0  0  0  0  0  0  0  0  0
   14.8773   36.2171   43.7243 C   0  0  0  0  0  0  0  0  0  0  0  0
   14.1128   36.9148   44.8553 C   0  0  0  0  0  0  0  0  0  0  0  0
   16.0304   39.0675   45.3678 C   0  0  0  0  0  0  0  0  0  0  0  0
   14.4028   38.7039   44.7699 S   0  0  0  0  0  0  0  0  0  0  0  0
   14.2845   39.1491   43.3979 O   0  0  0  0  0  0  0  0  0  0  0  0
   13.4264   39.3885   45.5872 O   0  0  0  0  0  0  0  0  0  0  0  0
   18.3199   31.2824   36.3171 N   0  0  0  0  0  0  0  0  0  0  0  0
   18.5058   30.5370   36.9327 H   0  0  0  0  0  0  0  0  0  0  0  0
   19.3928   32.0544   35.8382 C   0  0  0  0  0  0  0  0  0  0  0  0
   19.8629   31.8664   34.5366 C   0  0  0  0  0  0  0  0  0  0  0  0
   20.9266   32.6331   34.0698 C   0  0  0  0  0  0  0  0  0  0  0  0
   21.5125   33.5789   34.9028 C   0  0  0  0  0  0  0  0  0  0  0  0
   21.0506   33.7551   36.1741 C   0  0  0  0  0  0  0  0  0  0  0  0
   21.7901   34.9149   37.1593 Cl  0  0  0  0  0  0  0  0  0  0  0  0
   19.9988   33.0059   36.6528 C   0  0  0  0  0  0  0  0  0  0  0  0
   22.5940   34.3834   34.4557 O   0  0  0  0  0  0  0  0  0  0  0  0
   23.8595   33.7088   34.4847 C   0  0  0  0  0  0  0  0  0  0  0  0
   24.5818   33.7854   33.1252 C   0  0  0  0  0  0  0  0  0  0  0  0
   23.9013   33.4439   31.9770 C   0  0  0  0  0  0  0  0  0  0  0  0
   24.5349   33.5136   30.7528 C   0  0  0  0  0  0  0  0  0  0  0  0
   25.8477   33.9277   30.6759 C   0  0  0  0  0  0  0  0  0  0  0  0
   26.5311   34.2708   31.8183 C   0  0  0  0  0  0  0  0  0  0  0  0
   27.7801   34.6692   31.7391 F   0  0  0  0  0  0  0  0  0  0  0  0
   25.9083   34.2014   33.0453 C   0  0  0  0  0  0  0  0  0  0  0  0
 21 22  1  0  0  0
 22 23  2  0  0  0
 22 24  2  0  0  0
 22 20  1  0  0  0
 20 19  1  0  0  0
 19 17  1  0  0  0
 17 16  1  0  0  0
 16 11  1  0  0  0
 11 12  2  0  0  0
 11 15  1  0  0  0
 12 13  1  0  0  0
 13 14  2  0  0  0
 14 15  1  0  0  0
 14  1  1  0  0  0
  1  2  1  0  0  0
  1 10  2  0  0  0
  2  3  2  0  0  0
  3  4  1  0  0  0
  4  5  2  0  0  0
  4  9  1  0  0  0
  5  6  1  0  0  0
  6  7  2  0  0  0
  7  8  1  0  0  0
  8 25  1  0  0  0
  8  9  2  0  0  0
 25 27  1  0  0  0
 27 28  2  0  0  0
 27 33  1  0  0  0
 28 29  1  0  0  0
 29 30  2  0  0  0
 30 34  1  0  0  0
 30 31  1  0  0  0
 34 35  1  0  0  0
 35 36  1  0  0  0
 36 37  2  0  0  0
 36 42  1  0  0  0
 37 38  1  0  0  0
 38 39  2  0  0  0
 39 40  1  0  0  0
 40 41  1  0  0  0
 40 42  2  0  0  0
 31 32  1  0  0  0
 31 33  2  0  0  0
  9 10  1  0  0  0
 17 18  1  0  0  0
 25 26  1  0  0  0
M  END
> <minimizedAffinity>
-9.48478

$$$$
