3RYY_RYY_A_262


 19 19  0  0  0  0  0  0  0  0999 V2000
   16.4943    4.8887   14.7976 C   0  0  0  0  0  0  0  0  0  0  0  0
   17.3217    3.7838   15.0837 C   0  0  0  0  0  0  0  0  0  0  0  0
   16.8103    2.7167   15.8237 C   0  0  0  0  0  0  0  0  0  0  0  0
   15.4542    2.7264   16.2651 C   0  0  0  0  0  0  0  0  0  0  0  0
   14.6528    3.8368   15.9539 C   0  0  0  0  0  0  0  0  0  0  0  0
   15.1544    4.9088   15.2356 C   0  0  0  0  0  0  0  0  0  0  0  0
   14.8260    1.4182   17.2250 S   0  0  0  0  0  0  0  0  0  0  0  0
   13.4652    1.1904   16.7560 O   0  0  0  0  0  0  0  0  0  0  0  0
   15.0035    1.8633   18.6099 O   0  0  0  0  0  0  0  0  0  0  0  0
   15.7278    0.1448   16.9267 N   0  0  0  0  0  0  0  0  0  0  0  0
   16.6771    0.3151   17.2588 H   0  0  0  0  0  0  0  0  0  0  0  0
   15.7455   -0.0316   15.9223 H   0  0  0  0  0  0  0  0  0  0  0  0
   18.1678    6.5974   14.5143 N   0  0  0  0  0  0  0  0  0  0  0  0
   17.0986    6.0378   14.0331 C   0  0  0  0  0  0  0  0  0  0  0  0
   16.5407    6.4457   13.0057 O   0  0  0  0  0  0  0  0  0  0  0  0
   18.5205    6.3183   15.3901 H   0  0  0  0  0  0  0  0  0  0  0  0
   18.8538    7.6575   13.7391 C   0  0  0  0  0  0  0  0  0  0  0  0
   19.6797    8.7780   15.6988 C   0  0  0  0  0  0  0  0  0  0  0  0
   18.8330    8.8940   14.4846 C   0  0  0  0  0  0  0  0  0  0  0  0
 17 13  1  0  0  0
 13 14  1  0  0  0
  4  7  1  0  0  0
 10  7  1  0  0  0
  7  9  2  0  0  0
  7  8  2  0  0  0
 14  1  1  0  0  0
  1  6  2  0  0  0
  1  2  1  0  0  0
  2  3  2  0  0  0
  3  4  1  0  0  0
  5  4  2  0  0  0
  6  5  1  0  0  0
 15 14  2  0  0  0
 19 17  1  0  0  0
 18 19  1  0  0  0
 13 16  1  0  0  0
 10 11  1  0  0  0
 10 12  1  0  0  0
M  END
> <minimizedAffinity>
-6.87382

$$$$
3RYY_RYY_A_262


 19 19  0  0  0  0  0  0  0  0999 V2000
   16.3124    4.8231   14.6970 C   0  0  0  0  0  0  0  0  0  0  0  0
   14.9982    4.7767   15.2047 C   0  0  0  0  0  0  0  0  0  0  0  0
   14.5912    3.6733   15.9562 C   0  0  0  0  0  0  0  0  0  0  0  0
   15.5021    2.6120   16.2349 C   0  0  0  0  0  0  0  0  0  0  0  0
   16.8077    2.6937   15.7242 C   0  0  0  0  0  0  0  0  0  0  0  0
   17.2172    3.7750   14.9628 C   0  0  0  0  0  0  0  0  0  0  0  0
   14.9855    1.2148   17.1341 S   0  0  0  0  0  0  0  0  0  0  0  0
   13.5473    1.1091   16.9250 O   0  0  0  0  0  0  0  0  0  0  0  0
   15.4589    1.4630   18.4986 O   0  0  0  0  0  0  0  0  0  0  0  0
   15.7237   -0.0441   16.5062 N   0  0  0  0  0  0  0  0  0  0  0  0
   16.7287    0.0403   16.6582 H   0  0  0  0  0  0  0  0  0  0  0  0
   15.5335   -0.0853   15.5049 H   0  0  0  0  0  0  0  0  0  0  0  0
   16.1864    6.1090   12.6646 N   0  0  0  0  0  0  0  0  0  0  0  0
   16.6973    6.0119   13.8551 C   0  0  0  0  0  0  0  0  0  0  0  0
   17.5173    6.8289   14.2944 O   0  0  0  0  0  0  0  0  0  0  0  0
   15.6241    5.3842   12.3071 H   0  0  0  0  0  0  0  0  0  0  0  0
   16.4539    7.3156   11.8473 C   0  0  0  0  0  0  0  0  0  0  0  0
   14.0799    7.5737   11.5718 C   0  0  0  0  0  0  0  0  0  0  0  0
   15.3932    7.4937   10.8837 C   0  0  0  0  0  0  0  0  0  0  0  0
 17 13  1  0  0  0
 13 14  1  0  0  0
  4  7  1  0  0  0
 10  7  1  0  0  0
  7  9  2  0  0  0
  7  8  2  0  0  0
 14  1  1  0  0  0
  1  6  2  0  0  0
  1  2  1  0  0  0
  2  3  2  0  0  0
  3  4  1  0  0  0
  5  4  2  0  0  0
  6  5  1  0  0  0
 15 14  2  0  0  0
 19 17  1  0  0  0
 18 19  1  0  0  0
 13 16  1  0  0  0
 10 11  1  0  0  0
 10 12  1  0  0  0
M  END
> <minimizedAffinity>
-6.82237

$$$$
3RYY_RYY_A_262


 19 19  0  0  0  0  0  0  0  0999 V2000
   16.5190    4.6868   14.7887 C   0  0  0  0  0  0  0  0  0  0  0  0
   17.3456    3.5981   15.1334 C   0  0  0  0  0  0  0  0  0  0  0  0
   16.8244    2.5575   15.9037 C   0  0  0  0  0  0  0  0  0  0  0  0
   15.4598    2.5769   16.3175 C   0  0  0  0  0  0  0  0  0  0  0  0
   14.6596    3.6702   15.9481 C   0  0  0  0  0  0  0  0  0  0  0  0
   15.1706    4.7165   15.1991 C   0  0  0  0  0  0  0  0  0  0  0  0
   14.8185    1.3032   17.3145 S   0  0  0  0  0  0  0  0  0  0  0  0
   13.4355    1.1188   16.8942 O   0  0  0  0  0  0  0  0  0  0  0  0
   15.0584    1.7577   18.6869 O   0  0  0  0  0  0  0  0  0  0  0  0
   15.6642   -0.0050   17.0026 N   0  0  0  0  0  0  0  0  0  0  0  0
   16.6296    0.1351   17.3006 H   0  0  0  0  0  0  0  0  0  0  0  0
   15.6417   -0.1936   16.0005 H   0  0  0  0  0  0  0  0  0  0  0  0
   16.6825    6.0256   12.7935 N   0  0  0  0  0  0  0  0  0  0  0  0
   17.1331    5.8088   13.9926 C   0  0  0  0  0  0  0  0  0  0  0  0
   18.0720    6.4553   14.4759 O   0  0  0  0  0  0  0  0  0  0  0  0
   16.0112    5.4219   12.4009 H   0  0  0  0  0  0  0  0  0  0  0  0
   17.1836    7.1855   12.0195 C   0  0  0  0  0  0  0  0  0  0  0  0
   19.1953    6.4192   10.9500 C   0  0  0  0  0  0  0  0  0  0  0  0
   17.7536    6.7279   10.7742 C   0  0  0  0  0  0  0  0  0  0  0  0
 17 13  1  0  0  0
 13 14  1  0  0  0
  4  7  1  0  0  0
 10  7  1  0  0  0
  7  9  2  0  0  0
  7  8  2  0  0  0
 14  1  1  0  0  0
  1  6  2  0  0  0
  1  2  1  0  0  0
  2  3  2  0  0  0
  3  4  1  0  0  0
  5  4  2  0  0  0
  6  5  1  0  0  0
 15 14  2  0  0  0
 19 17  1  0  0  0
 18 19  1  0  0  0
 13 16  1  0  0  0
 10 11  1  0  0  0
 10 12  1  0  0  0
M  END
> <minimizedAffinity>
-6.19587

$$$$
3RYY_RYY_A_262


 19 19  0  0  0  0  0  0  0  0999 V2000
   17.5224    3.9109   15.1796 C   0  0  0  0  0  0  0  0  0  0  0  0
   16.6240    4.9880   15.0387 C   0  0  0  0  0  0  0  0  0  0  0  0
   17.0783    6.1958   14.5070 C   0  0  0  0  0  0  0  0  0  0  0  0
   18.4324    6.3354   14.0821 C   0  0  0  0  0  0  0  0  0  0  0  0
   19.2994    5.2401   14.2254 C   0  0  0  0  0  0  0  0  0  0  0  0
   18.8642    4.0428   14.7676 C   0  0  0  0  0  0  0  0  0  0  0  0
   19.0132    7.8529   13.4596 S   0  0  0  0  0  0  0  0  0  0  0  0
   18.0887    8.2353   12.4002 O   0  0  0  0  0  0  0  0  0  0  0  0
   20.4047    7.5857   13.0856 O   0  0  0  0  0  0  0  0  0  0  0  0
   18.9457    8.9028   14.6500 N   0  0  0  0  0  0  0  0  0  0  0  0
   19.5962    8.6255   15.3852 H   0  0  0  0  0  0  0  0  0  0  0  0
   17.9982    8.9293   15.0267 H   0  0  0  0  0  0  0  0  0  0  0  0
   15.7157    2.4534   15.8212 N   0  0  0  0  0  0  0  0  0  0  0  0
   17.0013    2.6394   15.7973 C   0  0  0  0  0  0  0  0  0  0  0  0
   17.7976    1.8377   16.3036 O   0  0  0  0  0  0  0  0  0  0  0  0
   15.1077    3.1618   15.5086 H   0  0  0  0  0  0  0  0  0  0  0  0
   15.1688    1.1703   16.3210 C   0  0  0  0  0  0  0  0  0  0  0  0
   14.7198    2.1279   18.4796 C   0  0  0  0  0  0  0  0  0  0  0  0
   14.1424    1.4301   17.3030 C   0  0  0  0  0  0  0  0  0  0  0  0
 17 13  1  0  0  0
 13 14  1  0  0  0
  4  7  1  0  0  0
 10  7  1  0  0  0
  7  9  2  0  0  0
  7  8  2  0  0  0
 14  1  1  0  0  0
  1  6  2  0  0  0
  1  2  1  0  0  0
  2  3  2  0  0  0
  3  4  1  0  0  0
  5  4  2  0  0  0
  6  5  1  0  0  0
 15 14  2  0  0  0
 19 17  1  0  0  0
 18 19  1  0  0  0
 13 16  1  0  0  0
 10 11  1  0  0  0
 10 12  1  0  0  0
M  END
> <minimizedAffinity>
-6.07382

$$$$
3RYY_RYY_A_262


 19 19  0  0  0  0  0  0  0  0999 V2000
   16.1220    4.1841   14.0377 C   0  0  0  0  0  0  0  0  0  0  0  0
   15.1526    4.6365   14.9558 C   0  0  0  0  0  0  0  0  0  0  0  0
   14.7100    3.7797   15.9646 C   0  0  0  0  0  0  0  0  0  0  0  0
   15.2513    2.4660   16.0873 C   0  0  0  0  0  0  0  0  0  0  0  0
   16.2238    2.0496   15.1638 C   0  0  0  0  0  0  0  0  0  0  0  0
   16.6576    2.8847   14.1483 C   0  0  0  0  0  0  0  0  0  0  0  0
   14.6704    1.3800   17.3164 S   0  0  0  0  0  0  0  0  0  0  0  0
   13.2900    1.0735   16.9648 O   0  0  0  0  0  0  0  0  0  0  0  0
   14.9109    2.0908   18.5752 O   0  0  0  0  0  0  0  0  0  0  0  0
   15.5599    0.0660   17.2373 N   0  0  0  0  0  0  0  0  0  0  0  0
   16.5232    0.2921   17.4850 H   0  0  0  0  0  0  0  0  0  0  0  0
   15.5315   -0.3071   16.2884 H   0  0  0  0  0  0  0  0  0  0  0  0
   17.7982    5.1683   12.6157 N   0  0  0  0  0  0  0  0  0  0  0  0
   16.5405    5.1261   12.9388 C   0  0  0  0  0  0  0  0  0  0  0  0
   15.6948    5.8615   12.4125 O   0  0  0  0  0  0  0  0  0  0  0  0
   18.4585    4.6500   13.1300 H   0  0  0  0  0  0  0  0  0  0  0  0
   18.2341    6.0000   11.4695 C   0  0  0  0  0  0  0  0  0  0  0  0
   19.8712    5.0151   10.0108 C   0  0  0  0  0  0  0  0  0  0  0  0
   18.4240    5.1636   10.3078 C   0  0  0  0  0  0  0  0  0  0  0  0
 17 13  1  0  0  0
 13 14  1  0  0  0
  4  7  1  0  0  0
 10  7  1  0  0  0
  7  9  2  0  0  0
  7  8  2  0  0  0
 14  1  1  0  0  0
  1  6  2  0  0  0
  1  2  1  0  0  0
  2  3  2  0  0  0
  3  4  1  0  0  0
  5  4  2  0  0  0
  6  5  1  0  0  0
 15 14  2  0  0  0
 19 17  1  0  0  0
 18 19  1  0  0  0
 13 16  1  0  0  0
 10 11  1  0  0  0
 10 12  1  0  0  0
M  END
> <minimizedAffinity>
-6.05166

$$$$
3RYY_RYY_A_262


 19 19  0  0  0  0  0  0  0  0999 V2000
   16.5572    2.1989   13.3846 C   0  0  0  0  0  0  0  0  0  0  0  0
   16.8693    3.5495   13.6414 C   0  0  0  0  0  0  0  0  0  0  0  0
   17.0376    4.4304   12.5721 C   0  0  0  0  0  0  0  0  0  0  0  0
   16.8685    3.9796   11.2297 C   0  0  0  0  0  0  0  0  0  0  0  0
   16.5465    2.6308   11.0080 C   0  0  0  0  0  0  0  0  0  0  0  0
   16.3944    1.7439   12.0602 C   0  0  0  0  0  0  0  0  0  0  0  0
   17.1205    5.0643    9.8929 S   0  0  0  0  0  0  0  0  0  0  0  0
   15.8783    5.8101    9.7382 O   0  0  0  0  0  0  0  0  0  0  0  0
   17.5342    4.1937    8.7890 O   0  0  0  0  0  0  0  0  0  0  0  0
   18.3004    6.0458   10.3035 N   0  0  0  0  0  0  0  0  0  0  0  0
   19.1642    5.5136   10.4089 H   0  0  0  0  0  0  0  0  0  0  0  0
   18.0717    6.5014   11.1870 H   0  0  0  0  0  0  0  0  0  0  0  0
   15.8627    1.7313   15.6427 N   0  0  0  0  0  0  0  0  0  0  0  0
   16.4262    1.2727   14.5657 C   0  0  0  0  0  0  0  0  0  0  0  0
   16.8965    0.1294   14.4977 O   0  0  0  0  0  0  0  0  0  0  0  0
   15.5997    2.6784   15.6984 H   0  0  0  0  0  0  0  0  0  0  0  0
   15.6175    0.8223   16.7869 C   0  0  0  0  0  0  0  0  0  0  0  0
   14.3483    2.8108   17.2487 C   0  0  0  0  0  0  0  0  0  0  0  0
   14.7145    1.4517   17.7216 C   0  0  0  0  0  0  0  0  0  0  0  0
 17 13  1  0  0  0
 13 14  1  0  0  0
  4  7  1  0  0  0
 10  7  1  0  0  0
  7  9  2  0  0  0
  7  8  2  0  0  0
 14  1  1  0  0  0
  1  6  2  0  0  0
  1  2  1  0  0  0
  2  3  2  0  0  0
  3  4  1  0  0  0
  5  4  2  0  0  0
  6  5  1  0  0  0
 15 14  2  0  0  0
 19 17  1  0  0  0
 18 19  1  0  0  0
 13 16  1  0  0  0
 10 11  1  0  0  0
 10 12  1  0  0  0
M  END
> <minimizedAffinity>
-5.89760

$$$$
3RYY_RYY_A_262


 19 19  0  0  0  0  0  0  0  0999 V2000
   17.4275    4.3612   14.7022 C   0  0  0  0  0  0  0  0  0  0  0  0
   16.7404    5.5738   14.9138 C   0  0  0  0  0  0  0  0  0  0  0  0
   17.4079    6.7840   14.7195 C   0  0  0  0  0  0  0  0  0  0  0  0
   18.7655    6.7995   14.2830 C   0  0  0  0  0  0  0  0  0  0  0  0
   19.4183    5.5745   14.0701 C   0  0  0  0  0  0  0  0  0  0  0  0
   18.7715    4.3679   14.2767 C   0  0  0  0  0  0  0  0  0  0  0  0
   19.6139    8.3052   14.0820 S   0  0  0  0  0  0  0  0  0  0  0  0
   19.9174    8.7803   15.4256 O   0  0  0  0  0  0  0  0  0  0  0  0
   18.7191    9.1214   13.2569 O   0  0  0  0  0  0  0  0  0  0  0  0
   20.9582    7.9831   13.2989 N   0  0  0  0  0  0  0  0  0  0  0  0
   20.7340    7.6517   12.3607 H   0  0  0  0  0  0  0  0  0  0  0  0
   21.4785    7.2622   13.7989 H   0  0  0  0  0  0  0  0  0  0  0  0
   17.0314    2.3687   15.9955 N   0  0  0  0  0  0  0  0  0  0  0  0
   16.6825    3.0782   14.9646 C   0  0  0  0  0  0  0  0  0  0  0  0
   15.8020    2.7130   14.1745 O   0  0  0  0  0  0  0  0  0  0  0  0
   17.8083    2.6343   16.5387 H   0  0  0  0  0  0  0  0  0  0  0  0
   16.2544    1.1578   16.3500 C   0  0  0  0  0  0  0  0  0  0  0  0
   13.9512    1.2392   17.0333 C   0  0  0  0  0  0  0  0  0  0  0  0
   15.3612    1.4577   17.4443 C   0  0  0  0  0  0  0  0  0  0  0  0
 17 13  1  0  0  0
 13 14  1  0  0  0
  4  7  1  0  0  0
 10  7  1  0  0  0
  7  9  2  0  0  0
  7  8  2  0  0  0
 14  1  1  0  0  0
  1  6  2  0  0  0
  1  2  1  0  0  0
  2  3  2  0  0  0
  3  4  1  0  0  0
  5  4  2  0  0  0
  6  5  1  0  0  0
 15 14  2  0  0  0
 19 17  1  0  0  0
 18 19  1  0  0  0
 13 16  1  0  0  0
 10 11  1  0  0  0
 10 12  1  0  0  0
M  END
> <minimizedAffinity>
-5.88521

$$$$
3RYY_RYY_A_262


 19 19  0  0  0  0  0  0  0  0999 V2000
   16.7523    3.8048   14.1273 C   0  0  0  0  0  0  0  0  0  0  0  0
   16.7403    3.4230   12.7703 C   0  0  0  0  0  0  0  0  0  0  0  0
   17.8744    3.6395   11.9862 C   0  0  0  0  0  0  0  0  0  0  0  0
   19.0481    4.2160   12.5553 C   0  0  0  0  0  0  0  0  0  0  0  0
   19.0317    4.5749   13.9128 C   0  0  0  0  0  0  0  0  0  0  0  0
   17.9065    4.3810   14.6958 C   0  0  0  0  0  0  0  0  0  0  0  0
   20.4484    4.5276   11.5706 S   0  0  0  0  0  0  0  0  0  0  0  0
   20.9701    5.8163   12.0068 O   0  0  0  0  0  0  0  0  0  0  0  0
   19.9576    4.4222   10.1938 O   0  0  0  0  0  0  0  0  0  0  0  0
   21.5013    3.3784   11.8786 N   0  0  0  0  0  0  0  0  0  0  0  0
   21.1261    2.4817   11.5695 H   0  0  0  0  0  0  0  0  0  0  0  0
   21.6827    3.3435   12.8817 H   0  0  0  0  0  0  0  0  0  0  0  0
   15.5747    2.9027   16.0245 N   0  0  0  0  0  0  0  0  0  0  0  0
   15.4930    3.5925   14.9266 C   0  0  0  0  0  0  0  0  0  0  0  0
   14.4182    4.0329   14.4976 O   0  0  0  0  0  0  0  0  0  0  0  0
   16.4245    2.4750   16.2777 H   0  0  0  0  0  0  0  0  0  0  0  0
   14.3830    2.7627   16.8938 C   0  0  0  0  0  0  0  0  0  0  0  0
   15.0782    0.5271   17.4388 C   0  0  0  0  0  0  0  0  0  0  0  0
   13.9718    1.3790   16.9340 C   0  0  0  0  0  0  0  0  0  0  0  0
 17 13  1  0  0  0
 13 14  1  0  0  0
  4  7  1  0  0  0
 10  7  1  0  0  0
  7  9  2  0  0  0
  7  8  2  0  0  0
 14  1  1  0  0  0
  1  6  2  0  0  0
  1  2  1  0  0  0
  2  3  2  0  0  0
  3  4  1  0  0  0
  5  4  2  0  0  0
  6  5  1  0  0  0
 15 14  2  0  0  0
 19 17  1  0  0  0
 18 19  1  0  0  0
 13 16  1  0  0  0
 10 11  1  0  0  0
 10 12  1  0  0  0
M  END
> <minimizedAffinity>
-5.85044

$$$$
3RYY_RYY_A_262


 19 19  0  0  0  0  0  0  0  0999 V2000
   17.9544    6.2673   14.4043 C   0  0  0  0  0  0  0  0  0  0  0  0
   16.6278    6.0896   14.8468 C   0  0  0  0  0  0  0  0  0  0  0  0
   16.1635    4.8032   15.1251 C   0  0  0  0  0  0  0  0  0  0  0  0
   17.0284    3.6772   14.9917 C   0  0  0  0  0  0  0  0  0  0  0  0
   18.3477    3.8890   14.5598 C   0  0  0  0  0  0  0  0  0  0  0  0
   18.8140    5.1587   14.2640 C   0  0  0  0  0  0  0  0  0  0  0  0
   16.4405    2.0680   15.2956 S   0  0  0  0  0  0  0  0  0  0  0  0
   16.5927    1.3392   14.0430 O   0  0  0  0  0  0  0  0  0  0  0  0
   15.0817    2.2661   15.8075 O   0  0  0  0  0  0  0  0  0  0  0  0
   17.3727    1.4335   16.4146 N   0  0  0  0  0  0  0  0  0  0  0  0
   17.2582    1.9509   17.2861 H   0  0  0  0  0  0  0  0  0  0  0  0
   18.3464    1.4838   16.1147 H   0  0  0  0  0  0  0  0  0  0  0  0
   18.7258    8.4534   15.0567 N   0  0  0  0  0  0  0  0  0  0  0  0
   18.4019    7.6676   14.0742 C   0  0  0  0  0  0  0  0  0  0  0  0
   18.4026    8.0442   12.8948 O   0  0  0  0  0  0  0  0  0  0  0  0
   18.6081    8.1556   15.9877 H   0  0  0  0  0  0  0  0  0  0  0  0
   19.2731    9.8001   14.7697 C   0  0  0  0  0  0  0  0  0  0  0  0
   21.5681    9.6621   14.0681 C   0  0  0  0  0  0  0  0  0  0  0  0
   20.6456    9.8705   15.2128 C   0  0  0  0  0  0  0  0  0  0  0  0
 17 13  1  0  0  0
 13 14  1  0  0  0
  4  7  1  0  0  0
 10  7  1  0  0  0
  7  9  2  0  0  0
  7  8  2  0  0  0
 14  1  1  0  0  0
  1  6  2  0  0  0
  1  2  1  0  0  0
  2  3  2  0  0  0
  3  4  1  0  0  0
  5  4  2  0  0  0
  6  5  1  0  0  0
 15 14  2  0  0  0
 19 17  1  0  0  0
 18 19  1  0  0  0
 13 16  1  0  0  0
 10 11  1  0  0  0
 10 12  1  0  0  0
M  END
> <minimizedAffinity>
-5.78133

$$$$
3RYY_RYY_A_262


 19 19  0  0  0  0  0  0  0  0999 V2000
   16.6752    5.2594   13.2653 C   0  0  0  0  0  0  0  0  0  0  0  0
   16.9316    4.0551   12.5789 C   0  0  0  0  0  0  0  0  0  0  0  0
   16.8921    2.8462   13.2753 C   0  0  0  0  0  0  0  0  0  0  0  0
   16.5678    2.8215   14.6638 C   0  0  0  0  0  0  0  0  0  0  0  0
   16.3064    4.0374   15.3160 C   0  0  0  0  0  0  0  0  0  0  0  0
   16.3599    5.2440   14.6393 C   0  0  0  0  0  0  0  0  0  0  0  0
   16.5606    1.3211   15.5449 S   0  0  0  0  0  0  0  0  0  0  0  0
   17.6427    1.4178   16.5159 O   0  0  0  0  0  0  0  0  0  0  0  0
   16.6647    0.2890   14.5097 O   0  0  0  0  0  0  0  0  0  0  0  0
   15.1619    1.2247   16.2921 N   0  0  0  0  0  0  0  0  0  0  0  0
   14.4125    1.1575   15.6035 H   0  0  0  0  0  0  0  0  0  0  0  0
   15.0241    2.0577   16.8644 H   0  0  0  0  0  0  0  0  0  0  0  0
   15.9821    6.6999   11.4640 N   0  0  0  0  0  0  0  0  0  0  0  0
   16.7701    6.5449   12.4852 C   0  0  0  0  0  0  0  0  0  0  0  0
   17.6187    7.3886   12.8032 O   0  0  0  0  0  0  0  0  0  0  0  0
   15.3970    5.9630   11.1745 H   0  0  0  0  0  0  0  0  0  0  0  0
   15.9681    7.9910   10.7370 C   0  0  0  0  0  0  0  0  0  0  0  0
   13.6666    7.6845   11.3596 C   0  0  0  0  0  0  0  0  0  0  0  0
   14.7116    8.6640   10.9679 C   0  0  0  0  0  0  0  0  0  0  0  0
 17 13  1  0  0  0
 13 14  1  0  0  0
  4  7  1  0  0  0
 10  7  1  0  0  0
  7  9  2  0  0  0
  7  8  2  0  0  0
 14  1  1  0  0  0
  1  6  2  0  0  0
  1  2  1  0  0  0
  2  3  2  0  0  0
  3  4  1  0  0  0
  5  4  2  0  0  0
  6  5  1  0  0  0
 15 14  2  0  0  0
 19 17  1  0  0  0
 18 19  1  0  0  0
 13 16  1  0  0  0
 10 11  1  0  0  0
 10 12  1  0  0  0
M  END
> <minimizedAffinity>
-5.73478

$$$$
