4F9U_PBD_A_402
  RCSB PDB12061712303D
Coordinates from PDB:4F9U:A:402 Model:1 without hydrogens
 22 23  0  0  0  0            999 V2000
  -56.1110   17.3550  -33.2130   C 0  0  0  0  0  0  0  0  0  0  0  0
  -53.7000   18.4270  -38.2180   C 0  0  0  0  0  0  0  0  0  0  0  0
  -53.4900   25.2120  -36.2130   S 0  0  0  0  0  0  0  0  0  0  0  0
  -48.0070   22.0530  -30.2420   C 0  0  0  0  0  0  0  0  0  0  0  0
  -55.3370   21.2470  -34.3410   C 0  0  0  0  0  0  0  0  0  0  0  0
  -55.5800   19.9170  -33.9900   C 0  0  0  0  0  0  0  0  0  0  0  0
  -48.4610   22.7620  -31.2980   C 0  0  0  0  0  0  0  0  0  0  0  0
  -49.7690   23.1480  -29.6010   C 0  0  0  0  0  0  0  0  0  0  0  0
  -54.4440   20.4820  -36.4590   C 0  0  0  0  0  0  0  0  0  0  0  0
  -51.3320   23.5750  -32.5710   C 0  0  0  0  0  0  0  0  0  0  0  0
  -52.3190   24.4320  -33.3850   C 0  0  0  0  0  0  0  0  0  0  0  0
  -50.3670   24.3660  -31.6690   C 0  0  0  0  0  0  0  0  0  0  0  0
  -48.8170   22.3170  -29.2200   N 0  0  0  0  0  0  0  0  0  0  0  0
  -53.2000   23.4810  -34.1210   N 0  0  0  0  0  0  0  0  0  0  0  0
  -54.4960   22.7730  -35.9920   N 0  0  0  0  0  0  0  0  0  0  0  0
  -55.4980   17.5480  -34.5180   O 0  0  0  0  0  0  0  0  0  0  0  0
  -54.3740   18.1000  -36.9830   O 0  0  0  0  0  0  0  0  0  0  0  0
  -53.7070   23.6750  -35.3540   C 0  0  0  0  0  0  0  0  0  0  0  0
  -54.7610   21.5290  -35.5820   C 0  0  0  0  0  0  0  0  0  0  0  0
  -55.2590   18.8600  -34.8670   C 0  0  0  0  0  0  0  0  0  0  0  0
  -54.6840   19.1410  -36.1250   C 0  0  0  0  0  0  0  0  0  0  0  0
  -49.5300   23.4440  -30.8740   N 0  0  0  0  0  0  0  0  0  0  0  0
  1 16  1  0  0  0  0
  2 17  1  0  0  0  0
  3 18  2  0  0  0  0
  4  7  2  0  0  0  0
  4 13  1  0  0  0  0
  5  6  2  0  0  0  0
  5 19  1  0  0  0  0
  6 20  1  0  0  0  0
  7 22  1  0  0  0  0
  8 13  2  0  0  0  0
  8 22  1  0  0  0  0
  9 19  2  0  0  0  0
  9 21  1  0  0  0  0
 10 11  1  0  0  0  0
 10 12  1  0  0  0  0
 11 14  1  0  0  0  0
 12 22  1  0  0  0  0
 14 18  1  0  0  0  0
 15 18  1  0  0  0  0
 15 19  1  0  0  0  0
 16 20  1  0  0  0  0
 17 21  1  0  0  0  0
 20 21  2  0  0  0  0
A    1
CAA
A    2
CAB
A    3
SAC
A    4
CAD
A    5
CAE
A    6
CAF
A    7
CAG
A    8
CAH
A    9
CAI
A   10
CAJ
A   11
CAK
A   12
CAL
A   13
NAM
A   14
NAN
A   15
NAO
A   16
OAP
A   17
OAQ
A   18
CAR
A   19
CAS
A   20
CAT
A   21
CAU
A   22
NAV
M  END
>  <InstanceId>
4F9U_PBD_A_402

>  <ChemCompId>
PBD

>  <PdbId>
4F9U

>  <ChainId>
A

>  <ResidueNumber>
402

>  <InsertionCode>


>  <Model>
1

>  <AltIds>


>  <MissingHeavyAtoms>
0

>  <ObservedFormula>
C15 N4 O2 S

>  <Name>
1-(3,4-dimethoxyphenyl)-3-[3-(1H-imidazol-1-yl)propyl]thiourea

>  <SystematicName>
1-(3,4-dimethoxyphenyl)-3-(3-imidazol-1-ylpropyl)thiourea

>  <Synonyms>


>  <Type>
NON-POLYMER

>  <Formula>
C15 H20 N4 O2 S

>  <MolecularWeight>
320.41

>  <ModifiedDate>
2011-06-04

>  <Parent>


>  <OneLetterCode>


>  <SubcomponentList>


>  <AmbiguousFlag>
N

>  <InChI>
InChI=1S/C15H20N4O2S/c1-20-13-5-4-12(10-14(13)21-2)18-15(22)17-6-3-8-19-9-7-16-11-19/h4-5,7,9-11H,3,6,8H2,1-2H3,(H2,17,18,22)

>  <InChIKey>
FZQXMGLQANXZRP-UHFFFAOYSA-N

>  <SMILES>
COc1ccc(cc1OC)NC(=S)NCCCn2ccnc2

$$$$
