3CZ1_NBB_A_122
  RCSB PDB12061708143D
Coordinates from PDB:3CZ1:A:122 Model:1 without hydrogens
 14 14  0  0  0  0            999 V2000
   22.6970   -2.9920   -4.4790   O 0  0  0  0  0  0  0  0  0  0  0  0
   21.3030   -2.8040   -4.7850   S 0  0  0  0  0  0  0  0  0  0  0  0
   21.0150   -1.4600   -5.2100   O 0  0  0  0  0  0  0  0  0  0  0  0
   20.4060   -3.1110   -3.4980   N 0  0  0  0  0  0  0  0  0  0  0  0
   19.1040   -2.5030   -3.3470   C 0  0  0  0  0  0  0  0  0  0  0  0
   17.9900   -3.5280   -3.4060   C 0  0  0  0  0  0  0  0  0  0  0  0
   16.6740   -2.9210   -2.9340   C 0  0  0  0  0  0  0  0  0  0  0  0
   16.1860   -3.6210   -1.6840   C 0  0  0  0  0  0  0  0  0  0  0  0
   20.9720   -3.8590   -5.9380   C 0  0  0  0  0  0  0  0  0  0  0  0
   20.9860   -3.4720   -7.2800   C 0  0  0  0  0  0  0  0  0  0  0  0
   20.7210   -4.3870   -8.2950   C 0  0  0  0  0  0  0  0  0  0  0  0
   20.4380   -5.7090   -7.9650   C 0  0  0  0  0  0  0  0  0  0  0  0
   20.4340   -6.0990   -6.6300   C 0  0  0  0  0  0  0  0  0  0  0  0
   20.7060   -5.1830   -5.6180   C 0  0  0  0  0  0  0  0  0  0  0  0
  1  2  2  0  0  0  0
  2  3  2  0  0  0  0
  2  4  1  0  0  0  0
  2  9  1  0  0  0  0
  4  5  1  0  0  0  0
  5  6  1  0  0  0  0
  6  7  1  0  0  0  0
  7  8  1  0  0  0  0
  9 10  2  0  0  0  0
  9 14  1  0  0  0  0
 10 11  1  0  0  0  0
 11 12  2  0  0  0  0
 12 13  1  0  0  0  0
 13 14  2  0  0  0  0
A    1
O1S
A    2
S
A    3
O2S
A    4
N10
A    5
C11
A    6
C12
A    7
C13
A    8
C14
A    9
C4
A   10
C5
A   11
C6
A   12
C1
A   13
C2
A   14
C3
M  END
>  <InstanceId>
3CZ1_NBB_A_122

>  <ChemCompId>
NBB

>  <PdbId>
3CZ1

>  <ChainId>
A

>  <ResidueNumber>
122

>  <InsertionCode>


>  <Model>
1

>  <AltIds>


>  <MissingHeavyAtoms>
0

>  <ObservedFormula>
C10 N O2 S

>  <Name>
N-BUTYL-BENZENESULFONAMIDE

>  <SystematicName>
N-butylbenzenesulfonamide

>  <Synonyms>


>  <Type>
NON-POLYMER

>  <Formula>
C10 H15 N O2 S

>  <MolecularWeight>
213.297

>  <ModifiedDate>
2011-06-04

>  <Parent>


>  <OneLetterCode>


>  <SubcomponentList>


>  <AmbiguousFlag>
N

>  <InChI>
InChI=1S/C10H15NO2S/c1-2-3-9-11-14(12,13)10-7-5-4-6-8-10/h4-8,11H,2-3,9H2,1H3

>  <InChIKey>
IPRJXAGUEGOFGG-UHFFFAOYSA-N

>  <SMILES>
CCCCNS(=O)(=O)c1ccccc1

$$$$
