2WED_PP6_A_327
  RCSB PDB12061707143D
Coordinates from PDB:2WED:A:327 Model:1 without hydrogens
 39 42  0  0  0  0            999 V2000
   18.5650    8.1550   19.6630   O 0  0  0  0  0  0  0  0  0  0  0  0
   21.0440    5.4740   19.1630   C 0  0  0  0  0  0  0  0  0  0  0  0
   20.9400    4.1000   19.1490   C 0  0  0  0  0  0  0  0  0  0  0  0
   22.0210    3.2630   19.5050   C 0  0  0  0  0  0  0  0  0  0  0  0
   23.2730    3.7700   19.7700   C 0  0  0  0  0  0  0  0  0  0  0  0
   23.4410    5.2060   19.7780   C 0  0  0  0  0  0  0  0  0  0  0  0
   22.3390    6.0530   19.4530   C 0  0  0  0  0  0  0  0  0  0  0  0
   22.5080    7.4600   19.5460   C 0  0  0  0  0  0  0  0  0  0  0  0
   23.7190    8.0170   19.8970   C 0  0  0  0  0  0  0  0  0  0  0  0
   24.8110    7.1710   20.2000   C 0  0  0  0  0  0  0  0  0  0  0  0
   24.6540    5.8130   20.1690   C 0  0  0  0  0  0  0  0  0  0  0  0
   19.7960    6.3150   18.8990   C 0  0  0  0  0  0  0  0  0  0  0  0
   19.4470    7.3080   19.9930   C 0  0  0  0  0  0  0  0  0  0  0  0
   23.8750    9.5100   19.9760   C 0  0  0  0  0  0  0  0  0  0  0  0
   23.3400    9.9860   21.3350   C 0  0  0  0  0  0  0  0  0  0  0  0
   20.0150    7.3340   21.1980   N 0  0  0  0  0  0  0  0  0  0  0  0
   19.8700    8.3390   22.2500   C 0  0  0  0  0  0  0  0  0  0  0  0
   21.3750    8.6870   22.2230   C 0  0  0  0  0  0  0  0  0  0  0  0
   22.1800    8.0780   22.9480   O 0  0  0  0  0  0  0  0  0  0  0  0
   19.3300    7.8770   23.6220   C 0  0  0  0  0  0  0  0  0  0  0  0
   19.1780    9.3220   24.0990   C 0  0  0  0  0  0  0  0  0  0  0  0
   17.9430    7.5370   23.0640   C 0  0  0  0  0  0  0  0  0  0  0  0
   21.9270    9.6650   21.4940   N 0  0  0  0  0  0  0  0  0  0  0  0
   23.5160   11.7720   21.4550   P 0  0  0  0  0  0  0  0  0  0  0  0
   24.9290   12.1260   21.2950   O 0  0  0  0  0  0  0  0  0  0  0  0
   22.6130   12.4420   20.5230   O 0  5  0  0  0  0  0  0  0  0  0  0
   24.0460   12.9730   23.7760   C 0  0  0  0  0  0  0  0  0  0  0  0
   23.2470   13.7890   24.8260   C 0  0  0  0  0  0  0  0  0  0  0  0
   21.9770   13.1330   25.3100   C 0  0  0  0  0  0  0  0  0  0  0  0
   20.9870   12.7520   24.4270   C 0  0  0  0  0  0  0  0  0  0  0  0
   21.7410   12.9820   26.6640   C 0  0  0  0  0  0  0  0  0  0  0  0
   19.8700   12.1100   24.8680   C 0  0  0  0  0  0  0  0  0  0  0  0
   20.5790   12.3820   27.1150   C 0  0  0  0  0  0  0  0  0  0  0  0
   19.6380   11.9610   26.2110   C 0  0  0  0  0  0  0  0  0  0  0  0
   24.8720   11.8900   24.4610   C 0  0  0  0  0  0  0  0  0  0  0  0
   27.0350   11.7710   25.4690   C 0  0  0  0  0  0  0  0  0  0  0  0
   23.2510   12.1700   22.9600   O 0  0  0  0  0  0  0  0  0  0  0  0
   25.7430   12.4970   25.2600   O 0  0  0  0  0  0  0  0  0  0  0  0
   24.6230   10.7240   24.5650   O 0  0  0  0  0  0  0  0  0  0  0  0
  1 13  2  0  0  0  0
  2  3  2  0  0  0  0
  2  7  1  0  0  0  0
  2 12  1  0  0  0  0
  3  4  1  0  0  0  0
  4  5  2  0  0  0  0
  5  6  1  0  0  0  0
  6  7  2  0  0  0  0
  6 11  1  0  0  0  0
  7  8  1  0  0  0  0
  8  9  2  0  0  0  0
  9 10  1  0  0  0  0
  9 14  1  0  0  0  0
 10 11  2  0  0  0  0
 12 13  1  0  0  0  0
 13 16  1  0  0  0  0
 14 15  1  0  0  0  0
 15 23  1  0  0  0  0
 15 24  1  0  0  0  0
 16 17  1  0  0  0  0
 17 18  1  0  0  0  0
 17 20  1  0  0  0  0
 18 19  2  0  0  0  0
 18 23  1  0  0  0  0
 20 21  1  0  0  0  0
 20 22  1  0  0  0  0
 24 25  2  0  0  0  0
 24 26  1  0  0  0  0
 24 37  1  0  0  0  0
 27 28  1  0  0  0  0
 27 35  1  0  0  0  0
 27 37  1  0  0  0  0
 28 29  1  0  0  0  0
 29 30  2  0  0  0  0
 29 31  1  0  0  0  0
 30 32  1  0  0  0  0
 31 33  2  0  0  0  0
 32 34  2  0  0  0  0
 33 34  1  0  0  0  0
 35 38  1  0  0  0  0
 35 39  2  0  0  0  0
 36 38  1  0  0  0  0
M  CHG  1  26  -1
A    1
OI
A    2
C1
A    3
C2
A    4
C3
A    5
C4
A    6
C5
A    7
C6
A    8
C7
A    9
C8
A   10
C9
A   11
C10
A   12
C11
A   13
C12
A   14
C13
A   15
C14
A   16
NV
A   17
CAV
A   18
CV
A   19
OV
A   20
CBV
A   21
CV1
A   22
CV2
A   23
NL
A   24
P
A   25
O
A   26
OH
A   27
CA
A   28
CB
A   29
CG
A   30
CD1
A   31
CD2
A   32
CE1
A   33
CE2
A   34
CZ
A   35
C
A   36
CS
A   37
OP
A   38
OS
A   39
OE
M  END
>  <InstanceId>
2WED_PP6_A_327

>  <ChemCompId>
PP6

>  <PdbId>
2WED

>  <ChainId>
A

>  <ResidueNumber>
327

>  <InsertionCode>


>  <Model>
1

>  <AltIds>


>  <MissingHeavyAtoms>
0

>  <ObservedFormula>
C29 N2 O7 P

>  <Name>
METHYL[CYCLO-7[(2R)-((N-VALYL)AMINO)-2-(HYDROXYL-(1S)-1-METHYLOXYCARBONYL-2-PHENYLETHOXY)PHOSPHINYLOXY-ETHYL]-1-NAPHTHALENEACETAMIDE]

>  <SystematicName>


>  <Synonyms>


>  <Type>
NON-POLYMER

>  <Formula>
C29 H32 N2 O7 P

>  <MolecularWeight>
551.547

>  <ModifiedDate>
2011-06-04

>  <Parent>


>  <OneLetterCode>


>  <SubcomponentList>


>  <AmbiguousFlag>
N

>  <InChI>
InChI=1S/C29H33N2O7P/c1-18(2)27-28(33)31-26(39(35,36)38-24(29(34)37-3)15-19-8-5-4-6-9-19)16-20-12-13-21-10-7-11-22(23(21)14-20)17-25(32)30-27/h4-14,18,24,26-27H,15-17H2,1-3H3,(H,30,32)(H,31,33)(H,35,36)/p-1/t24-,26+,27-/m0/s1

>  <InChIKey>
BJANYCOFDSBOJK-OIKPOIBNSA-M

>  <SMILES>
CC(C)[C@H]1C(=O)N[C@@H](Cc2ccc3cccc(c3c2)CC(=O)N1)[P@@](=O)([O-])O[C@@H](Cc4ccccc4)C(=O)OC

$$$$
