2XOG_SFB_A_1125


 48 52  0  0  0  0  0  0  0  0999 V2000
   39.1240    6.1933   14.0042 N   0  0  0  0  0  0  0  0  0  0  0  0
   37.9759    6.5711   14.8252 C   0  0  0  0  0  0  0  0  0  0  0  0
   36.9638    7.1724   14.0077 O   0  0  0  0  0  0  0  0  0  0  0  0
   39.9279    6.7615   13.9914 H   0  0  0  0  0  0  0  0  0  0  0  0
   38.3061    7.4516   18.3010 C   0  0  0  0  0  0  0  0  0  0  0  0
   39.7754    7.3280   17.9128 C   0  0  0  0  0  0  0  0  0  0  0  0
   40.5182    8.4068   18.4922 O   0  0  0  0  0  0  0  0  0  0  0  0
   39.8009    7.4032   16.3992 C   0  0  0  0  0  0  0  0  0  0  0  0
   40.5521    8.5411   15.9690 O   0  0  0  0  0  0  0  0  0  0  0  0
   38.3427    7.5255   15.9604 C   0  0  0  0  0  0  0  0  0  0  0  0
   37.5408    7.2201   17.1165 O   0  0  0  0  0  0  0  0  0  0  0  0
   40.1452    9.2519   18.1961 H   0  0  0  0  0  0  0  0  0  0  0  0
   40.1588    9.3469   16.3391 H   0  0  0  0  0  0  0  0  0  0  0  0
   35.4442    6.9543   22.5479 N   0  0  0  0  0  0  0  0  0  0  0  0
   35.4955    7.9648   21.6662 C   0  0  0  0  0  0  0  0  0  0  0  0
   36.3137    7.9136   20.6014 N   0  0  0  0  0  0  0  0  0  0  0  0
   37.1065    6.8313   20.3914 C   0  0  0  0  0  0  0  0  0  0  0  0
   37.0753    5.7736   21.2847 C   0  0  0  0  0  0  0  0  0  0  0  0
   36.2217    5.8556   22.3829 C   0  0  0  0  0  0  0  0  0  0  0  0
   36.1534    4.8483   23.2794 N   0  0  0  0  0  0  0  0  0  0  0  0
   37.9497    4.8461   20.8417 N   0  0  0  0  0  0  0  0  0  0  0  0
   38.5101    5.3233   19.7012 C   0  0  0  0  0  0  0  0  0  0  0  0
   37.9889    6.5358   19.4336 N   0  0  0  0  0  0  0  0  0  0  0  0
   35.5467    4.9170   24.0517 H   0  0  0  0  0  0  0  0  0  0  0  0
   36.7104    4.0452   23.1608 H   0  0  0  0  0  0  0  0  0  0  0  0
   37.9296    4.9459   12.2600 O   0  0  0  0  0  0  0  0  0  0  0  0
   40.2668    4.7573   12.3216 O   0  0  0  0  0  0  0  0  0  0  0  0
   39.0754    4.8490   13.1207 S   0  0  0  0  0  0  0  0  0  0  0  0
   38.9566    3.5510   14.1849 C   0  0  0  0  0  0  0  0  0  0  0  0
   37.4491    0.8231   11.9890 C   0  0  0  0  0  0  0  0  0  0  0  0
   37.3710    1.6356   13.2721 C   0  0  0  0  0  0  0  0  0  0  0  0
   36.3181    2.6027   13.1729 O   0  0  0  0  0  0  0  0  0  0  0  0
   38.7667    2.2387   13.4478 C   0  0  0  0  0  0  0  0  0  0  0  0
   39.5900    1.8020   12.2369 C   0  0  0  0  0  0  0  0  0  0  0  0
   38.8310    0.7671   11.5996 O   0  0  0  0  0  0  0  0  0  0  0  0
   36.4736    3.1722   12.4032 H   0  0  0  0  0  0  0  0  0  0  0  0
   36.7650   -0.4673   12.3451 N   0  0  0  0  0  0  0  0  0  0  0  0
   35.7264   -0.7380   11.3617 C   0  0  0  0  0  0  0  0  0  0  0  0
   35.3794    0.0200   10.4519 O   0  0  0  0  0  0  0  0  0  0  0  0
   35.1126   -2.0072   11.5430 N   0  0  0  0  0  0  0  0  0  0  0  0
   35.4178   -2.9883   12.5658 C   0  0  0  0  0  0  0  0  0  0  0  0
   34.8028   -4.0223   12.5863 O   0  0  0  0  0  0  0  0  0  0  0  0
   36.4746   -2.6281   13.5110 C   0  0  0  0  0  0  0  0  0  0  0  0
   37.0838   -1.4215   13.3659 C   0  0  0  0  0  0  0  0  0  0  0  0
   34.4027   -2.2461   10.9041 H   0  0  0  0  0  0  0  0  0  0  0  0
   40.9128    1.1777   12.6606 C   0  0  0  0  0  0  0  0  0  0  0  0
   41.9005    2.2075   12.8150 O   0  0  0  0  0  0  0  0  0  0  0  0
   42.0179    2.6720   11.9716 H   0  0  0  0  0  0  0  0  0  0  0  0
 14 15  2  0  0  0
 14 19  1  0  0  0
  5  6  1  0  0  0
  5 11  1  0  0  0
  5 23  1  0  0  0
 30 37  1  0  0  0
 30 31  1  0  0  0
 30 35  1  0  0  0
 37 38  1  0  0  0
 37 44  1  0  0  0
 29 33  1  0  0  0
 29 28  1  0  0  0
 26 28  2  0  0  0
 15 16  1  0  0  0
  6  7  1  0  0  0
  6  8  1  0  0  0
 31 32  1  0  0  0
 31 33  1  0  0  0
 38 39  2  0  0  0
 38 40  1  0  0  0
 27 28  2  0  0  0
 16 17  2  0  0  0
  8  9  1  0  0  0
  8 10  1  0  0  0
 33 34  1  0  0  0
 40 41  1  0  0  0
  1  2  1  0  0  0
  1 28  1  0  0  0
 17 18  1  0  0  0
 17 23  1  0  0  0
 10 11  1  0  0  0
 10  2  1  0  0  0
 34 35  1  0  0  0
 34 46  1  0  0  0
 41 42  2  0  0  0
 41 43  1  0  0  0
 18 19  2  0  0  0
 18 21  1  0  0  0
  2  3  2  0  0  0
 46 47  1  0  0  0
 43 44  2  0  0  0
 19 20  1  0  0  0
 21 22  2  0  0  0
 22 23  1  0  0  0
  7 12  1  0  0  0
 32 36  1  0  0  0
  9 13  1  0  0  0
 40 45  1  0  0  0
  1  4  1  0  0  0
 47 48  1  0  0  0
 20 24  1  0  0  0
 20 25  1  0  0  0
M  END
> <minimizedAffinity>
-9.32057

$$$$
2XOG_SFB_A_1125


 48 52  0  0  0  0  0  0  0  0999 V2000
   40.1268    0.9532   14.0216 N   0  0  0  0  0  0  0  0  0  0  0  0
   40.2378   -0.3869   13.4500 C   0  0  0  0  0  0  0  0  0  0  0  0
   39.6633   -0.4103   12.1372 O   0  0  0  0  0  0  0  0  0  0  0  0
   39.4206    1.1508   14.6785 H   0  0  0  0  0  0  0  0  0  0  0  0
   37.6203   -2.7455   14.1928 C   0  0  0  0  0  0  0  0  0  0  0  0
   38.7584   -3.7023   13.8550 C   0  0  0  0  0  0  0  0  0  0  0  0
   38.7729   -4.7830   14.7947 O   0  0  0  0  0  0  0  0  0  0  0  0
   40.0248   -2.8761   13.9588 C   0  0  0  0  0  0  0  0  0  0  0  0
   40.8799   -3.4000   14.9780 O   0  0  0  0  0  0  0  0  0  0  0  0
   39.5743   -1.4598   14.3120 C   0  0  0  0  0  0  0  0  0  0  0  0
   38.1497   -1.4208   14.1071 O   0  0  0  0  0  0  0  0  0  0  0  0
   38.8648   -4.4291   15.6931 H   0  0  0  0  0  0  0  0  0  0  0  0
   40.4089   -3.4014   15.8260 H   0  0  0  0  0  0  0  0  0  0  0  0
   33.7640   -6.0286   13.2849 N   0  0  0  0  0  0  0  0  0  0  0  0
   34.7147   -6.0686   14.2314 C   0  0  0  0  0  0  0  0  0  0  0  0
   35.6492   -5.1066   14.3151 N   0  0  0  0  0  0  0  0  0  0  0  0
   35.6489   -4.0660   13.4425 C   0  0  0  0  0  0  0  0  0  0  0  0
   34.6804   -3.9984   12.4550 C   0  0  0  0  0  0  0  0  0  0  0  0
   33.7271   -5.0123   12.3878 C   0  0  0  0  0  0  0  0  0  0  0  0
   32.7609   -4.9886   11.4450 N   0  0  0  0  0  0  0  0  0  0  0  0
   34.9134   -2.8791   11.7381 N   0  0  0  0  0  0  0  0  0  0  0  0
   36.0040   -2.2713   12.2707 C   0  0  0  0  0  0  0  0  0  0  0  0
   36.4461   -3.0027   13.3112 N   0  0  0  0  0  0  0  0  0  0  0  0
   32.0924   -5.7103   11.4069 H   0  0  0  0  0  0  0  0  0  0  0  0
   32.7249   -4.2495   10.7956 H   0  0  0  0  0  0  0  0  0  0  0  0
   41.4586    2.8826   14.7485 O   0  0  0  0  0  0  0  0  0  0  0  0
   42.3650    1.5046   13.0808 O   0  0  0  0  0  0  0  0  0  0  0  0
   41.1579    2.1064   13.5780 S   0  0  0  0  0  0  0  0  0  0  0  0
   40.4033    3.0263   12.3881 C   0  0  0  0  0  0  0  0  0  0  0  0
   38.0991    5.9765   13.1112 C   0  0  0  0  0  0  0  0  0  0  0  0
   39.4785    5.3523   13.2542 C   0  0  0  0  0  0  0  0  0  0  0  0
   40.4028    6.0071   12.3762 O   0  0  0  0  0  0  0  0  0  0  0  0
   39.2753    3.8642   12.9599 C   0  0  0  0  0  0  0  0  0  0  0  0
   37.8002    3.6838   12.6042 C   0  0  0  0  0  0  0  0  0  0  0  0
   37.1525    4.9027   12.9888 O   0  0  0  0  0  0  0  0  0  0  0  0
   40.0804    5.9458   11.4634 H   0  0  0  0  0  0  0  0  0  0  0  0
   37.9920    6.8765   14.3106 N   0  0  0  0  0  0  0  0  0  0  0  0
   37.0049    7.9111   14.0378 C   0  0  0  0  0  0  0  0  0  0  0  0
   36.4335    8.0964   12.9599 O   0  0  0  0  0  0  0  0  0  0  0  0
   36.7401    8.7322   15.1674 N   0  0  0  0  0  0  0  0  0  0  0  0
   37.3391    8.6289   16.4836 C   0  0  0  0  0  0  0  0  0  0  0  0
   37.0074    9.4067   17.3396 O   0  0  0  0  0  0  0  0  0  0  0  0
   38.3217    7.5601   16.6636 C   0  0  0  0  0  0  0  0  0  0  0  0
   38.5982    6.7552   15.6036 C   0  0  0  0  0  0  0  0  0  0  0  0
   36.0775    9.4495   15.0423 H   0  0  0  0  0  0  0  0  0  0  0  0
   37.1630    2.5708   13.4253 C   0  0  0  0  0  0  0  0  0  0  0  0
   37.3008    1.3233   12.7292 O   0  0  0  0  0  0  0  0  0  0  0  0
   36.8587    1.3831   11.8679 H   0  0  0  0  0  0  0  0  0  0  0  0
 14 15  2  0  0  0
 14 19  1  0  0  0
  5  6  1  0  0  0
  5 11  1  0  0  0
  5 23  1  0  0  0
 30 37  1  0  0  0
 30 31  1  0  0  0
 30 35  1  0  0  0
 37 38  1  0  0  0
 37 44  1  0  0  0
 29 33  1  0  0  0
 29 28  1  0  0  0
 26 28  2  0  0  0
 15 16  1  0  0  0
  6  7  1  0  0  0
  6  8  1  0  0  0
 31 32  1  0  0  0
 31 33  1  0  0  0
 38 39  2  0  0  0
 38 40  1  0  0  0
 27 28  2  0  0  0
 16 17  2  0  0  0
  8  9  1  0  0  0
  8 10  1  0  0  0
 33 34  1  0  0  0
 40 41  1  0  0  0
  1  2  1  0  0  0
  1 28  1  0  0  0
 17 18  1  0  0  0
 17 23  1  0  0  0
 10 11  1  0  0  0
 10  2  1  0  0  0
 34 35  1  0  0  0
 34 46  1  0  0  0
 41 42  2  0  0  0
 41 43  1  0  0  0
 18 19  2  0  0  0
 18 21  1  0  0  0
  2  3  2  0  0  0
 46 47  1  0  0  0
 43 44  2  0  0  0
 19 20  1  0  0  0
 21 22  2  0  0  0
 22 23  1  0  0  0
  7 12  1  0  0  0
 32 36  1  0  0  0
  9 13  1  0  0  0
 40 45  1  0  0  0
  1  4  1  0  0  0
 47 48  1  0  0  0
 20 24  1  0  0  0
 20 25  1  0  0  0
M  END
> <minimizedAffinity>
-9.09212

$$$$
2XOG_SFB_A_1125


 48 52  0  0  0  0  0  0  0  0999 V2000
   38.4056    2.4749   13.1346 N   0  0  0  0  0  0  0  0  0  0  0  0
   38.4256    1.6176   14.3176 C   0  0  0  0  0  0  0  0  0  0  0  0
   39.2588    2.1966   15.3299 O   0  0  0  0  0  0  0  0  0  0  0  0
   38.9593    2.2476   12.3529 H   0  0  0  0  0  0  0  0  0  0  0  0
   37.9569   -1.7463   13.1215 C   0  0  0  0  0  0  0  0  0  0  0  0
   38.8640   -1.1943   12.0273 C   0  0  0  0  0  0  0  0  0  0  0  0
   39.8596   -2.1677   11.6917 O   0  0  0  0  0  0  0  0  0  0  0  0
   39.4984    0.0491   12.6177 C   0  0  0  0  0  0  0  0  0  0  0  0
   40.9187   -0.1005   12.6870 O   0  0  0  0  0  0  0  0  0  0  0  0
   38.9056    0.1984   14.0177 C   0  0  0  0  0  0  0  0  0  0  0  0
   37.7879   -0.7064   14.0872 O   0  0  0  0  0  0  0  0  0  0  0  0
   40.3660   -2.3994   12.4860 H   0  0  0  0  0  0  0  0  0  0  0  0
   41.1361   -0.8771   13.2259 H   0  0  0  0  0  0  0  0  0  0  0  0
   34.4215   -5.4648   13.5065 N   0  0  0  0  0  0  0  0  0  0  0  0
   35.5198   -5.2505   14.2476 C   0  0  0  0  0  0  0  0  0  0  0  0
   36.3330   -4.2108   13.9956 N   0  0  0  0  0  0  0  0  0  0  0  0
   36.0571   -3.3480   12.9839 C   0  0  0  0  0  0  0  0  0  0  0  0
   34.9311   -3.5441   12.2021 C   0  0  0  0  0  0  0  0  0  0  0  0
   34.1085   -4.6333   12.4820 C   0  0  0  0  0  0  0  0  0  0  0  0
   32.9976   -4.8641   11.7501 N   0  0  0  0  0  0  0  0  0  0  0  0
   34.9009   -2.5556   11.2839 N   0  0  0  0  0  0  0  0  0  0  0  0
   35.9869   -1.7687   11.4935 C   0  0  0  0  0  0  0  0  0  0  0  0
   36.6868   -2.2597   12.5338 N   0  0  0  0  0  0  0  0  0  0  0  0
   32.4237   -5.6368   11.9568 H   0  0  0  0  0  0  0  0  0  0  0  0
   32.7616   -4.2597   11.0097 H   0  0  0  0  0  0  0  0  0  0  0  0
   37.0882    4.0093   11.7435 O   0  0  0  0  0  0  0  0  0  0  0  0
   36.3072    3.5674   13.9107 O   0  0  0  0  0  0  0  0  0  0  0  0
   37.4789    3.7903   13.1083 S   0  0  0  0  0  0  0  0  0  0  0  0
   38.3960    5.0646   13.7138 C   0  0  0  0  0  0  0  0  0  0  0  0
   41.2549    6.5270   11.6585 C   0  0  0  0  0  0  0  0  0  0  0  0
   39.8166    6.0348   11.6997 C   0  0  0  0  0  0  0  0  0  0  0  0
   38.9184    7.1504   11.6494 O   0  0  0  0  0  0  0  0  0  0  0  0
   39.7166    5.2019   12.9798 C   0  0  0  0  0  0  0  0  0  0  0  0
   41.0803    5.2827   13.6645 C   0  0  0  0  0  0  0  0  0  0  0  0
   41.9751    5.8353   12.6915 O   0  0  0  0  0  0  0  0  0  0  0  0
   39.1073    7.7511   12.3872 H   0  0  0  0  0  0  0  0  0  0  0  0
   41.6688    6.2914   10.2326 N   0  0  0  0  0  0  0  0  0  0  0  0
   41.5412    7.5380    9.4919 C   0  0  0  0  0  0  0  0  0  0  0  0
   41.0608    8.5887    9.9256 O   0  0  0  0  0  0  0  0  0  0  0  0
   42.0370    7.4432    8.1632 N   0  0  0  0  0  0  0  0  0  0  0  0
   42.6193    6.2774    7.5279 C   0  0  0  0  0  0  0  0  0  0  0  0
   42.9930    6.3586    6.3871 O   0  0  0  0  0  0  0  0  0  0  0  0
   42.7048    5.0698    8.3492 C   0  0  0  0  0  0  0  0  0  0  0  0
   42.2405    5.1257    9.6257 C   0  0  0  0  0  0  0  0  0  0  0  0
   41.9785    8.2584    7.6142 H   0  0  0  0  0  0  0  0  0  0  0  0
   41.6105    3.8979   14.0112 C   0  0  0  0  0  0  0  0  0  0  0  0
   41.2941    2.9846   12.9502 O   0  0  0  0  0  0  0  0  0  0  0  0
   40.3318    2.9428   12.8358 H   0  0  0  0  0  0  0  0  0  0  0  0
 14 15  2  0  0  0
 14 19  1  0  0  0
  5  6  1  0  0  0
  5 11  1  0  0  0
  5 23  1  0  0  0
 30 37  1  0  0  0
 30 31  1  0  0  0
 30 35  1  0  0  0
 37 38  1  0  0  0
 37 44  1  0  0  0
 29 33  1  0  0  0
 29 28  1  0  0  0
 26 28  2  0  0  0
 15 16  1  0  0  0
  6  7  1  0  0  0
  6  8  1  0  0  0
 31 32  1  0  0  0
 31 33  1  0  0  0
 38 39  2  0  0  0
 38 40  1  0  0  0
 27 28  2  0  0  0
 16 17  2  0  0  0
  8  9  1  0  0  0
  8 10  1  0  0  0
 33 34  1  0  0  0
 40 41  1  0  0  0
  1  2  1  0  0  0
  1 28  1  0  0  0
 17 18  1  0  0  0
 17 23  1  0  0  0
 10 11  1  0  0  0
 10  2  1  0  0  0
 34 35  1  0  0  0
 34 46  1  0  0  0
 41 42  2  0  0  0
 41 43  1  0  0  0
 18 19  2  0  0  0
 18 21  1  0  0  0
  2  3  2  0  0  0
 46 47  1  0  0  0
 43 44  2  0  0  0
 19 20  1  0  0  0
 21 22  2  0  0  0
 22 23  1  0  0  0
  7 12  1  0  0  0
 32 36  1  0  0  0
  9 13  1  0  0  0
 40 45  1  0  0  0
  1  4  1  0  0  0
 47 48  1  0  0  0
 20 24  1  0  0  0
 20 25  1  0  0  0
M  END
> <minimizedAffinity>
-8.93649

$$$$
2XOG_SFB_A_1125


 48 52  0  0  0  0  0  0  0  0999 V2000
   40.2800    1.5170   11.8295 N   0  0  0  0  0  0  0  0  0  0  0  0
   39.3775    0.6101   12.5350 C   0  0  0  0  0  0  0  0  0  0  0  0
   40.1315   -0.3121   13.3319 O   0  0  0  0  0  0  0  0  0  0  0  0
   40.4863    1.3647   10.8789 H   0  0  0  0  0  0  0  0  0  0  0  0
   37.2275   -2.1571   11.7068 C   0  0  0  0  0  0  0  0  0  0  0  0
   36.1989   -1.0360   11.8061 C   0  0  0  0  0  0  0  0  0  0  0  0
   35.2627   -1.1456   10.7277 O   0  0  0  0  0  0  0  0  0  0  0  0
   36.9933    0.2509   11.7061 C   0  0  0  0  0  0  0  0  0  0  0  0
   36.5942    0.9949   10.5522 O   0  0  0  0  0  0  0  0  0  0  0  0
   38.4582   -0.1677   11.5946 C   0  0  0  0  0  0  0  0  0  0  0  0
   38.5102   -1.5672   11.9285 O   0  0  0  0  0  0  0  0  0  0  0  0
   35.7378   -1.1143    9.8826 H   0  0  0  0  0  0  0  0  0  0  0  0
   36.7274    0.4551    9.7574 H   0  0  0  0  0  0  0  0  0  0  0  0
   33.6218   -5.6453   12.8491 N   0  0  0  0  0  0  0  0  0  0  0  0
   33.6483   -4.7363   11.8620 C   0  0  0  0  0  0  0  0  0  0  0  0
   34.6910   -3.9009   11.7182 N   0  0  0  0  0  0  0  0  0  0  0  0
   35.7471   -3.9619   12.5697 C   0  0  0  0  0  0  0  0  0  0  0  0
   35.7473   -4.8894   13.5980 C   0  0  0  0  0  0  0  0  0  0  0  0
   34.6509   -5.7395   13.7272 C   0  0  0  0  0  0  0  0  0  0  0  0
   34.6067   -6.6625   14.7115 N   0  0  0  0  0  0  0  0  0  0  0  0
   36.9000   -4.7324   14.2820 N   0  0  0  0  0  0  0  0  0  0  0  0
   37.5940   -3.7275   13.6896 C   0  0  0  0  0  0  0  0  0  0  0  0
   36.8828   -3.2633   12.6447 N   0  0  0  0  0  0  0  0  0  0  0  0
   33.8269   -7.2579   14.7933 H   0  0  0  0  0  0  0  0  0  0  0  0
   35.3542   -6.7401   15.3475 H   0  0  0  0  0  0  0  0  0  0  0  0
   42.3131    2.4353   12.8533 O   0  0  0  0  0  0  0  0  0  0  0  0
   40.8686    3.9355   11.7740 O   0  0  0  0  0  0  0  0  0  0  0  0
   40.9372    2.7646   12.6050 S   0  0  0  0  0  0  0  0  0  0  0  0
   40.0734    2.9818   14.0326 C   0  0  0  0  0  0  0  0  0  0  0  0
   38.7002    6.4857   13.4217 C   0  0  0  0  0  0  0  0  0  0  0  0
   39.5861    5.5756   14.2581 C   0  0  0  0  0  0  0  0  0  0  0  0
   40.9644    5.8253   13.9555 O   0  0  0  0  0  0  0  0  0  0  0  0
   39.1168    4.1552   13.9348 C   0  0  0  0  0  0  0  0  0  0  0  0
   38.0144    4.2848   12.8845 C   0  0  0  0  0  0  0  0  0  0  0  0
   37.6574    5.6722   12.8604 O   0  0  0  0  0  0  0  0  0  0  0  0
   41.1165    5.6916   13.0068 H   0  0  0  0  0  0  0  0  0  0  0  0
   38.3053    7.5740   14.3808 N   0  0  0  0  0  0  0  0  0  0  0  0
   37.1086    8.2338   13.8793 C   0  0  0  0  0  0  0  0  0  0  0  0
   36.5703    8.0204   12.7896 O   0  0  0  0  0  0  0  0  0  0  0  0
   36.5848    9.1920   14.7892 N   0  0  0  0  0  0  0  0  0  0  0  0
   37.1160    9.5430   16.0917 C   0  0  0  0  0  0  0  0  0  0  0  0
   36.5538   10.3821   16.7456 O   0  0  0  0  0  0  0  0  0  0  0  0
   38.3221    8.8291   16.5108 C   0  0  0  0  0  0  0  0  0  0  0  0
   38.8493    7.9047   15.6649 C   0  0  0  0  0  0  0  0  0  0  0  0
   35.7726    9.6694   14.5038 H   0  0  0  0  0  0  0  0  0  0  0  0
   36.7643    3.5176   13.2939 C   0  0  0  0  0  0  0  0  0  0  0  0
   35.7290    4.4451   13.6516 O   0  0  0  0  0  0  0  0  0  0  0  0
   36.0287    4.9939   14.3931 H   0  0  0  0  0  0  0  0  0  0  0  0
 14 15  2  0  0  0
 14 19  1  0  0  0
  5  6  1  0  0  0
  5 11  1  0  0  0
  5 23  1  0  0  0
 30 37  1  0  0  0
 30 31  1  0  0  0
 30 35  1  0  0  0
 37 38  1  0  0  0
 37 44  1  0  0  0
 29 33  1  0  0  0
 29 28  1  0  0  0
 26 28  2  0  0  0
 15 16  1  0  0  0
  6  7  1  0  0  0
  6  8  1  0  0  0
 31 32  1  0  0  0
 31 33  1  0  0  0
 38 39  2  0  0  0
 38 40  1  0  0  0
 27 28  2  0  0  0
 16 17  2  0  0  0
  8  9  1  0  0  0
  8 10  1  0  0  0
 33 34  1  0  0  0
 40 41  1  0  0  0
  1  2  1  0  0  0
  1 28  1  0  0  0
 17 18  1  0  0  0
 17 23  1  0  0  0
 10 11  1  0  0  0
 10  2  1  0  0  0
 34 35  1  0  0  0
 34 46  1  0  0  0
 41 42  2  0  0  0
 41 43  1  0  0  0
 18 19  2  0  0  0
 18 21  1  0  0  0
  2  3  2  0  0  0
 46 47  1  0  0  0
 43 44  2  0  0  0
 19 20  1  0  0  0
 21 22  2  0  0  0
 22 23  1  0  0  0
  7 12  1  0  0  0
 32 36  1  0  0  0
  9 13  1  0  0  0
 40 45  1  0  0  0
  1  4  1  0  0  0
 47 48  1  0  0  0
 20 24  1  0  0  0
 20 25  1  0  0  0
M  END
> <minimizedAffinity>
-8.73336

$$$$
2XOG_SFB_A_1125


 48 52  0  0  0  0  0  0  0  0999 V2000
   38.5919    5.8451   13.8438 N   0  0  0  0  0  0  0  0  0  0  0  0
   37.8391    7.0387   13.4648 C   0  0  0  0  0  0  0  0  0  0  0  0
   38.5007    7.7158   12.3888 O   0  0  0  0  0  0  0  0  0  0  0  0
   39.1717    5.8612   14.6392 H   0  0  0  0  0  0  0  0  0  0  0  0
   37.8111    7.9055   16.9597 C   0  0  0  0  0  0  0  0  0  0  0  0
   39.0315    8.6929   16.4957 C   0  0  0  0  0  0  0  0  0  0  0  0
   39.0179    9.9957   17.0907 O   0  0  0  0  0  0  0  0  0  0  0  0
   38.9043    8.7838   14.9881 C   0  0  0  0  0  0  0  0  0  0  0  0
   38.7936   10.1492   14.5784 O   0  0  0  0  0  0  0  0  0  0  0  0
   37.6375    8.0105   14.6264 C   0  0  0  0  0  0  0  0  0  0  0  0
   37.2586    7.2729   15.8034 O   0  0  0  0  0  0  0  0  0  0  0  0
   38.1943   10.4504   16.8546 H   0  0  0  0  0  0  0  0  0  0  0  0
   38.0224   10.5535   15.0058 H   0  0  0  0  0  0  0  0  0  0  0  0
   40.6363    3.7571   18.0924 N   0  0  0  0  0  0  0  0  0  0  0  0
   40.5178    4.4184   16.9306 C   0  0  0  0  0  0  0  0  0  0  0  0
   39.7233    5.4971   16.8259 N   0  0  0  0  0  0  0  0  0  0  0  0
   39.0235    5.9459   17.8996 C   0  0  0  0  0  0  0  0  0  0  0  0
   39.1256    5.2835   19.1114 C   0  0  0  0  0  0  0  0  0  0  0  0
   39.9524    4.1647   19.1902 C   0  0  0  0  0  0  0  0  0  0  0  0
   40.0873    3.4878   20.3506 N   0  0  0  0  0  0  0  0  0  0  0  0
   38.3357    5.9318   19.9928 N   0  0  0  0  0  0  0  0  0  0  0  0
   37.7568    6.9700   19.3374 C   0  0  0  0  0  0  0  0  0  0  0  0
   38.1829    6.9712   18.0601 N   0  0  0  0  0  0  0  0  0  0  0  0
   40.6742    2.6986   20.3947 H   0  0  0  0  0  0  0  0  0  0  0  0
   39.5987    3.7834   21.1526 H   0  0  0  0  0  0  0  0  0  0  0  0
   37.2062    4.5476   12.2878 O   0  0  0  0  0  0  0  0  0  0  0  0
   39.5315    4.4759   11.9887 O   0  0  0  0  0  0  0  0  0  0  0  0
   38.4738    4.5042   12.9618 S   0  0  0  0  0  0  0  0  0  0  0  0
   38.5832    3.1970   14.0157 C   0  0  0  0  0  0  0  0  0  0  0  0
   37.5497    0.3470   11.7036 C   0  0  0  0  0  0  0  0  0  0  0  0
   37.2780    1.1425   12.9709 C   0  0  0  0  0  0  0  0  0  0  0  0
   36.1505    2.0046   12.7725 O   0  0  0  0  0  0  0  0  0  0  0  0
   38.5876    1.8759   13.2699 C   0  0  0  0  0  0  0  0  0  0  0  0
   39.5555    1.5256   12.1405 C   0  0  0  0  0  0  0  0  0  0  0  0
   38.9601    0.4257   11.4414 O   0  0  0  0  0  0  0  0  0  0  0  0
   36.3198    2.5899   12.0178 H   0  0  0  0  0  0  0  0  0  0  0  0
   36.9630   -1.0046   12.0016 N   0  0  0  0  0  0  0  0  0  0  0  0
   35.6712   -1.1148   11.3398 C   0  0  0  0  0  0  0  0  0  0  0  0
   35.0928   -0.2101   10.7317 O   0  0  0  0  0  0  0  0  0  0  0  0
   35.1003   -2.4112   11.4571 N   0  0  0  0  0  0  0  0  0  0  0  0
   35.6655   -3.5572   12.1421 C   0  0  0  0  0  0  0  0  0  0  0  0
   35.0528   -4.5927   12.1527 O   0  0  0  0  0  0  0  0  0  0  0  0
   36.9662   -3.3515   12.7793 C   0  0  0  0  0  0  0  0  0  0  0  0
   37.5415   -2.1234   12.6856 C   0  0  0  0  0  0  0  0  0  0  0  0
   34.2255   -2.5457   11.0260 H   0  0  0  0  0  0  0  0  0  0  0  0
   40.8881    1.0291   12.6850 C   0  0  0  0  0  0  0  0  0  0  0  0
   40.7634   -0.3464   13.0752 O   0  0  0  0  0  0  0  0  0  0  0  0
   40.0834   -0.4272   13.7621 H   0  0  0  0  0  0  0  0  0  0  0  0
 14 15  2  0  0  0
 14 19  1  0  0  0
  5  6  1  0  0  0
  5 11  1  0  0  0
  5 23  1  0  0  0
 30 37  1  0  0  0
 30 31  1  0  0  0
 30 35  1  0  0  0
 37 38  1  0  0  0
 37 44  1  0  0  0
 29 33  1  0  0  0
 29 28  1  0  0  0
 26 28  2  0  0  0
 15 16  1  0  0  0
  6  7  1  0  0  0
  6  8  1  0  0  0
 31 32  1  0  0  0
 31 33  1  0  0  0
 38 39  2  0  0  0
 38 40  1  0  0  0
 27 28  2  0  0  0
 16 17  2  0  0  0
  8  9  1  0  0  0
  8 10  1  0  0  0
 33 34  1  0  0  0
 40 41  1  0  0  0
  1  2  1  0  0  0
  1 28  1  0  0  0
 17 18  1  0  0  0
 17 23  1  0  0  0
 10 11  1  0  0  0
 10  2  1  0  0  0
 34 35  1  0  0  0
 34 46  1  0  0  0
 41 42  2  0  0  0
 41 43  1  0  0  0
 18 19  2  0  0  0
 18 21  1  0  0  0
  2  3  2  0  0  0
 46 47  1  0  0  0
 43 44  2  0  0  0
 19 20  1  0  0  0
 21 22  2  0  0  0
 22 23  1  0  0  0
  7 12  1  0  0  0
 32 36  1  0  0  0
  9 13  1  0  0  0
 40 45  1  0  0  0
  1  4  1  0  0  0
 47 48  1  0  0  0
 20 24  1  0  0  0
 20 25  1  0  0  0
M  END
> <minimizedAffinity>
-8.68197

$$$$
2XOG_SFB_A_1125


 48 52  0  0  0  0  0  0  0  0999 V2000
   39.0801    4.2970   13.3578 N   0  0  0  0  0  0  0  0  0  0  0  0
   38.4103    3.1693   12.7140 C   0  0  0  0  0  0  0  0  0  0  0  0
   37.1223    3.5729   12.2319 O   0  0  0  0  0  0  0  0  0  0  0  0
   39.0925    4.3663   14.3398 H   0  0  0  0  0  0  0  0  0  0  0  0
   37.2459   -0.1473   13.4950 C   0  0  0  0  0  0  0  0  0  0  0  0
   38.7462   -0.4025   13.4017 C   0  0  0  0  0  0  0  0  0  0  0  0
   39.1553   -1.2616   14.4723 O   0  0  0  0  0  0  0  0  0  0  0  0
   39.3962    0.9614   13.5222 C   0  0  0  0  0  0  0  0  0  0  0  0
   40.2307    1.0154   14.6819 O   0  0  0  0  0  0  0  0  0  0  0  0
   38.2495    1.9639   13.6389 C   0  0  0  0  0  0  0  0  0  0  0  0
   37.0475    1.2529   13.2891 O   0  0  0  0  0  0  0  0  0  0  0  0
   38.9188   -0.8557   15.3209 H   0  0  0  0  0  0  0  0  0  0  0  0
   39.7001    0.8250   15.4712 H   0  0  0  0  0  0  0  0  0  0  0  0
   35.4659   -4.9238   12.7942 N   0  0  0  0  0  0  0  0  0  0  0  0
   36.1213   -4.4019   13.8428 C   0  0  0  0  0  0  0  0  0  0  0  0
   36.5090   -3.1153   13.8461 N   0  0  0  0  0  0  0  0  0  0  0  0
   36.2409   -2.3106   12.7856 C   0  0  0  0  0  0  0  0  0  0  0  0
   35.5665   -2.8216   11.6893 C   0  0  0  0  0  0  0  0  0  0  0  0
   35.1811   -4.1604   11.7102 C   0  0  0  0  0  0  0  0  0  0  0  0
   34.5184   -4.7032   10.6666 N   0  0  0  0  0  0  0  0  0  0  0  0
   35.4368   -1.8206   10.7935 N   0  0  0  0  0  0  0  0  0  0  0  0
   36.0214   -0.7169   11.3252 C   0  0  0  0  0  0  0  0  0  0  0  0
   36.5091   -1.0253   12.5419 N   0  0  0  0  0  0  0  0  0  0  0  0
   34.2509   -5.6503   10.6922 H   0  0  0  0  0  0  0  0  0  0  0  0
   34.3026   -4.1519    9.8800 H   0  0  0  0  0  0  0  0  0  0  0  0
   41.0543    4.8867   12.0238 O   0  0  0  0  0  0  0  0  0  0  0  0
   38.9791    5.7225   11.3190 O   0  0  0  0  0  0  0  0  0  0  0  0
   39.7975    5.4259   12.4630 S   0  0  0  0  0  0  0  0  0  0  0  0
   39.9994    6.7852   13.4339 C   0  0  0  0  0  0  0  0  0  0  0  0
   38.5018    7.5054   16.8654 C   0  0  0  0  0  0  0  0  0  0  0  0
   39.6179    6.8663   16.0538 C   0  0  0  0  0  0  0  0  0  0  0  0
   40.8129    7.6489   16.1685 O   0  0  0  0  0  0  0  0  0  0  0  0
   39.0664    6.7622   14.6300 C   0  0  0  0  0  0  0  0  0  0  0  0
   37.6740    7.3914   14.6507 C   0  0  0  0  0  0  0  0  0  0  0  0
   37.3304    7.5369   16.0341 O   0  0  0  0  0  0  0  0  0  0  0  0
   40.6355    8.5554   15.8722 H   0  0  0  0  0  0  0  0  0  0  0  0
   38.4546    6.6750   18.1176 N   0  0  0  0  0  0  0  0  0  0  0  0
   37.4532    7.2314   19.0156 C   0  0  0  0  0  0  0  0  0  0  0  0
   36.8271    8.2797   18.8370 O   0  0  0  0  0  0  0  0  0  0  0  0
   37.2451    6.4324   20.1726 N   0  0  0  0  0  0  0  0  0  0  0  0
   37.9107    5.1889   20.5081 C   0  0  0  0  0  0  0  0  0  0  0  0
   37.6220    4.6294   21.5335 O   0  0  0  0  0  0  0  0  0  0  0  0
   38.9030    4.7080   19.5468 C   0  0  0  0  0  0  0  0  0  0  0  0
   39.1263    5.4476   18.4283 C   0  0  0  0  0  0  0  0  0  0  0  0
   36.5758    6.7591   20.8165 H   0  0  0  0  0  0  0  0  0  0  0  0
   36.6355    6.4624   14.0364 C   0  0  0  0  0  0  0  0  0  0  0  0
   35.5941    7.2422   13.4305 O   0  0  0  0  0  0  0  0  0  0  0  0
   35.1723    7.7977   14.1046 H   0  0  0  0  0  0  0  0  0  0  0  0
 14 15  2  0  0  0
 14 19  1  0  0  0
  5  6  1  0  0  0
  5 11  1  0  0  0
  5 23  1  0  0  0
 30 37  1  0  0  0
 30 31  1  0  0  0
 30 35  1  0  0  0
 37 38  1  0  0  0
 37 44  1  0  0  0
 29 33  1  0  0  0
 29 28  1  0  0  0
 26 28  2  0  0  0
 15 16  1  0  0  0
  6  7  1  0  0  0
  6  8  1  0  0  0
 31 32  1  0  0  0
 31 33  1  0  0  0
 38 39  2  0  0  0
 38 40  1  0  0  0
 27 28  2  0  0  0
 16 17  2  0  0  0
  8  9  1  0  0  0
  8 10  1  0  0  0
 33 34  1  0  0  0
 40 41  1  0  0  0
  1  2  1  0  0  0
  1 28  1  0  0  0
 17 18  1  0  0  0
 17 23  1  0  0  0
 10 11  1  0  0  0
 10  2  1  0  0  0
 34 35  1  0  0  0
 34 46  1  0  0  0
 41 42  2  0  0  0
 41 43  1  0  0  0
 18 19  2  0  0  0
 18 21  1  0  0  0
  2  3  2  0  0  0
 46 47  1  0  0  0
 43 44  2  0  0  0
 19 20  1  0  0  0
 21 22  2  0  0  0
 22 23  1  0  0  0
  7 12  1  0  0  0
 32 36  1  0  0  0
  9 13  1  0  0  0
 40 45  1  0  0  0
  1  4  1  0  0  0
 47 48  1  0  0  0
 20 24  1  0  0  0
 20 25  1  0  0  0
M  END
> <minimizedAffinity>
-8.62773

$$$$
2XOG_SFB_A_1125


 48 52  0  0  0  0  0  0  0  0999 V2000
   40.1884   -0.4361   14.4251 N   0  0  0  0  0  0  0  0  0  0  0  0
   40.7733    0.8282   13.9842 C   0  0  0  0  0  0  0  0  0  0  0  0
   41.0526    1.6617   15.1163 O   0  0  0  0  0  0  0  0  0  0  0  0
   39.2162   -0.5770   14.3611 H   0  0  0  0  0  0  0  0  0  0  0  0
   37.9122    1.1356   11.8196 C   0  0  0  0  0  0  0  0  0  0  0  0
   37.5027    2.0798   12.9446 C   0  0  0  0  0  0  0  0  0  0  0  0
   36.9289    3.2689   12.3894 O   0  0  0  0  0  0  0  0  0  0  0  0
   38.7821    2.3939   13.6941 C   0  0  0  0  0  0  0  0  0  0  0  0
   39.0681    3.7932   13.6282 O   0  0  0  0  0  0  0  0  0  0  0  0
   39.8814    1.5883   13.0039 C   0  0  0  0  0  0  0  0  0  0  0  0
   39.2177    0.6489   12.1380 O   0  0  0  0  0  0  0  0  0  0  0  0
   37.5682    3.6881   11.7923 H   0  0  0  0  0  0  0  0  0  0  0  0
   39.1472    4.0637   12.7000 H   0  0  0  0  0  0  0  0  0  0  0  0
   36.2505   -3.3870   13.6248 N   0  0  0  0  0  0  0  0  0  0  0  0
   37.2657   -2.6188   14.0497 C   0  0  0  0  0  0  0  0  0  0  0  0
   37.5509   -1.4525   13.4464 N   0  0  0  0  0  0  0  0  0  0  0  0
   36.8117   -1.0219   12.3917 C   0  0  0  0  0  0  0  0  0  0  0  0
   35.7582   -1.7937   11.9310 C   0  0  0  0  0  0  0  0  0  0  0  0
   35.4883   -3.0011   12.5717 C   0  0  0  0  0  0  0  0  0  0  0  0
   34.4697   -3.7865   12.1612 N   0  0  0  0  0  0  0  0  0  0  0  0
   35.2047   -1.1390   10.8888 N   0  0  0  0  0  0  0  0  0  0  0  0
   35.9040    0.0105   10.7093 C   0  0  0  0  0  0  0  0  0  0  0  0
   36.8829    0.0739   11.6317 N   0  0  0  0  0  0  0  0  0  0  0  0
   34.2881   -4.6377   12.6214 H   0  0  0  0  0  0  0  0  0  0  0  0
   33.9085   -3.5081   11.4017 H   0  0  0  0  0  0  0  0  0  0  0  0
   41.0085   -2.7322   14.1423 O   0  0  0  0  0  0  0  0  0  0  0  0
   42.4977   -1.1487   15.0236 O   0  0  0  0  0  0  0  0  0  0  0  0
   41.1323   -1.5982   15.0152 S   0  0  0  0  0  0  0  0  0  0  0  0
   40.5961   -1.9402   16.5730 C   0  0  0  0  0  0  0  0  0  0  0  0
   40.0943    0.6200   19.3533 C   0  0  0  0  0  0  0  0  0  0  0  0
   39.6639    0.0917   17.9938 C   0  0  0  0  0  0  0  0  0  0  0  0
   38.4199   -0.6094   18.1152 O   0  0  0  0  0  0  0  0  0  0  0  0
   40.8314   -0.7740   17.5144 C   0  0  0  0  0  0  0  0  0  0  0  0
   41.8742   -0.7633   18.6313 C   0  0  0  0  0  0  0  0  0  0  0  0
   41.4812    0.2861   19.5243 O   0  0  0  0  0  0  0  0  0  0  0  0
   38.5154   -1.3283   18.7593 H   0  0  0  0  0  0  0  0  0  0  0  0
   39.7214    2.0754   19.3016 N   0  0  0  0  0  0  0  0  0  0  0  0
   38.7838    2.3610   20.3778 C   0  0  0  0  0  0  0  0  0  0  0  0
   38.2816    1.5278   21.1369 O   0  0  0  0  0  0  0  0  0  0  0  0
   38.4764    3.7444   20.4888 N   0  0  0  0  0  0  0  0  0  0  0  0
   38.9880    4.8228   19.6659 C   0  0  0  0  0  0  0  0  0  0  0  0
   38.6271    5.9491   19.8875 O   0  0  0  0  0  0  0  0  0  0  0  0
   39.9233    4.4400   18.6082 C   0  0  0  0  0  0  0  0  0  0  0  0
   40.2401    3.1248   18.4746 C   0  0  0  0  0  0  0  0  0  0  0  0
   37.8474    3.9979   21.2024 H   0  0  0  0  0  0  0  0  0  0  0  0
   43.2528   -0.3937   18.1004 C   0  0  0  0  0  0  0  0  0  0  0  0
   43.1317    0.6897   17.1669 O   0  0  0  0  0  0  0  0  0  0  0  0
   42.5634    0.4186   16.4290 H   0  0  0  0  0  0  0  0  0  0  0  0
 14 15  2  0  0  0
 14 19  1  0  0  0
  5  6  1  0  0  0
  5 11  1  0  0  0
  5 23  1  0  0  0
 30 37  1  0  0  0
 30 31  1  0  0  0
 30 35  1  0  0  0
 37 38  1  0  0  0
 37 44  1  0  0  0
 29 33  1  0  0  0
 29 28  1  0  0  0
 26 28  2  0  0  0
 15 16  1  0  0  0
  6  7  1  0  0  0
  6  8  1  0  0  0
 31 32  1  0  0  0
 31 33  1  0  0  0
 38 39  2  0  0  0
 38 40  1  0  0  0
 27 28  2  0  0  0
 16 17  2  0  0  0
  8  9  1  0  0  0
  8 10  1  0  0  0
 33 34  1  0  0  0
 40 41  1  0  0  0
  1  2  1  0  0  0
  1 28  1  0  0  0
 17 18  1  0  0  0
 17 23  1  0  0  0
 10 11  1  0  0  0
 10  2  1  0  0  0
 34 35  1  0  0  0
 34 46  1  0  0  0
 41 42  2  0  0  0
 41 43  1  0  0  0
 18 19  2  0  0  0
 18 21  1  0  0  0
  2  3  2  0  0  0
 46 47  1  0  0  0
 43 44  2  0  0  0
 19 20  1  0  0  0
 21 22  2  0  0  0
 22 23  1  0  0  0
  7 12  1  0  0  0
 32 36  1  0  0  0
  9 13  1  0  0  0
 40 45  1  0  0  0
  1  4  1  0  0  0
 47 48  1  0  0  0
 20 24  1  0  0  0
 20 25  1  0  0  0
M  END
> <minimizedAffinity>
-8.50143

$$$$
2XOG_SFB_A_1125


 48 52  0  0  0  0  0  0  0  0999 V2000
   38.1880    4.4336   14.2389 N   0  0  0  0  0  0  0  0  0  0  0  0
   37.8542    3.4612   13.2008 C   0  0  0  0  0  0  0  0  0  0  0  0
   36.4340    3.2794   13.1361 O   0  0  0  0  0  0  0  0  0  0  0  0
   38.5124    4.1252   15.1157 H   0  0  0  0  0  0  0  0  0  0  0  0
   38.0289   -0.1227   12.8981 C   0  0  0  0  0  0  0  0  0  0  0  0
   39.1260    0.2849   11.9208 C   0  0  0  0  0  0  0  0  0  0  0  0
   40.2629   -0.5695   12.0907 O   0  0  0  0  0  0  0  0  0  0  0  0
   39.4678    1.7190   12.2726 C   0  0  0  0  0  0  0  0  0  0  0  0
   40.8319    1.8187   12.6892 O   0  0  0  0  0  0  0  0  0  0  0  0
   38.5285    2.1067   13.4132 C   0  0  0  0  0  0  0  0  0  0  0  0
   37.5219    1.0796   13.4811 O   0  0  0  0  0  0  0  0  0  0  0  0
   40.5716   -0.5181   13.0088 H   0  0  0  0  0  0  0  0  0  0  0  0
   40.9794    1.2407   13.4541 H   0  0  0  0  0  0  0  0  0  0  0  0
   35.8772   -4.7956   12.8081 N   0  0  0  0  0  0  0  0  0  0  0  0
   36.8330   -4.3109   13.6162 C   0  0  0  0  0  0  0  0  0  0  0  0
   37.2714   -3.0470   13.4892 N   0  0  0  0  0  0  0  0  0  0  0  0
   36.7513   -2.2280   12.5391 C   0  0  0  0  0  0  0  0  0  0  0  0
   35.7642   -2.7007   11.6906 C   0  0  0  0  0  0  0  0  0  0  0  0
   35.3322   -4.0168   11.8409 C   0  0  0  0  0  0  0  0  0  0  0  0
   34.3698   -4.5221   11.0400 N   0  0  0  0  0  0  0  0  0  0  0  0
   35.4341   -1.6933   10.8556 N   0  0  0  0  0  0  0  0  0  0  0  0
   36.2035   -0.6232   11.1807 C   0  0  0  0  0  0  0  0  0  0  0  0
   37.0043   -0.9587   12.2100 N   0  0  0  0  0  0  0  0  0  0  0  0
   34.0723   -5.4534   11.1553 H   0  0  0  0  0  0  0  0  0  0  0  0
   33.9656   -3.9591   10.3409 H   0  0  0  0  0  0  0  0  0  0  0  0
   38.0969    6.1903   12.5270 O   0  0  0  0  0  0  0  0  0  0  0  0
   36.7439    6.4533   14.4249 O   0  0  0  0  0  0  0  0  0  0  0  0
   38.0257    6.0084   13.9500 S   0  0  0  0  0  0  0  0  0  0  0  0
   39.2774    6.7988   14.7500 C   0  0  0  0  0  0  0  0  0  0  0  0
   38.9405    7.9151   18.3800 C   0  0  0  0  0  0  0  0  0  0  0  0
   38.7949    6.8016   17.3545 C   0  0  0  0  0  0  0  0  0  0  0  0
   39.8533    5.8490   17.5162 O   0  0  0  0  0  0  0  0  0  0  0  0
   38.7845    7.5084   15.9971 C   0  0  0  0  0  0  0  0  0  0  0  0
   38.9782    8.9983   16.2757 C   0  0  0  0  0  0  0  0  0  0  0  0
   38.7798    9.1623   17.6852 O   0  0  0  0  0  0  0  0  0  0  0  0
   40.7086    6.2984   17.4304 H   0  0  0  0  0  0  0  0  0  0  0  0
   37.9285    7.5603   19.4336 N   0  0  0  0  0  0  0  0  0  0  0  0
   38.6005    6.8549   20.5151 C   0  0  0  0  0  0  0  0  0  0  0  0
   39.7819    6.4986   20.5193 O   0  0  0  0  0  0  0  0  0  0  0  0
   37.7446    6.5951   21.6197 N   0  0  0  0  0  0  0  0  0  0  0  0
   36.3449    6.9517   21.7446 C   0  0  0  0  0  0  0  0  0  0  0  0
   35.7540    6.6573   22.7505 O   0  0  0  0  0  0  0  0  0  0  0  0
   35.7545    7.6570   20.6070 C   0  0  0  0  0  0  0  0  0  0  0  0
   36.5455    7.9227   19.5338 C   0  0  0  0  0  0  0  0  0  0  0  0
   38.1461    6.1212   22.3836 H   0  0  0  0  0  0  0  0  0  0  0  0
   37.9121    9.8362   15.5826 C   0  0  0  0  0  0  0  0  0  0  0  0
   36.6209    9.2531   15.8120 O   0  0  0  0  0  0  0  0  0  0  0  0
   36.6054    8.3512   15.4554 H   0  0  0  0  0  0  0  0  0  0  0  0
 14 15  2  0  0  0
 14 19  1  0  0  0
  5  6  1  0  0  0
  5 11  1  0  0  0
  5 23  1  0  0  0
 30 37  1  0  0  0
 30 31  1  0  0  0
 30 35  1  0  0  0
 37 38  1  0  0  0
 37 44  1  0  0  0
 29 33  1  0  0  0
 29 28  1  0  0  0
 26 28  2  0  0  0
 15 16  1  0  0  0
  6  7  1  0  0  0
  6  8  1  0  0  0
 31 32  1  0  0  0
 31 33  1  0  0  0
 38 39  2  0  0  0
 38 40  1  0  0  0
 27 28  2  0  0  0
 16 17  2  0  0  0
  8  9  1  0  0  0
  8 10  1  0  0  0
 33 34  1  0  0  0
 40 41  1  0  0  0
  1  2  1  0  0  0
  1 28  1  0  0  0
 17 18  1  0  0  0
 17 23  1  0  0  0
 10 11  1  0  0  0
 10  2  1  0  0  0
 34 35  1  0  0  0
 34 46  1  0  0  0
 41 42  2  0  0  0
 41 43  1  0  0  0
 18 19  2  0  0  0
 18 21  1  0  0  0
  2  3  2  0  0  0
 46 47  1  0  0  0
 43 44  2  0  0  0
 19 20  1  0  0  0
 21 22  2  0  0  0
 22 23  1  0  0  0
  7 12  1  0  0  0
 32 36  1  0  0  0
  9 13  1  0  0  0
 40 45  1  0  0  0
  1  4  1  0  0  0
 47 48  1  0  0  0
 20 24  1  0  0  0
 20 25  1  0  0  0
M  END
> <minimizedAffinity>
-8.37440

$$$$
2XOG_SFB_A_1125


 48 52  0  0  0  0  0  0  0  0999 V2000
   40.9976    1.3402   13.3579 N   0  0  0  0  0  0  0  0  0  0  0  0
   39.8047    0.6448   12.8801 C   0  0  0  0  0  0  0  0  0  0  0  0
   38.7869    1.5939   12.5372 O   0  0  0  0  0  0  0  0  0  0  0  0
   41.1795    1.3980   14.3237 H   0  0  0  0  0  0  0  0  0  0  0  0
   37.4690   -1.8732   13.9617 C   0  0  0  0  0  0  0  0  0  0  0  0
   38.7258   -2.7213   13.8016 C   0  0  0  0  0  0  0  0  0  0  0  0
   38.8390   -3.6265   14.9058 O   0  0  0  0  0  0  0  0  0  0  0  0
   39.8782   -1.7369   13.7868 C   0  0  0  0  0  0  0  0  0  0  0  0
   40.7547   -1.9787   14.8902 O   0  0  0  0  0  0  0  0  0  0  0  0
   39.2470   -0.3502   13.8966 C   0  0  0  0  0  0  0  0  0  0  0  0
   37.8362   -0.5237   13.6677 O   0  0  0  0  0  0  0  0  0  0  0  0
   38.8561   -3.1240   15.7353 H   0  0  0  0  0  0  0  0  0  0  0  0
   40.2584   -1.9028   15.7201 H   0  0  0  0  0  0  0  0  0  0  0  0
   34.2084   -5.8189   13.4381 N   0  0  0  0  0  0  0  0  0  0  0  0
   35.1378   -5.5984   14.3809 C   0  0  0  0  0  0  0  0  0  0  0  0
   35.9032   -4.4942   14.3536 N   0  0  0  0  0  0  0  0  0  0  0  0
   35.7488   -3.5713   13.3695 C   0  0  0  0  0  0  0  0  0  0  0  0
   34.7980   -3.7722   12.3829 C   0  0  0  0  0  0  0  0  0  0  0  0
   34.0221   -4.9284   12.4325 C   0  0  0  0  0  0  0  0  0  0  0  0
   33.0799   -5.1669   11.4953 N   0  0  0  0  0  0  0  0  0  0  0  0
   34.8586   -2.7168   11.5440 N   0  0  0  0  0  0  0  0  0  0  0  0
   35.8281   -1.8846   12.0023 C   0  0  0  0  0  0  0  0  0  0  0  0
   36.3659   -2.4141   13.1175 N   0  0  0  0  0  0  0  0  0  0  0  0
   32.5374   -5.9872   11.5402 H   0  0  0  0  0  0  0  0  0  0  0  0
   32.9354   -4.5204   10.7669 H   0  0  0  0  0  0  0  0  0  0  0  0
   43.1778    1.1718   12.2430 O   0  0  0  0  0  0  0  0  0  0  0  0
   41.3950    2.0688   11.0106 O   0  0  0  0  0  0  0  0  0  0  0  0
   42.0143    2.0116   12.3066 S   0  0  0  0  0  0  0  0  0  0  0  0
   42.3797    3.5532   12.8735 C   0  0  0  0  0  0  0  0  0  0  0  0
   41.5208    5.5780    9.7592 C   0  0  0  0  0  0  0  0  0  0  0  0
   42.5849    5.1072   10.7383 C   0  0  0  0  0  0  0  0  0  0  0  0
   43.3984    4.0988   10.1258 O   0  0  0  0  0  0  0  0  0  0  0  0
   41.8111    4.6311   11.9699 C   0  0  0  0  0  0  0  0  0  0  0  0
   40.3265    4.7902   11.6450 C   0  0  0  0  0  0  0  0  0  0  0  0
   40.2685    5.5984   10.4633 O   0  0  0  0  0  0  0  0  0  0  0  0
   42.8369    3.3636    9.8340 H   0  0  0  0  0  0  0  0  0  0  0  0
   42.0628    6.8838    9.2483 N   0  0  0  0  0  0  0  0  0  0  0  0
   42.6641    6.6660    7.9407 C   0  0  0  0  0  0  0  0  0  0  0  0
   42.8141    5.5725    7.3889 O   0  0  0  0  0  0  0  0  0  0  0  0
   43.0871    7.8729    7.3203 N   0  0  0  0  0  0  0  0  0  0  0  0
   42.9766    9.2163    7.8542 C   0  0  0  0  0  0  0  0  0  0  0  0
   43.3866   10.1403    7.2017 O   0  0  0  0  0  0  0  0  0  0  0  0
   42.3604    9.3372    9.1755 C   0  0  0  0  0  0  0  0  0  0  0  0
   41.9433    8.2024    9.7971 C   0  0  0  0  0  0  0  0  0  0  0  0
   43.5003    7.7872    6.4308 H   0  0  0  0  0  0  0  0  0  0  0  0
   39.5980    5.5599   12.7386 C   0  0  0  0  0  0  0  0  0  0  0  0
   38.1844    5.5158   12.4947 O   0  0  0  0  0  0  0  0  0  0  0  0
   37.9921    5.9183   11.6333 H   0  0  0  0  0  0  0  0  0  0  0  0
 14 15  2  0  0  0
 14 19  1  0  0  0
  5  6  1  0  0  0
  5 11  1  0  0  0
  5 23  1  0  0  0
 30 37  1  0  0  0
 30 31  1  0  0  0
 30 35  1  0  0  0
 37 38  1  0  0  0
 37 44  1  0  0  0
 29 33  1  0  0  0
 29 28  1  0  0  0
 26 28  2  0  0  0
 15 16  1  0  0  0
  6  7  1  0  0  0
  6  8  1  0  0  0
 31 32  1  0  0  0
 31 33  1  0  0  0
 38 39  2  0  0  0
 38 40  1  0  0  0
 27 28  2  0  0  0
 16 17  2  0  0  0
  8  9  1  0  0  0
  8 10  1  0  0  0
 33 34  1  0  0  0
 40 41  1  0  0  0
  1  2  1  0  0  0
  1 28  1  0  0  0
 17 18  1  0  0  0
 17 23  1  0  0  0
 10 11  1  0  0  0
 10  2  1  0  0  0
 34 35  1  0  0  0
 34 46  1  0  0  0
 41 42  2  0  0  0
 41 43  1  0  0  0
 18 19  2  0  0  0
 18 21  1  0  0  0
  2  3  2  0  0  0
 46 47  1  0  0  0
 43 44  2  0  0  0
 19 20  1  0  0  0
 21 22  2  0  0  0
 22 23  1  0  0  0
  7 12  1  0  0  0
 32 36  1  0  0  0
  9 13  1  0  0  0
 40 45  1  0  0  0
  1  4  1  0  0  0
 47 48  1  0  0  0
 20 24  1  0  0  0
 20 25  1  0  0  0
M  END
> <minimizedAffinity>
-8.36020

$$$$
2XOG_SFB_A_1125


 48 52  0  0  0  0  0  0  0  0999 V2000
   39.6600   -0.0346   14.0032 N   0  0  0  0  0  0  0  0  0  0  0  0
   39.3935    0.6894   12.7623 C   0  0  0  0  0  0  0  0  0  0  0  0
   38.7391    1.9318   13.0491 O   0  0  0  0  0  0  0  0  0  0  0  0
   39.0739   -0.7774   14.2749 H   0  0  0  0  0  0  0  0  0  0  0  0
   37.3726   -2.1376   11.8187 C   0  0  0  0  0  0  0  0  0  0  0  0
   36.3072   -1.0479   11.8673 C   0  0  0  0  0  0  0  0  0  0  0  0
   35.4313   -1.1813   10.7419 O   0  0  0  0  0  0  0  0  0  0  0  0
   37.0669    0.2624   11.8110 C   0  0  0  0  0  0  0  0  0  0  0  0
   36.7056    0.9984   10.6397 O   0  0  0  0  0  0  0  0  0  0  0  0
   38.5474   -0.1120   11.7742 C   0  0  0  0  0  0  0  0  0  0  0  0
   38.6240   -1.5105   12.1074 O   0  0  0  0  0  0  0  0  0  0  0  0
   35.9481   -1.1329    9.9225 H   0  0  0  0  0  0  0  0  0  0  0  0
   36.8955    0.4657    9.8517 H   0  0  0  0  0  0  0  0  0  0  0  0
   33.7208   -5.5986   12.8955 N   0  0  0  0  0  0  0  0  0  0  0  0
   33.7593   -4.6712   11.9261 C   0  0  0  0  0  0  0  0  0  0  0  0
   34.8130   -3.8472   11.7978 N   0  0  0  0  0  0  0  0  0  0  0  0
   35.8684   -3.9387   12.6474 C   0  0  0  0  0  0  0  0  0  0  0  0
   35.8565   -4.8858   13.6577 C   0  0  0  0  0  0  0  0  0  0  0  0
   34.7489   -5.7234   13.7711 C   0  0  0  0  0  0  0  0  0  0  0  0
   34.6925   -6.6646   14.7375 N   0  0  0  0  0  0  0  0  0  0  0  0
   37.0113   -4.7573   14.3440 N   0  0  0  0  0  0  0  0  0  0  0  0
   37.7186   -3.7506   13.7708 C   0  0  0  0  0  0  0  0  0  0  0  0
   37.0133   -3.2569   12.7353 N   0  0  0  0  0  0  0  0  0  0  0  0
   33.9049   -7.2510   14.8082 H   0  0  0  0  0  0  0  0  0  0  0  0
   35.4391   -6.7644   15.3714 H   0  0  0  0  0  0  0  0  0  0  0  0
   42.1022   -0.0496   14.2491 O   0  0  0  0  0  0  0  0  0  0  0  0
   40.9393    1.8106   15.0792 O   0  0  0  0  0  0  0  0  0  0  0  0
   40.9110    0.3816   14.9260 S   0  0  0  0  0  0  0  0  0  0  0  0
   40.7178   -0.3846   16.4117 C   0  0  0  0  0  0  0  0  0  0  0  0
   39.9275    1.2965   19.7412 C   0  0  0  0  0  0  0  0  0  0  0  0
   39.4462    0.8828   18.3592 C   0  0  0  0  0  0  0  0  0  0  0  0
   38.5636   -0.2411   18.4670 O   0  0  0  0  0  0  0  0  0  0  0  0
   40.7213    0.6088   17.5583 C   0  0  0  0  0  0  0  0  0  0  0  0
   41.8947    0.8193   18.5142 C   0  0  0  0  0  0  0  0  0  0  0  0
   41.3504    1.4801   19.6632 O   0  0  0  0  0  0  0  0  0  0  0  0
   39.0214   -0.9699   18.9143 H   0  0  0  0  0  0  0  0  0  0  0  0
   39.0797    2.4943   20.0673 N   0  0  0  0  0  0  0  0  0  0  0  0
   38.0535    2.1006   21.0216 C   0  0  0  0  0  0  0  0  0  0  0  0
   37.8347    0.9506   21.4119 O   0  0  0  0  0  0  0  0  0  0  0  0
   37.2845    3.2006   21.4897 N   0  0  0  0  0  0  0  0  0  0  0  0
   37.4306    4.5931   21.1135 C   0  0  0  0  0  0  0  0  0  0  0  0
   36.6949    5.4108   21.6013 O   0  0  0  0  0  0  0  0  0  0  0  0
   38.4873    4.8934   20.1475 C   0  0  0  0  0  0  0  0  0  0  0  0
   39.2428    3.8645   19.6797 C   0  0  0  0  0  0  0  0  0  0  0  0
   36.5751    2.9943   22.1405 H   0  0  0  0  0  0  0  0  0  0  0  0
   42.9340    1.7599   17.9191 C   0  0  0  0  0  0  0  0  0  0  0  0
   42.2746    2.8868   17.3233 O   0  0  0  0  0  0  0  0  0  0  0  0
   41.6783    2.5792   16.6227 H   0  0  0  0  0  0  0  0  0  0  0  0
 14 15  2  0  0  0
 14 19  1  0  0  0
  5  6  1  0  0  0
  5 11  1  0  0  0
  5 23  1  0  0  0
 30 37  1  0  0  0
 30 31  1  0  0  0
 30 35  1  0  0  0
 37 38  1  0  0  0
 37 44  1  0  0  0
 29 33  1  0  0  0
 29 28  1  0  0  0
 26 28  2  0  0  0
 15 16  1  0  0  0
  6  7  1  0  0  0
  6  8  1  0  0  0
 31 32  1  0  0  0
 31 33  1  0  0  0
 38 39  2  0  0  0
 38 40  1  0  0  0
 27 28  2  0  0  0
 16 17  2  0  0  0
  8  9  1  0  0  0
  8 10  1  0  0  0
 33 34  1  0  0  0
 40 41  1  0  0  0
  1  2  1  0  0  0
  1 28  1  0  0  0
 17 18  1  0  0  0
 17 23  1  0  0  0
 10 11  1  0  0  0
 10  2  1  0  0  0
 34 35  1  0  0  0
 34 46  1  0  0  0
 41 42  2  0  0  0
 41 43  1  0  0  0
 18 19  2  0  0  0
 18 21  1  0  0  0
  2  3  2  0  0  0
 46 47  1  0  0  0
 43 44  2  0  0  0
 19 20  1  0  0  0
 21 22  2  0  0  0
 22 23  1  0  0  0
  7 12  1  0  0  0
 32 36  1  0  0  0
  9 13  1  0  0  0
 40 45  1  0  0  0
  1  4  1  0  0  0
 47 48  1  0  0  0
 20 24  1  0  0  0
 20 25  1  0  0  0
M  END
> <minimizedAffinity>
-8.34744

$$$$
