5G60_NYT_A_544


 59 62  0  0  0  0  0  0  0  0999 V2000
   21.0991   43.5552   50.1527 O   0  0  0  0  0  0  0  0  0  0  0  0
   21.9039   43.7124   51.3151 C   0  0  0  0  0  0  0  0  0  0  0  0
   22.3983   45.0522   51.4956 O   0  0  0  0  0  0  0  0  0  0  0  0
   23.1329   42.8878   51.1145 C   0  0  0  0  0  0  0  0  0  0  0  0
   22.7611   41.7883   50.3021 O   0  0  0  0  0  0  0  0  0  0  0  0
   24.0727   43.8335   50.4042 C   0  0  0  0  0  0  0  0  0  0  0  0
   25.4247   43.5200   50.6273 O   0  0  0  0  0  0  0  0  0  0  0  0
   23.7444   45.1761   51.0370 C   0  0  0  0  0  0  0  0  0  0  0  0
   22.3470   42.1136   49.4875 H   0  0  0  0  0  0  0  0  0  0  0  0
   25.6070   43.5342   51.5799 H   0  0  0  0  0  0  0  0  0  0  0  0
   23.8438   46.2794   49.9862 C   0  0  0  0  0  0  0  0  0  0  0  0
   25.1098   46.1957   49.3347 O   0  0  0  0  0  0  0  0  0  0  0  0
   25.8179   46.3034   49.9889 H   0  0  0  0  0  0  0  0  0  0  0  0
   21.1382   43.3258   52.5839 C   0  0  0  0  0  0  0  0  0  0  0  0
   21.1774   41.9381   52.9090 O   0  0  0  0  0  0  0  0  0  0  0  0
   20.9749   41.6132   54.2883 C   0  0  0  0  0  0  0  0  0  0  0  0
   22.1772   41.6799   54.9938 O   0  0  0  0  0  0  0  0  0  0  0  0
   20.5743   40.1500   54.3550 C   0  0  0  0  0  0  0  0  0  0  0  0
   19.7350   39.7518   53.2857 O   0  0  0  0  0  0  0  0  0  0  0  0
   21.8991   39.4818   54.2488 C   0  0  0  0  0  0  0  0  0  0  0  0
   21.9005   38.1127   54.6879 O   0  0  0  0  0  0  0  0  0  0  0  0
   22.7224   40.3777   55.1452 C   0  0  0  0  0  0  0  0  0  0  0  0
   20.1784   39.9326   52.4421 H   0  0  0  0  0  0  0  0  0  0  0  0
   21.5890   38.0670   55.6053 H   0  0  0  0  0  0  0  0  0  0  0  0
   20.0179   42.5693   54.9713 C   0  0  0  0  0  0  0  0  0  0  0  0
   18.6774   42.1680   54.7388 O   0  0  0  0  0  0  0  0  0  0  0  0
   18.5399   41.2771   55.0969 H   0  0  0  0  0  0  0  0  0  0  0  0
   24.2157   40.3911   54.8279 C   0  0  0  0  0  0  0  0  0  0  0  0
   24.6270   39.0789   54.4684 O   0  0  0  0  0  0  0  0  0  0  0  0
   24.4534   38.4724   55.2053 H   0  0  0  0  0  0  0  0  0  0  0  0
   20.2418   44.6565   49.8199 C   0  0  0  0  0  0  0  0  0  0  0  0
   20.0649   44.6778   48.2941 C   0  0  0  0  0  0  0  0  0  0  0  0
   20.4981   45.9476   47.8213 O   0  0  0  0  0  0  0  0  0  0  0  0
   20.8877   43.5846   47.5427 C   0  0  0  0  0  0  0  0  0  0  0  0
   20.1837   42.3489   47.2539 O   0  0  0  0  0  0  0  0  0  0  0  0
   21.3453   44.2983   46.2597 C   0  0  0  0  0  0  0  0  0  0  0  0
   22.5405   43.7298   45.6521 O   0  0  0  0  0  0  0  0  0  0  0  0
   21.5163   45.7311   46.8161 C   0  0  0  0  0  0  0  0  0  0  0  0
   19.4190   42.5372   46.6876 H   0  0  0  0  0  0  0  0  0  0  0  0
   23.2635   43.7305   46.2988 H   0  0  0  0  0  0  0  0  0  0  0  0
   21.4990   46.8311   45.7617 C   0  0  0  0  0  0  0  0  0  0  0  0
   21.5553   46.1691   44.5202 O   0  0  0  0  0  0  0  0  0  0  0  0
   22.3572   45.6249   44.4800 H   0  0  0  0  0  0  0  0  0  0  0  0
   18.7378   44.5726   47.8775 O   0  0  0  0  0  0  0  0  0  0  0  0
   17.7215   44.4664   48.8688 C   0  0  0  0  0  0  0  0  0  0  0  0
   16.9352   43.1969   48.6313 C   0  0  0  0  0  0  0  0  0  0  0  0
   17.8553   42.0934   48.6738 O   0  0  0  0  0  0  0  0  0  0  0  0
   16.2749   43.2613   47.2739 C   0  0  0  0  0  0  0  0  0  0  0  0
   15.4483   42.1437   46.9806 O   0  0  0  0  0  0  0  0  0  0  0  0
   15.3636   44.4772   47.2153 C   0  0  0  0  0  0  0  0  0  0  0  0
   14.7764   44.5019   45.8908 O   0  0  0  0  0  0  0  0  0  0  0  0
   16.1747   45.7400   47.4984 C   0  0  0  0  0  0  0  0  0  0  0  0
   16.9420   45.6207   48.7166 O   0  0  0  0  0  0  0  0  0  0  0  0
   18.5364   42.2140   47.9937 H   0  0  0  0  0  0  0  0  0  0  0  0
   14.7165   42.1071   47.6162 H   0  0  0  0  0  0  0  0  0  0  0  0
   15.4809   44.5446   45.2255 H   0  0  0  0  0  0  0  0  0  0  0  0
   15.3110   46.9960   47.5923 C   0  0  0  0  0  0  0  0  0  0  0  0
   13.9260   46.6966   47.6246 O   0  0  0  0  0  0  0  0  0  0  0  0
   13.6743   46.2420   46.8055 H   0  0  0  0  0  0  0  0  0  0  0  0
 45 44  1  0  0  0
 45 46  1  0  0  0
 45 53  1  0  0  0
 44 32  1  0  0  0
 46 47  1  0  0  0
 46 48  1  0  0  0
 48 49  1  0  0  0
 48 50  1  0  0  0
 50 51  1  0  0  0
 50 52  1  0  0  0
 52 53  1  0  0  0
 52 57  1  0  0  0
 57 58  1  0  0  0
 31  1  1  0  0  0
 31 32  1  0  0  0
  1  2  1  0  0  0
 14 15  1  0  0  0
 14  2  1  0  0  0
 15 16  1  0  0  0
 25 26  1  0  0  0
 25 16  1  0  0  0
 32 33  1  0  0  0
 32 34  1  0  0  0
 33 38  1  0  0  0
  2  3  1  0  0  0
  2  4  1  0  0  0
  3  8  1  0  0  0
 16 17  1  0  0  0
 16 18  1  0  0  0
 17 22  1  0  0  0
 34 35  1  0  0  0
 34 36  1  0  0  0
  4  5  1  0  0  0
  4  6  1  0  0  0
 18 19  1  0  0  0
 18 20  1  0  0  0
 36 37  1  0  0  0
 36 38  1  0  0  0
  6  7  1  0  0  0
  6  8  1  0  0  0
 20 21  1  0  0  0
 20 22  1  0  0  0
 38 41  1  0  0  0
  8 11  1  0  0  0
 22 28  1  0  0  0
 41 42  1  0  0  0
 11 12  1  0  0  0
 28 29  1  0  0  0
 47 54  1  0  0  0
 49 55  1  0  0  0
 51 56  1  0  0  0
 58 59  1  0  0  0
 26 27  1  0  0  0
 35 39  1  0  0  0
  5  9  1  0  0  0
 19 23  1  0  0  0
 37 40  1  0  0  0
  7 10  1  0  0  0
 21 24  1  0  0  0
 42 43  1  0  0  0
 12 13  1  0  0  0
 29 30  1  0  0  0
M  END
> <minimizedAffinity>
-9.50617

$$$$
5G60_NYT_A_544


 59 62  0  0  0  0  0  0  0  0999 V2000
   19.8456   43.6838   51.7017 O   0  0  0  0  0  0  0  0  0  0  0  0
   20.6445   44.0653   52.8152 C   0  0  0  0  0  0  0  0  0  0  0  0
   19.8793   44.3565   53.9992 O   0  0  0  0  0  0  0  0  0  0  0  0
   21.2953   45.3634   52.4660 C   0  0  0  0  0  0  0  0  0  0  0  0
   21.4794   45.3652   51.0613 O   0  0  0  0  0  0  0  0  0  0  0  0
   20.2815   46.3906   52.9127 C   0  0  0  0  0  0  0  0  0  0  0  0
   20.8701   47.6263   53.2329 O   0  0  0  0  0  0  0  0  0  0  0  0
   19.6913   45.7618   54.1645 C   0  0  0  0  0  0  0  0  0  0  0  0
   20.6295   45.2008   50.6236 H   0  0  0  0  0  0  0  0  0  0  0  0
   21.5325   47.4980   53.9298 H   0  0  0  0  0  0  0  0  0  0  0  0
   18.2020   46.0875   54.2519 C   0  0  0  0  0  0  0  0  0  0  0  0
   17.8598   47.0053   53.2152 O   0  0  0  0  0  0  0  0  0  0  0  0
   18.3784   47.8185   53.3190 H   0  0  0  0  0  0  0  0  0  0  0  0
   21.6605   42.9775   53.1755 C   0  0  0  0  0  0  0  0  0  0  0  0
   21.0912   41.7255   53.5514 O   0  0  0  0  0  0  0  0  0  0  0  0
   21.5770   41.1594   54.7732 C   0  0  0  0  0  0  0  0  0  0  0  0
   22.9095   41.5149   54.9875 O   0  0  0  0  0  0  0  0  0  0  0  0
   21.6087   39.6519   54.5929 C   0  0  0  0  0  0  0  0  0  0  0  0
   20.5192   39.1575   53.8348 O   0  0  0  0  0  0  0  0  0  0  0  0
   22.8818   39.4766   53.8436 C   0  0  0  0  0  0  0  0  0  0  0  0
   23.3996   38.1356   53.8760 O   0  0  0  0  0  0  0  0  0  0  0  0
   23.7640   40.4554   54.5837 C   0  0  0  0  0  0  0  0  0  0  0  0
   20.5054   39.5915   52.9674 H   0  0  0  0  0  0  0  0  0  0  0  0
   23.5272   37.8605   54.7974 H   0  0  0  0  0  0  0  0  0  0  0  0
   20.7998   41.6422   55.9812 C   0  0  0  0  0  0  0  0  0  0  0  0
   19.5027   42.0634   55.5912 O   0  0  0  0  0  0  0  0  0  0  0  0
   19.0281   41.3188   55.1896 H   0  0  0  0  0  0  0  0  0  0  0  0
   24.9302   41.0019   53.7639 C   0  0  0  0  0  0  0  0  0  0  0  0
   25.9843   41.3713   54.6430 O   0  0  0  0  0  0  0  0  0  0  0  0
   25.6686   42.0513   55.2586 H   0  0  0  0  0  0  0  0  0  0  0  0
   18.5685   43.1045   52.0049 C   0  0  0  0  0  0  0  0  0  0  0  0
   17.6244   43.3908   50.8273 C   0  0  0  0  0  0  0  0  0  0  0  0
   17.0263   42.1605   50.4371 O   0  0  0  0  0  0  0  0  0  0  0  0
   16.4755   44.3932   51.1618 C   0  0  0  0  0  0  0  0  0  0  0  0
   16.7331   45.7836   50.8357 O   0  0  0  0  0  0  0  0  0  0  0  0
   15.2731   43.8338   50.3832 C   0  0  0  0  0  0  0  0  0  0  0  0
   13.9774   44.2260   50.9198 O   0  0  0  0  0  0  0  0  0  0  0  0
   15.5891   42.3233   50.4833 C   0  0  0  0  0  0  0  0  0  0  0  0
   16.8861   45.8689   49.8817 H   0  0  0  0  0  0  0  0  0  0  0  0
   13.9166   43.9542   51.8490 H   0  0  0  0  0  0  0  0  0  0  0  0
   14.8979   41.4563   49.4379 C   0  0  0  0  0  0  0  0  0  0  0  0
   15.9191   40.6920   48.8417 O   0  0  0  0  0  0  0  0  0  0  0  0
   16.5835   41.2845   48.4565 H   0  0  0  0  0  0  0  0  0  0  0  0
   18.2732   43.8541   49.6826 O   0  0  0  0  0  0  0  0  0  0  0  0
   18.5628   42.9251   48.6434 C   0  0  0  0  0  0  0  0  0  0  0  0
   19.9733   43.1619   48.1527 C   0  0  0  0  0  0  0  0  0  0  0  0
   20.8607   43.0190   49.2744 O   0  0  0  0  0  0  0  0  0  0  0  0
   20.0812   44.5594   47.5890 C   0  0  0  0  0  0  0  0  0  0  0  0
   21.3529   44.8604   47.0316 O   0  0  0  0  0  0  0  0  0  0  0  0
   19.0824   44.7223   46.4540 C   0  0  0  0  0  0  0  0  0  0  0  0
   19.2133   46.0809   45.9674 O   0  0  0  0  0  0  0  0  0  0  0  0
   17.6723   44.4382   46.9671 C   0  0  0  0  0  0  0  0  0  0  0  0
   17.5993   43.1706   47.6562 O   0  0  0  0  0  0  0  0  0  0  0  0
   20.6186   43.6592   49.9618 H   0  0  0  0  0  0  0  0  0  0  0  0
   21.5245   44.2709   46.2805 H   0  0  0  0  0  0  0  0  0  0  0  0
   19.0421   46.7020   46.6926 H   0  0  0  0  0  0  0  0  0  0  0  0
   16.6207   44.4475   45.8597 C   0  0  0  0  0  0  0  0  0  0  0  0
   16.1361   43.1485   45.5656 O   0  0  0  0  0  0  0  0  0  0  0  0
   16.8680   42.5931   45.2547 H   0  0  0  0  0  0  0  0  0  0  0  0
 45 44  1  0  0  0
 45 46  1  0  0  0
 45 53  1  0  0  0
 44 32  1  0  0  0
 46 47  1  0  0  0
 46 48  1  0  0  0
 48 49  1  0  0  0
 48 50  1  0  0  0
 50 51  1  0  0  0
 50 52  1  0  0  0
 52 53  1  0  0  0
 52 57  1  0  0  0
 57 58  1  0  0  0
 31  1  1  0  0  0
 31 32  1  0  0  0
  1  2  1  0  0  0
 14 15  1  0  0  0
 14  2  1  0  0  0
 15 16  1  0  0  0
 25 26  1  0  0  0
 25 16  1  0  0  0
 32 33  1  0  0  0
 32 34  1  0  0  0
 33 38  1  0  0  0
  2  3  1  0  0  0
  2  4  1  0  0  0
  3  8  1  0  0  0
 16 17  1  0  0  0
 16 18  1  0  0  0
 17 22  1  0  0  0
 34 35  1  0  0  0
 34 36  1  0  0  0
  4  5  1  0  0  0
  4  6  1  0  0  0
 18 19  1  0  0  0
 18 20  1  0  0  0
 36 37  1  0  0  0
 36 38  1  0  0  0
  6  7  1  0  0  0
  6  8  1  0  0  0
 20 21  1  0  0  0
 20 22  1  0  0  0
 38 41  1  0  0  0
  8 11  1  0  0  0
 22 28  1  0  0  0
 41 42  1  0  0  0
 11 12  1  0  0  0
 28 29  1  0  0  0
 47 54  1  0  0  0
 49 55  1  0  0  0
 51 56  1  0  0  0
 58 59  1  0  0  0
 26 27  1  0  0  0
 35 39  1  0  0  0
  5  9  1  0  0  0
 19 23  1  0  0  0
 37 40  1  0  0  0
  7 10  1  0  0  0
 21 24  1  0  0  0
 42 43  1  0  0  0
 12 13  1  0  0  0
 29 30  1  0  0  0
M  END
> <minimizedAffinity>
-9.41359

$$$$
5G60_NYT_A_544


 59 62  0  0  0  0  0  0  0  0999 V2000
   21.4756   43.2848   50.6367 O   0  0  0  0  0  0  0  0  0  0  0  0
   22.4079   43.4561   51.6974 C   0  0  0  0  0  0  0  0  0  0  0  0
   23.0014   44.7670   51.7355 O   0  0  0  0  0  0  0  0  0  0  0  0
   23.5547   42.5379   51.4282 C   0  0  0  0  0  0  0  0  0  0  0  0
   23.0305   41.4195   50.7342 O   0  0  0  0  0  0  0  0  0  0  0  0
   24.4706   43.3717   50.5633 C   0  0  0  0  0  0  0  0  0  0  0  0
   25.8165   42.9795   50.6675 O   0  0  0  0  0  0  0  0  0  0  0  0
   24.2961   44.7695   51.1344 C   0  0  0  0  0  0  0  0  0  0  0  0
   22.5532   41.7228   49.9461 H   0  0  0  0  0  0  0  0  0  0  0  0
   26.0998   43.0388   51.5933 H   0  0  0  0  0  0  0  0  0  0  0  0
   24.3515   45.7977   50.0068 C   0  0  0  0  0  0  0  0  0  0  0  0
   23.5730   46.9363   50.3699 O   0  0  0  0  0  0  0  0  0  0  0  0
   22.6538   46.6651   50.5195 H   0  0  0  0  0  0  0  0  0  0  0  0
   21.7592   43.2009   53.0610 C   0  0  0  0  0  0  0  0  0  0  0  0
   21.1527   41.9187   53.2065 O   0  0  0  0  0  0  0  0  0  0  0  0
   21.1374   41.3812   54.5332 C   0  0  0  0  0  0  0  0  0  0  0  0
   22.4111   41.4301   55.1014 O   0  0  0  0  0  0  0  0  0  0  0  0
   20.8277   39.8991   54.4179 C   0  0  0  0  0  0  0  0  0  0  0  0
   19.8875   39.6027   53.4008 O   0  0  0  0  0  0  0  0  0  0  0  0
   22.1641   39.3508   54.0623 C   0  0  0  0  0  0  0  0  0  0  0  0
   22.2932   37.9358   54.2822 O   0  0  0  0  0  0  0  0  0  0  0  0
   23.0405   40.1624   54.9882 C   0  0  0  0  0  0  0  0  0  0  0  0
   20.2146   39.9367   52.5509 H   0  0  0  0  0  0  0  0  0  0  0  0
   22.0984   37.7338   55.2107 H   0  0  0  0  0  0  0  0  0  0  0  0
   20.2200   42.1555   55.4582 C   0  0  0  0  0  0  0  0  0  0  0  0
   18.8976   42.1579   54.9450 O   0  0  0  0  0  0  0  0  0  0  0  0
   18.5760   41.2454   54.8757 H   0  0  0  0  0  0  0  0  0  0  0  0
   24.4812   40.3297   54.5116 C   0  0  0  0  0  0  0  0  0  0  0  0
   24.5504   40.0283   53.1243 O   0  0  0  0  0  0  0  0  0  0  0  0
   24.2599   39.1146   52.9770 H   0  0  0  0  0  0  0  0  0  0  0  0
   20.9491   44.4853   50.0536 C   0  0  0  0  0  0  0  0  0  0  0  0
   19.4788   44.6160   50.4792 C   0  0  0  0  0  0  0  0  0  0  0  0
   18.7895   45.3270   49.4580 O   0  0  0  0  0  0  0  0  0  0  0  0
   18.7512   43.2500   50.6820 C   0  0  0  0  0  0  0  0  0  0  0  0
   18.7322   42.7380   52.0397 O   0  0  0  0  0  0  0  0  0  0  0  0
   17.3336   43.5159   50.1484 C   0  0  0  0  0  0  0  0  0  0  0  0
   16.6233   42.3208   49.7147 O   0  0  0  0  0  0  0  0  0  0  0  0
   17.6732   44.5171   49.0198 C   0  0  0  0  0  0  0  0  0  0  0  0
   18.2727   43.3681   52.6165 H   0  0  0  0  0  0  0  0  0  0  0  0
   17.1443   41.8634   49.0363 H   0  0  0  0  0  0  0  0  0  0  0  0
   16.5051   45.3821   48.5618 C   0  0  0  0  0  0  0  0  0  0  0  0
   15.7715   45.6787   49.7265 O   0  0  0  0  0  0  0  0  0  0  0  0
   15.4837   44.8530   50.1463 H   0  0  0  0  0  0  0  0  0  0  0  0
   19.2903   45.3740   51.6350 O   0  0  0  0  0  0  0  0  0  0  0  0
   18.5952   46.6120   51.5291 C   0  0  0  0  0  0  0  0  0  0  0  0
   19.4718   47.7153   52.0774 C   0  0  0  0  0  0  0  0  0  0  0  0
   20.7005   47.7147   51.3314 O   0  0  0  0  0  0  0  0  0  0  0  0
   19.7586   47.4508   53.5370 C   0  0  0  0  0  0  0  0  0  0  0  0
   20.5180   48.4710   54.1701 O   0  0  0  0  0  0  0  0  0  0  0  0
   18.4463   47.3762   54.3017 C   0  0  0  0  0  0  0  0  0  0  0  0
   18.7783   47.1004   55.6850 O   0  0  0  0  0  0  0  0  0  0  0  0
   17.5648   46.2825   53.7023 C   0  0  0  0  0  0  0  0  0  0  0  0
   17.4210   46.4353   52.2729 O   0  0  0  0  0  0  0  0  0  0  0  0
   21.1319   46.8504   51.4197 H   0  0  0  0  0  0  0  0  0  0  0  0
   20.0175   49.3018   54.1574 H   0  0  0  0  0  0  0  0  0  0  0  0
   19.2766   46.2698   55.7385 H   0  0  0  0  0  0  0  0  0  0  0  0
   16.1716   46.2300   54.3253 C   0  0  0  0  0  0  0  0  0  0  0  0
   15.8872   47.3773   55.1074 O   0  0  0  0  0  0  0  0  0  0  0  0
   16.5212   47.4350   55.8392 H   0  0  0  0  0  0  0  0  0  0  0  0
 45 44  1  0  0  0
 45 46  1  0  0  0
 45 53  1  0  0  0
 44 32  1  0  0  0
 46 47  1  0  0  0
 46 48  1  0  0  0
 48 49  1  0  0  0
 48 50  1  0  0  0
 50 51  1  0  0  0
 50 52  1  0  0  0
 52 53  1  0  0  0
 52 57  1  0  0  0
 57 58  1  0  0  0
 31  1  1  0  0  0
 31 32  1  0  0  0
  1  2  1  0  0  0
 14 15  1  0  0  0
 14  2  1  0  0  0
 15 16  1  0  0  0
 25 26  1  0  0  0
 25 16  1  0  0  0
 32 33  1  0  0  0
 32 34  1  0  0  0
 33 38  1  0  0  0
  2  3  1  0  0  0
  2  4  1  0  0  0
  3  8  1  0  0  0
 16 17  1  0  0  0
 16 18  1  0  0  0
 17 22  1  0  0  0
 34 35  1  0  0  0
 34 36  1  0  0  0
  4  5  1  0  0  0
  4  6  1  0  0  0
 18 19  1  0  0  0
 18 20  1  0  0  0
 36 37  1  0  0  0
 36 38  1  0  0  0
  6  7  1  0  0  0
  6  8  1  0  0  0
 20 21  1  0  0  0
 20 22  1  0  0  0
 38 41  1  0  0  0
  8 11  1  0  0  0
 22 28  1  0  0  0
 41 42  1  0  0  0
 11 12  1  0  0  0
 28 29  1  0  0  0
 47 54  1  0  0  0
 49 55  1  0  0  0
 51 56  1  0  0  0
 58 59  1  0  0  0
 26 27  1  0  0  0
 35 39  1  0  0  0
  5  9  1  0  0  0
 19 23  1  0  0  0
 37 40  1  0  0  0
  7 10  1  0  0  0
 21 24  1  0  0  0
 42 43  1  0  0  0
 12 13  1  0  0  0
 29 30  1  0  0  0
M  END
> <minimizedAffinity>
-9.40314

$$$$
5G60_NYT_A_544


 59 62  0  0  0  0  0  0  0  0999 V2000
   21.1200   43.9102   50.6813 O   0  0  0  0  0  0  0  0  0  0  0  0
   22.0709   43.9419   51.7390 C   0  0  0  0  0  0  0  0  0  0  0  0
   22.7122   45.2209   51.8977 O   0  0  0  0  0  0  0  0  0  0  0  0
   23.1800   43.0155   51.3619 C   0  0  0  0  0  0  0  0  0  0  0  0
   22.6069   41.9911   50.5686 O   0  0  0  0  0  0  0  0  0  0  0  0
   24.1151   43.8987   50.5697 C   0  0  0  0  0  0  0  0  0  0  0  0
   25.4469   43.4511   50.6132 O   0  0  0  0  0  0  0  0  0  0  0  0
   23.9987   45.2379   51.2794 C   0  0  0  0  0  0  0  0  0  0  0  0
   22.1314   42.3881   49.8221 H   0  0  0  0  0  0  0  0  0  0  0  0
   25.7434   43.4077   51.5358 H   0  0  0  0  0  0  0  0  0  0  0  0
   24.0780   46.3709   50.2588 C   0  0  0  0  0  0  0  0  0  0  0  0
   25.2004   46.1572   49.4052 O   0  0  0  0  0  0  0  0  0  0  0  0
   26.0118   46.1391   49.9364 H   0  0  0  0  0  0  0  0  0  0  0  0
   21.4299   43.5749   53.0806 C   0  0  0  0  0  0  0  0  0  0  0  0
   20.9531   42.2343   53.1710 O   0  0  0  0  0  0  0  0  0  0  0  0
   21.0875   41.6079   54.4512 C   0  0  0  0  0  0  0  0  0  0  0  0
   22.4125   41.6523   54.8870 O   0  0  0  0  0  0  0  0  0  0  0  0
   20.7966   40.1292   54.2648 C   0  0  0  0  0  0  0  0  0  0  0  0
   19.7610   39.8773   53.3318 O   0  0  0  0  0  0  0  0  0  0  0  0
   22.0988   39.6424   53.7356 C   0  0  0  0  0  0  0  0  0  0  0  0
   22.2780   38.2197   53.8411 O   0  0  0  0  0  0  0  0  0  0  0  0
   23.0514   40.4126   54.6208 C   0  0  0  0  0  0  0  0  0  0  0  0
   19.9906   40.2767   52.4782 H   0  0  0  0  0  0  0  0  0  0  0  0
   22.1857   37.9500   54.7683 H   0  0  0  0  0  0  0  0  0  0  0  0
   20.2571   42.2928   55.5179 C   0  0  0  0  0  0  0  0  0  0  0  0
   18.8810   42.2335   55.1788 O   0  0  0  0  0  0  0  0  0  0  0  0
   18.6040   41.3062   55.1126 H   0  0  0  0  0  0  0  0  0  0  0  0
   24.4306   40.6504   54.0110 C   0  0  0  0  0  0  0  0  0  0  0  0
   24.4228   40.2146   52.6581 O   0  0  0  0  0  0  0  0  0  0  0  0
   24.2073   39.2694   52.6241 H   0  0  0  0  0  0  0  0  0  0  0  0
   20.4287   45.1382   50.4116 C   0  0  0  0  0  0  0  0  0  0  0  0
   19.4581   44.8919   49.2466 C   0  0  0  0  0  0  0  0  0  0  0  0
   19.3490   46.1010   48.5052 O   0  0  0  0  0  0  0  0  0  0  0  0
   19.9166   43.7703   48.2625 C   0  0  0  0  0  0  0  0  0  0  0  0
   19.3865   42.4445   48.5219 O   0  0  0  0  0  0  0  0  0  0  0  0
   19.4849   44.3023   46.8857 C   0  0  0  0  0  0  0  0  0  0  0  0
   20.2406   43.7539   45.7682 O   0  0  0  0  0  0  0  0  0  0  0  0
   19.6857   45.8166   47.1269 C   0  0  0  0  0  0  0  0  0  0  0  0
   18.4185   42.4660   48.4625 H   0  0  0  0  0  0  0  0  0  0  0  0
   21.1857   43.9273   45.9008 H   0  0  0  0  0  0  0  0  0  0  0  0
   18.9199   46.7219   46.1696 C   0  0  0  0  0  0  0  0  0  0  0  0
   18.2327   45.8575   45.2960 O   0  0  0  0  0  0  0  0  0  0  0  0
   18.8695   45.2848   44.8406 H   0  0  0  0  0  0  0  0  0  0  0  0
   18.1552   44.5981   49.6490 O   0  0  0  0  0  0  0  0  0  0  0  0
   17.8591   44.5956   51.0416 C   0  0  0  0  0  0  0  0  0  0  0  0
   17.5047   43.1881   51.4653 C   0  0  0  0  0  0  0  0  0  0  0  0
   18.6173   42.3369   51.1433 O   0  0  0  0  0  0  0  0  0  0  0  0
   16.2761   42.7313   50.7140 C   0  0  0  0  0  0  0  0  0  0  0  0
   15.8136   41.4426   51.0931 O   0  0  0  0  0  0  0  0  0  0  0  0
   15.1272   43.6850   51.0019 C   0  0  0  0  0  0  0  0  0  0  0  0
   13.9866   43.2141   50.2424 O   0  0  0  0  0  0  0  0  0  0  0  0
   15.5263   45.1041   50.6026 C   0  0  0  0  0  0  0  0  0  0  0  0
   16.7896   45.4890   51.1882 O   0  0  0  0  0  0  0  0  0  0  0  0
   18.7924   42.3804   50.1903 H   0  0  0  0  0  0  0  0  0  0  0  0
   15.5489   41.4556   52.0262 H   0  0  0  0  0  0  0  0  0  0  0  0
   14.2124   43.1932   49.2993 H   0  0  0  0  0  0  0  0  0  0  0  0
   14.4791   46.1484   50.9831 C   0  0  0  0  0  0  0  0  0  0  0  0
   13.5079   45.6363   51.8793 O   0  0  0  0  0  0  0  0  0  0  0  0
   13.0340   44.9025   51.4577 H   0  0  0  0  0  0  0  0  0  0  0  0
 45 44  1  0  0  0
 45 46  1  0  0  0
 45 53  1  0  0  0
 44 32  1  0  0  0
 46 47  1  0  0  0
 46 48  1  0  0  0
 48 49  1  0  0  0
 48 50  1  0  0  0
 50 51  1  0  0  0
 50 52  1  0  0  0
 52 53  1  0  0  0
 52 57  1  0  0  0
 57 58  1  0  0  0
 31  1  1  0  0  0
 31 32  1  0  0  0
  1  2  1  0  0  0
 14 15  1  0  0  0
 14  2  1  0  0  0
 15 16  1  0  0  0
 25 26  1  0  0  0
 25 16  1  0  0  0
 32 33  1  0  0  0
 32 34  1  0  0  0
 33 38  1  0  0  0
  2  3  1  0  0  0
  2  4  1  0  0  0
  3  8  1  0  0  0
 16 17  1  0  0  0
 16 18  1  0  0  0
 17 22  1  0  0  0
 34 35  1  0  0  0
 34 36  1  0  0  0
  4  5  1  0  0  0
  4  6  1  0  0  0
 18 19  1  0  0  0
 18 20  1  0  0  0
 36 37  1  0  0  0
 36 38  1  0  0  0
  6  7  1  0  0  0
  6  8  1  0  0  0
 20 21  1  0  0  0
 20 22  1  0  0  0
 38 41  1  0  0  0
  8 11  1  0  0  0
 22 28  1  0  0  0
 41 42  1  0  0  0
 11 12  1  0  0  0
 28 29  1  0  0  0
 47 54  1  0  0  0
 49 55  1  0  0  0
 51 56  1  0  0  0
 58 59  1  0  0  0
 26 27  1  0  0  0
 35 39  1  0  0  0
  5  9  1  0  0  0
 19 23  1  0  0  0
 37 40  1  0  0  0
  7 10  1  0  0  0
 21 24  1  0  0  0
 42 43  1  0  0  0
 12 13  1  0  0  0
 29 30  1  0  0  0
M  END
> <minimizedAffinity>
-9.34618

$$$$
5G60_NYT_A_544


 59 62  0  0  0  0  0  0  0  0999 V2000
   21.1495   43.4421   50.4758 O   0  0  0  0  0  0  0  0  0  0  0  0
   21.9648   43.7221   51.6074 C   0  0  0  0  0  0  0  0  0  0  0  0
   22.2930   45.1165   51.7490 O   0  0  0  0  0  0  0  0  0  0  0  0
   23.2804   43.0532   51.3785 C   0  0  0  0  0  0  0  0  0  0  0  0
   23.0236   41.8996   50.5973 O   0  0  0  0  0  0  0  0  0  0  0  0
   24.0713   44.0940   50.6212 C   0  0  0  0  0  0  0  0  0  0  0  0
   25.4583   43.9560   50.8032 O   0  0  0  0  0  0  0  0  0  0  0  0
   23.5977   45.3978   51.2430 C   0  0  0  0  0  0  0  0  0  0  0  0
   22.5464   42.1541   49.7920 H   0  0  0  0  0  0  0  0  0  0  0  0
   25.6676   44.0123   51.7487 H   0  0  0  0  0  0  0  0  0  0  0  0
   23.5247   46.4832   50.1715 C   0  0  0  0  0  0  0  0  0  0  0  0
   24.1809   46.0240   48.9913 O   0  0  0  0  0  0  0  0  0  0  0  0
   25.1089   45.8267   49.1933 H   0  0  0  0  0  0  0  0  0  0  0  0
   21.2943   43.2691   52.9077 C   0  0  0  0  0  0  0  0  0  0  0  0
   21.2420   41.8567   53.0953 O   0  0  0  0  0  0  0  0  0  0  0  0
   21.5629   41.3882   54.4094 C   0  0  0  0  0  0  0  0  0  0  0  0
   22.8825   41.7021   54.7378 O   0  0  0  0  0  0  0  0  0  0  0  0
   21.5304   39.8706   54.3699 C   0  0  0  0  0  0  0  0  0  0  0  0
   20.5022   39.3557   53.5428 O   0  0  0  0  0  0  0  0  0  0  0  0
   22.8644   39.5674   53.7856 C   0  0  0  0  0  0  0  0  0  0  0  0
   23.3010   38.2137   53.9956 O   0  0  0  0  0  0  0  0  0  0  0  0
   23.7155   40.5715   54.5282 C   0  0  0  0  0  0  0  0  0  0  0  0
   20.6049   39.7053   52.6438 H   0  0  0  0  0  0  0  0  0  0  0  0
   23.3144   38.0221   54.9464 H   0  0  0  0  0  0  0  0  0  0  0  0
   20.6893   42.0184   55.4753 C   0  0  0  0  0  0  0  0  0  0  0  0
   20.1774   41.0185   56.3415 O   0  0  0  0  0  0  0  0  0  0  0  0
   20.9134   40.5559   56.7719 H   0  0  0  0  0  0  0  0  0  0  0  0
   24.9907   40.9844   53.7974 C   0  0  0  0  0  0  0  0  0  0  0  0
   24.9165   40.5454   52.4476 O   0  0  0  0  0  0  0  0  0  0  0  0
   24.8237   39.5801   52.4261 H   0  0  0  0  0  0  0  0  0  0  0  0
   20.3820   44.5386   49.9589 C   0  0  0  0  0  0  0  0  0  0  0  0
   18.9097   44.3059   50.3304 C   0  0  0  0  0  0  0  0  0  0  0  0
   18.8046   43.0120   50.9119 O   0  0  0  0  0  0  0  0  0  0  0  0
   18.3417   45.3360   51.3565 C   0  0  0  0  0  0  0  0  0  0  0  0
   17.6519   46.4800   50.7896 O   0  0  0  0  0  0  0  0  0  0  0  0
   17.4143   44.4868   52.2418 C   0  0  0  0  0  0  0  0  0  0  0  0
   17.1845   45.0382   53.5699 O   0  0  0  0  0  0  0  0  0  0  0  0
   18.1955   43.1523   52.2170 C   0  0  0  0  0  0  0  0  0  0  0  0
   16.8887   46.1748   50.2746 H   0  0  0  0  0  0  0  0  0  0  0  0
   18.0348   45.1646   54.0191 H   0  0  0  0  0  0  0  0  0  0  0  0
   17.3706   41.9236   52.5803 C   0  0  0  0  0  0  0  0  0  0  0  0
   18.3040   40.9024   52.8423 O   0  0  0  0  0  0  0  0  0  0  0  0
   18.8586   40.7625   52.0589 H   0  0  0  0  0  0  0  0  0  0  0  0
   18.0477   44.2784   49.2339 O   0  0  0  0  0  0  0  0  0  0  0  0
   18.2582   43.2915   48.2296 C   0  0  0  0  0  0  0  0  0  0  0  0
   17.9995   43.9085   46.8736 C   0  0  0  0  0  0  0  0  0  0  0  0
   18.8815   45.0337   46.7253 O   0  0  0  0  0  0  0  0  0  0  0  0
   16.5630   44.3702   46.7974 C   0  0  0  0  0  0  0  0  0  0  0  0
   16.1939   44.9018   45.5326 O   0  0  0  0  0  0  0  0  0  0  0  0
   15.6406   43.1846   47.0335 C   0  0  0  0  0  0  0  0  0  0  0  0
   14.2827   43.6864   46.9715 O   0  0  0  0  0  0  0  0  0  0  0  0
   15.9503   42.5562   48.3907 C   0  0  0  0  0  0  0  0  0  0  0  0
   17.3574   42.2627   48.5353 O   0  0  0  0  0  0  0  0  0  0  0  0
   18.7140   45.6719   47.4363 H   0  0  0  0  0  0  0  0  0  0  0  0
   16.2738   44.2114   44.8559 H   0  0  0  0  0  0  0  0  0  0  0  0
   14.1626   44.3779   47.6411 H   0  0  0  0  0  0  0  0  0  0  0  0
   15.1603   41.2752   48.6499 C   0  0  0  0  0  0  0  0  0  0  0  0
   15.3298   40.7958   49.9729 O   0  0  0  0  0  0  0  0  0  0  0  0
   16.2647   40.5858   50.1234 H   0  0  0  0  0  0  0  0  0  0  0  0
 45 44  1  0  0  0
 45 46  1  0  0  0
 45 53  1  0  0  0
 44 32  1  0  0  0
 46 47  1  0  0  0
 46 48  1  0  0  0
 48 49  1  0  0  0
 48 50  1  0  0  0
 50 51  1  0  0  0
 50 52  1  0  0  0
 52 53  1  0  0  0
 52 57  1  0  0  0
 57 58  1  0  0  0
 31  1  1  0  0  0
 31 32  1  0  0  0
  1  2  1  0  0  0
 14 15  1  0  0  0
 14  2  1  0  0  0
 15 16  1  0  0  0
 25 26  1  0  0  0
 25 16  1  0  0  0
 32 33  1  0  0  0
 32 34  1  0  0  0
 33 38  1  0  0  0
  2  3  1  0  0  0
  2  4  1  0  0  0
  3  8  1  0  0  0
 16 17  1  0  0  0
 16 18  1  0  0  0
 17 22  1  0  0  0
 34 35  1  0  0  0
 34 36  1  0  0  0
  4  5  1  0  0  0
  4  6  1  0  0  0
 18 19  1  0  0  0
 18 20  1  0  0  0
 36 37  1  0  0  0
 36 38  1  0  0  0
  6  7  1  0  0  0
  6  8  1  0  0  0
 20 21  1  0  0  0
 20 22  1  0  0  0
 38 41  1  0  0  0
  8 11  1  0  0  0
 22 28  1  0  0  0
 41 42  1  0  0  0
 11 12  1  0  0  0
 28 29  1  0  0  0
 47 54  1  0  0  0
 49 55  1  0  0  0
 51 56  1  0  0  0
 58 59  1  0  0  0
 26 27  1  0  0  0
 35 39  1  0  0  0
  5  9  1  0  0  0
 19 23  1  0  0  0
 37 40  1  0  0  0
  7 10  1  0  0  0
 21 24  1  0  0  0
 42 43  1  0  0  0
 12 13  1  0  0  0
 29 30  1  0  0  0
M  END
> <minimizedAffinity>
-9.29721

$$$$
5G60_NYT_A_544


 59 62  0  0  0  0  0  0  0  0999 V2000
   21.7791   45.5154   51.6373 O   0  0  0  0  0  0  0  0  0  0  0  0
   22.6845   44.7018   50.9011 C   0  0  0  0  0  0  0  0  0  0  0  0
   24.0476   45.1609   50.9589 O   0  0  0  0  0  0  0  0  0  0  0  0
   22.3133   44.8232   49.4596 C   0  0  0  0  0  0  0  0  0  0  0  0
   20.9157   45.0503   49.4136 O   0  0  0  0  0  0  0  0  0  0  0  0
   23.1048   46.0243   48.9979 C   0  0  0  0  0  0  0  0  0  0  0  0
   23.3869   45.9883   47.6213 O   0  0  0  0  0  0  0  0  0  0  0  0
   24.3959   45.9045   49.7912 C   0  0  0  0  0  0  0  0  0  0  0  0
   20.6950   45.8201   49.9610 H   0  0  0  0  0  0  0  0  0  0  0  0
   23.8753   45.1766   47.4125 H   0  0  0  0  0  0  0  0  0  0  0  0
   24.8926   47.2949   50.1807 C   0  0  0  0  0  0  0  0  0  0  0  0
   25.2165   48.0263   48.9998 O   0  0  0  0  0  0  0  0  0  0  0  0
   25.9097   47.5577   48.5091 H   0  0  0  0  0  0  0  0  0  0  0  0
   22.6624   43.2516   51.3929 C   0  0  0  0  0  0  0  0  0  0  0  0
   23.8401   42.8324   52.0785 O   0  0  0  0  0  0  0  0  0  0  0  0
   24.2506   41.4806   51.8470 C   0  0  0  0  0  0  0  0  0  0  0  0
   23.2048   40.5944   52.1087 O   0  0  0  0  0  0  0  0  0  0  0  0
   25.3054   41.1433   52.8860 C   0  0  0  0  0  0  0  0  0  0  0  0
   26.1712   42.2266   53.1745 O   0  0  0  0  0  0  0  0  0  0  0  0
   24.4581   40.8298   54.0677 C   0  0  0  0  0  0  0  0  0  0  0  0
   25.1365   40.0834   55.0924 O   0  0  0  0  0  0  0  0  0  0  0  0
   23.3584   40.0334   53.4040 C   0  0  0  0  0  0  0  0  0  0  0  0
   25.6487   42.9876   53.4724 H   0  0  0  0  0  0  0  0  0  0  0  0
   25.4830   39.2592   54.7163 H   0  0  0  0  0  0  0  0  0  0  0  0
   24.6703   41.2437   50.4102 C   0  0  0  0  0  0  0  0  0  0  0  0
   25.6241   42.2157   50.0133 O   0  0  0  0  0  0  0  0  0  0  0  0
   26.4064   42.1527   50.5833 H   0  0  0  0  0  0  0  0  0  0  0  0
   22.0255   40.0519   54.1481 C   0  0  0  0  0  0  0  0  0  0  0  0
   21.0296   39.4470   53.3341 O   0  0  0  0  0  0  0  0  0  0  0  0
   20.9483   39.9399   52.5027 H   0  0  0  0  0  0  0  0  0  0  0  0
   21.5959   45.1726   53.0184 C   0  0  0  0  0  0  0  0  0  0  0  0
   20.1307   44.7545   53.2146 C   0  0  0  0  0  0  0  0  0  0  0  0
   19.4974   44.7691   51.9410 O   0  0  0  0  0  0  0  0  0  0  0  0
   19.9519   43.3262   53.8183 C   0  0  0  0  0  0  0  0  0  0  0  0
   19.7952   43.2629   55.2597 O   0  0  0  0  0  0  0  0  0  0  0  0
   18.7186   42.7770   53.0818 C   0  0  0  0  0  0  0  0  0  0  0  0
   18.6471   41.3233   53.0355 O   0  0  0  0  0  0  0  0  0  0  0  0
   18.9185   43.4631   51.7103 C   0  0  0  0  0  0  0  0  0  0  0  0
   19.0037   43.7591   55.5210 H   0  0  0  0  0  0  0  0  0  0  0  0
   19.4527   40.9728   52.6244 H   0  0  0  0  0  0  0  0  0  0  0  0
   17.6611   43.5559   50.8544 C   0  0  0  0  0  0  0  0  0  0  0  0
   17.0308   42.3018   50.9667 O   0  0  0  0  0  0  0  0  0  0  0  0
   17.6374   41.6070   50.6664 H   0  0  0  0  0  0  0  0  0  0  0  0
   19.3895   45.6420   53.9949 O   0  0  0  0  0  0  0  0  0  0  0  0
   18.6737   46.6852   53.3421 C   0  0  0  0  0  0  0  0  0  0  0  0
   19.0947   48.0125   53.9316 C   0  0  0  0  0  0  0  0  0  0  0  0
   20.5166   48.1390   53.7632 O   0  0  0  0  0  0  0  0  0  0  0  0
   18.7484   48.0418   55.4019 C   0  0  0  0  0  0  0  0  0  0  0  0
   19.0373   49.2787   56.0383 O   0  0  0  0  0  0  0  0  0  0  0  0
   17.2522   47.8289   55.5703 C   0  0  0  0  0  0  0  0  0  0  0  0
   16.9806   47.8443   56.9936 O   0  0  0  0  0  0  0  0  0  0  0  0
   16.8478   46.5020   54.9313 C   0  0  0  0  0  0  0  0  0  0  0  0
   17.3215   46.3976   53.5705 O   0  0  0  0  0  0  0  0  0  0  0  0
   20.9619   47.4022   54.2101 H   0  0  0  0  0  0  0  0  0  0  0  0
   18.5013   49.9812   55.6383 H   0  0  0  0  0  0  0  0  0  0  0  0
   17.4970   47.1480   57.4288 H   0  0  0  0  0  0  0  0  0  0  0  0
   15.3381   46.2721   54.9364 C   0  0  0  0  0  0  0  0  0  0  0  0
   14.8360   46.0171   56.2370 O   0  0  0  0  0  0  0  0  0  0  0  0
   15.2451   45.2111   56.5892 H   0  0  0  0  0  0  0  0  0  0  0  0
 45 44  1  0  0  0
 45 46  1  0  0  0
 45 53  1  0  0  0
 44 32  1  0  0  0
 46 47  1  0  0  0
 46 48  1  0  0  0
 48 49  1  0  0  0
 48 50  1  0  0  0
 50 51  1  0  0  0
 50 52  1  0  0  0
 52 53  1  0  0  0
 52 57  1  0  0  0
 57 58  1  0  0  0
 31  1  1  0  0  0
 31 32  1  0  0  0
  1  2  1  0  0  0
 14 15  1  0  0  0
 14  2  1  0  0  0
 15 16  1  0  0  0
 25 26  1  0  0  0
 25 16  1  0  0  0
 32 33  1  0  0  0
 32 34  1  0  0  0
 33 38  1  0  0  0
  2  3  1  0  0  0
  2  4  1  0  0  0
  3  8  1  0  0  0
 16 17  1  0  0  0
 16 18  1  0  0  0
 17 22  1  0  0  0
 34 35  1  0  0  0
 34 36  1  0  0  0
  4  5  1  0  0  0
  4  6  1  0  0  0
 18 19  1  0  0  0
 18 20  1  0  0  0
 36 37  1  0  0  0
 36 38  1  0  0  0
  6  7  1  0  0  0
  6  8  1  0  0  0
 20 21  1  0  0  0
 20 22  1  0  0  0
 38 41  1  0  0  0
  8 11  1  0  0  0
 22 28  1  0  0  0
 41 42  1  0  0  0
 11 12  1  0  0  0
 28 29  1  0  0  0
 47 54  1  0  0  0
 49 55  1  0  0  0
 51 56  1  0  0  0
 58 59  1  0  0  0
 26 27  1  0  0  0
 35 39  1  0  0  0
  5  9  1  0  0  0
 19 23  1  0  0  0
 37 40  1  0  0  0
  7 10  1  0  0  0
 21 24  1  0  0  0
 42 43  1  0  0  0
 12 13  1  0  0  0
 29 30  1  0  0  0
M  END
> <minimizedAffinity>
-8.96735

$$$$
5G60_NYT_A_544


 59 62  0  0  0  0  0  0  0  0999 V2000
   20.3924   43.5892   50.7287 O   0  0  0  0  0  0  0  0  0  0  0  0
   21.1298   43.6235   51.9447 C   0  0  0  0  0  0  0  0  0  0  0  0
   20.7173   42.6249   52.8959 O   0  0  0  0  0  0  0  0  0  0  0  0
   20.8176   44.9225   52.6124 C   0  0  0  0  0  0  0  0  0  0  0  0
   20.5502   45.8588   51.5833 O   0  0  0  0  0  0  0  0  0  0  0  0
   19.5888   44.6046   53.4317 C   0  0  0  0  0  0  0  0  0  0  0  0
   19.4581   45.4395   54.5550 O   0  0  0  0  0  0  0  0  0  0  0  0
   19.8415   43.1743   53.8801 C   0  0  0  0  0  0  0  0  0  0  0  0
   19.8502   45.5145   51.0068 H   0  0  0  0  0  0  0  0  0  0  0  0
   20.2493   45.3604   55.1106 H   0  0  0  0  0  0  0  0  0  0  0  0
   18.5248   42.4014   53.9042 C   0  0  0  0  0  0  0  0  0  0  0  0
   18.5667   41.3704   52.9195 O   0  0  0  0  0  0  0  0  0  0  0  0
   18.6974   41.7653   52.0432 H   0  0  0  0  0  0  0  0  0  0  0  0
   22.6294   43.4364   51.6967 C   0  0  0  0  0  0  0  0  0  0  0  0
   23.3007   42.6282   52.6605 O   0  0  0  0  0  0  0  0  0  0  0  0
   23.6806   41.3191   52.2231 C   0  0  0  0  0  0  0  0  0  0  0  0
   22.6430   40.4086   52.4283 O   0  0  0  0  0  0  0  0  0  0  0  0
   24.7941   40.8411   53.1382 C   0  0  0  0  0  0  0  0  0  0  0  0
   25.6885   41.8727   53.5151 O   0  0  0  0  0  0  0  0  0  0  0  0
   24.0185   40.3727   54.3180 C   0  0  0  0  0  0  0  0  0  0  0  0
   24.7507   39.4923   55.1875 O   0  0  0  0  0  0  0  0  0  0  0  0
   22.8706   39.6768   53.6235 C   0  0  0  0  0  0  0  0  0  0  0  0
   25.1942   42.5879   53.9455 H   0  0  0  0  0  0  0  0  0  0  0  0
   25.0637   38.7257   54.6823 H   0  0  0  0  0  0  0  0  0  0  0  0
   24.0073   41.2779   50.7439 C   0  0  0  0  0  0  0  0  0  0  0  0
   24.5980   40.0326   50.4086 O   0  0  0  0  0  0  0  0  0  0  0  0
   23.9781   39.3152   50.6132 H   0  0  0  0  0  0  0  0  0  0  0  0
   21.5869   39.5981   54.4461 C   0  0  0  0  0  0  0  0  0  0  0  0
   20.4720   39.5513   53.5656 O   0  0  0  0  0  0  0  0  0  0  0  0
   20.4609   40.3500   53.0153 H   0  0  0  0  0  0  0  0  0  0  0  0
   21.1448   43.3207   49.5369 C   0  0  0  0  0  0  0  0  0  0  0  0
   20.3949   43.9446   48.3501 C   0  0  0  0  0  0  0  0  0  0  0  0
   20.2614   45.3385   48.6011 O   0  0  0  0  0  0  0  0  0  0  0  0
   21.1212   43.7758   46.9787 C   0  0  0  0  0  0  0  0  0  0  0  0
   20.7128   42.6336   46.1822 O   0  0  0  0  0  0  0  0  0  0  0  0
   20.8436   45.1064   46.2594 C   0  0  0  0  0  0  0  0  0  0  0  0
   21.8164   45.4446   45.2298 O   0  0  0  0  0  0  0  0  0  0  0  0
   20.8318   46.0550   47.4807 C   0  0  0  0  0  0  0  0  0  0  0  0
   19.7688   42.7070   45.9718 H   0  0  0  0  0  0  0  0  0  0  0  0
   22.7048   45.4657   45.6187 H   0  0  0  0  0  0  0  0  0  0  0  0
   20.1205   47.3828   47.2501 C   0  0  0  0  0  0  0  0  0  0  0  0
   19.1447   47.1263   46.2679 O   0  0  0  0  0  0  0  0  0  0  0  0
   19.5737   46.7875   45.4667 H   0  0  0  0  0  0  0  0  0  0  0  0
   19.0884   43.4796   48.1996 O   0  0  0  0  0  0  0  0  0  0  0  0
   18.0178   44.3095   48.6376 C   0  0  0  0  0  0  0  0  0  0  0  0
   17.0364   43.4699   49.4239 C   0  0  0  0  0  0  0  0  0  0  0  0
   17.7469   42.8724   50.5214 O   0  0  0  0  0  0  0  0  0  0  0  0
   16.4707   42.3901   48.5314 C   0  0  0  0  0  0  0  0  0  0  0  0
   15.4790   41.5864   49.1552 O   0  0  0  0  0  0  0  0  0  0  0  0
   15.7893   43.0335   47.3338 C   0  0  0  0  0  0  0  0  0  0  0  0
   15.2868   41.9568   46.5046 O   0  0  0  0  0  0  0  0  0  0  0  0
   16.7914   43.9068   46.5817 C   0  0  0  0  0  0  0  0  0  0  0  0
   17.4602   44.8345   47.4643 O   0  0  0  0  0  0  0  0  0  0  0  0
   18.4738   42.3293   50.1786 H   0  0  0  0  0  0  0  0  0  0  0  0
   14.7192   42.1392   49.3959 H   0  0  0  0  0  0  0  0  0  0  0  0
   16.0225   41.3835   46.2381 H   0  0  0  0  0  0  0  0  0  0  0  0
   16.1557   44.6980   45.4407 C   0  0  0  0  0  0  0  0  0  0  0  0
   14.7395   44.6623   45.4835 O   0  0  0  0  0  0  0  0  0  0  0  0
   14.4363   43.7453   45.3938 H   0  0  0  0  0  0  0  0  0  0  0  0
 45 44  1  0  0  0
 45 46  1  0  0  0
 45 53  1  0  0  0
 44 32  1  0  0  0
 46 47  1  0  0  0
 46 48  1  0  0  0
 48 49  1  0  0  0
 48 50  1  0  0  0
 50 51  1  0  0  0
 50 52  1  0  0  0
 52 53  1  0  0  0
 52 57  1  0  0  0
 57 58  1  0  0  0
 31  1  1  0  0  0
 31 32  1  0  0  0
  1  2  1  0  0  0
 14 15  1  0  0  0
 14  2  1  0  0  0
 15 16  1  0  0  0
 25 26  1  0  0  0
 25 16  1  0  0  0
 32 33  1  0  0  0
 32 34  1  0  0  0
 33 38  1  0  0  0
  2  3  1  0  0  0
  2  4  1  0  0  0
  3  8  1  0  0  0
 16 17  1  0  0  0
 16 18  1  0  0  0
 17 22  1  0  0  0
 34 35  1  0  0  0
 34 36  1  0  0  0
  4  5  1  0  0  0
  4  6  1  0  0  0
 18 19  1  0  0  0
 18 20  1  0  0  0
 36 37  1  0  0  0
 36 38  1  0  0  0
  6  7  1  0  0  0
  6  8  1  0  0  0
 20 21  1  0  0  0
 20 22  1  0  0  0
 38 41  1  0  0  0
  8 11  1  0  0  0
 22 28  1  0  0  0
 41 42  1  0  0  0
 11 12  1  0  0  0
 28 29  1  0  0  0
 47 54  1  0  0  0
 49 55  1  0  0  0
 51 56  1  0  0  0
 58 59  1  0  0  0
 26 27  1  0  0  0
 35 39  1  0  0  0
  5  9  1  0  0  0
 19 23  1  0  0  0
 37 40  1  0  0  0
  7 10  1  0  0  0
 21 24  1  0  0  0
 42 43  1  0  0  0
 12 13  1  0  0  0
 29 30  1  0  0  0
M  END
> <minimizedAffinity>
-8.87831

$$$$
5G60_NYT_A_544


 59 62  0  0  0  0  0  0  0  0999 V2000
   22.7902   46.1183   49.7162 O   0  0  0  0  0  0  0  0  0  0  0  0
   23.4258   46.6624   48.5656 C   0  0  0  0  0  0  0  0  0  0  0  0
   24.8630   46.6039   48.6207 O   0  0  0  0  0  0  0  0  0  0  0  0
   23.1151   48.1230   48.5403 C   0  0  0  0  0  0  0  0  0  0  0  0
   21.8436   48.2824   49.1443 O   0  0  0  0  0  0  0  0  0  0  0  0
   24.2237   48.7276   49.3696 C   0  0  0  0  0  0  0  0  0  0  0  0
   24.4922   50.0626   49.0209 O   0  0  0  0  0  0  0  0  0  0  0  0
   25.4194   47.8549   49.0243 C   0  0  0  0  0  0  0  0  0  0  0  0
   21.8519   47.8794   50.0266 H   0  0  0  0  0  0  0  0  0  0  0  0
   24.7257   50.1105   48.0807 H   0  0  0  0  0  0  0  0  0  0  0  0
   26.2952   47.6677   50.2611 C   0  0  0  0  0  0  0  0  0  0  0  0
   26.1909   48.8233   51.0905 O   0  0  0  0  0  0  0  0  0  0  0  0
   26.4867   49.6038   50.5962 H   0  0  0  0  0  0  0  0  0  0  0  0
   22.9811   45.9454   47.2875 C   0  0  0  0  0  0  0  0  0  0  0  0
   21.5825   45.6817   47.2030 O   0  0  0  0  0  0  0  0  0  0  0  0
   21.1721   44.8197   46.1363 C   0  0  0  0  0  0  0  0  0  0  0  0
   21.5352   45.3555   44.8999 O   0  0  0  0  0  0  0  0  0  0  0  0
   19.6537   44.8130   46.1180 C   0  0  0  0  0  0  0  0  0  0  0  0
   19.0797   44.8483   47.4124 O   0  0  0  0  0  0  0  0  0  0  0  0
   19.3672   46.0787   45.3907 C   0  0  0  0  0  0  0  0  0  0  0  0
   18.0351   46.1570   44.8553 O   0  0  0  0  0  0  0  0  0  0  0  0
   20.4218   46.0102   44.3103 C   0  0  0  0  0  0  0  0  0  0  0  0
   19.3987   45.6323   47.8863 H   0  0  0  0  0  0  0  0  0  0  0  0
   17.8791   45.4034   44.2648 H   0  0  0  0  0  0  0  0  0  0  0  0
   21.8160   43.4506   46.2214 C   0  0  0  0  0  0  0  0  0  0  0  0
   20.8273   42.4589   46.4475 O   0  0  0  0  0  0  0  0  0  0  0  0
   20.1925   42.4621   45.7141 H   0  0  0  0  0  0  0  0  0  0  0  0
   20.8434   47.3663   43.7500 C   0  0  0  0  0  0  0  0  0  0  0  0
   22.2619   47.4181   43.6747 O   0  0  0  0  0  0  0  0  0  0  0  0
   22.6373   47.2979   44.5610 H   0  0  0  0  0  0  0  0  0  0  0  0
   23.3997   44.9513   50.2864 C   0  0  0  0  0  0  0  0  0  0  0  0
   22.3015   44.1325   50.9818 C   0  0  0  0  0  0  0  0  0  0  0  0
   22.0920   44.6900   52.2736 O   0  0  0  0  0  0  0  0  0  0  0  0
   20.9319   44.1395   50.2329 C   0  0  0  0  0  0  0  0  0  0  0  0
   20.6982   43.0278   49.3298 O   0  0  0  0  0  0  0  0  0  0  0  0
   19.9000   44.1805   51.3724 C   0  0  0  0  0  0  0  0  0  0  0  0
   18.6070   44.7304   50.9897 O   0  0  0  0  0  0  0  0  0  0  0  0
   20.6902   45.0275   52.3971 C   0  0  0  0  0  0  0  0  0  0  0  0
   20.7203   42.1961   49.8284 H   0  0  0  0  0  0  0  0  0  0  0  0
   18.7288   45.6232   50.6306 H   0  0  0  0  0  0  0  0  0  0  0  0
   20.2117   44.8954   53.8379 C   0  0  0  0  0  0  0  0  0  0  0  0
   20.4451   43.5535   54.1949 O   0  0  0  0  0  0  0  0  0  0  0  0
   19.9663   42.9691   53.5866 H   0  0  0  0  0  0  0  0  0  0  0  0
   22.6511   42.8027   51.2165 O   0  0  0  0  0  0  0  0  0  0  0  0
   23.7749   42.5328   52.0479 C   0  0  0  0  0  0  0  0  0  0  0  0
   24.6062   41.4424   51.4105 C   0  0  0  0  0  0  0  0  0  0  0  0
   24.9925   41.8907   50.1005 O   0  0  0  0  0  0  0  0  0  0  0  0
   23.7807   40.1821   51.2977 C   0  0  0  0  0  0  0  0  0  0  0  0
   24.4939   39.0696   50.7759 O   0  0  0  0  0  0  0  0  0  0  0  0
   23.3129   39.7619   52.6822 C   0  0  0  0  0  0  0  0  0  0  0  0
   22.5115   38.5666   52.5129 O   0  0  0  0  0  0  0  0  0  0  0  0
   22.5112   40.8954   53.3186 C   0  0  0  0  0  0  0  0  0  0  0  0
   23.2318   42.1468   53.2805 O   0  0  0  0  0  0  0  0  0  0  0  0
   24.1986   42.0761   49.5750 H   0  0  0  0  0  0  0  0  0  0  0  0
   25.2218   38.8422   51.3754 H   0  0  0  0  0  0  0  0  0  0  0  0
   21.7669   38.7576   51.9214 H   0  0  0  0  0  0  0  0  0  0  0  0
   22.1169   40.6086   54.7658 C   0  0  0  0  0  0  0  0  0  0  0  0
   20.7122   40.6200   54.9543 O   0  0  0  0  0  0  0  0  0  0  0  0
   20.3638   41.4985   54.7360 H   0  0  0  0  0  0  0  0  0  0  0  0
 45 44  1  0  0  0
 45 46  1  0  0  0
 45 53  1  0  0  0
 44 32  1  0  0  0
 46 47  1  0  0  0
 46 48  1  0  0  0
 48 49  1  0  0  0
 48 50  1  0  0  0
 50 51  1  0  0  0
 50 52  1  0  0  0
 52 53  1  0  0  0
 52 57  1  0  0  0
 57 58  1  0  0  0
 31  1  1  0  0  0
 31 32  1  0  0  0
  1  2  1  0  0  0
 14 15  1  0  0  0
 14  2  1  0  0  0
 15 16  1  0  0  0
 25 26  1  0  0  0
 25 16  1  0  0  0
 32 33  1  0  0  0
 32 34  1  0  0  0
 33 38  1  0  0  0
  2  3  1  0  0  0
  2  4  1  0  0  0
  3  8  1  0  0  0
 16 17  1  0  0  0
 16 18  1  0  0  0
 17 22  1  0  0  0
 34 35  1  0  0  0
 34 36  1  0  0  0
  4  5  1  0  0  0
  4  6  1  0  0  0
 18 19  1  0  0  0
 18 20  1  0  0  0
 36 37  1  0  0  0
 36 38  1  0  0  0
  6  7  1  0  0  0
  6  8  1  0  0  0
 20 21  1  0  0  0
 20 22  1  0  0  0
 38 41  1  0  0  0
  8 11  1  0  0  0
 22 28  1  0  0  0
 41 42  1  0  0  0
 11 12  1  0  0  0
 28 29  1  0  0  0
 47 54  1  0  0  0
 49 55  1  0  0  0
 51 56  1  0  0  0
 58 59  1  0  0  0
 26 27  1  0  0  0
 35 39  1  0  0  0
  5  9  1  0  0  0
 19 23  1  0  0  0
 37 40  1  0  0  0
  7 10  1  0  0  0
 21 24  1  0  0  0
 42 43  1  0  0  0
 12 13  1  0  0  0
 29 30  1  0  0  0
M  END
> <minimizedAffinity>
-8.87054

$$$$
5G60_NYT_A_544


 59 62  0  0  0  0  0  0  0  0999 V2000
   20.5891   44.6440   52.2599 O   0  0  0  0  0  0  0  0  0  0  0  0
   21.8312   44.0190   51.9593 C   0  0  0  0  0  0  0  0  0  0  0  0
   22.9272   44.9448   51.8413 O   0  0  0  0  0  0  0  0  0  0  0  0
   21.7043   43.4194   50.5974 C   0  0  0  0  0  0  0  0  0  0  0  0
   20.3436   43.0609   50.4322 O   0  0  0  0  0  0  0  0  0  0  0  0
   22.1148   44.5488   49.6819 C   0  0  0  0  0  0  0  0  0  0  0  0
   22.6334   44.0905   48.4583 O   0  0  0  0  0  0  0  0  0  0  0  0
   23.2076   45.2473   50.4747 C   0  0  0  0  0  0  0  0  0  0  0  0
   19.7832   43.8360   50.5938 H   0  0  0  0  0  0  0  0  0  0  0  0
   23.3951   43.5137   48.6257 H   0  0  0  0  0  0  0  0  0  0  0  0
   23.1301   46.7544   50.2420 C   0  0  0  0  0  0  0  0  0  0  0  0
   22.0676   47.0359   49.3330 O   0  0  0  0  0  0  0  0  0  0  0  0
   22.2340   46.5837   48.4911 H   0  0  0  0  0  0  0  0  0  0  0  0
   22.2105   42.9846   53.0231 C   0  0  0  0  0  0  0  0  0  0  0  0
   21.2414   41.9609   53.2371 O   0  0  0  0  0  0  0  0  0  0  0  0
   21.1845   41.4209   54.5616 C   0  0  0  0  0  0  0  0  0  0  0  0
   22.4492   41.4232   55.1515 O   0  0  0  0  0  0  0  0  0  0  0  0
   20.8247   39.9509   54.4364 C   0  0  0  0  0  0  0  0  0  0  0  0
   19.8921   39.6906   53.4026 O   0  0  0  0  0  0  0  0  0  0  0  0
   22.1467   39.3567   54.1018 C   0  0  0  0  0  0  0  0  0  0  0  0
   22.2219   37.9374   54.3193 O   0  0  0  0  0  0  0  0  0  0  0  0
   23.0353   40.1343   55.0450 C   0  0  0  0  0  0  0  0  0  0  0  0
   20.2452   40.0150   52.5594 H   0  0  0  0  0  0  0  0  0  0  0  0
   22.0044   37.7400   55.2438 H   0  0  0  0  0  0  0  0  0  0  0  0
   20.2794   42.2247   55.4734 C   0  0  0  0  0  0  0  0  0  0  0  0
   18.9437   42.1812   54.9978 O   0  0  0  0  0  0  0  0  0  0  0  0
   18.6360   41.2614   54.9816 H   0  0  0  0  0  0  0  0  0  0  0  0
   24.4889   40.2518   54.5935 C   0  0  0  0  0  0  0  0  0  0  0  0
   25.2076   41.0349   55.5372 O   0  0  0  0  0  0  0  0  0  0  0  0
   24.8095   41.9175   55.5950 H   0  0  0  0  0  0  0  0  0  0  0  0
   20.5471   45.4294   53.4598 C   0  0  0  0  0  0  0  0  0  0  0  0
   19.5734   46.5955   53.2314 C   0  0  0  0  0  0  0  0  0  0  0  0
   19.4616   47.3174   54.4521 O   0  0  0  0  0  0  0  0  0  0  0  0
   20.0298   47.5985   52.1258 C   0  0  0  0  0  0  0  0  0  0  0  0
   19.5010   47.3586   50.7959 O   0  0  0  0  0  0  0  0  0  0  0  0
   19.5940   48.9655   52.6793 C   0  0  0  0  0  0  0  0  0  0  0  0
   20.3468   50.0937   52.1491 O   0  0  0  0  0  0  0  0  0  0  0  0
   19.7947   48.7009   54.1897 C   0  0  0  0  0  0  0  0  0  0  0  0
   18.5329   47.4151   50.8178 H   0  0  0  0  0  0  0  0  0  0  0  0
   21.2922   49.9609   52.3210 H   0  0  0  0  0  0  0  0  0  0  0  0
   19.0258   49.6416   55.1097 C   0  0  0  0  0  0  0  0  0  0  0  0
   19.7520   50.8480   55.1135 O   0  0  0  0  0  0  0  0  0  0  0  0
   20.6564   50.6799   55.4214 H   0  0  0  0  0  0  0  0  0  0  0  0
   18.2717   46.1942   52.9306 O   0  0  0  0  0  0  0  0  0  0  0  0
   17.5977   45.3355   53.8445 C   0  0  0  0  0  0  0  0  0  0  0  0
   17.0332   44.1564   53.0847 C   0  0  0  0  0  0  0  0  0  0  0  0
   18.1238   43.4966   52.4202 O   0  0  0  0  0  0  0  0  0  0  0  0
   16.0337   44.6481   52.0641 C   0  0  0  0  0  0  0  0  0  0  0  0
   15.3873   43.6092   51.3422 O   0  0  0  0  0  0  0  0  0  0  0  0
   14.9258   45.4116   52.7726 C   0  0  0  0  0  0  0  0  0  0  0  0
   14.0117   45.8768   51.7491 O   0  0  0  0  0  0  0  0  0  0  0  0
   15.5271   46.5712   53.5640 C   0  0  0  0  0  0  0  0  0  0  0  0
   16.6009   46.1313   54.4245 O   0  0  0  0  0  0  0  0  0  0  0  0
   18.5618   44.1204   51.8204 H   0  0  0  0  0  0  0  0  0  0  0  0
   14.8734   43.0607   51.9554 H   0  0  0  0  0  0  0  0  0  0  0  0
   14.4907   46.4362   51.1178 H   0  0  0  0  0  0  0  0  0  0  0  0
   14.4974   47.3106   54.4156 C   0  0  0  0  0  0  0  0  0  0  0  0
   14.9742   48.5659   54.8689 O   0  0  0  0  0  0  0  0  0  0  0  0
   15.7571   48.4324   55.4259 H   0  0  0  0  0  0  0  0  0  0  0  0
 45 44  1  0  0  0
 45 46  1  0  0  0
 45 53  1  0  0  0
 44 32  1  0  0  0
 46 47  1  0  0  0
 46 48  1  0  0  0
 48 49  1  0  0  0
 48 50  1  0  0  0
 50 51  1  0  0  0
 50 52  1  0  0  0
 52 53  1  0  0  0
 52 57  1  0  0  0
 57 58  1  0  0  0
 31  1  1  0  0  0
 31 32  1  0  0  0
  1  2  1  0  0  0
 14 15  1  0  0  0
 14  2  1  0  0  0
 15 16  1  0  0  0
 25 26  1  0  0  0
 25 16  1  0  0  0
 32 33  1  0  0  0
 32 34  1  0  0  0
 33 38  1  0  0  0
  2  3  1  0  0  0
  2  4  1  0  0  0
  3  8  1  0  0  0
 16 17  1  0  0  0
 16 18  1  0  0  0
 17 22  1  0  0  0
 34 35  1  0  0  0
 34 36  1  0  0  0
  4  5  1  0  0  0
  4  6  1  0  0  0
 18 19  1  0  0  0
 18 20  1  0  0  0
 36 37  1  0  0  0
 36 38  1  0  0  0
  6  7  1  0  0  0
  6  8  1  0  0  0
 20 21  1  0  0  0
 20 22  1  0  0  0
 38 41  1  0  0  0
  8 11  1  0  0  0
 22 28  1  0  0  0
 41 42  1  0  0  0
 11 12  1  0  0  0
 28 29  1  0  0  0
 47 54  1  0  0  0
 49 55  1  0  0  0
 51 56  1  0  0  0
 58 59  1  0  0  0
 26 27  1  0  0  0
 35 39  1  0  0  0
  5  9  1  0  0  0
 19 23  1  0  0  0
 37 40  1  0  0  0
  7 10  1  0  0  0
 21 24  1  0  0  0
 42 43  1  0  0  0
 12 13  1  0  0  0
 29 30  1  0  0  0
M  END
> <minimizedAffinity>
-8.77460

$$$$
5G60_NYT_A_544


 59 62  0  0  0  0  0  0  0  0999 V2000
   21.1617   44.1636   49.8322 O   0  0  0  0  0  0  0  0  0  0  0  0
   22.3791   43.9141   49.1398 C   0  0  0  0  0  0  0  0  0  0  0  0
   23.0168   42.6819   49.5234 O   0  0  0  0  0  0  0  0  0  0  0  0
   23.3456   44.9755   49.5519 C   0  0  0  0  0  0  0  0  0  0  0  0
   22.5836   46.1345   49.8402 O   0  0  0  0  0  0  0  0  0  0  0  0
   23.9936   44.3937   50.7864 C   0  0  0  0  0  0  0  0  0  0  0  0
   25.2877   44.8974   51.0052 O   0  0  0  0  0  0  0  0  0  0  0  0
   24.0665   42.9101   50.4635 C   0  0  0  0  0  0  0  0  0  0  0  0
   21.9043   45.9195   50.4983 H   0  0  0  0  0  0  0  0  0  0  0  0
   25.8412   44.7144   50.2299 H   0  0  0  0  0  0  0  0  0  0  0  0
   23.8250   42.0942   51.7314 C   0  0  0  0  0  0  0  0  0  0  0  0
   23.0950   42.8847   52.6675 O   0  0  0  0  0  0  0  0  0  0  0  0
   23.6039   43.6816   52.8841 H   0  0  0  0  0  0  0  0  0  0  0  0
   22.1639   43.8726   47.6241 C   0  0  0  0  0  0  0  0  0  0  0  0
   22.2232   45.1405   46.9747 O   0  0  0  0  0  0  0  0  0  0  0  0
   21.1527   45.4300   46.0695 C   0  0  0  0  0  0  0  0  0  0  0  0
   21.6480   45.8902   44.8486 O   0  0  0  0  0  0  0  0  0  0  0  0
   20.3847   46.6099   46.6386 C   0  0  0  0  0  0  0  0  0  0  0  0
   20.2804   46.5791   48.0509 O   0  0  0  0  0  0  0  0  0  0  0  0
   21.2409   47.7476   46.2081 C   0  0  0  0  0  0  0  0  0  0  0  0
   20.5782   49.0231   46.2396 O   0  0  0  0  0  0  0  0  0  0  0  0
   21.5826   47.3078   44.8031 C   0  0  0  0  0  0  0  0  0  0  0  0
   21.1684   46.5470   48.4400 H   0  0  0  0  0  0  0  0  0  0  0  0
   19.7841   48.9887   45.6835 H   0  0  0  0  0  0  0  0  0  0  0  0
   20.3108   44.2078   45.7627 C   0  0  0  0  0  0  0  0  0  0  0  0
   19.3049   44.5323   44.8167 O   0  0  0  0  0  0  0  0  0  0  0  0
   19.7203   44.8413   43.9963 H   0  0  0  0  0  0  0  0  0  0  0  0
   22.8906   47.8788   44.2612 C   0  0  0  0  0  0  0  0  0  0  0  0
   22.9014   47.7546   42.8453 O   0  0  0  0  0  0  0  0  0  0  0  0
   22.8262   46.8186   42.6022 H   0  0  0  0  0  0  0  0  0  0  0  0
   19.9857   43.5431   49.2933 C   0  0  0  0  0  0  0  0  0  0  0  0
   18.8399   43.7426   50.2969 C   0  0  0  0  0  0  0  0  0  0  0  0
   18.9296   42.7122   51.2736 O   0  0  0  0  0  0  0  0  0  0  0  0
   18.8805   45.1120   51.0451 C   0  0  0  0  0  0  0  0  0  0  0  0
   18.0847   46.1762   50.4619 O   0  0  0  0  0  0  0  0  0  0  0  0
   18.4130   44.7582   52.4668 C   0  0  0  0  0  0  0  0  0  0  0  0
   18.8602   45.6894   53.4932 O   0  0  0  0  0  0  0  0  0  0  0  0
   19.0034   43.3332   52.5786 C   0  0  0  0  0  0  0  0  0  0  0  0
   17.1515   45.9120   50.4488 H   0  0  0  0  0  0  0  0  0  0  0  0
   19.8282   45.7492   53.4760 H   0  0  0  0  0  0  0  0  0  0  0  0
   18.3600   42.4582   53.6475 C   0  0  0  0  0  0  0  0  0  0  0  0
   18.5227   41.1322   53.2026 O   0  0  0  0  0  0  0  0  0  0  0  0
   18.1048   41.0293   52.3333 H   0  0  0  0  0  0  0  0  0  0  0  0
   17.5691   43.6000   49.7395 O   0  0  0  0  0  0  0  0  0  0  0  0
   17.4663   43.1887   48.3804 C   0  0  0  0  0  0  0  0  0  0  0  0
   16.6667   44.2189   47.6152 C   0  0  0  0  0  0  0  0  0  0  0  0
   17.3326   45.4854   47.7523 O   0  0  0  0  0  0  0  0  0  0  0  0
   15.2745   44.3069   48.1953 C   0  0  0  0  0  0  0  0  0  0  0  0
   14.4143   45.1980   47.4992 O   0  0  0  0  0  0  0  0  0  0  0  0
   14.6093   42.9418   48.1152 C   0  0  0  0  0  0  0  0  0  0  0  0
   13.2916   43.0785   48.7024 O   0  0  0  0  0  0  0  0  0  0  0  0
   15.4573   41.9135   48.8609 C   0  0  0  0  0  0  0  0  0  0  0  0
   16.8343   41.9389   48.4249 O   0  0  0  0  0  0  0  0  0  0  0  0
   17.3933   45.7187   48.6919 H   0  0  0  0  0  0  0  0  0  0  0  0
   14.2899   44.8833   46.5901 H   0  0  0  0  0  0  0  0  0  0  0  0
   13.3762   43.3872   49.6181 H   0  0  0  0  0  0  0  0  0  0  0  0
   14.9308   40.4873   48.7162 C   0  0  0  0  0  0  0  0  0  0  0  0
   15.9447   39.5749   48.3311 O   0  0  0  0  0  0  0  0  0  0  0  0
   16.3007   39.8331   47.4665 H   0  0  0  0  0  0  0  0  0  0  0  0
 45 44  1  0  0  0
 45 46  1  0  0  0
 45 53  1  0  0  0
 44 32  1  0  0  0
 46 47  1  0  0  0
 46 48  1  0  0  0
 48 49  1  0  0  0
 48 50  1  0  0  0
 50 51  1  0  0  0
 50 52  1  0  0  0
 52 53  1  0  0  0
 52 57  1  0  0  0
 57 58  1  0  0  0
 31  1  1  0  0  0
 31 32  1  0  0  0
  1  2  1  0  0  0
 14 15  1  0  0  0
 14  2  1  0  0  0
 15 16  1  0  0  0
 25 26  1  0  0  0
 25 16  1  0  0  0
 32 33  1  0  0  0
 32 34  1  0  0  0
 33 38  1  0  0  0
  2  3  1  0  0  0
  2  4  1  0  0  0
  3  8  1  0  0  0
 16 17  1  0  0  0
 16 18  1  0  0  0
 17 22  1  0  0  0
 34 35  1  0  0  0
 34 36  1  0  0  0
  4  5  1  0  0  0
  4  6  1  0  0  0
 18 19  1  0  0  0
 18 20  1  0  0  0
 36 37  1  0  0  0
 36 38  1  0  0  0
  6  7  1  0  0  0
  6  8  1  0  0  0
 20 21  1  0  0  0
 20 22  1  0  0  0
 38 41  1  0  0  0
  8 11  1  0  0  0
 22 28  1  0  0  0
 41 42  1  0  0  0
 11 12  1  0  0  0
 28 29  1  0  0  0
 47 54  1  0  0  0
 49 55  1  0  0  0
 51 56  1  0  0  0
 58 59  1  0  0  0
 26 27  1  0  0  0
 35 39  1  0  0  0
  5  9  1  0  0  0
 19 23  1  0  0  0
 37 40  1  0  0  0
  7 10  1  0  0  0
 21 24  1  0  0  0
 42 43  1  0  0  0
 12 13  1  0  0  0
 29 30  1  0  0  0
M  END
> <minimizedAffinity>
-8.65895

$$$$
