5G60_NYT_A_544
  RCSB PDB12061717483D
Coordinates from PDB:5G60:A:544 Model:1 without hydrogens
 45 48  0  0  0  0            999 V2000
   18.8040   46.3720   49.3200   C 0  0  0  0  0  0  0  0  0  0  0  0
   18.7940   45.0610   48.7650   O 0  0  0  0  0  0  0  0  0  0  0  0
   17.3990   46.7360   49.7440   C 0  0  0  0  0  0  0  0  0  0  0  0
   16.9530   45.7480   50.6880   O 0  0  0  0  0  0  0  0  0  0  0  0
   16.4930   46.7350   48.5350   C 0  0  0  0  0  0  0  0  0  0  0  0
   15.1590   47.1370   48.8130   O 0  0  0  0  0  0  0  0  0  0  0  0
   17.0200   47.7280   47.5110   C 0  0  0  0  0  0  0  0  0  0  0  0
   16.1300   47.6700   46.3690   O 0  0  0  0  0  0  0  0  0  0  0  0
   18.4530   47.3610   47.1310   C 0  0  0  0  0  0  0  0  0  0  0  0
   19.2900   47.1970   48.2970   O 0  0  0  0  0  0  0  0  0  0  0  0
   19.1070   48.3860   46.2070   C 0  0  0  0  0  0  0  0  0  0  0  0
   18.5550   49.6820   46.3630   O 0  0  0  0  0  0  0  0  0  0  0  0
   20.2270   43.9920   50.4520   C 0  0  0  0  0  0  0  0  0  0  0  0
   21.3750   43.1340   50.5180   O 0  0  0  0  0  0  0  0  0  0  0  0
   21.6780   43.1820   52.9410   C 0  0  0  0  0  0  0  0  0  0  0  0
   21.1040   41.8920   53.1390   O 0  0  0  0  0  0  0  0  0  0  0  0
   20.1220   42.2400   55.3550   C 0  0  0  0  0  0  0  0  0  0  0  0
   18.7960   42.1360   54.8620   O 0  0  0  0  0  0  0  0  0  0  0  0
   19.9050   44.2430   48.9710   C 0  0  0  0  0  0  0  0  0  0  0  0
   20.9960   44.9560   48.4010   O 0  0  0  0  0  0  0  0  0  0  0  0
   22.3040   43.4040   51.5610   C 0  0  0  0  0  0  0  0  0  0  0  0
   22.8290   44.7440   51.5310   O 0  0  0  0  0  0  0  0  0  0  0  0
   21.0650   41.4260   54.4920   C 0  0  0  0  0  0  0  0  0  0  0  0
   22.3260   41.5170   55.0830   O 0  0  0  0  0  0  0  0  0  0  0  0
   19.6990   42.9410   48.1350   C 0  0  0  0  0  0  0  0  0  0  0  0
   18.3270   42.4900   47.9930   O 0  0  0  0  0  0  0  0  0  0  0  0
   23.4950   42.5340   51.3260   C 0  0  0  0  0  0  0  0  0  0  0  0
   23.0250   41.3580   50.6910   O 0  0  0  0  0  0  0  0  0  0  0  0
   20.7700   39.9370   54.4500   C 0  0  0  0  0  0  0  0  0  0  0  0
   19.8540   39.5780   53.4310   O 0  0  0  0  0  0  0  0  0  0  0  0
   20.3350   43.2820   46.7770   C 0  0  0  0  0  0  0  0  0  0  0  0
   20.7690   42.1220   46.0110   O 0  0  0  0  0  0  0  0  0  0  0  0
   24.3610   43.3710   50.4140   C 0  0  0  0  0  0  0  0  0  0  0  0
   25.7260   43.0540   50.5250   O 0  0  0  0  0  0  0  0  0  0  0  0
   22.1180   39.3830   54.1520   C 0  0  0  0  0  0  0  0  0  0  0  0
   22.2540   37.9830   54.4500   O 0  0  0  0  0  0  0  0  0  0  0  0
   21.4760   44.2080   47.2590   C 0  0  0  0  0  0  0  0  0  0  0  0
   24.1180   44.7840   50.9190   C 0  0  0  0  0  0  0  0  0  0  0  0
   22.9680   40.2510   55.0510   C 0  0  0  0  0  0  0  0  0  0  0  0
   22.0430   45.1320   46.1880   C 0  0  0  0  0  0  0  0  0  0  0  0
   21.0130   46.0440   45.8880   O 0  0  0  0  0  0  0  0  0  0  0  0
   24.1130   45.7580   49.7430   C 0  0  0  0  0  0  0  0  0  0  0  0
   23.5750   47.0080   50.1700   O 0  0  0  0  0  0  0  0  0  0  0  0
   24.4170   40.4060   54.5960   C 0  0  0  0  0  0  0  0  0  0  0  0
   25.0980   41.2690   55.4970   O 0  0  0  0  0  0  0  0  0  0  0  0
  1  2  1  0  0  0  0
  1  3  1  0  0  0  0
  1 10  1  0  0  0  0
  2 19  1  0  0  0  0
  3  4  1  0  0  0  0
  3  5  1  0  0  0  0
  5  6  1  0  0  0  0
  5  7  1  0  0  0  0
  7  8  1  0  0  0  0
  7  9  1  0  0  0  0
  9 10  1  0  0  0  0
  9 11  1  0  0  0  0
 11 12  1  0  0  0  0
 13 14  1  0  0  0  0
 13 19  1  0  0  0  0
 14 21  1  0  0  0  0
 15 16  1  0  0  0  0
 15 21  1  0  0  0  0
 16 23  1  0  0  0  0
 17 18  1  0  0  0  0
 17 23  1  0  0  0  0
 19 20  1  0  0  0  0
 19 25  1  0  0  0  0
 20 37  1  0  0  0  0
 21 22  1  0  0  0  0
 21 27  1  0  0  0  0
 22 38  1  0  0  0  0
 23 24  1  0  0  0  0
 23 29  1  0  0  0  0
 24 39  1  0  0  0  0
 25 26  1  0  0  0  0
 25 31  1  0  0  0  0
 27 28  1  0  0  0  0
 27 33  1  0  0  0  0
 29 30  1  0  0  0  0
 29 35  1  0  0  0  0
 31 32  1  0  0  0  0
 31 37  1  0  0  0  0
 33 34  1  0  0  0  0
 33 38  1  0  0  0  0
 35 36  1  0  0  0  0
 35 39  1  0  0  0  0
 37 40  1  0  0  0  0
 38 42  1  0  0  0  0
 39 44  1  0  0  0  0
 40 41  1  0  0  0  0
 42 43  1  0  0  0  0
 44 45  1  0  0  0  0
A    1
C1
A    2
O1
A    3
C2
A    4
O2
A    5
C3
A    6
O3
A    7
C4
A    8
O4
A    9
C5
A   10
O5
A   11
C6
A   12
O6
A   13
C11
A   14
O11
A   15
C12
A   16
O12
A   17
C13
A   18
O13
A   19
C21
A   20
O21
A   21
C22
A   22
O22
A   23
C23
A   24
O23
A   25
C31
A   26
O31
A   27
C32
A   28
O32
A   29
C33
A   30
O33
A   31
C41
A   32
O41
A   33
C42
A   34
O42
A   35
C43
A   36
O43
A   37
C51
A   38
C52
A   39
C53
A   40
C61
A   41
O61
A   42
C62
A   43
O62
A   44
C63
A   45
O63
M  END
>  <InstanceId>
5G60_NYT_A_544

>  <ChemCompId>
NYT

>  <PdbId>
5G60

>  <ChainId>
A

>  <ResidueNumber>
544

>  <InsertionCode>


>  <Model>
1

>  <AltIds>


>  <MissingHeavyAtoms>
0

>  <ObservedFormula>
C24 O21

>  <Name>
beta-D-fructofuranosyl-(2->1)-beta-D-fructofuranosyl-(2->1)-beta-D-fructofuranosyl alpha-D-glucopyranoside

>  <SystematicName>
(2R,3R,4S,5S,6R)-2-[(2S,3S,4S,5R)-2-[[(2R,3S,4S,5R)-2-[[(2R,3S,4S,5R)-3,4-dihydroxy-2,5-bis(hydroxymethyl)oxolan-2-yl]oxymethyl]-3,4-dihydroxy-5-(hydroxymethyl)oxolan-2-yl]oxymethyl]-3,4-dihydroxy-5-(hydroxymethyl)oxolan-2-yl]oxy-6-(hydroxymethyl)oxane-3,4,5-triol

>  <Synonyms>
Nystose

>  <Type>
D-saccharide

>  <Formula>
C24 H42 O21

>  <MolecularWeight>
666.578

>  <ModifiedDate>
2011-06-04

>  <Parent>


>  <OneLetterCode>


>  <SubcomponentList>


>  <AmbiguousFlag>
N

>  <InChI>
InChI=1S/C24H42O21/c25-1-8-12(30)16(34)17(35)21(41-8)45-24(20(38)15(33)11(4-28)44-24)7-40-23(19(37)14(32)10(3-27)43-23)6-39-22(5-29)18(36)13(31)9(2-26)42-22/h8-21,25-38H,1-7H2/t8-,9-,10-,11-,12-,13-,14-,15-,16+,17-,18+,19+,20+,21-,22-,23-,24+/m1/s1

>  <InChIKey>
FLDFNEBHEXLZRX-DLQNOBSRSA-N

>  <SMILES>
C([C@@H]1[C@H]([C@@H]([C@H]([C@H](O1)O[C@]2([C@H]([C@@H]([C@H](O2)CO)O)O)CO[C@]3([C@H]([C@@H]([C@H](O3)CO)O)O)CO[C@]4([C@H]([C@@H]([C@H](O4)CO)O)O)CO)O)O)O)O

$$$$
