1MRX_K57_B_1001


 41 43  0  0  0  0  0  0  0  0999 V2000
   14.7516   22.8065   16.9442 C   0  0  0  0  0  0  0  0  0  0  0  0
   14.2237   20.5150   17.8089 C   0  0  0  0  0  0  0  0  0  0  0  0
   15.4096   20.1630   17.7552 O   0  0  0  0  0  0  0  0  0  0  0  0
   13.8511   21.7667   17.4402 N   0  0  0  0  0  0  0  0  0  0  0  0
   12.8958   21.9934   17.5126 H   0  0  0  0  0  0  0  0  0  0  0  0
   11.0382   17.8173   19.0013 C   0  0  0  0  0  0  0  0  0  0  0  0
   10.9540   18.5237   17.7875 C   0  0  0  0  0  0  0  0  0  0  0  0
   11.9989   19.3987   17.4151 C   0  0  0  0  0  0  0  0  0  0  0  0
   13.1491   19.5790   18.2553 C   0  0  0  0  0  0  0  0  0  0  0  0
   13.2354   18.8560   19.5018 C   0  0  0  0  0  0  0  0  0  0  0  0
   12.1614   17.9789   19.8451 C   0  0  0  0  0  0  0  0  0  0  0  0
   14.4127   18.9747   20.4663 C   0  0  0  0  0  0  0  0  0  0  0  0
   12.2080   17.2707   21.0234 O   0  0  0  0  0  0  0  0  0  0  0  0
   11.5053   16.6945   21.2518 H   0  0  0  0  0  0  0  0  0  0  0  0
   14.9275   24.0154   17.8936 C   0  0  0  0  0  0  0  0  0  0  0  0
   13.8131   24.5451   18.5295 O   0  0  0  0  0  0  0  0  0  0  0  0
   13.3450   25.1380   17.9210 H   0  0  0  0  0  0  0  0  0  0  0  0
   16.3126   24.6921   18.0616 C   0  0  0  0  0  0  0  0  0  0  0  0
   16.3955   25.7944   17.5208 O   0  0  0  0  0  0  0  0  0  0  0  0
   17.3850   24.0174   18.6305 N   0  0  0  0  0  0  0  0  0  0  0  0
   18.7234   24.6560   18.5512 C   0  0  0  0  0  0  0  0  0  0  0  0
   19.6029   24.0582   19.6880 C   0  0  0  0  0  0  0  0  0  0  0  0
   17.4013   22.7055   19.3212 C   0  0  0  0  0  0  0  0  0  0  0  0
   19.3075   24.7469   21.0330 C   0  0  0  0  0  0  0  0  0  0  0  0
   21.1276   24.1044   19.4086 C   0  0  0  0  0  0  0  0  0  0  0  0
   19.0929   22.3391   19.8331 S   0  0  0  0  0  0  0  0  0  0  0  0
   19.2122   24.3957   17.0857 C   0  0  0  0  0  0  0  0  0  0  0  0
   19.3012   23.2491   16.6487 O   0  0  0  0  0  0  0  0  0  0  0  0
   19.5024   25.5349   16.3913 N   0  0  0  0  0  0  0  0  0  0  0  0
   19.3823   26.3810   16.8801 H   0  0  0  0  0  0  0  0  0  0  0  0
   19.9759   25.6539   14.9926 C   0  0  0  0  0  0  0  0  0  0  0  0
   20.3868   27.1262   14.8303 C   0  0  0  0  0  0  0  0  0  0  0  0
   18.8417   25.3128   14.0037 C   0  0  0  0  0  0  0  0  0  0  0  0
   21.2071   24.7562   14.7188 C   0  0  0  0  0  0  0  0  0  0  0  0
   14.4126   23.4942   15.5977 C   0  0  0  0  0  0  0  0  0  0  0  0
   14.2828   22.4648   14.4947 C   0  0  0  0  0  0  0  0  0  0  0  0
   14.2602   20.6393   12.3207 C   0  0  0  0  0  0  0  0  0  0  0  0
   15.2716   22.5332   13.4816 C   0  0  0  0  0  0  0  0  0  0  0  0
   13.2722   21.4686   14.4139 C   0  0  0  0  0  0  0  0  0  0  0  0
   15.2716   21.6289   12.3902 C   0  0  0  0  0  0  0  0  0  0  0  0
   13.2633   20.5559   13.3260 C   0  0  0  0  0  0  0  0  0  0  0  0
  6  7  2  0  0  0
  6 11  1  0  0  0
  7  8  1  0  0  0
  8  9  2  0  0  0
  9 10  1  0  0  0
  9  2  1  0  0  0
 10 11  2  0  0  0
 10 12  1  0  0  0
 11 13  1  0  0  0
  2  4  1  0  0  0
  2  3  2  0  0  0
  4  1  1  0  0  0
  1 35  1  0  0  0
  1 15  1  0  0  0
 35 36  1  0  0  0
 15 18  1  0  0  0
 15 16  1  0  0  0
 18 20  1  0  0  0
 18 19  2  0  0  0
 20 21  1  0  0  0
 20 23  1  0  0  0
 21 22  1  0  0  0
 21 27  1  0  0  0
 22 26  1  0  0  0
 22 24  1  0  0  0
 22 25  1  0  0  0
 26 23  1  0  0  0
 36 38  2  0  0  0
 36 39  1  0  0  0
 38 40  1  0  0  0
 40 37  2  0  0  0
 37 41  1  0  0  0
 41 39  2  0  0  0
 27 29  1  0  0  0
 27 28  2  0  0  0
 29 31  1  0  0  0
 31 32  1  0  0  0
 31 33  1  0  0  0
 31 34  1  0  0  0
 13 14  1  0  0  0
  4  5  1  0  0  0
 16 17  1  0  0  0
 29 30  1  0  0  0
M  END
> <minimizedAffinity>
-11.70280

$$$$
1MRX_K57_B_1001


 41 43  0  0  0  0  0  0  0  0999 V2000
   15.2661   22.1564   14.9009 C   0  0  0  0  0  0  0  0  0  0  0  0
   14.5606   21.9706   17.2977 C   0  0  0  0  0  0  0  0  0  0  0  0
   14.1950   23.1530   17.3377 O   0  0  0  0  0  0  0  0  0  0  0  0
   15.0742   21.4383   16.1600 N   0  0  0  0  0  0  0  0  0  0  0  0
   15.3395   20.4905   16.1844 H   0  0  0  0  0  0  0  0  0  0  0  0
   14.4132   19.4607   20.8369 C   0  0  0  0  0  0  0  0  0  0  0  0
   15.3672   20.4897   20.7348 C   0  0  0  0  0  0  0  0  0  0  0  0
   15.4023   21.2965   19.5754 C   0  0  0  0  0  0  0  0  0  0  0  0
   14.4780   21.0850   18.4973 C   0  0  0  0  0  0  0  0  0  0  0  0
   13.5000   20.0282   18.6005 C   0  0  0  0  0  0  0  0  0  0  0  0
   13.4927   19.2337   19.7876 C   0  0  0  0  0  0  0  0  0  0  0  0
   12.4732   19.7199   17.5139 C   0  0  0  0  0  0  0  0  0  0  0  0
   12.5745   18.2186   19.9244 O   0  0  0  0  0  0  0  0  0  0  0  0
   12.5668   17.6954   20.7017 H   0  0  0  0  0  0  0  0  0  0  0  0
   16.1035   23.4521   15.0173 C   0  0  0  0  0  0  0  0  0  0  0  0
   15.5736   24.6457   14.5469 O   0  0  0  0  0  0  0  0  0  0  0  0
   15.6955   24.6971   13.5859 H   0  0  0  0  0  0  0  0  0  0  0  0
   17.5546   23.4078   15.5624 C   0  0  0  0  0  0  0  0  0  0  0  0
   17.7830   22.4407   16.2883 O   0  0  0  0  0  0  0  0  0  0  0  0
   18.4358   24.4630   15.3650 N   0  0  0  0  0  0  0  0  0  0  0  0
   19.7234   24.4352   16.1044 C   0  0  0  0  0  0  0  0  0  0  0  0
   20.7319   25.3382   15.3360 C   0  0  0  0  0  0  0  0  0  0  0  0
   18.2787   25.6613   14.5061 C   0  0  0  0  0  0  0  0  0  0  0  0
   21.3510   24.5832   14.1454 C   0  0  0  0  0  0  0  0  0  0  0  0
   21.8633   25.9276   16.2176 C   0  0  0  0  0  0  0  0  0  0  0  0
   19.7511   26.6921   14.6715 S   0  0  0  0  0  0  0  0  0  0  0  0
   19.3647   24.8806   17.5630 C   0  0  0  0  0  0  0  0  0  0  0  0
   19.1953   26.0691   17.8320 O   0  0  0  0  0  0  0  0  0  0  0  0
   19.2612   23.8441   18.4457 N   0  0  0  0  0  0  0  0  0  0  0  0
   19.4274   22.9459   18.0785 H   0  0  0  0  0  0  0  0  0  0  0  0
   18.9297   23.9053   19.8883 C   0  0  0  0  0  0  0  0  0  0  0  0
   18.8796   22.4408   20.3527 C   0  0  0  0  0  0  0  0  0  0  0  0
   17.5546   24.5717   20.1024 C   0  0  0  0  0  0  0  0  0  0  0  0
   20.0145   24.6528   20.7014 C   0  0  0  0  0  0  0  0  0  0  0  0
   14.0122   22.6449   14.1325 C   0  0  0  0  0  0  0  0  0  0  0  0
   12.9408   21.5747   14.1318 C   0  0  0  0  0  0  0  0  0  0  0  0
   10.7619   19.7566   14.2113 C   0  0  0  0  0  0  0  0  0  0  0  0
   11.6561   22.0022   14.5507 C   0  0  0  0  0  0  0  0  0  0  0  0
   13.1321   20.2193   13.7490 C   0  0  0  0  0  0  0  0  0  0  0  0
   10.5599   21.1049   14.5963 C   0  0  0  0  0  0  0  0  0  0  0  0
   12.0406   19.3118   13.7887 C   0  0  0  0  0  0  0  0  0  0  0  0
  6  7  2  0  0  0
  6 11  1  0  0  0
  7  8  1  0  0  0
  8  9  2  0  0  0
  9 10  1  0  0  0
  9  2  1  0  0  0
 10 11  2  0  0  0
 10 12  1  0  0  0
 11 13  1  0  0  0
  2  4  1  0  0  0
  2  3  2  0  0  0
  4  1  1  0  0  0
  1 35  1  0  0  0
  1 15  1  0  0  0
 35 36  1  0  0  0
 15 18  1  0  0  0
 15 16  1  0  0  0
 18 20  1  0  0  0
 18 19  2  0  0  0
 20 21  1  0  0  0
 20 23  1  0  0  0
 21 22  1  0  0  0
 21 27  1  0  0  0
 22 26  1  0  0  0
 22 24  1  0  0  0
 22 25  1  0  0  0
 26 23  1  0  0  0
 36 38  2  0  0  0
 36 39  1  0  0  0
 38 40  1  0  0  0
 40 37  2  0  0  0
 37 41  1  0  0  0
 41 39  2  0  0  0
 27 29  1  0  0  0
 27 28  2  0  0  0
 29 31  1  0  0  0
 31 32  1  0  0  0
 31 33  1  0  0  0
 31 34  1  0  0  0
 13 14  1  0  0  0
  4  5  1  0  0  0
 16 17  1  0  0  0
 29 30  1  0  0  0
M  END
> <minimizedAffinity>
-10.82595

$$$$
1MRX_K57_B_1001


 41 43  0  0  0  0  0  0  0  0999 V2000
   16.5052   24.7740   14.7328 C   0  0  0  0  0  0  0  0  0  0  0  0
   17.6304   23.5952   16.6358 C   0  0  0  0  0  0  0  0  0  0  0  0
   17.9588   22.6396   15.9201 O   0  0  0  0  0  0  0  0  0  0  0  0
   16.9405   24.6452   16.1226 N   0  0  0  0  0  0  0  0  0  0  0  0
   16.7146   25.3807   16.7368 H   0  0  0  0  0  0  0  0  0  0  0  0
   18.5050   23.5863   20.8881 C   0  0  0  0  0  0  0  0  0  0  0  0
   17.7052   22.5749   20.3250 C   0  0  0  0  0  0  0  0  0  0  0  0
   17.4292   22.5936   18.9395 C   0  0  0  0  0  0  0  0  0  0  0  0
   17.9532   23.6285   18.0934 C   0  0  0  0  0  0  0  0  0  0  0  0
   18.7723   24.6676   18.6707 C   0  0  0  0  0  0  0  0  0  0  0  0
   19.0320   24.6158   20.0745 C   0  0  0  0  0  0  0  0  0  0  0  0
   19.3782   25.8115   17.8618 C   0  0  0  0  0  0  0  0  0  0  0  0
   19.8101   25.5866   20.6613 O   0  0  0  0  0  0  0  0  0  0  0  0
   19.9825   25.5558   21.5818 H   0  0  0  0  0  0  0  0  0  0  0  0
   15.5804   23.6367   14.2375 C   0  0  0  0  0  0  0  0  0  0  0  0
   15.7215   23.1657   12.9394 O   0  0  0  0  0  0  0  0  0  0  0  0
   15.2579   23.7591   12.3280 H   0  0  0  0  0  0  0  0  0  0  0  0
   14.4444   23.0927   15.1421 C   0  0  0  0  0  0  0  0  0  0  0  0
   14.3470   23.6755   16.2216 O   0  0  0  0  0  0  0  0  0  0  0  0
   13.7337   21.9482   14.8042 N   0  0  0  0  0  0  0  0  0  0  0  0
   12.8215   21.3747   15.8261 C   0  0  0  0  0  0  0  0  0  0  0  0
   11.7598   20.5114   15.0841 C   0  0  0  0  0  0  0  0  0  0  0  0
   13.7538   21.1776   13.5377 C   0  0  0  0  0  0  0  0  0  0  0  0
   10.6341   21.3932   14.5133 C   0  0  0  0  0  0  0  0  0  0  0  0
   11.1419   19.3787   15.9442 C   0  0  0  0  0  0  0  0  0  0  0  0
   12.6309   19.7731   13.6940 S   0  0  0  0  0  0  0  0  0  0  0  0
   13.7576   20.6151   16.8266 C   0  0  0  0  0  0  0  0  0  0  0  0
   14.9691   20.5470   16.6232 O   0  0  0  0  0  0  0  0  0  0  0  0
   13.1003   20.0763   17.8951 N   0  0  0  0  0  0  0  0  0  0  0  0
   12.1258   20.2146   17.9172 H   0  0  0  0  0  0  0  0  0  0  0  0
   13.6736   19.3090   19.0253 C   0  0  0  0  0  0  0  0  0  0  0  0
   12.4651   18.8662   19.8658 C   0  0  0  0  0  0  0  0  0  0  0  0
   14.6039   20.2021   19.8725 C   0  0  0  0  0  0  0  0  0  0  0  0
   14.4380   18.0517   18.5441 C   0  0  0  0  0  0  0  0  0  0  0  0
   17.5859   24.8237   13.6234 C   0  0  0  0  0  0  0  0  0  0  0  0
   18.7336   25.7189   14.0413 C   0  0  0  0  0  0  0  0  0  0  0  0
   21.0407   27.1813   14.8144 C   0  0  0  0  0  0  0  0  0  0  0  0
   19.9820   25.0681   14.2052 C   0  0  0  0  0  0  0  0  0  0  0  0
   18.6442   27.1191   14.2685 C   0  0  0  0  0  0  0  0  0  0  0  0
   21.1414   25.7858   14.5919 C   0  0  0  0  0  0  0  0  0  0  0  0
   19.7997   27.8488   14.6543 C   0  0  0  0  0  0  0  0  0  0  0  0
  6  7  2  0  0  0
  6 11  1  0  0  0
  7  8  1  0  0  0
  8  9  2  0  0  0
  9 10  1  0  0  0
  9  2  1  0  0  0
 10 11  2  0  0  0
 10 12  1  0  0  0
 11 13  1  0  0  0
  2  4  1  0  0  0
  2  3  2  0  0  0
  4  1  1  0  0  0
  1 35  1  0  0  0
  1 15  1  0  0  0
 35 36  1  0  0  0
 15 18  1  0  0  0
 15 16  1  0  0  0
 18 20  1  0  0  0
 18 19  2  0  0  0
 20 21  1  0  0  0
 20 23  1  0  0  0
 21 22  1  0  0  0
 21 27  1  0  0  0
 22 26  1  0  0  0
 22 24  1  0  0  0
 22 25  1  0  0  0
 26 23  1  0  0  0
 36 38  2  0  0  0
 36 39  1  0  0  0
 38 40  1  0  0  0
 40 37  2  0  0  0
 37 41  1  0  0  0
 41 39  2  0  0  0
 27 29  1  0  0  0
 27 28  2  0  0  0
 29 31  1  0  0  0
 31 32  1  0  0  0
 31 33  1  0  0  0
 31 34  1  0  0  0
 13 14  1  0  0  0
  4  5  1  0  0  0
 16 17  1  0  0  0
 29 30  1  0  0  0
M  END
> <minimizedAffinity>
-10.37622

$$$$
1MRX_K57_B_1001


 41 43  0  0  0  0  0  0  0  0999 V2000
   16.0105   22.6369   18.1238 C   0  0  0  0  0  0  0  0  0  0  0  0
   14.8763   20.4042   18.2010 C   0  0  0  0  0  0  0  0  0  0  0  0
   15.4298   20.0270   17.1597 O   0  0  0  0  0  0  0  0  0  0  0  0
   15.1195   21.6377   18.7118 N   0  0  0  0  0  0  0  0  0  0  0  0
   14.6581   21.8798   19.5471 H   0  0  0  0  0  0  0  0  0  0  0  0
   12.1289   17.8652   20.4039 C   0  0  0  0  0  0  0  0  0  0  0  0
   13.4282   18.0971   20.8912 C   0  0  0  0  0  0  0  0  0  0  0  0
   14.3102   18.9249   20.1612 C   0  0  0  0  0  0  0  0  0  0  0  0
   13.9021   19.5367   18.9280 C   0  0  0  0  0  0  0  0  0  0  0  0
   12.5698   19.2978   18.4263 C   0  0  0  0  0  0  0  0  0  0  0  0
   11.7049   18.4570   19.1916 C   0  0  0  0  0  0  0  0  0  0  0  0
   12.0366   19.8990   17.1285 C   0  0  0  0  0  0  0  0  0  0  0  0
   10.4270   18.2073   18.7478 O   0  0  0  0  0  0  0  0  0  0  0  0
    9.8569   17.6563   19.2471 H   0  0  0  0  0  0  0  0  0  0  0  0
   16.9040   23.3845   19.1418 C   0  0  0  0  0  0  0  0  0  0  0  0
   16.9022   22.9804   20.4697 O   0  0  0  0  0  0  0  0  0  0  0  0
   16.1327   23.3599   20.9222 H   0  0  0  0  0  0  0  0  0  0  0  0
   17.7191   24.6312   18.7104 C   0  0  0  0  0  0  0  0  0  0  0  0
   17.0652   25.4556   18.0722 O   0  0  0  0  0  0  0  0  0  0  0  0
   19.0934   24.6999   18.8990 N   0  0  0  0  0  0  0  0  0  0  0  0
   19.8229   25.8252   18.2611 C   0  0  0  0  0  0  0  0  0  0  0  0
   21.1565   26.0278   19.0378 C   0  0  0  0  0  0  0  0  0  0  0  0
   19.9776   23.7837   19.6588 C   0  0  0  0  0  0  0  0  0  0  0  0
   20.9276   26.8482   20.3205 C   0  0  0  0  0  0  0  0  0  0  0  0
   22.2898   26.6797   18.2039 C   0  0  0  0  0  0  0  0  0  0  0  0
   21.6771   24.3783   19.5322 S   0  0  0  0  0  0  0  0  0  0  0  0
   19.9525   25.4227   16.7525 C   0  0  0  0  0  0  0  0  0  0  0  0
   20.3338   24.2971   16.4343 O   0  0  0  0  0  0  0  0  0  0  0  0
   19.6019   26.4170   15.8850 N   0  0  0  0  0  0  0  0  0  0  0  0
   19.3176   27.2664   16.2938 H   0  0  0  0  0  0  0  0  0  0  0  0
   19.5968   26.3747   14.4042 C   0  0  0  0  0  0  0  0  0  0  0  0
   19.9765   27.7961   13.9591 C   0  0  0  0  0  0  0  0  0  0  0  0
   18.1923   26.0160   13.8754 C   0  0  0  0  0  0  0  0  0  0  0  0
   20.6437   25.3785   13.8490 C   0  0  0  0  0  0  0  0  0  0  0  0
   15.3818   23.8037   17.3211 C   0  0  0  0  0  0  0  0  0  0  0  0
   14.9699   23.3361   15.9409 C   0  0  0  0  0  0  0  0  0  0  0  0
   14.4546   22.4752   13.2853 C   0  0  0  0  0  0  0  0  0  0  0  0
   16.0213   23.2343   14.9960 C   0  0  0  0  0  0  0  0  0  0  0  0
   13.6458   23.0018   15.5467 C   0  0  0  0  0  0  0  0  0  0  0  0
   15.7781   22.8070   13.6667 C   0  0  0  0  0  0  0  0  0  0  0  0
   13.3905   22.5705   14.2180 C   0  0  0  0  0  0  0  0  0  0  0  0
  6  7  2  0  0  0
  6 11  1  0  0  0
  7  8  1  0  0  0
  8  9  2  0  0  0
  9 10  1  0  0  0
  9  2  1  0  0  0
 10 11  2  0  0  0
 10 12  1  0  0  0
 11 13  1  0  0  0
  2  4  1  0  0  0
  2  3  2  0  0  0
  4  1  1  0  0  0
  1 35  1  0  0  0
  1 15  1  0  0  0
 35 36  1  0  0  0
 15 18  1  0  0  0
 15 16  1  0  0  0
 18 20  1  0  0  0
 18 19  2  0  0  0
 20 21  1  0  0  0
 20 23  1  0  0  0
 21 22  1  0  0  0
 21 27  1  0  0  0
 22 26  1  0  0  0
 22 24  1  0  0  0
 22 25  1  0  0  0
 26 23  1  0  0  0
 36 38  2  0  0  0
 36 39  1  0  0  0
 38 40  1  0  0  0
 40 37  2  0  0  0
 37 41  1  0  0  0
 41 39  2  0  0  0
 27 29  1  0  0  0
 27 28  2  0  0  0
 29 31  1  0  0  0
 31 32  1  0  0  0
 31 33  1  0  0  0
 31 34  1  0  0  0
 13 14  1  0  0  0
  4  5  1  0  0  0
 16 17  1  0  0  0
 29 30  1  0  0  0
M  END
> <minimizedAffinity>
-10.31232

$$$$
1MRX_K57_B_1001


 41 43  0  0  0  0  0  0  0  0999 V2000
   15.3958   22.4870   16.8102 C   0  0  0  0  0  0  0  0  0  0  0  0
   14.8009   20.3288   17.9351 C   0  0  0  0  0  0  0  0  0  0  0  0
   15.4826   19.6655   17.1423 O   0  0  0  0  0  0  0  0  0  0  0  0
   14.7266   21.6796   17.8291 N   0  0  0  0  0  0  0  0  0  0  0  0
   14.1767   22.1552   18.4930 H   0  0  0  0  0  0  0  0  0  0  0  0
   12.6073   18.4522   21.1776 C   0  0  0  0  0  0  0  0  0  0  0  0
   13.9337   18.8796   21.3710 C   0  0  0  0  0  0  0  0  0  0  0  0
   14.6337   19.4873   20.3047 C   0  0  0  0  0  0  0  0  0  0  0  0
   14.0130   19.6782   19.0241 C   0  0  0  0  0  0  0  0  0  0  0  0
   12.6528   19.2382   18.8244 C   0  0  0  0  0  0  0  0  0  0  0  0
   11.9754   18.6296   19.9250 C   0  0  0  0  0  0  0  0  0  0  0  0
   11.9008   19.3938   17.5051 C   0  0  0  0  0  0  0  0  0  0  0  0
   10.6775   18.1993   19.7747 O   0  0  0  0  0  0  0  0  0  0  0  0
   10.2301   17.7997   20.4945 H   0  0  0  0  0  0  0  0  0  0  0  0
   16.2451   23.6546   17.3662 C   0  0  0  0  0  0  0  0  0  0  0  0
   15.6372   24.6147   18.1633 O   0  0  0  0  0  0  0  0  0  0  0  0
   15.1830   25.2615   17.6009 H   0  0  0  0  0  0  0  0  0  0  0  0
   17.7343   23.8096   16.9625 C   0  0  0  0  0  0  0  0  0  0  0  0
   18.4935   23.0509   17.5645 O   0  0  0  0  0  0  0  0  0  0  0  0
   18.1549   24.8314   16.1210 N   0  0  0  0  0  0  0  0  0  0  0  0
   19.6169   25.0397   15.9646 C   0  0  0  0  0  0  0  0  0  0  0  0
   19.8489   25.7866   14.6187 C   0  0  0  0  0  0  0  0  0  0  0  0
   17.3390   25.7871   15.3340 C   0  0  0  0  0  0  0  0  0  0  0  0
   19.8192   24.8058   13.4323 C   0  0  0  0  0  0  0  0  0  0  0  0
   21.1556   26.6200   14.5666 C   0  0  0  0  0  0  0  0  0  0  0  0
   18.4459   26.8985   14.4412 S   0  0  0  0  0  0  0  0  0  0  0  0
   20.0614   25.7950   17.2632 C   0  0  0  0  0  0  0  0  0  0  0  0
   19.6316   26.9207   17.5121 O   0  0  0  0  0  0  0  0  0  0  0  0
   20.9288   25.0858   18.0434 N   0  0  0  0  0  0  0  0  0  0  0  0
   21.1822   24.1955   17.7081 H   0  0  0  0  0  0  0  0  0  0  0  0
   21.5354   25.4915   19.3327 C   0  0  0  0  0  0  0  0  0  0  0  0
   22.5255   24.3691   19.6830 C   0  0  0  0  0  0  0  0  0  0  0  0
   20.4565   25.6021   20.4303 C   0  0  0  0  0  0  0  0  0  0  0  0
   22.3111   26.8260   19.2140 C   0  0  0  0  0  0  0  0  0  0  0  0
   14.5252   23.1951   15.7418 C   0  0  0  0  0  0  0  0  0  0  0  0
   14.5093   22.3953   14.4559 C   0  0  0  0  0  0  0  0  0  0  0  0
   14.3049   20.7334   12.1635 C   0  0  0  0  0  0  0  0  0  0  0  0
   13.6846   21.2428   14.4685 C   0  0  0  0  0  0  0  0  0  0  0  0
   15.2388   22.7156   13.2788 C   0  0  0  0  0  0  0  0  0  0  0  0
   13.5741   20.4037   13.3316 C   0  0  0  0  0  0  0  0  0  0  0  0
   15.1344   21.8833   12.1330 C   0  0  0  0  0  0  0  0  0  0  0  0
  6  7  2  0  0  0
  6 11  1  0  0  0
  7  8  1  0  0  0
  8  9  2  0  0  0
  9 10  1  0  0  0
  9  2  1  0  0  0
 10 11  2  0  0  0
 10 12  1  0  0  0
 11 13  1  0  0  0
  2  4  1  0  0  0
  2  3  2  0  0  0
  4  1  1  0  0  0
  1 35  1  0  0  0
  1 15  1  0  0  0
 35 36  1  0  0  0
 15 18  1  0  0  0
 15 16  1  0  0  0
 18 20  1  0  0  0
 18 19  2  0  0  0
 20 21  1  0  0  0
 20 23  1  0  0  0
 21 22  1  0  0  0
 21 27  1  0  0  0
 22 26  1  0  0  0
 22 24  1  0  0  0
 22 25  1  0  0  0
 26 23  1  0  0  0
 36 38  2  0  0  0
 36 39  1  0  0  0
 38 40  1  0  0  0
 40 37  2  0  0  0
 37 41  1  0  0  0
 41 39  2  0  0  0
 27 29  1  0  0  0
 27 28  2  0  0  0
 29 31  1  0  0  0
 31 32  1  0  0  0
 31 33  1  0  0  0
 31 34  1  0  0  0
 13 14  1  0  0  0
  4  5  1  0  0  0
 16 17  1  0  0  0
 29 30  1  0  0  0
M  END
> <minimizedAffinity>
-10.14207

$$$$
1MRX_K57_B_1001


 41 43  0  0  0  0  0  0  0  0999 V2000
   18.4851   23.8624   18.2671 C   0  0  0  0  0  0  0  0  0  0  0  0
   20.4681   25.0381   19.2483 C   0  0  0  0  0  0  0  0  0  0  0  0
   19.8698   25.2792   20.3052 O   0  0  0  0  0  0  0  0  0  0  0  0
   19.8597   24.3602   18.2424 N   0  0  0  0  0  0  0  0  0  0  0  0
   20.3874   24.1895   17.4289 H   0  0  0  0  0  0  0  0  0  0  0  0
   24.5837   26.2881   18.6598 C   0  0  0  0  0  0  0  0  0  0  0  0
   24.2825   25.2179   19.5220 C   0  0  0  0  0  0  0  0  0  0  0  0
   22.9376   24.8248   19.7033 C   0  0  0  0  0  0  0  0  0  0  0  0
   21.8700   25.4992   19.0200 C   0  0  0  0  0  0  0  0  0  0  0  0
   22.1780   26.5985   18.1365 C   0  0  0  0  0  0  0  0  0  0  0  0
   23.5488   26.9673   17.9762 C   0  0  0  0  0  0  0  0  0  0  0  0
   21.1201   27.3812   17.3630 C   0  0  0  0  0  0  0  0  0  0  0  0
   23.8828   28.0082   17.1412 O   0  0  0  0  0  0  0  0  0  0  0  0
   24.7809   28.2528   17.0336 H   0  0  0  0  0  0  0  0  0  0  0  0
   18.3508   22.3510   18.5693 C   0  0  0  0  0  0  0  0  0  0  0  0
   19.1477   21.7836   19.5541 O   0  0  0  0  0  0  0  0  0  0  0  0
   20.0267   21.5951   19.1898 H   0  0  0  0  0  0  0  0  0  0  0  0
   17.4100   21.4570   17.7206 C   0  0  0  0  0  0  0  0  0  0  0  0
   17.8764   21.1445   16.6254 O   0  0  0  0  0  0  0  0  0  0  0  0
   16.1063   21.1921   18.1198 N   0  0  0  0  0  0  0  0  0  0  0  0
   15.2101   20.5161   17.1477 C   0  0  0  0  0  0  0  0  0  0  0  0
   14.0664   19.8320   17.9523 C   0  0  0  0  0  0  0  0  0  0  0  0
   15.4452   21.5004   19.4106 C   0  0  0  0  0  0  0  0  0  0  0  0
   14.5297   18.4814   18.5282 C   0  0  0  0  0  0  0  0  0  0  0  0
   12.7542   19.6285   17.1515 C   0  0  0  0  0  0  0  0  0  0  0  0
   13.7344   20.9298   19.3383 S   0  0  0  0  0  0  0  0  0  0  0  0
   14.7774   21.6388   16.1444 C   0  0  0  0  0  0  0  0  0  0  0  0
   14.3301   22.7087   16.5553 O   0  0  0  0  0  0  0  0  0  0  0  0
   14.9562   21.3043   14.8328 N   0  0  0  0  0  0  0  0  0  0  0  0
   15.3242   20.4072   14.6622 H   0  0  0  0  0  0  0  0  0  0  0  0
   14.6644   22.1256   13.6348 C   0  0  0  0  0  0  0  0  0  0  0  0
   14.8626   21.1795   12.4396 C   0  0  0  0  0  0  0  0  0  0  0  0
   15.6474   23.3108   13.5355 C   0  0  0  0  0  0  0  0  0  0  0  0
   13.2055   22.6437   13.6283 C   0  0  0  0  0  0  0  0  0  0  0  0
   17.6214   24.0190   16.9902 C   0  0  0  0  0  0  0  0  0  0  0  0
   18.4405   24.6188   15.8665 C   0  0  0  0  0  0  0  0  0  0  0  0
   19.7756   25.9142   13.7222 C   0  0  0  0  0  0  0  0  0  0  0  0
   17.8235   25.6875   15.1696 C   0  0  0  0  0  0  0  0  0  0  0  0
   19.7420   24.1969   15.4814 C   0  0  0  0  0  0  0  0  0  0  0  0
   18.4781   26.3423   14.0965 C   0  0  0  0  0  0  0  0  0  0  0  0
   20.4084   24.8469   14.4091 C   0  0  0  0  0  0  0  0  0  0  0  0
  6  7  2  0  0  0
  6 11  1  0  0  0
  7  8  1  0  0  0
  8  9  2  0  0  0
  9 10  1  0  0  0
  9  2  1  0  0  0
 10 11  2  0  0  0
 10 12  1  0  0  0
 11 13  1  0  0  0
  2  4  1  0  0  0
  2  3  2  0  0  0
  4  1  1  0  0  0
  1 35  1  0  0  0
  1 15  1  0  0  0
 35 36  1  0  0  0
 15 18  1  0  0  0
 15 16  1  0  0  0
 18 20  1  0  0  0
 18 19  2  0  0  0
 20 21  1  0  0  0
 20 23  1  0  0  0
 21 22  1  0  0  0
 21 27  1  0  0  0
 22 26  1  0  0  0
 22 24  1  0  0  0
 22 25  1  0  0  0
 26 23  1  0  0  0
 36 38  2  0  0  0
 36 39  1  0  0  0
 38 40  1  0  0  0
 40 37  2  0  0  0
 37 41  1  0  0  0
 41 39  2  0  0  0
 27 29  1  0  0  0
 27 28  2  0  0  0
 29 31  1  0  0  0
 31 32  1  0  0  0
 31 33  1  0  0  0
 31 34  1  0  0  0
 13 14  1  0  0  0
  4  5  1  0  0  0
 16 17  1  0  0  0
 29 30  1  0  0  0
M  END
> <minimizedAffinity>
-10.02875

$$$$
1MRX_K57_B_1001


 41 43  0  0  0  0  0  0  0  0999 V2000
   15.7663   21.7860   19.7363 C   0  0  0  0  0  0  0  0  0  0  0  0
   14.6925   22.2494   17.5206 C   0  0  0  0  0  0  0  0  0  0  0  0
   14.0955   23.2425   17.9571 O   0  0  0  0  0  0  0  0  0  0  0  0
   15.5082   21.5188   18.3221 N   0  0  0  0  0  0  0  0  0  0  0  0
   15.9638   20.7453   17.9180 H   0  0  0  0  0  0  0  0  0  0  0  0
   14.3122   20.9935   13.3823 C   0  0  0  0  0  0  0  0  0  0  0  0
   15.3478   21.8641   13.7684 C   0  0  0  0  0  0  0  0  0  0  0  0
   15.4564   22.2641   15.1191 C   0  0  0  0  0  0  0  0  0  0  0  0
   14.5267   21.7952   16.1077 C   0  0  0  0  0  0  0  0  0  0  0  0
   13.4628   20.9034   15.7120 C   0  0  0  0  0  0  0  0  0  0  0  0
   13.3848   20.5188   14.3385 C   0  0  0  0  0  0  0  0  0  0  0  0
   12.4236   20.3471   16.6820 C   0  0  0  0  0  0  0  0  0  0  0  0
   12.3865   19.6686   13.9229 O   0  0  0  0  0  0  0  0  0  0  0  0
   12.3323   19.4142   13.0227 H   0  0  0  0  0  0  0  0  0  0  0  0
   17.1661   22.3719   20.0380 C   0  0  0  0  0  0  0  0  0  0  0  0
   18.0032   21.7053   20.9221 O   0  0  0  0  0  0  0  0  0  0  0  0
   17.7543   21.9275   21.8330 H   0  0  0  0  0  0  0  0  0  0  0  0
   17.5965   23.7361   19.4394 C   0  0  0  0  0  0  0  0  0  0  0  0
   16.6704   24.3730   18.9384 O   0  0  0  0  0  0  0  0  0  0  0  0
   18.9345   24.0972   19.3464 N   0  0  0  0  0  0  0  0  0  0  0  0
   19.2686   25.3143   18.5638 C   0  0  0  0  0  0  0  0  0  0  0  0
   20.6537   25.8286   19.0538 C   0  0  0  0  0  0  0  0  0  0  0  0
   20.1244   23.4246   19.9209 C   0  0  0  0  0  0  0  0  0  0  0  0
   20.5099   26.6495   20.3485 C   0  0  0  0  0  0  0  0  0  0  0  0
   21.4371   26.6566   18.0024 C   0  0  0  0  0  0  0  0  0  0  0  0
   21.6000   24.3505   19.4486 S   0  0  0  0  0  0  0  0  0  0  0  0
   19.1842   24.8695   17.0640 C   0  0  0  0  0  0  0  0  0  0  0  0
   19.1986   23.6770   16.7618 O   0  0  0  0  0  0  0  0  0  0  0  0
   19.0898   25.9102   16.1852 N   0  0  0  0  0  0  0  0  0  0  0  0
   19.0923   26.8115   16.5814 H   0  0  0  0  0  0  0  0  0  0  0  0
   18.9843   25.8495   14.7088 C   0  0  0  0  0  0  0  0  0  0  0  0
   19.0446   27.3123   14.2401 C   0  0  0  0  0  0  0  0  0  0  0  0
   17.6421   25.2170   14.2852 C   0  0  0  0  0  0  0  0  0  0  0  0
   20.1622   25.0704   14.0747 C   0  0  0  0  0  0  0  0  0  0  0  0
   15.6829   20.6055   20.7365 C   0  0  0  0  0  0  0  0  0  0  0  0
   14.6837   19.5737   20.2565 C   0  0  0  0  0  0  0  0  0  0  0  0
   12.6711   17.6901   19.5778 C   0  0  0  0  0  0  0  0  0  0  0  0
   13.5875   19.3412   21.1243 C   0  0  0  0  0  0  0  0  0  0  0  0
   14.7691   18.8517   19.0351 C   0  0  0  0  0  0  0  0  0  0  0  0
   12.5763   18.4030   20.7985 C   0  0  0  0  0  0  0  0  0  0  0  0
   13.7607   17.9106   18.6973 C   0  0  0  0  0  0  0  0  0  0  0  0
  6  7  2  0  0  0
  6 11  1  0  0  0
  7  8  1  0  0  0
  8  9  2  0  0  0
  9 10  1  0  0  0
  9  2  1  0  0  0
 10 11  2  0  0  0
 10 12  1  0  0  0
 11 13  1  0  0  0
  2  4  1  0  0  0
  2  3  2  0  0  0
  4  1  1  0  0  0
  1 35  1  0  0  0
  1 15  1  0  0  0
 35 36  1  0  0  0
 15 18  1  0  0  0
 15 16  1  0  0  0
 18 20  1  0  0  0
 18 19  2  0  0  0
 20 21  1  0  0  0
 20 23  1  0  0  0
 21 22  1  0  0  0
 21 27  1  0  0  0
 22 26  1  0  0  0
 22 24  1  0  0  0
 22 25  1  0  0  0
 26 23  1  0  0  0
 36 38  2  0  0  0
 36 39  1  0  0  0
 38 40  1  0  0  0
 40 37  2  0  0  0
 37 41  1  0  0  0
 41 39  2  0  0  0
 27 29  1  0  0  0
 27 28  2  0  0  0
 29 31  1  0  0  0
 31 32  1  0  0  0
 31 33  1  0  0  0
 31 34  1  0  0  0
 13 14  1  0  0  0
  4  5  1  0  0  0
 16 17  1  0  0  0
 29 30  1  0  0  0
M  END
> <minimizedAffinity>
-9.75818

$$$$
1MRX_K57_B_1001


 41 43  0  0  0  0  0  0  0  0999 V2000
   15.8682   23.2726   18.0812 C   0  0  0  0  0  0  0  0  0  0  0  0
   14.6485   22.9617   15.9149 C   0  0  0  0  0  0  0  0  0  0  0  0
   13.8057   23.8215   16.2041 O   0  0  0  0  0  0  0  0  0  0  0  0
   15.6592   22.6617   16.7693 N   0  0  0  0  0  0  0  0  0  0  0  0
   16.3049   21.9762   16.4823 H   0  0  0  0  0  0  0  0  0  0  0  0
   14.5315   20.8299   12.1348 C   0  0  0  0  0  0  0  0  0  0  0  0
   15.2925   22.0063   12.2639 C   0  0  0  0  0  0  0  0  0  0  0  0
   15.3185   22.6885   13.5009 C   0  0  0  0  0  0  0  0  0  0  0  0
   14.5811   22.2002   14.6320 C   0  0  0  0  0  0  0  0  0  0  0  0
   13.7987   20.9944   14.4998 C   0  0  0  0  0  0  0  0  0  0  0  0
   13.7972   20.3302   13.2351 C   0  0  0  0  0  0  0  0  0  0  0  0
   12.9802   20.3906   15.6381 C   0  0  0  0  0  0  0  0  0  0  0  0
   13.0657   19.1770   13.0702 O   0  0  0  0  0  0  0  0  0  0  0  0
   13.0624   18.7386   12.2420 H   0  0  0  0  0  0  0  0  0  0  0  0
   16.7503   24.5436   18.0687 C   0  0  0  0  0  0  0  0  0  0  0  0
   16.2166   25.7430   18.5196 O   0  0  0  0  0  0  0  0  0  0  0  0
   15.6882   26.1474   17.8137 H   0  0  0  0  0  0  0  0  0  0  0  0
   18.1807   24.5058   17.4711 C   0  0  0  0  0  0  0  0  0  0  0  0
   18.9564   23.7741   18.0854 O   0  0  0  0  0  0  0  0  0  0  0  0
   18.5589   25.3572   16.4410 N   0  0  0  0  0  0  0  0  0  0  0  0
   19.9987   25.4092   16.0812 C   0  0  0  0  0  0  0  0  0  0  0  0
   20.1045   25.9357   14.6201 C   0  0  0  0  0  0  0  0  0  0  0  0
   17.7169   26.2623   15.6222 C   0  0  0  0  0  0  0  0  0  0  0  0
   19.8491   24.8046   13.6072 C   0  0  0  0  0  0  0  0  0  0  0  0
   21.4492   26.6326   14.2871 C   0  0  0  0  0  0  0  0  0  0  0  0
   18.7733   27.1332   14.4461 S   0  0  0  0  0  0  0  0  0  0  0  0
   20.6630   26.2965   17.1885 C   0  0  0  0  0  0  0  0  0  0  0  0
   20.2699   27.4445   17.3916 O   0  0  0  0  0  0  0  0  0  0  0  0
   21.6689   25.6699   17.8665 N   0  0  0  0  0  0  0  0  0  0  0  0
   21.8693   24.7476   17.5865 H   0  0  0  0  0  0  0  0  0  0  0  0
   22.4958   26.2077   18.9719 C   0  0  0  0  0  0  0  0  0  0  0  0
   23.0255   24.9719   19.7169 C   0  0  0  0  0  0  0  0  0  0  0  0
   21.6382   27.0676   19.9237 C   0  0  0  0  0  0  0  0  0  0  0  0
   23.6975   27.0319   18.4491 C   0  0  0  0  0  0  0  0  0  0  0  0
   16.5343   22.4227   19.1924 C   0  0  0  0  0  0  0  0  0  0  0  0
   15.7027   21.1923   19.4890 C   0  0  0  0  0  0  0  0  0  0  0  0
   14.1792   18.9395   20.3033 C   0  0  0  0  0  0  0  0  0  0  0  0
   15.5327   20.8919   20.8636 C   0  0  0  0  0  0  0  0  0  0  0  0
   15.1008   20.3515   18.5137 C   0  0  0  0  0  0  0  0  0  0  0  0
   14.7756   19.7699   21.2840 C   0  0  0  0  0  0  0  0  0  0  0  0
   14.3385   19.2257   18.9234 C   0  0  0  0  0  0  0  0  0  0  0  0
  6  7  2  0  0  0
  6 11  1  0  0  0
  7  8  1  0  0  0
  8  9  2  0  0  0
  9 10  1  0  0  0
  9  2  1  0  0  0
 10 11  2  0  0  0
 10 12  1  0  0  0
 11 13  1  0  0  0
  2  4  1  0  0  0
  2  3  2  0  0  0
  4  1  1  0  0  0
  1 35  1  0  0  0
  1 15  1  0  0  0
 35 36  1  0  0  0
 15 18  1  0  0  0
 15 16  1  0  0  0
 18 20  1  0  0  0
 18 19  2  0  0  0
 20 21  1  0  0  0
 20 23  1  0  0  0
 21 22  1  0  0  0
 21 27  1  0  0  0
 22 26  1  0  0  0
 22 24  1  0  0  0
 22 25  1  0  0  0
 26 23  1  0  0  0
 36 38  2  0  0  0
 36 39  1  0  0  0
 38 40  1  0  0  0
 40 37  2  0  0  0
 37 41  1  0  0  0
 41 39  2  0  0  0
 27 29  1  0  0  0
 27 28  2  0  0  0
 29 31  1  0  0  0
 31 32  1  0  0  0
 31 33  1  0  0  0
 31 34  1  0  0  0
 13 14  1  0  0  0
  4  5  1  0  0  0
 16 17  1  0  0  0
 29 30  1  0  0  0
M  END
> <minimizedAffinity>
-9.68110

$$$$
1MRX_K57_B_1001


 41 43  0  0  0  0  0  0  0  0999 V2000
   17.1100   24.0399   16.9850 C   0  0  0  0  0  0  0  0  0  0  0  0
   19.4860   24.5632   16.3870 C   0  0  0  0  0  0  0  0  0  0  0  0
   19.8397   23.3862   16.5384 O   0  0  0  0  0  0  0  0  0  0  0  0
   18.1948   24.9330   16.5805 N   0  0  0  0  0  0  0  0  0  0  0  0
   17.9699   25.8806   16.4368 H   0  0  0  0  0  0  0  0  0  0  0  0
   22.2758   27.6613   15.1762 C   0  0  0  0  0  0  0  0  0  0  0  0
   21.4236   27.0632   14.2299 C   0  0  0  0  0  0  0  0  0  0  0  0
   20.5226   26.0554   14.6406 C   0  0  0  0  0  0  0  0  0  0  0  0
   20.4601   25.6307   16.0107 C   0  0  0  0  0  0  0  0  0  0  0  0
   21.3354   26.2426   16.9819 C   0  0  0  0  0  0  0  0  0  0  0  0
   22.2321   27.2593   16.5312 C   0  0  0  0  0  0  0  0  0  0  0  0
   21.3492   25.8657   18.4611 C   0  0  0  0  0  0  0  0  0  0  0  0
   23.0804   27.8678   17.4270 O   0  0  0  0  0  0  0  0  0  0  0  0
   23.6699   28.5350   17.1349 H   0  0  0  0  0  0  0  0  0  0  0  0
   15.8544   24.0990   16.0829 C   0  0  0  0  0  0  0  0  0  0  0  0
   15.8288   24.9849   15.0147 O   0  0  0  0  0  0  0  0  0  0  0  0
   15.5955   25.8704   15.3345 H   0  0  0  0  0  0  0  0  0  0  0  0
   14.5997   23.2523   16.4201 C   0  0  0  0  0  0  0  0  0  0  0  0
   14.1358   23.4753   17.5378 O   0  0  0  0  0  0  0  0  0  0  0  0
   14.1682   22.2308   15.5837 N   0  0  0  0  0  0  0  0  0  0  0  0
   13.0990   21.3313   16.0868 C   0  0  0  0  0  0  0  0  0  0  0  0
   12.4046   20.6829   14.8537 C   0  0  0  0  0  0  0  0  0  0  0  0
   14.6346   21.8818   14.2202 C   0  0  0  0  0  0  0  0  0  0  0  0
   11.3677   21.6405   14.2388 C   0  0  0  0  0  0  0  0  0  0  0  0
   11.7352   19.3143   15.1429 C   0  0  0  0  0  0  0  0  0  0  0  0
   13.7112   20.4433   13.6406 S   0  0  0  0  0  0  0  0  0  0  0  0
   13.8224   20.3506   17.0714 C   0  0  0  0  0  0  0  0  0  0  0  0
   15.0109   20.0719   16.9184 O   0  0  0  0  0  0  0  0  0  0  0  0
   13.0178   19.8776   18.0679 N   0  0  0  0  0  0  0  0  0  0  0  0
   12.0851   20.1925   18.0560 H   0  0  0  0  0  0  0  0  0  0  0  0
   13.3761   18.9486   19.1649 C   0  0  0  0  0  0  0  0  0  0  0  0
   12.0455   18.6080   19.8552 C   0  0  0  0  0  0  0  0  0  0  0  0
   14.3283   19.6330   20.1678 C   0  0  0  0  0  0  0  0  0  0  0  0
   14.0144   17.6423   18.6332 C   0  0  0  0  0  0  0  0  0  0  0  0
   16.5041   24.2104   18.4009 C   0  0  0  0  0  0  0  0  0  0  0  0
   17.4626   23.6934   19.4533 C   0  0  0  0  0  0  0  0  0  0  0  0
   19.3252   22.9780   21.4726 C   0  0  0  0  0  0  0  0  0  0  0  0
   18.2245   24.6854   20.1197 C   0  0  0  0  0  0  0  0  0  0  0  0
   17.6389   22.3277   19.8056 C   0  0  0  0  0  0  0  0  0  0  0  0
   19.1587   24.3422   21.1289 C   0  0  0  0  0  0  0  0  0  0  0  0
   18.5706   21.9722   20.8166 C   0  0  0  0  0  0  0  0  0  0  0  0
  6  7  2  0  0  0
  6 11  1  0  0  0
  7  8  1  0  0  0
  8  9  2  0  0  0
  9 10  1  0  0  0
  9  2  1  0  0  0
 10 11  2  0  0  0
 10 12  1  0  0  0
 11 13  1  0  0  0
  2  4  1  0  0  0
  2  3  2  0  0  0
  4  1  1  0  0  0
  1 35  1  0  0  0
  1 15  1  0  0  0
 35 36  1  0  0  0
 15 18  1  0  0  0
 15 16  1  0  0  0
 18 20  1  0  0  0
 18 19  2  0  0  0
 20 21  1  0  0  0
 20 23  1  0  0  0
 21 22  1  0  0  0
 21 27  1  0  0  0
 22 26  1  0  0  0
 22 24  1  0  0  0
 22 25  1  0  0  0
 26 23  1  0  0  0
 36 38  2  0  0  0
 36 39  1  0  0  0
 38 40  1  0  0  0
 40 37  2  0  0  0
 37 41  1  0  0  0
 41 39  2  0  0  0
 27 29  1  0  0  0
 27 28  2  0  0  0
 29 31  1  0  0  0
 31 32  1  0  0  0
 31 33  1  0  0  0
 31 34  1  0  0  0
 13 14  1  0  0  0
  4  5  1  0  0  0
 16 17  1  0  0  0
 29 30  1  0  0  0
M  END
> <minimizedAffinity>
-9.57729

$$$$
1MRX_K57_B_1001


 41 43  0  0  0  0  0  0  0  0999 V2000
   15.8099   23.7758   14.2894 C   0  0  0  0  0  0  0  0  0  0  0  0
   17.4968   25.5130   14.9323 C   0  0  0  0  0  0  0  0  0  0  0  0
   16.7106   26.0643   15.7141 O   0  0  0  0  0  0  0  0  0  0  0  0
   17.1242   24.4136   14.2295 N   0  0  0  0  0  0  0  0  0  0  0  0
   17.7941   24.0123   13.6299 H   0  0  0  0  0  0  0  0  0  0  0  0
   21.4553   27.1502   14.2272 C   0  0  0  0  0  0  0  0  0  0  0  0
   20.3102   27.8596   13.8210 C   0  0  0  0  0  0  0  0  0  0  0  0
   19.0294   27.3118   14.0570 C   0  0  0  0  0  0  0  0  0  0  0  0
   18.8754   26.0409   14.7071 C   0  0  0  0  0  0  0  0  0  0  0  0
   20.0498   25.3115   15.1224 C   0  0  0  0  0  0  0  0  0  0  0  0
   21.3282   25.8966   14.8691 C   0  0  0  0  0  0  0  0  0  0  0  0
   19.9975   23.9551   15.8207 C   0  0  0  0  0  0  0  0  0  0  0  0
   22.4708   25.2334   15.2521 O   0  0  0  0  0  0  0  0  0  0  0  0
   23.3110   25.6142   15.0876 H   0  0  0  0  0  0  0  0  0  0  0  0
   15.3026   23.4746   15.7197 C   0  0  0  0  0  0  0  0  0  0  0  0
   14.1837   24.1437   16.1965 O   0  0  0  0  0  0  0  0  0  0  0  0
   14.4434   25.0229   16.5134 H   0  0  0  0  0  0  0  0  0  0  0  0
   16.0860   22.5113   16.6486 C   0  0  0  0  0  0  0  0  0  0  0  0
   16.0520   21.3355   16.2869 O   0  0  0  0  0  0  0  0  0  0  0  0
   16.6225   22.9433   17.8547 N   0  0  0  0  0  0  0  0  0  0  0  0
   17.1604   21.9137   18.7797 C   0  0  0  0  0  0  0  0  0  0  0  0
   18.1753   22.6130   19.7305 C   0  0  0  0  0  0  0  0  0  0  0  0
   16.7359   24.3237   18.3839 C   0  0  0  0  0  0  0  0  0  0  0  0
   19.5460   22.7768   19.0487 C   0  0  0  0  0  0  0  0  0  0  0  0
   18.3608   21.9073   21.0988 C   0  0  0  0  0  0  0  0  0  0  0  0
   17.5081   24.2595   20.0141 S   0  0  0  0  0  0  0  0  0  0  0  0
   15.8994   21.2772   19.4575 C   0  0  0  0  0  0  0  0  0  0  0  0
   15.3686   21.8176   20.4269 O   0  0  0  0  0  0  0  0  0  0  0  0
   15.4822   20.1190   18.8670 N   0  0  0  0  0  0  0  0  0  0  0  0
   16.0135   19.8107   18.0977 H   0  0  0  0  0  0  0  0  0  0  0  0
   14.3281   19.2692   19.2420 C   0  0  0  0  0  0  0  0  0  0  0  0
   13.1033   19.9525   18.6129 C   0  0  0  0  0  0  0  0  0  0  0  0
   14.1691   19.2142   20.7758 C   0  0  0  0  0  0  0  0  0  0  0  0
   14.4527   17.8363   18.6693 C   0  0  0  0  0  0  0  0  0  0  0  0
   15.6198   22.4110   13.5806 C   0  0  0  0  0  0  0  0  0  0  0  0
   14.1862   21.9411   13.7110 C   0  0  0  0  0  0  0  0  0  0  0  0
   11.5940   20.8117   13.9643 C   0  0  0  0  0  0  0  0  0  0  0  0
   14.0121   20.5362   13.7797 C   0  0  0  0  0  0  0  0  0  0  0  0
   13.0453   22.7869   13.7701 C   0  0  0  0  0  0  0  0  0  0  0  0
   12.7237   19.9590   13.9051 C   0  0  0  0  0  0  0  0  0  0  0  0
   11.7497   22.2198   13.8977 C   0  0  0  0  0  0  0  0  0  0  0  0
  6  7  2  0  0  0
  6 11  1  0  0  0
  7  8  1  0  0  0
  8  9  2  0  0  0
  9 10  1  0  0  0
  9  2  1  0  0  0
 10 11  2  0  0  0
 10 12  1  0  0  0
 11 13  1  0  0  0
  2  4  1  0  0  0
  2  3  2  0  0  0
  4  1  1  0  0  0
  1 35  1  0  0  0
  1 15  1  0  0  0
 35 36  1  0  0  0
 15 18  1  0  0  0
 15 16  1  0  0  0
 18 20  1  0  0  0
 18 19  2  0  0  0
 20 21  1  0  0  0
 20 23  1  0  0  0
 21 22  1  0  0  0
 21 27  1  0  0  0
 22 26  1  0  0  0
 22 24  1  0  0  0
 22 25  1  0  0  0
 26 23  1  0  0  0
 36 38  2  0  0  0
 36 39  1  0  0  0
 38 40  1  0  0  0
 40 37  2  0  0  0
 37 41  1  0  0  0
 41 39  2  0  0  0
 27 29  1  0  0  0
 27 28  2  0  0  0
 29 31  1  0  0  0
 31 32  1  0  0  0
 31 33  1  0  0  0
 31 34  1  0  0  0
 13 14  1  0  0  0
  4  5  1  0  0  0
 16 17  1  0  0  0
 29 30  1  0  0  0
M  END
> <minimizedAffinity>
-9.49680

$$$$
