1MRX_K57_B_1001
  RCSB PDB12061703193D
Coordinates from PDB:1MRX:B:1001 Model:1 without hydrogens
 37 39  0  0  0  0            999 V2000
   10.8540   17.8030   18.9150   C 0  0  0  0  0  0  0  0  0  0  0  0
   10.8460   18.4860   17.6850   C 0  0  0  0  0  0  0  0  0  0  0  0
   11.9030   19.3690   17.3700   C 0  0  0  0  0  0  0  0  0  0  0  0
   12.9890   19.5810   18.2850   C 0  0  0  0  0  0  0  0  0  0  0  0
   12.9970   18.8820   19.5480   C 0  0  0  0  0  0  0  0  0  0  0  0
   11.9130   17.9960   19.8320   C 0  0  0  0  0  0  0  0  0  0  0  0
   14.1020   19.0350   20.5900   C 0  0  0  0  0  0  0  0  0  0  0  0
   14.0800   20.5240   17.8970   C 0  0  0  0  0  0  0  0  0  0  0  0
   11.8860   17.3100   21.0240   O 0  0  0  0  0  0  0  0  0  0  0  0
   15.2680   20.1750   17.8920   O 0  0  0  0  0  0  0  0  0  0  0  0
   16.1510   24.7410   18.2180   C 0  0  0  0  0  0  0  0  0  0  0  0
   13.7210   21.7790   17.5260   N 0  0  0  0  0  0  0  0  0  0  0  0
   16.1730   25.8630   17.7130   O 0  0  0  0  0  0  0  0  0  0  0  0
   14.7910   24.0120   18.0640   C 0  0  0  0  0  0  0  0  0  0  0  0
   14.1540   22.5370   14.6290   C 0  0  0  0  0  0  0  0  0  0  0  0
   14.3450   23.5460   15.7420   C 0  0  0  0  0  0  0  0  0  0  0  0
   14.0490   20.6920   12.4740   C 0  0  0  0  0  0  0  0  0  0  0  0
   14.6400   22.8260   17.0820   C 0  0  0  0  0  0  0  0  0  0  0  0
   13.6730   24.4750   18.7440   O 0  0  0  0  0  0  0  0  0  0  0  0
   15.2790   22.3390   13.7900   C 0  0  0  0  0  0  0  0  0  0  0  0
   12.9640   21.8000   14.3820   C 0  0  0  0  0  0  0  0  0  0  0  0
   15.2400   21.4220   12.7100   C 0  0  0  0  0  0  0  0  0  0  0  0
   12.9140   20.8770   13.3040   C 0  0  0  0  0  0  0  0  0  0  0  0
   19.0320   24.6000   17.1560   C 0  0  0  0  0  0  0  0  0  0  0  0
   17.2660   24.0940   18.7350   N 0  0  0  0  0  0  0  0  0  0  0  0
   18.8890   23.5170   16.5900   O 0  0  0  0  0  0  0  0  0  0  0  0
   18.5740   24.7910   18.6420   C 0  0  0  0  0  0  0  0  0  0  0  0
   19.5090   24.1940   19.7340   C 0  0  0  0  0  0  0  0  0  0  0  0
   17.3560   22.7620   19.3800   C 0  0  0  0  0  0  0  0  0  0  0  0
   19.2230   24.8250   21.1090   C 0  0  0  0  0  0  0  0  0  0  0  0
   21.0220   24.3140   19.4160   C 0  0  0  0  0  0  0  0  0  0  0  0
   19.0750   22.4510   19.8340   S 0  0  0  0  0  0  0  0  0  0  0  0
   19.5710   25.7230   16.5970   N 0  0  0  0  0  0  0  0  0  0  0  0
   20.0920   25.8960   15.2210   C 0  0  0  0  0  0  0  0  0  0  0  0
   20.5710   27.3550   15.1520   C 0  0  0  0  0  0  0  0  0  0  0  0
   18.9750   25.6600   14.1830   C 0  0  0  0  0  0  0  0  0  0  0  0
   21.2910   24.9600   14.9330   C 0  0  0  0  0  0  0  0  0  0  0  0
  1  2  2  0  0  0  0
  1  6  1  0  0  0  0
  2  3  1  0  0  0  0
  3  4  2  0  0  0  0
  4  5  1  0  0  0  0
  4  8  1  0  0  0  0
  5  6  2  0  0  0  0
  5  7  1  0  0  0  0
  6  9  1  0  0  0  0
  8 12  1  0  0  0  0
  8 10  2  0  0  0  0
 12 18  1  0  0  0  0
 18 16  1  0  0  0  0
 18 14  1  0  0  0  0
 16 15  1  0  0  0  0
 14 11  1  0  0  0  0
 14 19  1  0  0  0  0
 11 25  1  0  0  0  0
 11 13  2  0  0  0  0
 25 27  1  0  0  0  0
 25 29  1  0  0  0  0
 27 28  1  0  0  0  0
 27 24  1  0  0  0  0
 28 32  1  0  0  0  0
 28 30  1  0  0  0  0
 28 31  1  0  0  0  0
 32 29  1  0  0  0  0
 15 20  2  0  0  0  0
 15 21  1  0  0  0  0
 20 22  1  0  0  0  0
 22 17  2  0  0  0  0
 17 23  1  0  0  0  0
 23 21  2  0  0  0  0
 24 33  1  0  0  0  0
 24 26  2  0  0  0  0
 33 34  1  0  0  0  0
 34 35  1  0  0  0  0
 34 36  1  0  0  0  0
 34 37  1  0  0  0  0
A    1
C1
A    2
C2
A    3
C3
A    4
C4
A    5
C5
A    6
C6
A    7
C7
A    8
C8
A    9
O33
A   10
O34
A   11
C13
A   12
N9
A   13
O26
A   14
C12
A   15
C19
A   16
C11
A   17
C22
A   18
C10
A   19
O25
A   20
C20
A   21
C24
A   22
C21
A   23
C23
A   24
C29
A   25
N14
A   26
O32
A   27
C15
A   28
C16
A   29
C18
A   30
C27
A   31
C28
A   32
S17
A   33
N30
A   34
C31
A   35
C35
A   36
C67
A   37
C71
M  END
>  <InstanceId>
1MRX_K57_B_1001

>  <ChemCompId>
K57

>  <PdbId>
1MRX

>  <ChainId>
B

>  <ResidueNumber>
1001

>  <InsertionCode>


>  <Model>
1

>  <AltIds>


>  <MissingHeavyAtoms>
0

>  <ObservedFormula>
C28 N3 O5 S

>  <Name>
(4R)-N-tert-butyl-3-{(2S,3S)-2-hydroxy-3-[(3-hydroxy-2-methylbenzoyl)amino]-4-phenylbutanoyl}-5,5-dimethyl-1,3-thiazolidine-4-carboxamide

>  <SystematicName>
(4R)-N-tert-butyl-3-[(3S)-2-hydroxy-3-[(3-hydroxy-2-methyl-phenyl)carbonylamino]-4-phenyl-butanoyl]-5,5-dimethyl-1,3-thiazolidine-4-carboxamide

>  <Synonyms>
KNI-577

>  <Type>
peptide-like

>  <Formula>
C28 H37 N3 O5 S

>  <MolecularWeight>
527.675

>  <ModifiedDate>
2011-06-04

>  <Parent>


>  <OneLetterCode>


>  <SubcomponentList>
PF0 005 00B NTB

>  <AmbiguousFlag>
N

>  <InChI>
InChI=1S/C28H37N3O5S/c1-17-19(13-10-14-21(17)32)24(34)29-20(15-18-11-8-7-9-12-18)22(33)26(36)31-16-37-28(5,6)23(31)25(35)30-27(2,3)4/h7-14,20,22-23,32-33H,15-16H2,1-6H3,(H,29,34)(H,30,35)/t20-,22-,23+/m0/s1

>  <InChIKey>
CGFVYUGIPISJQG-ACIOBRDBSA-N

>  <SMILES>
Cc1c(cccc1O)C(=O)N[C@@H](Cc2ccccc2)C(C(=O)N3CSC([C@H]3C(=O)NC(C)(C)C)(C)C)O

$$$$
