5ULA_5MJ_A_201


 28 30  0  0  0  0  0  0  0  0999 V2000
    9.5965   -8.0681   -3.3197 C   0  0  0  0  0  0  0  0  0  0  0  0
    8.4565   -8.7427   -2.8753 C   0  0  0  0  0  0  0  0  0  0  0  0
    7.5589   -9.2516   -3.8119 C   0  0  0  0  0  0  0  0  0  0  0  0
    9.8279   -7.9817   -4.6620 C   0  0  0  0  0  0  0  0  0  0  0  0
   11.2115   -7.0389   -5.2555 Cl  0  0  0  0  0  0  0  0  0  0  0  0
    8.8868   -8.4087   -5.6635 C   0  0  0  0  0  0  0  0  0  0  0  0
    7.7807   -9.1494   -5.1955 C   0  0  0  0  0  0  0  0  0  0  0  0
    6.7804   -9.7241   -6.1821 C   0  0  0  0  0  0  0  0  0  0  0  0
    6.3016  -10.8475   -5.9541 O   0  0  0  0  0  0  0  0  0  0  0  0
    6.5529   -9.0031   -7.2849 N   0  0  0  0  0  0  0  0  0  0  0  0
    7.0455   -8.1561   -7.3800 H   0  0  0  0  0  0  0  0  0  0  0  0
    5.6762   -9.3510   -8.3108 C   0  0  0  0  0  0  0  0  0  0  0  0
    3.7158   -9.9202  -10.2580 C   0  0  0  0  0  0  0  0  0  0  0  0
    4.3538   -8.9023   -8.2275 C   0  0  0  0  0  0  0  0  0  0  0  0
    3.3809   -9.1689   -9.1774 C   0  0  0  0  0  0  0  0  0  0  0  0
    4.9886  -10.3710  -10.3439 C   0  0  0  0  0  0  0  0  0  0  0  0
    6.0077  -10.1160   -9.3948 C   0  0  0  0  0  0  0  0  0  0  0  0
    2.7875  -10.2232  -11.2495 O   0  0  0  0  0  0  0  0  0  0  0  0
    1.7314   -9.3246  -11.5146 C   0  0  0  0  0  0  0  0  0  0  0  0
   10.5555   -7.5592   -2.4135 N   0  0  0  0  0  0  0  0  0  0  0  0
   11.4389   -7.9936   -2.4215 H   0  0  0  0  0  0  0  0  0  0  0  0
   11.4234   -4.6718    1.2123 O   0  0  0  0  0  0  0  0  0  0  0  0
   10.8716   -5.1029    0.1650 C   0  0  0  0  0  0  0  0  0  0  0  0
    9.6183   -4.5780   -0.4415 C   0  0  0  0  0  0  0  0  0  0  0  0
    9.2597   -5.6077   -1.5287 C   0  0  0  0  0  0  0  0  0  0  0  0
   10.3946   -6.5484   -1.5426 C   0  0  0  0  0  0  0  0  0  0  0  0
   11.2921   -6.3188   -0.5626 C   0  0  0  0  0  0  0  0  0  0  0  0
   12.5228   -7.0631   -0.1844 C   0  0  0  0  0  0  0  0  0  0  0  0
 19 18  1  0  0  0
 18 13  1  0  0  0
 13 16  2  0  0  0
 13 15  1  0  0  0
 16 17  1  0  0  0
 15 14  2  0  0  0
 17 12  2  0  0  0
 14 12  1  0  0  0
 12 10  1  0  0  0
  9  8  2  0  0  0
 10  8  1  0  0  0
  8  7  1  0  0  0
  7  3  2  0  0  0
  7  6  1  0  0  0
  3  2  1  0  0  0
  6  4  2  0  0  0
  2  1  2  0  0  0
  4  1  1  0  0  0
  4  5  1  0  0  0
  1 20  1  0  0  0
 20 26  1  0  0  0
 26 25  1  0  0  0
 26 27  2  0  0  0
 25 24  1  0  0  0
 27 28  1  0  0  0
 27 23  1  0  0  0
 24 23  1  0  0  0
 23 22  2  0  0  0
 20 21  1  0  0  0
 10 11  1  0  0  0
M  END
> <minimizedAffinity>
-7.77824

$$$$
5ULA_5MJ_A_201


 28 30  0  0  0  0  0  0  0  0999 V2000
    9.6127   -7.8633   -3.2073 C   0  0  0  0  0  0  0  0  0  0  0  0
    8.5839   -8.4848   -2.4950 C   0  0  0  0  0  0  0  0  0  0  0  0
    7.7303   -9.3630   -3.1598 C   0  0  0  0  0  0  0  0  0  0  0  0
    9.7884   -8.1835   -4.5223 C   0  0  0  0  0  0  0  0  0  0  0  0
   11.0194   -7.3297   -5.4769 Cl  0  0  0  0  0  0  0  0  0  0  0  0
    8.8791   -9.0102   -5.2712 C   0  0  0  0  0  0  0  0  0  0  0  0
    7.8932   -9.6825   -4.5182 C   0  0  0  0  0  0  0  0  0  0  0  0
    6.9447  -10.6501   -5.2027 C   0  0  0  0  0  0  0  0  0  0  0  0
    6.0826  -10.1916   -5.9707 O   0  0  0  0  0  0  0  0  0  0  0  0
    7.0548  -11.9362   -4.8539 N   0  0  0  0  0  0  0  0  0  0  0  0
    7.7379  -12.1650   -4.1830 H   0  0  0  0  0  0  0  0  0  0  0  0
    6.2829  -12.9796   -5.3613 C   0  0  0  0  0  0  0  0  0  0  0  0
    4.5676  -15.0664   -6.1749 C   0  0  0  0  0  0  0  0  0  0  0  0
    5.1744  -13.4002   -4.6187 C   0  0  0  0  0  0  0  0  0  0  0  0
    4.3199  -14.4195   -5.0068 C   0  0  0  0  0  0  0  0  0  0  0  0
    5.6442  -14.6774   -6.8962 C   0  0  0  0  0  0  0  0  0  0  0  0
    6.5358  -13.6398   -6.5319 C   0  0  0  0  0  0  0  0  0  0  0  0
    3.7478  -16.0975   -6.6237 O   0  0  0  0  0  0  0  0  0  0  0  0
    4.0285  -16.7259   -7.8563 C   0  0  0  0  0  0  0  0  0  0  0  0
   10.5261   -6.9880   -2.5755 N   0  0  0  0  0  0  0  0  0  0  0  0
   11.4484   -6.9948   -2.9200 H   0  0  0  0  0  0  0  0  0  0  0  0
   11.0812   -4.7258    1.5246 O   0  0  0  0  0  0  0  0  0  0  0  0
   10.6002   -4.9952    0.3919 C   0  0  0  0  0  0  0  0  0  0  0  0
    9.3509   -4.4279   -0.1840 C   0  0  0  0  0  0  0  0  0  0  0  0
    9.0945   -5.2717   -1.4462 C   0  0  0  0  0  0  0  0  0  0  0  0
   10.2750   -6.1478   -1.5571 C   0  0  0  0  0  0  0  0  0  0  0  0
   11.1142   -6.0507   -0.5060 C   0  0  0  0  0  0  0  0  0  0  0  0
   12.3624   -6.7962   -0.1929 C   0  0  0  0  0  0  0  0  0  0  0  0
 19 18  1  0  0  0
 18 13  1  0  0  0
 13 16  2  0  0  0
 13 15  1  0  0  0
 16 17  1  0  0  0
 15 14  2  0  0  0
 17 12  2  0  0  0
 14 12  1  0  0  0
 12 10  1  0  0  0
  9  8  2  0  0  0
 10  8  1  0  0  0
  8  7  1  0  0  0
  7  3  2  0  0  0
  7  6  1  0  0  0
  3  2  1  0  0  0
  6  4  2  0  0  0
  2  1  2  0  0  0
  4  1  1  0  0  0
  4  5  1  0  0  0
  1 20  1  0  0  0
 20 26  1  0  0  0
 26 25  1  0  0  0
 26 27  2  0  0  0
 25 24  1  0  0  0
 27 28  1  0  0  0
 27 23  1  0  0  0
 24 23  1  0  0  0
 23 22  2  0  0  0
 20 21  1  0  0  0
 10 11  1  0  0  0
M  END
> <minimizedAffinity>
-7.38640

$$$$
5ULA_5MJ_A_201


 28 30  0  0  0  0  0  0  0  0999 V2000
    6.8024  -10.2615   -7.6413 C   0  0  0  0  0  0  0  0  0  0  0  0
    6.0485   -9.3763   -6.8667 C   0  0  0  0  0  0  0  0  0  0  0  0
    6.5517   -8.9476   -5.6399 C   0  0  0  0  0  0  0  0  0  0  0  0
    8.0394  -10.6322   -7.1996 C   0  0  0  0  0  0  0  0  0  0  0  0
    8.9725  -11.8378   -8.1114 Cl  0  0  0  0  0  0  0  0  0  0  0  0
    8.5594  -10.2902   -5.9020 C   0  0  0  0  0  0  0  0  0  0  0  0
    7.8160   -9.3404   -5.1697 C   0  0  0  0  0  0  0  0  0  0  0  0
    8.3296   -8.8443   -3.8301 C   0  0  0  0  0  0  0  0  0  0  0  0
    7.7593   -9.2314   -2.7966 O   0  0  0  0  0  0  0  0  0  0  0  0
    9.3182   -7.9449   -3.8694 N   0  0  0  0  0  0  0  0  0  0  0  0
    9.6422   -7.6689   -4.7571 H   0  0  0  0  0  0  0  0  0  0  0  0
    9.9279   -7.3658   -2.7582 C   0  0  0  0  0  0  0  0  0  0  0  0
   10.9711   -6.0117   -0.5138 C   0  0  0  0  0  0  0  0  0  0  0  0
    9.3492   -6.2136   -2.2152 C   0  0  0  0  0  0  0  0  0  0  0  0
    9.8462   -5.5403   -1.1109 C   0  0  0  0  0  0  0  0  0  0  0  0
   11.5477   -7.1182   -1.0373 C   0  0  0  0  0  0  0  0  0  0  0  0
   11.0664   -7.8321   -2.1611 C   0  0  0  0  0  0  0  0  0  0  0  0
   11.5214   -5.3842    0.5998 O   0  0  0  0  0  0  0  0  0  0  0  0
   10.7653   -4.4215    1.3029 C   0  0  0  0  0  0  0  0  0  0  0  0
    6.3536  -10.7037   -8.9074 N   0  0  0  0  0  0  0  0  0  0  0  0
    5.8903  -11.5721   -8.9286 H   0  0  0  0  0  0  0  0  0  0  0  0
    5.3535   -7.8646  -12.5372 O   0  0  0  0  0  0  0  0  0  0  0  0
    6.0342   -8.6246  -11.7983 C   0  0  0  0  0  0  0  0  0  0  0  0
    7.3630   -9.2059  -12.1310 C   0  0  0  0  0  0  0  0  0  0  0  0
    7.6162  -10.2412  -11.0198 C   0  0  0  0  0  0  0  0  0  0  0  0
    6.4894  -10.0701  -10.0847 C   0  0  0  0  0  0  0  0  0  0  0  0
    5.5552   -9.2032  -10.5253 C   0  0  0  0  0  0  0  0  0  0  0  0
    4.2507   -8.8034   -9.9333 C   0  0  0  0  0  0  0  0  0  0  0  0
 19 18  1  0  0  0
 18 13  1  0  0  0
 13 16  2  0  0  0
 13 15  1  0  0  0
 16 17  1  0  0  0
 15 14  2  0  0  0
 17 12  2  0  0  0
 14 12  1  0  0  0
 12 10  1  0  0  0
  9  8  2  0  0  0
 10  8  1  0  0  0
  8  7  1  0  0  0
  7  3  2  0  0  0
  7  6  1  0  0  0
  3  2  1  0  0  0
  6  4  2  0  0  0
  2  1  2  0  0  0
  4  1  1  0  0  0
  4  5  1  0  0  0
  1 20  1  0  0  0
 20 26  1  0  0  0
 26 25  1  0  0  0
 26 27  2  0  0  0
 25 24  1  0  0  0
 27 28  1  0  0  0
 27 23  1  0  0  0
 24 23  1  0  0  0
 23 22  2  0  0  0
 20 21  1  0  0  0
 10 11  1  0  0  0
M  END
> <minimizedAffinity>
-7.30593

$$$$
5ULA_5MJ_A_201


 28 30  0  0  0  0  0  0  0  0999 V2000
    8.7877   -8.2979   -3.7297 C   0  0  0  0  0  0  0  0  0  0  0  0
    7.8739   -9.1253   -3.0720 C   0  0  0  0  0  0  0  0  0  0  0  0
    7.4516  -10.2999   -3.6915 C   0  0  0  0  0  0  0  0  0  0  0  0
    9.2869   -8.6975   -4.9354 C   0  0  0  0  0  0  0  0  0  0  0  0
   10.3666   -7.6157   -5.8407 Cl  0  0  0  0  0  0  0  0  0  0  0  0
    8.8125   -9.8510   -5.6533 C   0  0  0  0  0  0  0  0  0  0  0  0
    7.9464  -10.7079   -4.9415 C   0  0  0  0  0  0  0  0  0  0  0  0
    7.4648  -11.9991   -5.5783 C   0  0  0  0  0  0  0  0  0  0  0  0
    6.4664  -12.5605   -5.0975 O   0  0  0  0  0  0  0  0  0  0  0  0
    8.2161  -12.4881   -6.5704 N   0  0  0  0  0  0  0  0  0  0  0  0
    9.0230  -11.9811   -6.8175 H   0  0  0  0  0  0  0  0  0  0  0  0
    7.9518  -13.6558   -7.2836 C   0  0  0  0  0  0  0  0  0  0  0  0
    7.6019  -16.1366   -8.5804 C   0  0  0  0  0  0  0  0  0  0  0  0
    8.6880  -14.8022   -6.9662 C   0  0  0  0  0  0  0  0  0  0  0  0
    8.5247  -16.0286   -7.5900 C   0  0  0  0  0  0  0  0  0  0  0  0
    6.8921  -15.0315   -8.9056 C   0  0  0  0  0  0  0  0  0  0  0  0
    7.0306  -13.7649   -8.2885 C   0  0  0  0  0  0  0  0  0  0  0  0
    7.3864  -17.3395   -9.2462 O   0  0  0  0  0  0  0  0  0  0  0  0
    6.5756  -18.3305   -8.6517 C   0  0  0  0  0  0  0  0  0  0  0  0
    9.2731   -7.1109   -3.1338 N   0  0  0  0  0  0  0  0  0  0  0  0
    8.8821   -6.2672   -3.4572 H   0  0  0  0  0  0  0  0  0  0  0  0
   11.6112   -5.4082    0.5906 O   0  0  0  0  0  0  0  0  0  0  0  0
   11.2847   -6.2203   -0.3155 C   0  0  0  0  0  0  0  0  0  0  0  0
   12.0333   -7.4474   -0.7002 C   0  0  0  0  0  0  0  0  0  0  0  0
   11.3567   -7.9154   -2.0017 C   0  0  0  0  0  0  0  0  0  0  0  0
   10.2089   -7.0066   -2.1749 C   0  0  0  0  0  0  0  0  0  0  0  0
   10.1748   -6.0088   -1.2685 C   0  0  0  0  0  0  0  0  0  0  0  0
    9.2434   -4.8574   -1.1321 C   0  0  0  0  0  0  0  0  0  0  0  0
 19 18  1  0  0  0
 18 13  1  0  0  0
 13 16  2  0  0  0
 13 15  1  0  0  0
 16 17  1  0  0  0
 15 14  2  0  0  0
 17 12  2  0  0  0
 14 12  1  0  0  0
 12 10  1  0  0  0
  9  8  2  0  0  0
 10  8  1  0  0  0
  8  7  1  0  0  0
  7  3  2  0  0  0
  7  6  1  0  0  0
  3  2  1  0  0  0
  6  4  2  0  0  0
  2  1  2  0  0  0
  4  1  1  0  0  0
  4  5  1  0  0  0
  1 20  1  0  0  0
 20 26  1  0  0  0
 26 25  1  0  0  0
 26 27  2  0  0  0
 25 24  1  0  0  0
 27 28  1  0  0  0
 27 23  1  0  0  0
 24 23  1  0  0  0
 23 22  2  0  0  0
 20 21  1  0  0  0
 10 11  1  0  0  0
M  END
> <minimizedAffinity>
-7.18961

$$$$
5ULA_5MJ_A_201


 28 30  0  0  0  0  0  0  0  0999 V2000
    9.6182   -7.9137   -3.6089 C   0  0  0  0  0  0  0  0  0  0  0  0
    8.7267   -8.5006   -2.7073 C   0  0  0  0  0  0  0  0  0  0  0  0
    7.7683   -9.3939   -3.1823 C   0  0  0  0  0  0  0  0  0  0  0  0
    9.5625   -8.2814   -4.9221 C   0  0  0  0  0  0  0  0  0  0  0  0
   10.6118   -7.4727   -6.1055 Cl  0  0  0  0  0  0  0  0  0  0  0  0
    8.5349   -9.1256   -5.4720 C   0  0  0  0  0  0  0  0  0  0  0  0
    7.6925   -9.7622   -4.5360 C   0  0  0  0  0  0  0  0  0  0  0  0
    6.6370  -10.7447   -5.0106 C   0  0  0  0  0  0  0  0  0  0  0  0
    5.7606  -10.3409   -5.7929 O   0  0  0  0  0  0  0  0  0  0  0  0
    6.6805  -11.9683   -4.4733 N   0  0  0  0  0  0  0  0  0  0  0  0
    7.3883  -12.1462   -3.8126 H   0  0  0  0  0  0  0  0  0  0  0  0
    5.8071  -13.0126   -4.7709 C   0  0  0  0  0  0  0  0  0  0  0  0
    3.9052  -15.0603   -5.1561 C   0  0  0  0  0  0  0  0  0  0  0  0
    4.7347  -13.2420   -3.9024 C   0  0  0  0  0  0  0  0  0  0  0  0
    3.7898  -14.2397   -4.0802 C   0  0  0  0  0  0  0  0  0  0  0  0
    4.9456  -14.8568   -5.9969 C   0  0  0  0  0  0  0  0  0  0  0  0
    5.9267  -13.8471   -5.8478 C   0  0  0  0  0  0  0  0  0  0  0  0
    2.9894  -16.0807   -5.3946 O   0  0  0  0  0  0  0  0  0  0  0  0
    2.6179  -16.3889   -6.7212 C   0  0  0  0  0  0  0  0  0  0  0  0
   10.6297   -7.0250   -3.1768 N   0  0  0  0  0  0  0  0  0  0  0  0
   11.1351   -6.5607   -3.8826 H   0  0  0  0  0  0  0  0  0  0  0  0
   10.5148   -5.0404    1.0993 O   0  0  0  0  0  0  0  0  0  0  0  0
   10.8597   -5.8392    0.1882 C   0  0  0  0  0  0  0  0  0  0  0  0
   12.0080   -6.7839    0.2433 C   0  0  0  0  0  0  0  0  0  0  0  0
   12.1331   -7.3176   -1.1956 C   0  0  0  0  0  0  0  0  0  0  0  0
   10.9777   -6.7440   -1.9095 C   0  0  0  0  0  0  0  0  0  0  0  0
   10.2732   -5.8649   -1.1683 C   0  0  0  0  0  0  0  0  0  0  0  0
    9.0991   -5.0235   -1.5224 C   0  0  0  0  0  0  0  0  0  0  0  0
 19 18  1  0  0  0
 18 13  1  0  0  0
 13 16  2  0  0  0
 13 15  1  0  0  0
 16 17  1  0  0  0
 15 14  2  0  0  0
 17 12  2  0  0  0
 14 12  1  0  0  0
 12 10  1  0  0  0
  9  8  2  0  0  0
 10  8  1  0  0  0
  8  7  1  0  0  0
  7  3  2  0  0  0
  7  6  1  0  0  0
  3  2  1  0  0  0
  6  4  2  0  0  0
  2  1  2  0  0  0
  4  1  1  0  0  0
  4  5  1  0  0  0
  1 20  1  0  0  0
 20 26  1  0  0  0
 26 25  1  0  0  0
 26 27  2  0  0  0
 25 24  1  0  0  0
 27 28  1  0  0  0
 27 23  1  0  0  0
 24 23  1  0  0  0
 23 22  2  0  0  0
 20 21  1  0  0  0
 10 11  1  0  0  0
M  END
> <minimizedAffinity>
-7.01958

$$$$
5ULA_5MJ_A_201


 28 30  0  0  0  0  0  0  0  0999 V2000
    9.1557   -8.3030   -4.3073 C   0  0  0  0  0  0  0  0  0  0  0  0
    9.9954   -8.5216   -5.4023 C   0  0  0  0  0  0  0  0  0  0  0  0
    9.7702   -9.6255   -6.2225 C   0  0  0  0  0  0  0  0  0  0  0  0
    8.1002   -9.1453   -4.1097 C   0  0  0  0  0  0  0  0  0  0  0  0
    7.0819   -8.9534   -2.6669 Cl  0  0  0  0  0  0  0  0  0  0  0  0
    7.8836  -10.3464   -4.8723 C   0  0  0  0  0  0  0  0  0  0  0  0
    8.6972  -10.5081   -6.0137 C   0  0  0  0  0  0  0  0  0  0  0  0
    8.4836  -11.6951   -6.9356 C   0  0  0  0  0  0  0  0  0  0  0  0
    8.4321  -11.4928   -8.1601 O   0  0  0  0  0  0  0  0  0  0  0  0
    8.2764  -12.8763   -6.3442 N   0  0  0  0  0  0  0  0  0  0  0  0
    8.2770  -12.8946   -5.3599 H   0  0  0  0  0  0  0  0  0  0  0  0
    8.0598  -14.0837   -7.0056 C   0  0  0  0  0  0  0  0  0  0  0  0
    7.3634  -16.4747   -8.3311 C   0  0  0  0  0  0  0  0  0  0  0  0
    6.7396  -14.4578   -7.2779 C   0  0  0  0  0  0  0  0  0  0  0  0
    6.3816  -15.6256   -7.9320 C   0  0  0  0  0  0  0  0  0  0  0  0
    8.6440  -16.1303   -8.0622 C   0  0  0  0  0  0  0  0  0  0  0  0
    9.0458  -14.9457   -7.3993 C   0  0  0  0  0  0  0  0  0  0  0  0
    7.0726  -17.6630   -8.9945 O   0  0  0  0  0  0  0  0  0  0  0  0
    6.2669  -18.6353   -8.3633 C   0  0  0  0  0  0  0  0  0  0  0  0
    9.3199   -7.1819   -3.4612 N   0  0  0  0  0  0  0  0  0  0  0  0
    8.7326   -6.4114   -3.6366 H   0  0  0  0  0  0  0  0  0  0  0  0
   11.3451   -5.4340    0.4221 O   0  0  0  0  0  0  0  0  0  0  0  0
   11.1112   -6.2464   -0.5119 C   0  0  0  0  0  0  0  0  0  0  0  0
   11.9347   -7.4351   -0.8625 C   0  0  0  0  0  0  0  0  0  0  0  0
   11.3615   -7.9132   -2.2092 C   0  0  0  0  0  0  0  0  0  0  0  0
   10.1886   -7.0515   -2.4442 C   0  0  0  0  0  0  0  0  0  0  0  0
   10.0549   -6.0688   -1.5304 C   0  0  0  0  0  0  0  0  0  0  0  0
    9.0680   -4.9599   -1.4400 C   0  0  0  0  0  0  0  0  0  0  0  0
 19 18  1  0  0  0
 18 13  1  0  0  0
 13 16  2  0  0  0
 13 15  1  0  0  0
 16 17  1  0  0  0
 15 14  2  0  0  0
 17 12  2  0  0  0
 14 12  1  0  0  0
 12 10  1  0  0  0
  9  8  2  0  0  0
 10  8  1  0  0  0
  8  7  1  0  0  0
  7  3  2  0  0  0
  7  6  1  0  0  0
  3  2  1  0  0  0
  6  4  2  0  0  0
  2  1  2  0  0  0
  4  1  1  0  0  0
  4  5  1  0  0  0
  1 20  1  0  0  0
 20 26  1  0  0  0
 26 25  1  0  0  0
 26 27  2  0  0  0
 25 24  1  0  0  0
 27 28  1  0  0  0
 27 23  1  0  0  0
 24 23  1  0  0  0
 23 22  2  0  0  0
 20 21  1  0  0  0
 10 11  1  0  0  0
M  END
> <minimizedAffinity>
-7.00776

$$$$
5ULA_5MJ_A_201


 28 30  0  0  0  0  0  0  0  0999 V2000
   11.5559   -7.8060   -5.4574 C   0  0  0  0  0  0  0  0  0  0  0  0
   10.4760   -7.5976   -4.5958 C   0  0  0  0  0  0  0  0  0  0  0  0
    9.3483   -8.4083   -4.7101 C   0  0  0  0  0  0  0  0  0  0  0  0
   11.4976   -8.8400   -6.3464 C   0  0  0  0  0  0  0  0  0  0  0  0
   12.8095   -9.0607   -7.5236 Cl  0  0  0  0  0  0  0  0  0  0  0  0
   10.3221   -9.6415   -6.5629 C   0  0  0  0  0  0  0  0  0  0  0  0
    9.2734   -9.4622   -5.6361 C   0  0  0  0  0  0  0  0  0  0  0  0
    8.0283  -10.3262   -5.7230 C   0  0  0  0  0  0  0  0  0  0  0  0
    7.0563   -9.9017   -6.3697 O   0  0  0  0  0  0  0  0  0  0  0  0
    8.0408  -11.4589   -5.0126 N   0  0  0  0  0  0  0  0  0  0  0  0
    8.8502  -11.6528   -4.4866 H   0  0  0  0  0  0  0  0  0  0  0  0
    7.0035  -12.3877   -4.9548 C   0  0  0  0  0  0  0  0  0  0  0  0
    5.0464  -14.4191   -4.9999 C   0  0  0  0  0  0  0  0  0  0  0  0
    7.1371  -13.5707   -5.6895 C   0  0  0  0  0  0  0  0  0  0  0  0
    6.1878  -14.5796   -5.7180 C   0  0  0  0  0  0  0  0  0  0  0  0
    4.8995  -13.2735   -4.2951 C   0  0  0  0  0  0  0  0  0  0  0  0
    5.8485  -12.2243   -4.2410 C   0  0  0  0  0  0  0  0  0  0  0  0
    4.0538  -15.3943   -4.9835 O   0  0  0  0  0  0  0  0  0  0  0  0
    3.1314  -15.4332   -3.9154 C   0  0  0  0  0  0  0  0  0  0  0  0
   12.7365   -7.0332   -5.3644 N   0  0  0  0  0  0  0  0  0  0  0  0
   13.3893   -7.3117   -4.6820 H   0  0  0  0  0  0  0  0  0  0  0  0
   15.3206   -3.4955   -7.1089 O   0  0  0  0  0  0  0  0  0  0  0  0
   14.3585   -4.3021   -7.0052 C   0  0  0  0  0  0  0  0  0  0  0  0
   13.0618   -4.2129   -7.7296 C   0  0  0  0  0  0  0  0  0  0  0  0
   12.1727   -5.2726   -7.0533 C   0  0  0  0  0  0  0  0  0  0  0  0
   13.0664   -5.9609   -6.1042 C   0  0  0  0  0  0  0  0  0  0  0  0
   14.2896   -5.3999   -6.0179 C   0  0  0  0  0  0  0  0  0  0  0  0
   15.4474   -5.7335   -5.1460 C   0  0  0  0  0  0  0  0  0  0  0  0
 19 18  1  0  0  0
 18 13  1  0  0  0
 13 16  2  0  0  0
 13 15  1  0  0  0
 16 17  1  0  0  0
 15 14  2  0  0  0
 17 12  2  0  0  0
 14 12  1  0  0  0
 12 10  1  0  0  0
  9  8  2  0  0  0
 10  8  1  0  0  0
  8  7  1  0  0  0
  7  3  2  0  0  0
  7  6  1  0  0  0
  3  2  1  0  0  0
  6  4  2  0  0  0
  2  1  2  0  0  0
  4  1  1  0  0  0
  4  5  1  0  0  0
  1 20  1  0  0  0
 20 26  1  0  0  0
 26 25  1  0  0  0
 26 27  2  0  0  0
 25 24  1  0  0  0
 27 28  1  0  0  0
 27 23  1  0  0  0
 24 23  1  0  0  0
 23 22  2  0  0  0
 20 21  1  0  0  0
 10 11  1  0  0  0
M  END
> <minimizedAffinity>
-6.98033

$$$$
5ULA_5MJ_A_201


 28 30  0  0  0  0  0  0  0  0999 V2000
    9.7916   -7.7879   -3.6601 C   0  0  0  0  0  0  0  0  0  0  0  0
    8.8734   -8.2938   -2.7365 C   0  0  0  0  0  0  0  0  0  0  0  0
    7.8955   -9.1874   -3.1691 C   0  0  0  0  0  0  0  0  0  0  0  0
    9.7405   -8.2332   -4.9493 C   0  0  0  0  0  0  0  0  0  0  0  0
   10.8258   -7.5273   -6.1656 Cl  0  0  0  0  0  0  0  0  0  0  0  0
    8.6955   -9.0804   -5.4605 C   0  0  0  0  0  0  0  0  0  0  0  0
    7.8247   -9.6353   -4.4989 C   0  0  0  0  0  0  0  0  0  0  0  0
    6.7472  -10.6151   -4.9270 C   0  0  0  0  0  0  0  0  0  0  0  0
    5.8297  -10.2053   -5.6572 O   0  0  0  0  0  0  0  0  0  0  0  0
    6.8214  -11.8442   -4.4057 N   0  0  0  0  0  0  0  0  0  0  0  0
    7.5637  -12.0274   -3.7855 H   0  0  0  0  0  0  0  0  0  0  0  0
    5.9353  -12.8874   -4.6674 C   0  0  0  0  0  0  0  0  0  0  0  0
    4.2947  -15.0616   -5.4026 C   0  0  0  0  0  0  0  0  0  0  0  0
    6.1949  -13.7117   -5.7676 C   0  0  0  0  0  0  0  0  0  0  0  0
    5.4021  -14.7858   -6.1386 C   0  0  0  0  0  0  0  0  0  0  0  0
    4.0256  -14.2638   -4.3434 C   0  0  0  0  0  0  0  0  0  0  0  0
    4.8137  -13.1612   -3.9344 C   0  0  0  0  0  0  0  0  0  0  0  0
    3.4570  -16.1267   -5.7195 O   0  0  0  0  0  0  0  0  0  0  0  0
    2.4488  -15.9557   -6.6929 C   0  0  0  0  0  0  0  0  0  0  0  0
   10.8230   -6.9029   -3.2694 N   0  0  0  0  0  0  0  0  0  0  0  0
   10.8500   -6.0324   -3.7284 H   0  0  0  0  0  0  0  0  0  0  0  0
   15.0870   -7.6506   -1.3997 O   0  0  0  0  0  0  0  0  0  0  0  0
   13.8542   -7.3942   -1.4384 C   0  0  0  0  0  0  0  0  0  0  0  0
   12.9342   -7.3494   -0.2697 C   0  0  0  0  0  0  0  0  0  0  0  0
   11.5293   -7.2544   -0.8928 C   0  0  0  0  0  0  0  0  0  0  0  0
   11.7704   -7.1183   -2.3409 C   0  0  0  0  0  0  0  0  0  0  0  0
   13.0687   -7.2471   -2.6818 C   0  0  0  0  0  0  0  0  0  0  0  0
   13.7226   -7.2467   -4.0175 C   0  0  0  0  0  0  0  0  0  0  0  0
 19 18  1  0  0  0
 18 13  1  0  0  0
 13 16  2  0  0  0
 13 15  1  0  0  0
 16 17  1  0  0  0
 15 14  2  0  0  0
 17 12  2  0  0  0
 14 12  1  0  0  0
 12 10  1  0  0  0
  9  8  2  0  0  0
 10  8  1  0  0  0
  8  7  1  0  0  0
  7  3  2  0  0  0
  7  6  1  0  0  0
  3  2  1  0  0  0
  6  4  2  0  0  0
  2  1  2  0  0  0
  4  1  1  0  0  0
  4  5  1  0  0  0
  1 20  1  0  0  0
 20 26  1  0  0  0
 26 25  1  0  0  0
 26 27  2  0  0  0
 25 24  1  0  0  0
 27 28  1  0  0  0
 27 23  1  0  0  0
 24 23  1  0  0  0
 23 22  2  0  0  0
 20 21  1  0  0  0
 10 11  1  0  0  0
M  END
> <minimizedAffinity>
-6.86714

$$$$
5ULA_5MJ_A_201


 28 30  0  0  0  0  0  0  0  0999 V2000
   10.5593   -8.0535   -5.0457 C   0  0  0  0  0  0  0  0  0  0  0  0
   10.5005   -8.8731   -6.1757 C   0  0  0  0  0  0  0  0  0  0  0  0
    9.4239   -9.7445   -6.3288 C   0  0  0  0  0  0  0  0  0  0  0  0
    9.5261   -8.0874   -4.1545 C   0  0  0  0  0  0  0  0  0  0  0  0
    9.6260   -7.1357   -2.6580 Cl  0  0  0  0  0  0  0  0  0  0  0  0
    8.4437   -9.0334   -4.2226 C   0  0  0  0  0  0  0  0  0  0  0  0
    8.3663   -9.7988   -5.4054 C   0  0  0  0  0  0  0  0  0  0  0  0
    7.2083  -10.7581   -5.6138 C   0  0  0  0  0  0  0  0  0  0  0  0
    6.2520  -10.3891   -6.3156 O   0  0  0  0  0  0  0  0  0  0  0  0
    7.2667  -11.9136   -4.9436 N   0  0  0  0  0  0  0  0  0  0  0  0
    8.0503  -12.0615   -4.3663 H   0  0  0  0  0  0  0  0  0  0  0  0
    6.3105  -12.9261   -4.9946 C   0  0  0  0  0  0  0  0  0  0  0  0
    4.2563  -14.8571   -4.8941 C   0  0  0  0  0  0  0  0  0  0  0  0
    5.2676  -12.8945   -4.0626 C   0  0  0  0  0  0  0  0  0  0  0  0
    4.2491  -13.8320   -4.0034 C   0  0  0  0  0  0  0  0  0  0  0  0
    5.2667  -14.9060   -5.7926 C   0  0  0  0  0  0  0  0  0  0  0  0
    6.3208  -13.9653   -5.8835 C   0  0  0  0  0  0  0  0  0  0  0  0
    3.2623  -15.8311   -4.8906 O   0  0  0  0  0  0  0  0  0  0  0  0
    2.1072  -15.6464   -4.1002 C   0  0  0  0  0  0  0  0  0  0  0  0
   11.6126   -7.1292   -4.8560 N   0  0  0  0  0  0  0  0  0  0  0  0
   11.3748   -6.1759   -4.9181 H   0  0  0  0  0  0  0  0  0  0  0  0
   16.3151   -6.8179   -5.0162 O   0  0  0  0  0  0  0  0  0  0  0  0
   15.1794   -7.1913   -4.6191 C   0  0  0  0  0  0  0  0  0  0  0  0
   14.9087   -8.3020   -3.6665 C   0  0  0  0  0  0  0  0  0  0  0  0
   13.3828   -8.4973   -3.7312 C   0  0  0  0  0  0  0  0  0  0  0  0
   12.9022   -7.4078   -4.6003 C   0  0  0  0  0  0  0  0  0  0  0  0
   13.8978   -6.6888   -5.1573 C   0  0  0  0  0  0  0  0  0  0  0  0
   13.8521   -5.5674   -6.1331 C   0  0  0  0  0  0  0  0  0  0  0  0
 19 18  1  0  0  0
 18 13  1  0  0  0
 13 16  2  0  0  0
 13 15  1  0  0  0
 16 17  1  0  0  0
 15 14  2  0  0  0
 17 12  2  0  0  0
 14 12  1  0  0  0
 12 10  1  0  0  0
  9  8  2  0  0  0
 10  8  1  0  0  0
  8  7  1  0  0  0
  7  3  2  0  0  0
  7  6  1  0  0  0
  3  2  1  0  0  0
  6  4  2  0  0  0
  2  1  2  0  0  0
  4  1  1  0  0  0
  4  5  1  0  0  0
  1 20  1  0  0  0
 20 26  1  0  0  0
 26 25  1  0  0  0
 26 27  2  0  0  0
 25 24  1  0  0  0
 27 28  1  0  0  0
 27 23  1  0  0  0
 24 23  1  0  0  0
 23 22  2  0  0  0
 20 21  1  0  0  0
 10 11  1  0  0  0
M  END
> <minimizedAffinity>
-6.77773

$$$$
5ULA_5MJ_A_201


 28 30  0  0  0  0  0  0  0  0999 V2000
    9.3544   -8.0429   -4.0734 C   0  0  0  0  0  0  0  0  0  0  0  0
   10.3957   -7.8634   -4.9875 C   0  0  0  0  0  0  0  0  0  0  0  0
   10.4652   -8.6866   -6.1098 C   0  0  0  0  0  0  0  0  0  0  0  0
    8.3999   -8.9812   -4.3402 C   0  0  0  0  0  0  0  0  0  0  0  0
    7.1264   -9.3027   -3.1442 Cl  0  0  0  0  0  0  0  0  0  0  0  0
    8.4802   -9.9133   -5.4337 C   0  0  0  0  0  0  0  0  0  0  0  0
    9.4968   -9.6677   -6.3809 C   0  0  0  0  0  0  0  0  0  0  0  0
    9.6063  -10.5389   -7.6192 C   0  0  0  0  0  0  0  0  0  0  0  0
    8.6555  -11.2858   -7.9044 O   0  0  0  0  0  0  0  0  0  0  0  0
   10.7729  -10.4998   -8.2713 N   0  0  0  0  0  0  0  0  0  0  0  0
   11.4745   -9.9134   -7.9065 H   0  0  0  0  0  0  0  0  0  0  0  0
   11.0782  -11.2202   -9.4245 C   0  0  0  0  0  0  0  0  0  0  0  0
   11.6052  -12.4729  -11.8968 C   0  0  0  0  0  0  0  0  0  0  0  0
   10.8029  -10.6293  -10.6624 C   0  0  0  0  0  0  0  0  0  0  0  0
   11.0603  -11.2290  -11.8846 C   0  0  0  0  0  0  0  0  0  0  0  0
   11.8644  -13.0605  -10.7059 C   0  0  0  0  0  0  0  0  0  0  0  0
   11.6172  -12.4770   -9.4399 C   0  0  0  0  0  0  0  0  0  0  0  0
   11.8904  -13.1307  -13.0895 O   0  0  0  0  0  0  0  0  0  0  0  0
   11.7646  -14.5351  -13.1591 C   0  0  0  0  0  0  0  0  0  0  0  0
    9.2187   -7.2156   -2.9346 N   0  0  0  0  0  0  0  0  0  0  0  0
    8.3540   -6.7574   -2.8271 H   0  0  0  0  0  0  0  0  0  0  0  0
   11.4501   -5.0796    0.6284 O   0  0  0  0  0  0  0  0  0  0  0  0
   11.1639   -5.9858   -0.1986 C   0  0  0  0  0  0  0  0  0  0  0  0
   11.9617   -7.2147   -0.4586 C   0  0  0  0  0  0  0  0  0  0  0  0
   11.3176   -7.8296   -1.7148 C   0  0  0  0  0  0  0  0  0  0  0  0
   10.1391   -6.9853   -1.9829 C   0  0  0  0  0  0  0  0  0  0  0  0
   10.0580   -5.9079   -1.1760 C   0  0  0  0  0  0  0  0  0  0  0  0
    9.0833   -4.7848   -1.1574 C   0  0  0  0  0  0  0  0  0  0  0  0
 19 18  1  0  0  0
 18 13  1  0  0  0
 13 16  2  0  0  0
 13 15  1  0  0  0
 16 17  1  0  0  0
 15 14  2  0  0  0
 17 12  2  0  0  0
 14 12  1  0  0  0
 12 10  1  0  0  0
  9  8  2  0  0  0
 10  8  1  0  0  0
  8  7  1  0  0  0
  7  3  2  0  0  0
  7  6  1  0  0  0
  3  2  1  0  0  0
  6  4  2  0  0  0
  2  1  2  0  0  0
  4  1  1  0  0  0
  4  5  1  0  0  0
  1 20  1  0  0  0
 20 26  1  0  0  0
 26 25  1  0  0  0
 26 27  2  0  0  0
 25 24  1  0  0  0
 27 28  1  0  0  0
 27 23  1  0  0  0
 24 23  1  0  0  0
 23 22  2  0  0  0
 20 21  1  0  0  0
 10 11  1  0  0  0
M  END
> <minimizedAffinity>
-6.66515

$$$$
