3GY7_BEN_A_1
  RCSB PDB12061708483D
Coordinates from PDB:3GY7:A:1 Model:1 without hydrogens
  9  9  0  0  0  0            999 V2000
   -1.8340   14.0880   16.4010   C 0  0  0  0  0  0  0  0  0  0  0  0
   -1.2040   13.4690   17.4820   C 0  0  0  0  0  0  0  0  0  0  0  0
   -0.8720   14.1820   18.6280   C 0  0  0  0  0  0  0  0  0  0  0  0
   -1.1670   15.5370   18.7190   C 0  0  0  0  0  0  0  0  0  0  0  0
   -1.7900   16.1650   17.6420   C 0  0  0  0  0  0  0  0  0  0  0  0
   -2.1330   15.4490   16.4910   C 0  0  0  0  0  0  0  0  0  0  0  0
   -2.1740   13.3630   15.2370   C 0  0  0  0  0  0  0  0  0  0  0  0
   -2.9450   13.8830   14.3060   N 0  0  0  0  0  0  0  0  0  0  0  0
   -1.7370   12.1440   15.0050   N 0  0  0  0  0  0  0  0  0  0  0  0
  1  2  2  0  0  0  0
  1  6  1  0  0  0  0
  1  7  1  0  0  0  0
  2  3  1  0  0  0  0
  3  4  2  0  0  0  0
  4  5  1  0  0  0  0
  5  6  2  0  0  0  0
  7  8  2  0  0  0  0
  7  9  1  0  0  0  0
A    1
C1
A    2
C2
A    3
C3
A    4
C4
A    5
C5
A    6
C6
A    7
C
A    8
N1
A    9
N2
M  END
>  <InstanceId>
3GY7_BEN_A_1

>  <ChemCompId>
BEN

>  <PdbId>
3GY7

>  <ChainId>
A

>  <ResidueNumber>
1

>  <InsertionCode>


>  <Model>
1

>  <AltIds>


>  <MissingHeavyAtoms>
0

>  <ObservedFormula>
C7 N2

>  <Name>
BENZAMIDINE

>  <SystematicName>
benzenecarboximidamide

>  <Synonyms>


>  <Type>
NON-POLYMER

>  <Formula>
C7 H8 N2

>  <MolecularWeight>
120.152

>  <ModifiedDate>
2011-06-04

>  <Parent>


>  <OneLetterCode>


>  <SubcomponentList>


>  <AmbiguousFlag>
N

>  <InChI>
InChI=1S/C7H8N2/c8-7(9)6-4-2-1-3-5-6/h1-5H,(H3,8,9)

>  <InChIKey>
PXXJHWLDUBFPOL-UHFFFAOYSA-N

>  <SMILES>
[H]/N=C(\c1ccccc1)/N

$$$$
