3GY7_BEN_A_1


 12 12  0  0  0  0  0  0  0  0999 V2000
   -1.6166   14.2044   16.4482 C   0  0  0  0  0  0  0  0  0  0  0  0
   -0.9622   13.5844   17.5140 C   0  0  0  0  0  0  0  0  0  0  0  0
   -0.4129   14.3266   18.5529 C   0  0  0  0  0  0  0  0  0  0  0  0
   -0.5090   15.7130   18.5494 C   0  0  0  0  0  0  0  0  0  0  0  0
   -1.1548   16.3411   17.4860 C   0  0  0  0  0  0  0  0  0  0  0  0
   -1.7160   15.5972   16.4435 C   0  0  0  0  0  0  0  0  0  0  0  0
   -2.1774   13.4501   15.3933 C   0  0  0  0  0  0  0  0  0  0  0  0
   -1.7024   12.2667   15.0685 N   0  0  0  0  0  0  0  0  0  0  0  0
   -3.2048   13.8696   14.6867 N   0  0  0  0  0  0  0  0  0  0  0  0
   -0.9340   11.8935   15.5579 H   0  0  0  0  0  0  0  0  0  0  0  0
   -3.6086   14.7468   14.8780 H   0  0  0  0  0  0  0  0  0  0  0  0
   -3.5698   13.3062   13.9665 H   0  0  0  0  0  0  0  0  0  0  0  0
  1  2  2  0  0  0
  1  6  1  0  0  0
  1  7  1  0  0  0
  2  3  1  0  0  0
  3  4  2  0  0  0
  4  5  1  0  0  0
  5  6  2  0  0  0
  7  8  2  0  0  0
  7  9  1  0  0  0
  8 10  1  0  0  0
  9 11  1  0  0  0
  9 12  1  0  0  0
M  END
> <minimizedAffinity>
-5.81178

$$$$
3GY7_BEN_A_1


 12 12  0  0  0  0  0  0  0  0999 V2000
   -1.6204   14.1967   16.4362 C   0  0  0  0  0  0  0  0  0  0  0  0
   -1.7396   15.5870   16.4756 C   0  0  0  0  0  0  0  0  0  0  0  0
   -1.1957   16.3281   17.5181 C   0  0  0  0  0  0  0  0  0  0  0  0
   -0.5146   15.6910   18.5484 C   0  0  0  0  0  0  0  0  0  0  0  0
   -0.3962   14.3026   18.5209 C   0  0  0  0  0  0  0  0  0  0  0  0
   -0.9348   13.5547   17.4694 C   0  0  0  0  0  0  0  0  0  0  0  0
   -2.1709   13.4433   15.3753 C   0  0  0  0  0  0  0  0  0  0  0  0
   -1.6943   12.2591   15.0558 N   0  0  0  0  0  0  0  0  0  0  0  0
   -3.1898   13.8643   14.6575 N   0  0  0  0  0  0  0  0  0  0  0  0
   -0.9319   11.8846   15.5535 H   0  0  0  0  0  0  0  0  0  0  0  0
   -3.5943   14.7422   14.8443 H   0  0  0  0  0  0  0  0  0  0  0  0
   -3.5479   13.3014   13.9334 H   0  0  0  0  0  0  0  0  0  0  0  0
  1  2  2  0  0  0
  1  6  1  0  0  0
  1  7  1  0  0  0
  2  3  1  0  0  0
  3  4  2  0  0  0
  4  5  1  0  0  0
  5  6  2  0  0  0
  7  8  2  0  0  0
  7  9  1  0  0  0
  8 10  1  0  0  0
  9 11  1  0  0  0
  9 12  1  0  0  0
M  END
> <minimizedAffinity>
-5.81137

$$$$
3GY7_BEN_A_1


 12 12  0  0  0  0  0  0  0  0999 V2000
   -0.8736   15.6268   18.0788 C   0  0  0  0  0  0  0  0  0  0  0  0
   -1.6315   15.9023   16.9393 C   0  0  0  0  0  0  0  0  0  0  0  0
   -1.9741   14.8985   16.0411 C   0  0  0  0  0  0  0  0  0  0  0  0
   -1.5657   13.5892   16.2658 C   0  0  0  0  0  0  0  0  0  0  0  0
   -0.8031   13.3059   17.3974 C   0  0  0  0  0  0  0  0  0  0  0  0
   -0.4637   14.3117   18.3075 C   0  0  0  0  0  0  0  0  0  0  0  0
   -0.5274   16.6465   18.9934 C   0  0  0  0  0  0  0  0  0  0  0  0
   -1.3147   17.6809   19.1975 N   0  0  0  0  0  0  0  0  0  0  0  0
    0.5817   16.6215   19.7005 N   0  0  0  0  0  0  0  0  0  0  0  0
   -2.1608   17.7612   18.7005 H   0  0  0  0  0  0  0  0  0  0  0  0
    1.2153   15.8752   19.5962 H   0  0  0  0  0  0  0  0  0  0  0  0
    0.7781   17.3490   20.3340 H   0  0  0  0  0  0  0  0  0  0  0  0
  1  2  2  0  0  0
  1  6  1  0  0  0
  1  7  1  0  0  0
  2  3  1  0  0  0
  3  4  2  0  0  0
  4  5  1  0  0  0
  5  6  2  0  0  0
  7  8  2  0  0  0
  7  9  1  0  0  0
  8 10  1  0  0  0
  9 11  1  0  0  0
  9 12  1  0  0  0
M  END
> <minimizedAffinity>
-5.08215

$$$$
3GY7_BEN_A_1


 12 12  0  0  0  0  0  0  0  0999 V2000
   -0.8722   15.6193   18.0850 C   0  0  0  0  0  0  0  0  0  0  0  0
   -0.4687   14.2988   18.2901 C   0  0  0  0  0  0  0  0  0  0  0  0
   -0.8087   13.2933   17.3928 C   0  0  0  0  0  0  0  0  0  0  0  0
   -1.5620   13.5890   16.2630 C   0  0  0  0  0  0  0  0  0  0  0  0
   -1.9749   14.9035   16.0534 C   0  0  0  0  0  0  0  0  0  0  0  0
   -1.6276   15.9191   16.9495 C   0  0  0  0  0  0  0  0  0  0  0  0
   -0.5245   16.6422   18.9955 C   0  0  0  0  0  0  0  0  0  0  0  0
   -1.3103   17.6787   19.1951 N   0  0  0  0  0  0  0  0  0  0  0  0
    0.5844   16.6184   19.7029 N   0  0  0  0  0  0  0  0  0  0  0  0
   -2.1562   17.7582   18.6978 H   0  0  0  0  0  0  0  0  0  0  0  0
    1.2169   15.8708   19.6017 H   0  0  0  0  0  0  0  0  0  0  0  0
    0.7819   17.3483   20.3334 H   0  0  0  0  0  0  0  0  0  0  0  0
  1  2  2  0  0  0
  1  6  1  0  0  0
  1  7  1  0  0  0
  2  3  1  0  0  0
  3  4  2  0  0  0
  4  5  1  0  0  0
  5  6  2  0  0  0
  7  8  2  0  0  0
  7  9  1  0  0  0
  8 10  1  0  0  0
  9 11  1  0  0  0
  9 12  1  0  0  0
M  END
> <minimizedAffinity>
-5.07272

$$$$
3GY7_BEN_A_1


 12 12  0  0  0  0  0  0  0  0999 V2000
   -1.6801   15.4181   17.6259 C   0  0  0  0  0  0  0  0  0  0  0  0
   -1.1089   16.4934   16.9432 C   0  0  0  0  0  0  0  0  0  0  0  0
   -0.6797   17.6301   17.6181 C   0  0  0  0  0  0  0  0  0  0  0  0
   -0.8111   17.7153   18.9990 C   0  0  0  0  0  0  0  0  0  0  0  0
   -1.3863   16.6493   19.6884 C   0  0  0  0  0  0  0  0  0  0  0  0
   -1.8115   15.5008   19.0136 C   0  0  0  0  0  0  0  0  0  0  0  0
   -2.1141   14.2614   16.9404 C   0  0  0  0  0  0  0  0  0  0  0  0
   -1.8114   13.0553   17.3708 N   0  0  0  0  0  0  0  0  0  0  0  0
   -2.8499   14.3139   15.8511 N   0  0  0  0  0  0  0  0  0  0  0  0
   -1.2633   12.9449   18.1811 H   0  0  0  0  0  0  0  0  0  0  0  0
   -3.1121   15.1855   15.4757 H   0  0  0  0  0  0  0  0  0  0  0  0
   -3.1384   13.4817   15.4114 H   0  0  0  0  0  0  0  0  0  0  0  0
  1  2  2  0  0  0
  1  6  1  0  0  0
  1  7  1  0  0  0
  2  3  1  0  0  0
  3  4  2  0  0  0
  4  5  1  0  0  0
  5  6  2  0  0  0
  7  8  2  0  0  0
  7  9  1  0  0  0
  8 10  1  0  0  0
  9 11  1  0  0  0
  9 12  1  0  0  0
M  END
> <minimizedAffinity>
-4.78991

$$$$
3GY7_BEN_A_1


 12 12  0  0  0  0  0  0  0  0999 V2000
   -1.6841   15.4056   17.6269 C   0  0  0  0  0  0  0  0  0  0  0  0
   -1.8023   15.5181   19.0133 C   0  0  0  0  0  0  0  0  0  0  0  0
   -1.3745   16.6583   19.6833 C   0  0  0  0  0  0  0  0  0  0  0  0
   -0.8181   17.7177   18.9766 C   0  0  0  0  0  0  0  0  0  0  0  0
   -0.6900   17.6116   17.5929 C   0  0  0  0  0  0  0  0  0  0  0  0
   -1.1271   16.4696   16.9147 C   0  0  0  0  0  0  0  0  0  0  0  0
   -2.1213   14.2479   16.9452 C   0  0  0  0  0  0  0  0  0  0  0  0
   -1.8235   13.0423   17.3805 N   0  0  0  0  0  0  0  0  0  0  0  0
   -2.8556   14.2989   15.8548 N   0  0  0  0  0  0  0  0  0  0  0  0
   -1.2769   12.9329   18.1919 H   0  0  0  0  0  0  0  0  0  0  0  0
   -3.1142   15.1700   15.4758 H   0  0  0  0  0  0  0  0  0  0  0  0
   -3.1465   13.4661   15.4178 H   0  0  0  0  0  0  0  0  0  0  0  0
  1  2  2  0  0  0
  1  6  1  0  0  0
  1  7  1  0  0  0
  2  3  1  0  0  0
  3  4  2  0  0  0
  4  5  1  0  0  0
  5  6  2  0  0  0
  7  8  2  0  0  0
  7  9  1  0  0  0
  8 10  1  0  0  0
  9 11  1  0  0  0
  9 12  1  0  0  0
M  END
> <minimizedAffinity>
-4.77617

$$$$
3GY7_BEN_A_1


 12 12  0  0  0  0  0  0  0  0999 V2000
   -1.2079   14.5509   17.5751 C   0  0  0  0  0  0  0  0  0  0  0  0
   -0.6440   13.3172   17.2455 C   0  0  0  0  0  0  0  0  0  0  0  0
   -0.9210   12.6989   16.0319 C   0  0  0  0  0  0  0  0  0  0  0  0
   -1.7712   13.3061   15.1153 C   0  0  0  0  0  0  0  0  0  0  0  0
   -2.3440   14.5348   15.4386 C   0  0  0  0  0  0  0  0  0  0  0  0
   -2.0609   15.1636   16.6550 C   0  0  0  0  0  0  0  0  0  0  0  0
   -0.9244   15.1810   18.8075 C   0  0  0  0  0  0  0  0  0  0  0  0
   -1.6903   15.0002   19.8622 N   0  0  0  0  0  0  0  0  0  0  0  0
    0.1162   15.9667   18.9822 N   0  0  0  0  0  0  0  0  0  0  0  0
   -2.4857   14.4234   19.7999 H   0  0  0  0  0  0  0  0  0  0  0  0
    0.7302   16.1442   18.2333 H   0  0  0  0  0  0  0  0  0  0  0  0
    0.2809   16.3773   19.8617 H   0  0  0  0  0  0  0  0  0  0  0  0
  1  2  2  0  0  0
  1  6  1  0  0  0
  1  7  1  0  0  0
  2  3  1  0  0  0
  3  4  2  0  0  0
  4  5  1  0  0  0
  5  6  2  0  0  0
  7  8  2  0  0  0
  7  9  1  0  0  0
  8 10  1  0  0  0
  9 11  1  0  0  0
  9 12  1  0  0  0
M  END
> <minimizedAffinity>
-4.77472

$$$$
3GY7_BEN_A_1


 12 12  0  0  0  0  0  0  0  0999 V2000
   -0.9600   16.2633   17.5161 C   0  0  0  0  0  0  0  0  0  0  0  0
   -0.5445   15.3401   18.4772 C   0  0  0  0  0  0  0  0  0  0  0  0
   -0.9335   14.0073   18.4126 C   0  0  0  0  0  0  0  0  0  0  0  0
   -1.7494   13.5661   17.3777 C   0  0  0  0  0  0  0  0  0  0  0  0
   -2.1746   14.4821   16.4172 C   0  0  0  0  0  0  0  0  0  0  0  0
   -1.7783   15.8218   16.4744 C   0  0  0  0  0  0  0  0  0  0  0  0
   -0.5626   17.6176   17.5801 C   0  0  0  0  0  0  0  0  0  0  0  0
    0.0581   18.1983   16.5755 N   0  0  0  0  0  0  0  0  0  0  0  0
   -0.7961   18.3790   18.6272 N   0  0  0  0  0  0  0  0  0  0  0  0
    0.2636   17.6849   15.7610 H   0  0  0  0  0  0  0  0  0  0  0  0
   -1.2571   18.0068   19.4135 H   0  0  0  0  0  0  0  0  0  0  0  0
   -0.5100   19.3210   18.6246 H   0  0  0  0  0  0  0  0  0  0  0  0
  1  2  2  0  0  0
  1  6  1  0  0  0
  1  7  1  0  0  0
  2  3  1  0  0  0
  3  4  2  0  0  0
  4  5  1  0  0  0
  5  6  2  0  0  0
  7  8  2  0  0  0
  7  9  1  0  0  0
  8 10  1  0  0  0
  9 11  1  0  0  0
  9 12  1  0  0  0
M  END
> <minimizedAffinity>
-4.64307

$$$$
3GY7_BEN_A_1


 12 12  0  0  0  0  0  0  0  0999 V2000
   -0.0883   17.0721   18.5190 C   0  0  0  0  0  0  0  0  0  0  0  0
    0.8345   17.5723   19.4393 C   0  0  0  0  0  0  0  0  0  0  0  0
    1.5377   18.7451   19.1906 C   0  0  0  0  0  0  0  0  0  0  0  0
    1.3300   19.4485   18.0102 C   0  0  0  0  0  0  0  0  0  0  0  0
    0.4154   18.9532   17.0824 C   0  0  0  0  0  0  0  0  0  0  0  0
   -0.2999   17.7782   17.3330 C   0  0  0  0  0  0  0  0  0  0  0  0
   -0.8052   15.8814   18.7726 C   0  0  0  0  0  0  0  0  0  0  0  0
   -2.1177   15.8782   18.8677 N   0  0  0  0  0  0  0  0  0  0  0  0
   -0.2170   14.7131   18.9141 N   0  0  0  0  0  0  0  0  0  0  0  0
   -2.6202   16.7193   18.7715 H   0  0  0  0  0  0  0  0  0  0  0  0
    0.7633   14.6451   18.8541 H   0  0  0  0  0  0  0  0  0  0  0  0
   -0.7571   13.9069   19.0800 H   0  0  0  0  0  0  0  0  0  0  0  0
  1  2  2  0  0  0
  1  6  1  0  0  0
  1  7  1  0  0  0
  2  3  1  0  0  0
  3  4  2  0  0  0
  4  5  1  0  0  0
  5  6  2  0  0  0
  7  8  2  0  0  0
  7  9  1  0  0  0
  8 10  1  0  0  0
  9 11  1  0  0  0
  9 12  1  0  0  0
M  END
> <minimizedAffinity>
-4.16207

$$$$
3GY7_BEN_A_1


 12 12  0  0  0  0  0  0  0  0999 V2000
   -1.2454   16.1211   18.6579 C   0  0  0  0  0  0  0  0  0  0  0  0
   -0.7925   16.7684   17.5070 C   0  0  0  0  0  0  0  0  0  0  0  0
   -0.5357   18.1343   17.5017 C   0  0  0  0  0  0  0  0  0  0  0  0
   -0.7250   18.8864   18.6549 C   0  0  0  0  0  0  0  0  0  0  0  0
   -1.1833   18.2499   19.8070 C   0  0  0  0  0  0  0  0  0  0  0  0
   -1.4346   16.8745   19.8183 C   0  0  0  0  0  0  0  0  0  0  0  0
   -1.5041   14.7322   18.6645 C   0  0  0  0  0  0  0  0  0  0  0  0
   -1.8416   14.0923   17.5653 N   0  0  0  0  0  0  0  0  0  0  0  0
   -1.4120   13.9964   19.7513 N   0  0  0  0  0  0  0  0  0  0  0  0
   -1.9282   14.5836   16.7166 H   0  0  0  0  0  0  0  0  0  0  0  0
   -1.1635   14.4128   20.6080 H   0  0  0  0  0  0  0  0  0  0  0  0
   -1.5917   13.0294   19.7077 H   0  0  0  0  0  0  0  0  0  0  0  0
  1  2  2  0  0  0
  1  6  1  0  0  0
  1  7  1  0  0  0
  2  3  1  0  0  0
  3  4  2  0  0  0
  4  5  1  0  0  0
  5  6  2  0  0  0
  7  8  2  0  0  0
  7  9  1  0  0  0
  8 10  1  0  0  0
  9 11  1  0  0  0
  9 12  1  0  0  0
M  END
> <minimizedAffinity>
-4.09828

$$$$
