5B2D_SLT_A_606


 56 58  0  0  0  0  0  0  0  0999 V2000
    9.7513  -44.9660  -29.1013 C   0  0  0  0  0  0  0  0  0  0  0  0
   11.0428  -44.4929  -29.6804 C   0  0  0  0  0  0  0  0  0  0  0  0
   11.7592  -45.5861  -30.4405 C   0  0  0  0  0  0  0  0  0  0  0  0
   11.9801  -46.7780  -29.6058 O   0  0  0  0  0  0  0  0  0  0  0  0
   11.8850  -44.0398  -28.6150 O   0  0  0  0  0  0  0  0  0  0  0  0
    9.9463  -46.1778  -28.2525 C   0  0  0  0  0  0  0  0  0  0  0  0
    8.6712  -46.6898  -27.8742 O   0  0  0  0  0  0  0  0  0  0  0  0
   10.7278  -47.2835  -28.9982 C   0  0  0  0  0  0  0  0  0  0  0  0
   12.0629  -44.7754  -28.0083 H   0  0  0  0  0  0  0  0  0  0  0  0
    8.1756  -46.9427  -28.6687 H   0  0  0  0  0  0  0  0  0  0  0  0
   13.0854  -45.0633  -30.9105 C   0  0  0  0  0  0  0  0  0  0  0  0
   14.0557  -45.1938  -29.8554 O   0  0  0  0  0  0  0  0  0  0  0  0
   13.7639  -44.6846  -29.0830 H   0  0  0  0  0  0  0  0  0  0  0  0
    9.1638  -43.8685  -28.2947 O   0  0  0  0  0  0  0  0  0  0  0  0
    6.2229  -44.9188  -28.2286 C   0  0  0  0  0  0  0  0  0  0  0  0
    6.3267  -44.6982  -29.7031 C   0  0  0  0  0  0  0  0  0  0  0  0
    7.5521  -43.9756  -30.0905 O   0  0  0  0  0  0  0  0  0  0  0  0
    6.1963  -43.6446  -27.4956 C   0  0  0  0  0  0  0  0  0  0  0  0
    6.6113  -43.8663  -26.1163 O   0  0  0  0  0  0  0  0  0  0  0  0
    7.0567  -42.5998  -28.1003 C   0  0  0  0  0  0  0  0  0  0  0  0
    8.0716  -43.0979  -29.0787 C   0  0  0  0  0  0  0  0  0  0  0  0
    7.5256  -44.1899  -26.1017 H   0  0  0  0  0  0  0  0  0  0  0  0
    5.9082  -46.9933  -26.3233 O   0  0  0  0  0  0  0  0  0  0  0  0
    4.9097  -46.6998  -26.9508 C   0  0  0  0  0  0  0  0  0  0  0  0
    3.6056  -47.4334  -26.6930 C   0  0  0  0  0  0  0  0  0  0  0  0
    4.9590  -45.6407  -27.9565 N   0  0  0  0  0  0  0  0  0  0  0  0
    4.1449  -45.4052  -28.4575 H   0  0  0  0  0  0  0  0  0  0  0  0
    8.8737  -41.9870  -29.6490 C   0  0  0  0  0  0  0  0  0  0  0  0
    8.8850  -41.7925  -30.9047 O   0  0  0  0  0  0  0  0  0  0  0  0
    9.4333  -41.1708  -28.8914 O   0  0  0  0  0  0  0  0  0  0  0  0
    8.4654  -42.4040  -31.4774 H   0  0  0  0  0  0  0  0  0  0  0  0
    6.3144  -46.0302  -30.4065 C   0  0  0  0  0  0  0  0  0  0  0  0
    7.6005  -46.3307  -30.8471 O   0  0  0  0  0  0  0  0  0  0  0  0
    7.9036  -45.6389  -31.4557 H   0  0  0  0  0  0  0  0  0  0  0  0
    5.3884  -45.9448  -31.6054 C   0  0  0  0  0  0  0  0  0  0  0  0
    4.0889  -45.6838  -31.1670 O   0  0  0  0  0  0  0  0  0  0  0  0
    3.7965  -46.3978  -30.5791 H   0  0  0  0  0  0  0  0  0  0  0  0
    5.4183  -47.2584  -32.3612 C   0  0  0  0  0  0  0  0  0  0  0  0
    6.5952  -47.3068  -33.1957 O   0  0  0  0  0  0  0  0  0  0  0  0
    6.5743  -46.5709  -33.8272 H   0  0  0  0  0  0  0  0  0  0  0  0
   11.0413  -48.3243  -28.1102 O   0  0  0  0  0  0  0  0  0  0  0  0
   10.6044  -49.6209  -28.6959 C   0  0  0  0  0  0  0  0  0  0  0  0
    9.9140  -50.4488  -27.6350 C   0  0  0  0  0  0  0  0  0  0  0  0
    9.4943  -51.7344  -28.1532 O   0  0  0  0  0  0  0  0  0  0  0  0
   11.7614  -50.3278  -29.2382 C   0  0  0  0  0  0  0  0  0  0  0  0
   12.3566  -49.5159  -30.3586 O   0  0  0  0  0  0  0  0  0  0  0  0
   11.3987  -51.6507  -29.7540 C   0  0  0  0  0  0  0  0  0  0  0  0
   12.6048  -52.3693  -30.1061 O   0  0  0  0  0  0  0  0  0  0  0  0
   10.6040  -52.4787  -28.7416 C   0  0  0  0  0  0  0  0  0  0  0  0
   11.4625  -52.9031  -27.7161 O   0  0  0  0  0  0  0  0  0  0  0  0
   11.7002  -49.4095  -31.0648 H   0  0  0  0  0  0  0  0  0  0  0  0
   13.1513  -52.4914  -29.3140 H   0  0  0  0  0  0  0  0  0  0  0  0
   11.8232  -52.1293  -27.2555 H   0  0  0  0  0  0  0  0  0  0  0  0
    8.6932  -49.6892  -27.1041 C   0  0  0  0  0  0  0  0  0  0  0  0
    9.0927  -48.8292  -26.0269 O   0  0  0  0  0  0  0  0  0  0  0  0
    9.4756  -49.3622  -25.3126 H   0  0  0  0  0  0  0  0  0  0  0  0
 23 24  2  0  0  0
 24 25  1  0  0  0
 24 26  1  0  0  0
 26 15  1  0  0  0
 15 16  1  0  0  0
 15 18  1  0  0  0
 16 17  1  0  0  0
 16 32  1  0  0  0
 17 21  1  0  0  0
 32 33  1  0  0  0
 32 35  1  0  0  0
 35 36  1  0  0  0
 35 38  1  0  0  0
 38 39  1  0  0  0
 18 19  1  0  0  0
 18 20  1  0  0  0
 20 21  1  0  0  0
 21 28  1  0  0  0
 21 14  1  0  0  0
 28 29  1  0  0  0
 28 30  2  0  0  0
 14  1  1  0  0  0
  1  2  1  0  0  0
  1  6  1  0  0  0
  2  3  1  0  0  0
  2  5  1  0  0  0
  3  4  1  0  0  0
  3 11  1  0  0  0
  4  8  1  0  0  0
 11 12  1  0  0  0
  6  7  1  0  0  0
  6  8  1  0  0  0
  8 41  1  0  0  0
 41 42  1  0  0  0
 42 43  1  0  0  0
 42 45  1  0  0  0
 43 44  1  0  0  0
 43 54  1  0  0  0
 44 49  1  0  0  0
 54 55  1  0  0  0
 45 46  1  0  0  0
 45 47  1  0  0  0
 47 48  1  0  0  0
 47 49  1  0  0  0
 49 50  1  0  0  0
 26 27  1  0  0  0
 33 34  1  0  0  0
 36 37  1  0  0  0
 39 40  1  0  0  0
 19 22  1  0  0  0
 29 31  1  0  0  0
 12 13  1  0  0  0
  5  9  1  0  0  0
  7 10  1  0  0  0
 55 56  1  0  0  0
 46 51  1  0  0  0
 48 52  1  0  0  0
 50 53  1  0  0  0
M  END
> <minimizedAffinity>
-9.08473

$$$$
5B2D_SLT_A_606


 56 58  0  0  0  0  0  0  0  0999 V2000
    8.8457  -48.1416  -27.7793 C   0  0  0  0  0  0  0  0  0  0  0  0
    7.5741  -48.9221  -27.8073 C   0  0  0  0  0  0  0  0  0  0  0  0
    7.8168  -50.4091  -27.6799 C   0  0  0  0  0  0  0  0  0  0  0  0
    8.7416  -50.9026  -28.7130 O   0  0  0  0  0  0  0  0  0  0  0  0
    6.9051  -48.6656  -29.0468 O   0  0  0  0  0  0  0  0  0  0  0  0
    9.8044  -48.6249  -28.8157 C   0  0  0  0  0  0  0  0  0  0  0  0
   11.0579  -47.9729  -28.6289 O   0  0  0  0  0  0  0  0  0  0  0  0
   10.0189  -50.1536  -28.7338 C   0  0  0  0  0  0  0  0  0  0  0  0
    7.4672  -48.9533  -29.7832 H   0  0  0  0  0  0  0  0  0  0  0  0
   11.4097  -48.1937  -27.7523 H   0  0  0  0  0  0  0  0  0  0  0  0
    6.5062  -51.1290  -27.8099 C   0  0  0  0  0  0  0  0  0  0  0  0
    6.3189  -51.5453  -29.1749 O   0  0  0  0  0  0  0  0  0  0  0  0
    6.3176  -50.7666  -29.7532 H   0  0  0  0  0  0  0  0  0  0  0  0
    8.5283  -46.7107  -28.0071 O   0  0  0  0  0  0  0  0  0  0  0  0
    9.0098  -43.7734  -28.9539 C   0  0  0  0  0  0  0  0  0  0  0  0
   10.4286  -44.1197  -28.6367 C   0  0  0  0  0  0  0  0  0  0  0  0
   10.5614  -45.4087  -27.9334 O   0  0  0  0  0  0  0  0  0  0  0  0
    8.1990  -43.6594  -27.7327 C   0  0  0  0  0  0  0  0  0  0  0  0
    6.7911  -43.8402  -28.0630 O   0  0  0  0  0  0  0  0  0  0  0  0
    8.5804  -44.6312  -26.6803 C   0  0  0  0  0  0  0  0  0  0  0  0
    9.4180  -45.7788  -27.1461 C   0  0  0  0  0  0  0  0  0  0  0  0
    6.6546  -44.7321  -28.4192 H   0  0  0  0  0  0  0  0  0  0  0  0
    7.0202  -42.9170  -30.7816 O   0  0  0  0  0  0  0  0  0  0  0  0
    7.9198  -42.1266  -30.5754 C   0  0  0  0  0  0  0  0  0  0  0  0
    7.9296  -40.7828  -31.2824 C   0  0  0  0  0  0  0  0  0  0  0  0
    8.9966  -42.4650  -29.6472 N   0  0  0  0  0  0  0  0  0  0  0  0
    9.7196  -41.8176  -29.4815 H   0  0  0  0  0  0  0  0  0  0  0  0
    9.7699  -46.6892  -26.0281 C   0  0  0  0  0  0  0  0  0  0  0  0
   10.9626  -47.1099  -25.9041 O   0  0  0  0  0  0  0  0  0  0  0  0
    8.9301  -46.9402  -25.1421 O   0  0  0  0  0  0  0  0  0  0  0  0
   11.5967  -46.9231  -26.5682 H   0  0  0  0  0  0  0  0  0  0  0  0
   11.2207  -44.1891  -29.9161 C   0  0  0  0  0  0  0  0  0  0  0  0
   10.6301  -45.1130  -30.7742 O   0  0  0  0  0  0  0  0  0  0  0  0
   10.6133  -45.9846  -30.3488 H   0  0  0  0  0  0  0  0  0  0  0  0
   12.6326  -44.6434  -29.5965 C   0  0  0  0  0  0  0  0  0  0  0  0
   13.4729  -43.5302  -29.5364 O   0  0  0  0  0  0  0  0  0  0  0  0
   13.4633  -43.0713  -30.3909 H   0  0  0  0  0  0  0  0  0  0  0  0
   13.1155  -45.5899  -30.6775 C   0  0  0  0  0  0  0  0  0  0  0  0
   12.9900  -46.9519  -30.2158 O   0  0  0  0  0  0  0  0  0  0  0  0
   13.5264  -47.0732  -29.4168 H   0  0  0  0  0  0  0  0  0  0  0  0
   10.7812  -50.5853  -29.8303 O   0  0  0  0  0  0  0  0  0  0  0  0
   11.7493  -51.6225  -29.3804 C   0  0  0  0  0  0  0  0  0  0  0  0
   11.1019  -52.9872  -29.4585 C   0  0  0  0  0  0  0  0  0  0  0  0
   11.9998  -54.0284  -29.0033 O   0  0  0  0  0  0  0  0  0  0  0  0
   12.1835  -51.3284  -28.0174 C   0  0  0  0  0  0  0  0  0  0  0  0
   12.9117  -50.0100  -28.0040 O   0  0  0  0  0  0  0  0  0  0  0  0
   13.0759  -52.3667  -27.4944 C   0  0  0  0  0  0  0  0  0  0  0  0
   13.3228  -52.1162  -26.0904 O   0  0  0  0  0  0  0  0  0  0  0  0
   12.4971  -53.7744  -27.6544 C   0  0  0  0  0  0  0  0  0  0  0  0
   11.4464  -53.9486  -26.7410 O   0  0  0  0  0  0  0  0  0  0  0  0
   13.6954  -50.0676  -28.5727 H   0  0  0  0  0  0  0  0  0  0  0  0
   12.4858  -52.1606  -25.6020 H   0  0  0  0  0  0  0  0  0  0  0  0
   10.7421  -53.3097  -26.9327 H   0  0  0  0  0  0  0  0  0  0  0  0
   10.6793  -53.2735  -30.9037 C   0  0  0  0  0  0  0  0  0  0  0  0
    9.3682  -52.7382  -31.1366 O   0  0  0  0  0  0  0  0  0  0  0  0
    8.7368  -53.1533  -30.5285 H   0  0  0  0  0  0  0  0  0  0  0  0
 23 24  2  0  0  0
 24 25  1  0  0  0
 24 26  1  0  0  0
 26 15  1  0  0  0
 15 16  1  0  0  0
 15 18  1  0  0  0
 16 17  1  0  0  0
 16 32  1  0  0  0
 17 21  1  0  0  0
 32 33  1  0  0  0
 32 35  1  0  0  0
 35 36  1  0  0  0
 35 38  1  0  0  0
 38 39  1  0  0  0
 18 19  1  0  0  0
 18 20  1  0  0  0
 20 21  1  0  0  0
 21 28  1  0  0  0
 21 14  1  0  0  0
 28 29  1  0  0  0
 28 30  2  0  0  0
 14  1  1  0  0  0
  1  2  1  0  0  0
  1  6  1  0  0  0
  2  3  1  0  0  0
  2  5  1  0  0  0
  3  4  1  0  0  0
  3 11  1  0  0  0
  4  8  1  0  0  0
 11 12  1  0  0  0
  6  7  1  0  0  0
  6  8  1  0  0  0
  8 41  1  0  0  0
 41 42  1  0  0  0
 42 43  1  0  0  0
 42 45  1  0  0  0
 43 44  1  0  0  0
 43 54  1  0  0  0
 44 49  1  0  0  0
 54 55  1  0  0  0
 45 46  1  0  0  0
 45 47  1  0  0  0
 47 48  1  0  0  0
 47 49  1  0  0  0
 49 50  1  0  0  0
 26 27  1  0  0  0
 33 34  1  0  0  0
 36 37  1  0  0  0
 39 40  1  0  0  0
 19 22  1  0  0  0
 29 31  1  0  0  0
 12 13  1  0  0  0
  5  9  1  0  0  0
  7 10  1  0  0  0
 55 56  1  0  0  0
 46 51  1  0  0  0
 48 52  1  0  0  0
 50 53  1  0  0  0
M  END
> <minimizedAffinity>
-8.93105

$$$$
5B2D_SLT_A_606


 56 58  0  0  0  0  0  0  0  0999 V2000
    8.9582  -44.7202  -29.3666 C   0  0  0  0  0  0  0  0  0  0  0  0
    9.1992  -43.2847  -29.0373 C   0  0  0  0  0  0  0  0  0  0  0  0
    8.3342  -42.8115  -27.8910 C   0  0  0  0  0  0  0  0  0  0  0  0
    6.9045  -43.0419  -28.1536 O   0  0  0  0  0  0  0  0  0  0  0  0
    8.9099  -42.4933  -30.1947 O   0  0  0  0  0  0  0  0  0  0  0  0
    7.5137  -44.9826  -29.6336 C   0  0  0  0  0  0  0  0  0  0  0  0
    7.3134  -46.3876  -29.7643 O   0  0  0  0  0  0  0  0  0  0  0  0
    6.6120  -44.4528  -28.4953 C   0  0  0  0  0  0  0  0  0  0  0  0
    7.9784  -42.6077  -30.4399 H   0  0  0  0  0  0  0  0  0  0  0  0
    7.5619  -46.8280  -28.9365 H   0  0  0  0  0  0  0  0  0  0  0  0
    8.5644  -41.3431  -27.6816 C   0  0  0  0  0  0  0  0  0  0  0  0
    9.8666  -40.9842  -28.1785 O   0  0  0  0  0  0  0  0  0  0  0  0
   10.5448  -41.4879  -27.7018 H   0  0  0  0  0  0  0  0  0  0  0  0
    9.7687  -45.0756  -30.5570 O   0  0  0  0  0  0  0  0  0  0  0  0
    9.6747  -48.1366  -29.9424 C   0  0  0  0  0  0  0  0  0  0  0  0
   10.4802  -47.7158  -28.7558 C   0  0  0  0  0  0  0  0  0  0  0  0
   10.9203  -46.3106  -28.8299 O   0  0  0  0  0  0  0  0  0  0  0  0
   10.4478  -48.0143  -31.1870 C   0  0  0  0  0  0  0  0  0  0  0  0
    9.5366  -47.9210  -32.3204 O   0  0  0  0  0  0  0  0  0  0  0  0
   11.3614  -46.8469  -31.2000 C   0  0  0  0  0  0  0  0  0  0  0  0
   11.0786  -45.8051  -30.1654 C   0  0  0  0  0  0  0  0  0  0  0  0
    8.9958  -47.1203  -32.2355 H   0  0  0  0  0  0  0  0  0  0  0  0
    7.0877  -49.2032  -30.3920 O   0  0  0  0  0  0  0  0  0  0  0  0
    7.9279  -49.9998  -30.0228 C   0  0  0  0  0  0  0  0  0  0  0  0
    7.5589  -51.4595  -29.8267 C   0  0  0  0  0  0  0  0  0  0  0  0
    9.2965  -49.5572  -29.7649 N   0  0  0  0  0  0  0  0  0  0  0  0
    9.9730  -50.2091  -29.4707 H   0  0  0  0  0  0  0  0  0  0  0  0
   12.0498  -44.6852  -30.2363 C   0  0  0  0  0  0  0  0  0  0  0  0
   12.1629  -44.0106  -31.3073 O   0  0  0  0  0  0  0  0  0  0  0  0
   12.6619  -44.3265  -29.2116 O   0  0  0  0  0  0  0  0  0  0  0  0
   11.7043  -44.2772  -32.0796 H   0  0  0  0  0  0  0  0  0  0  0  0
    9.6557  -47.8936  -27.5078 C   0  0  0  0  0  0  0  0  0  0  0  0
    8.3054  -47.9168  -27.8468 O   0  0  0  0  0  0  0  0  0  0  0  0
    8.0674  -47.0841  -28.2837 H   0  0  0  0  0  0  0  0  0  0  0  0
    9.9119  -46.7223  -26.5780 C   0  0  0  0  0  0  0  0  0  0  0  0
   10.9548  -47.0440  -25.7075 O   0  0  0  0  0  0  0  0  0  0  0  0
   10.7125  -47.8263  -25.1877 H   0  0  0  0  0  0  0  0  0  0  0  0
    8.6563  -46.4247  -25.7827 C   0  0  0  0  0  0  0  0  0  0  0  0
    8.7725  -45.1233  -25.1689 O   0  0  0  0  0  0  0  0  0  0  0  0
    9.5405  -45.1126  -24.5765 H   0  0  0  0  0  0  0  0  0  0  0  0
    5.2634  -44.5597  -28.8693 O   0  0  0  0  0  0  0  0  0  0  0  0
    4.6009  -45.5985  -28.0343 C   0  0  0  0  0  0  0  0  0  0  0  0
    4.9682  -45.3909  -26.5819 C   0  0  0  0  0  0  0  0  0  0  0  0
    4.3667  -46.3977  -25.7321 O   0  0  0  0  0  0  0  0  0  0  0  0
    5.0064  -46.9252  -28.4904 C   0  0  0  0  0  0  0  0  0  0  0  0
    4.5320  -47.1281  -29.9055 O   0  0  0  0  0  0  0  0  0  0  0  0
    4.4466  -47.9854  -27.6475 C   0  0  0  0  0  0  0  0  0  0  0  0
    5.0266  -49.2540  -28.0338 O   0  0  0  0  0  0  0  0  0  0  0  0
    4.7082  -47.7518  -26.1578 C   0  0  0  0  0  0  0  0  0  0  0  0
    6.0641  -47.9871  -25.8843 O   0  0  0  0  0  0  0  0  0  0  0  0
    3.5639  -47.0741  -29.9328 H   0  0  0  0  0  0  0  0  0  0  0  0
    5.9858  -49.2276  -27.8917 H   0  0  0  0  0  0  0  0  0  0  0  0
    6.6088  -47.3618  -26.3875 H   0  0  0  0  0  0  0  0  0  0  0  0
    4.5091  -44.0004  -26.1294 C   0  0  0  0  0  0  0  0  0  0  0  0
    3.4119  -43.5665  -26.9465 O   0  0  0  0  0  0  0  0  0  0  0  0
    3.6952  -43.5260  -27.8734 H   0  0  0  0  0  0  0  0  0  0  0  0
 23 24  2  0  0  0
 24 25  1  0  0  0
 24 26  1  0  0  0
 26 15  1  0  0  0
 15 16  1  0  0  0
 15 18  1  0  0  0
 16 17  1  0  0  0
 16 32  1  0  0  0
 17 21  1  0  0  0
 32 33  1  0  0  0
 32 35  1  0  0  0
 35 36  1  0  0  0
 35 38  1  0  0  0
 38 39  1  0  0  0
 18 19  1  0  0  0
 18 20  1  0  0  0
 20 21  1  0  0  0
 21 28  1  0  0  0
 21 14  1  0  0  0
 28 29  1  0  0  0
 28 30  2  0  0  0
 14  1  1  0  0  0
  1  2  1  0  0  0
  1  6  1  0  0  0
  2  3  1  0  0  0
  2  5  1  0  0  0
  3  4  1  0  0  0
  3 11  1  0  0  0
  4  8  1  0  0  0
 11 12  1  0  0  0
  6  7  1  0  0  0
  6  8  1  0  0  0
  8 41  1  0  0  0
 41 42  1  0  0  0
 42 43  1  0  0  0
 42 45  1  0  0  0
 43 44  1  0  0  0
 43 54  1  0  0  0
 44 49  1  0  0  0
 54 55  1  0  0  0
 45 46  1  0  0  0
 45 47  1  0  0  0
 47 48  1  0  0  0
 47 49  1  0  0  0
 49 50  1  0  0  0
 26 27  1  0  0  0
 33 34  1  0  0  0
 36 37  1  0  0  0
 39 40  1  0  0  0
 19 22  1  0  0  0
 29 31  1  0  0  0
 12 13  1  0  0  0
  5  9  1  0  0  0
  7 10  1  0  0  0
 55 56  1  0  0  0
 46 51  1  0  0  0
 48 52  1  0  0  0
 50 53  1  0  0  0
M  END
> <minimizedAffinity>
-8.90237

$$$$
5B2D_SLT_A_606


 56 58  0  0  0  0  0  0  0  0999 V2000
    9.5648  -47.0585  -29.6442 C   0  0  0  0  0  0  0  0  0  0  0  0
   10.8579  -46.4328  -30.0487 C   0  0  0  0  0  0  0  0  0  0  0  0
   10.9500  -44.9872  -29.6153 C   0  0  0  0  0  0  0  0  0  0  0  0
    9.8185  -44.1922  -30.1190 O   0  0  0  0  0  0  0  0  0  0  0  0
   10.9735  -46.4983  -31.4742 O   0  0  0  0  0  0  0  0  0  0  0  0
    8.3993  -46.2691  -30.1394 C   0  0  0  0  0  0  0  0  0  0  0  0
    7.2036  -46.8048  -29.5784 O   0  0  0  0  0  0  0  0  0  0  0  0
    8.5083  -44.7765  -29.7520 C   0  0  0  0  0  0  0  0  0  0  0  0
   10.2442  -46.0045  -31.8807 H   0  0  0  0  0  0  0  0  0  0  0  0
    7.2398  -46.7334  -28.6117 H   0  0  0  0  0  0  0  0  0  0  0  0
   12.2308  -44.4035  -30.1368 C   0  0  0  0  0  0  0  0  0  0  0  0
   12.0446  -43.9724  -31.4973 O   0  0  0  0  0  0  0  0  0  0  0  0
   11.7898  -44.7313  -32.0450 H   0  0  0  0  0  0  0  0  0  0  0  0
    9.5147  -48.4370  -30.1896 O   0  0  0  0  0  0  0  0  0  0  0  0
    7.4217  -49.5593  -28.1607 C   0  0  0  0  0  0  0  0  0  0  0  0
    8.5159  -49.2701  -27.1847 C   0  0  0  0  0  0  0  0  0  0  0  0
    9.7893  -48.9160  -27.8382 O   0  0  0  0  0  0  0  0  0  0  0  0
    7.7646  -50.6932  -29.0314 C   0  0  0  0  0  0  0  0  0  0  0  0
    6.9731  -50.6272  -30.2533 O   0  0  0  0  0  0  0  0  0  0  0  0
    9.2030  -50.7489  -29.3861 C   0  0  0  0  0  0  0  0  0  0  0  0
    9.9680  -49.4873  -29.1442 C   0  0  0  0  0  0  0  0  0  0  0  0
    7.1912  -49.8148  -30.7363 H   0  0  0  0  0  0  0  0  0  0  0  0
    4.8027  -48.6698  -28.7791 O   0  0  0  0  0  0  0  0  0  0  0  0
    4.8971  -49.3896  -27.8045 C   0  0  0  0  0  0  0  0  0  0  0  0
    3.6593  -49.7529  -27.0037 C   0  0  0  0  0  0  0  0  0  0  0  0
    6.2014  -49.9083  -27.3980 N   0  0  0  0  0  0  0  0  0  0  0  0
    6.2694  -50.4948  -26.6102 H   0  0  0  0  0  0  0  0  0  0  0  0
   11.3995  -49.6369  -29.5066 C   0  0  0  0  0  0  0  0  0  0  0  0
   11.7284  -49.8566  -30.7142 O   0  0  0  0  0  0  0  0  0  0  0  0
   12.2828  -49.4232  -28.6538 O   0  0  0  0  0  0  0  0  0  0  0  0
   11.0670  -50.0176  -31.3581 H   0  0  0  0  0  0  0  0  0  0  0  0
    8.0998  -48.1266  -26.2968 C   0  0  0  0  0  0  0  0  0  0  0  0
    7.1546  -47.3485  -26.9601 O   0  0  0  0  0  0  0  0  0  0  0  0
    7.5378  -47.0053  -27.7824 H   0  0  0  0  0  0  0  0  0  0  0  0
    9.3165  -47.2729  -25.9915 C   0  0  0  0  0  0  0  0  0  0  0  0
    9.6054  -47.3527  -24.6280 O   0  0  0  0  0  0  0  0  0  0  0  0
    8.8455  -47.0323  -24.1172 H   0  0  0  0  0  0  0  0  0  0  0  0
    9.0311  -45.8332  -26.3697 C   0  0  0  0  0  0  0  0  0  0  0  0
    8.4767  -45.1376  -25.2327 O   0  0  0  0  0  0  0  0  0  0  0  0
    7.6523  -45.5697  -24.9599 H   0  0  0  0  0  0  0  0  0  0  0  0
    7.4911  -44.0462  -30.3861 O   0  0  0  0  0  0  0  0  0  0  0  0
    6.8706  -43.1125  -29.4071 C   0  0  0  0  0  0  0  0  0  0  0  0
    7.7692  -41.9114  -29.2133 C   0  0  0  0  0  0  0  0  0  0  0  0
    7.2178  -40.9854  -28.2458 O   0  0  0  0  0  0  0  0  0  0  0  0
    6.6479  -43.8067  -28.1418 C   0  0  0  0  0  0  0  0  0  0  0  0
    5.6696  -44.9310  -28.3601 O   0  0  0  0  0  0  0  0  0  0  0  0
    6.1139  -42.9083  -27.1145 C   0  0  0  0  0  0  0  0  0  0  0  0
    6.0878  -43.6026  -25.8447 O   0  0  0  0  0  0  0  0  0  0  0  0
    6.9405  -41.6290  -26.9651 C   0  0  0  0  0  0  0  0  0  0  0  0
    8.1569  -41.9356  -26.3364 O   0  0  0  0  0  0  0  0  0  0  0  0
    4.8239  -44.5687  -28.6672 H   0  0  0  0  0  0  0  0  0  0  0  0
    6.9914  -43.8495  -25.5926 H   0  0  0  0  0  0  0  0  0  0  0  0
    8.6587  -42.5558  -26.8881 H   0  0  0  0  0  0  0  0  0  0  0  0
    7.9636  -41.1936  -30.5535 C   0  0  0  0  0  0  0  0  0  0  0  0
    9.2480  -41.5308  -31.0980 O   0  0  0  0  0  0  0  0  0  0  0  0
    9.9434  -41.2542  -30.4810 H   0  0  0  0  0  0  0  0  0  0  0  0
 23 24  2  0  0  0
 24 25  1  0  0  0
 24 26  1  0  0  0
 26 15  1  0  0  0
 15 16  1  0  0  0
 15 18  1  0  0  0
 16 17  1  0  0  0
 16 32  1  0  0  0
 17 21  1  0  0  0
 32 33  1  0  0  0
 32 35  1  0  0  0
 35 36  1  0  0  0
 35 38  1  0  0  0
 38 39  1  0  0  0
 18 19  1  0  0  0
 18 20  1  0  0  0
 20 21  1  0  0  0
 21 28  1  0  0  0
 21 14  1  0  0  0
 28 29  1  0  0  0
 28 30  2  0  0  0
 14  1  1  0  0  0
  1  2  1  0  0  0
  1  6  1  0  0  0
  2  3  1  0  0  0
  2  5  1  0  0  0
  3  4  1  0  0  0
  3 11  1  0  0  0
  4  8  1  0  0  0
 11 12  1  0  0  0
  6  7  1  0  0  0
  6  8  1  0  0  0
  8 41  1  0  0  0
 41 42  1  0  0  0
 42 43  1  0  0  0
 42 45  1  0  0  0
 43 44  1  0  0  0
 43 54  1  0  0  0
 44 49  1  0  0  0
 54 55  1  0  0  0
 45 46  1  0  0  0
 45 47  1  0  0  0
 47 48  1  0  0  0
 47 49  1  0  0  0
 49 50  1  0  0  0
 26 27  1  0  0  0
 33 34  1  0  0  0
 36 37  1  0  0  0
 39 40  1  0  0  0
 19 22  1  0  0  0
 29 31  1  0  0  0
 12 13  1  0  0  0
  5  9  1  0  0  0
  7 10  1  0  0  0
 55 56  1  0  0  0
 46 51  1  0  0  0
 48 52  1  0  0  0
 50 53  1  0  0  0
M  END
> <minimizedAffinity>
-8.72948

$$$$
5B2D_SLT_A_606


 56 58  0  0  0  0  0  0  0  0999 V2000
    9.4130  -44.9625  -28.2939 C   0  0  0  0  0  0  0  0  0  0  0  0
   10.5910  -44.5097  -29.0904 C   0  0  0  0  0  0  0  0  0  0  0  0
   11.0980  -45.5895  -30.0195 C   0  0  0  0  0  0  0  0  0  0  0  0
   11.4185  -46.8290  -29.2936 O   0  0  0  0  0  0  0  0  0  0  0  0
   11.6408  -44.1422  -28.1891 O   0  0  0  0  0  0  0  0  0  0  0  0
    9.7099  -46.2216  -27.5501 C   0  0  0  0  0  0  0  0  0  0  0  0
    8.5079  -46.7039  -26.9552 O   0  0  0  0  0  0  0  0  0  0  0  0
   10.2830  -47.3172  -28.4780 C   0  0  0  0  0  0  0  0  0  0  0  0
   11.8969  -44.9134  -27.6594 H   0  0  0  0  0  0  0  0  0  0  0  0
    7.8588  -46.8980  -27.6493 H   0  0  0  0  0  0  0  0  0  0  0  0
   12.3331  -45.0938  -30.7136 C   0  0  0  0  0  0  0  0  0  0  0  0
   13.4911  -45.7432  -30.1580 O   0  0  0  0  0  0  0  0  0  0  0  0
   13.5512  -45.5425  -29.2109 H   0  0  0  0  0  0  0  0  0  0  0  0
    9.0414  -43.8856  -27.3439 O   0  0  0  0  0  0  0  0  0  0  0  0
    6.1231  -44.9809  -27.5438 C   0  0  0  0  0  0  0  0  0  0  0  0
    6.2178  -44.4032  -28.9189 C   0  0  0  0  0  0  0  0  0  0  0  0
    7.4268  -43.5822  -29.1146 O   0  0  0  0  0  0  0  0  0  0  0  0
    6.0724  -43.9263  -26.5206 C   0  0  0  0  0  0  0  0  0  0  0  0
    6.4961  -44.4709  -25.2370 O   0  0  0  0  0  0  0  0  0  0  0  0
    6.9091  -42.7473  -26.8487 C   0  0  0  0  0  0  0  0  0  0  0  0
    7.9312  -42.9690  -27.9173 C   0  0  0  0  0  0  0  0  0  0  0  0
    7.4169  -44.7691  -25.3003 H   0  0  0  0  0  0  0  0  0  0  0  0
    5.8450  -47.4420  -26.1662 O   0  0  0  0  0  0  0  0  0  0  0  0
    4.8444  -47.0352  -26.7229 C   0  0  0  0  0  0  0  0  0  0  0  0
    3.5567  -47.8369  -26.6561 C   0  0  0  0  0  0  0  0  0  0  0  0
    4.8753  -45.7736  -27.4598 N   0  0  0  0  0  0  0  0  0  0  0  0
    4.0594  -45.4480  -27.9043 H   0  0  0  0  0  0  0  0  0  0  0  0
    8.7084  -41.7357  -28.1959 C   0  0  0  0  0  0  0  0  0  0  0  0
    9.1384  -41.0260  -27.2336 O   0  0  0  0  0  0  0  0  0  0  0  0
    9.0462  -41.4639  -29.3644 O   0  0  0  0  0  0  0  0  0  0  0  0
    8.8866  -41.2274  -26.3539 H   0  0  0  0  0  0  0  0  0  0  0  0
    6.2309  -45.5218  -29.9276 C   0  0  0  0  0  0  0  0  0  0  0  0
    7.5258  -45.6922  -30.4102 O   0  0  0  0  0  0  0  0  0  0  0  0
    7.8266  -44.8692  -30.8263 H   0  0  0  0  0  0  0  0  0  0  0  0
    5.3175  -45.1541  -31.0820 C   0  0  0  0  0  0  0  0  0  0  0  0
    5.2538  -43.7641  -31.1950 O   0  0  0  0  0  0  0  0  0  0  0  0
    4.9060  -43.3883  -30.3712 H   0  0  0  0  0  0  0  0  0  0  0  0
    3.9308  -45.7097  -30.8256 C   0  0  0  0  0  0  0  0  0  0  0  0
    4.0397  -47.0012  -30.1901 O   0  0  0  0  0  0  0  0  0  0  0  0
    4.5284  -47.6065  -30.7695 H   0  0  0  0  0  0  0  0  0  0  0  0
   10.7114  -48.4120  -27.7114 O   0  0  0  0  0  0  0  0  0  0  0  0
   10.2035  -49.6707  -28.3221 C   0  0  0  0  0  0  0  0  0  0  0  0
   10.9192  -49.9234  -29.6304 C   0  0  0  0  0  0  0  0  0  0  0  0
   10.4373  -51.1268  -30.2763 O   0  0  0  0  0  0  0  0  0  0  0  0
    8.7614  -49.5680  -28.5279 C   0  0  0  0  0  0  0  0  0  0  0  0
    8.0806  -49.4197  -27.1925 O   0  0  0  0  0  0  0  0  0  0  0  0
    8.2223  -50.7509  -29.2045 C   0  0  0  0  0  0  0  0  0  0  0  0
    6.8351  -50.5128  -29.5421 O   0  0  0  0  0  0  0  0  0  0  0  0
    8.9920  -51.1000  -30.4805 C   0  0  0  0  0  0  0  0  0  0  0  0
    8.6897  -50.1574  -31.4750 O   0  0  0  0  0  0  0  0  0  0  0  0
    8.2606  -50.2028  -26.6491 H   0  0  0  0  0  0  0  0  0  0  0  0
    6.7751  -49.7605  -30.1515 H   0  0  0  0  0  0  0  0  0  0  0  0
    8.9738  -49.2771  -31.1831 H   0  0  0  0  0  0  0  0  0  0  0  0
   12.4255  -50.0487  -29.3763 C   0  0  0  0  0  0  0  0  0  0  0  0
   13.0964  -48.8826  -29.8762 O   0  0  0  0  0  0  0  0  0  0  0  0
   12.9366  -48.8015  -30.8295 H   0  0  0  0  0  0  0  0  0  0  0  0
 23 24  2  0  0  0
 24 25  1  0  0  0
 24 26  1  0  0  0
 26 15  1  0  0  0
 15 16  1  0  0  0
 15 18  1  0  0  0
 16 17  1  0  0  0
 16 32  1  0  0  0
 17 21  1  0  0  0
 32 33  1  0  0  0
 32 35  1  0  0  0
 35 36  1  0  0  0
 35 38  1  0  0  0
 38 39  1  0  0  0
 18 19  1  0  0  0
 18 20  1  0  0  0
 20 21  1  0  0  0
 21 28  1  0  0  0
 21 14  1  0  0  0
 28 29  1  0  0  0
 28 30  2  0  0  0
 14  1  1  0  0  0
  1  2  1  0  0  0
  1  6  1  0  0  0
  2  3  1  0  0  0
  2  5  1  0  0  0
  3  4  1  0  0  0
  3 11  1  0  0  0
  4  8  1  0  0  0
 11 12  1  0  0  0
  6  7  1  0  0  0
  6  8  1  0  0  0
  8 41  1  0  0  0
 41 42  1  0  0  0
 42 43  1  0  0  0
 42 45  1  0  0  0
 43 44  1  0  0  0
 43 54  1  0  0  0
 44 49  1  0  0  0
 54 55  1  0  0  0
 45 46  1  0  0  0
 45 47  1  0  0  0
 47 48  1  0  0  0
 47 49  1  0  0  0
 49 50  1  0  0  0
 26 27  1  0  0  0
 33 34  1  0  0  0
 36 37  1  0  0  0
 39 40  1  0  0  0
 19 22  1  0  0  0
 29 31  1  0  0  0
 12 13  1  0  0  0
  5  9  1  0  0  0
  7 10  1  0  0  0
 55 56  1  0  0  0
 46 51  1  0  0  0
 48 52  1  0  0  0
 50 53  1  0  0  0
M  END
> <minimizedAffinity>
-8.71724

$$$$
5B2D_SLT_A_606


 56 58  0  0  0  0  0  0  0  0999 V2000
    5.9797  -43.7055  -26.7457 C   0  0  0  0  0  0  0  0  0  0  0  0
    6.6210  -42.5172  -27.3811 C   0  0  0  0  0  0  0  0  0  0  0  0
    7.5061  -42.9031  -28.5446 C   0  0  0  0  0  0  0  0  0  0  0  0
    8.5286  -43.8859  -28.1513 O   0  0  0  0  0  0  0  0  0  0  0  0
    7.4141  -41.8432  -26.3981 O   0  0  0  0  0  0  0  0  0  0  0  0
    6.9953  -44.7210  -26.3405 C   0  0  0  0  0  0  0  0  0  0  0  0
    6.3244  -45.9017  -25.9079 O   0  0  0  0  0  0  0  0  0  0  0  0
    7.9440  -45.0835  -27.5057 C   0  0  0  0  0  0  0  0  0  0  0  0
    8.1074  -42.4407  -26.0769 H   0  0  0  0  0  0  0  0  0  0  0  0
    5.7991  -46.2616  -26.6397 H   0  0  0  0  0  0  0  0  0  0  0  0
    8.1850  -41.6715  -29.0691 C   0  0  0  0  0  0  0  0  0  0  0  0
    9.5644  -41.6701  -28.6582 O   0  0  0  0  0  0  0  0  0  0  0  0
    9.6132  -41.6773  -27.6895 H   0  0  0  0  0  0  0  0  0  0  0  0
    5.2119  -43.2521  -25.5603 O   0  0  0  0  0  0  0  0  0  0  0  0
    3.4603  -45.7975  -26.0178 C   0  0  0  0  0  0  0  0  0  0  0  0
    2.9958  -45.0155  -27.2037 C   0  0  0  0  0  0  0  0  0  0  0  0
    3.4685  -43.6190  -27.1913 O   0  0  0  0  0  0  0  0  0  0  0  0
    2.9707  -45.2102  -24.7620 C   0  0  0  0  0  0  0  0  0  0  0  0
    3.8195  -45.6405  -23.6583 O   0  0  0  0  0  0  0  0  0  0  0  0
    2.9182  -43.7289  -24.7863 C   0  0  0  0  0  0  0  0  0  0  0  0
    3.7053  -43.0814  -25.8803 C   0  0  0  0  0  0  0  0  0  0  0  0
    4.7221  -45.3139  -23.7983 H   0  0  0  0  0  0  0  0  0  0  0  0
    4.7714  -48.1396  -25.1078 O   0  0  0  0  0  0  0  0  0  0  0  0
    3.6875  -48.3128  -25.6292 C   0  0  0  0  0  0  0  0  0  0  0  0
    3.1223  -49.7157  -25.7627 C   0  0  0  0  0  0  0  0  0  0  0  0
    2.9232  -47.1727  -26.1310 N   0  0  0  0  0  0  0  0  0  0  0  0
    2.0436  -47.3203  -26.5478 H   0  0  0  0  0  0  0  0  0  0  0  0
    3.5813  -41.6029  -25.8428 C   0  0  0  0  0  0  0  0  0  0  0  0
    2.4312  -41.0625  -25.8488 O   0  0  0  0  0  0  0  0  0  0  0  0
    4.5956  -40.8974  -25.6790 O   0  0  0  0  0  0  0  0  0  0  0  0
    1.6664  -41.5898  -25.9716 H   0  0  0  0  0  0  0  0  0  0  0  0
    3.4942  -45.6780  -28.4614 C   0  0  0  0  0  0  0  0  0  0  0  0
    4.2969  -44.7847  -29.1658 O   0  0  0  0  0  0  0  0  0  0  0  0
    3.7810  -43.9948  -29.3912 H   0  0  0  0  0  0  0  0  0  0  0  0
    2.3038  -46.0577  -29.3222 C   0  0  0  0  0  0  0  0  0  0  0  0
    2.1442  -47.4445  -29.3028 O   0  0  0  0  0  0  0  0  0  0  0  0
    2.9455  -47.8671  -29.6494 H   0  0  0  0  0  0  0  0  0  0  0  0
    2.5398  -45.5907  -30.7448 C   0  0  0  0  0  0  0  0  0  0  0  0
    3.4836  -46.4718  -31.3903 O   0  0  0  0  0  0  0  0  0  0  0  0
    4.3222  -46.4602  -30.9030 H   0  0  0  0  0  0  0  0  0  0  0  0
    8.9843  -45.8994  -27.0344 O   0  0  0  0  0  0  0  0  0  0  0  0
    9.2650  -46.9669  -28.0329 C   0  0  0  0  0  0  0  0  0  0  0  0
    9.2566  -48.3155  -27.3481 C   0  0  0  0  0  0  0  0  0  0  0  0
    9.5528  -49.3858  -28.2778 O   0  0  0  0  0  0  0  0  0  0  0  0
   10.5540  -46.7139  -28.6709 C   0  0  0  0  0  0  0  0  0  0  0  0
   10.4855  -45.4118  -29.4249 O   0  0  0  0  0  0  0  0  0  0  0  0
   10.9181  -47.7827  -29.6052 C   0  0  0  0  0  0  0  0  0  0  0  0
   12.2747  -47.5702  -30.0630 O   0  0  0  0  0  0  0  0  0  0  0  0
   10.8178  -49.1737  -28.9751 C   0  0  0  0  0  0  0  0  0  0  0  0
   11.8733  -49.3469  -28.0671 O   0  0  0  0  0  0  0  0  0  0  0  0
    9.8057  -45.4727  -30.1142 H   0  0  0  0  0  0  0  0  0  0  0  0
   12.8808  -47.6082  -29.3067 H   0  0  0  0  0  0  0  0  0  0  0  0
   11.8010  -48.6890  -27.3579 H   0  0  0  0  0  0  0  0  0  0  0  0
    7.8847  -48.5591  -26.7096 C   0  0  0  0  0  0  0  0  0  0  0  0
    7.9756  -48.3750  -25.2892 O   0  0  0  0  0  0  0  0  0  0  0  0
    8.6174  -49.0030  -24.9222 H   0  0  0  0  0  0  0  0  0  0  0  0
 23 24  2  0  0  0
 24 25  1  0  0  0
 24 26  1  0  0  0
 26 15  1  0  0  0
 15 16  1  0  0  0
 15 18  1  0  0  0
 16 17  1  0  0  0
 16 32  1  0  0  0
 17 21  1  0  0  0
 32 33  1  0  0  0
 32 35  1  0  0  0
 35 36  1  0  0  0
 35 38  1  0  0  0
 38 39  1  0  0  0
 18 19  1  0  0  0
 18 20  1  0  0  0
 20 21  1  0  0  0
 21 28  1  0  0  0
 21 14  1  0  0  0
 28 29  1  0  0  0
 28 30  2  0  0  0
 14  1  1  0  0  0
  1  2  1  0  0  0
  1  6  1  0  0  0
  2  3  1  0  0  0
  2  5  1  0  0  0
  3  4  1  0  0  0
  3 11  1  0  0  0
  4  8  1  0  0  0
 11 12  1  0  0  0
  6  7  1  0  0  0
  6  8  1  0  0  0
  8 41  1  0  0  0
 41 42  1  0  0  0
 42 43  1  0  0  0
 42 45  1  0  0  0
 43 44  1  0  0  0
 43 54  1  0  0  0
 44 49  1  0  0  0
 54 55  1  0  0  0
 45 46  1  0  0  0
 45 47  1  0  0  0
 47 48  1  0  0  0
 47 49  1  0  0  0
 49 50  1  0  0  0
 26 27  1  0  0  0
 33 34  1  0  0  0
 36 37  1  0  0  0
 39 40  1  0  0  0
 19 22  1  0  0  0
 29 31  1  0  0  0
 12 13  1  0  0  0
  5  9  1  0  0  0
  7 10  1  0  0  0
 55 56  1  0  0  0
 46 51  1  0  0  0
 48 52  1  0  0  0
 50 53  1  0  0  0
M  END
> <minimizedAffinity>
-8.50219

$$$$
5B2D_SLT_A_606


 56 58  0  0  0  0  0  0  0  0999 V2000
    5.9415  -43.5692  -26.7106 C   0  0  0  0  0  0  0  0  0  0  0  0
    6.3845  -42.2961  -27.3508 C   0  0  0  0  0  0  0  0  0  0  0  0
    7.2965  -42.5409  -28.5317 C   0  0  0  0  0  0  0  0  0  0  0  0
    8.4626  -43.3591  -28.1615 O   0  0  0  0  0  0  0  0  0  0  0  0
    7.0846  -41.5126  -26.3783 O   0  0  0  0  0  0  0  0  0  0  0  0
    7.1058  -44.4208  -26.3286 C   0  0  0  0  0  0  0  0  0  0  0  0
    6.6287  -45.6904  -25.8906 O   0  0  0  0  0  0  0  0  0  0  0  0
    8.0772  -44.6330  -27.5122 C   0  0  0  0  0  0  0  0  0  0  0  0
    7.8658  -41.9994  -26.0724 H   0  0  0  0  0  0  0  0  0  0  0  0
    6.1506  -46.1236  -26.6149 H   0  0  0  0  0  0  0  0  0  0  0  0
    7.7722  -41.2196  -29.0614 C   0  0  0  0  0  0  0  0  0  0  0  0
    9.1812  -41.0768  -28.8044 O   0  0  0  0  0  0  0  0  0  0  0  0
    9.3412  -41.1174  -27.8485 H   0  0  0  0  0  0  0  0  0  0  0  0
    5.1357  -43.2400  -25.5095 O   0  0  0  0  0  0  0  0  0  0  0  0
    3.5045  -45.8913  -25.7667 C   0  0  0  0  0  0  0  0  0  0  0  0
    3.0022  -45.2229  -27.0055 C   0  0  0  0  0  0  0  0  0  0  0  0
    3.4091  -43.8089  -27.0999 O   0  0  0  0  0  0  0  0  0  0  0  0
    2.9897  -45.2350  -24.5560 C   0  0  0  0  0  0  0  0  0  0  0  0
    3.8594  -45.5414  -23.4274 O   0  0  0  0  0  0  0  0  0  0  0  0
    2.8679  -43.7637  -24.6907 C   0  0  0  0  0  0  0  0  0  0  0  0
    3.6222  -43.1641  -25.8339 C   0  0  0  0  0  0  0  0  0  0  0  0
    4.7455  -45.1846  -23.5959 H   0  0  0  0  0  0  0  0  0  0  0  0
    5.1568  -48.1691  -25.4287 O   0  0  0  0  0  0  0  0  0  0  0  0
    3.9745  -48.3970  -25.5932 C   0  0  0  0  0  0  0  0  0  0  0  0
    3.4707  -49.8292  -25.6124 C   0  0  0  0  0  0  0  0  0  0  0  0
    3.0322  -47.2947  -25.7741 N   0  0  0  0  0  0  0  0  0  0  0  0
    2.0752  -47.4868  -25.9020 H   0  0  0  0  0  0  0  0  0  0  0  0
    3.4292  -41.6943  -25.9065 C   0  0  0  0  0  0  0  0  0  0  0  0
    2.3114  -41.2191  -26.2799 O   0  0  0  0  0  0  0  0  0  0  0  0
    4.3168  -40.9286  -25.4832 O   0  0  0  0  0  0  0  0  0  0  0  0
    1.6418  -41.7918  -26.5987 H   0  0  0  0  0  0  0  0  0  0  0  0
    3.5293  -45.9538  -28.2126 C   0  0  0  0  0  0  0  0  0  0  0  0
    4.8194  -46.4069  -27.9501 O   0  0  0  0  0  0  0  0  0  0  0  0
    5.3922  -45.6511  -27.7458 H   0  0  0  0  0  0  0  0  0  0  0  0
    3.5714  -44.9957  -29.3883 C   0  0  0  0  0  0  0  0  0  0  0  0
    2.2677  -44.7129  -29.7998 O   0  0  0  0  0  0  0  0  0  0  0  0
    1.8268  -45.5353  -30.0648 H   0  0  0  0  0  0  0  0  0  0  0  0
    4.3410  -45.6302  -30.5296 C   0  0  0  0  0  0  0  0  0  0  0  0
    5.7488  -45.3511  -30.3746 O   0  0  0  0  0  0  0  0  0  0  0  0
    5.8911  -44.3917  -30.3827 H   0  0  0  0  0  0  0  0  0  0  0  0
    9.2370  -45.2837  -27.0635 O   0  0  0  0  0  0  0  0  0  0  0  0
    9.5645  -46.4022  -27.9892 C   0  0  0  0  0  0  0  0  0  0  0  0
   10.0843  -45.8431  -29.2949 C   0  0  0  0  0  0  0  0  0  0  0  0
   10.3915  -46.8969  -30.2398 O   0  0  0  0  0  0  0  0  0  0  0  0
    8.3749  -47.2202  -28.2088 C   0  0  0  0  0  0  0  0  0  0  0  0
    7.9518  -47.8386  -26.9022 O   0  0  0  0  0  0  0  0  0  0  0  0
    8.6213  -48.2896  -29.1801 C   0  0  0  0  0  0  0  0  0  0  0  0
    7.3689  -48.9452  -29.4912 O   0  0  0  0  0  0  0  0  0  0  0  0
    9.2478  -47.7728  -30.4772 C   0  0  0  0  0  0  0  0  0  0  0  0
    8.2796  -47.0695  -31.2099 O   0  0  0  0  0  0  0  0  0  0  0  0
    8.6623  -48.4089  -26.5693 H   0  0  0  0  0  0  0  0  0  0  0  0
    6.7598  -48.3053  -29.8917 H   0  0  0  0  0  0  0  0  0  0  0  0
    7.9775  -46.3046  -30.6956 H   0  0  0  0  0  0  0  0  0  0  0  0
   11.3438  -45.0101  -29.0321 C   0  0  0  0  0  0  0  0  0  0  0  0
   11.0067  -43.6151  -29.0325 O   0  0  0  0  0  0  0  0  0  0  0  0
   10.6347  -43.3726  -29.8949 H   0  0  0  0  0  0  0  0  0  0  0  0
 23 24  2  0  0  0
 24 25  1  0  0  0
 24 26  1  0  0  0
 26 15  1  0  0  0
 15 16  1  0  0  0
 15 18  1  0  0  0
 16 17  1  0  0  0
 16 32  1  0  0  0
 17 21  1  0  0  0
 32 33  1  0  0  0
 32 35  1  0  0  0
 35 36  1  0  0  0
 35 38  1  0  0  0
 38 39  1  0  0  0
 18 19  1  0  0  0
 18 20  1  0  0  0
 20 21  1  0  0  0
 21 28  1  0  0  0
 21 14  1  0  0  0
 28 29  1  0  0  0
 28 30  2  0  0  0
 14  1  1  0  0  0
  1  2  1  0  0  0
  1  6  1  0  0  0
  2  3  1  0  0  0
  2  5  1  0  0  0
  3  4  1  0  0  0
  3 11  1  0  0  0
  4  8  1  0  0  0
 11 12  1  0  0  0
  6  7  1  0  0  0
  6  8  1  0  0  0
  8 41  1  0  0  0
 41 42  1  0  0  0
 42 43  1  0  0  0
 42 45  1  0  0  0
 43 44  1  0  0  0
 43 54  1  0  0  0
 44 49  1  0  0  0
 54 55  1  0  0  0
 45 46  1  0  0  0
 45 47  1  0  0  0
 47 48  1  0  0  0
 47 49  1  0  0  0
 49 50  1  0  0  0
 26 27  1  0  0  0
 33 34  1  0  0  0
 36 37  1  0  0  0
 39 40  1  0  0  0
 19 22  1  0  0  0
 29 31  1  0  0  0
 12 13  1  0  0  0
  5  9  1  0  0  0
  7 10  1  0  0  0
 55 56  1  0  0  0
 46 51  1  0  0  0
 48 52  1  0  0  0
 50 53  1  0  0  0
M  END
> <minimizedAffinity>
-8.39646

$$$$
5B2D_SLT_A_606


 56 58  0  0  0  0  0  0  0  0999 V2000
    8.6621  -47.9836  -27.6787 C   0  0  0  0  0  0  0  0  0  0  0  0
    7.3510  -48.6821  -27.5369 C   0  0  0  0  0  0  0  0  0  0  0  0
    7.5149  -50.1805  -27.4194 C   0  0  0  0  0  0  0  0  0  0  0  0
    8.2707  -50.7384  -28.5524 O   0  0  0  0  0  0  0  0  0  0  0  0
    6.5493  -48.3916  -28.6869 O   0  0  0  0  0  0  0  0  0  0  0  0
    9.4516  -48.5334  -28.8195 C   0  0  0  0  0  0  0  0  0  0  0  0
   10.7566  -47.9610  -28.7996 O   0  0  0  0  0  0  0  0  0  0  0  0
    9.5793  -50.0720  -28.7430 C   0  0  0  0  0  0  0  0  0  0  0  0
    6.9957  -48.7192  -29.4833 H   0  0  0  0  0  0  0  0  0  0  0  0
   11.2011  -48.1979  -27.9707 H   0  0  0  0  0  0  0  0  0  0  0  0
    6.1562  -50.8168  -27.3747 C   0  0  0  0  0  0  0  0  0  0  0  0
    5.7768  -51.2353  -28.6985 O   0  0  0  0  0  0  0  0  0  0  0  0
    5.7526  -50.4644  -29.2868 H   0  0  0  0  0  0  0  0  0  0  0  0
    8.4081  -46.5369  -27.8857 O   0  0  0  0  0  0  0  0  0  0  0  0
    9.0526  -43.6575  -28.9104 C   0  0  0  0  0  0  0  0  0  0  0  0
   10.4564  -44.0993  -28.6497 C   0  0  0  0  0  0  0  0  0  0  0  0
   10.5295  -45.3828  -27.9278 O   0  0  0  0  0  0  0  0  0  0  0  0
    8.3084  -43.4657  -27.6571 C   0  0  0  0  0  0  0  0  0  0  0  0
    6.8777  -43.5507  -27.9210 O   0  0  0  0  0  0  0  0  0  0  0  0
    8.6677  -44.4450  -26.6036 C   0  0  0  0  0  0  0  0  0  0  0  0
    9.3999  -45.6570  -27.0835 C   0  0  0  0  0  0  0  0  0  0  0  0
    6.6623  -44.4363  -28.2532 H   0  0  0  0  0  0  0  0  0  0  0  0
    7.1014  -42.7405  -30.7501 O   0  0  0  0  0  0  0  0  0  0  0  0
    8.0386  -41.9906  -30.5604 C   0  0  0  0  0  0  0  0  0  0  0  0
    8.1111  -40.6623  -31.2924 C   0  0  0  0  0  0  0  0  0  0  0  0
    9.1005  -42.3632  -29.6281 N   0  0  0  0  0  0  0  0  0  0  0  0
    9.8542  -41.7484  -29.4759 H   0  0  0  0  0  0  0  0  0  0  0  0
    9.7372  -46.5718  -25.9645 C   0  0  0  0  0  0  0  0  0  0  0  0
   10.8984  -47.0824  -25.8907 O   0  0  0  0  0  0  0  0  0  0  0  0
    8.9269  -46.7399  -25.0325 O   0  0  0  0  0  0  0  0  0  0  0  0
   11.5102  -46.9581  -26.5894 H   0  0  0  0  0  0  0  0  0  0  0  0
   11.1824  -44.2463  -29.9613 C   0  0  0  0  0  0  0  0  0  0  0  0
   10.5603  -45.2307  -30.7246 O   0  0  0  0  0  0  0  0  0  0  0  0
   10.5765  -46.0722  -30.2424 H   0  0  0  0  0  0  0  0  0  0  0  0
   12.6146  -44.6651  -29.6866 C   0  0  0  0  0  0  0  0  0  0  0  0
   13.4371  -43.5373  -29.7079 O   0  0  0  0  0  0  0  0  0  0  0  0
   13.3824  -43.1136  -30.5787 H   0  0  0  0  0  0  0  0  0  0  0  0
   13.0664  -45.6468  -30.7494 C   0  0  0  0  0  0  0  0  0  0  0  0
   12.8649  -46.9955  -30.2757 O   0  0  0  0  0  0  0  0  0  0  0  0
   13.3816  -47.1345  -29.4666 H   0  0  0  0  0  0  0  0  0  0  0  0
   10.1700  -50.5583  -29.9197 O   0  0  0  0  0  0  0  0  0  0  0  0
   10.7226  -51.9173  -29.6690 C   0  0  0  0  0  0  0  0  0  0  0  0
   12.2272  -51.8357  -29.5371 C   0  0  0  0  0  0  0  0  0  0  0  0
   12.8134  -53.1419  -29.3189 O   0  0  0  0  0  0  0  0  0  0  0  0
   10.3424  -52.8095  -30.7608 C   0  0  0  0  0  0  0  0  0  0  0  0
    8.8424  -52.9421  -30.7916 O   0  0  0  0  0  0  0  0  0  0  0  0
   10.9317  -54.1422  -30.6052 C   0  0  0  0  0  0  0  0  0  0  0  0
   10.6722  -54.9176  -31.7996 O   0  0  0  0  0  0  0  0  0  0  0  0
   12.4420  -54.0925  -30.3629 C   0  0  0  0  0  0  0  0  0  0  0  0
   13.0899  -53.7358  -31.5553 O   0  0  0  0  0  0  0  0  0  0  0  0
    8.5346  -53.3270  -29.9561 H   0  0  0  0  0  0  0  0  0  0  0  0
   11.0906  -54.4874  -32.5616 H   0  0  0  0  0  0  0  0  0  0  0  0
   12.7995  -52.8518  -31.8291 H   0  0  0  0  0  0  0  0  0  0  0  0
   12.5913  -50.9114  -28.3700 C   0  0  0  0  0  0  0  0  0  0  0  0
   12.9043  -49.6036  -28.8715 O   0  0  0  0  0  0  0  0  0  0  0  0
   13.6560  -49.6627  -29.4817 H   0  0  0  0  0  0  0  0  0  0  0  0
 23 24  2  0  0  0
 24 25  1  0  0  0
 24 26  1  0  0  0
 26 15  1  0  0  0
 15 16  1  0  0  0
 15 18  1  0  0  0
 16 17  1  0  0  0
 16 32  1  0  0  0
 17 21  1  0  0  0
 32 33  1  0  0  0
 32 35  1  0  0  0
 35 36  1  0  0  0
 35 38  1  0  0  0
 38 39  1  0  0  0
 18 19  1  0  0  0
 18 20  1  0  0  0
 20 21  1  0  0  0
 21 28  1  0  0  0
 21 14  1  0  0  0
 28 29  1  0  0  0
 28 30  2  0  0  0
 14  1  1  0  0  0
  1  2  1  0  0  0
  1  6  1  0  0  0
  2  3  1  0  0  0
  2  5  1  0  0  0
  3  4  1  0  0  0
  3 11  1  0  0  0
  4  8  1  0  0  0
 11 12  1  0  0  0
  6  7  1  0  0  0
  6  8  1  0  0  0
  8 41  1  0  0  0
 41 42  1  0  0  0
 42 43  1  0  0  0
 42 45  1  0  0  0
 43 44  1  0  0  0
 43 54  1  0  0  0
 44 49  1  0  0  0
 54 55  1  0  0  0
 45 46  1  0  0  0
 45 47  1  0  0  0
 47 48  1  0  0  0
 47 49  1  0  0  0
 49 50  1  0  0  0
 26 27  1  0  0  0
 33 34  1  0  0  0
 36 37  1  0  0  0
 39 40  1  0  0  0
 19 22  1  0  0  0
 29 31  1  0  0  0
 12 13  1  0  0  0
  5  9  1  0  0  0
  7 10  1  0  0  0
 55 56  1  0  0  0
 46 51  1  0  0  0
 48 52  1  0  0  0
 50 53  1  0  0  0
M  END
> <minimizedAffinity>
-8.38077

$$$$
5B2D_SLT_A_606


 56 58  0  0  0  0  0  0  0  0999 V2000
    9.1619  -47.2922  -27.7300 C   0  0  0  0  0  0  0  0  0  0  0  0
    9.9970  -48.3943  -28.2913 C   0  0  0  0  0  0  0  0  0  0  0  0
    9.2827  -49.7263  -28.2502 C   0  0  0  0  0  0  0  0  0  0  0  0
    8.8369  -50.0658  -26.8892 O   0  0  0  0  0  0  0  0  0  0  0  0
   11.2037  -48.4909  -27.5269 O   0  0  0  0  0  0  0  0  0  0  0  0
    8.6926  -47.6130  -26.3503 C   0  0  0  0  0  0  0  0  0  0  0  0
    7.7603  -46.6186  -25.9340 O   0  0  0  0  0  0  0  0  0  0  0  0
    8.0100  -48.9982  -26.2815 C   0  0  0  0  0  0  0  0  0  0  0  0
   10.9864  -48.6991  -26.6048 H   0  0  0  0  0  0  0  0  0  0  0  0
    6.9960  -46.6216  -26.5314 H   0  0  0  0  0  0  0  0  0  0  0  0
   10.2157  -50.7943  -28.7418 C   0  0  0  0  0  0  0  0  0  0  0  0
   11.0192  -50.2742  -29.8167 O   0  0  0  0  0  0  0  0  0  0  0  0
   10.4427  -49.9904  -30.5433 H   0  0  0  0  0  0  0  0  0  0  0  0
    9.9677  -46.0469  -27.7171 O   0  0  0  0  0  0  0  0  0  0  0  0
    7.4638  -44.1820  -27.8110 C   0  0  0  0  0  0  0  0  0  0  0  0
    7.3062  -44.8017  -29.1618 C   0  0  0  0  0  0  0  0  0  0  0  0
    8.4740  -45.6070  -29.5637 O   0  0  0  0  0  0  0  0  0  0  0  0
    8.6209  -43.2760  -27.7675 C   0  0  0  0  0  0  0  0  0  0  0  0
    9.0549  -43.1045  -26.3869 O   0  0  0  0  0  0  0  0  0  0  0  0
    9.7666  -43.7452  -28.5828 C   0  0  0  0  0  0  0  0  0  0  0  0
    9.7178  -45.1856  -28.9809 C   0  0  0  0  0  0  0  0  0  0  0  0
    9.3426  -43.9593  -26.0299 H   0  0  0  0  0  0  0  0  0  0  0  0
    5.8987  -44.4191  -25.4601 O   0  0  0  0  0  0  0  0  0  0  0  0
    5.5091  -43.6021  -26.2709 C   0  0  0  0  0  0  0  0  0  0  0  0
    4.2556  -42.7916  -25.9927 C   0  0  0  0  0  0  0  0  0  0  0  0
    6.2437  -43.3960  -27.5172 N   0  0  0  0  0  0  0  0  0  0  0  0
    5.9247  -42.7289  -28.1671 H   0  0  0  0  0  0  0  0  0  0  0  0
   10.8894  -45.5649  -29.8092 C   0  0  0  0  0  0  0  0  0  0  0  0
   10.8237  -45.4839  -31.0756 O   0  0  0  0  0  0  0  0  0  0  0  0
   11.9747  -45.8413  -29.2623 O   0  0  0  0  0  0  0  0  0  0  0  0
   10.0095  -45.2763  -31.4902 H   0  0  0  0  0  0  0  0  0  0  0  0
    6.0898  -45.6902  -29.1616 C   0  0  0  0  0  0  0  0  0  0  0  0
    5.9427  -46.2698  -27.9042 O   0  0  0  0  0  0  0  0  0  0  0  0
    6.7328  -46.7920  -27.6945 H   0  0  0  0  0  0  0  0  0  0  0  0
    6.2816  -46.7871  -30.1922 C   0  0  0  0  0  0  0  0  0  0  0  0
    6.4244  -46.2123  -31.4564 O   0  0  0  0  0  0  0  0  0  0  0  0
    5.6293  -45.6993  -31.6700 H   0  0  0  0  0  0  0  0  0  0  0  0
    5.0762  -47.7060  -30.1821 C   0  0  0  0  0  0  0  0  0  0  0  0
    5.2764  -48.7517  -29.2074 O   0  0  0  0  0  0  0  0  0  0  0  0
    6.0692  -49.2610  -29.4376 H   0  0  0  0  0  0  0  0  0  0  0  0
    7.7478  -49.3322  -24.9438 O   0  0  0  0  0  0  0  0  0  0  0  0
    6.4143  -49.9868  -24.8510 C   0  0  0  0  0  0  0  0  0  0  0  0
    6.5575  -51.4680  -25.1211 C   0  0  0  0  0  0  0  0  0  0  0  0
    5.2778  -52.1443  -25.0684 O   0  0  0  0  0  0  0  0  0  0  0  0
    5.4981  -49.3687  -25.8056 C   0  0  0  0  0  0  0  0  0  0  0  0
    5.3050  -47.9206  -25.4392 O   0  0  0  0  0  0  0  0  0  0  0  0
    4.1915  -50.0325  -25.8142 C   0  0  0  0  0  0  0  0  0  0  0  0
    3.3959  -49.4988  -26.8992 O   0  0  0  0  0  0  0  0  0  0  0  0
    4.3041  -51.5497  -25.9793 C   0  0  0  0  0  0  0  0  0  0  0  0
    4.6761  -51.8446  -27.2997 O   0  0  0  0  0  0  0  0  0  0  0  0
    4.9153  -47.8604  -24.5530 H   0  0  0  0  0  0  0  0  0  0  0  0
    3.8359  -49.6831  -27.7438 H   0  0  0  0  0  0  0  0  0  0  0  0
    5.5453  -51.4561  -27.4852 H   0  0  0  0  0  0  0  0  0  0  0  0
    7.5059  -52.0891  -24.0896 C   0  0  0  0  0  0  0  0  0  0  0  0
    8.8567  -52.0069  -24.5672 O   0  0  0  0  0  0  0  0  0  0  0  0
    8.9332  -52.4886  -25.4056 H   0  0  0  0  0  0  0  0  0  0  0  0
 23 24  2  0  0  0
 24 25  1  0  0  0
 24 26  1  0  0  0
 26 15  1  0  0  0
 15 16  1  0  0  0
 15 18  1  0  0  0
 16 17  1  0  0  0
 16 32  1  0  0  0
 17 21  1  0  0  0
 32 33  1  0  0  0
 32 35  1  0  0  0
 35 36  1  0  0  0
 35 38  1  0  0  0
 38 39  1  0  0  0
 18 19  1  0  0  0
 18 20  1  0  0  0
 20 21  1  0  0  0
 21 28  1  0  0  0
 21 14  1  0  0  0
 28 29  1  0  0  0
 28 30  2  0  0  0
 14  1  1  0  0  0
  1  2  1  0  0  0
  1  6  1  0  0  0
  2  3  1  0  0  0
  2  5  1  0  0  0
  3  4  1  0  0  0
  3 11  1  0  0  0
  4  8  1  0  0  0
 11 12  1  0  0  0
  6  7  1  0  0  0
  6  8  1  0  0  0
  8 41  1  0  0  0
 41 42  1  0  0  0
 42 43  1  0  0  0
 42 45  1  0  0  0
 43 44  1  0  0  0
 43 54  1  0  0  0
 44 49  1  0  0  0
 54 55  1  0  0  0
 45 46  1  0  0  0
 45 47  1  0  0  0
 47 48  1  0  0  0
 47 49  1  0  0  0
 49 50  1  0  0  0
 26 27  1  0  0  0
 33 34  1  0  0  0
 36 37  1  0  0  0
 39 40  1  0  0  0
 19 22  1  0  0  0
 29 31  1  0  0  0
 12 13  1  0  0  0
  5  9  1  0  0  0
  7 10  1  0  0  0
 55 56  1  0  0  0
 46 51  1  0  0  0
 48 52  1  0  0  0
 50 53  1  0  0  0
M  END
> <minimizedAffinity>
-8.23373

$$$$
5B2D_SLT_A_606


 56 58  0  0  0  0  0  0  0  0999 V2000
    9.1115  -47.2550  -27.6565 C   0  0  0  0  0  0  0  0  0  0  0  0
    9.9974  -48.3512  -28.1469 C   0  0  0  0  0  0  0  0  0  0  0  0
    9.3124  -49.6984  -28.1028 C   0  0  0  0  0  0  0  0  0  0  0  0
    8.8096  -50.0123  -26.7556 O   0  0  0  0  0  0  0  0  0  0  0  0
   11.1678  -48.3984  -27.3238 O   0  0  0  0  0  0  0  0  0  0  0  0
    8.5839  -47.5501  -26.2922 C   0  0  0  0  0  0  0  0  0  0  0  0
    7.6103  -46.5677  -25.9483 O   0  0  0  0  0  0  0  0  0  0  0  0
    7.9305  -48.9490  -26.2176 C   0  0  0  0  0  0  0  0  0  0  0  0
   10.9114  -48.5873  -26.4076 H   0  0  0  0  0  0  0  0  0  0  0  0
    6.8759  -46.6049  -26.5809 H   0  0  0  0  0  0  0  0  0  0  0  0
   10.2920  -50.7564  -28.5200 C   0  0  0  0  0  0  0  0  0  0  0  0
   11.0092  -51.2305  -27.3657 O   0  0  0  0  0  0  0  0  0  0  0  0
   11.4870  -50.4924  -26.9562 H   0  0  0  0  0  0  0  0  0  0  0  0
    9.8872  -45.9908  -27.6399 O   0  0  0  0  0  0  0  0  0  0  0  0
    7.3842  -44.1269  -27.7711 C   0  0  0  0  0  0  0  0  0  0  0  0
    7.2321  -44.7660  -29.1135 C   0  0  0  0  0  0  0  0  0  0  0  0
    8.4014  -45.5773  -29.4988 O   0  0  0  0  0  0  0  0  0  0  0  0
    8.5414  -43.2206  -27.7359 C   0  0  0  0  0  0  0  0  0  0  0  0
    8.9697  -43.0293  -26.3561 O   0  0  0  0  0  0  0  0  0  0  0  0
    9.6904  -43.7018  -28.5396 C   0  0  0  0  0  0  0  0  0  0  0  0
    9.6428  -45.1477  -28.9170 C   0  0  0  0  0  0  0  0  0  0  0  0
    9.2558  -43.8788  -25.9856 H   0  0  0  0  0  0  0  0  0  0  0  0
    5.7937  -44.3495  -25.4359 O   0  0  0  0  0  0  0  0  0  0  0  0
    5.4148  -43.5351  -26.2544 C   0  0  0  0  0  0  0  0  0  0  0  0
    4.1606  -42.7202  -25.9931 C   0  0  0  0  0  0  0  0  0  0  0  0
    6.1632  -43.3365  -27.4937 N   0  0  0  0  0  0  0  0  0  0  0  0
    5.8528  -42.6715  -28.1500 H   0  0  0  0  0  0  0  0  0  0  0  0
   10.8177  -45.5391  -29.7349 C   0  0  0  0  0  0  0  0  0  0  0  0
   11.9739  -45.5726  -29.2088 O   0  0  0  0  0  0  0  0  0  0  0  0
   10.6552  -45.9548  -30.8986 O   0  0  0  0  0  0  0  0  0  0  0  0
   12.0999  -45.2610  -28.3342 H   0  0  0  0  0  0  0  0  0  0  0  0
    6.0154  -45.6541  -29.1055 C   0  0  0  0  0  0  0  0  0  0  0  0
    5.8693  -46.2242  -27.8436 O   0  0  0  0  0  0  0  0  0  0  0  0
    6.6595  -46.7450  -27.6306 H   0  0  0  0  0  0  0  0  0  0  0  0
    6.2060  -46.7588  -30.1280 C   0  0  0  0  0  0  0  0  0  0  0  0
    6.3831  -46.1922  -31.3915 O   0  0  0  0  0  0  0  0  0  0  0  0
    5.6019  -45.6655  -31.6221 H   0  0  0  0  0  0  0  0  0  0  0  0
    4.9838  -47.6552  -30.1369 C   0  0  0  0  0  0  0  0  0  0  0  0
    3.8059  -46.8655  -29.8670 O   0  0  0  0  0  0  0  0  0  0  0  0
    3.8914  -46.4441  -28.9975 H   0  0  0  0  0  0  0  0  0  0  0  0
    7.6119  -49.2536  -24.8850 O   0  0  0  0  0  0  0  0  0  0  0  0
    6.7278  -50.4504  -24.8503 C   0  0  0  0  0  0  0  0  0  0  0  0
    5.3082  -50.0227  -24.5513 C   0  0  0  0  0  0  0  0  0  0  0  0
    4.4140  -51.1598  -24.4804 O   0  0  0  0  0  0  0  0  0  0  0  0
    7.2132  -51.3886  -23.8420 C   0  0  0  0  0  0  0  0  0  0  0  0
    8.5874  -51.8665  -24.2319 O   0  0  0  0  0  0  0  0  0  0  0  0
    6.3292  -52.5497  -23.7083 C   0  0  0  0  0  0  0  0  0  0  0  0
    6.7585  -53.3446  -22.5774 O   0  0  0  0  0  0  0  0  0  0  0  0
    4.8643  -52.1535  -23.5102 C   0  0  0  0  0  0  0  0  0  0  0  0
    4.6962  -51.6362  -22.2168 O   0  0  0  0  0  0  0  0  0  0  0  0
    8.5399  -52.3261  -25.0848 H   0  0  0  0  0  0  0  0  0  0  0  0
    6.6910  -52.8164  -21.7666 H   0  0  0  0  0  0  0  0  0  0  0  0
    5.2403  -50.8398  -22.1138 H   0  0  0  0  0  0  0  0  0  0  0  0
    4.8222  -49.0582  -25.6388 C   0  0  0  0  0  0  0  0  0  0  0  0
    4.9490  -47.7061  -25.1744 O   0  0  0  0  0  0  0  0  0  0  0  0
    4.4120  -47.5871  -24.3754 H   0  0  0  0  0  0  0  0  0  0  0  0
 23 24  2  0  0  0
 24 25  1  0  0  0
 24 26  1  0  0  0
 26 15  1  0  0  0
 15 16  1  0  0  0
 15 18  1  0  0  0
 16 17  1  0  0  0
 16 32  1  0  0  0
 17 21  1  0  0  0
 32 33  1  0  0  0
 32 35  1  0  0  0
 35 36  1  0  0  0
 35 38  1  0  0  0
 38 39  1  0  0  0
 18 19  1  0  0  0
 18 20  1  0  0  0
 20 21  1  0  0  0
 21 28  1  0  0  0
 21 14  1  0  0  0
 28 29  1  0  0  0
 28 30  2  0  0  0
 14  1  1  0  0  0
  1  2  1  0  0  0
  1  6  1  0  0  0
  2  3  1  0  0  0
  2  5  1  0  0  0
  3  4  1  0  0  0
  3 11  1  0  0  0
  4  8  1  0  0  0
 11 12  1  0  0  0
  6  7  1  0  0  0
  6  8  1  0  0  0
  8 41  1  0  0  0
 41 42  1  0  0  0
 42 43  1  0  0  0
 42 45  1  0  0  0
 43 44  1  0  0  0
 43 54  1  0  0  0
 44 49  1  0  0  0
 54 55  1  0  0  0
 45 46  1  0  0  0
 45 47  1  0  0  0
 47 48  1  0  0  0
 47 49  1  0  0  0
 49 50  1  0  0  0
 26 27  1  0  0  0
 33 34  1  0  0  0
 36 37  1  0  0  0
 39 40  1  0  0  0
 19 22  1  0  0  0
 29 31  1  0  0  0
 12 13  1  0  0  0
  5  9  1  0  0  0
  7 10  1  0  0  0
 55 56  1  0  0  0
 46 51  1  0  0  0
 48 52  1  0  0  0
 50 53  1  0  0  0
M  END
> <minimizedAffinity>
-8.23350

$$$$
