5B2D_SLT_A_606
  RCSB PDB12061716553D
Coordinates from PDB:5B2D:A:606 Model:1 without hydrogens
 43 45  0  0  0  0            999 V2000
    6.8870  -43.1740  -30.6520   O 0  0  0  0  0  0  0  0  0  0  0  0
    7.6510  -42.3040  -30.2830   C 0  0  0  0  0  0  0  0  0  0  0  0
    7.6350  -40.9420  -30.9540   C 0  0  0  0  0  0  0  0  0  0  0  0
    8.5890  -42.5640  -29.1930   N 0  0  0  0  0  0  0  0  0  0  0  0
    8.6260  -43.8880  -28.5310   C 0  0  0  0  0  0  0  0  0  0  0  0
   10.0360  -44.3830  -28.5550   C 0  0  0  0  0  0  0  0  0  0  0  0
   10.1930  -45.7000  -27.9110   O 0  0  0  0  0  0  0  0  0  0  0  0
   10.5000  -44.4910  -29.9840   C 0  0  0  0  0  0  0  0  0  0  0  0
    9.7620  -45.4760  -30.6350   O 0  0  0  0  0  0  0  0  0  0  0  0
   11.9660  -44.8820  -29.9970   C 0  0  0  0  0  0  0  0  0  0  0  0
   12.7360  -43.7990  -29.5690   O 0  0  0  0  0  0  0  0  0  0  0  0
   12.3720  -45.2730  -31.4040   C 0  0  0  0  0  0  0  0  0  0  0  0
   12.4560  -44.0900  -32.2270   O 0  0  0  0  0  0  0  0  0  0  0  0
    8.1350  -43.7320  -27.1540   C 0  0  0  0  0  0  0  0  0  0  0  0
    6.6780  -43.7620  -27.1490   O 0  0  0  0  0  0  0  0  0  0  0  0
    8.6460  -44.7690  -26.2260   C 0  0  0  0  0  0  0  0  0  0  0  0
    9.2300  -45.9790  -26.8820   C 0  0  0  0  0  0  0  0  0  0  0  0
    9.7340  -46.9540  -25.8830   C 0  0  0  0  0  0  0  0  0  0  0  0
   10.8760  -47.4890  -26.0390   O 0  0  0  0  0  0  0  0  0  0  0  0
    9.0960  -47.1530  -24.8310   O 0  0  0  0  0  0  0  0  0  0  0  0
    8.0740  -46.7910  -27.5190   O 0  0  0  0  0  0  0  0  0  0  0  0
    8.4380  -48.2170  -27.7040   C 0  0  0  0  0  0  0  0  0  0  0  0
    7.5320  -49.0530  -26.8630   C 0  0  0  0  0  0  0  0  0  0  0  0
    7.7710  -50.5320  -27.0670   C 0  0  0  0  0  0  0  0  0  0  0  0
    7.6510  -50.9150  -28.4830   O 0  0  0  0  0  0  0  0  0  0  0  0
    6.7650  -51.3030  -26.2630   C 0  0  0  0  0  0  0  0  0  0  0  0
    7.3730  -52.5050  -25.7560   O 0  0  0  0  0  0  0  0  0  0  0  0
    6.1760  -48.7500  -27.2080   O 0  0  0  0  0  0  0  0  0  0  0  0
    8.3390  -48.5880  -29.1460   C 0  0  0  0  0  0  0  0  0  0  0  0
    9.3460  -47.8910  -29.8750   O 0  0  0  0  0  0  0  0  0  0  0  0
    8.5250  -50.1070  -29.3640   C 0  0  0  0  0  0  0  0  0  0  0  0
    8.2480  -50.4320  -30.7010   O 0  0  0  0  0  0  0  0  0  0  0  0
    8.8440  -51.7580  -31.0200   C 0  0  0  0  0  0  0  0  0  0  0  0
    9.6200  -51.6660  -32.3150   C 0  0  0  0  0  0  0  0  0  0  0  0
   10.1970  -52.9430  -32.6810   O 0  0  0  0  0  0  0  0  0  0  0  0
   10.7350  -50.6240  -32.1730   C 0  0  0  0  0  0  0  0  0  0  0  0
   11.6720  -51.0550  -31.1750   O 0  0  0  0  0  0  0  0  0  0  0  0
    7.7860  -52.7600  -31.1160   C 0  0  0  0  0  0  0  0  0  0  0  0
    7.1070  -52.8920  -29.7780   O 0  0  0  0  0  0  0  0  0  0  0  0
    8.3110  -54.0700  -31.5110   C 0  0  0  0  0  0  0  0  0  0  0  0
    7.2040  -54.9670  -31.7660   O 0  0  0  0  0  0  0  0  0  0  0  0
    9.1910  -53.9980  -32.7610   C 0  0  0  0  0  0  0  0  0  0  0  0
    8.3810  -53.7710  -33.8840   O 0  0  0  0  0  0  0  0  0  0  0  0
  1  2  2  0  0  0  0
  2  3  1  0  0  0  0
  2  4  1  0  0  0  0
  4  5  1  0  0  0  0
  5  6  1  0  0  0  0
  5 14  1  0  0  0  0
  6  7  1  0  0  0  0
  6  8  1  0  0  0  0
  7 17  1  0  0  0  0
  8  9  1  0  0  0  0
  8 10  1  0  0  0  0
 10 11  1  0  0  0  0
 10 12  1  0  0  0  0
 12 13  1  0  0  0  0
 14 15  1  0  0  0  0
 14 16  1  0  0  0  0
 16 17  1  0  0  0  0
 17 18  1  0  0  0  0
 17 21  1  0  0  0  0
 18 19  1  0  0  0  0
 18 20  2  0  0  0  0
 21 22  1  0  0  0  0
 22 23  1  0  0  0  0
 22 29  1  0  0  0  0
 23 24  1  0  0  0  0
 23 28  1  0  0  0  0
 24 25  1  0  0  0  0
 24 26  1  0  0  0  0
 25 31  1  0  0  0  0
 26 27  1  0  0  0  0
 29 30  1  0  0  0  0
 29 31  1  0  0  0  0
 31 32  1  0  0  0  0
 32 33  1  0  0  0  0
 33 34  1  0  0  0  0
 33 38  1  0  0  0  0
 34 35  1  0  0  0  0
 34 36  1  0  0  0  0
 35 42  1  0  0  0  0
 36 37  1  0  0  0  0
 38 39  1  0  0  0  0
 38 40  1  0  0  0  0
 40 41  1  0  0  0  0
 40 42  1  0  0  0  0
 42 43  1  0  0  0  0
A    1
O17
A    2
C17
A    3
C18
A    4
N12
A    5
C12
A    6
C13
A    7
O13
A    8
C14
A    9
O14
A   10
C15
A   11
O15
A   12
C16
A   13
O16
A   14
C11
A   15
O11
A   16
C10
A   17
C9
A   18
C19
A   19
O20
A   20
O19
A   21
O9
A   22
C3
A   23
C4
A   24
C5
A   25
O5
A   26
C6
A   27
O6
A   28
O4
A   29
C2
A   30
O2
A   31
C1
A   32
O1
A   33
C4A
A   34
C5A
A   35
O5A
A   36
C6A
A   37
O6A
A   38
C3A
A   39
O3A
A   40
C2A
A   41
O2A
A   42
C1A
A   43
O1A
M  END
>  <InstanceId>
5B2D_SLT_A_606

>  <ChemCompId>
SLT

>  <PdbId>
5B2D

>  <ChainId>
A

>  <ResidueNumber>
606

>  <InsertionCode>


>  <Model>
1

>  <AltIds>


>  <MissingHeavyAtoms>
0

>  <ObservedFormula>
C23 N O19

>  <Name>
5-(ACETYLAMINO)-3,5-DIDEOXYNON-2-ULOPYRANONOSYL-(2->3)-BETA-D-LYXO-HEXOPYRANOSYL-(1->4)HEXOPYRANOSE

>  <SystematicName>
(2S,4S,5R,6R)-5-acetamido-2-[(2R,3S,4S,5R,6S)-3,5-dihydroxy-2-(hydroxymethyl)-6-[(2R,3S,4R,5R,6S)-4,5,6-trihydroxy-2-(hydroxymethyl)oxan-3-yl]oxy-oxan-4-yl]oxy-4-hydroxy-6-[(1R,2R)-1,2,3-trihydroxypropyl]oxane-2-carboxylic acid

>  <Synonyms>
LACTOSE SIALIC ACID; ALPHA(2,3) SIALYL LACTOSE

>  <Type>
NON-POLYMER

>  <Formula>
C23 H39 N O19

>  <MolecularWeight>
633.551

>  <ModifiedDate>
2011-06-04

>  <Parent>


>  <OneLetterCode>


>  <SubcomponentList>


>  <AmbiguousFlag>
N

>  <InChI>
InChI=1S/C23H39NO19/c1-6(28)24-11-7(29)2-23(22(37)38,42-18(11)12(31)8(30)3-25)43-19-13(32)9(4-26)40-21(16(19)35)41-17-10(5-27)39-20(36)15(34)14(17)33/h7-21,25-27,29-36H,2-5H2,1H3,(H,24,28)(H,37,38)/t7-,8+,9+,10+,11+,12+,13-,14+,15+,16+,17+,18+,19-,20-,21-,23-/m0/s1

>  <InChIKey>
CILYIEBUXJIHCO-LPTWSRJFSA-N

>  <SMILES>
CC(=O)N[C@@H]1[C@H](C[C@@](O[C@H]1[C@@H]([C@@H](CO)O)O)(C(=O)O)O[C@H]2[C@H]([C@H](O[C@H]([C@@H]2O)O[C@@H]3[C@H](O[C@@H]([C@@H]([C@H]3O)O)O)CO)CO)O)O

$$$$
