3EKT_017_B_200


 42 45  0  0  0  0  0  0  0  0999 V2000
   17.8643   41.1048   -8.7889 C   0  0  0  0  0  0  0  0  0  0  0  0
   16.4866   41.4487   -8.6669 O   0  0  0  0  0  0  0  0  0  0  0  0
   15.9494   40.6412   -8.6798 H   0  0  0  0  0  0  0  0  0  0  0  0
   18.0182   40.3517  -10.1022 C   0  0  0  0  0  0  0  0  0  0  0  0
   18.3545   41.3159  -11.1451 N   0  0  0  0  0  0  0  0  0  0  0  0
   19.9555   41.6077  -11.1695 S   0  0  0  0  0  0  0  0  0  0  0  0
   20.6251   40.3769  -10.8523 O   0  0  0  0  0  0  0  0  0  0  0  0
   20.2970   41.9453  -12.5299 O   0  0  0  0  0  0  0  0  0  0  0  0
   21.1525   46.0651   -7.8837 N   0  0  0  0  0  0  0  0  0  0  0  0
   20.8939   44.9980   -8.6596 C   0  0  0  0  0  0  0  0  0  0  0  0
   21.8030   43.9532   -8.6834 C   0  0  0  0  0  0  0  0  0  0  0  0
   21.5340   42.8644   -9.4824 C   0  0  0  0  0  0  0  0  0  0  0  0
   20.3520   42.8411  -10.2035 C   0  0  0  0  0  0  0  0  0  0  0  0
   19.5200   43.9472  -10.1051 C   0  0  0  0  0  0  0  0  0  0  0  0
   19.8071   44.9552   -9.3464 C   0  0  0  0  0  0  0  0  0  0  0  0
   21.9833   46.1008   -7.3568 H   0  0  0  0  0  0  0  0  0  0  0  0
   20.5109   46.8107   -7.8425 H   0  0  0  0  0  0  0  0  0  0  0  0
   17.8986   40.8212  -12.4437 C   0  0  0  0  0  0  0  0  0  0  0  0
   17.8348   39.3031  -12.4717 C   0  0  0  0  0  0  0  0  0  0  0  0
   16.4844   38.8086  -12.9580 C   0  0  0  0  0  0  0  0  0  0  0  0
   18.9528   38.7913  -13.3666 C   0  0  0  0  0  0  0  0  0  0  0  0
   18.3913   40.2631   -7.6126 C   0  0  0  0  0  0  0  0  0  0  0  0
   18.3324   38.8737   -8.0111 N   0  0  0  0  0  0  0  0  0  0  0  0
   17.5797   37.9681   -7.3610 C   0  0  0  0  0  0  0  0  0  0  0  0
   16.8561   38.2300   -6.4169 O   0  0  0  0  0  0  0  0  0  0  0  0
   18.8627   38.5802   -8.7869 H   0  0  0  0  0  0  0  0  0  0  0  0
   17.6225   36.6365   -7.9590 O   0  0  0  0  0  0  0  0  0  0  0  0
   16.9409   35.5087   -7.4343 C   0  0  0  0  0  0  0  0  0  0  0  0
   15.7424   36.0942   -6.6999 C   0  0  0  0  0  0  0  0  0  0  0  0
   14.6752   36.1659   -7.6576 O   0  0  0  0  0  0  0  0  0  0  0  0
   14.9366   35.2568   -8.7504 C   0  0  0  0  0  0  0  0  0  0  0  0
   14.9398   35.9115  -10.0381 O   0  0  0  0  0  0  0  0  0  0  0  0
   16.1806   35.7060  -10.7239 C   0  0  0  0  0  0  0  0  0  0  0  0
   17.0061   34.7257   -9.8910 C   0  0  0  0  0  0  0  0  0  0  0  0
   16.3197   34.6698   -8.5326 C   0  0  0  0  0  0  0  0  0  0  0  0
   19.8507   40.5260   -7.2544 C   0  0  0  0  0  0  0  0  0  0  0  0
   19.0346   42.7450   -6.4343 C   0  0  0  0  0  0  0  0  0  0  0  0
   19.1143   43.8343   -5.5698 C   0  0  0  0  0  0  0  0  0  0  0  0
   20.0637   43.8646   -4.5509 C   0  0  0  0  0  0  0  0  0  0  0  0
   20.9655   42.8111   -4.4249 C   0  0  0  0  0  0  0  0  0  0  0  0
   20.8935   41.7242   -5.2993 C   0  0  0  0  0  0  0  0  0  0  0  0
   19.9328   41.6944   -6.3068 C   0  0  0  0  0  0  0  0  0  0  0  0
  9 10  1  0  0  0
 10 11  2  0  0  0
 10 15  1  0  0  0
 11 12  1  0  0  0
 12 13  2  0  0  0
 13 14  1  0  0  0
 13  6  1  0  0  0
 14 15  2  0  0  0
  6  7  2  0  0  0
  6  8  2  0  0  0
  6  5  1  0  0  0
  5 18  1  0  0  0
  5  4  1  0  0  0
 18 19  1  0  0  0
 19 20  1  0  0  0
 19 21  1  0  0  0
  4  1  1  0  0  0
  1  2  1  0  0  0
  1 22  1  0  0  0
 22 23  1  0  0  0
 22 36  1  0  0  0
 23 24  1  0  0  0
 24 25  2  0  0  0
 24 27  1  0  0  0
 27 28  1  0  0  0
 28 29  1  0  0  0
 28 35  1  0  0  0
 29 30  1  0  0  0
 30 31  1  0  0  0
 31 32  1  0  0  0
 31 35  1  0  0  0
 32 33  1  0  0  0
 33 34  1  0  0  0
 34 35  1  0  0  0
 36 42  1  0  0  0
 37 38  2  0  0  0
 37 42  1  0  0  0
 38 39  1  0  0  0
 39 40  2  0  0  0
 40 41  1  0  0  0
 41 42  2  0  0  0
  9 16  1  0  0  0
  9 17  1  0  0  0
  2  3  1  0  0  0
 23 26  1  0  0  0
M  END
> <minimizedAffinity>
-9.91380

$$$$
3EKT_017_B_200


 42 45  0  0  0  0  0  0  0  0999 V2000
   19.5012   42.3882  -10.1591 C   0  0  0  0  0  0  0  0  0  0  0  0
   18.0801   42.3259  -10.2470 O   0  0  0  0  0  0  0  0  0  0  0  0
   17.7508   41.6226   -9.6658 H   0  0  0  0  0  0  0  0  0  0  0  0
   20.0311   41.0242  -10.5764 C   0  0  0  0  0  0  0  0  0  0  0  0
   18.9168   40.2430  -11.1042 N   0  0  0  0  0  0  0  0  0  0  0  0
   19.1607   39.8709  -12.6698 S   0  0  0  0  0  0  0  0  0  0  0  0
   19.1165   41.0963  -13.4184 O   0  0  0  0  0  0  0  0  0  0  0  0
   20.5033   39.3530  -12.7709 O   0  0  0  0  0  0  0  0  0  0  0  0
   15.7125   35.7811  -14.5355 N   0  0  0  0  0  0  0  0  0  0  0  0
   16.5104   36.7698  -14.0958 C   0  0  0  0  0  0  0  0  0  0  0  0
   15.9473   37.9989  -13.7944 C   0  0  0  0  0  0  0  0  0  0  0  0
   16.7702   39.0084  -13.3474 C   0  0  0  0  0  0  0  0  0  0  0  0
   18.1204   38.7466  -13.1848 C   0  0  0  0  0  0  0  0  0  0  0  0
   18.5722   37.4791  -13.5235 C   0  0  0  0  0  0  0  0  0  0  0  0
   17.7698   36.5555  -13.9444 C   0  0  0  0  0  0  0  0  0  0  0  0
   14.7483   35.9419  -14.6524 H   0  0  0  0  0  0  0  0  0  0  0  0
   16.0924   34.8963  -14.7406 H   0  0  0  0  0  0  0  0  0  0  0  0
   18.7387   39.0308  -10.3057 C   0  0  0  0  0  0  0  0  0  0  0  0
   17.4242   39.0524   -9.5432 C   0  0  0  0  0  0  0  0  0  0  0  0
   16.6667   37.7458   -9.6967 C   0  0  0  0  0  0  0  0  0  0  0  0
   17.7221   39.3366   -8.0792 C   0  0  0  0  0  0  0  0  0  0  0  0
   20.0116   42.7659   -8.7567 C   0  0  0  0  0  0  0  0  0  0  0  0
   20.5677   44.0987   -8.8407 N   0  0  0  0  0  0  0  0  0  0  0  0
   21.8686   44.3227   -9.0989 C   0  0  0  0  0  0  0  0  0  0  0  0
   22.6832   43.4455   -9.3235 O   0  0  0  0  0  0  0  0  0  0  0  0
   19.9719   44.8705   -8.7038 H   0  0  0  0  0  0  0  0  0  0  0  0
   22.2095   45.7396   -9.1927 O   0  0  0  0  0  0  0  0  0  0  0  0
   22.9011   46.3186  -10.2874 C   0  0  0  0  0  0  0  0  0  0  0  0
   21.8136   46.9922  -11.1132 C   0  0  0  0  0  0  0  0  0  0  0  0
   21.6945   48.3321  -10.6113 O   0  0  0  0  0  0  0  0  0  0  0  0
   22.9009   48.6991   -9.9051 C   0  0  0  0  0  0  0  0  0  0  0  0
   22.6509   49.1208   -8.5462 O   0  0  0  0  0  0  0  0  0  0  0  0
   23.3893   48.3267   -7.6102 C   0  0  0  0  0  0  0  0  0  0  0  0
   24.3043   47.4042   -8.4151 C   0  0  0  0  0  0  0  0  0  0  0  0
   23.7857   47.4668   -9.8458 C   0  0  0  0  0  0  0  0  0  0  0  0
   18.9238   42.8412   -7.6900 C   0  0  0  0  0  0  0  0  0  0  0  0
   19.3802   43.9569   -5.4970 C   0  0  0  0  0  0  0  0  0  0  0  0
   19.9768   43.9828   -4.2385 C   0  0  0  0  0  0  0  0  0  0  0  0
   20.7225   42.8979   -3.7834 C   0  0  0  0  0  0  0  0  0  0  0  0
   20.9035   41.7955   -4.6147 C   0  0  0  0  0  0  0  0  0  0  0  0
   20.3153   41.7742   -5.8814 C   0  0  0  0  0  0  0  0  0  0  0  0
   19.5596   42.8567   -6.3242 C   0  0  0  0  0  0  0  0  0  0  0  0
  9 10  1  0  0  0
 10 11  2  0  0  0
 10 15  1  0  0  0
 11 12  1  0  0  0
 12 13  2  0  0  0
 13 14  1  0  0  0
 13  6  1  0  0  0
 14 15  2  0  0  0
  6  7  2  0  0  0
  6  8  2  0  0  0
  6  5  1  0  0  0
  5 18  1  0  0  0
  5  4  1  0  0  0
 18 19  1  0  0  0
 19 20  1  0  0  0
 19 21  1  0  0  0
  4  1  1  0  0  0
  1  2  1  0  0  0
  1 22  1  0  0  0
 22 23  1  0  0  0
 22 36  1  0  0  0
 23 24  1  0  0  0
 24 25  2  0  0  0
 24 27  1  0  0  0
 27 28  1  0  0  0
 28 29  1  0  0  0
 28 35  1  0  0  0
 29 30  1  0  0  0
 30 31  1  0  0  0
 31 32  1  0  0  0
 31 35  1  0  0  0
 32 33  1  0  0  0
 33 34  1  0  0  0
 34 35  1  0  0  0
 36 42  1  0  0  0
 37 38  2  0  0  0
 37 42  1  0  0  0
 38 39  1  0  0  0
 39 40  2  0  0  0
 40 41  1  0  0  0
 41 42  2  0  0  0
  9 16  1  0  0  0
  9 17  1  0  0  0
  2  3  1  0  0  0
 23 26  1  0  0  0
M  END
> <minimizedAffinity>
-9.54373

$$$$
3EKT_017_B_200


 42 45  0  0  0  0  0  0  0  0999 V2000
   18.7534   41.9404   -9.1128 C   0  0  0  0  0  0  0  0  0  0  0  0
   18.4412   43.1479   -9.8024 O   0  0  0  0  0  0  0  0  0  0  0  0
   19.0866   43.2911  -10.5121 H   0  0  0  0  0  0  0  0  0  0  0  0
   20.1636   42.0964   -8.5628 C   0  0  0  0  0  0  0  0  0  0  0  0
   20.2012   43.2985   -7.7358 N   0  0  0  0  0  0  0  0  0  0  0  0
   20.2428   42.9128   -6.1551 S   0  0  0  0  0  0  0  0  0  0  0  0
   18.9104   42.5454   -5.7635 O   0  0  0  0  0  0  0  0  0  0  0  0
   21.0670   41.7349   -6.0350 O   0  0  0  0  0  0  0  0  0  0  0  0
   22.7105   46.9374   -3.0229 N   0  0  0  0  0  0  0  0  0  0  0  0
   22.1004   45.9929   -3.7600 C   0  0  0  0  0  0  0  0  0  0  0  0
   20.7501   46.1299   -4.0365 C   0  0  0  0  0  0  0  0  0  0  0  0
   20.1302   45.1577   -4.7894 C   0  0  0  0  0  0  0  0  0  0  0  0
   20.8861   44.1006   -5.2680 C   0  0  0  0  0  0  0  0  0  0  0  0
   22.2295   44.0659   -4.9225 C   0  0  0  0  0  0  0  0  0  0  0  0
   22.7778   44.9959   -4.2095 C   0  0  0  0  0  0  0  0  0  0  0  0
   22.1949   47.7016   -2.6775 H   0  0  0  0  0  0  0  0  0  0  0  0
   23.6729   46.8647   -2.8286 H   0  0  0  0  0  0  0  0  0  0  0  0
   21.3585   44.1152   -8.1000 C   0  0  0  0  0  0  0  0  0  0  0  0
   20.9362   45.4399   -8.7134 C   0  0  0  0  0  0  0  0  0  0  0  0
   21.5601   46.6174   -7.9863 C   0  0  0  0  0  0  0  0  0  0  0  0
   21.3333   45.4384  -10.1815 C   0  0  0  0  0  0  0  0  0  0  0  0
   18.6491   40.6855   -9.9983 C   0  0  0  0  0  0  0  0  0  0  0  0
   17.7030   39.7884   -9.3715 N   0  0  0  0  0  0  0  0  0  0  0  0
   18.0858   38.8003   -8.5430 C   0  0  0  0  0  0  0  0  0  0  0  0
   19.2394   38.5920   -8.2125 O   0  0  0  0  0  0  0  0  0  0  0  0
   16.7434   39.9055   -9.5582 H   0  0  0  0  0  0  0  0  0  0  0  0
   16.9694   38.0469   -7.9783 O   0  0  0  0  0  0  0  0  0  0  0  0
   17.0597   36.6991   -7.5457 C   0  0  0  0  0  0  0  0  0  0  0  0
   15.8983   36.5306   -6.5756 C   0  0  0  0  0  0  0  0  0  0  0  0
   14.7755   36.0972   -7.3585 O   0  0  0  0  0  0  0  0  0  0  0  0
   15.2381   35.5256   -8.6028 C   0  0  0  0  0  0  0  0  0  0  0  0
   14.6633   36.1654   -9.7635 O   0  0  0  0  0  0  0  0  0  0  0  0
   15.6801   36.6767  -10.6334 C   0  0  0  0  0  0  0  0  0  0  0  0
   17.0287   36.2179  -10.0795 C   0  0  0  0  0  0  0  0  0  0  0  0
   16.7412   35.7297   -8.6658 C   0  0  0  0  0  0  0  0  0  0  0  0
   18.1022   40.9464  -11.3982 C   0  0  0  0  0  0  0  0  0  0  0  0
   19.2792   38.8775  -12.1703 C   0  0  0  0  0  0  0  0  0  0  0  0
   19.3255   37.7037  -12.9190 C   0  0  0  0  0  0  0  0  0  0  0  0
   18.2246   37.2951  -13.6683 C   0  0  0  0  0  0  0  0  0  0  0  0
   17.0833   38.0923  -13.6974 C   0  0  0  0  0  0  0  0  0  0  0  0
   17.0410   39.2755  -12.9563 C   0  0  0  0  0  0  0  0  0  0  0  0
   18.1403   39.6706  -12.1985 C   0  0  0  0  0  0  0  0  0  0  0  0
  9 10  1  0  0  0
 10 11  2  0  0  0
 10 15  1  0  0  0
 11 12  1  0  0  0
 12 13  2  0  0  0
 13 14  1  0  0  0
 13  6  1  0  0  0
 14 15  2  0  0  0
  6  7  2  0  0  0
  6  8  2  0  0  0
  6  5  1  0  0  0
  5 18  1  0  0  0
  5  4  1  0  0  0
 18 19  1  0  0  0
 19 20  1  0  0  0
 19 21  1  0  0  0
  4  1  1  0  0  0
  1  2  1  0  0  0
  1 22  1  0  0  0
 22 23  1  0  0  0
 22 36  1  0  0  0
 23 24  1  0  0  0
 24 25  2  0  0  0
 24 27  1  0  0  0
 27 28  1  0  0  0
 28 29  1  0  0  0
 28 35  1  0  0  0
 29 30  1  0  0  0
 30 31  1  0  0  0
 31 32  1  0  0  0
 31 35  1  0  0  0
 32 33  1  0  0  0
 33 34  1  0  0  0
 34 35  1  0  0  0
 36 42  1  0  0  0
 37 38  2  0  0  0
 37 42  1  0  0  0
 38 39  1  0  0  0
 39 40  2  0  0  0
 40 41  1  0  0  0
 41 42  2  0  0  0
  9 16  1  0  0  0
  9 17  1  0  0  0
  2  3  1  0  0  0
 23 26  1  0  0  0
M  END
> <minimizedAffinity>
-9.50404

$$$$
3EKT_017_B_200


 42 45  0  0  0  0  0  0  0  0999 V2000
   19.0025   42.2602   -7.9064 C   0  0  0  0  0  0  0  0  0  0  0  0
   17.9781   41.7415   -7.0622 O   0  0  0  0  0  0  0  0  0  0  0  0
   18.3720   41.1509   -6.4012 H   0  0  0  0  0  0  0  0  0  0  0  0
   19.6851   41.0670   -8.5590 C   0  0  0  0  0  0  0  0  0  0  0  0
   18.7548   40.4751   -9.5153 N   0  0  0  0  0  0  0  0  0  0  0  0
   19.2708   40.7029  -11.0420 S   0  0  0  0  0  0  0  0  0  0  0  0
   18.9806   42.0639  -11.3989 O   0  0  0  0  0  0  0  0  0  0  0  0
   20.7061   40.5596  -11.0227 O   0  0  0  0  0  0  0  0  0  0  0  0
   17.3048   36.7613  -14.6052 N   0  0  0  0  0  0  0  0  0  0  0  0
   17.7498   37.7125  -13.7657 C   0  0  0  0  0  0  0  0  0  0  0  0
   16.9113   38.7681  -13.4471 C   0  0  0  0  0  0  0  0  0  0  0  0
   17.3740   39.7407  -12.5892 C   0  0  0  0  0  0  0  0  0  0  0  0
   18.6440   39.6090  -12.0530 C   0  0  0  0  0  0  0  0  0  0  0  0
   19.3955   38.5117  -12.4487 C   0  0  0  0  0  0  0  0  0  0  0  0
   18.9291   37.6186  -13.2606 C   0  0  0  0  0  0  0  0  0  0  0  0
   16.4027   36.8303  -14.9935 H   0  0  0  0  0  0  0  0  0  0  0  0
   17.8810   35.9959  -14.8316 H   0  0  0  0  0  0  0  0  0  0  0  0
   18.5917   39.0497   -9.2313 C   0  0  0  0  0  0  0  0  0  0  0  0
   17.1931   38.7377   -8.7251 C   0  0  0  0  0  0  0  0  0  0  0  0
   16.4930   37.7196   -9.6071 C   0  0  0  0  0  0  0  0  0  0  0  0
   17.3011   38.2316   -7.2951 C   0  0  0  0  0  0  0  0  0  0  0  0
   20.0270   43.1335   -7.1597 C   0  0  0  0  0  0  0  0  0  0  0  0
   20.2646   44.3108   -7.9661 N   0  0  0  0  0  0  0  0  0  0  0  0
   21.3102   44.4105   -8.8064 C   0  0  0  0  0  0  0  0  0  0  0  0
   22.1214   43.5225   -8.9989 O   0  0  0  0  0  0  0  0  0  0  0  0
   19.6379   45.0669   -7.8974 H   0  0  0  0  0  0  0  0  0  0  0  0
   21.3337   45.6592   -9.5633 O   0  0  0  0  0  0  0  0  0  0  0  0
   22.4902   46.1817  -10.1967 C   0  0  0  0  0  0  0  0  0  0  0  0
   21.9503   47.1595  -11.2315 C   0  0  0  0  0  0  0  0  0  0  0  0
   21.8581   48.4337  -10.5762 O   0  0  0  0  0  0  0  0  0  0  0  0
   22.7215   48.4515   -9.4173 C   0  0  0  0  0  0  0  0  0  0  0  0
   22.0188   48.7753   -8.1973 O   0  0  0  0  0  0  0  0  0  0  0  0
   22.1803   47.7460   -7.2143 C   0  0  0  0  0  0  0  0  0  0  0  0
   23.1791   46.7330   -7.7730 C   0  0  0  0  0  0  0  0  0  0  0  0
   23.2961   47.0554   -9.2570 C   0  0  0  0  0  0  0  0  0  0  0  0
   19.5460   43.6519   -5.8080 C   0  0  0  0  0  0  0  0  0  0  0  0
   20.3805   45.6353   -4.5306 C   0  0  0  0  0  0  0  0  0  0  0  0
   21.4062   46.3558   -3.9230 C   0  0  0  0  0  0  0  0  0  0  0  0
   22.7039   45.8506   -3.8861 C   0  0  0  0  0  0  0  0  0  0  0  0
   22.9808   44.6313   -4.4992 C   0  0  0  0  0  0  0  0  0  0  0  0
   21.9547   43.9144   -5.1189 C   0  0  0  0  0  0  0  0  0  0  0  0
   20.6571   44.4191   -5.1398 C   0  0  0  0  0  0  0  0  0  0  0  0
  9 10  1  0  0  0
 10 11  2  0  0  0
 10 15  1  0  0  0
 11 12  1  0  0  0
 12 13  2  0  0  0
 13 14  1  0  0  0
 13  6  1  0  0  0
 14 15  2  0  0  0
  6  7  2  0  0  0
  6  8  2  0  0  0
  6  5  1  0  0  0
  5 18  1  0  0  0
  5  4  1  0  0  0
 18 19  1  0  0  0
 19 20  1  0  0  0
 19 21  1  0  0  0
  4  1  1  0  0  0
  1  2  1  0  0  0
  1 22  1  0  0  0
 22 23  1  0  0  0
 22 36  1  0  0  0
 23 24  1  0  0  0
 24 25  2  0  0  0
 24 27  1  0  0  0
 27 28  1  0  0  0
 28 29  1  0  0  0
 28 35  1  0  0  0
 29 30  1  0  0  0
 30 31  1  0  0  0
 31 32  1  0  0  0
 31 35  1  0  0  0
 32 33  1  0  0  0
 33 34  1  0  0  0
 34 35  1  0  0  0
 36 42  1  0  0  0
 37 38  2  0  0  0
 37 42  1  0  0  0
 38 39  1  0  0  0
 39 40  2  0  0  0
 40 41  1  0  0  0
 41 42  2  0  0  0
  9 16  1  0  0  0
  9 17  1  0  0  0
  2  3  1  0  0  0
 23 26  1  0  0  0
M  END
> <minimizedAffinity>
-9.43727

$$$$
3EKT_017_B_200


 42 45  0  0  0  0  0  0  0  0999 V2000
   20.2406   42.3492   -9.9721 C   0  0  0  0  0  0  0  0  0  0  0  0
   21.4045   41.5493  -10.1638 O   0  0  0  0  0  0  0  0  0  0  0  0
   21.9460   41.9309  -10.8724 H   0  0  0  0  0  0  0  0  0  0  0  0
   19.4936   42.3689  -11.2977 C   0  0  0  0  0  0  0  0  0  0  0  0
   18.7869   41.1001  -11.4428 N   0  0  0  0  0  0  0  0  0  0  0  0
   19.3527   40.2650  -12.7202 S   0  0  0  0  0  0  0  0  0  0  0  0
   19.6015   41.2057  -13.7771 O   0  0  0  0  0  0  0  0  0  0  0  0
   20.6261   39.7132  -12.3265 O   0  0  0  0  0  0  0  0  0  0  0  0
   15.6710   36.1929  -14.1202 N   0  0  0  0  0  0  0  0  0  0  0  0
   16.5638   37.1400  -13.7835 C   0  0  0  0  0  0  0  0  0  0  0  0
   17.8956   36.7847  -13.6471 C   0  0  0  0  0  0  0  0  0  0  0  0
   18.8047   37.7587  -13.2991 C   0  0  0  0  0  0  0  0  0  0  0  0
   18.3589   39.0591  -13.1322 C   0  0  0  0  0  0  0  0  0  0  0  0
   17.0007   39.2957  -13.2899 C   0  0  0  0  0  0  0  0  0  0  0  0
   16.1744   38.3543  -13.6139 C   0  0  0  0  0  0  0  0  0  0  0  0
   15.9658   35.2627  -14.2508 H   0  0  0  0  0  0  0  0  0  0  0  0
   14.7225   36.4295  -14.2362 H   0  0  0  0  0  0  0  0  0  0  0  0
   18.9158   40.3172  -10.2143 C   0  0  0  0  0  0  0  0  0  0  0  0
   17.5831   39.7245   -9.7875 C   0  0  0  0  0  0  0  0  0  0  0  0
   17.6442   38.2097   -9.7078 C   0  0  0  0  0  0  0  0  0  0  0  0
   17.1997   40.3221   -8.4426 C   0  0  0  0  0  0  0  0  0  0  0  0
   20.5530   43.7811   -9.5008 C   0  0  0  0  0  0  0  0  0  0  0  0
   20.1912   43.8672   -8.1028 N   0  0  0  0  0  0  0  0  0  0  0  0
   18.9183   43.7679   -7.6796 C   0  0  0  0  0  0  0  0  0  0  0  0
   17.9675   43.5589   -8.4116 O   0  0  0  0  0  0  0  0  0  0  0  0
   20.9030   44.0037   -7.4365 H   0  0  0  0  0  0  0  0  0  0  0  0
   18.7798   43.8284   -6.2271 O   0  0  0  0  0  0  0  0  0  0  0  0
   19.0909   42.7542   -5.3547 C   0  0  0  0  0  0  0  0  0  0  0  0
   19.6834   41.6846   -6.2621 C   0  0  0  0  0  0  0  0  0  0  0  0
   21.0980   41.9262   -6.3039 O   0  0  0  0  0  0  0  0  0  0  0  0
   21.4937   42.7153   -5.1594 C   0  0  0  0  0  0  0  0  0  0  0  0
   22.1771   43.9341   -5.5258 O   0  0  0  0  0  0  0  0  0  0  0  0
   21.5142   45.0847   -4.9886 C   0  0  0  0  0  0  0  0  0  0  0  0
   20.3904   44.5831   -4.0823 C   0  0  0  0  0  0  0  0  0  0  0  0
   20.2281   43.1063   -4.4174 C   0  0  0  0  0  0  0  0  0  0  0  0
   22.0297   44.1576   -9.5668 C   0  0  0  0  0  0  0  0  0  0  0  0
   22.0733   46.2529  -10.9343 C   0  0  0  0  0  0  0  0  0  0  0  0
   22.2085   47.6343  -11.0519 C   0  0  0  0  0  0  0  0  0  0  0  0
   22.3942   48.4285   -9.9226 C   0  0  0  0  0  0  0  0  0  0  0  0
   22.4850   47.8263   -8.6704 C   0  0  0  0  0  0  0  0  0  0  0  0
   22.3615   46.4399   -8.5536 C   0  0  0  0  0  0  0  0  0  0  0  0
   22.1620   45.6536   -9.6854 C   0  0  0  0  0  0  0  0  0  0  0  0
  9 10  1  0  0  0
 10 11  2  0  0  0
 10 15  1  0  0  0
 11 12  1  0  0  0
 12 13  2  0  0  0
 13 14  1  0  0  0
 13  6  1  0  0  0
 14 15  2  0  0  0
  6  7  2  0  0  0
  6  8  2  0  0  0
  6  5  1  0  0  0
  5 18  1  0  0  0
  5  4  1  0  0  0
 18 19  1  0  0  0
 19 20  1  0  0  0
 19 21  1  0  0  0
  4  1  1  0  0  0
  1  2  1  0  0  0
  1 22  1  0  0  0
 22 23  1  0  0  0
 22 36  1  0  0  0
 23 24  1  0  0  0
 24 25  2  0  0  0
 24 27  1  0  0  0
 27 28  1  0  0  0
 28 29  1  0  0  0
 28 35  1  0  0  0
 29 30  1  0  0  0
 30 31  1  0  0  0
 31 32  1  0  0  0
 31 35  1  0  0  0
 32 33  1  0  0  0
 33 34  1  0  0  0
 34 35  1  0  0  0
 36 42  1  0  0  0
 37 38  2  0  0  0
 37 42  1  0  0  0
 38 39  1  0  0  0
 39 40  2  0  0  0
 40 41  1  0  0  0
 41 42  2  0  0  0
  9 16  1  0  0  0
  9 17  1  0  0  0
  2  3  1  0  0  0
 23 26  1  0  0  0
M  END
> <minimizedAffinity>
-9.39502

$$$$
3EKT_017_B_200


 42 45  0  0  0  0  0  0  0  0999 V2000
   17.6883   42.0306   -9.0337 C   0  0  0  0  0  0  0  0  0  0  0  0
   16.3169   42.3896   -9.1803 O   0  0  0  0  0  0  0  0  0  0  0  0
   16.1780   42.7851  -10.0550 H   0  0  0  0  0  0  0  0  0  0  0  0
   18.5008   43.3056   -9.2061 C   0  0  0  0  0  0  0  0  0  0  0  0
   19.7756   43.1319   -8.5168 N   0  0  0  0  0  0  0  0  0  0  0  0
   21.0221   43.3976   -9.5290 S   0  0  0  0  0  0  0  0  0  0  0  0
   22.0487   42.4440   -9.2118 O   0  0  0  0  0  0  0  0  0  0  0  0
   20.5508   43.0965  -10.8587 O   0  0  0  0  0  0  0  0  0  0  0  0
   22.7322   48.7983   -9.6067 N   0  0  0  0  0  0  0  0  0  0  0  0
   22.3372   47.5139   -9.5632 C   0  0  0  0  0  0  0  0  0  0  0  0
   22.4146   46.8314   -8.3604 C   0  0  0  0  0  0  0  0  0  0  0  0
   22.0115   45.5152   -8.3230 C   0  0  0  0  0  0  0  0  0  0  0  0
   21.5141   44.9361   -9.4785 C   0  0  0  0  0  0  0  0  0  0  0  0
   21.4886   45.7161  -10.6258 C   0  0  0  0  0  0  0  0  0  0  0  0
   21.8795   46.9495  -10.6247 C   0  0  0  0  0  0  0  0  0  0  0  0
   23.0830   49.2331   -8.7961 H   0  0  0  0  0  0  0  0  0  0  0  0
   22.6706   49.3040  -10.4491 H   0  0  0  0  0  0  0  0  0  0  0  0
   19.8432   44.0308   -7.3651 C   0  0  0  0  0  0  0  0  0  0  0  0
   19.6721   43.2763   -6.0570 C   0  0  0  0  0  0  0  0  0  0  0  0
   20.8764   42.4037   -5.7527 C   0  0  0  0  0  0  0  0  0  0  0  0
   19.4419   44.2879   -4.9450 C   0  0  0  0  0  0  0  0  0  0  0  0
   18.1485   40.9516  -10.0307 C   0  0  0  0  0  0  0  0  0  0  0  0
   17.5440   39.7008   -9.6274 N   0  0  0  0  0  0  0  0  0  0  0  0
   18.2264   38.7511   -8.9628 C   0  0  0  0  0  0  0  0  0  0  0  0
   19.3853   38.8637   -8.6056 O   0  0  0  0  0  0  0  0  0  0  0  0
   16.5982   39.5386   -9.8476 H   0  0  0  0  0  0  0  0  0  0  0  0
   17.4143   37.5910   -8.6056 O   0  0  0  0  0  0  0  0  0  0  0  0
   17.6495   36.7778   -7.4676 C   0  0  0  0  0  0  0  0  0  0  0  0
   16.9000   37.4735   -6.3394 C   0  0  0  0  0  0  0  0  0  0  0  0
   15.5743   36.9223   -6.3328 O   0  0  0  0  0  0  0  0  0  0  0  0
   15.5728   35.6432   -7.0059 C   0  0  0  0  0  0  0  0  0  0  0  0
   14.6291   35.5835   -8.0980 O   0  0  0  0  0  0  0  0  0  0  0  0
   15.2781   35.2453   -9.3294 C   0  0  0  0  0  0  0  0  0  0  0  0
   16.7351   34.9182   -9.0032 C   0  0  0  0  0  0  0  0  0  0  0  0
   16.9594   35.4343   -7.5880 C   0  0  0  0  0  0  0  0  0  0  0  0
   17.6902   41.1851  -11.4669 C   0  0  0  0  0  0  0  0  0  0  0  0
   16.9652   39.2891  -12.9304 C   0  0  0  0  0  0  0  0  0  0  0  0
   17.2422   38.1535  -13.6880 C   0  0  0  0  0  0  0  0  0  0  0  0
   18.5526   37.7095  -13.8495 C   0  0  0  0  0  0  0  0  0  0  0  0
   19.5881   38.3882  -13.2122 C   0  0  0  0  0  0  0  0  0  0  0  0
   19.3092   39.5200  -12.4425 C   0  0  0  0  0  0  0  0  0  0  0  0
   17.9983   39.9661  -12.2970 C   0  0  0  0  0  0  0  0  0  0  0  0
  9 10  1  0  0  0
 10 11  2  0  0  0
 10 15  1  0  0  0
 11 12  1  0  0  0
 12 13  2  0  0  0
 13 14  1  0  0  0
 13  6  1  0  0  0
 14 15  2  0  0  0
  6  7  2  0  0  0
  6  8  2  0  0  0
  6  5  1  0  0  0
  5 18  1  0  0  0
  5  4  1  0  0  0
 18 19  1  0  0  0
 19 20  1  0  0  0
 19 21  1  0  0  0
  4  1  1  0  0  0
  1  2  1  0  0  0
  1 22  1  0  0  0
 22 23  1  0  0  0
 22 36  1  0  0  0
 23 24  1  0  0  0
 24 25  2  0  0  0
 24 27  1  0  0  0
 27 28  1  0  0  0
 28 29  1  0  0  0
 28 35  1  0  0  0
 29 30  1  0  0  0
 30 31  1  0  0  0
 31 32  1  0  0  0
 31 35  1  0  0  0
 32 33  1  0  0  0
 33 34  1  0  0  0
 34 35  1  0  0  0
 36 42  1  0  0  0
 37 38  2  0  0  0
 37 42  1  0  0  0
 38 39  1  0  0  0
 39 40  2  0  0  0
 40 41  1  0  0  0
 41 42  2  0  0  0
  9 16  1  0  0  0
  9 17  1  0  0  0
  2  3  1  0  0  0
 23 26  1  0  0  0
M  END
> <minimizedAffinity>
-9.37134

$$$$
3EKT_017_B_200


 42 45  0  0  0  0  0  0  0  0999 V2000
   17.7140   41.3634   -9.2107 C   0  0  0  0  0  0  0  0  0  0  0  0
   16.3764   41.8238   -9.0372 O   0  0  0  0  0  0  0  0  0  0  0  0
   15.7597   41.0915   -9.1927 H   0  0  0  0  0  0  0  0  0  0  0  0
   17.8198   40.8360  -10.6341 C   0  0  0  0  0  0  0  0  0  0  0  0
   19.1604   41.1287  -11.1315 N   0  0  0  0  0  0  0  0  0  0  0  0
   19.4224   40.3913  -12.5586 S   0  0  0  0  0  0  0  0  0  0  0  0
   19.4022   41.4023  -13.5790 O   0  0  0  0  0  0  0  0  0  0  0  0
   20.7607   39.8546  -12.5109 O   0  0  0  0  0  0  0  0  0  0  0  0
   15.9510   35.9934  -13.3981 N   0  0  0  0  0  0  0  0  0  0  0  0
   16.7567   37.0533  -13.2115 C   0  0  0  0  0  0  0  0  0  0  0  0
   16.2624   38.3217  -13.4674 C   0  0  0  0  0  0  0  0  0  0  0  0
   17.0935   39.4030  -13.2773 C   0  0  0  0  0  0  0  0  0  0  0  0
   18.3774   39.1839  -12.8069 C   0  0  0  0  0  0  0  0  0  0  0  0
   18.7643   37.8690  -12.5904 C   0  0  0  0  0  0  0  0  0  0  0  0
   17.9570   36.8766  -12.7836 C   0  0  0  0  0  0  0  0  0  0  0  0
   15.0320   36.1253  -13.7255 H   0  0  0  0  0  0  0  0  0  0  0  0
   16.2800   35.0853  -13.2073 H   0  0  0  0  0  0  0  0  0  0  0  0
   19.3384   42.5750  -11.2558 C   0  0  0  0  0  0  0  0  0  0  0  0
   20.1002   43.1477  -10.0719 C   0  0  0  0  0  0  0  0  0  0  0  0
   21.4806   42.5295   -9.9428 C   0  0  0  0  0  0  0  0  0  0  0  0
   20.1964   44.6554  -10.2459 C   0  0  0  0  0  0  0  0  0  0  0  0
   18.1251   40.2812   -8.1960 C   0  0  0  0  0  0  0  0  0  0  0  0
   18.8811   40.9320   -7.1484 N   0  0  0  0  0  0  0  0  0  0  0  0
   20.2193   40.8321   -7.0559 C   0  0  0  0  0  0  0  0  0  0  0  0
   20.9178   40.2302   -7.8517 O   0  0  0  0  0  0  0  0  0  0  0  0
   18.3983   41.4678   -6.4783 H   0  0  0  0  0  0  0  0  0  0  0  0
   20.7880   41.6087   -5.9577 O   0  0  0  0  0  0  0  0  0  0  0  0
   20.0152   42.2545   -4.9589 C   0  0  0  0  0  0  0  0  0  0  0  0
   20.8347   42.1034   -3.6845 C   0  0  0  0  0  0  0  0  0  0  0  0
   21.6947   43.2511   -3.6169 O   0  0  0  0  0  0  0  0  0  0  0  0
   21.1612   44.3116   -4.4413 C   0  0  0  0  0  0  0  0  0  0  0  0
   22.1006   44.7786   -5.4344 O   0  0  0  0  0  0  0  0  0  0  0  0
   21.5596   44.6675   -6.7561 C   0  0  0  0  0  0  0  0  0  0  0  0
   20.1024   44.2274   -6.6180 C   0  0  0  0  0  0  0  0  0  0  0  0
   19.9572   43.7526   -5.1782 C   0  0  0  0  0  0  0  0  0  0  0  0
   16.9549   39.5986   -7.4947 C   0  0  0  0  0  0  0  0  0  0  0  0
   17.2839   37.1585   -7.0476 C   0  0  0  0  0  0  0  0  0  0  0  0
   17.2326   35.8244   -7.4448 C   0  0  0  0  0  0  0  0  0  0  0  0
   16.7462   35.4758   -8.7027 C   0  0  0  0  0  0  0  0  0  0  0  0
   16.3461   36.4779   -9.5829 C   0  0  0  0  0  0  0  0  0  0  0  0
   16.4087   37.8166   -9.1893 C   0  0  0  0  0  0  0  0  0  0  0  0
   16.8830   38.1566   -7.9251 C   0  0  0  0  0  0  0  0  0  0  0  0
  9 10  1  0  0  0
 10 11  2  0  0  0
 10 15  1  0  0  0
 11 12  1  0  0  0
 12 13  2  0  0  0
 13 14  1  0  0  0
 13  6  1  0  0  0
 14 15  2  0  0  0
  6  7  2  0  0  0
  6  8  2  0  0  0
  6  5  1  0  0  0
  5 18  1  0  0  0
  5  4  1  0  0  0
 18 19  1  0  0  0
 19 20  1  0  0  0
 19 21  1  0  0  0
  4  1  1  0  0  0
  1  2  1  0  0  0
  1 22  1  0  0  0
 22 23  1  0  0  0
 22 36  1  0  0  0
 23 24  1  0  0  0
 24 25  2  0  0  0
 24 27  1  0  0  0
 27 28  1  0  0  0
 28 29  1  0  0  0
 28 35  1  0  0  0
 29 30  1  0  0  0
 30 31  1  0  0  0
 31 32  1  0  0  0
 31 35  1  0  0  0
 32 33  1  0  0  0
 33 34  1  0  0  0
 34 35  1  0  0  0
 36 42  1  0  0  0
 37 38  2  0  0  0
 37 42  1  0  0  0
 38 39  1  0  0  0
 39 40  2  0  0  0
 40 41  1  0  0  0
 41 42  2  0  0  0
  9 16  1  0  0  0
  9 17  1  0  0  0
  2  3  1  0  0  0
 23 26  1  0  0  0
M  END
> <minimizedAffinity>
-9.18572

$$$$
3EKT_017_B_200


 42 45  0  0  0  0  0  0  0  0999 V2000
   20.8110   41.5450   -9.1251 C   0  0  0  0  0  0  0  0  0  0  0  0
   22.0343   40.8632   -9.3893 O   0  0  0  0  0  0  0  0  0  0  0  0
   21.8639   40.1082   -9.9739 H   0  0  0  0  0  0  0  0  0  0  0  0
   19.8730   40.5368   -8.4773 C   0  0  0  0  0  0  0  0  0  0  0  0
   19.0075   41.2517   -7.5445 N   0  0  0  0  0  0  0  0  0  0  0  0
   17.4583   40.7838   -7.7174 S   0  0  0  0  0  0  0  0  0  0  0  0
   16.7685   41.1107   -6.5003 O   0  0  0  0  0  0  0  0  0  0  0  0
   16.8915   41.5975   -8.7651 O   0  0  0  0  0  0  0  0  0  0  0  0
   16.9899   35.4022   -9.4250 N   0  0  0  0  0  0  0  0  0  0  0  0
   17.1004   36.6708   -8.9937 C   0  0  0  0  0  0  0  0  0  0  0  0
   17.3562   36.9005   -7.6519 C   0  0  0  0  0  0  0  0  0  0  0  0
   17.4652   38.2020   -7.2157 C   0  0  0  0  0  0  0  0  0  0  0  0
   17.3486   39.2276   -8.1390 C   0  0  0  0  0  0  0  0  0  0  0  0
   17.0873   38.8770   -9.4559 C   0  0  0  0  0  0  0  0  0  0  0  0
   16.9874   37.6423   -9.8293 C   0  0  0  0  0  0  0  0  0  0  0  0
   17.0760   34.6565   -8.7880 H   0  0  0  0  0  0  0  0  0  0  0  0
   16.8231   35.2190  -10.3778 H   0  0  0  0  0  0  0  0  0  0  0  0
   19.4654   41.0296   -6.1734 C   0  0  0  0  0  0  0  0  0  0  0  0
   20.1796   42.2509   -5.6184 C   0  0  0  0  0  0  0  0  0  0  0  0
   19.2684   43.4646   -5.5844 C   0  0  0  0  0  0  0  0  0  0  0  0
   20.6896   41.9178   -4.2249 C   0  0  0  0  0  0  0  0  0  0  0  0
   20.1683   42.1584  -10.3823 C   0  0  0  0  0  0  0  0  0  0  0  0
   20.5832   43.5425  -10.4515 N   0  0  0  0  0  0  0  0  0  0  0  0
   19.9471   44.5206   -9.7821 C   0  0  0  0  0  0  0  0  0  0  0  0
   19.0034   44.3370   -9.0343 O   0  0  0  0  0  0  0  0  0  0  0  0
   21.3598   43.7773  -11.0091 H   0  0  0  0  0  0  0  0  0  0  0  0
   20.5602   45.8355   -9.9481 O   0  0  0  0  0  0  0  0  0  0  0  0
   21.9297   46.0394  -10.2560 C   0  0  0  0  0  0  0  0  0  0  0  0
   21.9342   47.2259  -11.2103 C   0  0  0  0  0  0  0  0  0  0  0  0
   22.0477   48.4020  -10.3948 O   0  0  0  0  0  0  0  0  0  0  0  0
   22.5905   48.0506   -9.1021 C   0  0  0  0  0  0  0  0  0  0  0  0
   21.7420   48.4581   -8.0063 O   0  0  0  0  0  0  0  0  0  0  0  0
   21.3821   47.3422   -7.1834 C   0  0  0  0  0  0  0  0  0  0  0  0
   22.1643   46.1304   -7.6890 C   0  0  0  0  0  0  0  0  0  0  0  0
   22.7051   46.5375   -9.0533 C   0  0  0  0  0  0  0  0  0  0  0  0
   20.6238   41.5270  -11.6941 C   0  0  0  0  0  0  0  0  0  0  0  0
   19.8189   39.3583  -12.6485 C   0  0  0  0  0  0  0  0  0  0  0  0
   18.8100   38.5487  -13.1654 C   0  0  0  0  0  0  0  0  0  0  0  0
   17.4977   39.0098  -13.2406 C   0  0  0  0  0  0  0  0  0  0  0  0
   17.2044   40.3079  -12.8307 C   0  0  0  0  0  0  0  0  0  0  0  0
   18.2182   41.1241  -12.3235 C   0  0  0  0  0  0  0  0  0  0  0  0
   19.5252   40.6515  -12.2385 C   0  0  0  0  0  0  0  0  0  0  0  0
  9 10  1  0  0  0
 10 11  2  0  0  0
 10 15  1  0  0  0
 11 12  1  0  0  0
 12 13  2  0  0  0
 13 14  1  0  0  0
 13  6  1  0  0  0
 14 15  2  0  0  0
  6  7  2  0  0  0
  6  8  2  0  0  0
  6  5  1  0  0  0
  5 18  1  0  0  0
  5  4  1  0  0  0
 18 19  1  0  0  0
 19 20  1  0  0  0
 19 21  1  0  0  0
  4  1  1  0  0  0
  1  2  1  0  0  0
  1 22  1  0  0  0
 22 23  1  0  0  0
 22 36  1  0  0  0
 23 24  1  0  0  0
 24 25  2  0  0  0
 24 27  1  0  0  0
 27 28  1  0  0  0
 28 29  1  0  0  0
 28 35  1  0  0  0
 29 30  1  0  0  0
 30 31  1  0  0  0
 31 32  1  0  0  0
 31 35  1  0  0  0
 32 33  1  0  0  0
 33 34  1  0  0  0
 34 35  1  0  0  0
 36 42  1  0  0  0
 37 38  2  0  0  0
 37 42  1  0  0  0
 38 39  1  0  0  0
 39 40  2  0  0  0
 40 41  1  0  0  0
 41 42  2  0  0  0
  9 16  1  0  0  0
  9 17  1  0  0  0
  2  3  1  0  0  0
 23 26  1  0  0  0
M  END
> <minimizedAffinity>
-9.03066

$$$$
3EKT_017_B_200


 42 45  0  0  0  0  0  0  0  0999 V2000
   18.3886   39.8666   -9.8308 C   0  0  0  0  0  0  0  0  0  0  0  0
   16.9798   40.0130   -9.9895 O   0  0  0  0  0  0  0  0  0  0  0  0
   16.5393   39.1834   -9.7473 H   0  0  0  0  0  0  0  0  0  0  0  0
   18.8194   38.7204  -10.7342 C   0  0  0  0  0  0  0  0  0  0  0  0
   17.6766   38.3305  -11.5541 N   0  0  0  0  0  0  0  0  0  0  0  0
   17.8448   38.8755  -13.0785 S   0  0  0  0  0  0  0  0  0  0  0  0
   17.1418   40.1248  -13.1721 O   0  0  0  0  0  0  0  0  0  0  0  0
   19.2471   39.1554  -13.2687 O   0  0  0  0  0  0  0  0  0  0  0  0
   15.9536   35.0689  -16.8243 N   0  0  0  0  0  0  0  0  0  0  0  0
   16.4263   35.9589  -15.9343 C   0  0  0  0  0  0  0  0  0  0  0  0
   17.7767   35.9430  -15.6263 C   0  0  0  0  0  0  0  0  0  0  0  0
   18.2542   36.8550  -14.7118 C   0  0  0  0  0  0  0  0  0  0  0  0
   17.3745   37.7723  -14.1618 C   0  0  0  0  0  0  0  0  0  0  0  0
   16.0426   37.6896  -14.5419 C   0  0  0  0  0  0  0  0  0  0  0  0
   15.6285   36.8162  -15.4020 C   0  0  0  0  0  0  0  0  0  0  0  0
   16.5616   34.4115  -17.2334 H   0  0  0  0  0  0  0  0  0  0  0  0
   14.9995   35.0747  -17.0669 H   0  0  0  0  0  0  0  0  0  0  0  0
   17.5278   36.8756  -11.5380 C   0  0  0  0  0  0  0  0  0  0  0  0
   16.3384   36.4453  -10.6956 C   0  0  0  0  0  0  0  0  0  0  0  0
   15.0828   37.2138  -11.0662 C   0  0  0  0  0  0  0  0  0  0  0  0
   16.1327   34.9501  -10.8824 C   0  0  0  0  0  0  0  0  0  0  0  0
   18.8165   39.6046   -8.3755 C   0  0  0  0  0  0  0  0  0  0  0  0
   19.5617   40.7603   -7.9265 N   0  0  0  0  0  0  0  0  0  0  0  0
   20.8925   40.8685   -8.0897 C   0  0  0  0  0  0  0  0  0  0  0  0
   21.5827   40.0402   -8.6563 O   0  0  0  0  0  0  0  0  0  0  0  0
   19.0769   41.4949   -7.4852 H   0  0  0  0  0  0  0  0  0  0  0  0
   21.4376   42.1369   -7.6135 O   0  0  0  0  0  0  0  0  0  0  0  0
   21.4939   43.3196   -8.3944 C   0  0  0  0  0  0  0  0  0  0  0  0
   20.7952   42.9515   -9.6962 C   0  0  0  0  0  0  0  0  0  0  0  0
   19.4053   43.2610   -9.5122 O   0  0  0  0  0  0  0  0  0  0  0  0
   19.2544   44.2116   -8.4340 C   0  0  0  0  0  0  0  0  0  0  0  0
   18.3697   43.7443   -7.3919 O   0  0  0  0  0  0  0  0  0  0  0  0
   19.0260   43.7305   -6.1188 C   0  0  0  0  0  0  0  0  0  0  0  0
   20.4017   44.3693   -6.3068 C   0  0  0  0  0  0  0  0  0  0  0  0
   20.6245   44.4158   -7.8128 C   0  0  0  0  0  0  0  0  0  0  0  0
   17.6571   39.4572   -7.3951 C   0  0  0  0  0  0  0  0  0  0  0  0
   18.1856   37.0173   -7.5667 C   0  0  0  0  0  0  0  0  0  0  0  0
   17.8101   35.6772   -7.5070 C   0  0  0  0  0  0  0  0  0  0  0  0
   16.5100   35.3186   -7.1587 C   0  0  0  0  0  0  0  0  0  0  0  0
   15.5698   36.3147   -6.9076 C   0  0  0  0  0  0  0  0  0  0  0  0
   15.9430   37.6588   -6.9791 C   0  0  0  0  0  0  0  0  0  0  0  0
   17.2482   38.0095   -7.3144 C   0  0  0  0  0  0  0  0  0  0  0  0
  9 10  1  0  0  0
 10 11  2  0  0  0
 10 15  1  0  0  0
 11 12  1  0  0  0
 12 13  2  0  0  0
 13 14  1  0  0  0
 13  6  1  0  0  0
 14 15  2  0  0  0
  6  7  2  0  0  0
  6  8  2  0  0  0
  6  5  1  0  0  0
  5 18  1  0  0  0
  5  4  1  0  0  0
 18 19  1  0  0  0
 19 20  1  0  0  0
 19 21  1  0  0  0
  4  1  1  0  0  0
  1  2  1  0  0  0
  1 22  1  0  0  0
 22 23  1  0  0  0
 22 36  1  0  0  0
 23 24  1  0  0  0
 24 25  2  0  0  0
 24 27  1  0  0  0
 27 28  1  0  0  0
 28 29  1  0  0  0
 28 35  1  0  0  0
 29 30  1  0  0  0
 30 31  1  0  0  0
 31 32  1  0  0  0
 31 35  1  0  0  0
 32 33  1  0  0  0
 33 34  1  0  0  0
 34 35  1  0  0  0
 36 42  1  0  0  0
 37 38  2  0  0  0
 37 42  1  0  0  0
 38 39  1  0  0  0
 39 40  2  0  0  0
 40 41  1  0  0  0
 41 42  2  0  0  0
  9 16  1  0  0  0
  9 17  1  0  0  0
  2  3  1  0  0  0
 23 26  1  0  0  0
M  END
> <minimizedAffinity>
-9.00565

$$$$
3EKT_017_B_200


 42 45  0  0  0  0  0  0  0  0999 V2000
   17.6877   41.9020   -9.0481 C   0  0  0  0  0  0  0  0  0  0  0  0
   16.3620   42.4150   -9.1495 O   0  0  0  0  0  0  0  0  0  0  0  0
   15.7323   41.6782   -9.1888 H   0  0  0  0  0  0  0  0  0  0  0  0
   17.9211   41.0321  -10.2747 C   0  0  0  0  0  0  0  0  0  0  0  0
   19.2529   41.3242  -10.7954 N   0  0  0  0  0  0  0  0  0  0  0  0
   19.4795   40.6092  -12.2399 S   0  0  0  0  0  0  0  0  0  0  0  0
   19.4962   41.6431  -13.2372 O   0  0  0  0  0  0  0  0  0  0  0  0
   20.7952   40.0182  -12.2106 O   0  0  0  0  0  0  0  0  0  0  0  0
   15.8112   36.3775  -13.0963 N   0  0  0  0  0  0  0  0  0  0  0  0
   16.6679   37.3970  -12.9112 C   0  0  0  0  0  0  0  0  0  0  0  0
   16.3534   38.6383  -13.4392 C   0  0  0  0  0  0  0  0  0  0  0  0
   17.2364   39.6777  -13.2488 C   0  0  0  0  0  0  0  0  0  0  0  0
   18.3857   39.4508  -12.5102 C   0  0  0  0  0  0  0  0  0  0  0  0
   18.5977   38.1646  -12.0348 C   0  0  0  0  0  0  0  0  0  0  0  0
   17.7471   37.2107  -12.2363 C   0  0  0  0  0  0  0  0  0  0  0  0
   14.9844   36.5169  -13.6123 H   0  0  0  0  0  0  0  0  0  0  0  0
   16.0106   35.4917  -12.7158 H   0  0  0  0  0  0  0  0  0  0  0  0
   19.4386   42.7711  -10.8992 C   0  0  0  0  0  0  0  0  0  0  0  0
   20.3866   43.2905   -9.8310 C   0  0  0  0  0  0  0  0  0  0  0  0
   21.6015   42.3934   -9.6769 C   0  0  0  0  0  0  0  0  0  0  0  0
   20.8023   44.7051  -10.2037 C   0  0  0  0  0  0  0  0  0  0  0  0
   17.9374   41.1022   -7.7567 C   0  0  0  0  0  0  0  0  0  0  0  0
   17.5216   39.7386   -8.0025 N   0  0  0  0  0  0  0  0  0  0  0  0
   18.4016   38.7403   -8.1983 C   0  0  0  0  0  0  0  0  0  0  0  0
   19.6112   38.8740   -8.1486 O   0  0  0  0  0  0  0  0  0  0  0  0
   16.5590   39.5337   -8.0274 H   0  0  0  0  0  0  0  0  0  0  0  0
   17.7727   37.4343   -8.3757 O   0  0  0  0  0  0  0  0  0  0  0  0
   17.7478   36.4237   -7.3807 C   0  0  0  0  0  0  0  0  0  0  0  0
   17.0004   37.0547   -6.2138 C   0  0  0  0  0  0  0  0  0  0  0  0
   15.6108   36.7521   -6.4110 O   0  0  0  0  0  0  0  0  0  0  0  0
   15.4781   35.6154   -7.2937 C   0  0  0  0  0  0  0  0  0  0  0  0
   14.6627   35.8956   -8.4528 O   0  0  0  0  0  0  0  0  0  0  0  0
   15.3804   35.6459   -9.6672 C   0  0  0  0  0  0  0  0  0  0  0  0
   16.7212   35.0196   -9.2851 C   0  0  0  0  0  0  0  0  0  0  0  0
   16.8686   35.2591   -7.7883 C   0  0  0  0  0  0  0  0  0  0  0  0
   19.4031   41.0164   -7.3427 C   0  0  0  0  0  0  0  0  0  0  0  0
   19.1614   43.3031   -6.3553 C   0  0  0  0  0  0  0  0  0  0  0  0
   19.4221   44.2377   -5.3559 C   0  0  0  0  0  0  0  0  0  0  0  0
   20.1641   43.8862   -4.2306 C   0  0  0  0  0  0  0  0  0  0  0  0
   20.6819   42.5976   -4.1279 C   0  0  0  0  0  0  0  0  0  0  0  0
   20.4307   41.6637   -5.1357 C   0  0  0  0  0  0  0  0  0  0  0  0
   19.6763   42.0182   -6.2511 C   0  0  0  0  0  0  0  0  0  0  0  0
  9 10  1  0  0  0
 10 11  2  0  0  0
 10 15  1  0  0  0
 11 12  1  0  0  0
 12 13  2  0  0  0
 13 14  1  0  0  0
 13  6  1  0  0  0
 14 15  2  0  0  0
  6  7  2  0  0  0
  6  8  2  0  0  0
  6  5  1  0  0  0
  5 18  1  0  0  0
  5  4  1  0  0  0
 18 19  1  0  0  0
 19 20  1  0  0  0
 19 21  1  0  0  0
  4  1  1  0  0  0
  1  2  1  0  0  0
  1 22  1  0  0  0
 22 23  1  0  0  0
 22 36  1  0  0  0
 23 24  1  0  0  0
 24 25  2  0  0  0
 24 27  1  0  0  0
 27 28  1  0  0  0
 28 29  1  0  0  0
 28 35  1  0  0  0
 29 30  1  0  0  0
 30 31  1  0  0  0
 31 32  1  0  0  0
 31 35  1  0  0  0
 32 33  1  0  0  0
 33 34  1  0  0  0
 34 35  1  0  0  0
 36 42  1  0  0  0
 37 38  2  0  0  0
 37 42  1  0  0  0
 38 39  1  0  0  0
 39 40  2  0  0  0
 40 41  1  0  0  0
 41 42  2  0  0  0
  9 16  1  0  0  0
  9 17  1  0  0  0
  2  3  1  0  0  0
 23 26  1  0  0  0
M  END
> <minimizedAffinity>
-8.92210

$$$$
