1OSS_BEN_A_246
  RCSB PDB12061703353D
Coordinates from PDB:1OSS:A:246 Model:1 without hydrogens
  9  9  0  0  0  0            999 V2000
   44.8550  -22.9570   62.4190   C 0  0  0  0  0  0  0  0  0  0  0  0
   44.8680  -21.8170   63.2880   C 0  0  0  0  0  0  0  0  0  0  0  0
   43.6490  -21.2040   63.7150   C 0  0  0  0  0  0  0  0  0  0  0  0
   42.3960  -21.7230   63.2760   C 0  0  0  0  0  0  0  0  0  0  0  0
   42.3380  -22.8600   62.4030   C 0  0  0  0  0  0  0  0  0  0  0  0
   43.5830  -23.4710   61.9810   C 0  0  0  0  0  0  0  0  0  0  0  0
   46.1000  -23.6220   61.9680   C 0  0  0  0  0  0  0  0  0  0  0  0
   46.0620  -24.4620   60.9410   N 0  0  0  0  0  0  0  0  0  0  0  0
   47.2530  -23.3680   62.6390   N 0  0  0  0  0  0  0  0  0  0  0  0
  1  2  2  0  0  0  0
  1  6  1  0  0  0  0
  1  7  1  0  0  0  0
  2  3  1  0  0  0  0
  3  4  2  0  0  0  0
  4  5  1  0  0  0  0
  5  6  2  0  0  0  0
  7  8  2  0  0  0  0
  7  9  1  0  0  0  0
A    1
C1
A    2
C2
A    3
C3
A    4
C4
A    5
C5
A    6
C6
A    7
C
A    8
N1
A    9
N2
M  END
>  <InstanceId>
1OSS_BEN_A_246

>  <ChemCompId>
BEN

>  <PdbId>
1OSS

>  <ChainId>
A

>  <ResidueNumber>
246

>  <InsertionCode>


>  <Model>
1

>  <AltIds>


>  <MissingHeavyAtoms>
0

>  <ObservedFormula>
C7 N2

>  <Name>
BENZAMIDINE

>  <SystematicName>
benzenecarboximidamide

>  <Synonyms>


>  <Type>
NON-POLYMER

>  <Formula>
C7 H8 N2

>  <MolecularWeight>
120.152

>  <ModifiedDate>
2011-06-04

>  <Parent>


>  <OneLetterCode>


>  <SubcomponentList>


>  <AmbiguousFlag>
N

>  <InChI>
InChI=1S/C7H8N2/c8-7(9)6-4-2-1-3-5-6/h1-5H,(H3,8,9)

>  <InChIKey>
PXXJHWLDUBFPOL-UHFFFAOYSA-N

>  <SMILES>
[H]/N=C(\c1ccccc1)/N

$$$$
