1OSS_BEN_A_246


 12 12  0  0  0  0  0  0  0  0999 V2000
   44.9475  -22.2931   62.9721 C   0  0  0  0  0  0  0  0  0  0  0  0
   43.9529  -21.5252   63.6621 C   0  0  0  0  0  0  0  0  0  0  0  0
   42.5626  -21.6968   63.3766 C   0  0  0  0  0  0  0  0  0  0  0  0
   42.1462  -22.6403   62.3925 C   0  0  0  0  0  0  0  0  0  0  0  0
   43.1089  -23.4265   61.6760 C   0  0  0  0  0  0  0  0  0  0  0  0
   44.5144  -23.2418   61.9789 C   0  0  0  0  0  0  0  0  0  0  0  0
   46.3951  -22.1473   63.2531 C   0  0  0  0  0  0  0  0  0  0  0  0
   46.8863  -20.9562   63.5724 N   0  0  0  0  0  0  0  0  0  0  0  0
   47.1907  -23.2432   63.1533 N   0  0  0  0  0  0  0  0  0  0  0  0
   46.2869  -20.1780   63.6379 H   0  0  0  0  0  0  0  0  0  0  0  0
   46.8003  -24.1149   62.9148 H   0  0  0  0  0  0  0  0  0  0  0  0
   48.1580  -23.1660   63.3194 H   0  0  0  0  0  0  0  0  0  0  0  0
  1  2  2  0  0  0
  1  6  1  0  0  0
  1  7  1  0  0  0
  2  3  1  0  0  0
  3  4  2  0  0  0
  4  5  1  0  0  0
  5  6  2  0  0  0
  7  8  2  0  0  0
  7  9  1  0  0  0
  8 10  1  0  0  0
  9 11  1  0  0  0
  9 12  1  0  0  0
M  END
> <minimizedAffinity>
-5.62615

$$$$
1OSS_BEN_A_246


 12 12  0  0  0  0  0  0  0  0999 V2000
   44.6031  -23.0254   62.2780 C   0  0  0  0  0  0  0  0  0  0  0  0
   43.4697  -23.0380   61.4004 C   0  0  0  0  0  0  0  0  0  0  0  0
   42.1989  -22.5465   61.8334 C   0  0  0  0  0  0  0  0  0  0  0  0
   42.0428  -22.0355   63.1550 C   0  0  0  0  0  0  0  0  0  0  0  0
   43.1502  -22.0081   64.0667 C   0  0  0  0  0  0  0  0  0  0  0  0
   44.4323  -22.5084   63.6113 C   0  0  0  0  0  0  0  0  0  0  0  0
   45.9358  -23.5167   61.8560 C   0  0  0  0  0  0  0  0  0  0  0  0
   46.0718  -24.1244   60.6838 N   0  0  0  0  0  0  0  0  0  0  0  0
   46.9876  -23.3496   62.6986 N   0  0  0  0  0  0  0  0  0  0  0  0
   45.2925  -24.2322   60.0919 H   0  0  0  0  0  0  0  0  0  0  0  0
   46.8589  -22.8951   63.5624 H   0  0  0  0  0  0  0  0  0  0  0  0
   47.8787  -23.6830   62.4457 H   0  0  0  0  0  0  0  0  0  0  0  0
  1  2  2  0  0  0
  1  6  1  0  0  0
  1  7  1  0  0  0
  2  3  1  0  0  0
  3  4  2  0  0  0
  4  5  1  0  0  0
  5  6  2  0  0  0
  7  8  2  0  0  0
  7  9  1  0  0  0
  8 10  1  0  0  0
  9 11  1  0  0  0
  9 12  1  0  0  0
M  END
> <minimizedAffinity>
-5.40050

$$$$
1OSS_BEN_A_246


 12 12  0  0  0  0  0  0  0  0999 V2000
   44.6122  -23.0027   62.3121 C   0  0  0  0  0  0  0  0  0  0  0  0
   44.3782  -22.4772   63.6251 C   0  0  0  0  0  0  0  0  0  0  0  0
   43.0824  -22.0121   64.0107 C   0  0  0  0  0  0  0  0  0  0  0  0
   41.9996  -22.0644   63.0850 C   0  0  0  0  0  0  0  0  0  0  0  0
   42.1914  -22.5793   61.7598 C   0  0  0  0  0  0  0  0  0  0  0  0
   43.5108  -23.0487   61.3854 C   0  0  0  0  0  0  0  0  0  0  0  0
   45.9401  -23.5032   61.8856 C   0  0  0  0  0  0  0  0  0  0  0  0
   46.0688  -24.1077   60.7110 N   0  0  0  0  0  0  0  0  0  0  0  0
   46.9948  -23.3479   62.7268 N   0  0  0  0  0  0  0  0  0  0  0  0
   45.2875  -24.2070   60.1202 H   0  0  0  0  0  0  0  0  0  0  0  0
   46.8715  -22.8956   63.5925 H   0  0  0  0  0  0  0  0  0  0  0  0
   47.8827  -23.6876   62.4710 H   0  0  0  0  0  0  0  0  0  0  0  0
  1  2  2  0  0  0
  1  6  1  0  0  0
  1  7  1  0  0  0
  2  3  1  0  0  0
  3  4  2  0  0  0
  4  5  1  0  0  0
  5  6  2  0  0  0
  7  8  2  0  0  0
  7  9  1  0  0  0
  8 10  1  0  0  0
  9 11  1  0  0  0
  9 12  1  0  0  0
M  END
> <minimizedAffinity>
-5.37908

$$$$
1OSS_BEN_A_246


 12 12  0  0  0  0  0  0  0  0999 V2000
   44.3364  -22.1490   63.1414 C   0  0  0  0  0  0  0  0  0  0  0  0
   45.6946  -22.0166   63.5805 C   0  0  0  0  0  0  0  0  0  0  0  0
   46.7593  -22.6692   62.8844 C   0  0  0  0  0  0  0  0  0  0  0  0
   46.4796  -23.4674   61.7370 C   0  0  0  0  0  0  0  0  0  0  0  0
   45.1341  -23.6295   61.2661 C   0  0  0  0  0  0  0  0  0  0  0  0
   44.0664  -22.9595   61.9820 C   0  0  0  0  0  0  0  0  0  0  0  0
   43.2122  -21.4764   63.8337 C   0  0  0  0  0  0  0  0  0  0  0  0
   42.8219  -21.9078   65.0268 N   0  0  0  0  0  0  0  0  0  0  0  0
   42.5915  -20.4408   63.2120 N   0  0  0  0  0  0  0  0  0  0  0  0
   43.2897  -22.6608   65.4551 H   0  0  0  0  0  0  0  0  0  0  0  0
   42.9014  -20.1408   62.3270 H   0  0  0  0  0  0  0  0  0  0  0  0
   41.8317  -19.9899   63.6463 H   0  0  0  0  0  0  0  0  0  0  0  0
  1  2  2  0  0  0
  1  6  1  0  0  0
  1  7  1  0  0  0
  2  3  1  0  0  0
  3  4  2  0  0  0
  4  5  1  0  0  0
  5  6  2  0  0  0
  7  8  2  0  0  0
  7  9  1  0  0  0
  8 10  1  0  0  0
  9 11  1  0  0  0
  9 12  1  0  0  0
M  END
> <minimizedAffinity>
-5.33846

$$$$
1OSS_BEN_A_246


 12 12  0  0  0  0  0  0  0  0999 V2000
   44.0082  -22.9711   61.8264 C   0  0  0  0  0  0  0  0  0  0  0  0
   45.1922  -23.6008   61.3200 C   0  0  0  0  0  0  0  0  0  0  0  0
   46.4643  -23.3753   61.9325 C   0  0  0  0  0  0  0  0  0  0  0  0
   46.5706  -22.5128   63.0625 C   0  0  0  0  0  0  0  0  0  0  0  0
   45.4112  -21.8598   63.5989 C   0  0  0  0  0  0  0  0  0  0  0  0
   44.1287  -22.1007   62.9674 C   0  0  0  0  0  0  0  0  0  0  0  0
   42.6738  -23.1933   61.2216 C   0  0  0  0  0  0  0  0  0  0  0  0
   41.6311  -23.4450   62.0034 N   0  0  0  0  0  0  0  0  0  0  0  0
   42.5580  -23.1548   59.8691 N   0  0  0  0  0  0  0  0  0  0  0  0
   41.7430  -23.4670   62.9813 H   0  0  0  0  0  0  0  0  0  0  0  0
   43.3478  -22.9658   59.3126 H   0  0  0  0  0  0  0  0  0  0  0  0
   41.6842  -23.3160   59.4451 H   0  0  0  0  0  0  0  0  0  0  0  0
  1  2  2  0  0  0
  1  6  1  0  0  0
  1  7  1  0  0  0
  2  3  1  0  0  0
  3  4  2  0  0  0
  4  5  1  0  0  0
  5  6  2  0  0  0
  7  8  2  0  0  0
  7  9  1  0  0  0
  8 10  1  0  0  0
  9 11  1  0  0  0
  9 12  1  0  0  0
M  END
> <minimizedAffinity>
-5.04802

$$$$
1OSS_BEN_A_246


 12 12  0  0  0  0  0  0  0  0999 V2000
   43.9968  -22.9335   61.8858 C   0  0  0  0  0  0  0  0  0  0  0  0
   44.1520  -22.0700   63.0195 C   0  0  0  0  0  0  0  0  0  0  0  0
   45.4371  -21.8509   63.6065 C   0  0  0  0  0  0  0  0  0  0  0  0
   46.5884  -22.4958   63.0673 C   0  0  0  0  0  0  0  0  0  0  0  0
   46.4770  -23.3707   61.9357 C   0  0  0  0  0  0  0  0  0  0  0  0
   45.1671  -23.5805   61.3513 C   0  0  0  0  0  0  0  0  0  0  0  0
   42.6810  -23.1721   61.2475 C   0  0  0  0  0  0  0  0  0  0  0  0
   41.6254  -23.4527   62.0017 N   0  0  0  0  0  0  0  0  0  0  0  0
   42.5956  -23.1184   59.8933 N   0  0  0  0  0  0  0  0  0  0  0  0
   41.7152  -23.4852   62.9816 H   0  0  0  0  0  0  0  0  0  0  0  0
   43.3944  -22.9080   59.3576 H   0  0  0  0  0  0  0  0  0  0  0  0
   41.7349  -23.2900   59.4472 H   0  0  0  0  0  0  0  0  0  0  0  0
  1  2  2  0  0  0
  1  6  1  0  0  0
  1  7  1  0  0  0
  2  3  1  0  0  0
  3  4  2  0  0  0
  4  5  1  0  0  0
  5  6  2  0  0  0
  7  8  2  0  0  0
  7  9  1  0  0  0
  8 10  1  0  0  0
  9 11  1  0  0  0
  9 12  1  0  0  0
M  END
> <minimizedAffinity>
-5.04392

$$$$
1OSS_BEN_A_246


 12 12  0  0  0  0  0  0  0  0999 V2000
   42.3412  -22.1361   63.4212 C   0  0  0  0  0  0  0  0  0  0  0  0
   42.1716  -22.5977   62.0747 C   0  0  0  0  0  0  0  0  0  0  0  0
   43.2822  -23.0902   61.3209 C   0  0  0  0  0  0  0  0  0  0  0  0
   44.5823  -23.1262   61.9043 C   0  0  0  0  0  0  0  0  0  0  0  0
   44.7967  -22.6703   63.2476 C   0  0  0  0  0  0  0  0  0  0  0  0
   43.6598  -22.1760   63.9990 C   0  0  0  0  0  0  0  0  0  0  0  0
   41.2090  -21.6310   64.2327 C   0  0  0  0  0  0  0  0  0  0  0  0
   41.1617  -21.8959   65.5325 N   0  0  0  0  0  0  0  0  0  0  0  0
   40.2296  -20.9228   63.6134 N   0  0  0  0  0  0  0  0  0  0  0  0
   41.8853  -22.4116   65.9564 H   0  0  0  0  0  0  0  0  0  0  0  0
   40.2896  -20.7405   62.6478 H   0  0  0  0  0  0  0  0  0  0  0  0
   39.4597  -20.5918   64.1300 H   0  0  0  0  0  0  0  0  0  0  0  0
  1  2  2  0  0  0
  1  6  1  0  0  0
  1  7  1  0  0  0
  2  3  1  0  0  0
  3  4  2  0  0  0
  4  5  1  0  0  0
  5  6  2  0  0  0
  7  8  2  0  0  0
  7  9  1  0  0  0
  8 10  1  0  0  0
  9 11  1  0  0  0
  9 12  1  0  0  0
M  END
> <minimizedAffinity>
-4.85615

$$$$
1OSS_BEN_A_246


 12 12  0  0  0  0  0  0  0  0999 V2000
   43.5899  -22.8513   61.7500 C   0  0  0  0  0  0  0  0  0  0  0  0
   43.5890  -21.9210   62.8406 C   0  0  0  0  0  0  0  0  0  0  0  0
   44.7864  -21.6425   63.5704 C   0  0  0  0  0  0  0  0  0  0  0  0
   46.0050  -22.2938   63.2199 C   0  0  0  0  0  0  0  0  0  0  0  0
   46.0491  -23.2346   62.1376 C   0  0  0  0  0  0  0  0  0  0  0  0
   44.8268  -23.5043   61.4065 C   0  0  0  0  0  0  0  0  0  0  0  0
   42.3688  -23.1530   60.9666 C   0  0  0  0  0  0  0  0  0  0  0  0
   42.4205  -23.1484   59.6403 N   0  0  0  0  0  0  0  0  0  0  0  0
   41.2137  -23.4064   61.6342 N   0  0  0  0  0  0  0  0  0  0  0  0
   43.2713  -22.9615   59.1815 H   0  0  0  0  0  0  0  0  0  0  0  0
   41.2034  -23.4036   62.6186 H   0  0  0  0  0  0  0  0  0  0  0  0
   40.3867  -23.5930   61.1337 H   0  0  0  0  0  0  0  0  0  0  0  0
  1  2  2  0  0  0
  1  6  1  0  0  0
  1  7  1  0  0  0
  2  3  1  0  0  0
  3  4  2  0  0  0
  4  5  1  0  0  0
  5  6  2  0  0  0
  7  8  2  0  0  0
  7  9  1  0  0  0
  8 10  1  0  0  0
  9 11  1  0  0  0
  9 12  1  0  0  0
M  END
> <minimizedAffinity>
-4.65549

$$$$
1OSS_BEN_A_246


 12 12  0  0  0  0  0  0  0  0999 V2000
   43.4967  -22.6372   62.1825 C   0  0  0  0  0  0  0  0  0  0  0  0
   43.1140  -21.3951   62.7871 C   0  0  0  0  0  0  0  0  0  0  0  0
   41.7425  -20.9951   62.8406 C   0  0  0  0  0  0  0  0  0  0  0  0
   40.7314  -21.8335   62.2866 C   0  0  0  0  0  0  0  0  0  0  0  0
   41.0713  -23.0830   61.6689 C   0  0  0  0  0  0  0  0  0  0  0  0
   42.4663  -23.4747   61.6248 C   0  0  0  0  0  0  0  0  0  0  0  0
   44.9077  -23.0857   62.1215 C   0  0  0  0  0  0  0  0  0  0  0  0
   45.8466  -22.3900   62.7510 N   0  0  0  0  0  0  0  0  0  0  0  0
   45.2071  -24.1948   61.3974 N   0  0  0  0  0  0  0  0  0  0  0  0
   45.6019  -21.5895   63.2692 H   0  0  0  0  0  0  0  0  0  0  0  0
   44.4910  -24.6923   60.9403 H   0  0  0  0  0  0  0  0  0  0  0  0
   46.1402  -24.5013   61.3296 H   0  0  0  0  0  0  0  0  0  0  0  0
  1  2  2  0  0  0
  1  6  1  0  0  0
  1  7  1  0  0  0
  2  3  1  0  0  0
  3  4  2  0  0  0
  4  5  1  0  0  0
  5  6  2  0  0  0
  7  8  2  0  0  0
  7  9  1  0  0  0
  8 10  1  0  0  0
  9 11  1  0  0  0
  9 12  1  0  0  0
M  END
> <minimizedAffinity>
-4.43370

$$$$
1OSS_BEN_A_246


 12 12  0  0  0  0  0  0  0  0999 V2000
   42.9860  -22.4469   61.4562 C   0  0  0  0  0  0  0  0  0  0  0  0
   44.2111  -23.1813   61.3347 C   0  0  0  0  0  0  0  0  0  0  0  0
   45.2674  -23.0114   62.2831 C   0  0  0  0  0  0  0  0  0  0  0  0
   45.1135  -22.1004   63.3687 C   0  0  0  0  0  0  0  0  0  0  0  0
   43.9052  -21.3429   63.5253 C   0  0  0  0  0  0  0  0  0  0  0  0
   42.8432  -21.5285   62.5562 C   0  0  0  0  0  0  0  0  0  0  0  0
   41.8683  -22.6089   60.4970 C   0  0  0  0  0  0  0  0  0  0  0  0
   40.6833  -22.0781   60.7722 N   0  0  0  0  0  0  0  0  0  0  0  0
   42.0835  -23.3223   59.3617 N   0  0  0  0  0  0  0  0  0  0  0  0
   40.5546  -21.5653   61.6027 H   0  0  0  0  0  0  0  0  0  0  0  0
   42.9725  -23.7053   59.1821 H   0  0  0  0  0  0  0  0  0  0  0  0
   41.3506  -23.4566   58.7183 H   0  0  0  0  0  0  0  0  0  0  0  0
  1  2  2  0  0  0
  1  6  1  0  0  0
  1  7  1  0  0  0
  2  3  1  0  0  0
  3  4  2  0  0  0
  4  5  1  0  0  0
  5  6  2  0  0  0
  7  8  2  0  0  0
  7  9  1  0  0  0
  8 10  1  0  0  0
  9 11  1  0  0  0
  9 12  1  0  0  0
M  END
> <minimizedAffinity>
-4.40901

$$$$
