3SWW_KXB_A_1


 27 29  0  0  0  0  0  0  0  0999 V2000
   48.3685   50.7286   35.8652 C   0  0  0  0  0  0  0  0  0  0  0  0
   49.6261   50.6661   35.3010 C   0  0  0  0  0  0  0  0  0  0  0  0
   47.3570   51.3722   35.1274 C   0  0  0  0  0  0  0  0  0  0  0  0
   49.8427   51.2464   34.0426 C   0  0  0  0  0  0  0  0  0  0  0  0
   47.6647   51.9301   33.8698 C   0  0  0  0  0  0  0  0  0  0  0  0
   51.2604   51.0357   33.6459 C   0  0  0  0  0  0  0  0  0  0  0  0
   50.8992   50.0649   35.8207 C   0  0  0  0  0  0  0  0  0  0  0  0
   46.6516   52.6254   33.0128 C   0  0  0  0  0  0  0  0  0  0  0  0
   48.9069   51.8707   33.2899 N   0  0  0  0  0  0  0  0  0  0  0  0
   51.8344   50.3181   34.6875 N   0  0  0  0  0  0  0  0  0  0  0  0
   51.8345   51.3613   32.6141 O   0  0  0  0  0  0  0  0  0  0  0  0
   47.6105   48.8773   37.3428 C   0  0  0  0  0  0  0  0  0  0  0  0
   47.4276   48.3442   38.6022 C   0  0  0  0  0  0  0  0  0  0  0  0
   48.3348   50.3713   39.6180 C   0  0  0  0  0  0  0  0  0  0  0  0
   48.1496   50.1430   37.2055 C   0  0  0  0  0  0  0  0  0  0  0  0
   47.7852   49.1083   39.7136 C   0  0  0  0  0  0  0  0  0  0  0  0
   48.5076   50.8630   38.3443 C   0  0  0  0  0  0  0  0  0  0  0  0
   47.5623   48.4491   41.2654 Cl  0  0  0  0  0  0  0  0  0  0  0  0
   49.1721   52.4151   38.1639 Cl  0  0  0  0  0  0  0  0  0  0  0  0
   45.9567   51.4612   35.6803 C   0  0  0  0  0  0  0  0  0  0  0  0
   45.8454   52.6218   36.5224 N   0  0  0  0  0  0  0  0  0  0  0  0
   46.5101   52.5480   37.2925 H   0  0  0  0  0  0  0  0  0  0  0  0
   44.8979   52.6814   36.8955 H   0  0  0  0  0  0  0  0  0  0  0  0
   53.2296   49.8543   34.6671 C   0  0  0  0  0  0  0  0  0  0  0  0
   54.0328   50.2194   35.9964 C   0  0  0  0  0  0  0  0  0  0  0  0
   54.8676   47.9990   35.5552 C   0  0  0  0  0  0  0  0  0  0  0  0
   54.5405   49.0032   36.5515 O   0  0  0  0  0  0  0  0  0  0  0  0
 13 12  2  0  0  0
 12 15  1  0  0  0
 16 13  1  0  0  0
 16 14  2  0  0  0
 14 17  1  0  0  0
 17 15  2  0  0  0
 15  1  1  0  0  0
  1  2  2  0  0  0
  1  3  1  0  0  0
  7  2  1  0  0  0
  2  4  1  0  0  0
 20  3  1  0  0  0
  3  5  2  0  0  0
 18 16  1  0  0  0
 17 19  1  0  0  0
  4  6  1  0  0  0
  4  9  2  0  0  0
  5  9  1  0  0  0
  5  8  1  0  0  0
 10  6  1  0  0  0
  6 11  2  0  0  0
  7 10  1  0  0  0
 26 27  1  0  0  0
 21 20  1  0  0  0
 25 24  1  0  0  0
 10 24  1  0  0  0
 27 25  1  0  0  0
 21 22  1  0  0  0
 21 23  1  0  0  0
M  END
> <minimizedAffinity>
-7.21660

$$$$
3SWW_KXB_A_1


 27 29  0  0  0  0  0  0  0  0999 V2000
   48.6100   50.4094   33.5489 C   0  0  0  0  0  0  0  0  0  0  0  0
   47.9414   50.4466   34.7552 C   0  0  0  0  0  0  0  0  0  0  0  0
   48.2849   51.3931   32.5957 C   0  0  0  0  0  0  0  0  0  0  0  0
   46.9746   51.4391   34.9733 C   0  0  0  0  0  0  0  0  0  0  0  0
   47.2974   52.3525   32.8990 C   0  0  0  0  0  0  0  0  0  0  0  0
   46.4122   51.2800   36.3406 C   0  0  0  0  0  0  0  0  0  0  0  0
   48.0500   49.5556   35.9581 C   0  0  0  0  0  0  0  0  0  0  0  0
   46.8932   53.4391   31.9502 C   0  0  0  0  0  0  0  0  0  0  0  0
   46.6283   52.4096   34.0956 N   0  0  0  0  0  0  0  0  0  0  0  0
   47.0833   50.1973   36.8944 N   0  0  0  0  0  0  0  0  0  0  0  0
   45.5730   51.9596   36.9189 O   0  0  0  0  0  0  0  0  0  0  0  0
   50.9189   49.5007   33.7165 C   0  0  0  0  0  0  0  0  0  0  0  0
   51.8299   48.4882   33.4958 C   0  0  0  0  0  0  0  0  0  0  0  0
   50.0981   47.1281   32.4399 C   0  0  0  0  0  0  0  0  0  0  0  0
   49.6070   49.3436   33.3095 C   0  0  0  0  0  0  0  0  0  0  0  0
   51.4006   47.3268   32.8527 C   0  0  0  0  0  0  0  0  0  0  0  0
   49.2199   48.1587   32.6854 C   0  0  0  0  0  0  0  0  0  0  0  0
   52.5235   46.0780   32.5840 Cl  0  0  0  0  0  0  0  0  0  0  0  0
   47.6053   47.9750   32.1929 Cl  0  0  0  0  0  0  0  0  0  0  0  0
   48.9900   51.4181   31.2628 C   0  0  0  0  0  0  0  0  0  0  0  0
   50.1605   52.2488   31.3538 N   0  0  0  0  0  0  0  0  0  0  0  0
   49.8853   53.1971   31.6099 H   0  0  0  0  0  0  0  0  0  0  0  0
   50.6369   52.2649   30.4520 H   0  0  0  0  0  0  0  0  0  0  0  0
   46.8587   49.7353   38.2721 C   0  0  0  0  0  0  0  0  0  0  0  0
   47.7333   48.4576   38.6569 C   0  0  0  0  0  0  0  0  0  0  0  0
   48.0853   49.8733   40.5788 C   0  0  0  0  0  0  0  0  0  0  0  0
   48.6167   48.8325   39.7173 O   0  0  0  0  0  0  0  0  0  0  0  0
 13 12  2  0  0  0
 12 15  1  0  0  0
 16 13  1  0  0  0
 16 14  2  0  0  0
 14 17  1  0  0  0
 17 15  2  0  0  0
 15  1  1  0  0  0
  1  2  2  0  0  0
  1  3  1  0  0  0
  7  2  1  0  0  0
  2  4  1  0  0  0
 20  3  1  0  0  0
  3  5  2  0  0  0
 18 16  1  0  0  0
 17 19  1  0  0  0
  4  6  1  0  0  0
  4  9  2  0  0  0
  5  9  1  0  0  0
  5  8  1  0  0  0
 10  6  1  0  0  0
  6 11  2  0  0  0
  7 10  1  0  0  0
 26 27  1  0  0  0
 21 20  1  0  0  0
 25 24  1  0  0  0
 10 24  1  0  0  0
 27 25  1  0  0  0
 21 22  1  0  0  0
 21 23  1  0  0  0
M  END
> <minimizedAffinity>
-7.09921

$$$$
3SWW_KXB_A_1


 27 29  0  0  0  0  0  0  0  0999 V2000
   47.1298   49.5950   32.9284 C   0  0  0  0  0  0  0  0  0  0  0  0
   47.0602   50.0382   34.2331 C   0  0  0  0  0  0  0  0  0  0  0  0
   46.4197   50.3244   31.9560 C   0  0  0  0  0  0  0  0  0  0  0  0
   46.2890   51.1710   34.5324 C   0  0  0  0  0  0  0  0  0  0  0  0
   45.6674   51.4508   32.3469 C   0  0  0  0  0  0  0  0  0  0  0  0
   46.3852   51.4556   35.9888 C   0  0  0  0  0  0  0  0  0  0  0  0
   47.6859   49.4921   35.4832 C   0  0  0  0  0  0  0  0  0  0  0  0
   44.8883   52.2900   31.3810 C   0  0  0  0  0  0  0  0  0  0  0  0
   45.5929   51.9105   33.6376 N   0  0  0  0  0  0  0  0  0  0  0  0
   47.2303   50.4802   36.5025 N   0  0  0  0  0  0  0  0  0  0  0  0
   45.8867   52.3681   36.6362 O   0  0  0  0  0  0  0  0  0  0  0  0
   47.3315   47.1315   32.6532 C   0  0  0  0  0  0  0  0  0  0  0  0
   48.0821   46.0147   32.3483 C   0  0  0  0  0  0  0  0  0  0  0  0
   50.0491   47.4114   31.9682 C   0  0  0  0  0  0  0  0  0  0  0  0
   47.9187   48.3827   32.6198 C   0  0  0  0  0  0  0  0  0  0  0  0
   49.4287   46.1791   32.0218 C   0  0  0  0  0  0  0  0  0  0  0  0
   49.2635   48.4999   32.2718 C   0  0  0  0  0  0  0  0  0  0  0  0
   50.3524   44.8022   31.6430 Cl  0  0  0  0  0  0  0  0  0  0  0  0
   49.9737   50.0417   32.2305 Cl  0  0  0  0  0  0  0  0  0  0  0  0
   46.4666   49.9022   30.5089 C   0  0  0  0  0  0  0  0  0  0  0  0
   45.3205   49.0868   30.2088 N   0  0  0  0  0  0  0  0  0  0  0  0
   45.3272   48.2586   30.8042 H   0  0  0  0  0  0  0  0  0  0  0  0
   45.3528   48.8020   29.2299 H   0  0  0  0  0  0  0  0  0  0  0  0
   47.6342   50.4339   37.9156 C   0  0  0  0  0  0  0  0  0  0  0  0
   47.6446   48.9566   38.5181 C   0  0  0  0  0  0  0  0  0  0  0  0
   48.1544   49.6243   40.7799 C   0  0  0  0  0  0  0  0  0  0  0  0
   48.5945   48.9242   39.5866 O   0  0  0  0  0  0  0  0  0  0  0  0
 13 12  2  0  0  0
 12 15  1  0  0  0
 16 13  1  0  0  0
 16 14  2  0  0  0
 14 17  1  0  0  0
 17 15  2  0  0  0
 15  1  1  0  0  0
  1  2  2  0  0  0
  1  3  1  0  0  0
  7  2  1  0  0  0
  2  4  1  0  0  0
 20  3  1  0  0  0
  3  5  2  0  0  0
 18 16  1  0  0  0
 17 19  1  0  0  0
  4  6  1  0  0  0
  4  9  2  0  0  0
  5  9  1  0  0  0
  5  8  1  0  0  0
 10  6  1  0  0  0
  6 11  2  0  0  0
  7 10  1  0  0  0
 26 27  1  0  0  0
 21 20  1  0  0  0
 25 24  1  0  0  0
 10 24  1  0  0  0
 27 25  1  0  0  0
 21 22  1  0  0  0
 21 23  1  0  0  0
M  END
> <minimizedAffinity>
-6.92379

$$$$
3SWW_KXB_A_1


 27 29  0  0  0  0  0  0  0  0999 V2000
   48.0526   50.7770   34.8097 C   0  0  0  0  0  0  0  0  0  0  0  0
   49.3963   50.5311   34.6160 C   0  0  0  0  0  0  0  0  0  0  0  0
   47.5551   50.6684   36.1221 C   0  0  0  0  0  0  0  0  0  0  0  0
   50.1943   50.1783   35.7142 C   0  0  0  0  0  0  0  0  0  0  0  0
   48.4295   50.3058   37.1669 C   0  0  0  0  0  0  0  0  0  0  0  0
   51.5954   49.9821   35.2560 C   0  0  0  0  0  0  0  0  0  0  0  0
   50.2218   50.5579   33.3628 C   0  0  0  0  0  0  0  0  0  0  0  0
   47.9904   50.1741   38.5931 C   0  0  0  0  0  0  0  0  0  0  0  0
   49.7694   50.0654   36.9943 N   0  0  0  0  0  0  0  0  0  0  0  0
   51.5797   50.2428   33.8918 N   0  0  0  0  0  0  0  0  0  0  0  0
   52.5931   49.6997   35.9080 O   0  0  0  0  0  0  0  0  0  0  0  0
   47.1101   52.4253   33.2035 C   0  0  0  0  0  0  0  0  0  0  0  0
   46.3265   52.7205   32.1069 C   0  0  0  0  0  0  0  0  0  0  0  0
   45.7167   50.3667   31.8793 C   0  0  0  0  0  0  0  0  0  0  0  0
   47.2070   51.1190   33.6455 C   0  0  0  0  0  0  0  0  0  0  0  0
   45.6385   51.6844   31.4744 C   0  0  0  0  0  0  0  0  0  0  0  0
   46.5145   50.1140   32.9718 C   0  0  0  0  0  0  0  0  0  0  0  0
   44.6754   52.0487   30.1208 Cl  0  0  0  0  0  0  0  0  0  0  0  0
   46.6435   48.5125   33.5211 Cl  0  0  0  0  0  0  0  0  0  0  0  0
   46.0988   50.9394   36.4046 C   0  0  0  0  0  0  0  0  0  0  0  0
   45.9064   52.3471   36.6282 N   0  0  0  0  0  0  0  0  0  0  0  0
   46.4678   52.6444   37.4261 H   0  0  0  0  0  0  0  0  0  0  0  0
   44.9211   52.5295   36.8188 H   0  0  0  0  0  0  0  0  0  0  0  0
   52.7893   50.2114   33.0565 C   0  0  0  0  0  0  0  0  0  0  0  0
   53.0369   51.5701   32.2576 C   0  0  0  0  0  0  0  0  0  0  0  0
   54.3322   52.4606   34.0881 C   0  0  0  0  0  0  0  0  0  0  0  0
   53.1838   52.6225   33.2148 O   0  0  0  0  0  0  0  0  0  0  0  0
 13 12  2  0  0  0
 12 15  1  0  0  0
 16 13  1  0  0  0
 16 14  2  0  0  0
 14 17  1  0  0  0
 17 15  2  0  0  0
 15  1  1  0  0  0
  1  2  2  0  0  0
  1  3  1  0  0  0
  7  2  1  0  0  0
  2  4  1  0  0  0
 20  3  1  0  0  0
  3  5  2  0  0  0
 18 16  1  0  0  0
 17 19  1  0  0  0
  4  6  1  0  0  0
  4  9  2  0  0  0
  5  9  1  0  0  0
  5  8  1  0  0  0
 10  6  1  0  0  0
  6 11  2  0  0  0
  7 10  1  0  0  0
 26 27  1  0  0  0
 21 20  1  0  0  0
 25 24  1  0  0  0
 10 24  1  0  0  0
 27 25  1  0  0  0
 21 22  1  0  0  0
 21 23  1  0  0  0
M  END
> <minimizedAffinity>
-6.57534

$$$$
3SWW_KXB_A_1


 27 29  0  0  0  0  0  0  0  0999 V2000
   46.4708   49.6099   32.5797 C   0  0  0  0  0  0  0  0  0  0  0  0
   46.7405   49.9793   33.8814 C   0  0  0  0  0  0  0  0  0  0  0  0
   45.1821   49.8802   32.0817 C   0  0  0  0  0  0  0  0  0  0  0  0
   45.7331   50.5881   34.6443 C   0  0  0  0  0  0  0  0  0  0  0  0
   44.2297   50.4941   32.9204 C   0  0  0  0  0  0  0  0  0  0  0  0
   46.2680   50.9035   35.9955 C   0  0  0  0  0  0  0  0  0  0  0  0
   47.9908   49.8305   34.6981 C   0  0  0  0  0  0  0  0  0  0  0  0
   42.8388   50.8261   32.4737 C   0  0  0  0  0  0  0  0  0  0  0  0
   44.4824   50.8753   34.2142 N   0  0  0  0  0  0  0  0  0  0  0  0
   47.5906   50.4794   35.9794 N   0  0  0  0  0  0  0  0  0  0  0  0
   45.7180   51.4603   36.9378 O   0  0  0  0  0  0  0  0  0  0  0  0
   47.6232   47.5616   31.7666 C   0  0  0  0  0  0  0  0  0  0  0  0
   48.6053   46.9567   31.0093 C   0  0  0  0  0  0  0  0  0  0  0  0
   49.4156   49.1398   30.2734 C   0  0  0  0  0  0  0  0  0  0  0  0
   47.5247   48.9404   31.7870 C   0  0  0  0  0  0  0  0  0  0  0  0
   49.4870   47.7610   30.2863 C   0  0  0  0  0  0  0  0  0  0  0  0
   48.4176   49.7029   31.0356 C   0  0  0  0  0  0  0  0  0  0  0  0
   50.6951   47.0145   29.3507 Cl  0  0  0  0  0  0  0  0  0  0  0  0
   48.2852   51.3954   31.0653 Cl  0  0  0  0  0  0  0  0  0  0  0  0
   44.8273   49.5159   30.6619 C   0  0  0  0  0  0  0  0  0  0  0  0
   45.0648   50.6443   29.8025 N   0  0  0  0  0  0  0  0  0  0  0  0
   44.4886   51.4296   30.1053 H   0  0  0  0  0  0  0  0  0  0  0  0
   44.8249   50.3969   28.8424 H   0  0  0  0  0  0  0  0  0  0  0  0
   48.5029   50.6581   37.1186 C   0  0  0  0  0  0  0  0  0  0  0  0
   49.0490   52.1507   37.2583 C   0  0  0  0  0  0  0  0  0  0  0  0
   51.0643   51.3562   36.1957 C   0  0  0  0  0  0  0  0  0  0  0  0
   50.0183   52.3625   36.2284 O   0  0  0  0  0  0  0  0  0  0  0  0
 13 12  2  0  0  0
 12 15  1  0  0  0
 16 13  1  0  0  0
 16 14  2  0  0  0
 14 17  1  0  0  0
 17 15  2  0  0  0
 15  1  1  0  0  0
  1  2  2  0  0  0
  1  3  1  0  0  0
  7  2  1  0  0  0
  2  4  1  0  0  0
 20  3  1  0  0  0
  3  5  2  0  0  0
 18 16  1  0  0  0
 17 19  1  0  0  0
  4  6  1  0  0  0
  4  9  2  0  0  0
  5  9  1  0  0  0
  5  8  1  0  0  0
 10  6  1  0  0  0
  6 11  2  0  0  0
  7 10  1  0  0  0
 26 27  1  0  0  0
 21 20  1  0  0  0
 25 24  1  0  0  0
 10 24  1  0  0  0
 27 25  1  0  0  0
 21 22  1  0  0  0
 21 23  1  0  0  0
M  END
> <minimizedAffinity>
-6.16527

$$$$
3SWW_KXB_A_1


 27 29  0  0  0  0  0  0  0  0999 V2000
   47.1124   48.1692   31.1281 C   0  0  0  0  0  0  0  0  0  0  0  0
   46.6149   48.9173   32.1753 C   0  0  0  0  0  0  0  0  0  0  0  0
   46.4414   48.2536   29.8935 C   0  0  0  0  0  0  0  0  0  0  0  0
   45.4745   49.7083   31.9721 C   0  0  0  0  0  0  0  0  0  0  0  0
   45.3000   49.0732   29.7795 C   0  0  0  0  0  0  0  0  0  0  0  0
   45.1469   50.4247   33.2334 C   0  0  0  0  0  0  0  0  0  0  0  0
   47.0874   49.0439   33.5942 C   0  0  0  0  0  0  0  0  0  0  0  0
   44.5288   49.2299   28.5048 C   0  0  0  0  0  0  0  0  0  0  0  0
   44.7960   49.8299   30.8074 N   0  0  0  0  0  0  0  0  0  0  0  0
   46.1234   50.0399   34.1432 N   0  0  0  0  0  0  0  0  0  0  0  0
   44.2506   51.2284   33.4595 O   0  0  0  0  0  0  0  0  0  0  0  0
   48.1494   45.9773   31.6803 C   0  0  0  0  0  0  0  0  0  0  0  0
   49.2677   45.1922   31.8720 C   0  0  0  0  0  0  0  0  0  0  0  0
   50.7172   47.1012   31.4045 C   0  0  0  0  0  0  0  0  0  0  0  0
   48.2967   47.3124   31.3528 C   0  0  0  0  0  0  0  0  0  0  0  0
   50.5285   45.7750   31.7392 C   0  0  0  0  0  0  0  0  0  0  0  0
   49.5765   47.8473   31.2146 C   0  0  0  0  0  0  0  0  0  0  0  0
   51.9063   44.8058   31.9726 Cl  0  0  0  0  0  0  0  0  0  0  0  0
   49.7457   49.4874   30.8088 Cl  0  0  0  0  0  0  0  0  0  0  0  0
   46.9429   47.4733   28.7043 C   0  0  0  0  0  0  0  0  0  0  0  0
   47.9317   48.2477   28.0037 N   0  0  0  0  0  0  0  0  0  0  0  0
   47.5151   49.1222   27.6843 H   0  0  0  0  0  0  0  0  0  0  0  0
   48.2706   47.7191   27.1999 H   0  0  0  0  0  0  0  0  0  0  0  0
   46.1949   50.5694   35.5131 C   0  0  0  0  0  0  0  0  0  0  0  0
   47.5423   50.1735   36.2703 C   0  0  0  0  0  0  0  0  0  0  0  0
   47.2710   49.3712   38.5296 C   0  0  0  0  0  0  0  0  0  0  0  0
   47.2602   49.0531   37.1131 O   0  0  0  0  0  0  0  0  0  0  0  0
 13 12  2  0  0  0
 12 15  1  0  0  0
 16 13  1  0  0  0
 16 14  2  0  0  0
 14 17  1  0  0  0
 17 15  2  0  0  0
 15  1  1  0  0  0
  1  2  2  0  0  0
  1  3  1  0  0  0
  7  2  1  0  0  0
  2  4  1  0  0  0
 20  3  1  0  0  0
  3  5  2  0  0  0
 18 16  1  0  0  0
 17 19  1  0  0  0
  4  6  1  0  0  0
  4  9  2  0  0  0
  5  9  1  0  0  0
  5  8  1  0  0  0
 10  6  1  0  0  0
  6 11  2  0  0  0
  7 10  1  0  0  0
 26 27  1  0  0  0
 21 20  1  0  0  0
 25 24  1  0  0  0
 10 24  1  0  0  0
 27 25  1  0  0  0
 21 22  1  0  0  0
 21 23  1  0  0  0
M  END
> <minimizedAffinity>
-6.14143

$$$$
3SWW_KXB_A_1


 27 29  0  0  0  0  0  0  0  0999 V2000
   47.4897   50.7154   32.0992 C   0  0  0  0  0  0  0  0  0  0  0  0
   47.2250   50.7257   33.4533 C   0  0  0  0  0  0  0  0  0  0  0  0
   47.2151   51.8909   31.3749 C   0  0  0  0  0  0  0  0  0  0  0  0
   46.6922   51.8834   34.0392 C   0  0  0  0  0  0  0  0  0  0  0  0
   46.6773   53.0084   32.0454 C   0  0  0  0  0  0  0  0  0  0  0  0
   46.5120   51.6534   35.4972 C   0  0  0  0  0  0  0  0  0  0  0  0
   47.3984   49.6534   34.4889 C   0  0  0  0  0  0  0  0  0  0  0  0
   46.3617   54.3015   31.3580 C   0  0  0  0  0  0  0  0  0  0  0  0
   46.4153   53.0394   33.3920 N   0  0  0  0  0  0  0  0  0  0  0  0
   46.9629   50.3600   35.7275 N   0  0  0  0  0  0  0  0  0  0  0  0
   46.1044   52.4216   36.3599 O   0  0  0  0  0  0  0  0  0  0  0  0
   49.3697   49.1814   31.5540 C   0  0  0  0  0  0  0  0  0  0  0  0
   49.8441   48.0201   30.9796 C   0  0  0  0  0  0  0  0  0  0  0  0
   47.5920   47.4415   30.2330 C   0  0  0  0  0  0  0  0  0  0  0  0
   48.0228   49.4837   31.4780 C   0  0  0  0  0  0  0  0  0  0  0  0
   48.9447   47.1797   30.3224 C   0  0  0  0  0  0  0  0  0  0  0  0
   47.1588   48.6057   30.8254 C   0  0  0  0  0  0  0  0  0  0  0  0
   49.5297   45.7469   29.6174 Cl  0  0  0  0  0  0  0  0  0  0  0  0
   45.5059   48.9851   30.7411 Cl  0  0  0  0  0  0  0  0  0  0  0  0
   47.4961   51.9511   29.8944 C   0  0  0  0  0  0  0  0  0  0  0  0
   48.8438   52.4047   29.6791 N   0  0  0  0  0  0  0  0  0  0  0  0
   48.9587   53.3337   30.0843 H   0  0  0  0  0  0  0  0  0  0  0  0
   49.0331   52.4447   28.6776 H   0  0  0  0  0  0  0  0  0  0  0  0
   47.0059   49.7531   37.0661 C   0  0  0  0  0  0  0  0  0  0  0  0
   48.4089   49.9489   37.8001 C   0  0  0  0  0  0  0  0  0  0  0  0
   47.6870   48.5251   39.6094 C   0  0  0  0  0  0  0  0  0  0  0  0
   48.6701   48.7725   38.5702 O   0  0  0  0  0  0  0  0  0  0  0  0
 13 12  2  0  0  0
 12 15  1  0  0  0
 16 13  1  0  0  0
 16 14  2  0  0  0
 14 17  1  0  0  0
 17 15  2  0  0  0
 15  1  1  0  0  0
  1  2  2  0  0  0
  1  3  1  0  0  0
  7  2  1  0  0  0
  2  4  1  0  0  0
 20  3  1  0  0  0
  3  5  2  0  0  0
 18 16  1  0  0  0
 17 19  1  0  0  0
  4  6  1  0  0  0
  4  9  2  0  0  0
  5  9  1  0  0  0
  5  8  1  0  0  0
 10  6  1  0  0  0
  6 11  2  0  0  0
  7 10  1  0  0  0
 26 27  1  0  0  0
 21 20  1  0  0  0
 25 24  1  0  0  0
 10 24  1  0  0  0
 27 25  1  0  0  0
 21 22  1  0  0  0
 21 23  1  0  0  0
M  END
> <minimizedAffinity>
-6.08596

$$$$
3SWW_KXB_A_1


 27 29  0  0  0  0  0  0  0  0999 V2000
   54.0644   47.9911   33.3918 C   0  0  0  0  0  0  0  0  0  0  0  0
   52.8186   48.5772   33.4819 C   0  0  0  0  0  0  0  0  0  0  0  0
   54.1227   46.6527   32.9594 C   0  0  0  0  0  0  0  0  0  0  0  0
   51.6812   47.8242   33.1551 C   0  0  0  0  0  0  0  0  0  0  0  0
   52.9275   45.9704   32.6537 C   0  0  0  0  0  0  0  0  0  0  0  0
   50.4714   48.6740   33.3149 C   0  0  0  0  0  0  0  0  0  0  0  0
   52.4201   49.9606   33.9061 C   0  0  0  0  0  0  0  0  0  0  0  0
   52.8943   44.5497   32.1795 C   0  0  0  0  0  0  0  0  0  0  0  0
   51.6811   46.5393   32.7298 N   0  0  0  0  0  0  0  0  0  0  0  0
   50.9415   49.9165   33.7203 N   0  0  0  0  0  0  0  0  0  0  0  0
   49.2967   48.4005   33.1011 O   0  0  0  0  0  0  0  0  0  0  0  0
   55.9316   49.5321   32.8225 C   0  0  0  0  0  0  0  0  0  0  0  0
   57.0365   50.2692   33.1960 C   0  0  0  0  0  0  0  0  0  0  0  0
   56.8072   49.4905   35.4992 C   0  0  0  0  0  0  0  0  0  0  0  0
   55.2599   48.7772   33.7662 C   0  0  0  0  0  0  0  0  0  0  0  0
   57.4560   50.2240   34.5260 C   0  0  0  0  0  0  0  0  0  0  0  0
   55.7058   48.7757   35.0870 C   0  0  0  0  0  0  0  0  0  0  0  0
   58.8162   51.1355   34.9860 Cl  0  0  0  0  0  0  0  0  0  0  0  0
   54.8712   47.8479   36.2384 Cl  0  0  0  0  0  0  0  0  0  0  0  0
   55.4544   45.9580   32.8243 C   0  0  0  0  0  0  0  0  0  0  0  0
   55.7276   45.2059   34.0194 N   0  0  0  0  0  0  0  0  0  0  0  0
   55.7541   45.8374   34.8199 H   0  0  0  0  0  0  0  0  0  0  0  0
   56.6282   44.7360   33.9270 H   0  0  0  0  0  0  0  0  0  0  0  0
   50.0607   51.0730   33.9411 C   0  0  0  0  0  0  0  0  0  0  0  0
   49.3748   51.0748   35.3816 C   0  0  0  0  0  0  0  0  0  0  0  0
   49.3773   52.3337   37.4399 C   0  0  0  0  0  0  0  0  0  0  0  0
   50.0570   52.0353   36.1922 O   0  0  0  0  0  0  0  0  0  0  0  0
 13 12  2  0  0  0
 12 15  1  0  0  0
 16 13  1  0  0  0
 16 14  2  0  0  0
 14 17  1  0  0  0
 17 15  2  0  0  0
 15  1  1  0  0  0
  1  2  2  0  0  0
  1  3  1  0  0  0
  7  2  1  0  0  0
  2  4  1  0  0  0
 20  3  1  0  0  0
  3  5  2  0  0  0
 18 16  1  0  0  0
 17 19  1  0  0  0
  4  6  1  0  0  0
  4  9  2  0  0  0
  5  9  1  0  0  0
  5  8  1  0  0  0
 10  6  1  0  0  0
  6 11  2  0  0  0
  7 10  1  0  0  0
 26 27  1  0  0  0
 21 20  1  0  0  0
 25 24  1  0  0  0
 10 24  1  0  0  0
 27 25  1  0  0  0
 21 22  1  0  0  0
 21 23  1  0  0  0
M  END
> <minimizedAffinity>
-5.99908

$$$$
3SWW_KXB_A_1


 27 29  0  0  0  0  0  0  0  0999 V2000
   47.8932   47.8402   31.0805 C   0  0  0  0  0  0  0  0  0  0  0  0
   47.3128   48.5177   32.1330 C   0  0  0  0  0  0  0  0  0  0  0  0
   47.2339   47.8838   29.8375 C   0  0  0  0  0  0  0  0  0  0  0  0
   46.1050   49.2004   31.9265 C   0  0  0  0  0  0  0  0  0  0  0  0
   46.0211   48.5932   29.7208 C   0  0  0  0  0  0  0  0  0  0  0  0
   45.6937   49.8584   33.1951 C   0  0  0  0  0  0  0  0  0  0  0  0
   47.7521   48.6617   33.5609 C   0  0  0  0  0  0  0  0  0  0  0  0
   45.2556   48.7000   28.4375 C   0  0  0  0  0  0  0  0  0  0  0  0
   45.4336   49.2789   30.7540 N   0  0  0  0  0  0  0  0  0  0  0  0
   46.6902   49.5510   34.1127 N   0  0  0  0  0  0  0  0  0  0  0  0
   44.7220   50.5687   33.4218 O   0  0  0  0  0  0  0  0  0  0  0  0
   50.3759   47.7199   31.1641 C   0  0  0  0  0  0  0  0  0  0  0  0
   51.5367   47.0106   31.3946 C   0  0  0  0  0  0  0  0  0  0  0  0
   50.2380   45.0111   31.9230 C   0  0  0  0  0  0  0  0  0  0  0  0
   49.1507   47.0957   31.3080 C   0  0  0  0  0  0  0  0  0  0  0  0
   51.4418   45.6673   31.7599 C   0  0  0  0  0  0  0  0  0  0  0  0
   49.1044   45.7561   31.6909 C   0  0  0  0  0  0  0  0  0  0  0  0
   52.8730   44.7947   32.0470 Cl  0  0  0  0  0  0  0  0  0  0  0  0
   47.5942   45.0004   31.8681 Cl  0  0  0  0  0  0  0  0  0  0  0  0
   47.8233   47.1774   28.6426 C   0  0  0  0  0  0  0  0  0  0  0  0
   47.2352   45.8708   28.5183 N   0  0  0  0  0  0  0  0  0  0  0  0
   47.4277   45.3297   29.3613 H   0  0  0  0  0  0  0  0  0  0  0  0
   47.6341   45.3939   27.7097 H   0  0  0  0  0  0  0  0  0  0  0  0
   46.6926   50.0588   35.4926 C   0  0  0  0  0  0  0  0  0  0  0  0
   48.1535   50.4059   36.0320 C   0  0  0  0  0  0  0  0  0  0  0  0
   47.1856   49.5103   38.0526 C   0  0  0  0  0  0  0  0  0  0  0  0
   48.3716   49.6517   37.2273 O   0  0  0  0  0  0  0  0  0  0  0  0
 13 12  2  0  0  0
 12 15  1  0  0  0
 16 13  1  0  0  0
 16 14  2  0  0  0
 14 17  1  0  0  0
 17 15  2  0  0  0
 15  1  1  0  0  0
  1  2  2  0  0  0
  1  3  1  0  0  0
  7  2  1  0  0  0
  2  4  1  0  0  0
 20  3  1  0  0  0
  3  5  2  0  0  0
 18 16  1  0  0  0
 17 19  1  0  0  0
  4  6  1  0  0  0
  4  9  2  0  0  0
  5  9  1  0  0  0
  5  8  1  0  0  0
 10  6  1  0  0  0
  6 11  2  0  0  0
  7 10  1  0  0  0
 26 27  1  0  0  0
 21 20  1  0  0  0
 25 24  1  0  0  0
 10 24  1  0  0  0
 27 25  1  0  0  0
 21 22  1  0  0  0
 21 23  1  0  0  0
M  END
> <minimizedAffinity>
-5.93313

$$$$
3SWW_KXB_A_1


 27 29  0  0  0  0  0  0  0  0999 V2000
   48.3077   50.7899   34.6479 C   0  0  0  0  0  0  0  0  0  0  0  0
   49.5455   50.2048   34.4770 C   0  0  0  0  0  0  0  0  0  0  0  0
   48.0822   51.4942   35.8457 C   0  0  0  0  0  0  0  0  0  0  0  0
   50.5068   50.3249   35.4913 C   0  0  0  0  0  0  0  0  0  0  0  0
   49.1056   51.5621   36.8130 C   0  0  0  0  0  0  0  0  0  0  0  0
   51.7515   49.6298   35.0683 C   0  0  0  0  0  0  0  0  0  0  0  0
   50.0926   49.3957   33.3374 C   0  0  0  0  0  0  0  0  0  0  0  0
   48.9576   52.2951   38.1111 C   0  0  0  0  0  0  0  0  0  0  0  0
   50.3447   50.9935   36.6568 N   0  0  0  0  0  0  0  0  0  0  0  0
   51.4851   49.1307   33.7997 N   0  0  0  0  0  0  0  0  0  0  0  0
   52.8231   49.5316   35.6534 O   0  0  0  0  0  0  0  0  0  0  0  0
   47.1724   51.5700   32.5773 C   0  0  0  0  0  0  0  0  0  0  0  0
   46.2207   51.4002   31.5928 C   0  0  0  0  0  0  0  0  0  0  0  0
   45.4709   49.3265   32.6423 C   0  0  0  0  0  0  0  0  0  0  0  0
   47.2853   50.6361   33.5905 C   0  0  0  0  0  0  0  0  0  0  0  0
   45.3835   50.2856   31.6529 C   0  0  0  0  0  0  0  0  0  0  0  0
   46.4377   49.5293   33.6004 C   0  0  0  0  0  0  0  0  0  0  0  0
   44.2129   50.0754   30.4372 Cl  0  0  0  0  0  0  0  0  0  0  0  0
   46.5874   48.3867   34.8474 Cl  0  0  0  0  0  0  0  0  0  0  0  0
   46.7561   52.1701   36.0884 C   0  0  0  0  0  0  0  0  0  0  0  0
   45.9012   51.2942   36.8435 N   0  0  0  0  0  0  0  0  0  0  0  0
   45.7514   50.4313   36.3206 H   0  0  0  0  0  0  0  0  0  0  0  0
   45.0047   51.7523   37.0076 H   0  0  0  0  0  0  0  0  0  0  0  0
   52.4850   48.4131   32.9951 C   0  0  0  0  0  0  0  0  0  0  0  0
   51.8387   47.3838   31.9615 C   0  0  0  0  0  0  0  0  0  0  0  0
   51.2227   45.0595   31.7619 C   0  0  0  0  0  0  0  0  0  0  0  0
   51.6874   46.1277   32.6283 O   0  0  0  0  0  0  0  0  0  0  0  0
 13 12  2  0  0  0
 12 15  1  0  0  0
 16 13  1  0  0  0
 16 14  2  0  0  0
 14 17  1  0  0  0
 17 15  2  0  0  0
 15  1  1  0  0  0
  1  2  2  0  0  0
  1  3  1  0  0  0
  7  2  1  0  0  0
  2  4  1  0  0  0
 20  3  1  0  0  0
  3  5  2  0  0  0
 18 16  1  0  0  0
 17 19  1  0  0  0
  4  6  1  0  0  0
  4  9  2  0  0  0
  5  9  1  0  0  0
  5  8  1  0  0  0
 10  6  1  0  0  0
  6 11  2  0  0  0
  7 10  1  0  0  0
 26 27  1  0  0  0
 21 20  1  0  0  0
 25 24  1  0  0  0
 10 24  1  0  0  0
 27 25  1  0  0  0
 21 22  1  0  0  0
 21 23  1  0  0  0
M  END
> <minimizedAffinity>
-5.89369

$$$$
