4JSZ_FB2_A_302
  RCSB PDB12061713133D
Coordinates from PDB:4JSZ:A:302 Model:1 without hydrogens
 10 10  0  0  0  0            999 V2000
   34.8690   -2.1350   10.8780   C 0  0  0  0  0  0  0  0  0  0  0  0
   34.3000   -3.0810   11.7280   C 0  0  0  0  0  0  0  0  0  0  0  0
   33.3500   -2.6900   12.6900   C 0  0  0  0  0  0  0  0  0  0  0  0
   33.0010   -1.3190   12.8210   C 0  0  0  0  0  0  0  0  0  0  0  0
   33.5630   -0.3670   11.9650   C 0  0  0  0  0  0  0  0  0  0  0  0
   34.4790   -0.7890   10.9820   C 0  0  0  0  0  0  0  0  0  0  0  0
   31.7320   -0.8530   14.1030   S 0  0  0  0  0  0  0  0  0  0  0  0
   31.0260    0.3950   13.6750   O 0  0  0  0  0  0  0  0  0  0  0  0
   32.4530   -0.6460   15.4910   O 0  0  0  0  0  0  0  0  0  0  0  0
   30.8470   -2.1460   14.0950   N 0  0  0  0  0  0  0  0  0  0  0  0
  1  2  1  0  0  0  0
  1  6  2  0  0  0  0
  2  3  2  0  0  0  0
  3  4  1  0  0  0  0
  4  5  2  0  0  0  0
  4  7  1  0  0  0  0
  5  6  1  0  0  0  0
  7  9  2  0  0  0  0
  7  8  2  0  0  0  0
  7 10  1  0  0  0  0
A    1
C01
A    2
C02
A    3
C03
A    4
C04
A    5
C05
A    6
C06
A    7
S07
A    8
O09
A    9
O08
A   10
NP0
M  END
>  <InstanceId>
4JSZ_FB2_A_302

>  <ChemCompId>
FB2

>  <PdbId>
4JSZ

>  <ChainId>
A

>  <ResidueNumber>
302

>  <InsertionCode>


>  <Model>
1

>  <AltIds>


>  <MissingHeavyAtoms>
0

>  <ObservedFormula>
C6 N O2 S

>  <Name>
benzenesulfonamide

>  <SystematicName>
benzenesulfonamide

>  <Synonyms>


>  <Type>
non-polymer

>  <Formula>
C6 H7 N O2 S

>  <MolecularWeight>
157.19

>  <ModifiedDate>
2011-06-04

>  <Parent>


>  <OneLetterCode>


>  <SubcomponentList>


>  <AmbiguousFlag>
N

>  <InChI>
InChI=1S/C6H7NO2S/c7-10(8,9)6-4-2-1-3-5-6/h1-5H,(H2,7,8,9)

>  <InChIKey>
KHBQMWCZKVMBLN-UHFFFAOYSA-N

>  <SMILES>
c1ccc(cc1)S(=O)(=O)N

$$$$
