3R4N_FU5_A_901
  RCSB PDB12061710313D
Coordinates from PDB:3R4N:A:901 Model:1 without hydrogens
 23 24  0  0  0  0            999 V2000
   13.7460   -1.4520   51.4640   C 0  0  0  0  0  0  0  0  0  0  0  0
   15.0960   -1.6100   50.8180   C 0  0  0  0  0  0  0  0  0  0  0  0
   13.5980   -1.6410   52.8940   C 0  0  0  0  0  0  0  0  0  0  0  0
   12.5960   -1.1100   50.6610   C 0  0  0  0  0  0  0  0  0  0  0  0
   15.6570   -2.8800   50.7710   C 0  0  0  0  0  0  0  0  0  0  0  0
   15.7580   -0.5110   50.2950   N 0  0  0  0  0  0  0  0  0  0  0  0
   12.2920   -1.4970   53.4970   C 0  0  0  0  0  0  0  0  0  0  0  0
   14.7500   -1.9540   53.5960   O 0  0  0  0  0  0  0  0  0  0  0  0
   11.3180   -0.9760   51.2910   C 0  0  0  0  0  0  0  0  0  0  0  0
   12.6990   -0.8470   48.9400  Cl 0  0  0  0  0  0  0  0  0  0  0  0
   16.8820   -2.9930   50.1890   C 0  0  0  0  0  0  0  0  0  0  0  0
   16.9730   -0.6950   49.7300   C 0  0  0  0  0  0  0  0  0  0  0  0
   11.1640   -1.1710   52.6970   C 0  0  0  0  0  0  0  0  0  0  0  0
   14.8600   -2.1670   54.9020   C 0  0  0  0  0  0  0  0  0  0  0  0
   17.5460   -1.9150   49.6680   N 0  0  0  0  0  0  0  0  0  0  0  0
   17.5440   -4.3600   50.1180   C 0  0  0  0  0  0  0  0  0  0  0  0
   17.6570    0.4020   49.2000   N 0  0  0  0  0  0  0  0  0  0  0  0
   16.3060   -2.4830   55.2890   C 0  0  0  0  0  0  0  0  0  0  0  0
   16.8450   -3.6090   54.3850   C 0  0  0  0  0  0  0  0  0  0  0  0
   18.2970   -3.9940   54.6640   C 0  0  0  0  0  0  0  0  0  0  0  0
   18.4790   -4.3110   55.9930   F 0  0  0  0  0  0  0  0  0  0  0  0
   18.6480   -5.0890   53.8980   F 0  0  0  0  0  0  0  0  0  0  0  0
   19.1400   -2.9560   54.3430   F 0  0  0  0  0  0  0  0  0  0  0  0
  2  1  1  0  0  0  0
  4  1  2  0  0  0  0
  1  3  1  0  0  0  0
  6  2  2  0  0  0  0
  2  5  1  0  0  0  0
  3  8  1  0  0  0  0
  3  7  2  0  0  0  0
 10  4  1  0  0  0  0
  4  9  1  0  0  0  0
 11  5  2  0  0  0  0
 12  6  1  0  0  0  0
 13  7  1  0  0  0  0
  8 14  1  0  0  0  0
  9 13  2  0  0  0  0
 15 11  1  0  0  0  0
 16 11  1  0  0  0  0
 17 12  1  0  0  0  0
 15 12  2  0  0  0  0
 14 18  1  0  0  0  0
 19 18  1  0  0  0  0
 19 20  1  0  0  0  0
 22 20  1  0  0  0  0
 23 20  1  0  0  0  0
 20 21  1  0  0  0  0
A    1
C1
A    2
C2
A    3
C3
A    4
C4
A    5
C5
A    6
N6
A    7
C7
A    8
O8
A    9
C9
A   10
CL10
A   11
C11
A   12
C12
A   13
C13
A   14
C14
A   15
N15
A   16
C16
A   17
N17
A   18
C18
A   19
C19
A   20
C20
A   21
F21
A   22
F22
A   23
F23
M  END
>  <InstanceId>
3R4N_FU5_A_901

>  <ChemCompId>
FU5

>  <PdbId>
3R4N

>  <ChainId>
A

>  <ResidueNumber>
901

>  <InsertionCode>


>  <Model>
1

>  <AltIds>


>  <MissingHeavyAtoms>
0

>  <ObservedFormula>
C15 N3 O F3 Cl

>  <Name>
4-[2-chloro-6-(4,4,4-trifluorobutoxy)phenyl]-6-methylpyrimidin-2-amine

>  <SystematicName>
4-[2-chloro-6-(4,4,4-trifluorobutoxy)phenyl]-6-methyl-pyrimidin-2-amine

>  <Synonyms>


>  <Type>
NON-POLYMER

>  <Formula>
C15 H15 Cl F3 N3 O

>  <MolecularWeight>
345.747

>  <ModifiedDate>
2011-06-04

>  <Parent>


>  <OneLetterCode>


>  <SubcomponentList>


>  <AmbiguousFlag>
N

>  <InChI>
InChI=1S/C15H15ClF3N3O/c1-9-8-11(22-14(20)21-9)13-10(16)4-2-5-12(13)23-7-3-6-15(17,18)19/h2,4-5,8H,3,6-7H2,1H3,(H2,20,21,22)

>  <InChIKey>
SHQYMCWXQPPEMC-UHFFFAOYSA-N

>  <SMILES>
Cc1cc(nc(n1)N)c2c(cccc2Cl)OCCCC(F)(F)F

$$$$
