3R4N_FU5_A_901


 25 26  0  0  0  0  0  0  0  0999 V2000
   13.7288   -1.4121   51.5550 C   0  0  0  0  0  0  0  0  0  0  0  0
   13.7123   -1.5564   52.9977 C   0  0  0  0  0  0  0  0  0  0  0  0
   12.4898   -1.2322   50.8361 C   0  0  0  0  0  0  0  0  0  0  0  0
   12.4481   -1.5315   53.6986 C   0  0  0  0  0  0  0  0  0  0  0  0
   11.2565   -1.2131   51.5619 C   0  0  0  0  0  0  0  0  0  0  0  0
   12.4311   -1.0316   49.1046 Cl  0  0  0  0  0  0  0  0  0  0  0  0
   11.2330   -1.3649   52.9814 C   0  0  0  0  0  0  0  0  0  0  0  0
   15.0348   -1.4478   50.8082 C   0  0  0  0  0  0  0  0  0  0  0  0
   15.6226   -2.6842   50.5718 C   0  0  0  0  0  0  0  0  0  0  0  0
   15.6320   -0.2733   50.3798 N   0  0  0  0  0  0  0  0  0  0  0  0
   16.8073   -2.6869   49.9020 C   0  0  0  0  0  0  0  0  0  0  0  0
   16.8096   -0.3489   49.7189 C   0  0  0  0  0  0  0  0  0  0  0  0
   17.4071   -1.5334   49.4729 N   0  0  0  0  0  0  0  0  0  0  0  0
   17.4966   -4.0133   49.6236 C   0  0  0  0  0  0  0  0  0  0  0  0
   17.4283    0.8251   49.2818 N   0  0  0  0  0  0  0  0  0  0  0  0
   17.0055    1.6975   49.4533 H   0  0  0  0  0  0  0  0  0  0  0  0
   18.2870    0.7800   48.8024 H   0  0  0  0  0  0  0  0  0  0  0  0
   14.9423   -1.7115   53.6148 O   0  0  0  0  0  0  0  0  0  0  0  0
   15.1915   -1.7038   54.9191 C   0  0  0  0  0  0  0  0  0  0  0  0
   16.1304   -2.8475   55.3075 C   0  0  0  0  0  0  0  0  0  0  0  0
   16.6003   -3.5804   54.0357 C   0  0  0  0  0  0  0  0  0  0  0  0
   18.0098   -3.2042   53.5817 C   0  0  0  0  0  0  0  0  0  0  0  0
   18.5479   -4.1827   52.7737 F   0  0  0  0  0  0  0  0  0  0  0  0
   17.9742   -2.0184   52.8734 F   0  0  0  0  0  0  0  0  0  0  0  0
   18.8351   -3.0320   54.6682 F   0  0  0  0  0  0  0  0  0  0  0  0
  8  1  1  0  0  0
  3  1  2  0  0  0
  1  2  1  0  0  0
 10  8  2  0  0  0
  8  9  1  0  0  0
  2 18  1  0  0  0
  2  4  2  0  0  0
  6  3  1  0  0  0
  3  5  1  0  0  0
 11  9  2  0  0  0
 12 10  1  0  0  0
  7  4  1  0  0  0
 18 19  1  0  0  0
  5  7  2  0  0  0
 13 11  1  0  0  0
 14 11  1  0  0  0
 15 12  1  0  0  0
 13 12  2  0  0  0
 19 20  1  0  0  0
 21 20  1  0  0  0
 21 22  1  0  0  0
 24 22  1  0  0  0
 25 22  1  0  0  0
 22 23  1  0  0  0
 15 16  1  0  0  0
 15 17  1  0  0  0
M  END
> <minimizedAffinity>
-7.66668

$$$$
3R4N_FU5_A_901


 25 26  0  0  0  0  0  0  0  0999 V2000
   13.4899   -1.0840   51.3732 C   0  0  0  0  0  0  0  0  0  0  0  0
   13.5315   -1.2780   52.8096 C   0  0  0  0  0  0  0  0  0  0  0  0
   12.2212   -1.0813   50.6844 C   0  0  0  0  0  0  0  0  0  0  0  0
   12.2969   -1.4806   53.5340 C   0  0  0  0  0  0  0  0  0  0  0  0
   11.0186   -1.2853   51.4329 C   0  0  0  0  0  0  0  0  0  0  0  0
   12.0895   -0.8339   48.9631 Cl  0  0  0  0  0  0  0  0  0  0  0  0
   11.0538   -1.4872   52.8459 C   0  0  0  0  0  0  0  0  0  0  0  0
   14.7665   -0.8840   50.6018 C   0  0  0  0  0  0  0  0  0  0  0  0
   15.0805    0.3996   50.1730 C   0  0  0  0  0  0  0  0  0  0  0  0
   15.5957   -1.9586   50.3238 N   0  0  0  0  0  0  0  0  0  0  0  0
   16.2362    0.5507   49.4704 C   0  0  0  0  0  0  0  0  0  0  0  0
   16.7298   -1.7370   49.6210 C   0  0  0  0  0  0  0  0  0  0  0  0
   17.0642   -0.5029   49.1898 N   0  0  0  0  0  0  0  0  0  0  0  0
   16.6230    1.9339   48.9715 C   0  0  0  0  0  0  0  0  0  0  0  0
   17.5768   -2.8090   49.3284 N   0  0  0  0  0  0  0  0  0  0  0  0
   17.3473   -3.7157   49.6357 H   0  0  0  0  0  0  0  0  0  0  0  0
   18.4030   -2.6576   48.8150 H   0  0  0  0  0  0  0  0  0  0  0  0
   14.7850   -1.2543   53.3979 O   0  0  0  0  0  0  0  0  0  0  0  0
   15.2462   -2.0736   54.3356 C   0  0  0  0  0  0  0  0  0  0  0  0
   15.6002   -3.4408   53.7474 C   0  0  0  0  0  0  0  0  0  0  0  0
   16.9237   -3.9369   54.3621 C   0  0  0  0  0  0  0  0  0  0  0  0
   18.1634   -3.5949   53.5371 C   0  0  0  0  0  0  0  0  0  0  0  0
   18.3707   -2.2329   53.4956 F   0  0  0  0  0  0  0  0  0  0  0  0
   19.2775   -4.1932   54.0936 F   0  0  0  0  0  0  0  0  0  0  0  0
   18.0258   -4.0554   52.2487 F   0  0  0  0  0  0  0  0  0  0  0  0
  8  1  1  0  0  0
  3  1  2  0  0  0
  1  2  1  0  0  0
 10  8  2  0  0  0
  8  9  1  0  0  0
  2 18  1  0  0  0
  2  4  2  0  0  0
  6  3  1  0  0  0
  3  5  1  0  0  0
 11  9  2  0  0  0
 12 10  1  0  0  0
  7  4  1  0  0  0
 18 19  1  0  0  0
  5  7  2  0  0  0
 13 11  1  0  0  0
 14 11  1  0  0  0
 15 12  1  0  0  0
 13 12  2  0  0  0
 19 20  1  0  0  0
 21 20  1  0  0  0
 21 22  1  0  0  0
 24 22  1  0  0  0
 25 22  1  0  0  0
 22 23  1  0  0  0
 15 16  1  0  0  0
 15 17  1  0  0  0
M  END
> <minimizedAffinity>
-7.19468

$$$$
3R4N_FU5_A_901


 25 26  0  0  0  0  0  0  0  0999 V2000
   14.7204   -1.8915   50.6621 C   0  0  0  0  0  0  0  0  0  0  0  0
   13.3122   -2.1015   50.9365 C   0  0  0  0  0  0  0  0  0  0  0  0
   15.1231   -0.9239   49.6692 C   0  0  0  0  0  0  0  0  0  0  0  0
   12.3254   -1.3451   50.1989 C   0  0  0  0  0  0  0  0  0  0  0  0
   14.1193   -0.1932   48.9574 C   0  0  0  0  0  0  0  0  0  0  0  0
   16.7966   -0.6016   49.2989 Cl  0  0  0  0  0  0  0  0  0  0  0  0
   12.7309   -0.4029   49.2158 C   0  0  0  0  0  0  0  0  0  0  0  0
   15.7607   -2.6791   51.4120 C   0  0  0  0  0  0  0  0  0  0  0  0
   16.3661   -2.0862   52.5128 C   0  0  0  0  0  0  0  0  0  0  0  0
   16.1053   -3.9571   51.0026 N   0  0  0  0  0  0  0  0  0  0  0  0
   17.3091   -2.8172   53.1674 C   0  0  0  0  0  0  0  0  0  0  0  0
   17.0506   -4.6278   51.6995 C   0  0  0  0  0  0  0  0  0  0  0  0
   17.6579   -4.0811   52.7732 N   0  0  0  0  0  0  0  0  0  0  0  0
   18.0076   -2.2121   54.3748 C   0  0  0  0  0  0  0  0  0  0  0  0
   17.4133   -5.9165   51.2997 N   0  0  0  0  0  0  0  0  0  0  0  0
   16.9798   -6.3299   50.5184 H   0  0  0  0  0  0  0  0  0  0  0  0
   18.1025   -6.4112   51.7993 H   0  0  0  0  0  0  0  0  0  0  0  0
   13.0079   -3.0366   51.9116 O   0  0  0  0  0  0  0  0  0  0  0  0
   12.7980   -2.8091   53.2029 C   0  0  0  0  0  0  0  0  0  0  0  0
   11.3046   -2.6631   53.5012 C   0  0  0  0  0  0  0  0  0  0  0  0
   11.0564   -1.3339   54.2409 C   0  0  0  0  0  0  0  0  0  0  0  0
    9.5833   -1.0378   54.5177 C   0  0  0  0  0  0  0  0  0  0  0  0
    9.4298    0.1923   55.1204 F   0  0  0  0  0  0  0  0  0  0  0  0
    8.8732   -1.0392   53.3325 F   0  0  0  0  0  0  0  0  0  0  0  0
    9.0464   -1.9984   55.3424 F   0  0  0  0  0  0  0  0  0  0  0  0
  8  1  1  0  0  0
  3  1  2  0  0  0
  1  2  1  0  0  0
 10  8  2  0  0  0
  8  9  1  0  0  0
  2 18  1  0  0  0
  2  4  2  0  0  0
  6  3  1  0  0  0
  3  5  1  0  0  0
 11  9  2  0  0  0
 12 10  1  0  0  0
  7  4  1  0  0  0
 18 19  1  0  0  0
  5  7  2  0  0  0
 13 11  1  0  0  0
 14 11  1  0  0  0
 15 12  1  0  0  0
 13 12  2  0  0  0
 19 20  1  0  0  0
 21 20  1  0  0  0
 21 22  1  0  0  0
 24 22  1  0  0  0
 25 22  1  0  0  0
 22 23  1  0  0  0
 15 16  1  0  0  0
 15 17  1  0  0  0
M  END
> <minimizedAffinity>
-7.03090

$$$$
3R4N_FU5_A_901


 25 26  0  0  0  0  0  0  0  0999 V2000
   14.5709   -1.4971   50.9550 C   0  0  0  0  0  0  0  0  0  0  0  0
   13.1975   -1.9566   51.0268 C   0  0  0  0  0  0  0  0  0  0  0  0
   14.9725   -0.5922   49.9043 C   0  0  0  0  0  0  0  0  0  0  0  0
   12.2476   -1.5107   50.0324 C   0  0  0  0  0  0  0  0  0  0  0  0
   14.0060   -0.1716   48.9362 C   0  0  0  0  0  0  0  0  0  0  0  0
   16.5998    0.0193   49.7648 Cl  0  0  0  0  0  0  0  0  0  0  0  0
   12.6546   -0.6287   48.9956 C   0  0  0  0  0  0  0  0  0  0  0  0
   15.5757   -1.9609   51.9749 C   0  0  0  0  0  0  0  0  0  0  0  0
   16.3211   -3.0986   51.6922 C   0  0  0  0  0  0  0  0  0  0  0  0
   15.7395   -1.2705   53.1648 N   0  0  0  0  0  0  0  0  0  0  0  0
   17.2163   -3.5007   52.6352 C   0  0  0  0  0  0  0  0  0  0  0  0
   16.6477   -1.7252   54.0580 C   0  0  0  0  0  0  0  0  0  0  0  0
   17.3879   -2.8268   53.8145 N   0  0  0  0  0  0  0  0  0  0  0  0
   18.0526   -4.7443   52.3787 C   0  0  0  0  0  0  0  0  0  0  0  0
   16.8246   -1.0437   55.2648 N   0  0  0  0  0  0  0  0  0  0  0  0
   16.2925   -0.2383   55.4579 H   0  0  0  0  0  0  0  0  0  0  0  0
   17.4814   -1.3690   55.9221 H   0  0  0  0  0  0  0  0  0  0  0  0
   12.8884   -2.8119   52.0712 O   0  0  0  0  0  0  0  0  0  0  0  0
   11.9394   -2.6502   52.9858 C   0  0  0  0  0  0  0  0  0  0  0  0
   11.8390   -1.1877   53.4232 C   0  0  0  0  0  0  0  0  0  0  0  0
   11.1818   -1.1121   54.8153 C   0  0  0  0  0  0  0  0  0  0  0  0
    9.6723   -0.8784   54.7825 C   0  0  0  0  0  0  0  0  0  0  0  0
    9.0038   -1.8583   55.4844 F   0  0  0  0  0  0  0  0  0  0  0  0
    9.3745    0.3476   55.3456 F   0  0  0  0  0  0  0  0  0  0  0  0
    9.2135   -0.8796   53.4861 F   0  0  0  0  0  0  0  0  0  0  0  0
  8  1  1  0  0  0
  3  1  2  0  0  0
  1  2  1  0  0  0
 10  8  2  0  0  0
  8  9  1  0  0  0
  2 18  1  0  0  0
  2  4  2  0  0  0
  6  3  1  0  0  0
  3  5  1  0  0  0
 11  9  2  0  0  0
 12 10  1  0  0  0
  7  4  1  0  0  0
 18 19  1  0  0  0
  5  7  2  0  0  0
 13 11  1  0  0  0
 14 11  1  0  0  0
 15 12  1  0  0  0
 13 12  2  0  0  0
 19 20  1  0  0  0
 21 20  1  0  0  0
 21 22  1  0  0  0
 24 22  1  0  0  0
 25 22  1  0  0  0
 22 23  1  0  0  0
 15 16  1  0  0  0
 15 17  1  0  0  0
M  END
> <minimizedAffinity>
-6.98808

$$$$
3R4N_FU5_A_901


 25 26  0  0  0  0  0  0  0  0999 V2000
   16.3756   -2.9662   52.0590 C   0  0  0  0  0  0  0  0  0  0  0  0
   16.4007   -2.1609   50.8534 C   0  0  0  0  0  0  0  0  0  0  0  0
   16.9315   -4.2985   52.0455 C   0  0  0  0  0  0  0  0  0  0  0  0
   16.9725   -2.7109   49.6449 C   0  0  0  0  0  0  0  0  0  0  0  0
   17.4891   -4.8114   50.8313 C   0  0  0  0  0  0  0  0  0  0  0  0
   16.9563   -5.3184   53.4600 Cl  0  0  0  0  0  0  0  0  0  0  0  0
   17.5073   -4.0272   49.6383 C   0  0  0  0  0  0  0  0  0  0  0  0
   15.7732   -2.4139   53.3226 C   0  0  0  0  0  0  0  0  0  0  0  0
   14.3985   -2.5167   53.4944 C   0  0  0  0  0  0  0  0  0  0  0  0
   16.5751   -1.8127   54.2793 N   0  0  0  0  0  0  0  0  0  0  0  0
   13.8792   -2.0016   54.6420 C   0  0  0  0  0  0  0  0  0  0  0  0
   15.9929   -1.3222   55.3972 C   0  0  0  0  0  0  0  0  0  0  0  0
   14.6608   -1.4058   55.5951 N   0  0  0  0  0  0  0  0  0  0  0  0
   12.3789   -2.0816   54.8762 C   0  0  0  0  0  0  0  0  0  0  0  0
   16.7850   -0.7097   56.3717 N   0  0  0  0  0  0  0  0  0  0  0  0
   17.7586   -0.6406   56.2427 H   0  0  0  0  0  0  0  0  0  0  0  0
   16.3697   -0.3473   57.1874 H   0  0  0  0  0  0  0  0  0  0  0  0
   15.8603   -0.8896   50.9511 O   0  0  0  0  0  0  0  0  0  0  0  0
   15.6072   -0.0474   49.9562 C   0  0  0  0  0  0  0  0  0  0  0  0
   14.2584    0.6475   50.1520 C   0  0  0  0  0  0  0  0  0  0  0  0
   13.1392   -0.2252   49.5511 C   0  0  0  0  0  0  0  0  0  0  0  0
   12.3279   -1.0023   50.5867 C   0  0  0  0  0  0  0  0  0  0  0  0
   12.7331   -2.3183   50.6477 F   0  0  0  0  0  0  0  0  0  0  0  0
   12.4913   -0.4329   51.8349 F   0  0  0  0  0  0  0  0  0  0  0  0
   10.9898   -0.9714   50.2712 F   0  0  0  0  0  0  0  0  0  0  0  0
  8  1  1  0  0  0
  3  1  2  0  0  0
  1  2  1  0  0  0
 10  8  2  0  0  0
  8  9  1  0  0  0
  2 18  1  0  0  0
  2  4  2  0  0  0
  6  3  1  0  0  0
  3  5  1  0  0  0
 11  9  2  0  0  0
 12 10  1  0  0  0
  7  4  1  0  0  0
 18 19  1  0  0  0
  5  7  2  0  0  0
 13 11  1  0  0  0
 14 11  1  0  0  0
 15 12  1  0  0  0
 13 12  2  0  0  0
 19 20  1  0  0  0
 21 20  1  0  0  0
 21 22  1  0  0  0
 24 22  1  0  0  0
 25 22  1  0  0  0
 22 23  1  0  0  0
 15 16  1  0  0  0
 15 17  1  0  0  0
M  END
> <minimizedAffinity>
-6.98549

$$$$
3R4N_FU5_A_901


 25 26  0  0  0  0  0  0  0  0999 V2000
   13.6740   -1.4174   51.4902 C   0  0  0  0  0  0  0  0  0  0  0  0
   13.6239   -1.5719   52.9311 C   0  0  0  0  0  0  0  0  0  0  0  0
   12.4525   -1.2282   50.7443 C   0  0  0  0  0  0  0  0  0  0  0  0
   12.3439   -1.5479   53.6028 C   0  0  0  0  0  0  0  0  0  0  0  0
   11.2029   -1.2102   51.4416 C   0  0  0  0  0  0  0  0  0  0  0  0
   12.4344   -1.0150   49.0134 Cl  0  0  0  0  0  0  0  0  0  0  0  0
   11.1462   -1.3722   52.8591 C   0  0  0  0  0  0  0  0  0  0  0  0
   14.9968   -1.4521   50.7734 C   0  0  0  0  0  0  0  0  0  0  0  0
   15.5918   -2.6878   50.5523 C   0  0  0  0  0  0  0  0  0  0  0  0
   15.6018   -0.2772   50.3571 N   0  0  0  0  0  0  0  0  0  0  0  0
   16.7914   -2.6896   49.9097 C   0  0  0  0  0  0  0  0  0  0  0  0
   16.7943   -0.3519   49.7233 C   0  0  0  0  0  0  0  0  0  0  0  0
   17.3991   -1.5358   49.4927 N   0  0  0  0  0  0  0  0  0  0  0  0
   17.4889   -4.0153   49.6489 C   0  0  0  0  0  0  0  0  0  0  0  0
   17.4210    0.8226   49.2989 N   0  0  0  0  0  0  0  0  0  0  0  0
   16.9931    1.6945   49.4594 H   0  0  0  0  0  0  0  0  0  0  0  0
   18.2905    0.7781   48.8392 H   0  0  0  0  0  0  0  0  0  0  0  0
   14.8388   -1.7355   53.5752 O   0  0  0  0  0  0  0  0  0  0  0  0
   15.0713   -1.6566   54.8802 C   0  0  0  0  0  0  0  0  0  0  0  0
   15.4846   -3.0152   55.4494 C   0  0  0  0  0  0  0  0  0  0  0  0
   14.2591   -3.6990   56.0867 C   0  0  0  0  0  0  0  0  0  0  0  0
   13.7973   -4.9600   55.3581 C   0  0  0  0  0  0  0  0  0  0  0  0
   14.8566   -5.8076   55.1145 F   0  0  0  0  0  0  0  0  0  0  0  0
   12.8642   -5.6306   56.1254 F   0  0  0  0  0  0  0  0  0  0  0  0
   13.2129   -4.6345   54.1566 F   0  0  0  0  0  0  0  0  0  0  0  0
  8  1  1  0  0  0
  3  1  2  0  0  0
  1  2  1  0  0  0
 10  8  2  0  0  0
  8  9  1  0  0  0
  2 18  1  0  0  0
  2  4  2  0  0  0
  6  3  1  0  0  0
  3  5  1  0  0  0
 11  9  2  0  0  0
 12 10  1  0  0  0
  7  4  1  0  0  0
 18 19  1  0  0  0
  5  7  2  0  0  0
 13 11  1  0  0  0
 14 11  1  0  0  0
 15 12  1  0  0  0
 13 12  2  0  0  0
 19 20  1  0  0  0
 21 20  1  0  0  0
 21 22  1  0  0  0
 24 22  1  0  0  0
 25 22  1  0  0  0
 22 23  1  0  0  0
 15 16  1  0  0  0
 15 17  1  0  0  0
M  END
> <minimizedAffinity>
-6.71309

$$$$
3R4N_FU5_A_901


 25 26  0  0  0  0  0  0  0  0999 V2000
   14.2266   -1.4065   52.1435 C   0  0  0  0  0  0  0  0  0  0  0  0
   15.6737   -1.3970   52.2357 C   0  0  0  0  0  0  0  0  0  0  0  0
   13.5860   -1.2016   50.8661 C   0  0  0  0  0  0  0  0  0  0  0  0
   16.4587   -1.1677   51.0436 C   0  0  0  0  0  0  0  0  0  0  0  0
   14.3942   -0.9769   49.7065 C   0  0  0  0  0  0  0  0  0  0  0  0
   11.8528   -1.2198   50.6728 Cl  0  0  0  0  0  0  0  0  0  0  0  0
   15.8192   -0.9561   49.7926 C   0  0  0  0  0  0  0  0  0  0  0  0
   13.3937   -1.6316   53.3766 C   0  0  0  0  0  0  0  0  0  0  0  0
   13.2796   -2.9272   53.8646 C   0  0  0  0  0  0  0  0  0  0  0  0
   12.7543   -0.5702   53.9964 N   0  0  0  0  0  0  0  0  0  0  0  0
   12.5138   -3.1035   54.9757 C   0  0  0  0  0  0  0  0  0  0  0  0
   12.0090   -0.8166   55.0978 C   0  0  0  0  0  0  0  0  0  0  0  0
   11.8775   -2.0630   55.5976 N   0  0  0  0  0  0  0  0  0  0  0  0
   12.3500   -4.5032   55.5468 C   0  0  0  0  0  0  0  0  0  0  0  0
   11.3543    0.2408   55.7345 N   0  0  0  0  0  0  0  0  0  0  0  0
   11.4400    1.1562   55.3825 H   0  0  0  0  0  0  0  0  0  0  0  0
   10.8073    0.0704   56.5352 H   0  0  0  0  0  0  0  0  0  0  0  0
   16.2118   -1.6141   53.4931 O   0  0  0  0  0  0  0  0  0  0  0  0
   17.3269   -2.2733   53.7850 C   0  0  0  0  0  0  0  0  0  0  0  0
   17.1245   -3.7840   53.6539 C   0  0  0  0  0  0  0  0  0  0  0  0
   17.9814   -4.3177   52.4892 C   0  0  0  0  0  0  0  0  0  0  0  0
   17.1714   -4.9101   51.3371 C   0  0  0  0  0  0  0  0  0  0  0  0
   17.6858   -4.5219   50.1187 F   0  0  0  0  0  0  0  0  0  0  0  0
   17.1964   -6.2898   51.4062 F   0  0  0  0  0  0  0  0  0  0  0  0
   15.8611   -4.4991   51.4092 F   0  0  0  0  0  0  0  0  0  0  0  0
  8  1  1  0  0  0
  3  1  2  0  0  0
  1  2  1  0  0  0
 10  8  2  0  0  0
  8  9  1  0  0  0
  2 18  1  0  0  0
  2  4  2  0  0  0
  6  3  1  0  0  0
  3  5  1  0  0  0
 11  9  2  0  0  0
 12 10  1  0  0  0
  7  4  1  0  0  0
 18 19  1  0  0  0
  5  7  2  0  0  0
 13 11  1  0  0  0
 14 11  1  0  0  0
 15 12  1  0  0  0
 13 12  2  0  0  0
 19 20  1  0  0  0
 21 20  1  0  0  0
 21 22  1  0  0  0
 24 22  1  0  0  0
 25 22  1  0  0  0
 22 23  1  0  0  0
 15 16  1  0  0  0
 15 17  1  0  0  0
M  END
> <minimizedAffinity>
-6.70650

$$$$
3R4N_FU5_A_901


 25 26  0  0  0  0  0  0  0  0999 V2000
   13.7115   -1.3354   51.5131 C   0  0  0  0  0  0  0  0  0  0  0  0
   13.6928   -1.4316   52.9598 C   0  0  0  0  0  0  0  0  0  0  0  0
   12.4713   -1.2112   50.7846 C   0  0  0  0  0  0  0  0  0  0  0  0
   12.4256   -1.4153   53.6554 C   0  0  0  0  0  0  0  0  0  0  0  0
   11.2350   -1.1990   51.5055 C   0  0  0  0  0  0  0  0  0  0  0  0
   12.4146   -1.0703   49.0472 Cl  0  0  0  0  0  0  0  0  0  0  0  0
   11.2095   -1.3038   52.9292 C   0  0  0  0  0  0  0  0  0  0  0  0
   15.0210   -1.3630   50.7722 C   0  0  0  0  0  0  0  0  0  0  0  0
   15.6414   -2.5911   50.5804 C   0  0  0  0  0  0  0  0  0  0  0  0
   15.5896   -0.1888   50.3055 N   0  0  0  0  0  0  0  0  0  0  0  0
   16.8284   -2.5862   49.9148 C   0  0  0  0  0  0  0  0  0  0  0  0
   16.7714   -0.2566   49.6513 C   0  0  0  0  0  0  0  0  0  0  0  0
   17.4001   -1.4330   49.4482 N   0  0  0  0  0  0  0  0  0  0  0  0
   17.5527   -3.9032   49.6843 C   0  0  0  0  0  0  0  0  0  0  0  0
   17.3615    0.9173   49.1761 N   0  0  0  0  0  0  0  0  0  0  0  0
   16.9157    1.7839   49.3161 H   0  0  0  0  0  0  0  0  0  0  0  0
   18.2230    0.8780   48.7013 H   0  0  0  0  0  0  0  0  0  0  0  0
   14.9238   -1.5346   53.5858 O   0  0  0  0  0  0  0  0  0  0  0  0
   15.2549   -2.3591   54.5726 C   0  0  0  0  0  0  0  0  0  0  0  0
   15.7648   -1.5851   55.7898 C   0  0  0  0  0  0  0  0  0  0  0  0
   15.0849   -2.1252   57.0632 C   0  0  0  0  0  0  0  0  0  0  0  0
   13.8674   -1.3187   57.5123 C   0  0  0  0  0  0  0  0  0  0  0  0
   14.0400    0.0242   57.2540 F   0  0  0  0  0  0  0  0  0  0  0  0
   12.7414   -1.7551   56.8410 F   0  0  0  0  0  0  0  0  0  0  0  0
   13.6543   -1.4803   58.8612 F   0  0  0  0  0  0  0  0  0  0  0  0
  8  1  1  0  0  0
  3  1  2  0  0  0
  1  2  1  0  0  0
 10  8  2  0  0  0
  8  9  1  0  0  0
  2 18  1  0  0  0
  2  4  2  0  0  0
  6  3  1  0  0  0
  3  5  1  0  0  0
 11  9  2  0  0  0
 12 10  1  0  0  0
  7  4  1  0  0  0
 18 19  1  0  0  0
  5  7  2  0  0  0
 13 11  1  0  0  0
 14 11  1  0  0  0
 15 12  1  0  0  0
 13 12  2  0  0  0
 19 20  1  0  0  0
 21 20  1  0  0  0
 21 22  1  0  0  0
 24 22  1  0  0  0
 25 22  1  0  0  0
 22 23  1  0  0  0
 15 16  1  0  0  0
 15 17  1  0  0  0
M  END
> <minimizedAffinity>
-6.68616

$$$$
3R4N_FU5_A_901


 25 26  0  0  0  0  0  0  0  0999 V2000
   13.7493   -1.8916   52.2734 C   0  0  0  0  0  0  0  0  0  0  0  0
   14.1693   -1.7687   50.8910 C   0  0  0  0  0  0  0  0  0  0  0  0
   12.3810   -1.6089   52.6370 C   0  0  0  0  0  0  0  0  0  0  0  0
   13.2109   -1.3497   49.8931 C   0  0  0  0  0  0  0  0  0  0  0  0
   11.4590   -1.1958   51.6234 C   0  0  0  0  0  0  0  0  0  0  0  0
   11.7968   -1.7542   54.2739 Cl  0  0  0  0  0  0  0  0  0  0  0  0
   11.8692   -1.0630   50.2622 C   0  0  0  0  0  0  0  0  0  0  0  0
   14.7369   -2.3149   53.3271 C   0  0  0  0  0  0  0  0  0  0  0  0
   14.9264   -3.6743   53.5414 C   0  0  0  0  0  0  0  0  0  0  0  0
   15.4272   -1.3669   54.0648 N   0  0  0  0  0  0  0  0  0  0  0  0
   15.8187   -4.0291   54.5057 C   0  0  0  0  0  0  0  0  0  0  0  0
   16.3000   -1.7895   55.0077 C   0  0  0  0  0  0  0  0  0  0  0  0
   16.5076   -3.1021   55.2410 N   0  0  0  0  0  0  0  0  0  0  0  0
   16.0581   -5.5044   54.7853 C   0  0  0  0  0  0  0  0  0  0  0  0
   17.0031   -0.8480   55.7637 N   0  0  0  0  0  0  0  0  0  0  0  0
   16.8633    0.1136   55.6060 H   0  0  0  0  0  0  0  0  0  0  0  0
   17.6384   -1.1463   56.4541 H   0  0  0  0  0  0  0  0  0  0  0  0
   15.4938   -2.0701   50.6211 O   0  0  0  0  0  0  0  0  0  0  0  0
   16.0918   -2.0637   49.4356 C   0  0  0  0  0  0  0  0  0  0  0  0
   17.3691   -1.2222   49.4672 C   0  0  0  0  0  0  0  0  0  0  0  0
   17.0745    0.1330   50.1397 C   0  0  0  0  0  0  0  0  0  0  0  0
   16.3663    1.1396   49.2344 C   0  0  0  0  0  0  0  0  0  0  0  0
   16.6347    0.8861   47.9064 F   0  0  0  0  0  0  0  0  0  0  0  0
   15.0005    1.0668   49.4293 F   0  0  0  0  0  0  0  0  0  0  0  0
   16.7753    2.4197   49.5262 F   0  0  0  0  0  0  0  0  0  0  0  0
  8  1  1  0  0  0
  3  1  2  0  0  0
  1  2  1  0  0  0
 10  8  2  0  0  0
  8  9  1  0  0  0
  2 18  1  0  0  0
  2  4  2  0  0  0
  6  3  1  0  0  0
  3  5  1  0  0  0
 11  9  2  0  0  0
 12 10  1  0  0  0
  7  4  1  0  0  0
 18 19  1  0  0  0
  5  7  2  0  0  0
 13 11  1  0  0  0
 14 11  1  0  0  0
 15 12  1  0  0  0
 13 12  2  0  0  0
 19 20  1  0  0  0
 21 20  1  0  0  0
 21 22  1  0  0  0
 24 22  1  0  0  0
 25 22  1  0  0  0
 22 23  1  0  0  0
 15 16  1  0  0  0
 15 17  1  0  0  0
M  END
> <minimizedAffinity>
-6.59729

$$$$
3R4N_FU5_A_901


 25 26  0  0  0  0  0  0  0  0999 V2000
   13.4509   -1.2597   51.6639 C   0  0  0  0  0  0  0  0  0  0  0  0
   13.5594   -1.4013   53.1029 C   0  0  0  0  0  0  0  0  0  0  0  0
   12.1487   -1.2009   51.0432 C   0  0  0  0  0  0  0  0  0  0  0  0
   12.3564   -1.4958   53.8989 C   0  0  0  0  0  0  0  0  0  0  0  0
   10.9789   -1.2981   51.8618 C   0  0  0  0  0  0  0  0  0  0  0  0
   11.9381   -1.0111   49.3224 Cl  0  0  0  0  0  0  0  0  0  0  0  0
   11.0793   -1.4480   53.2782 C   0  0  0  0  0  0  0  0  0  0  0  0
   14.6930   -1.1721   50.8188 C   0  0  0  0  0  0  0  0  0  0  0  0
   15.1080    0.0821   50.3891 C   0  0  0  0  0  0  0  0  0  0  0  0
   15.3923   -2.3180   50.4760 N   0  0  0  0  0  0  0  0  0  0  0  0
   16.2292    0.1316   49.6193 C   0  0  0  0  0  0  0  0  0  0  0  0
   16.4992   -2.1963   49.7083 C   0  0  0  0  0  0  0  0  0  0  0  0
   16.9293   -0.9933   49.2744 N   0  0  0  0  0  0  0  0  0  0  0  0
   16.7224    1.4791   49.1165 C   0  0  0  0  0  0  0  0  0  0  0  0
   17.2156   -3.3411   49.3500 N   0  0  0  0  0  0  0  0  0  0  0  0
   16.9151   -4.2264   49.6584 H   0  0  0  0  0  0  0  0  0  0  0  0
   18.0209   -3.2624   48.7892 H   0  0  0  0  0  0  0  0  0  0  0  0
   14.8425   -1.4365   53.6229 O   0  0  0  0  0  0  0  0  0  0  0  0
   15.3544   -2.3560   54.4326 C   0  0  0  0  0  0  0  0  0  0  0  0
   15.1274   -3.7645   53.8803 C   0  0  0  0  0  0  0  0  0  0  0  0
   14.8854   -4.7409   55.0481 C   0  0  0  0  0  0  0  0  0  0  0  0
   13.4442   -4.7650   55.5548 C   0  0  0  0  0  0  0  0  0  0  0  0
   13.2063   -3.7203   56.4220 F   0  0  0  0  0  0  0  0  0  0  0  0
   12.5701   -4.6609   54.4898 F   0  0  0  0  0  0  0  0  0  0  0  0
   13.1846   -5.9453   56.2110 F   0  0  0  0  0  0  0  0  0  0  0  0
  8  1  1  0  0  0
  3  1  2  0  0  0
  1  2  1  0  0  0
 10  8  2  0  0  0
  8  9  1  0  0  0
  2 18  1  0  0  0
  2  4  2  0  0  0
  6  3  1  0  0  0
  3  5  1  0  0  0
 11  9  2  0  0  0
 12 10  1  0  0  0
  7  4  1  0  0  0
 18 19  1  0  0  0
  5  7  2  0  0  0
 13 11  1  0  0  0
 14 11  1  0  0  0
 15 12  1  0  0  0
 13 12  2  0  0  0
 19 20  1  0  0  0
 21 20  1  0  0  0
 21 22  1  0  0  0
 24 22  1  0  0  0
 25 22  1  0  0  0
 22 23  1  0  0  0
 15 16  1  0  0  0
 15 17  1  0  0  0
M  END
> <minimizedAffinity>
-6.45364

$$$$
