1G2O_IMH_A_351
  RCSB PDB12061702333D
Coordinates from PDB:1G2O:A:351 Model:1 without hydrogens
 19 21  0  0  0  0            999 V2000
   55.2480   13.9450   43.5030   O 0  0  0  0  0  0  0  0  0  0  0  0
   55.0140   15.2780   43.9290   C 0  0  0  0  0  0  0  0  0  0  0  0
   56.3320   15.9040   44.2220   C 0  0  0  0  0  0  0  0  0  0  0  0
   57.1430   15.8500   43.0570   N 0  0  0  0  0  0  0  0  0  0  0  0
   56.1460   17.3380   44.6070   C 0  0  0  0  0  0  0  0  0  0  0  0
   57.0730   17.6270   45.6570   O 0  0  0  0  0  0  0  0  0  0  0  0
   56.4520   18.0500   43.3310   C 0  0  0  0  0  0  0  0  0  0  0  0
   57.2500   19.1990   43.5950   O 0  0  0  0  0  0  0  0  0  0  0  0
   57.2120   17.0970   42.3780   C 0  0  0  0  0  0  0  0  0  0  0  0
   56.4490   16.8610   41.0640   C 0  0  0  0  0  0  0  0  0  0  0  0
   56.6880   15.8060   40.1790   C 0  0  0  0  0  0  0  0  0  0  0  0
   55.9180   15.7880   39.1160   N 0  0  0  0  0  0  0  0  0  0  0  0
   55.0820   16.8970   39.2600   C 0  0  0  0  0  0  0  0  0  0  0  0
   54.0310   17.3800   38.3940   C 0  0  0  0  0  0  0  0  0  0  0  0
   53.6630   16.8910   37.3270   O 0  0  0  0  0  0  0  0  0  0  0  0
   53.4000   18.5420   38.8760   N 0  0  0  0  0  0  0  0  0  0  0  0
   53.7340   19.1900   40.0770   C 0  0  0  0  0  0  0  0  0  0  0  0
   54.7270   18.7390   40.9030   N 0  0  0  0  0  0  0  0  0  0  0  0
   55.3770   17.5810   40.4460   C 0  0  0  0  0  0  0  0  0  0  0  0
  1  2  1  0  0  0  0
  2  3  1  0  0  0  0
  3  4  1  0  0  0  0
  3  5  1  0  0  0  0
  4  9  1  0  0  0  0
  5  6  1  0  0  0  0
  5  7  1  0  0  0  0
  7  8  1  0  0  0  0
  7  9  1  0  0  0  0
  9 10  1  0  0  0  0
 10 11  2  0  0  0  0
 10 19  1  0  0  0  0
 11 12  1  0  0  0  0
 12 13  1  0  0  0  0
 13 14  1  0  0  0  0
 13 19  2  0  0  0  0
 14 15  1  0  0  0  0
 14 16  2  0  0  0  0
 16 17  1  0  0  0  0
 17 18  2  0  0  0  0
 18 19  1  0  0  0  0
A    1
O5'
A    2
C5'
A    3
C4'
A    4
N4'
A    5
C3'
A    6
O3'
A    7
C2'
A    8
O2'
A    9
C1'
A   10
C9
A   11
C8
A   12
N7
A   13
C5
A   14
C6
A   15
O6
A   16
N1
A   17
C2
A   18
N3
A   19
C4
M  END
>  <InstanceId>
1G2O_IMH_A_351

>  <ChemCompId>
IMH

>  <PdbId>
1G2O

>  <ChainId>
A

>  <ResidueNumber>
351

>  <InsertionCode>


>  <Model>
1

>  <AltIds>


>  <MissingHeavyAtoms>
0

>  <ObservedFormula>
C11 N4 O4

>  <Name>
1,4-DIDEOXY-4-AZA-1-(S)-(9-DEAZAHYPOXANTHIN-9-YL)-D-RIBITOL

>  <SystematicName>
(2R,3R,4S,5S)-2-(hydroxymethyl)-5-(4-hydroxy-5H-pyrrolo[5,4-e]pyrimidin-7-yl)pyrrolidine-3,4-diol

>  <Synonyms>


>  <Type>
NON-POLYMER

>  <Formula>
C11 H14 N4 O4

>  <MolecularWeight>
266.253

>  <ModifiedDate>
2011-06-04

>  <Parent>


>  <OneLetterCode>


>  <SubcomponentList>


>  <AmbiguousFlag>
N

>  <InChI>
InChI=1S/C11H14N4O4/c16-2-5-9(17)10(18)7(15-5)4-1-12-8-6(4)13-3-14-11(8)19/h1,3,5,7,9-10,12,15-18H,2H2,(H,13,14,19)/t5-,7+,9-,10+/m1/s1

>  <InChIKey>
IWKXDMQDITUYRK-KUBHLMPHSA-N

>  <SMILES>
c1c(c2c([nH]1)c(ncn2)O)[C@H]3[C@@H]([C@@H]([C@H](N3)CO)O)O

$$$$
