4UNP_TXW_A_1211


 16 17  0  0  0  0  0  0  0  0999 V2000
   42.1685   32.5330   56.5815 C   0  0  0  0  0  0  0  0  0  0  0  0
   43.2026   31.6131   58.5265 C   0  0  0  0  0  0  0  0  0  0  0  0
   42.5988   31.4351   57.2843 C   0  0  0  0  0  0  0  0  0  0  0  0
   42.3456   33.7777   57.1372 C   0  0  0  0  0  0  0  0  0  0  0  0
   43.3615   32.9082   59.0132 C   0  0  0  0  0  0  0  0  0  0  0  0
   43.6266   30.4345   59.2325 C   0  0  0  0  0  0  0  0  0  0  0  0
   43.4442   29.2008   58.7064 C   0  0  0  0  0  0  0  0  0  0  0  0
   42.8058   29.0161   57.4078 C   0  0  0  0  0  0  0  0  0  0  0  0
   44.0533   33.2178   60.3100 C   0  0  0  0  0  0  0  0  0  0  0  0
   42.9309   33.9638   58.3197 N   0  0  0  0  0  0  0  0  0  0  0  0
   42.4069   30.1609   56.7780 N   0  0  0  0  0  0  0  0  0  0  0  0
   42.6272   27.9123   56.8694 O   0  0  0  0  0  0  0  0  0  0  0  0
   41.9538   30.0742   55.9083 H   0  0  0  0  0  0  0  0  0  0  0  0
   41.8746   35.0164   56.4135 C   0  0  0  0  0  0  0  0  0  0  0  0
   41.0424   35.1178   54.0967 C   0  0  0  0  0  0  0  0  0  0  0  0
   40.6876   34.8047   55.5210 C   0  0  0  0  0  0  0  0  0  0  0  0
  1  3  1  0  0  0
  1  4  2  0  0  0
  2  3  2  0  0  0
  2  5  1  0  0  0
  2  6  1  0  0  0
  3 11  1  0  0  0
  4 14  1  0  0  0
  4 10  1  0  0  0
  5  9  1  0  0  0
  5 10  2  0  0  0
  6  7  2  0  0  0
  7  8  1  0  0  0
  8 11  1  0  0  0
  8 12  2  0  0  0
 15 16  1  0  0  0
 14 16  1  0  0  0
 11 13  1  0  0  0
M  END
> <minimizedAffinity>
-8.38346

$$$$
4UNP_TXW_A_1211


 16 17  0  0  0  0  0  0  0  0999 V2000
   41.5602   32.5073   56.0313 C   0  0  0  0  0  0  0  0  0  0  0  0
   43.0874   32.0854   57.8167 C   0  0  0  0  0  0  0  0  0  0  0  0
   42.3093   31.6178   56.7607 C   0  0  0  0  0  0  0  0  0  0  0  0
   41.6014   33.8370   56.3769 C   0  0  0  0  0  0  0  0  0  0  0  0
   43.0891   33.4504   58.0930 C   0  0  0  0  0  0  0  0  0  0  0  0
   43.8462   31.1167   58.5608 C   0  0  0  0  0  0  0  0  0  0  0  0
   43.8033   29.8016   58.2436 C   0  0  0  0  0  0  0  0  0  0  0  0
   42.9826   29.3131   57.1408 C   0  0  0  0  0  0  0  0  0  0  0  0
   43.9376   34.0686   59.1670 C   0  0  0  0  0  0  0  0  0  0  0  0
   42.3492   34.3000   57.3779 N   0  0  0  0  0  0  0  0  0  0  0  0
   42.2684   30.2648   56.4698 N   0  0  0  0  0  0  0  0  0  0  0  0
   42.9169   28.1231   56.7946 O   0  0  0  0  0  0  0  0  0  0  0  0
   41.6873   29.9697   55.7320 H   0  0  0  0  0  0  0  0  0  0  0  0
   40.7829   34.8540   55.6180 C   0  0  0  0  0  0  0  0  0  0  0  0
   41.3964   36.4881   53.8790 C   0  0  0  0  0  0  0  0  0  0  0  0
   41.1845   35.0339   54.1838 C   0  0  0  0  0  0  0  0  0  0  0  0
  1  3  1  0  0  0
  1  4  2  0  0  0
  2  3  2  0  0  0
  2  5  1  0  0  0
  2  6  1  0  0  0
  3 11  1  0  0  0
  4 14  1  0  0  0
  4 10  1  0  0  0
  5  9  1  0  0  0
  5 10  2  0  0  0
  6  7  2  0  0  0
  7  8  1  0  0  0
  8 11  1  0  0  0
  8 12  2  0  0  0
 15 16  1  0  0  0
 14 16  1  0  0  0
 11 13  1  0  0  0
M  END
> <minimizedAffinity>
-8.17679

$$$$
4UNP_TXW_A_1211


 16 17  0  0  0  0  0  0  0  0999 V2000
   42.2123   31.2408   56.9956 C   0  0  0  0  0  0  0  0  0  0  0  0
   42.5988   33.5942   57.0969 C   0  0  0  0  0  0  0  0  0  0  0  0
   42.1118   32.4812   56.4161 C   0  0  0  0  0  0  0  0  0  0  0  0
   42.8002   31.1415   58.2341 C   0  0  0  0  0  0  0  0  0  0  0  0
   43.1652   33.4129   58.3562 C   0  0  0  0  0  0  0  0  0  0  0  0
   42.4836   34.8716   56.4468 C   0  0  0  0  0  0  0  0  0  0  0  0
   41.9224   34.9839   55.2203 C   0  0  0  0  0  0  0  0  0  0  0  0
   41.4185   33.8157   54.5063 C   0  0  0  0  0  0  0  0  0  0  0  0
   43.6644   34.5491   59.2021 C   0  0  0  0  0  0  0  0  0  0  0  0
   43.2610   32.1988   58.9014 N   0  0  0  0  0  0  0  0  0  0  0  0
   41.5600   32.6215   55.1542 N   0  0  0  0  0  0  0  0  0  0  0  0
   40.8806   33.8603   53.3888 O   0  0  0  0  0  0  0  0  0  0  0  0
   41.2496   31.8083   54.6942 H   0  0  0  0  0  0  0  0  0  0  0  0
   42.9511   29.7985   58.9077 C   0  0  0  0  0  0  0  0  0  0  0  0
   44.0693   27.6049   58.8170 C   0  0  0  0  0  0  0  0  0  0  0  0
   43.4377   28.7004   58.0088 C   0  0  0  0  0  0  0  0  0  0  0  0
  1  3  1  0  0  0
  1  4  2  0  0  0
  2  3  2  0  0  0
  2  5  1  0  0  0
  2  6  1  0  0  0
  3 11  1  0  0  0
  4 14  1  0  0  0
  4 10  1  0  0  0
  5  9  1  0  0  0
  5 10  2  0  0  0
  6  7  2  0  0  0
  7  8  1  0  0  0
  8 11  1  0  0  0
  8 12  2  0  0  0
 15 16  1  0  0  0
 14 16  1  0  0  0
 11 13  1  0  0  0
M  END
> <minimizedAffinity>
-7.83320

$$$$
4UNP_TXW_A_1211


 16 17  0  0  0  0  0  0  0  0999 V2000
   43.9863   31.5110   59.8021 C   0  0  0  0  0  0  0  0  0  0  0  0
   43.0220   30.8422   57.7233 C   0  0  0  0  0  0  0  0  0  0  0  0
   43.6739   30.5156   58.9098 C   0  0  0  0  0  0  0  0  0  0  0  0
   43.6467   32.8048   59.4862 C   0  0  0  0  0  0  0  0  0  0  0  0
   42.6961   32.1749   57.4844 C   0  0  0  0  0  0  0  0  0  0  0  0
   42.7255   29.7695   56.8128 C   0  0  0  0  0  0  0  0  0  0  0  0
   43.0683   28.4924   57.1017 C   0  0  0  0  0  0  0  0  0  0  0  0
   43.7568   28.1533   58.3423 C   0  0  0  0  0  0  0  0  0  0  0  0
   41.9397   32.6289   56.2688 C   0  0  0  0  0  0  0  0  0  0  0  0
   43.0136   33.1306   58.3598 N   0  0  0  0  0  0  0  0  0  0  0  0
   44.0306   29.2037   59.1716 N   0  0  0  0  0  0  0  0  0  0  0  0
   44.0805   27.0001   58.6672 O   0  0  0  0  0  0  0  0  0  0  0  0
   44.5125   29.0158   60.0093 H   0  0  0  0  0  0  0  0  0  0  0  0
   43.9830   33.9387   60.4249 C   0  0  0  0  0  0  0  0  0  0  0  0
   43.3573   36.2748   60.8959 C   0  0  0  0  0  0  0  0  0  0  0  0
   43.8050   35.3081   59.8387 C   0  0  0  0  0  0  0  0  0  0  0  0
  1  3  1  0  0  0
  1  4  2  0  0  0
  2  3  2  0  0  0
  2  5  1  0  0  0
  2  6  1  0  0  0
  3 11  1  0  0  0
  4 14  1  0  0  0
  4 10  1  0  0  0
  5  9  1  0  0  0
  5 10  2  0  0  0
  6  7  2  0  0  0
  7  8  1  0  0  0
  8 11  1  0  0  0
  8 12  2  0  0  0
 15 16  1  0  0  0
 14 16  1  0  0  0
 11 13  1  0  0  0
M  END
> <minimizedAffinity>
-7.52293

$$$$
4UNP_TXW_A_1211


 16 17  0  0  0  0  0  0  0  0999 V2000
   42.3717   34.5215   56.8962 C   0  0  0  0  0  0  0  0  0  0  0  0
   42.9679   32.6111   58.1974 C   0  0  0  0  0  0  0  0  0  0  0  0
   42.9094   33.9940   58.0438 C   0  0  0  0  0  0  0  0  0  0  0  0
   41.9125   33.6580   55.9304 C   0  0  0  0  0  0  0  0  0  0  0  0
   42.4654   31.8034   57.1803 C   0  0  0  0  0  0  0  0  0  0  0  0
   43.5503   32.1028   59.4099 C   0  0  0  0  0  0  0  0  0  0  0  0
   44.0223   32.9397   60.3632 C   0  0  0  0  0  0  0  0  0  0  0  0
   43.9657   34.3880   60.1975 C   0  0  0  0  0  0  0  0  0  0  0  0
   42.4222   30.3047   57.2689 C   0  0  0  0  0  0  0  0  0  0  0  0
   41.9525   32.3332   56.0682 N   0  0  0  0  0  0  0  0  0  0  0  0
   43.4172   34.8271   59.0260 N   0  0  0  0  0  0  0  0  0  0  0  0
   44.3673   35.2027   61.0433 O   0  0  0  0  0  0  0  0  0  0  0  0
   43.3806   35.7985   58.8702 H   0  0  0  0  0  0  0  0  0  0  0  0
   41.3279   34.1863   54.6423 C   0  0  0  0  0  0  0  0  0  0  0  0
   41.3562   36.5404   53.9154 C   0  0  0  0  0  0  0  0  0  0  0  0
   40.6538   35.5210   54.7639 C   0  0  0  0  0  0  0  0  0  0  0  0
  1  3  1  0  0  0
  1  4  2  0  0  0
  2  3  2  0  0  0
  2  5  1  0  0  0
  2  6  1  0  0  0
  3 11  1  0  0  0
  4 14  1  0  0  0
  4 10  1  0  0  0
  5  9  1  0  0  0
  5 10  2  0  0  0
  6  7  2  0  0  0
  7  8  1  0  0  0
  8 11  1  0  0  0
  8 12  2  0  0  0
 15 16  1  0  0  0
 14 16  1  0  0  0
 11 13  1  0  0  0
M  END
> <minimizedAffinity>
-7.26460

$$$$
4UNP_TXW_A_1211


 16 17  0  0  0  0  0  0  0  0999 V2000
   43.6288   33.0440   59.4405 C   0  0  0  0  0  0  0  0  0  0  0  0
   42.7260   31.8029   57.6122 C   0  0  0  0  0  0  0  0  0  0  0  0
   43.3567   31.8333   58.8534 C   0  0  0  0  0  0  0  0  0  0  0  0
   43.2710   34.1912   58.7734 C   0  0  0  0  0  0  0  0  0  0  0  0
   42.3794   33.0090   57.0084 C   0  0  0  0  0  0  0  0  0  0  0  0
   42.4718   30.5132   57.0292 C   0  0  0  0  0  0  0  0  0  0  0  0
   42.8329   29.3747   57.6658 C   0  0  0  0  0  0  0  0  0  0  0  0
   43.4992   29.4090   58.9632 C   0  0  0  0  0  0  0  0  0  0  0  0
   41.6424   33.0903   55.7022 C   0  0  0  0  0  0  0  0  0  0  0  0
   42.6578   34.1771   57.5904 N   0  0  0  0  0  0  0  0  0  0  0  0
   43.7330   30.6543   59.4738 N   0  0  0  0  0  0  0  0  0  0  0  0
   43.8380   28.3990   59.5998 O   0  0  0  0  0  0  0  0  0  0  0  0
   44.1991   30.7173   60.3387 H   0  0  0  0  0  0  0  0  0  0  0  0
   43.5632   35.5484   59.3672 C   0  0  0  0  0  0  0  0  0  0  0  0
   43.2696   36.5067   61.6180 C   0  0  0  0  0  0  0  0  0  0  0  0
   44.0376   35.5182   60.7901 C   0  0  0  0  0  0  0  0  0  0  0  0
  1  3  1  0  0  0
  1  4  2  0  0  0
  2  3  2  0  0  0
  2  5  1  0  0  0
  2  6  1  0  0  0
  3 11  1  0  0  0
  4 14  1  0  0  0
  4 10  1  0  0  0
  5  9  1  0  0  0
  5 10  2  0  0  0
  6  7  2  0  0  0
  7  8  1  0  0  0
  8 11  1  0  0  0
  8 12  2  0  0  0
 15 16  1  0  0  0
 14 16  1  0  0  0
 11 13  1  0  0  0
M  END
> <minimizedAffinity>
-7.19569

$$$$
4UNP_TXW_A_1211


 16 17  0  0  0  0  0  0  0  0999 V2000
   41.8482   32.4956   56.2630 C   0  0  0  0  0  0  0  0  0  0  0  0
   43.1928   34.4179   56.7044 C   0  0  0  0  0  0  0  0  0  0  0  0
   42.1787   33.7974   55.9792 C   0  0  0  0  0  0  0  0  0  0  0  0
   42.5403   31.8452   57.2566 C   0  0  0  0  0  0  0  0  0  0  0  0
   43.8350   33.6966   57.7077 C   0  0  0  0  0  0  0  0  0  0  0  0
   43.5138   35.7778   56.3650 C   0  0  0  0  0  0  0  0  0  0  0  0
   42.8529   36.4267   55.3780 C   0  0  0  0  0  0  0  0  0  0  0  0
   41.7950   35.7728   54.6154 C   0  0  0  0  0  0  0  0  0  0  0  0
   44.8976   34.2867   58.5901 C   0  0  0  0  0  0  0  0  0  0  0  0
   43.5056   32.4295   57.9654 N   0  0  0  0  0  0  0  0  0  0  0  0
   41.5319   34.4778   54.9617 N   0  0  0  0  0  0  0  0  0  0  0  0
   41.1450   36.3223   53.7122 O   0  0  0  0  0  0  0  0  0  0  0  0
   40.8378   33.9975   54.4550 H   0  0  0  0  0  0  0  0  0  0  0  0
   42.2279   30.4074   57.5962 C   0  0  0  0  0  0  0  0  0  0  0  0
   43.7297   28.9652   58.9134 C   0  0  0  0  0  0  0  0  0  0  0  0
   43.4079   29.4826   57.5419 C   0  0  0  0  0  0  0  0  0  0  0  0
  1  3  1  0  0  0
  1  4  2  0  0  0
  2  3  2  0  0  0
  2  5  1  0  0  0
  2  6  1  0  0  0
  3 11  1  0  0  0
  4 14  1  0  0  0
  4 10  1  0  0  0
  5  9  1  0  0  0
  5 10  2  0  0  0
  6  7  2  0  0  0
  7  8  1  0  0  0
  8 11  1  0  0  0
  8 12  2  0  0  0
 15 16  1  0  0  0
 14 16  1  0  0  0
 11 13  1  0  0  0
M  END
> <minimizedAffinity>
-7.06791

$$$$
4UNP_TXW_A_1211


 16 17  0  0  0  0  0  0  0  0999 V2000
   43.2762   31.4260   58.6473 C   0  0  0  0  0  0  0  0  0  0  0  0
   42.8223   33.6638   57.9511 C   0  0  0  0  0  0  0  0  0  0  0  0
   43.3300   32.7751   58.8955 C   0  0  0  0  0  0  0  0  0  0  0  0
   42.7132   30.9983   57.4686 C   0  0  0  0  0  0  0  0  0  0  0  0
   42.2835   33.1522   56.7732 C   0  0  0  0  0  0  0  0  0  0  0  0
   42.8883   35.0669   58.2584 C   0  0  0  0  0  0  0  0  0  0  0  0
   43.4245   35.5033   59.4220 C   0  0  0  0  0  0  0  0  0  0  0  0
   43.9501   34.5703   60.4127 C   0  0  0  0  0  0  0  0  0  0  0  0
   41.7658   34.0213   55.6630 C   0  0  0  0  0  0  0  0  0  0  0  0
   42.2331   31.8373   56.5515 N   0  0  0  0  0  0  0  0  0  0  0  0
   43.8553   33.2473   60.0862 N   0  0  0  0  0  0  0  0  0  0  0  0
   44.4670   34.9129   61.4878 O   0  0  0  0  0  0  0  0  0  0  0  0
   44.1815   32.5871   60.7396 H   0  0  0  0  0  0  0  0  0  0  0  0
   42.6138   29.5246   57.1547 C   0  0  0  0  0  0  0  0  0  0  0  0
   43.9270   27.8501   58.3965 C   0  0  0  0  0  0  0  0  0  0  0  0
   43.9162   28.7830   57.2209 C   0  0  0  0  0  0  0  0  0  0  0  0
  1  3  1  0  0  0
  1  4  2  0  0  0
  2  3  2  0  0  0
  2  5  1  0  0  0
  2  6  1  0  0  0
  3 11  1  0  0  0
  4 14  1  0  0  0
  4 10  1  0  0  0
  5  9  1  0  0  0
  5 10  2  0  0  0
  6  7  2  0  0  0
  7  8  1  0  0  0
  8 11  1  0  0  0
  8 12  2  0  0  0
 15 16  1  0  0  0
 14 16  1  0  0  0
 11 13  1  0  0  0
M  END
> <minimizedAffinity>
-7.00534

$$$$
4UNP_TXW_A_1211


 16 17  0  0  0  0  0  0  0  0999 V2000
   42.9824   35.1050   57.7790 C   0  0  0  0  0  0  0  0  0  0  0  0
   42.1778   33.4414   56.2680 C   0  0  0  0  0  0  0  0  0  0  0  0
   42.4359   34.7777   56.5629 C   0  0  0  0  0  0  0  0  0  0  0  0
   43.2513   34.0939   58.6703 C   0  0  0  0  0  0  0  0  0  0  0  0
   42.4950   32.4735   57.2178 C   0  0  0  0  0  0  0  0  0  0  0  0
   41.5938   33.1460   54.9876 C   0  0  0  0  0  0  0  0  0  0  0  0
   41.3077   34.1318   54.1055 C   0  0  0  0  0  0  0  0  0  0  0  0
   41.5731   35.5316   54.4190 C   0  0  0  0  0  0  0  0  0  0  0  0
   42.3161   31.0014   56.9798 C   0  0  0  0  0  0  0  0  0  0  0  0
   43.0193   32.8104   58.3977 N   0  0  0  0  0  0  0  0  0  0  0  0
   42.1155   35.7681   55.6502 N   0  0  0  0  0  0  0  0  0  0  0  0
   41.3470   36.4745   53.6444 O   0  0  0  0  0  0  0  0  0  0  0  0
   42.2897   36.7030   55.9049 H   0  0  0  0  0  0  0  0  0  0  0  0
   43.8362   34.4016   60.0280 C   0  0  0  0  0  0  0  0  0  0  0  0
   43.3194   36.4711   61.2613 C   0  0  0  0  0  0  0  0  0  0  0  0
   44.2128   35.8391   60.2342 C   0  0  0  0  0  0  0  0  0  0  0  0
  1  3  1  0  0  0
  1  4  2  0  0  0
  2  3  2  0  0  0
  2  5  1  0  0  0
  2  6  1  0  0  0
  3 11  1  0  0  0
  4 14  1  0  0  0
  4 10  1  0  0  0
  5  9  1  0  0  0
  5 10  2  0  0  0
  6  7  2  0  0  0
  7  8  1  0  0  0
  8 11  1  0  0  0
  8 12  2  0  0  0
 15 16  1  0  0  0
 14 16  1  0  0  0
 11 13  1  0  0  0
M  END
> <minimizedAffinity>
-6.81912

$$$$
4UNP_TXW_A_1211


 16 17  0  0  0  0  0  0  0  0999 V2000
   43.2814   31.9801   58.9168 C   0  0  0  0  0  0  0  0  0  0  0  0
   43.3823   34.3651   58.9215 C   0  0  0  0  0  0  0  0  0  0  0  0
   43.5987   33.1485   59.5638 C   0  0  0  0  0  0  0  0  0  0  0  0
   42.7518   32.0548   57.6507 C   0  0  0  0  0  0  0  0  0  0  0  0
   42.8583   34.3561   57.6312 C   0  0  0  0  0  0  0  0  0  0  0  0
   43.7177   35.5637   59.6414 C   0  0  0  0  0  0  0  0  0  0  0  0
   44.2245   35.5076   60.8952 C   0  0  0  0  0  0  0  0  0  0  0  0
   44.4446   34.2323   61.5686 C   0  0  0  0  0  0  0  0  0  0  0  0
   42.6433   35.6048   56.8247 C   0  0  0  0  0  0  0  0  0  0  0  0
   42.5490   33.2110   57.0199 N   0  0  0  0  0  0  0  0  0  0  0  0
   44.1001   33.1202   60.8539 N   0  0  0  0  0  0  0  0  0  0  0  0
   44.9207   34.1192   62.7091 O   0  0  0  0  0  0  0  0  0  0  0  0
   44.2157   32.2422   61.2840 H   0  0  0  0  0  0  0  0  0  0  0  0
   42.3695   30.8003   56.9022 C   0  0  0  0  0  0  0  0  0  0  0  0
   43.4997   28.6121   56.8327 C   0  0  0  0  0  0  0  0  0  0  0  0
   42.6305   29.5248   57.6475 C   0  0  0  0  0  0  0  0  0  0  0  0
  1  3  1  0  0  0
  1  4  2  0  0  0
  2  3  2  0  0  0
  2  5  1  0  0  0
  2  6  1  0  0  0
  3 11  1  0  0  0
  4 14  1  0  0  0
  4 10  1  0  0  0
  5  9  1  0  0  0
  5 10  2  0  0  0
  6  7  2  0  0  0
  7  8  1  0  0  0
  8 11  1  0  0  0
  8 12  2  0  0  0
 15 16  1  0  0  0
 14 16  1  0  0  0
 11 13  1  0  0  0
M  END
> <minimizedAffinity>
-6.80110

$$$$
