4BTK_DTQ_A_1337


 24 26  0  0  0  0  0  0  0  0999 V2000
   66.3432   21.7048   23.3059 N   0  0  0  0  0  0  0  0  0  0  0  0
   66.8688   20.6825   23.9836 C   0  0  0  0  0  0  0  0  0  0  0  0
   66.2278   19.8085   24.7592 N   0  0  0  0  0  0  0  0  0  0  0  0
   64.9120   19.9731   24.8794 C   0  0  0  0  0  0  0  0  0  0  0  0
   64.2596   20.9921   24.1997 C   0  0  0  0  0  0  0  0  0  0  0  0
   65.0187   21.8570   23.4234 C   0  0  0  0  0  0  0  0  0  0  0  0
   64.1839   19.1126   25.6744 C   0  0  0  0  0  0  0  0  0  0  0  0
   62.8153   19.2263   25.8052 C   0  0  0  0  0  0  0  0  0  0  0  0
   62.1782   20.2542   25.1288 C   0  0  0  0  0  0  0  0  0  0  0  0
   62.8931   21.1416   24.3394 C   0  0  0  0  0  0  0  0  0  0  0  0
   64.3778   22.9078   22.7309 N   0  0  0  0  0  0  0  0  0  0  0  0
   63.4039   22.9998   22.8413 H   0  0  0  0  0  0  0  0  0  0  0  0
   65.0309   23.8348   21.8928 C   0  0  0  0  0  0  0  0  0  0  0  0
   65.2685   23.4451   20.5952 C   0  0  0  0  0  0  0  0  0  0  0  0
   65.8969   24.3068   19.7277 C   0  0  0  0  0  0  0  0  0  0  0  0
   66.2916   25.5760   20.0998 C   0  0  0  0  0  0  0  0  0  0  0  0
   66.0480   25.9701   21.4028 C   0  0  0  0  0  0  0  0  0  0  0  0
   65.4185   25.1071   22.2791 C   0  0  0  0  0  0  0  0  0  0  0  0
   66.0844   23.8691   18.4488 O   0  0  0  0  0  0  0  0  0  0  0  0
   65.8136   23.0060   18.2046 H   0  0  0  0  0  0  0  0  0  0  0  0
   62.0391   18.3595   26.6008 O   0  0  0  0  0  0  0  0  0  0  0  0
   62.0690   16.9926   26.2026 C   0  0  0  0  0  0  0  0  0  0  0  0
   60.8092   20.4266   25.3008 O   0  0  0  0  0  0  0  0  0  0  0  0
   60.5769   21.5028   26.2212 C   0  0  0  0  0  0  0  0  0  0  0  0
  1  2  2  0  0  0
  1  6  1  0  0  0
  2  3  1  0  0  0
  3  4  2  0  0  0
  4  5  1  0  0  0
  4  7  1  0  0  0
  5  6  2  0  0  0
  5 10  1  0  0  0
  6 11  1  0  0  0
  7  8  2  0  0  0
  8  9  1  0  0  0
  8 21  1  0  0  0
  9 10  2  0  0  0
  9 23  1  0  0  0
 11 13  1  0  0  0
 13 14  2  0  0  0
 13 18  1  0  0  0
 14 15  1  0  0  0
 15 16  2  0  0  0
 15 19  1  0  0  0
 16 17  1  0  0  0
 17 18  2  0  0  0
 21 22  1  0  0  0
 23 24  1  0  0  0
 11 12  1  0  0  0
 19 20  1  0  0  0
M  END
> <minimizedAffinity>
-7.88744

$$$$
4BTK_DTQ_A_1337


 24 26  0  0  0  0  0  0  0  0999 V2000
   66.2713   20.0686   23.7693 N   0  0  0  0  0  0  0  0  0  0  0  0
   66.1168   19.2829   24.8367 C   0  0  0  0  0  0  0  0  0  0  0  0
   65.0272   19.1459   25.5920 N   0  0  0  0  0  0  0  0  0  0  0  0
   63.9701   19.8795   25.2497 C   0  0  0  0  0  0  0  0  0  0  0  0
   64.0150   20.7149   24.1424 C   0  0  0  0  0  0  0  0  0  0  0  0
   65.2009   20.7947   23.4254 C   0  0  0  0  0  0  0  0  0  0  0  0
   62.8104   19.7979   25.9920 C   0  0  0  0  0  0  0  0  0  0  0  0
   61.6812   20.5162   25.6575 C   0  0  0  0  0  0  0  0  0  0  0  0
   61.7431   21.3538   24.5555 C   0  0  0  0  0  0  0  0  0  0  0  0
   62.9043   21.4652   23.8065 C   0  0  0  0  0  0  0  0  0  0  0  0
   65.2732   21.6461   22.3010 N   0  0  0  0  0  0  0  0  0  0  0  0
   64.7591   21.3905   21.5012 H   0  0  0  0  0  0  0  0  0  0  0  0
   66.0280   22.8356   22.2400 C   0  0  0  0  0  0  0  0  0  0  0  0
   67.3966   22.7059   22.1949 C   0  0  0  0  0  0  0  0  0  0  0  0
   68.1871   23.8287   22.1292 C   0  0  0  0  0  0  0  0  0  0  0  0
   67.6609   25.1040   22.0868 C   0  0  0  0  0  0  0  0  0  0  0  0
   66.2848   25.2346   22.1266 C   0  0  0  0  0  0  0  0  0  0  0  0
   65.4860   24.1093   22.1947 C   0  0  0  0  0  0  0  0  0  0  0  0
   69.5360   23.6325   22.0655 O   0  0  0  0  0  0  0  0  0  0  0  0
   69.8849   22.7633   22.0949 H   0  0  0  0  0  0  0  0  0  0  0  0
   60.4771   20.4498   26.3874 O   0  0  0  0  0  0  0  0  0  0  0  0
   60.5634   19.7482   27.6235 C   0  0  0  0  0  0  0  0  0  0  0  0
   60.6376   22.1366   24.2416 O   0  0  0  0  0  0  0  0  0  0  0  0
   60.3641   22.0327   22.8367 C   0  0  0  0  0  0  0  0  0  0  0  0
  1  2  2  0  0  0
  1  6  1  0  0  0
  2  3  1  0  0  0
  3  4  2  0  0  0
  4  5  1  0  0  0
  4  7  1  0  0  0
  5  6  2  0  0  0
  5 10  1  0  0  0
  6 11  1  0  0  0
  7  8  2  0  0  0
  8  9  1  0  0  0
  8 21  1  0  0  0
  9 10  2  0  0  0
  9 23  1  0  0  0
 11 13  1  0  0  0
 13 14  2  0  0  0
 13 18  1  0  0  0
 14 15  1  0  0  0
 15 16  2  0  0  0
 15 19  1  0  0  0
 16 17  1  0  0  0
 17 18  2  0  0  0
 21 22  1  0  0  0
 23 24  1  0  0  0
 11 12  1  0  0  0
 19 20  1  0  0  0
M  END
> <minimizedAffinity>
-7.84133

$$$$
4BTK_DTQ_A_1337


 24 26  0  0  0  0  0  0  0  0999 V2000
   65.0489   19.1953   25.3789 N   0  0  0  0  0  0  0  0  0  0  0  0
   66.3653   19.3203   25.1996 C   0  0  0  0  0  0  0  0  0  0  0  0
   67.0019   20.2464   24.4831 N   0  0  0  0  0  0  0  0  0  0  0  0
   66.2412   21.1502   23.8690 C   0  0  0  0  0  0  0  0  0  0  0  0
   64.8603   21.1260   24.0059 C   0  0  0  0  0  0  0  0  0  0  0  0
   64.2918   20.1139   24.7670 C   0  0  0  0  0  0  0  0  0  0  0  0
   66.8301   22.1329   23.1008 C   0  0  0  0  0  0  0  0  0  0  0  0
   66.0843   23.1076   22.4707 C   0  0  0  0  0  0  0  0  0  0  0  0
   64.7062   23.0656   22.6080 C   0  0  0  0  0  0  0  0  0  0  0  0
   64.0924   22.0758   23.3599 C   0  0  0  0  0  0  0  0  0  0  0  0
   62.8879   20.0630   24.9121 N   0  0  0  0  0  0  0  0  0  0  0  0
   62.3486   20.6588   24.3434 H   0  0  0  0  0  0  0  0  0  0  0  0
   62.2023   19.2213   25.8118 C   0  0  0  0  0  0  0  0  0  0  0  0
   61.3429   19.8244   26.7007 C   0  0  0  0  0  0  0  0  0  0  0  0
   60.6412   19.0567   27.5997 C   0  0  0  0  0  0  0  0  0  0  0  0
   60.7467   17.6811   27.6407 C   0  0  0  0  0  0  0  0  0  0  0  0
   61.6065   17.0741   26.7437 C   0  0  0  0  0  0  0  0  0  0  0  0
   62.3154   17.8413   25.8393 C   0  0  0  0  0  0  0  0  0  0  0  0
   59.7893   19.7124   28.4402 O   0  0  0  0  0  0  0  0  0  0  0  0
   59.7238   20.6465   28.4058 H   0  0  0  0  0  0  0  0  0  0  0  0
   66.6531   24.1315   21.6865 O   0  0  0  0  0  0  0  0  0  0  0  0
   68.0568   24.3042   21.8528 C   0  0  0  0  0  0  0  0  0  0  0  0
   63.9328   23.9987   21.9263 O   0  0  0  0  0  0  0  0  0  0  0  0
   63.3907   23.3944   20.7430 C   0  0  0  0  0  0  0  0  0  0  0  0
  1  2  2  0  0  0
  1  6  1  0  0  0
  2  3  1  0  0  0
  3  4  2  0  0  0
  4  5  1  0  0  0
  4  7  1  0  0  0
  5  6  2  0  0  0
  5 10  1  0  0  0
  6 11  1  0  0  0
  7  8  2  0  0  0
  8  9  1  0  0  0
  8 21  1  0  0  0
  9 10  2  0  0  0
  9 23  1  0  0  0
 11 13  1  0  0  0
 13 14  2  0  0  0
 13 18  1  0  0  0
 14 15  1  0  0  0
 15 16  2  0  0  0
 15 19  1  0  0  0
 16 17  1  0  0  0
 17 18  2  0  0  0
 21 22  1  0  0  0
 23 24  1  0  0  0
 11 12  1  0  0  0
 19 20  1  0  0  0
M  END
> <minimizedAffinity>
-7.82838

$$$$
4BTK_DTQ_A_1337


 24 26  0  0  0  0  0  0  0  0999 V2000
   66.3115   20.1562   23.7079 N   0  0  0  0  0  0  0  0  0  0  0  0
   66.1696   19.3559   24.7662 C   0  0  0  0  0  0  0  0  0  0  0  0
   65.0835   19.1955   25.5218 N   0  0  0  0  0  0  0  0  0  0  0  0
   64.0160   19.9188   25.1903 C   0  0  0  0  0  0  0  0  0  0  0  0
   64.0474   20.7679   24.0929 C   0  0  0  0  0  0  0  0  0  0  0  0
   65.2307   20.8720   23.3747 C   0  0  0  0  0  0  0  0  0  0  0  0
   62.8590   19.8129   25.9338 C   0  0  0  0  0  0  0  0  0  0  0  0
   61.7196   20.5200   25.6100 C   0  0  0  0  0  0  0  0  0  0  0  0
   61.7681   21.3714   24.5178 C   0  0  0  0  0  0  0  0  0  0  0  0
   62.9262   21.5072   23.7681 C   0  0  0  0  0  0  0  0  0  0  0  0
   65.2894   21.7376   22.2603 N   0  0  0  0  0  0  0  0  0  0  0  0
   64.7555   21.4987   21.4684 H   0  0  0  0  0  0  0  0  0  0  0  0
   66.0568   22.9189   22.1990 C   0  0  0  0  0  0  0  0  0  0  0  0
   65.3699   24.1056   22.0895 C   0  0  0  0  0  0  0  0  0  0  0  0
   66.0617   25.2922   22.0308 C   0  0  0  0  0  0  0  0  0  0  0  0
   67.4391   25.3509   22.0966 C   0  0  0  0  0  0  0  0  0  0  0  0
   68.1298   24.1584   22.2121 C   0  0  0  0  0  0  0  0  0  0  0  0
   67.4393   22.9631   22.2695 C   0  0  0  0  0  0  0  0  0  0  0  0
   65.3220   26.4356   21.9440 O   0  0  0  0  0  0  0  0  0  0  0  0
   64.3874   26.3868   21.8998 H   0  0  0  0  0  0  0  0  0  0  0  0
   60.5180   20.4289   26.3412 O   0  0  0  0  0  0  0  0  0  0  0  0
   60.6198   19.7276   27.5764 C   0  0  0  0  0  0  0  0  0  0  0  0
   60.6516   22.1430   24.2154 O   0  0  0  0  0  0  0  0  0  0  0  0
   60.3858   22.0643   22.8073 C   0  0  0  0  0  0  0  0  0  0  0  0
  1  2  2  0  0  0
  1  6  1  0  0  0
  2  3  1  0  0  0
  3  4  2  0  0  0
  4  5  1  0  0  0
  4  7  1  0  0  0
  5  6  2  0  0  0
  5 10  1  0  0  0
  6 11  1  0  0  0
  7  8  2  0  0  0
  8  9  1  0  0  0
  8 21  1  0  0  0
  9 10  2  0  0  0
  9 23  1  0  0  0
 11 13  1  0  0  0
 13 14  2  0  0  0
 13 18  1  0  0  0
 14 15  1  0  0  0
 15 16  2  0  0  0
 15 19  1  0  0  0
 16 17  1  0  0  0
 17 18  2  0  0  0
 21 22  1  0  0  0
 23 24  1  0  0  0
 11 12  1  0  0  0
 19 20  1  0  0  0
M  END
> <minimizedAffinity>
-7.77716

$$$$
4BTK_DTQ_A_1337


 24 26  0  0  0  0  0  0  0  0999 V2000
   66.3167   21.4822   24.1834 N   0  0  0  0  0  0  0  0  0  0  0  0
   66.6740   20.2374   24.5048 C   0  0  0  0  0  0  0  0  0  0  0  0
   65.8942   19.2670   24.9807 N   0  0  0  0  0  0  0  0  0  0  0  0
   64.6108   19.5712   25.1636 C   0  0  0  0  0  0  0  0  0  0  0  0
   64.1276   20.8315   24.8410 C   0  0  0  0  0  0  0  0  0  0  0  0
   65.0231   21.7768   24.3600 C   0  0  0  0  0  0  0  0  0  0  0  0
   63.7460   18.6199   25.6634 C   0  0  0  0  0  0  0  0  0  0  0  0
   62.4030   18.8804   25.8413 C   0  0  0  0  0  0  0  0  0  0  0  0
   61.9361   20.1459   25.5244 C   0  0  0  0  0  0  0  0  0  0  0  0
   62.7914   21.1226   25.0384 C   0  0  0  0  0  0  0  0  0  0  0  0
   64.5561   23.0693   24.0348 N   0  0  0  0  0  0  0  0  0  0  0  0
   64.1493   23.6022   24.7558 H   0  0  0  0  0  0  0  0  0  0  0  0
   64.6298   23.6523   22.7531 C   0  0  0  0  0  0  0  0  0  0  0  0
   63.6348   23.3279   21.8606 C   0  0  0  0  0  0  0  0  0  0  0  0
   63.6483   23.8685   20.5966 C   0  0  0  0  0  0  0  0  0  0  0  0
   64.6221   24.7531   20.1794 C   0  0  0  0  0  0  0  0  0  0  0  0
   65.6197   25.0837   21.0782 C   0  0  0  0  0  0  0  0  0  0  0  0
   65.6117   24.5416   22.3491 C   0  0  0  0  0  0  0  0  0  0  0  0
   62.6220   23.5241   19.7657 O   0  0  0  0  0  0  0  0  0  0  0  0
   61.9650   22.9228   20.0570 H   0  0  0  0  0  0  0  0  0  0  0  0
   61.4896   17.9298   26.3403 O   0  0  0  0  0  0  0  0  0  0  0  0
   61.8939   16.5729   26.1886 C   0  0  0  0  0  0  0  0  0  0  0  0
   60.5995   20.4489   25.7596 O   0  0  0  0  0  0  0  0  0  0  0  0
   60.4801   21.8359   26.1081 C   0  0  0  0  0  0  0  0  0  0  0  0
  1  2  2  0  0  0
  1  6  1  0  0  0
  2  3  1  0  0  0
  3  4  2  0  0  0
  4  5  1  0  0  0
  4  7  1  0  0  0
  5  6  2  0  0  0
  5 10  1  0  0  0
  6 11  1  0  0  0
  7  8  2  0  0  0
  8  9  1  0  0  0
  8 21  1  0  0  0
  9 10  2  0  0  0
  9 23  1  0  0  0
 11 13  1  0  0  0
 13 14  2  0  0  0
 13 18  1  0  0  0
 14 15  1  0  0  0
 15 16  2  0  0  0
 15 19  1  0  0  0
 16 17  1  0  0  0
 17 18  2  0  0  0
 21 22  1  0  0  0
 23 24  1  0  0  0
 11 12  1  0  0  0
 19 20  1  0  0  0
M  END
> <minimizedAffinity>
-7.68460

$$$$
4BTK_DTQ_A_1337


 24 26  0  0  0  0  0  0  0  0999 V2000
   62.4826   23.8408   22.7518 N   0  0  0  0  0  0  0  0  0  0  0  0
   61.2864   23.9286   23.3365 C   0  0  0  0  0  0  0  0  0  0  0  0
   60.7495   23.0833   24.2160 N   0  0  0  0  0  0  0  0  0  0  0  0
   61.4852   22.0247   24.5490 C   0  0  0  0  0  0  0  0  0  0  0  0
   62.7544   21.8470   24.0163 C   0  0  0  0  0  0  0  0  0  0  0  0
   63.2203   22.7796   23.0998 C   0  0  0  0  0  0  0  0  0  0  0  0
   60.9899   21.1011   25.4458 C   0  0  0  0  0  0  0  0  0  0  0  0
   61.7279   20.0053   25.8429 C   0  0  0  0  0  0  0  0  0  0  0  0
   62.9895   19.8350   25.2957 C   0  0  0  0  0  0  0  0  0  0  0  0
   63.4992   20.7409   24.3785 C   0  0  0  0  0  0  0  0  0  0  0  0
   64.5048   22.6138   22.5367 N   0  0  0  0  0  0  0  0  0  0  0  0
   64.9546   21.7487   22.6730 H   0  0  0  0  0  0  0  0  0  0  0  0
   65.1901   23.5967   21.7934 C   0  0  0  0  0  0  0  0  0  0  0  0
   65.3680   23.3545   20.4512 C   0  0  0  0  0  0  0  0  0  0  0  0
   66.0239   24.2777   19.6717 C   0  0  0  0  0  0  0  0  0  0  0  0
   66.5052   25.4676   20.1791 C   0  0  0  0  0  0  0  0  0  0  0  0
   66.3219   25.7139   21.5275 C   0  0  0  0  0  0  0  0  0  0  0  0
   65.6650   24.7884   22.3155 C   0  0  0  0  0  0  0  0  0  0  0  0
   66.1493   23.9885   18.3440 O   0  0  0  0  0  0  0  0  0  0  0  0
   65.8197   23.1784   18.0078 H   0  0  0  0  0  0  0  0  0  0  0  0
   61.2573   19.0475   26.7638 O   0  0  0  0  0  0  0  0  0  0  0  0
   60.4628   19.5735   27.8220 C   0  0  0  0  0  0  0  0  0  0  0  0
   63.7219   18.7018   25.6317 O   0  0  0  0  0  0  0  0  0  0  0  0
   65.0806   19.0762   25.9025 C   0  0  0  0  0  0  0  0  0  0  0  0
  1  2  2  0  0  0
  1  6  1  0  0  0
  2  3  1  0  0  0
  3  4  2  0  0  0
  4  5  1  0  0  0
  4  7  1  0  0  0
  5  6  2  0  0  0
  5 10  1  0  0  0
  6 11  1  0  0  0
  7  8  2  0  0  0
  8  9  1  0  0  0
  8 21  1  0  0  0
  9 10  2  0  0  0
  9 23  1  0  0  0
 11 13  1  0  0  0
 13 14  2  0  0  0
 13 18  1  0  0  0
 14 15  1  0  0  0
 15 16  2  0  0  0
 15 19  1  0  0  0
 16 17  1  0  0  0
 17 18  2  0  0  0
 21 22  1  0  0  0
 23 24  1  0  0  0
 11 12  1  0  0  0
 19 20  1  0  0  0
M  END
> <minimizedAffinity>
-7.63013

$$$$
4BTK_DTQ_A_1337


 24 26  0  0  0  0  0  0  0  0999 V2000
   61.5182   20.2149   25.9441 N   0  0  0  0  0  0  0  0  0  0  0  0
   60.6368   20.5845   26.8753 C   0  0  0  0  0  0  0  0  0  0  0  0
   59.9666   21.7343   26.9467 N   0  0  0  0  0  0  0  0  0  0  0  0
   60.2043   22.6222   25.9834 C   0  0  0  0  0  0  0  0  0  0  0  0
   61.0872   22.3314   24.9528 C   0  0  0  0  0  0  0  0  0  0  0  0
   61.7436   21.1085   24.9735 C   0  0  0  0  0  0  0  0  0  0  0  0
   59.5548   23.8390   25.9979 C   0  0  0  0  0  0  0  0  0  0  0  0
   59.7470   24.7774   25.0052 C   0  0  0  0  0  0  0  0  0  0  0  0
   60.6386   24.4779   23.9877 C   0  0  0  0  0  0  0  0  0  0  0  0
   61.3161   23.2687   23.9637 C   0  0  0  0  0  0  0  0  0  0  0  0
   62.6544   20.7949   23.9407 N   0  0  0  0  0  0  0  0  0  0  0  0
   62.2874   20.4248   23.1056 H   0  0  0  0  0  0  0  0  0  0  0  0
   64.0510   20.9733   24.0183 C   0  0  0  0  0  0  0  0  0  0  0  0
   64.7853   19.9359   24.5442 C   0  0  0  0  0  0  0  0  0  0  0  0
   66.1521   20.0473   24.6413 C   0  0  0  0  0  0  0  0  0  0  0  0
   66.8370   21.1654   24.2103 C   0  0  0  0  0  0  0  0  0  0  0  0
   66.0995   22.2064   23.6766 C   0  0  0  0  0  0  0  0  0  0  0  0
   64.7254   22.1001   23.5786 C   0  0  0  0  0  0  0  0  0  0  0  0
   66.8252   18.9756   25.1519 O   0  0  0  0  0  0  0  0  0  0  0  0
   66.3525   18.2205   25.4423 H   0  0  0  0  0  0  0  0  0  0  0  0
   59.0934   26.0261   24.9833 O   0  0  0  0  0  0  0  0  0  0  0  0
   57.7487   25.9905   24.5161 C   0  0  0  0  0  0  0  0  0  0  0  0
   60.8966   25.4369   23.0145 O   0  0  0  0  0  0  0  0  0  0  0  0
   62.3149   25.5677   22.8392 C   0  0  0  0  0  0  0  0  0  0  0  0
  1  2  2  0  0  0
  1  6  1  0  0  0
  2  3  1  0  0  0
  3  4  2  0  0  0
  4  5  1  0  0  0
  4  7  1  0  0  0
  5  6  2  0  0  0
  5 10  1  0  0  0
  6 11  1  0  0  0
  7  8  2  0  0  0
  8  9  1  0  0  0
  8 21  1  0  0  0
  9 10  2  0  0  0
  9 23  1  0  0  0
 11 13  1  0  0  0
 13 14  2  0  0  0
 13 18  1  0  0  0
 14 15  1  0  0  0
 15 16  2  0  0  0
 15 19  1  0  0  0
 16 17  1  0  0  0
 17 18  2  0  0  0
 21 22  1  0  0  0
 23 24  1  0  0  0
 11 12  1  0  0  0
 19 20  1  0  0  0
M  END
> <minimizedAffinity>
-7.38689

$$$$
4BTK_DTQ_A_1337


 24 26  0  0  0  0  0  0  0  0999 V2000
   64.8892   20.4334   23.8326 N   0  0  0  0  0  0  0  0  0  0  0  0
   66.2116   20.2623   23.7820 C   0  0  0  0  0  0  0  0  0  0  0  0
   67.1282   21.1408   23.3768 N   0  0  0  0  0  0  0  0  0  0  0  0
   66.6774   22.3255   22.9693 C   0  0  0  0  0  0  0  0  0  0  0  0
   65.3210   22.6175   23.0009 C   0  0  0  0  0  0  0  0  0  0  0  0
   64.4449   21.6305   23.4313 C   0  0  0  0  0  0  0  0  0  0  0  0
   67.5675   23.2815   22.5257 C   0  0  0  0  0  0  0  0  0  0  0  0
   67.1492   24.5326   22.1223 C   0  0  0  0  0  0  0  0  0  0  0  0
   65.7913   24.8071   22.1498 C   0  0  0  0  0  0  0  0  0  0  0  0
   64.8778   23.8547   22.5741 C   0  0  0  0  0  0  0  0  0  0  0  0
   63.0592   21.9014   23.4622 N   0  0  0  0  0  0  0  0  0  0  0  0
   62.6606   22.3315   22.6714 H   0  0  0  0  0  0  0  0  0  0  0  0
   62.2048   21.6008   24.5429 C   0  0  0  0  0  0  0  0  0  0  0  0
   61.2990   22.5681   24.9114 C   0  0  0  0  0  0  0  0  0  0  0  0
   60.4349   22.3326   25.9544 C   0  0  0  0  0  0  0  0  0  0  0  0
   60.4211   21.1409   26.6506 C   0  0  0  0  0  0  0  0  0  0  0  0
   61.3280   20.1661   26.2769 C   0  0  0  0  0  0  0  0  0  0  0  0
   62.1998   20.3987   25.2305 C   0  0  0  0  0  0  0  0  0  0  0  0
   59.5465   23.3231   26.2572 O   0  0  0  0  0  0  0  0  0  0  0  0
   59.5627   24.1291   25.7796 H   0  0  0  0  0  0  0  0  0  0  0  0
   68.0312   25.5360   21.6728 O   0  0  0  0  0  0  0  0  0  0  0  0
   69.2814   25.0602   21.1844 C   0  0  0  0  0  0  0  0  0  0  0  0
   65.3437   26.0385   21.6841 O   0  0  0  0  0  0  0  0  0  0  0  0
   64.4829   25.8356   20.5539 C   0  0  0  0  0  0  0  0  0  0  0  0
  1  2  2  0  0  0
  1  6  1  0  0  0
  2  3  1  0  0  0
  3  4  2  0  0  0
  4  5  1  0  0  0
  4  7  1  0  0  0
  5  6  2  0  0  0
  5 10  1  0  0  0
  6 11  1  0  0  0
  7  8  2  0  0  0
  8  9  1  0  0  0
  8 21  1  0  0  0
  9 10  2  0  0  0
  9 23  1  0  0  0
 11 13  1  0  0  0
 13 14  2  0  0  0
 13 18  1  0  0  0
 14 15  1  0  0  0
 15 16  2  0  0  0
 15 19  1  0  0  0
 16 17  1  0  0  0
 17 18  2  0  0  0
 21 22  1  0  0  0
 23 24  1  0  0  0
 11 12  1  0  0  0
 19 20  1  0  0  0
M  END
> <minimizedAffinity>
-7.30826

$$$$
4BTK_DTQ_A_1337


 24 26  0  0  0  0  0  0  0  0999 V2000
   60.8877   21.2023   24.5936 N   0  0  0  0  0  0  0  0  0  0  0  0
   60.3924   22.0851   23.7241 C   0  0  0  0  0  0  0  0  0  0  0  0
   61.0718   22.8578   22.8771 N   0  0  0  0  0  0  0  0  0  0  0  0
   62.3982   22.7437   22.9009 C   0  0  0  0  0  0  0  0  0  0  0  0
   63.0171   21.8392   23.7523 C   0  0  0  0  0  0  0  0  0  0  0  0
   62.2210   21.0858   24.6040 C   0  0  0  0  0  0  0  0  0  0  0  0
   63.1677   23.5198   22.0594 C   0  0  0  0  0  0  0  0  0  0  0  0
   64.5428   23.4144   22.0281 C   0  0  0  0  0  0  0  0  0  0  0  0
   65.1481   22.5144   22.8904 C   0  0  0  0  0  0  0  0  0  0  0  0
   64.3951   21.7381   23.7576 C   0  0  0  0  0  0  0  0  0  0  0  0
   62.8294   20.1663   25.4865 N   0  0  0  0  0  0  0  0  0  0  0  0
   63.8010   20.2424   25.6261 H   0  0  0  0  0  0  0  0  0  0  0  0
   62.1471   19.1473   26.1823 C   0  0  0  0  0  0  0  0  0  0  0  0
   62.5056   17.8497   25.9003 C   0  0  0  0  0  0  0  0  0  0  0  0
   61.8805   16.8119   26.5500 C   0  0  0  0  0  0  0  0  0  0  0  0
   60.9040   17.0157   27.5040 C   0  0  0  0  0  0  0  0  0  0  0  0
   60.5471   18.3203   27.7917 C   0  0  0  0  0  0  0  0  0  0  0  0
   61.1710   19.3668   27.1401 C   0  0  0  0  0  0  0  0  0  0  0  0
   62.2960   15.5492   26.2415 O   0  0  0  0  0  0  0  0  0  0  0  0
   62.9594   15.4197   25.5926 H   0  0  0  0  0  0  0  0  0  0  0  0
   65.3590   24.1842   21.1748 O   0  0  0  0  0  0  0  0  0  0  0  0
   65.3652   23.7661   19.8136 C   0  0  0  0  0  0  0  0  0  0  0  0
   66.5364   22.4414   22.9217 O   0  0  0  0  0  0  0  0  0  0  0  0
   66.9360   21.3126   23.7126 C   0  0  0  0  0  0  0  0  0  0  0  0
  1  2  2  0  0  0
  1  6  1  0  0  0
  2  3  1  0  0  0
  3  4  2  0  0  0
  4  5  1  0  0  0
  4  7  1  0  0  0
  5  6  2  0  0  0
  5 10  1  0  0  0
  6 11  1  0  0  0
  7  8  2  0  0  0
  8  9  1  0  0  0
  8 21  1  0  0  0
  9 10  2  0  0  0
  9 23  1  0  0  0
 11 13  1  0  0  0
 13 14  2  0  0  0
 13 18  1  0  0  0
 14 15  1  0  0  0
 15 16  2  0  0  0
 15 19  1  0  0  0
 16 17  1  0  0  0
 17 18  2  0  0  0
 21 22  1  0  0  0
 23 24  1  0  0  0
 11 12  1  0  0  0
 19 20  1  0  0  0
M  END
> <minimizedAffinity>
-7.26601

$$$$
4BTK_DTQ_A_1337


 24 26  0  0  0  0  0  0  0  0999 V2000
   67.2015   20.9360   23.6243 N   0  0  0  0  0  0  0  0  0  0  0  0
   66.4683   20.3938   24.5986 C   0  0  0  0  0  0  0  0  0  0  0  0
   65.1622   20.5495   24.8132 N   0  0  0  0  0  0  0  0  0  0  0  0
   64.5099   21.3405   23.9637 C   0  0  0  0  0  0  0  0  0  0  0  0
   65.1718   21.9383   22.9004 C   0  0  0  0  0  0  0  0  0  0  0  0
   66.5365   21.7213   22.7684 C   0  0  0  0  0  0  0  0  0  0  0  0
   63.1578   21.5569   24.1299 C   0  0  0  0  0  0  0  0  0  0  0  0
   62.4352   22.3443   23.2576 C   0  0  0  0  0  0  0  0  0  0  0  0
   63.1105   22.9429   22.2062 C   0  0  0  0  0  0  0  0  0  0  0  0
   64.4727   22.7539   22.0314 C   0  0  0  0  0  0  0  0  0  0  0  0
   67.2330   22.3277   21.7000 N   0  0  0  0  0  0  0  0  0  0  0  0
   67.3568   21.8000   20.8781 H   0  0  0  0  0  0  0  0  0  0  0  0
   67.7642   23.6336   21.7243 C   0  0  0  0  0  0  0  0  0  0  0  0
   68.8568   23.8491   22.5318 C   0  0  0  0  0  0  0  0  0  0  0  0
   69.4236   25.1000   22.5943 C   0  0  0  0  0  0  0  0  0  0  0  0
   68.9499   26.1659   21.8563 C   0  0  0  0  0  0  0  0  0  0  0  0
   67.8548   25.9483   21.0403 C   0  0  0  0  0  0  0  0  0  0  0  0
   67.2804   24.6934   20.9755 C   0  0  0  0  0  0  0  0  0  0  0  0
   70.5177   25.2438   23.3970 O   0  0  0  0  0  0  0  0  0  0  0  0
   70.8327   24.5150   23.8947 H   0  0  0  0  0  0  0  0  0  0  0  0
   61.0518   22.5792   23.3916 O   0  0  0  0  0  0  0  0  0  0  0  0
   60.5618   22.5281   24.7277 C   0  0  0  0  0  0  0  0  0  0  0  0
   62.4135   23.7937   21.3554 O   0  0  0  0  0  0  0  0  0  0  0  0
   63.3361   24.6865   20.7143 C   0  0  0  0  0  0  0  0  0  0  0  0
  1  2  2  0  0  0
  1  6  1  0  0  0
  2  3  1  0  0  0
  3  4  2  0  0  0
  4  5  1  0  0  0
  4  7  1  0  0  0
  5  6  2  0  0  0
  5 10  1  0  0  0
  6 11  1  0  0  0
  7  8  2  0  0  0
  8  9  1  0  0  0
  8 21  1  0  0  0
  9 10  2  0  0  0
  9 23  1  0  0  0
 11 13  1  0  0  0
 13 14  2  0  0  0
 13 18  1  0  0  0
 14 15  1  0  0  0
 15 16  2  0  0  0
 15 19  1  0  0  0
 16 17  1  0  0  0
 17 18  2  0  0  0
 21 22  1  0  0  0
 23 24  1  0  0  0
 11 12  1  0  0  0
 19 20  1  0  0  0
M  END
> <minimizedAffinity>
-7.22569

$$$$
