4BTK_DTQ_A_1337
  RCSB PDB12061711543D
Coordinates from PDB:4BTK:A:1337 Model:1 without hydrogens
 22 24  0  0  0  0            999 V2000
   64.9060   19.2270   25.5250   N 0  0  0  0  0  0  0  0  0  0  0  0
   66.2050   19.1560   25.2280   C 0  0  0  0  0  0  0  0  0  0  0  0
   66.9080   19.9880   24.4600   N 0  0  0  0  0  0  0  0  0  0  0  0
   66.2410   21.0060   23.9200   C 0  0  0  0  0  0  0  0  0  0  0  0
   64.8900   21.1870   24.1810   C 0  0  0  0  0  0  0  0  0  0  0  0
   64.2450   20.2590   24.9870   C 0  0  0  0  0  0  0  0  0  0  0  0
   66.9010   21.9020   23.1050   C 0  0  0  0  0  0  0  0  0  0  0  0
   66.2580   22.9880   22.5480   C 0  0  0  0  0  0  0  0  0  0  0  0
   64.9070   23.1510   22.8090   C 0  0  0  0  0  0  0  0  0  0  0  0
   64.2200   22.2520   23.6100   C 0  0  0  0  0  0  0  0  0  0  0  0
   62.8680   20.4170   25.2580   N 0  0  0  0  0  0  0  0  0  0  0  0
   62.0970   19.5370   26.0450   C 0  0  0  0  0  0  0  0  0  0  0  0
   61.0730   20.0890   26.7790   C 0  0  0  0  0  0  0  0  0  0  0  0
   60.2820   19.2820   27.5620   C 0  0  0  0  0  0  0  0  0  0  0  0
   60.4590   17.9150   27.6330   C 0  0  0  0  0  0  0  0  0  0  0  0
   61.4850   17.3590   26.8910   C 0  0  0  0  0  0  0  0  0  0  0  0
   62.2840   18.1660   26.1040   C 0  0  0  0  0  0  0  0  0  0  0  0
   59.2700   19.8870   28.2490   O 0  0  0  0  0  0  0  0  0  0  0  0
   66.9030   23.9280   21.7190   O 0  0  0  0  0  0  0  0  0  0  0  0
   68.3220   23.8160   21.6770   C 0  0  0  0  0  0  0  0  0  0  0  0
   64.2260   24.2010   22.2030   O 0  0  0  0  0  0  0  0  0  0  0  0
   63.4820   24.9220   23.1960   C 0  0  0  0  0  0  0  0  0  0  0  0
  1  2  2  0  0  0  0
  1  6  1  0  0  0  0
  2  3  1  0  0  0  0
  3  4  2  0  0  0  0
  4  5  1  0  0  0  0
  4  7  1  0  0  0  0
  5  6  2  0  0  0  0
  5 10  1  0  0  0  0
  6 11  1  0  0  0  0
  7  8  2  0  0  0  0
  8  9  1  0  0  0  0
  8 19  1  0  0  0  0
  9 10  2  0  0  0  0
  9 21  1  0  0  0  0
 11 12  1  0  0  0  0
 12 13  2  0  0  0  0
 12 17  1  0  0  0  0
 13 14  1  0  0  0  0
 14 15  2  0  0  0  0
 14 18  1  0  0  0  0
 15 16  1  0  0  0  0
 16 17  2  0  0  0  0
 19 20  1  0  0  0  0
 21 22  1  0  0  0  0
A    1
N1
A    2
C2
A    3
N3
A    4
C4
A    5
C5
A    6
C6
A    7
C7
A    8
C8
A    9
C9
A   10
C10
A   11
N12
A   12
C14
A   13
C15
A   14
C16
A   15
C17
A   16
C18
A   17
C19
A   18
O21
A   19
O26
A   20
C27
A   21
O31
A   22
C32
M  END
>  <InstanceId>
4BTK_DTQ_A_1337

>  <ChemCompId>
DTQ

>  <PdbId>
4BTK

>  <ChainId>
A

>  <ResidueNumber>
1337

>  <InsertionCode>


>  <Model>
1

>  <AltIds>


>  <MissingHeavyAtoms>
0

>  <ObservedFormula>
C16 N3 O3

>  <Name>
4-[3-HYDROXYANILINO]-6,7-DIMETHOXYQUINAZOLINE

>  <SystematicName>
3-[(6,7-dimethoxyquinazolin-4-yl)amino]phenol

>  <Synonyms>


>  <Type>
NON-POLYMER

>  <Formula>
C16 H15 N3 O3

>  <MolecularWeight>
297.309

>  <ModifiedDate>
2011-06-04

>  <Parent>


>  <OneLetterCode>


>  <SubcomponentList>


>  <AmbiguousFlag>
N

>  <InChI>
InChI=1S/C16H15N3O3/c1-21-14-7-12-13(8-15(14)22-2)17-9-18-16(12)19-10-4-3-5-11(20)6-10/h3-9,20H,1-2H3,(H,17,18,19)

>  <InChIKey>
BNDYIYYKEIXHNK-UHFFFAOYSA-N

>  <SMILES>
COc1cc2c(cc1OC)ncnc2Nc3cccc(c3)O

$$$$
