3DCC_D9Z_A_263
  RCSB PDB12061708183D
Coordinates from PDB:3DCC:A:263 Model:1 without hydrogens
 16 17  0  0  0  0            999 V2000
   -7.4220    0.6900   16.6380   O 0  0  0  0  0  0  0  0  0  0  0  0
   -6.0670    0.4700   16.9070   S 0  0  0  0  0  0  0  0  0  0  0  0
   -5.6890    0.5920   18.2890   O 0  0  0  0  0  0  0  0  0  0  0  0
   -5.4780   -0.9040   16.3560   N 0  0  0  0  0  0  0  0  0  0  0  0
   -5.2280    1.6920   16.1710   C 0  0  0  0  0  0  0  0  0  0  0  0
   -5.8660    2.9570   15.2040   S 0  0  0  0  0  0  0  0  0  0  0  0
   -3.8990    1.7000   16.3010   N 0  0  0  0  0  0  0  0  0  0  0  0
   -3.3540    2.7480   15.5640   N 0  0  0  0  0  0  0  0  0  0  0  0
   -4.2460    3.5270   14.9250   C 0  0  0  0  0  0  0  0  0  0  0  0
   -3.8240    4.6320   14.1700   C 0  0  0  0  0  0  0  0  0  0  0  0
   -2.4790    4.9340   14.0500   C 0  0  0  0  0  0  0  0  0  0  0  0
   -4.7470    5.4240   13.5430   C 0  0  0  0  0  0  0  0  0  0  0  0
   -4.4270    6.5050   12.7520   C 0  0  0  0  0  0  0  0  0  0  0  0
   -3.0580    6.8110   12.6290   C 0  0  0  0  0  0  0  0  0  0  0  0
   -2.1000    6.0540   13.2730   C 0  0  0  0  0  0  0  0  0  0  0  0
   -6.4460    5.3330   13.5050  Cl 0  0  0  0  0  0  0  0  0  0  0  0
  1  2  2  0  0  0  0
  2  3  2  0  0  0  0
  2  4  1  0  0  0  0
  2  5  1  0  0  0  0
  5  6  1  0  0  0  0
  5  7  2  0  0  0  0
  6  9  1  0  0  0  0
  7  8  1  0  0  0  0
  8  9  2  0  0  0  0
  9 10  1  0  0  0  0
 10 11  2  0  0  0  0
 10 12  1  0  0  0  0
 11 15  1  0  0  0  0
 12 13  2  0  0  0  0
 12 16  1  0  0  0  0
 13 14  1  0  0  0  0
 14 15  2  0  0  0  0
A    1
O2
A    2
S1
A    3
O1
A    4
N3
A    5
C8
A    6
S2
A    7
N2
A    8
N1
A    9
C7
A   10
C1
A   11
C6
A   12
C2
A   13
C3
A   14
C4
A   15
C5
A   16
CL1
M  END
>  <InstanceId>
3DCC_D9Z_A_263

>  <ChemCompId>
D9Z

>  <PdbId>
3DCC

>  <ChainId>
A

>  <ResidueNumber>
263

>  <InsertionCode>


>  <Model>
1

>  <AltIds>


>  <MissingHeavyAtoms>
0

>  <ObservedFormula>
C8 N3 O2 S2 Cl

>  <Name>
5-(2-chlorophenyl)-1,3,4-thiadiazole-2-sulfonamide

>  <SystematicName>
5-(2-chlorophenyl)-1,3,4-thiadiazole-2-sulfonamide

>  <Synonyms>


>  <Type>
NON-POLYMER

>  <Formula>
C8 H6 Cl N3 O2 S2

>  <MolecularWeight>
275.735

>  <ModifiedDate>
2011-06-04

>  <Parent>


>  <OneLetterCode>


>  <SubcomponentList>


>  <AmbiguousFlag>
N

>  <InChI>
InChI=1S/C8H6ClN3O2S2/c9-6-4-2-1-3-5(6)7-11-12-8(15-7)16(10,13)14/h1-4H,(H2,10,13,14)

>  <InChIKey>
PZVGOWIIHCUHAO-UHFFFAOYSA-N

>  <SMILES>
c1ccc(c(c1)c2nnc(s2)S(=O)(=O)N)Cl

$$$$
