3DCC_D9Z_A_263


 18 19  0  0  0  0  0  0  0  0999 V2000
   -5.0896    1.5402   16.4828 C   0  0  0  0  0  0  0  0  0  0  0  0
   -5.7368    2.8884   15.6426 S   0  0  0  0  0  0  0  0  0  0  0  0
   -3.7607    1.4243   16.4198 N   0  0  0  0  0  0  0  0  0  0  0  0
   -3.2299    2.4424   15.6323 N   0  0  0  0  0  0  0  0  0  0  0  0
   -4.1265    3.3189   15.1438 C   0  0  0  0  0  0  0  0  0  0  0  0
   -3.7141    4.4054   14.3573 C   0  0  0  0  0  0  0  0  0  0  0  0
   -3.7762    5.6975   14.8485 C   0  0  0  0  0  0  0  0  0  0  0  0
   -3.2445    4.1924   13.0899 C   0  0  0  0  0  0  0  0  0  0  0  0
   -2.7837    5.1895   12.2592 C   0  0  0  0  0  0  0  0  0  0  0  0
   -2.8457    6.5041   12.7602 C   0  0  0  0  0  0  0  0  0  0  0  0
   -3.3433    6.7610   14.0219 C   0  0  0  0  0  0  0  0  0  0  0  0
   -3.0580    2.7526   12.2018 Cl  0  0  0  0  0  0  0  0  0  0  0  0
   -5.5561    0.4869   18.6527 O   0  0  0  0  0  0  0  0  0  0  0  0
   -5.9265    0.3755   17.3084 S   0  0  0  0  0  0  0  0  0  0  0  0
   -5.5253   -0.8444   16.6614 O   0  0  0  0  0  0  0  0  0  0  0  0
   -7.4741    0.6052   17.0075 N   0  0  0  0  0  0  0  0  0  0  0  0
   -8.0245   -0.0972   17.5017 H   0  0  0  0  0  0  0  0  0  0  0  0
   -7.6412    0.5242   16.0045 H   0  0  0  0  0  0  0  0  0  0  0  0
 13 14  2  0  0  0
 14 15  2  0  0  0
 14 16  1  0  0  0
 14  1  1  0  0  0
  1  2  1  0  0  0
  1  3  2  0  0  0
  2  5  1  0  0  0
  3  4  1  0  0  0
  4  5  2  0  0  0
  5  6  1  0  0  0
  6  7  2  0  0  0
  6  8  1  0  0  0
  7 11  1  0  0  0
  8  9  2  0  0  0
  8 12  1  0  0  0
  9 10  1  0  0  0
 10 11  2  0  0  0
 16 17  1  0  0  0
 16 18  1  0  0  0
M  END
> <minimizedAffinity>
-7.30618

$$$$
3DCC_D9Z_A_263


 18 19  0  0  0  0  0  0  0  0999 V2000
   -2.9466    3.1438   12.6610 C   0  0  0  0  0  0  0  0  0  0  0  0
   -4.3338    2.1535   12.8543 S   0  0  0  0  0  0  0  0  0  0  0  0
   -2.4411    3.6304   13.7972 N   0  0  0  0  0  0  0  0  0  0  0  0
   -3.2184    3.2229   14.8781 N   0  0  0  0  0  0  0  0  0  0  0  0
   -4.2583    2.4259   14.5710 C   0  0  0  0  0  0  0  0  0  0  0  0
   -5.1018    1.9266   15.5752 C   0  0  0  0  0  0  0  0  0  0  0  0
   -4.9524    0.6340   16.0458 C   0  0  0  0  0  0  0  0  0  0  0  0
   -6.0851    2.7209   16.0992 C   0  0  0  0  0  0  0  0  0  0  0  0
   -6.9349    2.3319   17.1107 C   0  0  0  0  0  0  0  0  0  0  0  0
   -6.7814    1.0169   17.5903 C   0  0  0  0  0  0  0  0  0  0  0  0
   -5.8217    0.1759   17.0637 C   0  0  0  0  0  0  0  0  0  0  0  0
   -6.5314    4.3223   15.7350 Cl  0  0  0  0  0  0  0  0  0  0  0  0
   -3.0009    3.0669   10.2061 O   0  0  0  0  0  0  0  0  0  0  0  0
   -2.2137    3.5796   11.2426 S   0  0  0  0  0  0  0  0  0  0  0  0
   -0.9004    3.0051   11.3562 O   0  0  0  0  0  0  0  0  0  0  0  0
   -2.0596    5.1652   11.2600 N   0  0  0  0  0  0  0  0  0  0  0  0
   -1.6097    5.4725   10.3977 H   0  0  0  0  0  0  0  0  0  0  0  0
   -1.4890    5.4426   12.0587 H   0  0  0  0  0  0  0  0  0  0  0  0
 13 14  2  0  0  0
 14 15  2  0  0  0
 14 16  1  0  0  0
 14  1  1  0  0  0
  1  2  1  0  0  0
  1  3  2  0  0  0
  2  5  1  0  0  0
  3  4  1  0  0  0
  4  5  2  0  0  0
  5  6  1  0  0  0
  6  7  2  0  0  0
  6  8  1  0  0  0
  7 11  1  0  0  0
  8  9  2  0  0  0
  8 12  1  0  0  0
  9 10  1  0  0  0
 10 11  2  0  0  0
 16 17  1  0  0  0
 16 18  1  0  0  0
M  END
> <minimizedAffinity>
-7.23963

$$$$
3DCC_D9Z_A_263


 18 19  0  0  0  0  0  0  0  0999 V2000
   -4.9503    2.3491   15.0928 C   0  0  0  0  0  0  0  0  0  0  0  0
   -5.2210    4.0203   15.3687 S   0  0  0  0  0  0  0  0  0  0  0  0
   -5.1574    1.9464   13.8366 N   0  0  0  0  0  0  0  0  0  0  0  0
   -5.5883    3.0168   13.0575 N   0  0  0  0  0  0  0  0  0  0  0  0
   -5.6714    4.1976   13.6976 C   0  0  0  0  0  0  0  0  0  0  0  0
   -6.0682    5.3581   13.0156 C   0  0  0  0  0  0  0  0  0  0  0  0
   -7.3260    5.8994   13.2141 C   0  0  0  0  0  0  0  0  0  0  0  0
   -5.2071    5.9663   12.1433 C   0  0  0  0  0  0  0  0  0  0  0  0
   -5.4931    7.1264   11.4584 C   0  0  0  0  0  0  0  0  0  0  0  0
   -6.7728    7.6777   11.6619 C   0  0  0  0  0  0  0  0  0  0  0  0
   -7.6799    7.0743   12.5097 C   0  0  0  0  0  0  0  0  0  0  0  0
   -3.6244    5.5522   11.6745 Cl  0  0  0  0  0  0  0  0  0  0  0  0
   -5.2337    1.4755   17.3715 O   0  0  0  0  0  0  0  0  0  0  0  0
   -4.5091    1.2063   16.2056 S   0  0  0  0  0  0  0  0  0  0  0  0
   -3.0859    1.3800   16.3149 O   0  0  0  0  0  0  0  0  0  0  0  0
   -4.7810   -0.2198   15.5493 N   0  0  0  0  0  0  0  0  0  0  0  0
   -4.5199   -0.9529   16.2086 H   0  0  0  0  0  0  0  0  0  0  0  0
   -4.2259   -0.3140   14.6987 H   0  0  0  0  0  0  0  0  0  0  0  0
 13 14  2  0  0  0
 14 15  2  0  0  0
 14 16  1  0  0  0
 14  1  1  0  0  0
  1  2  1  0  0  0
  1  3  2  0  0  0
  2  5  1  0  0  0
  3  4  1  0  0  0
  4  5  2  0  0  0
  5  6  1  0  0  0
  6  7  2  0  0  0
  6  8  1  0  0  0
  7 11  1  0  0  0
  8  9  2  0  0  0
  8 12  1  0  0  0
  9 10  1  0  0  0
 10 11  2  0  0  0
 16 17  1  0  0  0
 16 18  1  0  0  0
M  END
> <minimizedAffinity>
-6.96108

$$$$
3DCC_D9Z_A_263


 18 19  0  0  0  0  0  0  0  0999 V2000
   -5.2420    1.4968   16.5293 C   0  0  0  0  0  0  0  0  0  0  0  0
   -5.8518    2.6891   15.4574 S   0  0  0  0  0  0  0  0  0  0  0  0
   -3.9129    1.3673   16.5280 N   0  0  0  0  0  0  0  0  0  0  0  0
   -3.3497    2.2386   15.5995 N   0  0  0  0  0  0  0  0  0  0  0  0
   -4.2235    3.0251   14.9447 C   0  0  0  0  0  0  0  0  0  0  0  0
   -3.7781    3.9645   14.0022 C   0  0  0  0  0  0  0  0  0  0  0  0
   -3.1861    3.5544   12.8207 C   0  0  0  0  0  0  0  0  0  0  0  0
   -3.9275    5.3024   14.2475 C   0  0  0  0  0  0  0  0  0  0  0  0
   -3.5560    6.2950   13.3681 C   0  0  0  0  0  0  0  0  0  0  0  0
   -2.9549    5.8770   12.1652 C   0  0  0  0  0  0  0  0  0  0  0  0
   -2.7585    4.5372   11.8971 C   0  0  0  0  0  0  0  0  0  0  0  0
   -4.5902    6.1192   15.5854 Cl  0  0  0  0  0  0  0  0  0  0  0  0
   -5.7778    0.8153   18.8280 O   0  0  0  0  0  0  0  0  0  0  0  0
   -6.1136    0.4882   17.5101 S   0  0  0  0  0  0  0  0  0  0  0  0
   -5.7091   -0.8236   17.0822 O   0  0  0  0  0  0  0  0  0  0  0  0
   -7.6500    0.6761   17.1325 N   0  0  0  0  0  0  0  0  0  0  0  0
   -8.2211    0.0677   17.7190 H   0  0  0  0  0  0  0  0  0  0  0  0
   -7.7913    0.4335   16.1519 H   0  0  0  0  0  0  0  0  0  0  0  0
 13 14  2  0  0  0
 14 15  2  0  0  0
 14 16  1  0  0  0
 14  1  1  0  0  0
  1  2  1  0  0  0
  1  3  2  0  0  0
  2  5  1  0  0  0
  3  4  1  0  0  0
  4  5  2  0  0  0
  5  6  1  0  0  0
  6  7  2  0  0  0
  6  8  1  0  0  0
  7 11  1  0  0  0
  8  9  2  0  0  0
  8 12  1  0  0  0
  9 10  1  0  0  0
 10 11  2  0  0  0
 16 17  1  0  0  0
 16 18  1  0  0  0
M  END
> <minimizedAffinity>
-6.96064

$$$$
3DCC_D9Z_A_263


 18 19  0  0  0  0  0  0  0  0999 V2000
   -3.7904    3.2527   12.4193 C   0  0  0  0  0  0  0  0  0  0  0  0
   -5.3004    2.5629   12.8509 S   0  0  0  0  0  0  0  0  0  0  0  0
   -2.9366    3.4148   13.4332 N   0  0  0  0  0  0  0  0  0  0  0  0
   -3.5265    3.0005   14.6244 N   0  0  0  0  0  0  0  0  0  0  0  0
   -4.7740    2.5096   14.5084 C   0  0  0  0  0  0  0  0  0  0  0  0
   -5.4666    2.0345   15.6326 C   0  0  0  0  0  0  0  0  0  0  0  0
   -6.3192    2.8635   16.3400 C   0  0  0  0  0  0  0  0  0  0  0  0
   -5.3017    0.7386   16.0396 C   0  0  0  0  0  0  0  0  0  0  0  0
   -5.9655    0.1736   17.1059 C   0  0  0  0  0  0  0  0  0  0  0  0
   -6.8342    1.0173   17.8245 C   0  0  0  0  0  0  0  0  0  0  0  0
   -7.0014    2.3390   17.4630 C   0  0  0  0  0  0  0  0  0  0  0  0
   -4.3337   -0.5099   15.4067 Cl  0  0  0  0  0  0  0  0  0  0  0  0
   -2.0681    3.1723   10.6692 O   0  0  0  0  0  0  0  0  0  0  0  0
   -3.3114    3.7625   10.9195 S   0  0  0  0  0  0  0  0  0  0  0  0
   -3.2957    5.1950   11.0440 O   0  0  0  0  0  0  0  0  0  0  0  0
   -4.4689    3.3708    9.8971 N   0  0  0  0  0  0  0  0  0  0  0  0
   -4.2084    3.6705    8.9575 H   0  0  0  0  0  0  0  0  0  0  0  0
   -5.3362    3.8316   10.1727 H   0  0  0  0  0  0  0  0  0  0  0  0
 13 14  2  0  0  0
 14 15  2  0  0  0
 14 16  1  0  0  0
 14  1  1  0  0  0
  1  2  1  0  0  0
  1  3  2  0  0  0
  2  5  1  0  0  0
  3  4  1  0  0  0
  4  5  2  0  0  0
  5  6  1  0  0  0
  6  7  2  0  0  0
  6  8  1  0  0  0
  7 11  1  0  0  0
  8  9  2  0  0  0
  8 12  1  0  0  0
  9 10  1  0  0  0
 10 11  2  0  0  0
 16 17  1  0  0  0
 16 18  1  0  0  0
M  END
> <minimizedAffinity>
-6.94045

$$$$
3DCC_D9Z_A_263


 18 19  0  0  0  0  0  0  0  0999 V2000
   -3.6203    3.5575   11.0687 C   0  0  0  0  0  0  0  0  0  0  0  0
   -3.1238    3.5317   12.7104 S   0  0  0  0  0  0  0  0  0  0  0  0
   -4.7605    2.9097   10.8165 N   0  0  0  0  0  0  0  0  0  0  0  0
   -5.2491    2.3316   11.9851 N   0  0  0  0  0  0  0  0  0  0  0  0
   -4.5187    2.5640   13.0911 C   0  0  0  0  0  0  0  0  0  0  0  0
   -4.9202    2.0578   14.3367 C   0  0  0  0  0  0  0  0  0  0  0  0
   -4.4745    0.8233   14.7750 C   0  0  0  0  0  0  0  0  0  0  0  0
   -5.7615    2.7873   15.1319 C   0  0  0  0  0  0  0  0  0  0  0  0
   -6.1793    2.3906   16.3828 C   0  0  0  0  0  0  0  0  0  0  0  0
   -5.7242    1.1348   16.8290 C   0  0  0  0  0  0  0  0  0  0  0  0
   -4.9004    0.3565   16.0409 C   0  0  0  0  0  0  0  0  0  0  0  0
   -6.4862    4.3068   14.8826 Cl  0  0  0  0  0  0  0  0  0  0  0  0
   -3.7474    4.3257    8.7386 O   0  0  0  0  0  0  0  0  0  0  0  0
   -2.8292    4.2510    9.7912 S   0  0  0  0  0  0  0  0  0  0  0  0
   -1.7151    3.3689    9.5710 O   0  0  0  0  0  0  0  0  0  0  0  0
   -2.2563    5.6496   10.2952 N   0  0  0  0  0  0  0  0  0  0  0  0
   -1.7599    6.1088    9.5316 H   0  0  0  0  0  0  0  0  0  0  0  0
   -1.6149    5.4940   11.0729 H   0  0  0  0  0  0  0  0  0  0  0  0
 13 14  2  0  0  0
 14 15  2  0  0  0
 14 16  1  0  0  0
 14  1  1  0  0  0
  1  2  1  0  0  0
  1  3  2  0  0  0
  2  5  1  0  0  0
  3  4  1  0  0  0
  4  5  2  0  0  0
  5  6  1  0  0  0
  6  7  2  0  0  0
  6  8  1  0  0  0
  7 11  1  0  0  0
  8  9  2  0  0  0
  8 12  1  0  0  0
  9 10  1  0  0  0
 10 11  2  0  0  0
 16 17  1  0  0  0
 16 18  1  0  0  0
M  END
> <minimizedAffinity>
-6.49621

$$$$
3DCC_D9Z_A_263


 18 19  0  0  0  0  0  0  0  0999 V2000
   -5.1180    5.3172   13.4583 C   0  0  0  0  0  0  0  0  0  0  0  0
   -4.3084    4.5041   14.7333 S   0  0  0  0  0  0  0  0  0  0  0  0
   -6.3533    4.8772   13.2063 N   0  0  0  0  0  0  0  0  0  0  0  0
   -6.6616    3.8127   14.0491 N   0  0  0  0  0  0  0  0  0  0  0  0
   -5.7019    3.4815   14.9324 C   0  0  0  0  0  0  0  0  0  0  0  0
   -5.9015    2.4425   15.8542 C   0  0  0  0  0  0  0  0  0  0  0  0
   -6.6636    2.6433   16.9915 C   0  0  0  0  0  0  0  0  0  0  0  0
   -5.3393    1.2148   15.6326 C   0  0  0  0  0  0  0  0  0  0  0  0
   -5.5097    0.1268   16.4596 C   0  0  0  0  0  0  0  0  0  0  0  0
   -6.2866    0.3313   17.6161 C   0  0  0  0  0  0  0  0  0  0  0  0
   -6.8431    1.5647   17.8894 C   0  0  0  0  0  0  0  0  0  0  0  0
   -4.3549    0.6570   14.3614 Cl  0  0  0  0  0  0  0  0  0  0  0  0
   -3.6401    7.2733   13.2985 O   0  0  0  0  0  0  0  0  0  0  0  0
   -4.5238    6.5333   12.5059 S   0  0  0  0  0  0  0  0  0  0  0  0
   -5.7064    7.2360   12.0869 O   0  0  0  0  0  0  0  0  0  0  0  0
   -3.8765    5.8508   11.2200 N   0  0  0  0  0  0  0  0  0  0  0  0
   -3.4978    6.5723   10.6064 H   0  0  0  0  0  0  0  0  0  0  0  0
   -4.5905    5.3203   10.7208 H   0  0  0  0  0  0  0  0  0  0  0  0
 13 14  2  0  0  0
 14 15  2  0  0  0
 14 16  1  0  0  0
 14  1  1  0  0  0
  1  2  1  0  0  0
  1  3  2  0  0  0
  2  5  1  0  0  0
  3  4  1  0  0  0
  4  5  2  0  0  0
  5  6  1  0  0  0
  6  7  2  0  0  0
  6  8  1  0  0  0
  7 11  1  0  0  0
  8  9  2  0  0  0
  8 12  1  0  0  0
  9 10  1  0  0  0
 10 11  2  0  0  0
 16 17  1  0  0  0
 16 18  1  0  0  0
M  END
> <minimizedAffinity>
-6.26173

$$$$
3DCC_D9Z_A_263


 18 19  0  0  0  0  0  0  0  0999 V2000
   -3.7628    3.4095   15.1276 C   0  0  0  0  0  0  0  0  0  0  0  0
   -4.5111    4.9173   14.7977 S   0  0  0  0  0  0  0  0  0  0  0  0
   -2.4276    3.4331   15.1273 N   0  0  0  0  0  0  0  0  0  0  0  0
   -1.9733    4.7113   14.8139 N   0  0  0  0  0  0  0  0  0  0  0  0
   -2.9350    5.6317   14.6169 C   0  0  0  0  0  0  0  0  0  0  0  0
   -2.6055    6.9631   14.3207 C   0  0  0  0  0  0  0  0  0  0  0  0
   -2.1257    7.8085   15.3055 C   0  0  0  0  0  0  0  0  0  0  0  0
   -2.7578    7.4376   13.0463 C   0  0  0  0  0  0  0  0  0  0  0  0
   -2.4267    8.7153   12.6533 C   0  0  0  0  0  0  0  0  0  0  0  0
   -1.9371    9.5747   13.6556 C   0  0  0  0  0  0  0  0  0  0  0  0
   -1.8002    9.1410   14.9589 C   0  0  0  0  0  0  0  0  0  0  0  0
   -3.3262    6.6722   11.6366 Cl  0  0  0  0  0  0  0  0  0  0  0  0
   -4.8513    1.4378   14.1461 O   0  0  0  0  0  0  0  0  0  0  0  0
   -4.5078    1.9569   15.3989 S   0  0  0  0  0  0  0  0  0  0  0  0
   -5.6185    2.3049   16.2433 O   0  0  0  0  0  0  0  0  0  0  0  0
   -3.5021    1.0641   16.2531 N   0  0  0  0  0  0  0  0  0  0  0  0
   -3.9284    0.1567   16.4409 H   0  0  0  0  0  0  0  0  0  0  0  0
   -3.2971    1.5326   17.1357 H   0  0  0  0  0  0  0  0  0  0  0  0
 13 14  2  0  0  0
 14 15  2  0  0  0
 14 16  1  0  0  0
 14  1  1  0  0  0
  1  2  1  0  0  0
  1  3  2  0  0  0
  2  5  1  0  0  0
  3  4  1  0  0  0
  4  5  2  0  0  0
  5  6  1  0  0  0
  6  7  2  0  0  0
  6  8  1  0  0  0
  7 11  1  0  0  0
  8  9  2  0  0  0
  8 12  1  0  0  0
  9 10  1  0  0  0
 10 11  2  0  0  0
 16 17  1  0  0  0
 16 18  1  0  0  0
M  END
> <minimizedAffinity>
-6.24802

$$$$
3DCC_D9Z_A_263


 18 19  0  0  0  0  0  0  0  0999 V2000
   -4.5577    2.5707   14.8342 C   0  0  0  0  0  0  0  0  0  0  0  0
   -5.3244    3.0065   13.3630 S   0  0  0  0  0  0  0  0  0  0  0  0
   -3.8985    3.5619   15.4392 N   0  0  0  0  0  0  0  0  0  0  0  0
   -3.9774    4.7232   14.6752 N   0  0  0  0  0  0  0  0  0  0  0  0
   -4.7017    4.6208   13.5457 C   0  0  0  0  0  0  0  0  0  0  0  0
   -4.8787    5.7287   12.7028 C   0  0  0  0  0  0  0  0  0  0  0  0
   -3.8208    6.2337   11.9677 C   0  0  0  0  0  0  0  0  0  0  0  0
   -6.1080    6.3212   12.6020 C   0  0  0  0  0  0  0  0  0  0  0  0
   -6.3862    7.3868   11.7751 C   0  0  0  0  0  0  0  0  0  0  0  0
   -5.3096    7.8994   11.0260 C   0  0  0  0  0  0  0  0  0  0  0  0
   -4.0480    7.3481   11.1260 C   0  0  0  0  0  0  0  0  0  0  0  0
   -7.5828    5.9572   13.3693 Cl  0  0  0  0  0  0  0  0  0  0  0  0
   -5.7249    0.9224   16.2329 O   0  0  0  0  0  0  0  0  0  0  0  0
   -4.5186    1.0749   15.5413 S   0  0  0  0  0  0  0  0  0  0  0  0
   -3.3419    1.1272   16.3661 O   0  0  0  0  0  0  0  0  0  0  0  0
   -4.2594    0.0128   14.3824 N   0  0  0  0  0  0  0  0  0  0  0  0
   -4.2287   -0.9254   14.7816 H   0  0  0  0  0  0  0  0  0  0  0  0
   -3.3703    0.2174   13.9263 H   0  0  0  0  0  0  0  0  0  0  0  0
 13 14  2  0  0  0
 14 15  2  0  0  0
 14 16  1  0  0  0
 14  1  1  0  0  0
  1  2  1  0  0  0
  1  3  2  0  0  0
  2  5  1  0  0  0
  3  4  1  0  0  0
  4  5  2  0  0  0
  5  6  1  0  0  0
  6  7  2  0  0  0
  6  8  1  0  0  0
  7 11  1  0  0  0
  8  9  2  0  0  0
  8 12  1  0  0  0
  9 10  1  0  0  0
 10 11  2  0  0  0
 16 17  1  0  0  0
 16 18  1  0  0  0
M  END
> <minimizedAffinity>
-6.19175

$$$$
3DCC_D9Z_A_263


 18 19  0  0  0  0  0  0  0  0999 V2000
   -4.7428    5.3477   13.1649 C   0  0  0  0  0  0  0  0  0  0  0  0
   -3.9077    4.4931   14.3956 S   0  0  0  0  0  0  0  0  0  0  0  0
   -5.9657    4.8864   12.8914 N   0  0  0  0  0  0  0  0  0  0  0  0
   -6.2418    3.7714   13.6782 N   0  0  0  0  0  0  0  0  0  0  0  0
   -5.2712    3.4223   14.5425 C   0  0  0  0  0  0  0  0  0  0  0  0
   -5.4393    2.3318   15.4095 C   0  0  0  0  0  0  0  0  0  0  0  0
   -4.7869    1.1345   15.1740 C   0  0  0  0  0  0  0  0  0  0  0  0
   -6.2557    2.4465   16.5016 C   0  0  0  0  0  0  0  0  0  0  0  0
   -6.4530    1.4456   17.4267 C   0  0  0  0  0  0  0  0  0  0  0  0
   -5.7877    0.2278   17.1874 C   0  0  0  0  0  0  0  0  0  0  0  0
   -4.9813    0.0645   16.0790 C   0  0  0  0  0  0  0  0  0  0  0  0
   -7.1940    3.7541   17.0546 Cl  0  0  0  0  0  0  0  0  0  0  0  0
   -5.3063    7.3681   11.8857 O   0  0  0  0  0  0  0  0  0  0  0  0
   -4.1855    6.6278   12.2763 S   0  0  0  0  0  0  0  0  0  0  0  0
   -3.4624    5.9991   11.2041 O   0  0  0  0  0  0  0  0  0  0  0  0
   -3.1358    7.4101   13.1844 N   0  0  0  0  0  0  0  0  0  0  0  0
   -2.7689    8.2096   12.6681 H   0  0  0  0  0  0  0  0  0  0  0  0
   -2.3691    6.7850   13.4332 H   0  0  0  0  0  0  0  0  0  0  0  0
 13 14  2  0  0  0
 14 15  2  0  0  0
 14 16  1  0  0  0
 14  1  1  0  0  0
  1  2  1  0  0  0
  1  3  2  0  0  0
  2  5  1  0  0  0
  3  4  1  0  0  0
  4  5  2  0  0  0
  5  6  1  0  0  0
  6  7  2  0  0  0
  6  8  1  0  0  0
  7 11  1  0  0  0
  8  9  2  0  0  0
  8 12  1  0  0  0
  9 10  1  0  0  0
 10 11  2  0  0  0
 16 17  1  0  0  0
 16 18  1  0  0  0
M  END
> <minimizedAffinity>
-5.98220

$$$$
