4IEH_1E9_A_201


 61 67  0  0  0  0  0  0  0  0999 V2000
   10.8962   24.2689    8.3486 C   0  0  0  0  0  0  0  0  0  0  0  0
   11.7269   25.3078    7.8506 C   0  0  0  0  0  0  0  0  0  0  0  0
   12.8731   22.8130    8.6945 C   0  0  0  0  0  0  0  0  0  0  0  0
   11.4773   23.0303    8.7496 C   0  0  0  0  0  0  0  0  0  0  0  0
   13.6669   23.8633    8.2115 C   0  0  0  0  0  0  0  0  0  0  0  0
   13.1075   25.0666    7.8097 C   0  0  0  0  0  0  0  0  0  0  0  0
   14.4136   26.1075    7.2717 S   0  0  0  0  0  0  0  0  0  0  0  0
   15.6077   25.0026    7.5923 N   0  0  0  0  0  0  0  0  0  0  0  0
   15.1314   23.8961    8.0643 C   0  0  0  0  0  0  0  0  0  0  0  0
   14.3261   26.2732    5.8069 O   0  0  0  0  0  0  0  0  0  0  0  0
   14.5204   27.3041    8.1190 O   0  0  0  0  0  0  0  0  0  0  0  0
    6.6613   24.5660    8.3714 N   0  0  0  0  0  0  0  0  0  0  0  0
    7.3092   23.7504    9.4083 C   0  0  0  0  0  0  0  0  0  0  0  0
    8.6928   23.2920    8.8723 C   0  0  0  0  0  0  0  0  0  0  0  0
    9.5531   24.4173    8.4465 N   0  0  0  0  0  0  0  0  0  0  0  0
    8.8177   25.3722    7.6063 C   0  0  0  0  0  0  0  0  0  0  0  0
    7.4599   25.7930    8.2157 C   0  0  0  0  0  0  0  0  0  0  0  0
    5.2618   24.8588    8.7133 C   0  0  0  0  0  0  0  0  0  0  0  0
    3.0730   21.0920    8.9225 C   0  0  0  0  0  0  0  0  0  0  0  0
    3.1921   21.8939   10.0811 C   0  0  0  0  0  0  0  0  0  0  0  0
    3.8989   23.1214   10.0493 C   0  0  0  0  0  0  0  0  0  0  0  0
    4.4695   23.5567    8.8136 C   0  0  0  0  0  0  0  0  0  0  0  0
    4.3601   22.7455    7.6553 C   0  0  0  0  0  0  0  0  0  0  0  0
    3.6641   21.5202    7.7111 C   0  0  0  0  0  0  0  0  0  0  0  0
    3.9327   23.8498   11.3365 C   0  0  0  0  0  0  0  0  0  0  0  0
    3.4731   25.1871   11.4421 C   0  0  0  0  0  0  0  0  0  0  0  0
    3.4734   25.8583   12.6868 C   0  0  0  0  0  0  0  0  0  0  0  0
    3.9263   25.1914   13.8416 C   0  0  0  0  0  0  0  0  0  0  0  0
    4.3915   23.8609   13.7561 C   0  0  0  0  0  0  0  0  0  0  0  0
    4.3864   23.1902   12.5081 C   0  0  0  0  0  0  0  0  0  0  0  0
    3.9203   26.0028   15.3667 Cl  0  0  0  0  0  0  0  0  0  0  0  0
   15.8667   22.7747    8.4207 N   0  0  0  0  0  0  0  0  0  0  0  0
   15.4331   21.8920    8.3744 H   0  0  0  0  0  0  0  0  0  0  0  0
   17.4830   22.8612    8.9333 S   0  0  0  0  0  0  0  0  0  0  0  0
   17.7530   21.5073    9.4410 O   0  0  0  0  0  0  0  0  0  0  0  0
   18.2188   23.4488    7.7940 O   0  0  0  0  0  0  0  0  0  0  0  0
   17.8564   25.3431   10.0993 C   0  0  0  0  0  0  0  0  0  0  0  0
   17.5182   23.9976   10.3010 C   0  0  0  0  0  0  0  0  0  0  0  0
   17.1810   23.5102   11.5711 C   0  0  0  0  0  0  0  0  0  0  0  0
   17.1702   24.3747   12.6870 C   0  0  0  0  0  0  0  0  0  0  0  0
   17.5273   25.7431   12.5064 C   0  0  0  0  0  0  0  0  0  0  0  0
   17.8616   26.2023   11.2051 C   0  0  0  0  0  0  0  0  0  0  0  0
   16.8205   23.7858   13.9965 N   0  0  0  0  0  0  0  0  0  0  0  0
   16.7299   24.5382   14.9613 O   0  0  0  0  0  0  0  0  0  0  0  0
   16.5886   22.5868   14.0628 O   0  0  0  0  0  0  0  0  0  0  0  0
   17.5390   26.6287   13.5292 N   0  0  0  0  0  0  0  0  0  0  0  0
   17.5374   26.2570   14.4409 H   0  0  0  0  0  0  0  0  0  0  0  0
   17.5541   28.0869   13.4079 C   0  0  0  0  0  0  0  0  0  0  0  0
   16.4197   28.7352   14.2468 C   0  0  0  0  0  0  0  0  0  0  0  0
   14.8191   29.0574   13.4117 S   0  0  0  0  0  0  0  0  0  0  0  0
   14.1727   27.5015   12.9129 C   0  0  0  0  0  0  0  0  0  0  0  0
   14.0716   26.4509   13.8427 C   0  0  0  0  0  0  0  0  0  0  0  0
   13.5502   25.2111   13.4231 C   0  0  0  0  0  0  0  0  0  0  0  0
   13.1245   25.0360   12.0900 C   0  0  0  0  0  0  0  0  0  0  0  0
   13.2292   26.0936   11.1638 C   0  0  0  0  0  0  0  0  0  0  0  0
   13.7509   27.3347   11.5774 C   0  0  0  0  0  0  0  0  0  0  0  0
   18.9223   28.6901   13.7909 C   0  0  0  0  0  0  0  0  0  0  0  0
   19.1092   29.0206   15.2833 C   0  0  0  0  0  0  0  0  0  0  0  0
   19.6201   27.8496   16.0023 N   0  0  0  0  0  0  0  0  0  0  0  0
   20.8538   28.2083   16.6940 C   0  0  0  0  0  0  0  0  0  0  0  0
   18.6447   27.3371   16.9667 C   0  0  0  0  0  0  0  0  0  0  0  0
 10  7  2  0  0  0
 23 24  2  0  0  0
 23 22  1  0  0  0
 24 19  1  0  0  0
 16 17  1  0  0  0
 16 15  1  0  0  0
  7  8  1  0  0  0
  7  6  1  0  0  0
  7 11  2  0  0  0
 36 34  2  0  0  0
  2  6  2  0  0  0
  2  1  1  0  0  0
  8  9  2  0  0  0
  6  5  1  0  0  0
 12 17  1  0  0  0
 12 18  1  0  0  0
 12 13  1  0  0  0
 18 22  1  0  0  0
  1 15  1  0  0  0
  1  4  2  0  0  0
 15 14  1  0  0  0
  9  5  1  0  0  0
  9 32  1  0  0  0
  5  3  2  0  0  0
 22 21  2  0  0  0
 19 20  2  0  0  0
 14 13  1  0  0  0
 32 34  1  0  0  0
  4  3  1  0  0  0
 34 35  2  0  0  0
 34 38  1  0  0  0
 21 20  1  0  0  0
 21 25  1  0  0  0
 37 38  2  0  0  0
 37 42  1  0  0  0
 38 39  1  0  0  0
 25 26  2  0  0  0
 25 30  1  0  0  0
 26 27  1  0  0  0
 42 41  2  0  0  0
 55 56  2  0  0  0
 55 54  1  0  0  0
 39 40  2  0  0  0
 56 51  1  0  0  0
 30 29  2  0  0  0
 27 28  2  0  0  0
 54 53  2  0  0  0
 41 40  1  0  0  0
 41 46  1  0  0  0
 49 48  1  0  0  0
 49 50  1  0  0  0
 40 43  1  0  0  0
 51 50  1  0  0  0
 51 52  2  0  0  0
 29 28  1  0  0  0
 48 46  1  0  0  0
 48 57  1  0  0  0
 28 31  1  0  0  0
 53 52  1  0  0  0
 43 45  1  0  0  0
 43 44  2  0  0  0
 57 58  1  0  0  0
 58 59  1  0  0  0
 61 59  1  0  0  0
 59 60  1  0  0  0
 46 47  1  0  0  0
 32 33  1  0  0  0
M  CHG 1  43   1
M  CHG 1  45  -1
M  END
> <minimizedAffinity>
-10.60613

$$$$
4IEH_1E9_A_201


 61 67  0  0  0  0  0  0  0  0999 V2000
   10.7906   24.2373    8.2221 C   0  0  0  0  0  0  0  0  0  0  0  0
   11.6074   25.2789    7.7071 C   0  0  0  0  0  0  0  0  0  0  0  0
   12.7998   22.8921    8.7705 C   0  0  0  0  0  0  0  0  0  0  0  0
   11.3956   23.0517    8.7328 C   0  0  0  0  0  0  0  0  0  0  0  0
   13.5785   23.9444    8.2676 C   0  0  0  0  0  0  0  0  0  0  0  0
   12.9964   25.0957    7.7595 C   0  0  0  0  0  0  0  0  0  0  0  0
   14.2897   26.1574    7.2314 S   0  0  0  0  0  0  0  0  0  0  0  0
   15.5057   25.1268    7.6881 N   0  0  0  0  0  0  0  0  0  0  0  0
   15.0466   24.0315    8.2016 C   0  0  0  0  0  0  0  0  0  0  0  0
   14.2824   26.2296    5.7564 O   0  0  0  0  0  0  0  0  0  0  0  0
   14.2987   27.4068    8.0060 O   0  0  0  0  0  0  0  0  0  0  0  0
    6.5495   24.2915    8.0393 N   0  0  0  0  0  0  0  0  0  0  0  0
    7.1886   23.8588    9.2901 C   0  0  0  0  0  0  0  0  0  0  0  0
    8.6130   23.3395    8.9539 C   0  0  0  0  0  0  0  0  0  0  0  0
    9.4392   24.3331    8.2344 N   0  0  0  0  0  0  0  0  0  0  0  0
    8.6981   24.9522    7.1271 C   0  0  0  0  0  0  0  0  0  0  0  0
    7.2980   25.4591    7.5452 C   0  0  0  0  0  0  0  0  0  0  0  0
    5.1249   24.5945    8.2395 C   0  0  0  0  0  0  0  0  0  0  0  0
    2.9563   20.8378    8.6948 C   0  0  0  0  0  0  0  0  0  0  0  0
    3.1072   21.6946    9.8095 C   0  0  0  0  0  0  0  0  0  0  0  0
    3.8085   22.9206    9.6977 C   0  0  0  0  0  0  0  0  0  0  0  0
    4.3404   23.2971    8.4259 C   0  0  0  0  0  0  0  0  0  0  0  0
    4.1993   22.4310    7.3117 C   0  0  0  0  0  0  0  0  0  0  0  0
    3.5095   21.2083    7.4471 C   0  0  0  0  0  0  0  0  0  0  0  0
    3.8781   23.7102   10.9468 C   0  0  0  0  0  0  0  0  0  0  0  0
    3.5424   25.0876   10.9711 C   0  0  0  0  0  0  0  0  0  0  0  0
    3.5745   25.8211   12.1797 C   0  0  0  0  0  0  0  0  0  0  0  0
    3.9347   25.1777   13.3795 C   0  0  0  0  0  0  0  0  0  0  0  0
    4.2762   23.8076   13.3752 C   0  0  0  0  0  0  0  0  0  0  0  0
    4.2395   23.0749   12.1631 C   0  0  0  0  0  0  0  0  0  0  0  0
    3.9666   26.0661   14.8609 Cl  0  0  0  0  0  0  0  0  0  0  0  0
   15.8035   22.9667    8.6692 N   0  0  0  0  0  0  0  0  0  0  0  0
   15.3570   22.1033    8.8255 H   0  0  0  0  0  0  0  0  0  0  0  0
   17.4674   23.0908    8.9831 S   0  0  0  0  0  0  0  0  0  0  0  0
   17.8024   21.7841    9.5698 O   0  0  0  0  0  0  0  0  0  0  0  0
   18.0637   23.5762    7.7208 O   0  0  0  0  0  0  0  0  0  0  0  0
   17.1049   24.1530   11.5127 C   0  0  0  0  0  0  0  0  0  0  0  0
   17.6527   24.3397   10.2358 C   0  0  0  0  0  0  0  0  0  0  0  0
   18.3742   25.4965    9.9108 C   0  0  0  0  0  0  0  0  0  0  0  0
   18.5712   26.5085   10.8750 C   0  0  0  0  0  0  0  0  0  0  0  0
   18.0081   26.3459   12.1747 C   0  0  0  0  0  0  0  0  0  0  0  0
   17.2847   25.1602   12.4690 C   0  0  0  0  0  0  0  0  0  0  0  0
   19.3280   27.7062   10.4547 N   0  0  0  0  0  0  0  0  0  0  0  0
   20.4776   27.8346   10.8633 O   0  0  0  0  0  0  0  0  0  0  0  0
   18.8035   28.4965    9.6825 O   0  0  0  0  0  0  0  0  0  0  0  0
   18.1561   27.2736   13.1483 N   0  0  0  0  0  0  0  0  0  0  0  0
   18.6883   27.0138   13.9347 H   0  0  0  0  0  0  0  0  0  0  0  0
   17.5993   28.6268   13.1425 C   0  0  0  0  0  0  0  0  0  0  0  0
   16.4116   28.7533   14.1346 C   0  0  0  0  0  0  0  0  0  0  0  0
   14.7476   29.0785   13.4357 S   0  0  0  0  0  0  0  0  0  0  0  0
   14.1197   27.5428   12.8571 C   0  0  0  0  0  0  0  0  0  0  0  0
   13.6321   27.4325   11.5423 C   0  0  0  0  0  0  0  0  0  0  0  0
   13.1332   26.1923   11.0973 C   0  0  0  0  0  0  0  0  0  0  0  0
   13.1377   25.0761   11.9594 C   0  0  0  0  0  0  0  0  0  0  0  0
   13.6278   25.1945   13.2759 C   0  0  0  0  0  0  0  0  0  0  0  0
   14.1264   26.4322   13.7265 C   0  0  0  0  0  0  0  0  0  0  0  0
   18.6690   29.6991   13.4401 C   0  0  0  0  0  0  0  0  0  0  0  0
   19.8571   29.2324   14.3015 C   0  0  0  0  0  0  0  0  0  0  0  0
   19.5628   29.4334   15.7236 N   0  0  0  0  0  0  0  0  0  0  0  0
   19.6030   28.1470   16.4112 C   0  0  0  0  0  0  0  0  0  0  0  0
   20.5116   30.3570   16.3487 C   0  0  0  0  0  0  0  0  0  0  0  0
 10  7  2  0  0  0
 23 24  2  0  0  0
 23 22  1  0  0  0
 24 19  1  0  0  0
 16 17  1  0  0  0
 16 15  1  0  0  0
  7  8  1  0  0  0
  7  6  1  0  0  0
  7 11  2  0  0  0
 36 34  2  0  0  0
  2  6  2  0  0  0
  2  1  1  0  0  0
  8  9  2  0  0  0
  6  5  1  0  0  0
 12 17  1  0  0  0
 12 18  1  0  0  0
 12 13  1  0  0  0
 18 22  1  0  0  0
  1 15  1  0  0  0
  1  4  2  0  0  0
 15 14  1  0  0  0
  9  5  1  0  0  0
  9 32  1  0  0  0
  5  3  2  0  0  0
 22 21  2  0  0  0
 19 20  2  0  0  0
 14 13  1  0  0  0
 32 34  1  0  0  0
  4  3  1  0  0  0
 34 35  2  0  0  0
 34 38  1  0  0  0
 21 20  1  0  0  0
 21 25  1  0  0  0
 37 38  2  0  0  0
 37 42  1  0  0  0
 38 39  1  0  0  0
 25 26  2  0  0  0
 25 30  1  0  0  0
 26 27  1  0  0  0
 42 41  2  0  0  0
 55 56  2  0  0  0
 55 54  1  0  0  0
 39 40  2  0  0  0
 56 51  1  0  0  0
 30 29  2  0  0  0
 27 28  2  0  0  0
 54 53  2  0  0  0
 41 40  1  0  0  0
 41 46  1  0  0  0
 49 48  1  0  0  0
 49 50  1  0  0  0
 40 43  1  0  0  0
 51 50  1  0  0  0
 51 52  2  0  0  0
 29 28  1  0  0  0
 48 46  1  0  0  0
 48 57  1  0  0  0
 28 31  1  0  0  0
 53 52  1  0  0  0
 43 45  1  0  0  0
 43 44  2  0  0  0
 57 58  1  0  0  0
 58 59  1  0  0  0
 61 59  1  0  0  0
 59 60  1  0  0  0
 46 47  1  0  0  0
 32 33  1  0  0  0
M  CHG 1  43   1
M  CHG 1  45  -1
M  END
> <minimizedAffinity>
-9.81367

$$$$
4IEH_1E9_A_201


 61 67  0  0  0  0  0  0  0  0999 V2000
   10.9426   24.3708    8.4169 C   0  0  0  0  0  0  0  0  0  0  0  0
   11.7626   25.4323    7.9498 C   0  0  0  0  0  0  0  0  0  0  0  0
   12.9385   22.9412    8.7632 C   0  0  0  0  0  0  0  0  0  0  0  0
   11.5387   23.1346    8.8029 C   0  0  0  0  0  0  0  0  0  0  0  0
   13.7213   24.0133    8.3108 C   0  0  0  0  0  0  0  0  0  0  0  0
   13.1474   25.2146    7.9236 C   0  0  0  0  0  0  0  0  0  0  0  0
   14.4432   26.2867    7.4233 S   0  0  0  0  0  0  0  0  0  0  0  0
   15.6511   25.1956    7.7399 N   0  0  0  0  0  0  0  0  0  0  0  0
   15.1869   24.0728    8.1847 C   0  0  0  0  0  0  0  0  0  0  0  0
   14.3730   26.4783    5.9607 O   0  0  0  0  0  0  0  0  0  0  0  0
   14.5186   27.4687    8.2940 O   0  0  0  0  0  0  0  0  0  0  0  0
    6.7033   24.5958    8.3874 N   0  0  0  0  0  0  0  0  0  0  0  0
    7.3516   23.7794    9.4234 C   0  0  0  0  0  0  0  0  0  0  0  0
    8.7496   23.3508    8.9005 C   0  0  0  0  0  0  0  0  0  0  0  0
    9.5961   24.4952    8.4988 N   0  0  0  0  0  0  0  0  0  0  0  0
    8.8553   25.4472    7.6598 C   0  0  0  0  0  0  0  0  0  0  0  0
    7.4828   25.8379    8.2560 C   0  0  0  0  0  0  0  0  0  0  0  0
    5.2947   24.8609    8.7141 C   0  0  0  0  0  0  0  0  0  0  0  0
    3.1747   21.0533    8.8879 C   0  0  0  0  0  0  0  0  0  0  0  0
    3.2895   21.8407   10.0568 C   0  0  0  0  0  0  0  0  0  0  0  0
    3.9742   23.0809   10.0366 C   0  0  0  0  0  0  0  0  0  0  0  0
    4.5264   23.5437    8.8025 C   0  0  0  0  0  0  0  0  0  0  0  0
    4.4215   22.7471    7.6337 C   0  0  0  0  0  0  0  0  0  0  0  0
    3.7477   21.5088    7.6779 C   0  0  0  0  0  0  0  0  0  0  0  0
    4.0061   23.7917   11.3337 C   0  0  0  0  0  0  0  0  0  0  0  0
    3.5686   25.1353   11.4521 C   0  0  0  0  0  0  0  0  0  0  0  0
    3.5665   25.7899   12.7055 C   0  0  0  0  0  0  0  0  0  0  0  0
    3.9947   25.1001   13.8562 C   0  0  0  0  0  0  0  0  0  0  0  0
    4.4378   23.7630   13.7582 C   0  0  0  0  0  0  0  0  0  0  0  0
    4.4351   23.1089   12.5014 C   0  0  0  0  0  0  0  0  0  0  0  0
    3.9856   25.8914   15.3919 Cl  0  0  0  0  0  0  0  0  0  0  0  0
   15.9358   22.9571    8.5304 N   0  0  0  0  0  0  0  0  0  0  0  0
   15.5072   22.0716    8.4945 H   0  0  0  0  0  0  0  0  0  0  0  0
   17.5607   23.0554    9.0129 S   0  0  0  0  0  0  0  0  0  0  0  0
   17.8907   21.6709    9.3845 O   0  0  0  0  0  0  0  0  0  0  0  0
   18.2462   23.7739    7.9181 O   0  0  0  0  0  0  0  0  0  0  0  0
   18.0666   25.3775   10.4310 C   0  0  0  0  0  0  0  0  0  0  0  0
   17.5912   24.0596   10.4806 C   0  0  0  0  0  0  0  0  0  0  0  0
   17.1104   23.4993   11.6720 C   0  0  0  0  0  0  0  0  0  0  0  0
   17.0902   24.2603   12.8607 C   0  0  0  0  0  0  0  0  0  0  0  0
   17.5848   25.5973   12.8356 C   0  0  0  0  0  0  0  0  0  0  0  0
   18.0625   26.1325   11.6104 C   0  0  0  0  0  0  0  0  0  0  0  0
   16.5847   23.5973   14.0808 N   0  0  0  0  0  0  0  0  0  0  0  0
   16.0520   24.2952   14.9378 O   0  0  0  0  0  0  0  0  0  0  0  0
   16.6708   22.3807   14.1718 O   0  0  0  0  0  0  0  0  0  0  0  0
   17.5964   26.3850   13.9355 N   0  0  0  0  0  0  0  0  0  0  0  0
   18.2436   26.1561   14.6412 H   0  0  0  0  0  0  0  0  0  0  0  0
   16.7375   27.5453   14.1749 C   0  0  0  0  0  0  0  0  0  0  0  0
   17.5611   28.8613   14.2042 C   0  0  0  0  0  0  0  0  0  0  0  0
   19.3298   28.7499   14.6759 S   0  0  0  0  0  0  0  0  0  0  0  0
   19.3922   28.6341   16.4281 C   0  0  0  0  0  0  0  0  0  0  0  0
   20.2011   29.5192   17.1634 C   0  0  0  0  0  0  0  0  0  0  0  0
   20.2370   29.4103   18.5677 C   0  0  0  0  0  0  0  0  0  0  0  0
   19.4593   28.4330   19.2227 C   0  0  0  0  0  0  0  0  0  0  0  0
   18.6511   27.5492   18.4789 C   0  0  0  0  0  0  0  0  0  0  0  0
   18.6125   27.6527   17.0749 C   0  0  0  0  0  0  0  0  0  0  0  0
   15.5931   27.6466   13.1440 C   0  0  0  0  0  0  0  0  0  0  0  0
   14.2756   26.9561   13.5426 C   0  0  0  0  0  0  0  0  0  0  0  0
   14.0157   25.8125   12.6630 N   0  0  0  0  0  0  0  0  0  0  0  0
   13.1334   24.8706   13.3440 C   0  0  0  0  0  0  0  0  0  0  0  0
   13.4099   26.2288   11.3966 C   0  0  0  0  0  0  0  0  0  0  0  0
 10  7  2  0  0  0
 23 24  2  0  0  0
 23 22  1  0  0  0
 24 19  1  0  0  0
 16 17  1  0  0  0
 16 15  1  0  0  0
  7  8  1  0  0  0
  7  6  1  0  0  0
  7 11  2  0  0  0
 36 34  2  0  0  0
  2  6  2  0  0  0
  2  1  1  0  0  0
  8  9  2  0  0  0
  6  5  1  0  0  0
 12 17  1  0  0  0
 12 18  1  0  0  0
 12 13  1  0  0  0
 18 22  1  0  0  0
  1 15  1  0  0  0
  1  4  2  0  0  0
 15 14  1  0  0  0
  9  5  1  0  0  0
  9 32  1  0  0  0
  5  3  2  0  0  0
 22 21  2  0  0  0
 19 20  2  0  0  0
 14 13  1  0  0  0
 32 34  1  0  0  0
  4  3  1  0  0  0
 34 35  2  0  0  0
 34 38  1  0  0  0
 21 20  1  0  0  0
 21 25  1  0  0  0
 37 38  2  0  0  0
 37 42  1  0  0  0
 38 39  1  0  0  0
 25 26  2  0  0  0
 25 30  1  0  0  0
 26 27  1  0  0  0
 42 41  2  0  0  0
 55 56  2  0  0  0
 55 54  1  0  0  0
 39 40  2  0  0  0
 56 51  1  0  0  0
 30 29  2  0  0  0
 27 28  2  0  0  0
 54 53  2  0  0  0
 41 40  1  0  0  0
 41 46  1  0  0  0
 49 48  1  0  0  0
 49 50  1  0  0  0
 40 43  1  0  0  0
 51 50  1  0  0  0
 51 52  2  0  0  0
 29 28  1  0  0  0
 48 46  1  0  0  0
 48 57  1  0  0  0
 28 31  1  0  0  0
 53 52  1  0  0  0
 43 45  1  0  0  0
 43 44  2  0  0  0
 57 58  1  0  0  0
 58 59  1  0  0  0
 61 59  1  0  0  0
 59 60  1  0  0  0
 46 47  1  0  0  0
 32 33  1  0  0  0
M  CHG 1  43   1
M  CHG 1  45  -1
M  END
> <minimizedAffinity>
-9.48284

$$$$
4IEH_1E9_A_201


 61 67  0  0  0  0  0  0  0  0999 V2000
   12.9449   24.2234    7.1175 C   0  0  0  0  0  0  0  0  0  0  0  0
   13.3757   23.6523    5.8904 C   0  0  0  0  0  0  0  0  0  0  0  0
   10.5744   23.9835    6.4317 C   0  0  0  0  0  0  0  0  0  0  0  0
   11.5517   24.3957    7.3663 C   0  0  0  0  0  0  0  0  0  0  0  0
   11.0317   23.4104    5.2363 C   0  0  0  0  0  0  0  0  0  0  0  0
   12.3854   23.2497    4.9832 C   0  0  0  0  0  0  0  0  0  0  0  0
   12.5468   22.5106    3.4000 S   0  0  0  0  0  0  0  0  0  0  0  0
   10.9138   22.4129    3.1294 N   0  0  0  0  0  0  0  0  0  0  0  0
   10.2285   22.8949    4.1154 C   0  0  0  0  0  0  0  0  0  0  0  0
   13.1069   23.5020    2.4597 O   0  0  0  0  0  0  0  0  0  0  0  0
   13.1753   21.1851    3.4959 O   0  0  0  0  0  0  0  0  0  0  0  0
   15.5941   25.2295   10.2786 N   0  0  0  0  0  0  0  0  0  0  0  0
   16.1641   24.6943    9.0341 C   0  0  0  0  0  0  0  0  0  0  0  0
   15.0686   23.8587    8.3176 C   0  0  0  0  0  0  0  0  0  0  0  0
   13.8273   24.6221    8.0651 N   0  0  0  0  0  0  0  0  0  0  0  0
   13.3977   25.3654    9.2574 C   0  0  0  0  0  0  0  0  0  0  0  0
   14.5394   26.1854    9.9026 C   0  0  0  0  0  0  0  0  0  0  0  0
   16.6270   25.8511   11.1200 C   0  0  0  0  0  0  0  0  0  0  0  0
   16.6909   23.9456   15.0428 C   0  0  0  0  0  0  0  0  0  0  0  0
   16.4750   25.3399   14.9490 C   0  0  0  0  0  0  0  0  0  0  0  0
   16.4515   25.9916   13.6911 C   0  0  0  0  0  0  0  0  0  0  0  0
   16.6207   25.2103   12.5066 C   0  0  0  0  0  0  0  0  0  0  0  0
   16.8496   23.8139   12.6028 C   0  0  0  0  0  0  0  0  0  0  0  0
   16.8832   23.1863   13.8653 C   0  0  0  0  0  0  0  0  0  0  0  0
   16.2102   27.4498   13.7537 C   0  0  0  0  0  0  0  0  0  0  0  0
   17.2448   28.3569   14.0959 C   0  0  0  0  0  0  0  0  0  0  0  0
   17.0110   29.7515   14.1127 C   0  0  0  0  0  0  0  0  0  0  0  0
   15.7382   30.2519   13.7768 C   0  0  0  0  0  0  0  0  0  0  0  0
   14.6938   29.3644   13.4370 C   0  0  0  0  0  0  0  0  0  0  0  0
   14.9326   27.9680   13.4177 C   0  0  0  0  0  0  0  0  0  0  0  0
   15.4488   31.9551   13.7863 Cl  0  0  0  0  0  0  0  0  0  0  0  0
    8.8451   22.9696    4.1912 N   0  0  0  0  0  0  0  0  0  0  0  0
    8.4178   23.8558    4.1541 H   0  0  0  0  0  0  0  0  0  0  0  0
    7.8584   21.5966    4.3454 S   0  0  0  0  0  0  0  0  0  0  0  0
    7.1346   21.5510    3.0656 O   0  0  0  0  0  0  0  0  0  0  0  0
    8.7650   20.5170    4.7894 O   0  0  0  0  0  0  0  0  0  0  0  0
    5.6311   21.0802    5.9047 C   0  0  0  0  0  0  0  0  0  0  0  0
    6.6954   21.9542    5.6427 C   0  0  0  0  0  0  0  0  0  0  0  0
    6.8893   23.1186    6.3984 C   0  0  0  0  0  0  0  0  0  0  0  0
    6.0094   23.4379    7.4550 C   0  0  0  0  0  0  0  0  0  0  0  0
    4.9108   22.5709    7.7272 C   0  0  0  0  0  0  0  0  0  0  0  0
    4.7464   21.3993    6.9423 C   0  0  0  0  0  0  0  0  0  0  0  0
    6.2676   24.6898    8.1965 N   0  0  0  0  0  0  0  0  0  0  0  0
    5.3876   25.5445    8.2090 O   0  0  0  0  0  0  0  0  0  0  0  0
    7.3209   24.8094    8.8065 O   0  0  0  0  0  0  0  0  0  0  0  0
    4.0277   22.8131    8.7232 N   0  0  0  0  0  0  0  0  0  0  0  0
    3.9714   23.7387    9.0540 H   0  0  0  0  0  0  0  0  0  0  0  0
    3.1484   21.8287    9.3551 C   0  0  0  0  0  0  0  0  0  0  0  0
    3.2739   21.8701   10.9022 C   0  0  0  0  0  0  0  0  0  0  0  0
    4.7932   22.6095   11.6151 S   0  0  0  0  0  0  0  0  0  0  0  0
    4.3121   24.0805   12.4469 C   0  0  0  0  0  0  0  0  0  0  0  0
    4.2358   24.1019   13.8512 C   0  0  0  0  0  0  0  0  0  0  0  0
    3.8483   25.2913   14.4994 C   0  0  0  0  0  0  0  0  0  0  0  0
    3.5551   26.4463   13.7450 C   0  0  0  0  0  0  0  0  0  0  0  0
    3.6336   26.4172   12.3377 C   0  0  0  0  0  0  0  0  0  0  0  0
    4.0189   25.2304   11.6845 C   0  0  0  0  0  0  0  0  0  0  0  0
    1.6756   22.0024    8.9272 C   0  0  0  0  0  0  0  0  0  0  0  0
    1.4049   23.1337    7.9181 C   0  0  0  0  0  0  0  0  0  0  0  0
   -0.0184   23.4850    7.9192 N   0  0  0  0  0  0  0  0  0  0  0  0
   -0.4583   23.7207    6.5480 C   0  0  0  0  0  0  0  0  0  0  0  0
   -0.8364   22.4329    8.5258 C   0  0  0  0  0  0  0  0  0  0  0  0
 10  7  2  0  0  0
 23 24  2  0  0  0
 23 22  1  0  0  0
 24 19  1  0  0  0
 16 17  1  0  0  0
 16 15  1  0  0  0
  7  8  1  0  0  0
  7  6  1  0  0  0
  7 11  2  0  0  0
 36 34  2  0  0  0
  2  6  2  0  0  0
  2  1  1  0  0  0
  8  9  2  0  0  0
  6  5  1  0  0  0
 12 17  1  0  0  0
 12 18  1  0  0  0
 12 13  1  0  0  0
 18 22  1  0  0  0
  1 15  1  0  0  0
  1  4  2  0  0  0
 15 14  1  0  0  0
  9  5  1  0  0  0
  9 32  1  0  0  0
  5  3  2  0  0  0
 22 21  2  0  0  0
 19 20  2  0  0  0
 14 13  1  0  0  0
 32 34  1  0  0  0
  4  3  1  0  0  0
 34 35  2  0  0  0
 34 38  1  0  0  0
 21 20  1  0  0  0
 21 25  1  0  0  0
 37 38  2  0  0  0
 37 42  1  0  0  0
 38 39  1  0  0  0
 25 26  2  0  0  0
 25 30  1  0  0  0
 26 27  1  0  0  0
 42 41  2  0  0  0
 55 56  2  0  0  0
 55 54  1  0  0  0
 39 40  2  0  0  0
 56 51  1  0  0  0
 30 29  2  0  0  0
 27 28  2  0  0  0
 54 53  2  0  0  0
 41 40  1  0  0  0
 41 46  1  0  0  0
 49 48  1  0  0  0
 49 50  1  0  0  0
 40 43  1  0  0  0
 51 50  1  0  0  0
 51 52  2  0  0  0
 29 28  1  0  0  0
 48 46  1  0  0  0
 48 57  1  0  0  0
 28 31  1  0  0  0
 53 52  1  0  0  0
 43 45  1  0  0  0
 43 44  2  0  0  0
 57 58  1  0  0  0
 58 59  1  0  0  0
 61 59  1  0  0  0
 59 60  1  0  0  0
 46 47  1  0  0  0
 32 33  1  0  0  0
M  CHG 1  43   1
M  CHG 1  45  -1
M  END
> <minimizedAffinity>
-9.39216

$$$$
4IEH_1E9_A_201


 61 67  0  0  0  0  0  0  0  0999 V2000
   10.9397   24.3853    8.8531 C   0  0  0  0  0  0  0  0  0  0  0  0
   11.6901   23.8442    7.7753 C   0  0  0  0  0  0  0  0  0  0  0  0
   13.0153   24.7298   10.1647 C   0  0  0  0  0  0  0  0  0  0  0  0
   11.6094   24.8068   10.0390 C   0  0  0  0  0  0  0  0  0  0  0  0
   13.7285   24.2041    9.0777 C   0  0  0  0  0  0  0  0  0  0  0  0
   13.0828   23.7823    7.9255 C   0  0  0  0  0  0  0  0  0  0  0  0
   14.3065   23.1918    6.8153 S   0  0  0  0  0  0  0  0  0  0  0  0
   15.5773   23.5173    7.8295 N   0  0  0  0  0  0  0  0  0  0  0  0
   15.1846   24.0273    8.9519 C   0  0  0  0  0  0  0  0  0  0  0  0
   14.1819   21.7252    6.6958 O   0  0  0  0  0  0  0  0  0  0  0  0
   14.3484   24.0054    5.5917 O   0  0  0  0  0  0  0  0  0  0  0  0
    6.7278   24.6056    8.3690 N   0  0  0  0  0  0  0  0  0  0  0  0
    7.2632   23.7623    9.4471 C   0  0  0  0  0  0  0  0  0  0  0  0
    8.7115   23.3498    9.0680 C   0  0  0  0  0  0  0  0  0  0  0  0
    9.5917   24.5058    8.7914 N   0  0  0  0  0  0  0  0  0  0  0  0
    8.9425   25.4792    7.9027 C   0  0  0  0  0  0  0  0  0  0  0  0
    7.5117   25.8518    8.3565 C   0  0  0  0  0  0  0  0  0  0  0  0
    5.2910   24.8600    8.5478 C   0  0  0  0  0  0  0  0  0  0  0  0
    3.2002   21.0326    8.5969 C   0  0  0  0  0  0  0  0  0  0  0  0
    3.2604   21.8087    9.7773 C   0  0  0  0  0  0  0  0  0  0  0  0
    3.9341   23.0549    9.7975 C   0  0  0  0  0  0  0  0  0  0  0  0
    4.5317   23.5353    8.5916 C   0  0  0  0  0  0  0  0  0  0  0  0
    4.4813   22.7500    7.4115 C   0  0  0  0  0  0  0  0  0  0  0  0
    3.8176   21.5057    7.4158 C   0  0  0  0  0  0  0  0  0  0  0  0
    3.9070   23.7524   11.1019 C   0  0  0  0  0  0  0  0  0  0  0  0
    4.2514   23.0853   12.3048 C   0  0  0  0  0  0  0  0  0  0  0  0
    4.2604   23.7744   13.5397 C   0  0  0  0  0  0  0  0  0  0  0  0
    3.9329   25.1435   13.5796 C   0  0  0  0  0  0  0  0  0  0  0  0
    3.5835   25.8245   12.3930 C   0  0  0  0  0  0  0  0  0  0  0  0
    3.5791   25.1319   11.1571 C   0  0  0  0  0  0  0  0  0  0  0  0
    3.9513   25.9931   15.0838 Cl  0  0  0  0  0  0  0  0  0  0  0  0
   15.9994   24.3981   10.0120 N   0  0  0  0  0  0  0  0  0  0  0  0
   15.6910   24.2182   10.9294 H   0  0  0  0  0  0  0  0  0  0  0  0
   17.5062   25.1492    9.7929 S   0  0  0  0  0  0  0  0  0  0  0  0
   18.4674   24.1059   10.1823 O   0  0  0  0  0  0  0  0  0  0  0  0
   17.4578   25.7230    8.4316 O   0  0  0  0  0  0  0  0  0  0  0  0
   18.8288   26.9328   11.4446 C   0  0  0  0  0  0  0  0  0  0  0  0
   17.5893   26.4696   10.9816 C   0  0  0  0  0  0  0  0  0  0  0  0
   16.3853   27.0376   11.4201 C   0  0  0  0  0  0  0  0  0  0  0  0
   16.3951   28.1039   12.3450 C   0  0  0  0  0  0  0  0  0  0  0  0
   17.6445   28.5789   12.8412 C   0  0  0  0  0  0  0  0  0  0  0  0
   18.8441   27.9808   12.3734 C   0  0  0  0  0  0  0  0  0  0  0  0
   15.0866   28.6407   12.7735 N   0  0  0  0  0  0  0  0  0  0  0  0
   15.0745   29.4980   13.6510 O   0  0  0  0  0  0  0  0  0  0  0  0
   14.0738   28.2502   12.2100 O   0  0  0  0  0  0  0  0  0  0  0  0
   17.7306   29.5965   13.7287 N   0  0  0  0  0  0  0  0  0  0  0  0
   17.4304   30.4825   13.4219 H   0  0  0  0  0  0  0  0  0  0  0  0
   18.2279   29.5040   15.1018 C   0  0  0  0  0  0  0  0  0  0  0  0
   17.4437   28.4397   15.9161 C   0  0  0  0  0  0  0  0  0  0  0  0
   18.0574   26.7120   15.8751 S   0  0  0  0  0  0  0  0  0  0  0  0
   16.8643   25.7591   15.0057 C   0  0  0  0  0  0  0  0  0  0  0  0
   17.2709   24.6523   14.2388 C   0  0  0  0  0  0  0  0  0  0  0  0
   16.2988   23.9007   13.5494 C   0  0  0  0  0  0  0  0  0  0  0  0
   14.9357   24.2507   13.6418 C   0  0  0  0  0  0  0  0  0  0  0  0
   14.5358   25.3616   14.4122 C   0  0  0  0  0  0  0  0  0  0  0  0
   15.5035   26.1172   15.1023 C   0  0  0  0  0  0  0  0  0  0  0  0
   19.7436   29.2167   15.1552 C   0  0  0  0  0  0  0  0  0  0  0  0
   20.6233   30.3768   15.6568 C   0  0  0  0  0  0  0  0  0  0  0  0
   21.6197   29.8820   16.6117 N   0  0  0  0  0  0  0  0  0  0  0  0
   20.9933   28.9111   17.5030 C   0  0  0  0  0  0  0  0  0  0  0  0
   22.7612   29.2648   15.9336 C   0  0  0  0  0  0  0  0  0  0  0  0
 10  7  2  0  0  0
 23 24  2  0  0  0
 23 22  1  0  0  0
 24 19  1  0  0  0
 16 17  1  0  0  0
 16 15  1  0  0  0
  7  8  1  0  0  0
  7  6  1  0  0  0
  7 11  2  0  0  0
 36 34  2  0  0  0
  2  6  2  0  0  0
  2  1  1  0  0  0
  8  9  2  0  0  0
  6  5  1  0  0  0
 12 17  1  0  0  0
 12 18  1  0  0  0
 12 13  1  0  0  0
 18 22  1  0  0  0
  1 15  1  0  0  0
  1  4  2  0  0  0
 15 14  1  0  0  0
  9  5  1  0  0  0
  9 32  1  0  0  0
  5  3  2  0  0  0
 22 21  2  0  0  0
 19 20  2  0  0  0
 14 13  1  0  0  0
 32 34  1  0  0  0
  4  3  1  0  0  0
 34 35  2  0  0  0
 34 38  1  0  0  0
 21 20  1  0  0  0
 21 25  1  0  0  0
 37 38  2  0  0  0
 37 42  1  0  0  0
 38 39  1  0  0  0
 25 26  2  0  0  0
 25 30  1  0  0  0
 26 27  1  0  0  0
 42 41  2  0  0  0
 55 56  2  0  0  0
 55 54  1  0  0  0
 39 40  2  0  0  0
 56 51  1  0  0  0
 30 29  2  0  0  0
 27 28  2  0  0  0
 54 53  2  0  0  0
 41 40  1  0  0  0
 41 46  1  0  0  0
 49 48  1  0  0  0
 49 50  1  0  0  0
 40 43  1  0  0  0
 51 50  1  0  0  0
 51 52  2  0  0  0
 29 28  1  0  0  0
 48 46  1  0  0  0
 48 57  1  0  0  0
 28 31  1  0  0  0
 53 52  1  0  0  0
 43 45  1  0  0  0
 43 44  2  0  0  0
 57 58  1  0  0  0
 58 59  1  0  0  0
 61 59  1  0  0  0
 59 60  1  0  0  0
 46 47  1  0  0  0
 32 33  1  0  0  0
M  CHG 1  43   1
M  CHG 1  45  -1
M  END
> <minimizedAffinity>
-9.36723

$$$$
4IEH_1E9_A_201


 61 67  0  0  0  0  0  0  0  0999 V2000
   13.2606   24.2558    8.1601 C   0  0  0  0  0  0  0  0  0  0  0  0
   14.0110   23.0500    8.1410 C   0  0  0  0  0  0  0  0  0  0  0  0
   15.2900   25.5632    7.5949 C   0  0  0  0  0  0  0  0  0  0  0  0
   13.9116   25.4976    7.9022 C   0  0  0  0  0  0  0  0  0  0  0  0
   15.9996   24.3539    7.5700 C   0  0  0  0  0  0  0  0  0  0  0  0
   15.3751   23.1437    7.8305 C   0  0  0  0  0  0  0  0  0  0  0  0
   16.5881   21.8817    7.7089 S   0  0  0  0  0  0  0  0  0  0  0  0
   17.8218   22.9176    7.3156 N   0  0  0  0  0  0  0  0  0  0  0  0
   17.4264   24.1487    7.2707 C   0  0  0  0  0  0  0  0  0  0  0  0
   16.8581   21.3409    9.0563 O   0  0  0  0  0  0  0  0  0  0  0  0
   16.2746   20.9493    6.6165 O   0  0  0  0  0  0  0  0  0  0  0  0
    9.0564   24.0949    8.7275 N   0  0  0  0  0  0  0  0  0  0  0  0
    9.9183   23.4045    9.6973 C   0  0  0  0  0  0  0  0  0  0  0  0
   11.2659   23.0730    9.0003 C   0  0  0  0  0  0  0  0  0  0  0  0
   11.9326   24.2629    8.4281 N   0  0  0  0  0  0  0  0  0  0  0  0
   10.9935   25.0917    7.6600 C   0  0  0  0  0  0  0  0  0  0  0  0
    9.6848   25.3921    8.4276 C   0  0  0  0  0  0  0  0  0  0  0  0
    7.6873   24.2510    9.2398 C   0  0  0  0  0  0  0  0  0  0  0  0
    5.0474   21.6779    6.9089 C   0  0  0  0  0  0  0  0  0  0  0  0
    4.6221   22.1513    8.1717 C   0  0  0  0  0  0  0  0  0  0  0  0
    5.4555   22.9860    8.9564 C   0  0  0  0  0  0  0  0  0  0  0  0
    6.7305   23.3707    8.4380 C   0  0  0  0  0  0  0  0  0  0  0  0
    7.1610   22.8850    7.1769 C   0  0  0  0  0  0  0  0  0  0  0  0
    6.3219   22.0437    6.4172 C   0  0  0  0  0  0  0  0  0  0  0  0
    4.8714   23.4043   10.2497 C   0  0  0  0  0  0  0  0  0  0  0  0
    4.8461   22.5316   11.3669 C   0  0  0  0  0  0  0  0  0  0  0  0
    4.3213   22.9579   12.6089 C   0  0  0  0  0  0  0  0  0  0  0  0
    3.8247   24.2685   12.7462 C   0  0  0  0  0  0  0  0  0  0  0  0
    3.8376   25.1513   11.6442 C   0  0  0  0  0  0  0  0  0  0  0  0
    4.3674   24.7221   10.4023 C   0  0  0  0  0  0  0  0  0  0  0  0
    3.1910   24.7983   14.2636 Cl  0  0  0  0  0  0  0  0  0  0  0  0
   18.2167   25.2521    6.9821 N   0  0  0  0  0  0  0  0  0  0  0  0
   17.9310   25.8622    6.2643 H   0  0  0  0  0  0  0  0  0  0  0  0
   19.6560   25.5937    7.8154 S   0  0  0  0  0  0  0  0  0  0  0  0
   20.2329   24.2629    8.0601 O   0  0  0  0  0  0  0  0  0  0  0  0
   20.3379   26.6230    7.0029 O   0  0  0  0  0  0  0  0  0  0  0  0
   19.4804   27.6382    9.6723 C   0  0  0  0  0  0  0  0  0  0  0  0
   19.1796   26.3014    9.3760 C   0  0  0  0  0  0  0  0  0  0  0  0
   18.4832   25.4898   10.2820 C   0  0  0  0  0  0  0  0  0  0  0  0
   18.0610   26.0083   11.5252 C   0  0  0  0  0  0  0  0  0  0  0  0
   18.3715   27.3606   11.8530 C   0  0  0  0  0  0  0  0  0  0  0  0
   19.0768   28.1539   10.9101 C   0  0  0  0  0  0  0  0  0  0  0  0
   17.3465   25.0887   12.4350 N   0  0  0  0  0  0  0  0  0  0  0  0
   16.6054   24.2465   11.9383 O   0  0  0  0  0  0  0  0  0  0  0  0
   17.5539   25.1671   13.6378 O   0  0  0  0  0  0  0  0  0  0  0  0
   17.9992   27.9245   13.0252 N   0  0  0  0  0  0  0  0  0  0  0  0
   18.0317   27.3523   13.8256 H   0  0  0  0  0  0  0  0  0  0  0  0
   17.5526   29.3051   13.2150 C   0  0  0  0  0  0  0  0  0  0  0  0
   16.0567   29.3632   13.6269 C   0  0  0  0  0  0  0  0  0  0  0  0
   15.3891   27.9691   14.6139 S   0  0  0  0  0  0  0  0  0  0  0  0
   14.4999   26.9316   13.5093 C   0  0  0  0  0  0  0  0  0  0  0  0
   14.2965   27.3332   12.1767 C   0  0  0  0  0  0  0  0  0  0  0  0
   13.5812   26.4869   11.3065 C   0  0  0  0  0  0  0  0  0  0  0  0
   13.0897   25.2481   11.7681 C   0  0  0  0  0  0  0  0  0  0  0  0
   13.2973   24.8525   13.1051 C   0  0  0  0  0  0  0  0  0  0  0  0
   14.0104   25.6953   13.9797 C   0  0  0  0  0  0  0  0  0  0  0  0
   18.4248   30.0650   14.2370 C   0  0  0  0  0  0  0  0  0  0  0  0
   18.4635   29.4652   15.6548 C   0  0  0  0  0  0  0  0  0  0  0  0
   19.1844   28.1887   15.6463 N   0  0  0  0  0  0  0  0  0  0  0  0
   20.5979   28.4310   15.9163 C   0  0  0  0  0  0  0  0  0  0  0  0
   18.6458   27.2549   16.6371 C   0  0  0  0  0  0  0  0  0  0  0  0
 10  7  2  0  0  0
 23 24  2  0  0  0
 23 22  1  0  0  0
 24 19  1  0  0  0
 16 17  1  0  0  0
 16 15  1  0  0  0
  7  8  1  0  0  0
  7  6  1  0  0  0
  7 11  2  0  0  0
 36 34  2  0  0  0
  2  6  2  0  0  0
  2  1  1  0  0  0
  8  9  2  0  0  0
  6  5  1  0  0  0
 12 17  1  0  0  0
 12 18  1  0  0  0
 12 13  1  0  0  0
 18 22  1  0  0  0
  1 15  1  0  0  0
  1  4  2  0  0  0
 15 14  1  0  0  0
  9  5  1  0  0  0
  9 32  1  0  0  0
  5  3  2  0  0  0
 22 21  2  0  0  0
 19 20  2  0  0  0
 14 13  1  0  0  0
 32 34  1  0  0  0
  4  3  1  0  0  0
 34 35  2  0  0  0
 34 38  1  0  0  0
 21 20  1  0  0  0
 21 25  1  0  0  0
 37 38  2  0  0  0
 37 42  1  0  0  0
 38 39  1  0  0  0
 25 26  2  0  0  0
 25 30  1  0  0  0
 26 27  1  0  0  0
 42 41  2  0  0  0
 55 56  2  0  0  0
 55 54  1  0  0  0
 39 40  2  0  0  0
 56 51  1  0  0  0
 30 29  2  0  0  0
 27 28  2  0  0  0
 54 53  2  0  0  0
 41 40  1  0  0  0
 41 46  1  0  0  0
 49 48  1  0  0  0
 49 50  1  0  0  0
 40 43  1  0  0  0
 51 50  1  0  0  0
 51 52  2  0  0  0
 29 28  1  0  0  0
 48 46  1  0  0  0
 48 57  1  0  0  0
 28 31  1  0  0  0
 53 52  1  0  0  0
 43 45  1  0  0  0
 43 44  2  0  0  0
 57 58  1  0  0  0
 58 59  1  0  0  0
 61 59  1  0  0  0
 59 60  1  0  0  0
 46 47  1  0  0  0
 32 33  1  0  0  0
M  CHG 1  43   1
M  CHG 1  45  -1
M  END
> <minimizedAffinity>
-9.24615

$$$$
4IEH_1E9_A_201


 61 67  0  0  0  0  0  0  0  0999 V2000
   14.4451   26.0056   11.0294 C   0  0  0  0  0  0  0  0  0  0  0  0
   15.1514   25.2110   10.0875 C   0  0  0  0  0  0  0  0  0  0  0  0
   12.2994   24.9760   10.3341 C   0  0  0  0  0  0  0  0  0  0  0  0
   13.0277   25.8894   11.1303 C   0  0  0  0  0  0  0  0  0  0  0  0
   13.0276   24.1961    9.4241 C   0  0  0  0  0  0  0  0  0  0  0  0
   14.4049   24.3116    9.3132 C   0  0  0  0  0  0  0  0  0  0  0  0
   14.9357   23.1849    8.0772 S   0  0  0  0  0  0  0  0  0  0  0  0
   13.4157   22.6001    7.7658 N   0  0  0  0  0  0  0  0  0  0  0  0
   12.5153   23.1743    8.4964 C   0  0  0  0  0  0  0  0  0  0  0  0
   15.3842   23.9444    6.8928 O   0  0  0  0  0  0  0  0  0  0  0  0
   15.8223   22.1576    8.6426 O   0  0  0  0  0  0  0  0  0  0  0  0
   16.4309   28.5375   13.7987 N   0  0  0  0  0  0  0  0  0  0  0  0
   17.1850   28.0474   12.6363 C   0  0  0  0  0  0  0  0  0  0  0  0
   16.5211   26.7321   12.1455 C   0  0  0  0  0  0  0  0  0  0  0  0
   15.0829   26.8867   11.8370 N   0  0  0  0  0  0  0  0  0  0  0  0
   14.3760   27.6097   12.9031 C   0  0  0  0  0  0  0  0  0  0  0  0
   15.0896   28.9158   13.3238 C   0  0  0  0  0  0  0  0  0  0  0  0
   17.1202   29.6587   14.4537 C   0  0  0  0  0  0  0  0  0  0  0  0
   20.6056   28.0963   16.5594 C   0  0  0  0  0  0  0  0  0  0  0  0
   20.7839   29.0383   15.5201 C   0  0  0  0  0  0  0  0  0  0  0  0
   19.6742   29.5637   14.8132 C   0  0  0  0  0  0  0  0  0  0  0  0
   18.3590   29.1481   15.1871 C   0  0  0  0  0  0  0  0  0  0  0  0
   18.1823   28.1937   16.2213 C   0  0  0  0  0  0  0  0  0  0  0  0
   19.3010   27.6723   16.9036 C   0  0  0  0  0  0  0  0  0  0  0  0
   20.0188   30.5422   13.7584 C   0  0  0  0  0  0  0  0  0  0  0  0
   20.0655   31.9337   14.0268 C   0  0  0  0  0  0  0  0  0  0  0  0
   20.4357   32.8548   13.0197 C   0  0  0  0  0  0  0  0  0  0  0  0
   20.7724   32.3887   11.7342 C   0  0  0  0  0  0  0  0  0  0  0  0
   20.7281   31.0070   11.4463 C   0  0  0  0  0  0  0  0  0  0  0  0
   20.3603   30.0866   12.4586 C   0  0  0  0  0  0  0  0  0  0  0  0
   21.2345   33.5083   10.5023 Cl  0  0  0  0  0  0  0  0  0  0  0  0
   11.1521   22.9175    8.4675 N   0  0  0  0  0  0  0  0  0  0  0  0
   10.7118   22.6126    9.2936 H   0  0  0  0  0  0  0  0  0  0  0  0
   10.2114   23.1074    7.0668 S   0  0  0  0  0  0  0  0  0  0  0  0
   10.5685   24.4544    6.5959 O   0  0  0  0  0  0  0  0  0  0  0  0
   10.4593   21.8896    6.2669 O   0  0  0  0  0  0  0  0  0  0  0  0
    8.1713   23.5988    8.8710 C   0  0  0  0  0  0  0  0  0  0  0  0
    8.5139   23.1232    7.5975 C   0  0  0  0  0  0  0  0  0  0  0  0
    7.5391   22.6661    6.7002 C   0  0  0  0  0  0  0  0  0  0  0  0
    6.1747   22.6791    7.0619 C   0  0  0  0  0  0  0  0  0  0  0  0
    5.8064   23.1432    8.3587 C   0  0  0  0  0  0  0  0  0  0  0  0
    6.8206   23.6004    9.2408 C   0  0  0  0  0  0  0  0  0  0  0  0
    5.2063   22.1667    6.0702 N   0  0  0  0  0  0  0  0  0  0  0  0
    4.3931   22.9547    5.5980 O   0  0  0  0  0  0  0  0  0  0  0  0
    5.2794   20.9966    5.7219 O   0  0  0  0  0  0  0  0  0  0  0  0
    4.5193   23.1841    8.7738 N   0  0  0  0  0  0  0  0  0  0  0  0
    4.0892   24.0691    8.8068 H   0  0  0  0  0  0  0  0  0  0  0  0
    3.7064   22.0366    9.1783 C   0  0  0  0  0  0  0  0  0  0  0  0
    3.2962   22.1337   10.6727 C   0  0  0  0  0  0  0  0  0  0  0  0
    4.6131   22.4952   11.8967 S   0  0  0  0  0  0  0  0  0  0  0  0
    4.2490   24.0631   12.6013 C   0  0  0  0  0  0  0  0  0  0  0  0
    4.0686   25.1833   11.7699 C   0  0  0  0  0  0  0  0  0  0  0  0
    3.7769   26.4317   12.3543 C   0  0  0  0  0  0  0  0  0  0  0  0
    3.6554   26.5475   13.7547 C   0  0  0  0  0  0  0  0  0  0  0  0
    3.8378   25.4203   14.5814 C   0  0  0  0  0  0  0  0  0  0  0  0
    4.1310   24.1702   14.0027 C   0  0  0  0  0  0  0  0  0  0  0  0
    2.4594   21.8612    8.2856 C   0  0  0  0  0  0  0  0  0  0  0  0
    1.3639   22.9300    8.4557 C   0  0  0  0  0  0  0  0  0  0  0  0
    0.1516   22.5335    7.7330 N   0  0  0  0  0  0  0  0  0  0  0  0
   -0.9201   22.2806    8.6906 C   0  0  0  0  0  0  0  0  0  0  0  0
   -0.2716   23.5604    6.7788 C   0  0  0  0  0  0  0  0  0  0  0  0
 10  7  2  0  0  0
 23 24  2  0  0  0
 23 22  1  0  0  0
 24 19  1  0  0  0
 16 17  1  0  0  0
 16 15  1  0  0  0
  7  8  1  0  0  0
  7  6  1  0  0  0
  7 11  2  0  0  0
 36 34  2  0  0  0
  2  6  2  0  0  0
  2  1  1  0  0  0
  8  9  2  0  0  0
  6  5  1  0  0  0
 12 17  1  0  0  0
 12 18  1  0  0  0
 12 13  1  0  0  0
 18 22  1  0  0  0
  1 15  1  0  0  0
  1  4  2  0  0  0
 15 14  1  0  0  0
  9  5  1  0  0  0
  9 32  1  0  0  0
  5  3  2  0  0  0
 22 21  2  0  0  0
 19 20  2  0  0  0
 14 13  1  0  0  0
 32 34  1  0  0  0
  4  3  1  0  0  0
 34 35  2  0  0  0
 34 38  1  0  0  0
 21 20  1  0  0  0
 21 25  1  0  0  0
 37 38  2  0  0  0
 37 42  1  0  0  0
 38 39  1  0  0  0
 25 26  2  0  0  0
 25 30  1  0  0  0
 26 27  1  0  0  0
 42 41  2  0  0  0
 55 56  2  0  0  0
 55 54  1  0  0  0
 39 40  2  0  0  0
 56 51  1  0  0  0
 30 29  2  0  0  0
 27 28  2  0  0  0
 54 53  2  0  0  0
 41 40  1  0  0  0
 41 46  1  0  0  0
 49 48  1  0  0  0
 49 50  1  0  0  0
 40 43  1  0  0  0
 51 50  1  0  0  0
 51 52  2  0  0  0
 29 28  1  0  0  0
 48 46  1  0  0  0
 48 57  1  0  0  0
 28 31  1  0  0  0
 53 52  1  0  0  0
 43 45  1  0  0  0
 43 44  2  0  0  0
 57 58  1  0  0  0
 58 59  1  0  0  0
 61 59  1  0  0  0
 59 60  1  0  0  0
 46 47  1  0  0  0
 32 33  1  0  0  0
M  CHG 1  43   1
M  CHG 1  45  -1
M  END
> <minimizedAffinity>
-9.00558

$$$$
4IEH_1E9_A_201


 61 67  0  0  0  0  0  0  0  0999 V2000
   13.9662   24.9857   10.4110 C   0  0  0  0  0  0  0  0  0  0  0  0
   14.6291   24.4439    9.2777 C   0  0  0  0  0  0  0  0  0  0  0  0
   11.7989   24.0855    9.6112 C   0  0  0  0  0  0  0  0  0  0  0  0
   12.5584   24.8131   10.5558 C   0  0  0  0  0  0  0  0  0  0  0  0
   12.4852   23.5513    8.5111 C   0  0  0  0  0  0  0  0  0  0  0  0
   13.8524   23.7245    8.3584 C   0  0  0  0  0  0  0  0  0  0  0  0
   14.3280   22.9215    6.8726 S   0  0  0  0  0  0  0  0  0  0  0  0
   12.8009   22.3835    6.5150 N   0  0  0  0  0  0  0  0  0  0  0  0
   11.9354   22.7535    7.4027 C   0  0  0  0  0  0  0  0  0  0  0  0
   14.6991   23.9411    5.8708 O   0  0  0  0  0  0  0  0  0  0  0  0
   15.2587   21.8160    7.1426 O   0  0  0  0  0  0  0  0  0  0  0  0
   15.9532   27.4293   13.2578 N   0  0  0  0  0  0  0  0  0  0  0  0
   14.8454   26.5805   13.7189 C   0  0  0  0  0  0  0  0  0  0  0  0
   13.9210   26.2864   12.5062 C   0  0  0  0  0  0  0  0  0  0  0  0
   14.6365   25.6769   11.3641 N   0  0  0  0  0  0  0  0  0  0  0  0
   15.8866   26.3893   11.0670 C   0  0  0  0  0  0  0  0  0  0  0  0
   16.7592   26.6285   12.3214 C   0  0  0  0  0  0  0  0  0  0  0  0
   16.7532   27.9297   14.3851 C   0  0  0  0  0  0  0  0  0  0  0  0
   16.8239   32.2894   14.2809 C   0  0  0  0  0  0  0  0  0  0  0  0
   17.9715   31.5841   14.7110 C   0  0  0  0  0  0  0  0  0  0  0  0
   17.9818   30.1682   14.7602 C   0  0  0  0  0  0  0  0  0  0  0  0
   16.8176   29.4551   14.3380 C   0  0  0  0  0  0  0  0  0  0  0  0
   15.6629   30.1641   13.9188 C   0  0  0  0  0  0  0  0  0  0  0  0
   15.6682   31.5741   13.8901 C   0  0  0  0  0  0  0  0  0  0  0  0
   19.2543   29.5740   15.2254 C   0  0  0  0  0  0  0  0  0  0  0  0
   20.4651   29.7674   14.5132 C   0  0  0  0  0  0  0  0  0  0  0  0
   21.6818   29.2275   14.9906 C   0  0  0  0  0  0  0  0  0  0  0  0
   21.6986   28.4955   16.1935 C   0  0  0  0  0  0  0  0  0  0  0  0
   20.5026   28.2888   16.9151 C   0  0  0  0  0  0  0  0  0  0  0  0
   19.2859   28.8341   16.4359 C   0  0  0  0  0  0  0  0  0  0  0  0
   23.1835   27.8415   16.7868 Cl  0  0  0  0  0  0  0  0  0  0  0  0
   10.5762   22.4750    7.3865 N   0  0  0  0  0  0  0  0  0  0  0  0
   10.1585   22.1157    8.2024 H   0  0  0  0  0  0  0  0  0  0  0  0
    9.6034   22.7277    6.0182 S   0  0  0  0  0  0  0  0  0  0  0  0
   10.0755   24.0200    5.4977 O   0  0  0  0  0  0  0  0  0  0  0  0
    9.6938   21.4729    5.2425 O   0  0  0  0  0  0  0  0  0  0  0  0
    7.0714   21.8305    6.6839 C   0  0  0  0  0  0  0  0  0  0  0  0
    7.9392   22.9292    6.6127 C   0  0  0  0  0  0  0  0  0  0  0  0
    7.5362   24.2080    7.0213 C   0  0  0  0  0  0  0  0  0  0  0  0
    6.2338   24.4187    7.5234 C   0  0  0  0  0  0  0  0  0  0  0  0
    5.3301   23.3179    7.5884 C   0  0  0  0  0  0  0  0  0  0  0  0
    5.7734   22.0364    7.1675 C   0  0  0  0  0  0  0  0  0  0  0  0
    5.8754   25.7966    7.9193 N   0  0  0  0  0  0  0  0  0  0  0  0
    5.7048   26.6257    7.0312 O   0  0  0  0  0  0  0  0  0  0  0  0
    5.7156   26.0486    9.1054 O   0  0  0  0  0  0  0  0  0  0  0  0
    4.0676   23.4452    8.0578 N   0  0  0  0  0  0  0  0  0  0  0  0
    3.6537   24.3358    7.9886 H   0  0  0  0  0  0  0  0  0  0  0  0
    3.2594   22.3837    8.6588 C   0  0  0  0  0  0  0  0  0  0  0  0
    3.2743   22.4714   10.2090 C   0  0  0  0  0  0  0  0  0  0  0  0
    4.7971   23.1025   11.0128 S   0  0  0  0  0  0  0  0  0  0  0  0
    4.2963   24.2710   12.2257 C   0  0  0  0  0  0  0  0  0  0  0  0
    3.7437   25.5025   11.8303 C   0  0  0  0  0  0  0  0  0  0  0  0
    3.3479   26.4258   12.8183 C   0  0  0  0  0  0  0  0  0  0  0  0
    3.4941   26.1079   14.1845 C   0  0  0  0  0  0  0  0  0  0  0  0
    4.0490   24.8716   14.5731 C   0  0  0  0  0  0  0  0  0  0  0  0
    4.4477   23.9455   13.5897 C   0  0  0  0  0  0  0  0  0  0  0  0
    1.8088   22.3851    8.1311 C   0  0  0  0  0  0  0  0  0  0  0  0
    1.4639   23.5087    7.1363 C   0  0  0  0  0  0  0  0  0  0  0  0
    0.0139   23.7205    7.0927 N   0  0  0  0  0  0  0  0  0  0  0  0
   -0.6250   22.8967    8.1137 C   0  0  0  0  0  0  0  0  0  0  0  0
   -0.3356   25.1268    7.3035 C   0  0  0  0  0  0  0  0  0  0  0  0
 10  7  2  0  0  0
 23 24  2  0  0  0
 23 22  1  0  0  0
 24 19  1  0  0  0
 16 17  1  0  0  0
 16 15  1  0  0  0
  7  8  1  0  0  0
  7  6  1  0  0  0
  7 11  2  0  0  0
 36 34  2  0  0  0
  2  6  2  0  0  0
  2  1  1  0  0  0
  8  9  2  0  0  0
  6  5  1  0  0  0
 12 17  1  0  0  0
 12 18  1  0  0  0
 12 13  1  0  0  0
 18 22  1  0  0  0
  1 15  1  0  0  0
  1  4  2  0  0  0
 15 14  1  0  0  0
  9  5  1  0  0  0
  9 32  1  0  0  0
  5  3  2  0  0  0
 22 21  2  0  0  0
 19 20  2  0  0  0
 14 13  1  0  0  0
 32 34  1  0  0  0
  4  3  1  0  0  0
 34 35  2  0  0  0
 34 38  1  0  0  0
 21 20  1  0  0  0
 21 25  1  0  0  0
 37 38  2  0  0  0
 37 42  1  0  0  0
 38 39  1  0  0  0
 25 26  2  0  0  0
 25 30  1  0  0  0
 26 27  1  0  0  0
 42 41  2  0  0  0
 55 56  2  0  0  0
 55 54  1  0  0  0
 39 40  2  0  0  0
 56 51  1  0  0  0
 30 29  2  0  0  0
 27 28  2  0  0  0
 54 53  2  0  0  0
 41 40  1  0  0  0
 41 46  1  0  0  0
 49 48  1  0  0  0
 49 50  1  0  0  0
 40 43  1  0  0  0
 51 50  1  0  0  0
 51 52  2  0  0  0
 29 28  1  0  0  0
 48 46  1  0  0  0
 48 57  1  0  0  0
 28 31  1  0  0  0
 53 52  1  0  0  0
 43 45  1  0  0  0
 43 44  2  0  0  0
 57 58  1  0  0  0
 58 59  1  0  0  0
 61 59  1  0  0  0
 59 60  1  0  0  0
 46 47  1  0  0  0
 32 33  1  0  0  0
M  CHG 1  43   1
M  CHG 1  45  -1
M  END
> <minimizedAffinity>
-8.94551

$$$$
4IEH_1E9_A_201


 61 67  0  0  0  0  0  0  0  0999 V2000
   10.8520   23.9367    8.3298 C   0  0  0  0  0  0  0  0  0  0  0  0
   11.4916   23.4407    7.1626 C   0  0  0  0  0  0  0  0  0  0  0  0
   13.0108   23.9365    9.5493 C   0  0  0  0  0  0  0  0  0  0  0  0
   11.6160   24.1637    9.5120 C   0  0  0  0  0  0  0  0  0  0  0  0
   13.6145   23.4605    8.3764 C   0  0  0  0  0  0  0  0  0  0  0  0
   12.8759   23.2272    7.2265 C   0  0  0  0  0  0  0  0  0  0  0  0
   13.9791   22.6394    5.9952 S   0  0  0  0  0  0  0  0  0  0  0  0
   15.3225   22.7306    6.9629 N   0  0  0  0  0  0  0  0  0  0  0  0
   15.0371   23.1559    8.1511 C   0  0  0  0  0  0  0  0  0  0  0  0
   13.6982   21.2128    5.7373 O   0  0  0  0  0  0  0  0  0  0  0  0
   14.0480   23.5690    4.8584 O   0  0  0  0  0  0  0  0  0  0  0  0
    6.7240   24.8440    8.7290 N   0  0  0  0  0  0  0  0  0  0  0  0
    7.5325   25.6604    7.8125 C   0  0  0  0  0  0  0  0  0  0  0  0
    9.0146   25.5809    8.2694 C   0  0  0  0  0  0  0  0  0  0  0  0
    9.5223   24.1945    8.3573 N   0  0  0  0  0  0  0  0  0  0  0  0
    8.5793   23.3172    9.0642 C   0  0  0  0  0  0  0  0  0  0  0  0
    7.1293   23.4412    8.5406 C   0  0  0  0  0  0  0  0  0  0  0  0
    5.2855   25.0382    8.4963 C   0  0  0  0  0  0  0  0  0  0  0  0
    3.3252   21.1424    8.4422 C   0  0  0  0  0  0  0  0  0  0  0  0
    3.3918   21.8721    9.6516 C   0  0  0  0  0  0  0  0  0  0  0  0
    4.0240   23.1389    9.7055 C   0  0  0  0  0  0  0  0  0  0  0  0
    4.5721   23.6875    8.5052 C   0  0  0  0  0  0  0  0  0  0  0  0
    4.5157   22.9491    7.2956 C   0  0  0  0  0  0  0  0  0  0  0  0
    3.8941   21.6835    7.2660 C   0  0  0  0  0  0  0  0  0  0  0  0
    4.0094   23.7820   11.0378 C   0  0  0  0  0  0  0  0  0  0  0  0
    4.4510   23.0940   12.1963 C   0  0  0  0  0  0  0  0  0  0  0  0
    4.4697   23.7339   13.4572 C   0  0  0  0  0  0  0  0  0  0  0  0
    4.0542   25.0749   13.5678 C   0  0  0  0  0  0  0  0  0  0  0  0
    3.6073   25.7758   12.4264 C   0  0  0  0  0  0  0  0  0  0  0  0
    3.5933   25.1328   11.1640 C   0  0  0  0  0  0  0  0  0  0  0  0
    4.0837   25.8651   15.1039 Cl  0  0  0  0  0  0  0  0  0  0  0  0
   15.9343   23.3317    9.1948 N   0  0  0  0  0  0  0  0  0  0  0  0
   15.8209   22.7920   10.0103 H   0  0  0  0  0  0  0  0  0  0  0  0
   17.2195   24.4390    9.1243 S   0  0  0  0  0  0  0  0  0  0  0  0
   18.3789   23.5955    8.7954 O   0  0  0  0  0  0  0  0  0  0  0  0
   16.7457   25.5253    8.2412 O   0  0  0  0  0  0  0  0  0  0  0  0
   17.8797   26.3858   10.9771 C   0  0  0  0  0  0  0  0  0  0  0  0
   17.4290   25.0742   10.7723 C   0  0  0  0  0  0  0  0  0  0  0  0
   17.1128   24.2327   11.8477 C   0  0  0  0  0  0  0  0  0  0  0  0
   17.2386   24.6945   13.1756 C   0  0  0  0  0  0  0  0  0  0  0  0
   17.7112   26.0198   13.4061 C   0  0  0  0  0  0  0  0  0  0  0  0
   18.0203   26.8447   12.2927 C   0  0  0  0  0  0  0  0  0  0  0  0
   16.9026   23.7455   14.2574 N   0  0  0  0  0  0  0  0  0  0  0  0
   16.9784   24.1415   15.4161 O   0  0  0  0  0  0  0  0  0  0  0  0
   16.5179   22.6229   13.9611 O   0  0  0  0  0  0  0  0  0  0  0  0
   17.8567   26.5296   14.6509 N   0  0  0  0  0  0  0  0  0  0  0  0
   18.5807   26.1563   15.2039 H   0  0  0  0  0  0  0  0  0  0  0  0
   17.0392   27.5836   15.2525 C   0  0  0  0  0  0  0  0  0  0  0  0
   17.5896   28.9932   14.9048 C   0  0  0  0  0  0  0  0  0  0  0  0
   18.9532   29.6547   15.9374 S   0  0  0  0  0  0  0  0  0  0  0  0
   20.4462   28.9475   15.3387 C   0  0  0  0  0  0  0  0  0  0  0  0
   20.6880   28.8817   13.9546 C   0  0  0  0  0  0  0  0  0  0  0  0
   21.8914   28.3113   13.4947 C   0  0  0  0  0  0  0  0  0  0  0  0
   22.8432   27.8264   14.4157 C   0  0  0  0  0  0  0  0  0  0  0  0
   22.5936   27.8956   15.8014 C   0  0  0  0  0  0  0  0  0  0  0  0
   21.3917   28.4636   16.2667 C   0  0  0  0  0  0  0  0  0  0  0  0
   15.5529   27.4695   14.8518 C   0  0  0  0  0  0  0  0  0  0  0  0
   15.0985   28.3981   13.7104 C   0  0  0  0  0  0  0  0  0  0  0  0
   14.4297   27.6227   12.6612 N   0  0  0  0  0  0  0  0  0  0  0  0
   13.9933   26.3432   13.2106 C   0  0  0  0  0  0  0  0  0  0  0  0
   13.2797   28.3395   12.1065 C   0  0  0  0  0  0  0  0  0  0  0  0
 10  7  2  0  0  0
 23 24  2  0  0  0
 23 22  1  0  0  0
 24 19  1  0  0  0
 16 17  1  0  0  0
 16 15  1  0  0  0
  7  8  1  0  0  0
  7  6  1  0  0  0
  7 11  2  0  0  0
 36 34  2  0  0  0
  2  6  2  0  0  0
  2  1  1  0  0  0
  8  9  2  0  0  0
  6  5  1  0  0  0
 12 17  1  0  0  0
 12 18  1  0  0  0
 12 13  1  0  0  0
 18 22  1  0  0  0
  1 15  1  0  0  0
  1  4  2  0  0  0
 15 14  1  0  0  0
  9  5  1  0  0  0
  9 32  1  0  0  0
  5  3  2  0  0  0
 22 21  2  0  0  0
 19 20  2  0  0  0
 14 13  1  0  0  0
 32 34  1  0  0  0
  4  3  1  0  0  0
 34 35  2  0  0  0
 34 38  1  0  0  0
 21 20  1  0  0  0
 21 25  1  0  0  0
 37 38  2  0  0  0
 37 42  1  0  0  0
 38 39  1  0  0  0
 25 26  2  0  0  0
 25 30  1  0  0  0
 26 27  1  0  0  0
 42 41  2  0  0  0
 55 56  2  0  0  0
 55 54  1  0  0  0
 39 40  2  0  0  0
 56 51  1  0  0  0
 30 29  2  0  0  0
 27 28  2  0  0  0
 54 53  2  0  0  0
 41 40  1  0  0  0
 41 46  1  0  0  0
 49 48  1  0  0  0
 49 50  1  0  0  0
 40 43  1  0  0  0
 51 50  1  0  0  0
 51 52  2  0  0  0
 29 28  1  0  0  0
 48 46  1  0  0  0
 48 57  1  0  0  0
 28 31  1  0  0  0
 53 52  1  0  0  0
 43 45  1  0  0  0
 43 44  2  0  0  0
 57 58  1  0  0  0
 58 59  1  0  0  0
 61 59  1  0  0  0
 59 60  1  0  0  0
 46 47  1  0  0  0
 32 33  1  0  0  0
M  CHG 1  43   1
M  CHG 1  45  -1
M  END
> <minimizedAffinity>
-8.94035

$$$$
4IEH_1E9_A_201


 61 67  0  0  0  0  0  0  0  0999 V2000
   10.6861   24.1884    7.7551 C   0  0  0  0  0  0  0  0  0  0  0  0
   11.5597   25.2470    7.3895 C   0  0  0  0  0  0  0  0  0  0  0  0
   12.5972   22.8731    8.6298 C   0  0  0  0  0  0  0  0  0  0  0  0
   11.2170   23.0096    8.3561 C   0  0  0  0  0  0  0  0  0  0  0  0
   13.4310   23.9416    8.2698 C   0  0  0  0  0  0  0  0  0  0  0  0
   12.9230   25.0865    7.6751 C   0  0  0  0  0  0  0  0  0  0  0  0
   14.2680   26.1732    7.3771 S   0  0  0  0  0  0  0  0  0  0  0  0
   15.4073   25.1599    8.0287 N   0  0  0  0  0  0  0  0  0  0  0  0
   14.8874   24.0536    8.4530 C   0  0  0  0  0  0  0  0  0  0  0  0
   14.5085   26.2553    5.9224 O   0  0  0  0  0  0  0  0  0  0  0  0
   14.1242   27.4173    8.1469 O   0  0  0  0  0  0  0  0  0  0  0  0
    6.5213   24.7414    7.1453 N   0  0  0  0  0  0  0  0  0  0  0  0
    7.3550   24.3869    5.9880 C   0  0  0  0  0  0  0  0  0  0  0  0
    8.8131   24.8314    6.2848 C   0  0  0  0  0  0  0  0  0  0  0  0
    9.3506   24.2616    7.5394 N   0  0  0  0  0  0  0  0  0  0  0  0
    8.3949   24.3961    8.6473 C   0  0  0  0  0  0  0  0  0  0  0  0
    6.9712   23.9170    8.2791 C   0  0  0  0  0  0  0  0  0  0  0  0
    5.0923   24.5506    6.8578 C   0  0  0  0  0  0  0  0  0  0  0  0
    3.3077   21.7761    9.7109 C   0  0  0  0  0  0  0  0  0  0  0  0
    3.8003   21.2875    8.4788 C   0  0  0  0  0  0  0  0  0  0  0  0
    4.3829   22.1613    7.5278 C   0  0  0  0  0  0  0  0  0  0  0  0
    4.4941   23.5502    7.8451 C   0  0  0  0  0  0  0  0  0  0  0  0
    3.9884   24.0410    9.0759 C   0  0  0  0  0  0  0  0  0  0  0  0
    3.3994   23.1567   10.0034 C   0  0  0  0  0  0  0  0  0  0  0  0
    4.8563   21.5030    6.2904 C   0  0  0  0  0  0  0  0  0  0  0  0
    4.1086   21.5642    5.0872 C   0  0  0  0  0  0  0  0  0  0  0  0
    4.5920   20.9648    3.9012 C   0  0  0  0  0  0  0  0  0  0  0  0
    5.8363   20.3052    3.9071 C   0  0  0  0  0  0  0  0  0  0  0  0
    6.5939   20.2301    5.0964 C   0  0  0  0  0  0  0  0  0  0  0  0
    6.1082   20.8349    6.2820 C   0  0  0  0  0  0  0  0  0  0  0  0
    6.4367   19.5792    2.4590 Cl  0  0  0  0  0  0  0  0  0  0  0  0
   15.5731   22.9985    9.0376 N   0  0  0  0  0  0  0  0  0  0  0  0
   15.0712   22.1877    9.2825 H   0  0  0  0  0  0  0  0  0  0  0  0
   17.2416   23.0472    9.3481 S   0  0  0  0  0  0  0  0  0  0  0  0
   17.5276   21.7090    9.8877 O   0  0  0  0  0  0  0  0  0  0  0  0
   17.8523   23.5531    8.1009 O   0  0  0  0  0  0  0  0  0  0  0  0
   16.9795   24.0062   11.9309 C   0  0  0  0  0  0  0  0  0  0  0  0
   17.4789   24.2436   10.6426 C   0  0  0  0  0  0  0  0  0  0  0  0
   18.1918   25.4112   10.3377 C   0  0  0  0  0  0  0  0  0  0  0  0
   18.4290   26.3827   11.3340 C   0  0  0  0  0  0  0  0  0  0  0  0
   17.9152   26.1684   12.6465 C   0  0  0  0  0  0  0  0  0  0  0  0
   17.1991   24.9732   12.9197 C   0  0  0  0  0  0  0  0  0  0  0  0
   19.1737   27.5949   10.9342 N   0  0  0  0  0  0  0  0  0  0  0  0
   18.6045   28.4105   10.2158 O   0  0  0  0  0  0  0  0  0  0  0  0
   20.3043   27.7646   11.3685 O   0  0  0  0  0  0  0  0  0  0  0  0
   18.1035   27.0553   13.6508 N   0  0  0  0  0  0  0  0  0  0  0  0
   18.5408   26.7193   14.4663 H   0  0  0  0  0  0  0  0  0  0  0  0
   17.7182   28.4669   13.6387 C   0  0  0  0  0  0  0  0  0  0  0  0
   16.3883   28.6960   14.4066 C   0  0  0  0  0  0  0  0  0  0  0  0
   14.8781   29.0213   13.4183 S   0  0  0  0  0  0  0  0  0  0  0  0
   14.2092   27.4608   12.9658 C   0  0  0  0  0  0  0  0  0  0  0  0
   14.0963   26.4387   13.9255 C   0  0  0  0  0  0  0  0  0  0  0  0
   13.5569   25.1946   13.5428 C   0  0  0  0  0  0  0  0  0  0  0  0
   13.1251   24.9874   12.2162 C   0  0  0  0  0  0  0  0  0  0  0  0
   13.2416   26.0166   11.2599 C   0  0  0  0  0  0  0  0  0  0  0  0
   13.7814   27.2617   11.6366 C   0  0  0  0  0  0  0  0  0  0  0  0
   18.8299   29.3799   14.1983 C   0  0  0  0  0  0  0  0  0  0  0  0
   19.0100   29.3480   15.7273 C   0  0  0  0  0  0  0  0  0  0  0  0
   19.5558   28.0538   16.1472 N   0  0  0  0  0  0  0  0  0  0  0  0
   20.9103   28.2435   16.6560 C   0  0  0  0  0  0  0  0  0  0  0  0
   18.7262   27.4230   17.1756 C   0  0  0  0  0  0  0  0  0  0  0  0
 10  7  2  0  0  0
 23 24  2  0  0  0
 23 22  1  0  0  0
 24 19  1  0  0  0
 16 17  1  0  0  0
 16 15  1  0  0  0
  7  8  1  0  0  0
  7  6  1  0  0  0
  7 11  2  0  0  0
 36 34  2  0  0  0
  2  6  2  0  0  0
  2  1  1  0  0  0
  8  9  2  0  0  0
  6  5  1  0  0  0
 12 17  1  0  0  0
 12 18  1  0  0  0
 12 13  1  0  0  0
 18 22  1  0  0  0
  1 15  1  0  0  0
  1  4  2  0  0  0
 15 14  1  0  0  0
  9  5  1  0  0  0
  9 32  1  0  0  0
  5  3  2  0  0  0
 22 21  2  0  0  0
 19 20  2  0  0  0
 14 13  1  0  0  0
 32 34  1  0  0  0
  4  3  1  0  0  0
 34 35  2  0  0  0
 34 38  1  0  0  0
 21 20  1  0  0  0
 21 25  1  0  0  0
 37 38  2  0  0  0
 37 42  1  0  0  0
 38 39  1  0  0  0
 25 26  2  0  0  0
 25 30  1  0  0  0
 26 27  1  0  0  0
 42 41  2  0  0  0
 55 56  2  0  0  0
 55 54  1  0  0  0
 39 40  2  0  0  0
 56 51  1  0  0  0
 30 29  2  0  0  0
 27 28  2  0  0  0
 54 53  2  0  0  0
 41 40  1  0  0  0
 41 46  1  0  0  0
 49 48  1  0  0  0
 49 50  1  0  0  0
 40 43  1  0  0  0
 51 50  1  0  0  0
 51 52  2  0  0  0
 29 28  1  0  0  0
 48 46  1  0  0  0
 48 57  1  0  0  0
 28 31  1  0  0  0
 53 52  1  0  0  0
 43 45  1  0  0  0
 43 44  2  0  0  0
 57 58  1  0  0  0
 58 59  1  0  0  0
 61 59  1  0  0  0
 59 60  1  0  0  0
 46 47  1  0  0  0
 32 33  1  0  0  0
M  CHG 1  43   1
M  CHG 1  45  -1
M  END
> <minimizedAffinity>
-8.82986

$$$$
