4XMB_41P_A_701


 46 49  0  0  0  0  0  0  0  0999 V2000
    3.2195   -0.7432  -22.1531 C   0  0  0  0  0  0  0  0  0  0  0  0
    4.4689   -0.4104  -22.6869 C   0  0  0  0  0  0  0  0  0  0  0  0
    5.0660    0.8644  -22.3826 C   0  0  0  0  0  0  0  0  0  0  0  0
    4.4137    1.7377  -21.5622 C   0  0  0  0  0  0  0  0  0  0  0  0
    3.1246    1.4077  -21.0222 C   0  0  0  0  0  0  0  0  0  0  0  0
    2.5407    0.1561  -21.3203 C   0  0  0  0  0  0  0  0  0  0  0  0
    1.2876   -0.1768  -20.7832 C   0  0  0  0  0  0  0  0  0  0  0  0
    0.6103    0.7325  -19.9513 C   0  0  0  0  0  0  0  0  0  0  0  0
    1.2034    2.0091  -19.6455 C   0  0  0  0  0  0  0  0  0  0  0  0
    2.4319    2.3381  -20.1690 C   0  0  0  0  0  0  0  0  0  0  0  0
    2.6614   -2.0608  -22.5008 N   0  0  0  0  0  0  0  0  0  0  0  0
    1.8788   -2.2351  -23.9293 S   0  0  0  0  0  0  0  0  0  0  0  0
    1.3291   -3.5952  -24.0902 O   0  0  0  0  0  0  0  0  0  0  0  0
    0.6820   -1.4399  -23.9962 O   0  0  0  0  0  0  0  0  0  0  0  0
    4.8065   -1.1192  -27.4179 C   0  0  0  0  0  0  0  0  0  0  0  0
    4.6380   -2.5120  -26.9766 C   0  0  0  0  0  0  0  0  0  0  0  0
    3.7269   -2.8242  -25.9022 C   0  0  0  0  0  0  0  0  0  0  0  0
    4.1058   -0.1275  -26.8089 C   0  0  0  0  0  0  0  0  0  0  0  0
    3.1842   -0.4474  -25.7163 C   0  0  0  0  0  0  0  0  0  0  0  0
    3.0181   -1.8230  -25.2905 C   0  0  0  0  0  0  0  0  0  0  0  0
    5.6925   -1.5784  -29.6680 C   0  0  0  0  0  0  0  0  0  0  0  0
    5.7153   -0.8172  -28.4873 O   0  0  0  0  0  0  0  0  0  0  0  0
    2.8797   -3.1631  -21.5806 C   0  0  0  0  0  0  0  0  0  0  0  0
    1.6657   -3.8075  -20.8623 C   0  0  0  0  0  0  0  0  0  0  0  0
    1.8529   -5.0389  -20.1299 N   0  0  0  0  0  0  0  0  0  0  0  0
    0.6331   -3.3069  -20.9078 O   0  0  0  0  0  0  0  0  0  0  0  0
    2.7415   -5.4614  -20.0961 H   0  0  0  0  0  0  0  0  0  0  0  0
    1.0918   -5.4555  -19.6646 H   0  0  0  0  0  0  0  0  0  0  0  0
    5.0324    3.0073  -21.3107 N   0  0  0  0  0  0  0  0  0  0  0  0
    4.6099    4.2053  -22.3397 S   0  0  0  0  0  0  0  0  0  0  0  0
    4.8538    5.4904  -21.7929 O   0  0  0  0  0  0  0  0  0  0  0  0
    3.1881    4.2578  -22.6082 O   0  0  0  0  0  0  0  0  0  0  0  0
    5.5489    3.8901  -23.8530 C   0  0  0  0  0  0  0  0  0  0  0  0
    6.8930    4.0942  -23.8686 C   0  0  0  0  0  0  0  0  0  0  0  0
    7.6142    3.8424  -25.0196 C   0  0  0  0  0  0  0  0  0  0  0  0
    6.9672    3.3699  -26.1650 C   0  0  0  0  0  0  0  0  0  0  0  0
    5.6178    3.1541  -26.1521 C   0  0  0  0  0  0  0  0  0  0  0  0
    4.8925    3.4026  -25.0051 C   0  0  0  0  0  0  0  0  0  0  0  0
    7.6888    3.1287  -27.2865 O   0  0  0  0  0  0  0  0  0  0  0  0
    7.8847    1.7886  -27.7042 C   0  0  0  0  0  0  0  0  0  0  0  0
    6.0374    3.2071  -20.2636 C   0  0  0  0  0  0  0  0  0  0  0  0
    5.8154    2.6817  -18.9301 C   0  0  0  0  0  0  0  0  0  0  0  0
    5.1640    3.5326  -17.9177 N   0  0  0  0  0  0  0  0  0  0  0  0
    6.1589    1.5944  -18.6580 O   0  0  0  0  0  0  0  0  0  0  0  0
    4.8777    4.4450  -18.1520 H   0  0  0  0  0  0  0  0  0  0  0  0
    5.0154    3.1886  -17.0074 H   0  0  0  0  0  0  0  0  0  0  0  0
 21 22  1  0  0  0
 22 15  1  0  0  0
 15 18  2  0  0  0
 15 16  1  0  0  0
 39 40  1  0  0  0
 39 36  1  0  0  0
 18 19  1  0  0  0
 16 17  2  0  0  0
 36 37  2  0  0  0
 36 35  1  0  0  0
 19 20  2  0  0  0
 17 20  1  0  0  0
 37 38  1  0  0  0
 20 12  1  0  0  0
 35 34  2  0  0  0
 38 33  2  0  0  0
 14 12  2  0  0  0
 13 12  2  0  0  0
 12 11  1  0  0  0
 34 33  1  0  0  0
 33 30  1  0  0  0
  2  3  2  0  0  0
  2  1  1  0  0  0
 32 30  2  0  0  0
 11  1  1  0  0  0
 11 23  1  0  0  0
 30 31  2  0  0  0
 30 29  1  0  0  0
  3  4  1  0  0  0
  1  6  2  0  0  0
 23 24  1  0  0  0
  4 29  1  0  0  0
  4  5  2  0  0  0
  6  5  1  0  0  0
  6  7  1  0  0  0
 29 41  1  0  0  0
  5 10  1  0  0  0
 26 24  2  0  0  0
  7  8  2  0  0  0
 24 25  1  0  0  0
 10  9  2  0  0  0
  8  9  1  0  0  0
 41 42  1  0  0  0
 42 44  2  0  0  0
 42 43  1  0  0  0
 25 27  1  0  0  0
 25 28  1  0  0  0
 43 45  1  0  0  0
 43 46  1  0  0  0
M  END
> <minimizedAffinity>
-10.77131

$$$$
4XMB_41P_A_701


 46 49  0  0  0  0  0  0  0  0999 V2000
    2.8222   -0.9820  -21.9608 C   0  0  0  0  0  0  0  0  0  0  0  0
    4.0478   -0.7610  -22.5978 C   0  0  0  0  0  0  0  0  0  0  0  0
    4.7544    0.4768  -22.3909 C   0  0  0  0  0  0  0  0  0  0  0  0
    4.2292    1.4244  -21.5619 C   0  0  0  0  0  0  0  0  0  0  0  0
    2.9649    1.2093  -20.9158 C   0  0  0  0  0  0  0  0  0  0  0  0
    2.2734   -0.0061  -21.1184 C   0  0  0  0  0  0  0  0  0  0  0  0
    1.0445   -0.2269  -20.4778 C   0  0  0  0  0  0  0  0  0  0  0  0
    0.4979    0.7589  -19.6369 C   0  0  0  0  0  0  0  0  0  0  0  0
    1.2008    1.9988  -19.4284 C   0  0  0  0  0  0  0  0  0  0  0  0
    2.4061    2.2180  -20.0535 C   0  0  0  0  0  0  0  0  0  0  0  0
    2.1481   -2.2669  -22.2119 N   0  0  0  0  0  0  0  0  0  0  0  0
    2.5577   -3.5651  -21.3007 S   0  0  0  0  0  0  0  0  0  0  0  0
    2.9275   -3.1748  -19.9264 O   0  0  0  0  0  0  0  0  0  0  0  0
    1.4375   -4.4330  -21.0531 O   0  0  0  0  0  0  0  0  0  0  0  0
    6.0587   -5.8371  -23.4379 C   0  0  0  0  0  0  0  0  0  0  0  0
    5.6386   -6.1894  -22.0732 C   0  0  0  0  0  0  0  0  0  0  0  0
    4.5555   -5.4737  -21.4433 C   0  0  0  0  0  0  0  0  0  0  0  0
    5.4275   -4.8340  -24.1020 C   0  0  0  0  0  0  0  0  0  0  0  0
    4.3306   -4.1074  -23.4584 C   0  0  0  0  0  0  0  0  0  0  0  0
    3.9174   -4.4638  -22.1155 C   0  0  0  0  0  0  0  0  0  0  0  0
    7.0201   -6.9940  -25.3863 C   0  0  0  0  0  0  0  0  0  0  0  0
    7.1374   -6.5538  -24.0572 O   0  0  0  0  0  0  0  0  0  0  0  0
    1.1073   -2.3095  -23.2241 C   0  0  0  0  0  0  0  0  0  0  0  0
    1.0808   -1.2281  -24.3353 C   0  0  0  0  0  0  0  0  0  0  0  0
    1.8783   -1.4205  -25.5247 N   0  0  0  0  0  0  0  0  0  0  0  0
    0.4293   -0.2899  -24.2151 O   0  0  0  0  0  0  0  0  0  0  0  0
    2.4339   -2.2276  -25.6196 H   0  0  0  0  0  0  0  0  0  0  0  0
    1.8660   -0.7444  -26.2403 H   0  0  0  0  0  0  0  0  0  0  0  0
    4.9530    2.6536  -21.4090 N   0  0  0  0  0  0  0  0  0  0  0  0
    4.4854    3.8664  -22.4004 S   0  0  0  0  0  0  0  0  0  0  0  0
    4.6556    5.1409  -21.8031 O   0  0  0  0  0  0  0  0  0  0  0  0
    3.0669    3.8574  -22.6905 O   0  0  0  0  0  0  0  0  0  0  0  0
    5.4615    3.6555  -23.9084 C   0  0  0  0  0  0  0  0  0  0  0  0
    6.7722    4.0163  -23.9203 C   0  0  0  0  0  0  0  0  0  0  0  0
    7.5230    3.8446  -25.0672 C   0  0  0  0  0  0  0  0  0  0  0  0
    6.9410    3.2929  -26.2121 C   0  0  0  0  0  0  0  0  0  0  0  0
    5.6264    2.9198  -26.2027 C   0  0  0  0  0  0  0  0  0  0  0  0
    4.8720    3.0876  -25.0599 C   0  0  0  0  0  0  0  0  0  0  0  0
    7.6908    3.1320  -27.3294 O   0  0  0  0  0  0  0  0  0  0  0  0
    7.9287    1.8224  -27.8164 C   0  0  0  0  0  0  0  0  0  0  0  0
    6.0881    2.7979  -20.4942 C   0  0  0  0  0  0  0  0  0  0  0  0
    5.9319    2.4942  -19.0846 C   0  0  0  0  0  0  0  0  0  0  0  0
    5.1746    3.4224  -18.2254 N   0  0  0  0  0  0  0  0  0  0  0  0
    6.4110    1.5248  -18.6318 O   0  0  0  0  0  0  0  0  0  0  0  0
    4.7745    4.2349  -18.6113 H   0  0  0  0  0  0  0  0  0  0  0  0
    5.0690    3.2296  -17.2658 H   0  0  0  0  0  0  0  0  0  0  0  0
 21 22  1  0  0  0
 22 15  1  0  0  0
 15 18  2  0  0  0
 15 16  1  0  0  0
 39 40  1  0  0  0
 39 36  1  0  0  0
 18 19  1  0  0  0
 16 17  2  0  0  0
 36 37  2  0  0  0
 36 35  1  0  0  0
 19 20  2  0  0  0
 17 20  1  0  0  0
 37 38  1  0  0  0
 20 12  1  0  0  0
 35 34  2  0  0  0
 38 33  2  0  0  0
 14 12  2  0  0  0
 13 12  2  0  0  0
 12 11  1  0  0  0
 34 33  1  0  0  0
 33 30  1  0  0  0
  2  3  2  0  0  0
  2  1  1  0  0  0
 32 30  2  0  0  0
 11  1  1  0  0  0
 11 23  1  0  0  0
 30 31  2  0  0  0
 30 29  1  0  0  0
  3  4  1  0  0  0
  1  6  2  0  0  0
 23 24  1  0  0  0
  4 29  1  0  0  0
  4  5  2  0  0  0
  6  5  1  0  0  0
  6  7  1  0  0  0
 29 41  1  0  0  0
  5 10  1  0  0  0
 26 24  2  0  0  0
  7  8  2  0  0  0
 24 25  1  0  0  0
 10  9  2  0  0  0
  8  9  1  0  0  0
 41 42  1  0  0  0
 42 44  2  0  0  0
 42 43  1  0  0  0
 25 27  1  0  0  0
 25 28  1  0  0  0
 43 45  1  0  0  0
 43 46  1  0  0  0
M  END
> <minimizedAffinity>
-10.18995

$$$$
4XMB_41P_A_701


 46 49  0  0  0  0  0  0  0  0999 V2000
    4.4316    1.5577  -21.6877 C   0  0  0  0  0  0  0  0  0  0  0  0
    4.8522    0.4521  -22.4343 C   0  0  0  0  0  0  0  0  0  0  0  0
    3.9654   -0.6659  -22.6282 C   0  0  0  0  0  0  0  0  0  0  0  0
    2.7113   -0.6348  -22.0920 C   0  0  0  0  0  0  0  0  0  0  0  0
    2.2783    0.4912  -21.3130 C   0  0  0  0  0  0  0  0  0  0  0  0
    3.1488    1.5881  -21.1248 C   0  0  0  0  0  0  0  0  0  0  0  0
    2.7250    2.6971  -20.3765 C   0  0  0  0  0  0  0  0  0  0  0  0
    1.4375    2.7187  -19.8111 C   0  0  0  0  0  0  0  0  0  0  0  0
    0.5479    1.6020  -20.0016 C   0  0  0  0  0  0  0  0  0  0  0  0
    0.9594    0.5141  -20.7356 C   0  0  0  0  0  0  0  0  0  0  0  0
    5.3835    2.6694  -21.5248 N   0  0  0  0  0  0  0  0  0  0  0  0
    5.2125    3.9997  -22.4652 S   0  0  0  0  0  0  0  0  0  0  0  0
    3.7953    4.3796  -22.6242 O   0  0  0  0  0  0  0  0  0  0  0  0
    5.7504    5.1801  -21.8433 O   0  0  0  0  0  0  0  0  0  0  0  0
    7.2777    3.2188  -26.6019 C   0  0  0  0  0  0  0  0  0  0  0  0
    5.8400    2.9777  -26.4069 C   0  0  0  0  0  0  0  0  0  0  0  0
    5.2327    3.2305  -25.1227 C   0  0  0  0  0  0  0  0  0  0  0  0
    8.0327    3.6760  -25.5692 C   0  0  0  0  0  0  0  0  0  0  0  0
    7.4137    3.9285  -24.2659 C   0  0  0  0  0  0  0  0  0  0  0  0
    5.9950    3.6947  -24.0823 C   0  0  0  0  0  0  0  0  0  0  0  0
    8.8645    3.8263  -28.3828 C   0  0  0  0  0  0  0  0  0  0  0  0
    7.8741    2.9643  -27.8826 O   0  0  0  0  0  0  0  0  0  0  0  0
    6.4012    2.5561  -20.4948 C   0  0  0  0  0  0  0  0  0  0  0  0
    5.9769    2.5411  -19.0032 C   0  0  0  0  0  0  0  0  0  0  0  0
    5.4798    3.7564  -18.4000 N   0  0  0  0  0  0  0  0  0  0  0  0
    6.0514    1.5733  -18.3895 O   0  0  0  0  0  0  0  0  0  0  0  0
    5.4192    4.5816  -18.9335 H   0  0  0  0  0  0  0  0  0  0  0  0
    5.2017    3.7592  -17.4557 H   0  0  0  0  0  0  0  0  0  0  0  0
    1.8732   -1.7829  -22.2856 N   0  0  0  0  0  0  0  0  0  0  0  0
    1.2450   -1.9430  -23.7864 S   0  0  0  0  0  0  0  0  0  0  0  0
    0.6328   -0.7474  -24.2400 O   0  0  0  0  0  0  0  0  0  0  0  0
    0.1484   -2.8862  -23.8530 O   0  0  0  0  0  0  0  0  0  0  0  0
    2.6249   -2.4716  -24.8293 C   0  0  0  0  0  0  0  0  0  0  0  0
    3.3662   -3.5535  -24.4711 C   0  0  0  0  0  0  0  0  0  0  0  0
    4.4129   -3.9666  -25.2724 C   0  0  0  0  0  0  0  0  0  0  0  0
    4.7060   -3.2807  -26.4546 C   0  0  0  0  0  0  0  0  0  0  0  0
    3.9582   -2.1981  -26.8242 C   0  0  0  0  0  0  0  0  0  0  0  0
    2.9109   -1.7818  -26.0286 C   0  0  0  0  0  0  0  0  0  0  0  0
    5.7368   -3.6979  -27.2292 O   0  0  0  0  0  0  0  0  0  0  0  0
    5.7819   -3.2993  -28.5886 C   0  0  0  0  0  0  0  0  0  0  0  0
    1.5281   -2.7057  -21.2014 C   0  0  0  0  0  0  0  0  0  0  0  0
    2.3717   -3.8522  -20.9233 C   0  0  0  0  0  0  0  0  0  0  0  0
    1.7846   -5.0419  -20.2805 N   0  0  0  0  0  0  0  0  0  0  0  0
    3.5109   -3.8290  -21.1989 O   0  0  0  0  0  0  0  0  0  0  0  0
    0.8273   -5.0557  -20.0513 H   0  0  0  0  0  0  0  0  0  0  0  0
    2.3500   -5.8227  -20.0805 H   0  0  0  0  0  0  0  0  0  0  0  0
 21 22  1  0  0  0
 22 15  1  0  0  0
 15 18  2  0  0  0
 15 16  1  0  0  0
 39 40  1  0  0  0
 39 36  1  0  0  0
 18 19  1  0  0  0
 16 17  2  0  0  0
 36 37  2  0  0  0
 36 35  1  0  0  0
 19 20  2  0  0  0
 17 20  1  0  0  0
 37 38  1  0  0  0
 20 12  1  0  0  0
 35 34  2  0  0  0
 38 33  2  0  0  0
 14 12  2  0  0  0
 13 12  2  0  0  0
 12 11  1  0  0  0
 34 33  1  0  0  0
 33 30  1  0  0  0
  2  3  2  0  0  0
  2  1  1  0  0  0
 32 30  2  0  0  0
 11  1  1  0  0  0
 11 23  1  0  0  0
 30 31  2  0  0  0
 30 29  1  0  0  0
  3  4  1  0  0  0
  1  6  2  0  0  0
 23 24  1  0  0  0
  4 29  1  0  0  0
  4  5  2  0  0  0
  6  5  1  0  0  0
  6  7  1  0  0  0
 29 41  1  0  0  0
  5 10  1  0  0  0
 26 24  2  0  0  0
  7  8  2  0  0  0
 24 25  1  0  0  0
 10  9  2  0  0  0
  8  9  1  0  0  0
 41 42  1  0  0  0
 42 44  2  0  0  0
 42 43  1  0  0  0
 25 27  1  0  0  0
 25 28  1  0  0  0
 43 45  1  0  0  0
 43 46  1  0  0  0
M  END
> <minimizedAffinity>
-10.17849

$$$$
4XMB_41P_A_701


 46 49  0  0  0  0  0  0  0  0999 V2000
    3.5534    1.8624  -21.0097 C   0  0  0  0  0  0  0  0  0  0  0  0
    4.3734    1.1838  -21.9174 C   0  0  0  0  0  0  0  0  0  0  0  0
    3.9881   -0.1156  -22.4043 C   0  0  0  0  0  0  0  0  0  0  0  0
    2.8154   -0.6736  -21.9865 C   0  0  0  0  0  0  0  0  0  0  0  0
    1.9760    0.0119  -21.0442 C   0  0  0  0  0  0  0  0  0  0  0  0
    2.3544    1.2872  -20.5684 C   0  0  0  0  0  0  0  0  0  0  0  0
    1.5302    1.9674  -19.6587 C   0  0  0  0  0  0  0  0  0  0  0  0
    0.3301    1.3820  -19.2172 C   0  0  0  0  0  0  0  0  0  0  0  0
   -0.0582    0.0819  -19.7007 C   0  0  0  0  0  0  0  0  0  0  0  0
    0.7464   -0.5867  -20.5934 C   0  0  0  0  0  0  0  0  0  0  0  0
    4.0014    3.1872  -20.5485 N   0  0  0  0  0  0  0  0  0  0  0  0
    4.0601    4.4202  -21.6254 S   0  0  0  0  0  0  0  0  0  0  0  0
    2.8138    4.5226  -22.4092 O   0  0  0  0  0  0  0  0  0  0  0  0
    4.0918    5.7060  -20.9812 O   0  0  0  0  0  0  0  0  0  0  0  0
    7.7395    3.8468  -24.4750 C   0  0  0  0  0  0  0  0  0  0  0  0
    7.9179    4.1264  -23.0421 C   0  0  0  0  0  0  0  0  0  0  0  0
    6.7656    4.2948  -22.1900 C   0  0  0  0  0  0  0  0  0  0  0  0
    6.4880    3.7517  -24.9947 C   0  0  0  0  0  0  0  0  0  0  0  0
    5.3205    3.9265  -24.1276 C   0  0  0  0  0  0  0  0  0  0  0  0
    5.5033    4.1956  -22.7150 C   0  0  0  0  0  0  0  0  0  0  0  0
    8.7312    3.3891  -26.6808 C   0  0  0  0  0  0  0  0  0  0  0  0
    8.8911    3.6810  -25.3158 O   0  0  0  0  0  0  0  0  0  0  0  0
    4.3195    3.3525  -19.1410 C   0  0  0  0  0  0  0  0  0  0  0  0
    5.7494    3.0228  -18.6395 C   0  0  0  0  0  0  0  0  0  0  0  0
    6.5117    1.9949  -19.3104 N   0  0  0  0  0  0  0  0  0  0  0  0
    6.1974    3.5945  -17.7498 O   0  0  0  0  0  0  0  0  0  0  0  0
    6.1200    1.5097  -20.0723 H   0  0  0  0  0  0  0  0  0  0  0  0
    7.4229    1.7798  -19.0058 H   0  0  0  0  0  0  0  0  0  0  0  0
    2.4867   -1.9819  -22.4746 N   0  0  0  0  0  0  0  0  0  0  0  0
    1.6285   -2.0122  -23.8657 S   0  0  0  0  0  0  0  0  0  0  0  0
    0.5436   -1.0998  -23.8445 O   0  0  0  0  0  0  0  0  0  0  0  0
    0.9562   -3.2732  -24.0992 O   0  0  0  0  0  0  0  0  0  0  0  0
    2.8254   -1.6584  -25.1746 C   0  0  0  0  0  0  0  0  0  0  0  0
    3.0739   -0.3705  -25.5322 C   0  0  0  0  0  0  0  0  0  0  0  0
    3.9968   -0.0970  -26.5232 C   0  0  0  0  0  0  0  0  0  0  0  0
    4.6820   -1.1403  -27.1525 C   0  0  0  0  0  0  0  0  0  0  0  0
    4.4430   -2.4362  -26.7904 C   0  0  0  0  0  0  0  0  0  0  0  0
    3.5234   -2.7152  -25.8006 C   0  0  0  0  0  0  0  0  0  0  0  0
    5.5835   -0.8554  -28.1234 O   0  0  0  0  0  0  0  0  0  0  0  0
    6.7586   -0.1396  -27.7835 C   0  0  0  0  0  0  0  0  0  0  0  0
    2.8161   -3.2079  -21.7434 C   0  0  0  0  0  0  0  0  0  0  0  0
    3.9011   -4.0574  -22.1956 C   0  0  0  0  0  0  0  0  0  0  0  0
    5.0524   -3.4511  -22.8886 N   0  0  0  0  0  0  0  0  0  0  0  0
    3.8583   -5.2156  -22.0194 O   0  0  0  0  0  0  0  0  0  0  0  0
    5.0829   -2.4779  -23.0337 H   0  0  0  0  0  0  0  0  0  0  0  0
    5.7908   -4.0196  -23.2063 H   0  0  0  0  0  0  0  0  0  0  0  0
 21 22  1  0  0  0
 22 15  1  0  0  0
 15 18  2  0  0  0
 15 16  1  0  0  0
 39 40  1  0  0  0
 39 36  1  0  0  0
 18 19  1  0  0  0
 16 17  2  0  0  0
 36 37  2  0  0  0
 36 35  1  0  0  0
 19 20  2  0  0  0
 17 20  1  0  0  0
 37 38  1  0  0  0
 20 12  1  0  0  0
 35 34  2  0  0  0
 38 33  2  0  0  0
 14 12  2  0  0  0
 13 12  2  0  0  0
 12 11  1  0  0  0
 34 33  1  0  0  0
 33 30  1  0  0  0
  2  3  2  0  0  0
  2  1  1  0  0  0
 32 30  2  0  0  0
 11  1  1  0  0  0
 11 23  1  0  0  0
 30 31  2  0  0  0
 30 29  1  0  0  0
  3  4  1  0  0  0
  1  6  2  0  0  0
 23 24  1  0  0  0
  4 29  1  0  0  0
  4  5  2  0  0  0
  6  5  1  0  0  0
  6  7  1  0  0  0
 29 41  1  0  0  0
  5 10  1  0  0  0
 26 24  2  0  0  0
  7  8  2  0  0  0
 24 25  1  0  0  0
 10  9  2  0  0  0
  8  9  1  0  0  0
 41 42  1  0  0  0
 42 44  2  0  0  0
 42 43  1  0  0  0
 25 27  1  0  0  0
 25 28  1  0  0  0
 43 45  1  0  0  0
 43 46  1  0  0  0
M  END
> <minimizedAffinity>
-9.96765

$$$$
4XMB_41P_A_701


 46 49  0  0  0  0  0  0  0  0999 V2000
    3.4611   -0.8725  -22.3872 C   0  0  0  0  0  0  0  0  0  0  0  0
    2.7456    0.1172  -21.7050 C   0  0  0  0  0  0  0  0  0  0  0  0
    3.3592    1.3912  -21.4326 C   0  0  0  0  0  0  0  0  0  0  0  0
    4.6342    1.6314  -21.8542 C   0  0  0  0  0  0  0  0  0  0  0  0
    5.3789    0.6148  -22.5429 C   0  0  0  0  0  0  0  0  0  0  0  0
    4.7752   -0.6342  -22.8109 C   0  0  0  0  0  0  0  0  0  0  0  0
    5.4938   -1.6258  -23.4964 C   0  0  0  0  0  0  0  0  0  0  0  0
    6.8138   -1.3809  -23.9150 C   0  0  0  0  0  0  0  0  0  0  0  0
    7.4317   -0.1083  -23.6433 C   0  0  0  0  0  0  0  0  0  0  0  0
    6.7299    0.8662  -22.9730 C   0  0  0  0  0  0  0  0  0  0  0  0
    2.7796   -2.1540  -22.6358 N   0  0  0  0  0  0  0  0  0  0  0  0
    1.9825   -2.3630  -24.0516 S   0  0  0  0  0  0  0  0  0  0  0  0
    1.4797   -3.7428  -24.1984 O   0  0  0  0  0  0  0  0  0  0  0  0
    0.7569   -1.6117  -24.1036 O   0  0  0  0  0  0  0  0  0  0  0  0
    4.8254   -1.2701  -27.6166 C   0  0  0  0  0  0  0  0  0  0  0  0
    4.0456   -0.2386  -26.9161 C   0  0  0  0  0  0  0  0  0  0  0  0
    3.1816   -0.6058  -25.8204 C   0  0  0  0  0  0  0  0  0  0  0  0
    4.7271   -2.5694  -27.2324 C   0  0  0  0  0  0  0  0  0  0  0  0
    3.8466   -2.9393  -26.1218 C   0  0  0  0  0  0  0  0  0  0  0  0
    3.0855   -1.9168  -25.4316 C   0  0  0  0  0  0  0  0  0  0  0  0
    5.4926   -1.4618  -29.9782 C   0  0  0  0  0  0  0  0  0  0  0  0
    5.6823   -0.8963  -28.7060 O   0  0  0  0  0  0  0  0  0  0  0  0
    2.8929   -3.1976  -21.6320 C   0  0  0  0  0  0  0  0  0  0  0  0
    1.6361   -3.6209  -20.8281 C   0  0  0  0  0  0  0  0  0  0  0  0
    1.6707   -4.8436  -20.0589 N   0  0  0  0  0  0  0  0  0  0  0  0
    0.6929   -2.9657  -20.8402 O   0  0  0  0  0  0  0  0  0  0  0  0
    2.4834   -5.3993  -20.0541 H   0  0  0  0  0  0  0  0  0  0  0  0
    0.8817   -5.1209  -19.5395 H   0  0  0  0  0  0  0  0  0  0  0  0
    5.2152    2.9036  -21.5347 N   0  0  0  0  0  0  0  0  0  0  0  0
    4.7789    4.1360  -22.5162 S   0  0  0  0  0  0  0  0  0  0  0  0
    5.0913    5.4009  -21.9572 O   0  0  0  0  0  0  0  0  0  0  0  0
    3.3476    4.2380  -22.7095 O   0  0  0  0  0  0  0  0  0  0  0  0
    5.6286    3.8249  -24.0822 C   0  0  0  0  0  0  0  0  0  0  0  0
    6.9561    4.0959  -24.1956 C   0  0  0  0  0  0  0  0  0  0  0  0
    7.6100    3.8476  -25.3869 C   0  0  0  0  0  0  0  0  0  0  0  0
    6.9126    3.3103  -26.4726 C   0  0  0  0  0  0  0  0  0  0  0  0
    5.5803    3.0273  -26.3612 C   0  0  0  0  0  0  0  0  0  0  0  0
    4.9222    3.2720  -25.1736 C   0  0  0  0  0  0  0  0  0  0  0  0
    7.5683    3.0735  -27.6347 O   0  0  0  0  0  0  0  0  0  0  0  0
    8.3261    1.8831  -27.7675 C   0  0  0  0  0  0  0  0  0  0  0  0
    6.1969    3.0810  -20.4619 C   0  0  0  0  0  0  0  0  0  0  0  0
    5.9177    2.5836  -19.1284 C   0  0  0  0  0  0  0  0  0  0  0  0
    5.0505    3.3690  -18.2314 N   0  0  0  0  0  0  0  0  0  0  0  0
    6.3844    1.5715  -18.7648 O   0  0  0  0  0  0  0  0  0  0  0  0
    4.6613    4.2182  -18.5422 H   0  0  0  0  0  0  0  0  0  0  0  0
    4.8606    3.0442  -17.3216 H   0  0  0  0  0  0  0  0  0  0  0  0
 21 22  1  0  0  0
 22 15  1  0  0  0
 15 18  2  0  0  0
 15 16  1  0  0  0
 39 40  1  0  0  0
 39 36  1  0  0  0
 18 19  1  0  0  0
 16 17  2  0  0  0
 36 37  2  0  0  0
 36 35  1  0  0  0
 19 20  2  0  0  0
 17 20  1  0  0  0
 37 38  1  0  0  0
 20 12  1  0  0  0
 35 34  2  0  0  0
 38 33  2  0  0  0
 14 12  2  0  0  0
 13 12  2  0  0  0
 12 11  1  0  0  0
 34 33  1  0  0  0
 33 30  1  0  0  0
  2  3  2  0  0  0
  2  1  1  0  0  0
 32 30  2  0  0  0
 11  1  1  0  0  0
 11 23  1  0  0  0
 30 31  2  0  0  0
 30 29  1  0  0  0
  3  4  1  0  0  0
  1  6  2  0  0  0
 23 24  1  0  0  0
  4 29  1  0  0  0
  4  5  2  0  0  0
  6  5  1  0  0  0
  6  7  1  0  0  0
 29 41  1  0  0  0
  5 10  1  0  0  0
 26 24  2  0  0  0
  7  8  2  0  0  0
 24 25  1  0  0  0
 10  9  2  0  0  0
  8  9  1  0  0  0
 41 42  1  0  0  0
 42 44  2  0  0  0
 42 43  1  0  0  0
 25 27  1  0  0  0
 25 28  1  0  0  0
 43 45  1  0  0  0
 43 46  1  0  0  0
M  END
> <minimizedAffinity>
-9.73576

$$$$
4XMB_41P_A_701


 46 49  0  0  0  0  0  0  0  0999 V2000
    4.4016    1.1927  -21.7591 C   0  0  0  0  0  0  0  0  0  0  0  0
    4.8581    0.1468  -22.5680 C   0  0  0  0  0  0  0  0  0  0  0  0
    4.0562   -1.0377  -22.7349 C   0  0  0  0  0  0  0  0  0  0  0  0
    2.8460   -1.1279  -22.1117 C   0  0  0  0  0  0  0  0  0  0  0  0
    2.3779   -0.0635  -21.2690 C   0  0  0  0  0  0  0  0  0  0  0  0
    3.1649    1.0986  -21.1073 C   0  0  0  0  0  0  0  0  0  0  0  0
    2.7050    2.1477  -20.2963 C   0  0  0  0  0  0  0  0  0  0  0  0
    1.4645    2.0444  -19.6421 C   0  0  0  0  0  0  0  0  0  0  0  0
    0.6599    0.8607  -19.8053 C   0  0  0  0  0  0  0  0  0  0  0  0
    1.1069   -0.1686  -20.6004 C   0  0  0  0  0  0  0  0  0  0  0  0
    5.2665    2.3774  -21.6279 N   0  0  0  0  0  0  0  0  0  0  0  0
    4.9727    3.6789  -22.5783 S   0  0  0  0  0  0  0  0  0  0  0  0
    3.5278    3.8780  -22.8030 O   0  0  0  0  0  0  0  0  0  0  0  0
    5.3288    4.9154  -21.9351 O   0  0  0  0  0  0  0  0  0  0  0  0
    7.3073    3.1742  -26.6133 C   0  0  0  0  0  0  0  0  0  0  0  0
    5.8796    2.8373  -26.5083 C   0  0  0  0  0  0  0  0  0  0  0  0
    5.1878    3.0065  -25.2533 C   0  0  0  0  0  0  0  0  0  0  0  0
    7.9738    3.6407  -25.5253 C   0  0  0  0  0  0  0  0  0  0  0  0
    7.2694    3.8082  -24.2521 C   0  0  0  0  0  0  0  0  0  0  0  0
    5.8606    3.4803  -24.1571 C   0  0  0  0  0  0  0  0  0  0  0  0
    8.9278    3.9554  -28.2933 C   0  0  0  0  0  0  0  0  0  0  0  0
    7.9882    3.0025  -27.8654 O   0  0  0  0  0  0  0  0  0  0  0  0
    6.3105    2.3564  -20.6184 C   0  0  0  0  0  0  0  0  0  0  0  0
    5.9472    2.6551  -19.1406 C   0  0  0  0  0  0  0  0  0  0  0  0
    5.1913    3.8461  -18.8280 N   0  0  0  0  0  0  0  0  0  0  0  0
    6.2704    1.9336  -18.3075 O   0  0  0  0  0  0  0  0  0  0  0  0
    4.9183    4.4592  -19.5483 H   0  0  0  0  0  0  0  0  0  0  0  0
    4.9491    4.0446  -17.8946 H   0  0  0  0  0  0  0  0  0  0  0  0
    2.0951   -2.3383  -22.2826 N   0  0  0  0  0  0  0  0  0  0  0  0
    2.4385   -3.5288  -21.2163 S   0  0  0  0  0  0  0  0  0  0  0  0
    1.2983   -4.3109  -20.9027 O   0  0  0  0  0  0  0  0  0  0  0  0
    2.8333   -3.0370  -19.9129 O   0  0  0  0  0  0  0  0  0  0  0  0
    3.7667   -4.4888  -21.9816 C   0  0  0  0  0  0  0  0  0  0  0  0
    4.1823   -4.1831  -23.2394 C   0  0  0  0  0  0  0  0  0  0  0  0
    5.2050   -4.9069  -23.8214 C   0  0  0  0  0  0  0  0  0  0  0  0
    5.8193   -5.9464  -23.1172 C   0  0  0  0  0  0  0  0  0  0  0  0
    5.4118   -6.2518  -21.8490 C   0  0  0  0  0  0  0  0  0  0  0  0
    4.3918   -5.5316  -21.2622 C   0  0  0  0  0  0  0  0  0  0  0  0
    6.8204   -6.6475  -23.7025 O   0  0  0  0  0  0  0  0  0  0  0  0
    7.1646   -6.3638  -25.0479 C   0  0  0  0  0  0  0  0  0  0  0  0
    1.1478   -2.5361  -23.3825 C   0  0  0  0  0  0  0  0  0  0  0  0
    0.9379   -1.4870  -24.3617 C   0  0  0  0  0  0  0  0  0  0  0  0
    1.7661   -1.4608  -25.5810 N   0  0  0  0  0  0  0  0  0  0  0  0
    0.1237   -0.6632  -24.1807 O   0  0  0  0  0  0  0  0  0  0  0  0
    2.4483   -2.1553  -25.7277 H   0  0  0  0  0  0  0  0  0  0  0  0
    1.6370   -0.7488  -26.2486 H   0  0  0  0  0  0  0  0  0  0  0  0
 21 22  1  0  0  0
 22 15  1  0  0  0
 15 18  2  0  0  0
 15 16  1  0  0  0
 39 40  1  0  0  0
 39 36  1  0  0  0
 18 19  1  0  0  0
 16 17  2  0  0  0
 36 37  2  0  0  0
 36 35  1  0  0  0
 19 20  2  0  0  0
 17 20  1  0  0  0
 37 38  1  0  0  0
 20 12  1  0  0  0
 35 34  2  0  0  0
 38 33  2  0  0  0
 14 12  2  0  0  0
 13 12  2  0  0  0
 12 11  1  0  0  0
 34 33  1  0  0  0
 33 30  1  0  0  0
  2  3  2  0  0  0
  2  1  1  0  0  0
 32 30  2  0  0  0
 11  1  1  0  0  0
 11 23  1  0  0  0
 30 31  2  0  0  0
 30 29  1  0  0  0
  3  4  1  0  0  0
  1  6  2  0  0  0
 23 24  1  0  0  0
  4 29  1  0  0  0
  4  5  2  0  0  0
  6  5  1  0  0  0
  6  7  1  0  0  0
 29 41  1  0  0  0
  5 10  1  0  0  0
 26 24  2  0  0  0
  7  8  2  0  0  0
 24 25  1  0  0  0
 10  9  2  0  0  0
  8  9  1  0  0  0
 41 42  1  0  0  0
 42 44  2  0  0  0
 42 43  1  0  0  0
 25 27  1  0  0  0
 25 28  1  0  0  0
 43 45  1  0  0  0
 43 46  1  0  0  0
M  END
> <minimizedAffinity>
-9.55357

$$$$
4XMB_41P_A_701


 46 49  0  0  0  0  0  0  0  0999 V2000
    4.6682    1.4836  -22.2010 C   0  0  0  0  0  0  0  0  0  0  0  0
    3.3470    1.2603  -21.7995 C   0  0  0  0  0  0  0  0  0  0  0  0
    2.7548   -0.0422  -21.9627 C   0  0  0  0  0  0  0  0  0  0  0  0
    3.4921   -1.0578  -22.4976 C   0  0  0  0  0  0  0  0  0  0  0  0
    4.8444   -0.8315  -22.9245 C   0  0  0  0  0  0  0  0  0  0  0  0
    5.4248    0.4464  -22.7625 C   0  0  0  0  0  0  0  0  0  0  0  0
    6.7508    0.6687  -23.1648 C   0  0  0  0  0  0  0  0  0  0  0  0
    7.5027   -0.3761  -23.7312 C   0  0  0  0  0  0  0  0  0  0  0  0
    6.9136   -1.6801  -23.8974 C   0  0  0  0  0  0  0  0  0  0  0  0
    5.6148   -1.9017  -23.5029 C   0  0  0  0  0  0  0  0  0  0  0  0
    5.2175    2.8363  -22.0084 N   0  0  0  0  0  0  0  0  0  0  0  0
    4.9630    3.9646  -23.1684 S   0  0  0  0  0  0  0  0  0  0  0  0
    3.5766    3.9283  -23.6730 O   0  0  0  0  0  0  0  0  0  0  0  0
    5.0375    5.3049  -22.6512 O   0  0  0  0  0  0  0  0  0  0  0  0
    7.9983    3.3123  -26.6824 C   0  0  0  0  0  0  0  0  0  0  0  0
    8.4261    3.8898  -25.3993 C   0  0  0  0  0  0  0  0  0  0  0  0
    7.4690    4.0753  -24.3355 C   0  0  0  0  0  0  0  0  0  0  0  0
    6.6995    2.9581  -26.8649 C   0  0  0  0  0  0  0  0  0  0  0  0
    5.7298    3.1508  -25.7842 C   0  0  0  0  0  0  0  0  0  0  0  0
    6.1595    3.7146  -24.5198 C   0  0  0  0  0  0  0  0  0  0  0  0
    8.8522    2.0309  -28.6027 C   0  0  0  0  0  0  0  0  0  0  0  0
    8.9568    3.1315  -27.7357 O   0  0  0  0  0  0  0  0  0  0  0  0
    5.9157    3.1231  -20.7675 C   0  0  0  0  0  0  0  0  0  0  0  0
    5.1101    3.6114  -19.5356 C   0  0  0  0  0  0  0  0  0  0  0  0
    5.6637    3.4268  -18.2137 N   0  0  0  0  0  0  0  0  0  0  0  0
    4.0895    4.1192  -19.6751 O   0  0  0  0  0  0  0  0  0  0  0  0
    6.5393    2.9905  -18.1033 H   0  0  0  0  0  0  0  0  0  0  0  0
    5.1653    3.7374  -17.4236 H   0  0  0  0  0  0  0  0  0  0  0  0
    2.8518   -2.3301  -22.6687 N   0  0  0  0  0  0  0  0  0  0  0  0
    1.9780   -2.4925  -24.0408 S   0  0  0  0  0  0  0  0  0  0  0  0
    0.7638   -1.7624  -23.9910 O   0  0  0  0  0  0  0  0  0  0  0  0
    1.5077   -3.8432  -24.2665 O   0  0  0  0  0  0  0  0  0  0  0  0
    3.0747   -1.9519  -25.3737 C   0  0  0  0  0  0  0  0  0  0  0  0
    3.7779   -2.8729  -26.0848 C   0  0  0  0  0  0  0  0  0  0  0  0
    4.6067   -2.4635  -27.1114 C   0  0  0  0  0  0  0  0  0  0  0  0
    4.7172   -1.1061  -27.4266 C   0  0  0  0  0  0  0  0  0  0  0  0
    4.0054   -0.1769  -26.7211 C   0  0  0  0  0  0  0  0  0  0  0  0
    3.1751   -0.5801  -25.6957 C   0  0  0  0  0  0  0  0  0  0  0  0
    5.5353   -0.7206  -28.4358 O   0  0  0  0  0  0  0  0  0  0  0  0
    6.8965   -1.1146  -28.4074 C   0  0  0  0  0  0  0  0  0  0  0  0
    2.8991   -3.3854  -21.6538 C   0  0  0  0  0  0  0  0  0  0  0  0
    1.7212   -3.6921  -20.8651 C   0  0  0  0  0  0  0  0  0  0  0  0
    1.6631   -4.9611  -20.1170 N   0  0  0  0  0  0  0  0  0  0  0  0
    0.8208   -2.9422  -20.8305 O   0  0  0  0  0  0  0  0  0  0  0  0
    2.4223   -5.5870  -20.1498 H   0  0  0  0  0  0  0  0  0  0  0  0
    0.8652   -5.1826  -19.5846 H   0  0  0  0  0  0  0  0  0  0  0  0
 21 22  1  0  0  0
 22 15  1  0  0  0
 15 18  2  0  0  0
 15 16  1  0  0  0
 39 40  1  0  0  0
 39 36  1  0  0  0
 18 19  1  0  0  0
 16 17  2  0  0  0
 36 37  2  0  0  0
 36 35  1  0  0  0
 19 20  2  0  0  0
 17 20  1  0  0  0
 37 38  1  0  0  0
 20 12  1  0  0  0
 35 34  2  0  0  0
 38 33  2  0  0  0
 14 12  2  0  0  0
 13 12  2  0  0  0
 12 11  1  0  0  0
 34 33  1  0  0  0
 33 30  1  0  0  0
  2  3  2  0  0  0
  2  1  1  0  0  0
 32 30  2  0  0  0
 11  1  1  0  0  0
 11 23  1  0  0  0
 30 31  2  0  0  0
 30 29  1  0  0  0
  3  4  1  0  0  0
  1  6  2  0  0  0
 23 24  1  0  0  0
  4 29  1  0  0  0
  4  5  2  0  0  0
  6  5  1  0  0  0
  6  7  1  0  0  0
 29 41  1  0  0  0
  5 10  1  0  0  0
 26 24  2  0  0  0
  7  8  2  0  0  0
 24 25  1  0  0  0
 10  9  2  0  0  0
  8  9  1  0  0  0
 41 42  1  0  0  0
 42 44  2  0  0  0
 42 43  1  0  0  0
 25 27  1  0  0  0
 25 28  1  0  0  0
 43 45  1  0  0  0
 43 46  1  0  0  0
M  END
> <minimizedAffinity>
-9.40509

$$$$
4XMB_41P_A_701


 46 49  0  0  0  0  0  0  0  0999 V2000
    4.0867   -0.3994  -23.7355 C   0  0  0  0  0  0  0  0  0  0  0  0
    3.1944    0.4390  -23.0590 C   0  0  0  0  0  0  0  0  0  0  0  0
    3.6951    1.5015  -22.2258 C   0  0  0  0  0  0  0  0  0  0  0  0
    5.0409    1.6934  -22.1109 C   0  0  0  0  0  0  0  0  0  0  0  0
    5.9623    0.8275  -22.7918 C   0  0  0  0  0  0  0  0  0  0  0  0
    5.4698   -0.2136  -23.6101 C   0  0  0  0  0  0  0  0  0  0  0  0
    6.3661   -1.0533  -24.2891 C   0  0  0  0  0  0  0  0  0  0  0  0
    7.7531   -0.8632  -24.1552 C   0  0  0  0  0  0  0  0  0  0  0  0
    8.2580    0.1976  -23.3217 C   0  0  0  0  0  0  0  0  0  0  0  0
    7.3824    1.0233  -22.6560 C   0  0  0  0  0  0  0  0  0  0  0  0
    3.5139   -1.4675  -24.5720 N   0  0  0  0  0  0  0  0  0  0  0  0
    3.1961   -1.1520  -26.1477 S   0  0  0  0  0  0  0  0  0  0  0  0
    1.9072   -1.7314  -26.5731 O   0  0  0  0  0  0  0  0  0  0  0  0
    2.9665    0.2476  -26.3882 O   0  0  0  0  0  0  0  0  0  0  0  0
    6.7412   -2.7100  -28.7918 C   0  0  0  0  0  0  0  0  0  0  0  0
    5.9415   -3.6278  -27.9666 C   0  0  0  0  0  0  0  0  0  0  0  0
    4.8546   -3.1185  -27.1658 C   0  0  0  0  0  0  0  0  0  0  0  0
    6.4568   -1.3816  -28.7950 C   0  0  0  0  0  0  0  0  0  0  0  0
    5.3549   -0.8674  -27.9785 C   0  0  0  0  0  0  0  0  0  0  0  0
    4.5666   -1.7784  -27.1722 C   0  0  0  0  0  0  0  0  0  0  0  0
    7.7614   -3.1550  -30.9873 C   0  0  0  0  0  0  0  0  0  0  0  0
    7.8211   -3.2249  -29.5853 O   0  0  0  0  0  0  0  0  0  0  0  0
    3.3076   -2.7737  -23.9711 C   0  0  0  0  0  0  0  0  0  0  0  0
    1.9509   -3.0939  -23.2917 C   0  0  0  0  0  0  0  0  0  0  0  0
    0.7485   -2.4653  -23.7887 N   0  0  0  0  0  0  0  0  0  0  0  0
    1.9039   -3.8270  -22.4090 O   0  0  0  0  0  0  0  0  0  0  0  0
    0.7979   -1.8381  -24.5459 H   0  0  0  0  0  0  0  0  0  0  0  0
   -0.1201   -2.6643  -23.3702 H   0  0  0  0  0  0  0  0  0  0  0  0
    5.4945    2.7449  -21.2469 N   0  0  0  0  0  0  0  0  0  0  0  0
    5.5843    4.2245  -21.9363 S   0  0  0  0  0  0  0  0  0  0  0  0
    6.4356    5.0995  -21.2155 O   0  0  0  0  0  0  0  0  0  0  0  0
    4.3282    4.9445  -21.9181 O   0  0  0  0  0  0  0  0  0  0  0  0
    6.1433    3.9300  -23.6311 C   0  0  0  0  0  0  0  0  0  0  0  0
    7.4656    4.0265  -23.9323 C   0  0  0  0  0  0  0  0  0  0  0  0
    7.8965    3.7899  -25.2233 C   0  0  0  0  0  0  0  0  0  0  0  0
    6.9780    3.4428  -26.2182 C   0  0  0  0  0  0  0  0  0  0  0  0
    5.6490    3.3351  -25.9189 C   0  0  0  0  0  0  0  0  0  0  0  0
    5.2130    3.5690  -24.6310 C   0  0  0  0  0  0  0  0  0  0  0  0
    7.4167    3.2149  -27.4800 O   0  0  0  0  0  0  0  0  0  0  0  0
    7.9152    1.9310  -27.8143 C   0  0  0  0  0  0  0  0  0  0  0  0
    5.9309    2.5073  -19.8687 C   0  0  0  0  0  0  0  0  0  0  0  0
    5.0966    2.9231  -18.7577 C   0  0  0  0  0  0  0  0  0  0  0  0
    5.6737    3.7709  -17.6987 N   0  0  0  0  0  0  0  0  0  0  0  0
    3.9770    2.5807  -18.6981 O   0  0  0  0  0  0  0  0  0  0  0  0
    6.6146    4.0554  -17.7540 H   0  0  0  0  0  0  0  0  0  0  0  0
    5.1183    4.0526  -16.9363 H   0  0  0  0  0  0  0  0  0  0  0  0
 21 22  1  0  0  0
 22 15  1  0  0  0
 15 18  2  0  0  0
 15 16  1  0  0  0
 39 40  1  0  0  0
 39 36  1  0  0  0
 18 19  1  0  0  0
 16 17  2  0  0  0
 36 37  2  0  0  0
 36 35  1  0  0  0
 19 20  2  0  0  0
 17 20  1  0  0  0
 37 38  1  0  0  0
 20 12  1  0  0  0
 35 34  2  0  0  0
 38 33  2  0  0  0
 14 12  2  0  0  0
 13 12  2  0  0  0
 12 11  1  0  0  0
 34 33  1  0  0  0
 33 30  1  0  0  0
  2  3  2  0  0  0
  2  1  1  0  0  0
 32 30  2  0  0  0
 11  1  1  0  0  0
 11 23  1  0  0  0
 30 31  2  0  0  0
 30 29  1  0  0  0
  3  4  1  0  0  0
  1  6  2  0  0  0
 23 24  1  0  0  0
  4 29  1  0  0  0
  4  5  2  0  0  0
  6  5  1  0  0  0
  6  7  1  0  0  0
 29 41  1  0  0  0
  5 10  1  0  0  0
 26 24  2  0  0  0
  7  8  2  0  0  0
 24 25  1  0  0  0
 10  9  2  0  0  0
  8  9  1  0  0  0
 41 42  1  0  0  0
 42 44  2  0  0  0
 42 43  1  0  0  0
 25 27  1  0  0  0
 25 28  1  0  0  0
 43 45  1  0  0  0
 43 46  1  0  0  0
M  END
> <minimizedAffinity>
-9.22586

$$$$
4XMB_41P_A_701


 46 49  0  0  0  0  0  0  0  0999 V2000
    5.2193    1.5106  -22.3794 C   0  0  0  0  0  0  0  0  0  0  0  0
    3.8345    1.3506  -22.4956 C   0  0  0  0  0  0  0  0  0  0  0  0
    3.2974    0.2415  -23.2407 C   0  0  0  0  0  0  0  0  0  0  0  0
    4.1447   -0.6573  -23.8199 C   0  0  0  0  0  0  0  0  0  0  0  0
    5.5673   -0.4910  -23.7159 C   0  0  0  0  0  0  0  0  0  0  0  0
    6.0929    0.5967  -22.9833 C   0  0  0  0  0  0  0  0  0  0  0  0
    7.4825    0.7553  -22.8666 C   0  0  0  0  0  0  0  0  0  0  0  0
    8.3532   -0.1637  -23.4789 C   0  0  0  0  0  0  0  0  0  0  0  0
    7.8200   -1.2738  -24.2262 C   0  0  0  0  0  0  0  0  0  0  0  0
    6.4588   -1.4330  -24.3414 C   0  0  0  0  0  0  0  0  0  0  0  0
    5.7073    2.6641  -21.6050 N   0  0  0  0  0  0  0  0  0  0  0  0
    5.9233    4.0957  -22.3715 S   0  0  0  0  0  0  0  0  0  0  0  0
    4.6848    4.8980  -22.3924 O   0  0  0  0  0  0  0  0  0  0  0  0
    6.8111    4.9704  -21.6533 O   0  0  0  0  0  0  0  0  0  0  0  0
    7.4348    3.2960  -26.7375 C   0  0  0  0  0  0  0  0  0  0  0  0
    8.3614    3.6995  -25.6691 C   0  0  0  0  0  0  0  0  0  0  0  0
    7.8664    3.9354  -24.3344 C   0  0  0  0  0  0  0  0  0  0  0  0
    6.1118    3.1499  -26.4658 C   0  0  0  0  0  0  0  0  0  0  0  0
    5.6121    3.3933  -25.1106 C   0  0  0  0  0  0  0  0  0  0  0  0
    6.5317    3.7847  -24.0607 C   0  0  0  0  0  0  0  0  0  0  0  0
    8.9676    3.8663  -28.5771 C   0  0  0  0  0  0  0  0  0  0  0  0
    7.9355    3.0637  -28.0627 O   0  0  0  0  0  0  0  0  0  0  0  0
    5.9231    2.4917  -20.1790 C   0  0  0  0  0  0  0  0  0  0  0  0
    5.0457    3.2832  -19.1747 C   0  0  0  0  0  0  0  0  0  0  0  0
    5.5913    3.6276  -17.8818 N   0  0  0  0  0  0  0  0  0  0  0  0
    3.9783    3.5966  -19.4597 O   0  0  0  0  0  0  0  0  0  0  0  0
    6.5074    3.3550  -17.6456 H   0  0  0  0  0  0  0  0  0  0  0  0
    5.0471    4.1349  -17.2371 H   0  0  0  0  0  0  0  0  0  0  0  0
    3.5656   -1.7294  -24.5771 N   0  0  0  0  0  0  0  0  0  0  0  0
    3.2433   -1.3835  -26.1420 S   0  0  0  0  0  0  0  0  0  0  0  0
    3.3182    0.0069  -26.4086 O   0  0  0  0  0  0  0  0  0  0  0  0
    1.8828   -1.6912  -26.5304 O   0  0  0  0  0  0  0  0  0  0  0  0
    4.4312   -2.3532  -27.1013 C   0  0  0  0  0  0  0  0  0  0  0  0
    4.7718   -1.9544  -28.3556 C   0  0  0  0  0  0  0  0  0  0  0  0
    5.6882   -2.6864  -29.0855 C   0  0  0  0  0  0  0  0  0  0  0  0
    6.2725   -3.8306  -28.5345 C   0  0  0  0  0  0  0  0  0  0  0  0
    5.9406   -4.2307  -27.2707 C   0  0  0  0  0  0  0  0  0  0  0  0
    5.0271   -3.5028  -26.5365 C   0  0  0  0  0  0  0  0  0  0  0  0
    7.1688   -4.5383  -29.2640 O   0  0  0  0  0  0  0  0  0  0  0  0
    8.0907   -5.3805  -28.5932 C   0  0  0  0  0  0  0  0  0  0  0  0
    3.2050   -3.0180  -23.9808 C   0  0  0  0  0  0  0  0  0  0  0  0
    1.9596   -3.1609  -23.2514 C   0  0  0  0  0  0  0  0  0  0  0  0
    0.7480   -2.4862  -23.7516 N   0  0  0  0  0  0  0  0  0  0  0  0
    1.9194   -3.7994  -22.2690 O   0  0  0  0  0  0  0  0  0  0  0  0
    0.7878   -1.9513  -24.5771 H   0  0  0  0  0  0  0  0  0  0  0  0
   -0.1008   -2.5705  -23.2600 H   0  0  0  0  0  0  0  0  0  0  0  0
 21 22  1  0  0  0
 22 15  1  0  0  0
 15 18  2  0  0  0
 15 16  1  0  0  0
 39 40  1  0  0  0
 39 36  1  0  0  0
 18 19  1  0  0  0
 16 17  2  0  0  0
 36 37  2  0  0  0
 36 35  1  0  0  0
 19 20  2  0  0  0
 17 20  1  0  0  0
 37 38  1  0  0  0
 20 12  1  0  0  0
 35 34  2  0  0  0
 38 33  2  0  0  0
 14 12  2  0  0  0
 13 12  2  0  0  0
 12 11  1  0  0  0
 34 33  1  0  0  0
 33 30  1  0  0  0
  2  3  2  0  0  0
  2  1  1  0  0  0
 32 30  2  0  0  0
 11  1  1  0  0  0
 11 23  1  0  0  0
 30 31  2  0  0  0
 30 29  1  0  0  0
  3  4  1  0  0  0
  1  6  2  0  0  0
 23 24  1  0  0  0
  4 29  1  0  0  0
  4  5  2  0  0  0
  6  5  1  0  0  0
  6  7  1  0  0  0
 29 41  1  0  0  0
  5 10  1  0  0  0
 26 24  2  0  0  0
  7  8  2  0  0  0
 24 25  1  0  0  0
 10  9  2  0  0  0
  8  9  1  0  0  0
 41 42  1  0  0  0
 42 44  2  0  0  0
 42 43  1  0  0  0
 25 27  1  0  0  0
 25 28  1  0  0  0
 43 45  1  0  0  0
 43 46  1  0  0  0
M  END
> <minimizedAffinity>
-9.19451

$$$$
4XMB_41P_A_701


 46 49  0  0  0  0  0  0  0  0999 V2000
    5.7898    1.5352  -23.5238 C   0  0  0  0  0  0  0  0  0  0  0  0
    5.5274    0.2202  -23.1254 C   0  0  0  0  0  0  0  0  0  0  0  0
    5.7361   -0.8669  -24.0465 C   0  0  0  0  0  0  0  0  0  0  0  0
    6.2026   -0.6088  -25.3022 C   0  0  0  0  0  0  0  0  0  0  0  0
    6.4608    0.7401  -25.7219 C   0  0  0  0  0  0  0  0  0  0  0  0
    6.2571    1.8056  -24.8167 C   0  0  0  0  0  0  0  0  0  0  0  0
    6.5218    3.1243  -25.2175 C   0  0  0  0  0  0  0  0  0  0  0  0
    6.9868    3.3885  -26.5182 C   0  0  0  0  0  0  0  0  0  0  0  0
    7.1956    2.3040  -27.4430 C   0  0  0  0  0  0  0  0  0  0  0  0
    6.9385    1.0104  -27.0531 C   0  0  0  0  0  0  0  0  0  0  0  0
    5.5569    2.6033  -22.5372 N   0  0  0  0  0  0  0  0  0  0  0  0
    4.1231    3.3952  -22.5541 S   0  0  0  0  0  0  0  0  0  0  0  0
    4.2576    4.7820  -22.0674 O   0  0  0  0  0  0  0  0  0  0  0  0
    3.6363    3.6136  -23.8900 O   0  0  0  0  0  0  0  0  0  0  0  0
    0.9916    1.0513  -19.9682 C   0  0  0  0  0  0  0  0  0  0  0  0
    1.6996    0.4052  -21.0836 C   0  0  0  0  0  0  0  0  0  0  0  0
    2.6602    1.1521  -21.8591 C   0  0  0  0  0  0  0  0  0  0  0  0
    1.2410    2.3537  -19.6728 C   0  0  0  0  0  0  0  0  0  0  0  0
    2.2143    3.1100  -20.4640 C   0  0  0  0  0  0  0  0  0  0  0  0
    2.9133    2.4652  -21.5581 C   0  0  0  0  0  0  0  0  0  0  0  0
   -0.8649    0.9659  -18.3543 C   0  0  0  0  0  0  0  0  0  0  0  0
    0.0371    0.3012  -19.2020 O   0  0  0  0  0  0  0  0  0  0  0  0
    6.5938    2.8685  -21.5553 C   0  0  0  0  0  0  0  0  0  0  0  0
    6.2806    2.6830  -20.0478 C   0  0  0  0  0  0  0  0  0  0  0  0
    5.6633    3.7666  -19.3180 N   0  0  0  0  0  0  0  0  0  0  0  0
    6.5310    1.6933  -19.5217 O   0  0  0  0  0  0  0  0  0  0  0  0
    5.4521    4.6116  -19.7768 H   0  0  0  0  0  0  0  0  0  0  0  0
    5.4540    3.6599  -18.3620 H   0  0  0  0  0  0  0  0  0  0  0  0
    6.3673   -1.7193  -26.1953 N   0  0  0  0  0  0  0  0  0  0  0  0
    5.0237   -2.1597  -27.0160 S   0  0  0  0  0  0  0  0  0  0  0  0
    5.2308   -3.3270  -27.7936 O   0  0  0  0  0  0  0  0  0  0  0  0
    4.6219   -1.1970  -28.0201 O   0  0  0  0  0  0  0  0  0  0  0  0
    3.7403   -2.3655  -25.7584 C   0  0  0  0  0  0  0  0  0  0  0  0
    2.7309   -1.4591  -25.6692 C   0  0  0  0  0  0  0  0  0  0  0  0
    1.7426   -1.6209  -24.7175 C   0  0  0  0  0  0  0  0  0  0  0  0
    1.7730   -2.7185  -23.8524 C   0  0  0  0  0  0  0  0  0  0  0  0
    2.7802   -3.6376  -23.9439 C   0  0  0  0  0  0  0  0  0  0  0  0
    3.7691   -3.4820  -24.8932 C   0  0  0  0  0  0  0  0  0  0  0  0
    0.7967   -2.8622  -22.9237 O   0  0  0  0  0  0  0  0  0  0  0  0
    1.1580   -2.9926  -21.5593 C   0  0  0  0  0  0  0  0  0  0  0  0
    7.6216   -2.4677  -26.3086 C   0  0  0  0  0  0  0  0  0  0  0  0
    8.4721   -2.2938  -27.4704 C   0  0  0  0  0  0  0  0  0  0  0  0
    8.2001   -3.0781  -28.6886 N   0  0  0  0  0  0  0  0  0  0  0  0
    9.3723   -1.5435  -27.4374 O   0  0  0  0  0  0  0  0  0  0  0  0
    7.4427   -3.7067  -28.7105 H   0  0  0  0  0  0  0  0  0  0  0  0
    8.7758   -2.9733  -29.4803 H   0  0  0  0  0  0  0  0  0  0  0  0
 21 22  1  0  0  0
 22 15  1  0  0  0
 15 18  2  0  0  0
 15 16  1  0  0  0
 39 40  1  0  0  0
 39 36  1  0  0  0
 18 19  1  0  0  0
 16 17  2  0  0  0
 36 37  2  0  0  0
 36 35  1  0  0  0
 19 20  2  0  0  0
 17 20  1  0  0  0
 37 38  1  0  0  0
 20 12  1  0  0  0
 35 34  2  0  0  0
 38 33  2  0  0  0
 14 12  2  0  0  0
 13 12  2  0  0  0
 12 11  1  0  0  0
 34 33  1  0  0  0
 33 30  1  0  0  0
  2  3  2  0  0  0
  2  1  1  0  0  0
 32 30  2  0  0  0
 11  1  1  0  0  0
 11 23  1  0  0  0
 30 31  2  0  0  0
 30 29  1  0  0  0
  3  4  1  0  0  0
  1  6  2  0  0  0
 23 24  1  0  0  0
  4 29  1  0  0  0
  4  5  2  0  0  0
  6  5  1  0  0  0
  6  7  1  0  0  0
 29 41  1  0  0  0
  5 10  1  0  0  0
 26 24  2  0  0  0
  7  8  2  0  0  0
 24 25  1  0  0  0
 10  9  2  0  0  0
  8  9  1  0  0  0
 41 42  1  0  0  0
 42 44  2  0  0  0
 42 43  1  0  0  0
 25 27  1  0  0  0
 25 28  1  0  0  0
 43 45  1  0  0  0
 43 46  1  0  0  0
M  END
> <minimizedAffinity>
-9.15419

$$$$
