3BKL_KAW_A_800


 45 48  0  0  0  0  0  0  0  0999 V2000
   43.9567   49.5642   44.2162 C   0  0  0  0  0  0  0  0  0  0  0  0
   42.6111   49.4726   44.6929 O   0  0  0  0  0  0  0  0  0  0  0  0
   44.7318   50.2971   45.1671 O   0  0  0  0  0  0  0  0  0  0  0  0
   41.9645   49.0208   44.1871 H   0  0  0  0  0  0  0  0  0  0  0  0
   45.6427   50.4510   45.0102 H   0  0  0  0  0  0  0  0  0  0  0  0
   44.0088   50.3114   42.8810 C   0  0  0  0  0  0  0  0  0  0  0  0
   45.4583   50.4242   42.3715 C   0  0  0  0  0  0  0  0  0  0  0  0
   44.5366   51.4539   40.3605 N   0  0  0  0  0  0  0  0  0  0  0  0
   45.4082   50.5819   40.8552 C   0  0  0  0  0  0  0  0  0  0  0  0
   46.1651   49.9286   40.1377 O   0  0  0  0  0  0  0  0  0  0  0  0
   43.9526   51.9628   40.9681 H   0  0  0  0  0  0  0  0  0  0  0  0
   44.4425   51.6592   38.9200 C   0  0  0  0  0  0  0  0  0  0  0  0
   45.3163   52.8375   38.4861 C   0  0  0  0  0  0  0  0  0  0  0  0
   46.2039   53.2344   39.2697 O   0  0  0  0  0  0  0  0  0  0  0  0
   45.0971   53.3460   37.3656 O   0  0  0  0  0  0  0  0  0  0  0  0
   44.4157   53.0039   36.8211 H   0  0  0  0  0  0  0  0  0  0  0  0
   42.9889   51.8959   38.5086 C   0  0  0  0  0  0  0  0  0  0  0  0
   41.9014   49.5720   38.0008 C   0  0  0  0  0  0  0  0  0  0  0  0
   41.7137   48.9461   39.2378 C   0  0  0  0  0  0  0  0  0  0  0  0
   41.1670   47.6762   39.2595 C   0  0  0  0  0  0  0  0  0  0  0  0
   40.8067   47.0222   38.0748 C   0  0  0  0  0  0  0  0  0  0  0  0
   40.9785   47.6065   36.8489 C   0  0  0  0  0  0  0  0  0  0  0  0
   41.5294   48.8879   36.8256 C   0  0  0  0  0  0  0  0  0  0  0  0
   41.8125   49.7084   35.7667 N   0  0  0  0  0  0  0  0  0  0  0  0
   42.3514   50.8816   36.2395 C   0  0  0  0  0  0  0  0  0  0  0  0
   42.4291   50.8428   37.6017 C   0  0  0  0  0  0  0  0  0  0  0  0
   41.6554   49.4930   34.8190 H   0  0  0  0  0  0  0  0  0  0  0  0
   44.5714   48.1691   44.0772 C   0  0  0  0  0  0  0  0  0  0  0  0
   44.5230   47.4246   45.3294 N   0  0  0  0  0  0  0  0  0  0  0  0
   45.6036   46.8253   45.8160 C   0  0  0  0  0  0  0  0  0  0  0  0
   46.7138   46.8996   45.2895 O   0  0  0  0  0  0  0  0  0  0  0  0
   43.6736   47.3649   45.8236 H   0  0  0  0  0  0  0  0  0  0  0  0
   45.3823   46.0758   47.1305 C   0  0  0  0  0  0  0  0  0  0  0  0
   44.1302   45.5797   47.4510 C   0  0  0  0  0  0  0  0  0  0  0  0
   43.9475   44.8908   48.6356 C   0  0  0  0  0  0  0  0  0  0  0  0
   45.0106   44.6971   49.4980 C   0  0  0  0  0  0  0  0  0  0  0  0
   46.2598   45.1946   49.1775 C   0  0  0  0  0  0  0  0  0  0  0  0
   46.4460   45.8857   47.9947 C   0  0  0  0  0  0  0  0  0  0  0  0
   43.8783   47.3376   42.9957 C   0  0  0  0  0  0  0  0  0  0  0  0
   44.8056   46.9737   41.8697 C   0  0  0  0  0  0  0  0  0  0  0  0
   44.3049   46.5601   40.6457 C   0  0  0  0  0  0  0  0  0  0  0  0
   45.1544   46.2410   39.6025 C   0  0  0  0  0  0  0  0  0  0  0  0
   46.5234   46.3343   39.7715 C   0  0  0  0  0  0  0  0  0  0  0  0
   47.0349   46.7473   40.9880 C   0  0  0  0  0  0  0  0  0  0  0  0
   46.1784   47.0640   42.0257 C   0  0  0  0  0  0  0  0  0  0  0  0
 18 19  2  0  0  0
 18 23  1  0  0  0
 18 26  1  0  0  0
 19 20  1  0  0  0
 20 21  2  0  0  0
 21 22  1  0  0  0
 22 23  2  0  0  0
 23 24  1  0  0  0
 24 25  1  0  0  0
 25 26  2  0  0  0
 26 17  1  0  0  0
 17 12  1  0  0  0
 12 13  1  0  0  0
 12  8  1  0  0  0
 13 14  2  0  0  0
 13 15  1  0  0  0
  8  9  1  0  0  0
  9 10  2  0  0  0
  9  7  1  0  0  0
  7  6  1  0  0  0
  6  1  1  0  0  0
  1  2  1  0  0  0
  1  3  1  0  0  0
  1 28  1  0  0  0
 28 39  1  0  0  0
 28 29  1  0  0  0
 39 40  1  0  0  0
 40 41  2  0  0  0
 40 45  1  0  0  0
 41 42  1  0  0  0
 42 43  2  0  0  0
 43 44  1  0  0  0
 44 45  2  0  0  0
 29 30  1  0  0  0
 30 31  2  0  0  0
 30 33  1  0  0  0
 33 34  2  0  0  0
 33 38  1  0  0  0
 34 35  1  0  0  0
 35 36  2  0  0  0
 36 37  1  0  0  0
 37 38  2  0  0  0
 24 27  1  0  0  0
 15 16  1  0  0  0
  8 11  1  0  0  0
  2  4  1  0  0  0
  3  5  1  0  0  0
 29 32  1  0  0  0
M  END
> <minimizedAffinity>
-10.44795

$$$$
3BKL_KAW_A_800


 45 48  0  0  0  0  0  0  0  0999 V2000
   44.7720   45.3778   46.8669 C   0  0  0  0  0  0  0  0  0  0  0  0
   44.9495   44.1583   46.1405 O   0  0  0  0  0  0  0  0  0  0  0  0
   43.3727   45.6063   47.0456 O   0  0  0  0  0  0  0  0  0  0  0  0
   45.8126   43.8566   45.9352 H   0  0  0  0  0  0  0  0  0  0  0  0
   43.0771   46.3676   47.5049 H   0  0  0  0  0  0  0  0  0  0  0  0
   45.3531   46.5614   46.0890 C   0  0  0  0  0  0  0  0  0  0  0  0
   44.5731   46.7947   44.7812 C   0  0  0  0  0  0  0  0  0  0  0  0
   45.1310   47.2332   42.4466 N   0  0  0  0  0  0  0  0  0  0  0  0
   45.5825   47.1459   43.6930 C   0  0  0  0  0  0  0  0  0  0  0  0
   46.7609   47.3516   43.9822 O   0  0  0  0  0  0  0  0  0  0  0  0
   44.1793   47.0680   42.2565 H   0  0  0  0  0  0  0  0  0  0  0  0
   46.0413   47.5730   41.3595 C   0  0  0  0  0  0  0  0  0  0  0  0
   45.8245   49.0184   40.9078 C   0  0  0  0  0  0  0  0  0  0  0  0
   44.8972   49.6685   41.4339 O   0  0  0  0  0  0  0  0  0  0  0  0
   46.5883   49.4775   40.0315 O   0  0  0  0  0  0  0  0  0  0  0  0
   47.2673   48.9401   39.6736 H   0  0  0  0  0  0  0  0  0  0  0  0
   45.8495   46.6144   40.1836 C   0  0  0  0  0  0  0  0  0  0  0  0
   43.6956   47.1488   38.7992 C   0  0  0  0  0  0  0  0  0  0  0  0
   44.0353   48.1895   37.9282 C   0  0  0  0  0  0  0  0  0  0  0  0
   43.0606   48.6894   37.0843 C   0  0  0  0  0  0  0  0  0  0  0  0
   41.7591   48.1727   37.0943 C   0  0  0  0  0  0  0  0  0  0  0  0
   41.3946   47.1558   37.9350 C   0  0  0  0  0  0  0  0  0  0  0  0
   42.3770   46.6502   38.7865 C   0  0  0  0  0  0  0  0  0  0  0  0
   42.3081   45.6501   39.7192 N   0  0  0  0  0  0  0  0  0  0  0  0
   43.5382   45.5080   40.3167 C   0  0  0  0  0  0  0  0  0  0  0  0
   44.4191   46.4071   39.7887 C   0  0  0  0  0  0  0  0  0  0  0  0
   41.5065   45.1183   39.9284 H   0  0  0  0  0  0  0  0  0  0  0  0
   45.4165   45.2746   48.2516 C   0  0  0  0  0  0  0  0  0  0  0  0
   45.2641   43.9437   48.8263 N   0  0  0  0  0  0  0  0  0  0  0  0
   44.2105   43.6328   49.5724 C   0  0  0  0  0  0  0  0  0  0  0  0
   43.2772   44.4076   49.7823 O   0  0  0  0  0  0  0  0  0  0  0  0
   45.9551   43.2628   48.6583 H   0  0  0  0  0  0  0  0  0  0  0  0
   44.2075   42.2012   50.1102 C   0  0  0  0  0  0  0  0  0  0  0  0
   45.3808   41.6200   50.5598 C   0  0  0  0  0  0  0  0  0  0  0  0
   45.3611   40.3304   51.0576 C   0  0  0  0  0  0  0  0  0  0  0  0
   44.1746   39.6226   51.1071 C   0  0  0  0  0  0  0  0  0  0  0  0
   43.0041   40.2035   50.6561 C   0  0  0  0  0  0  0  0  0  0  0  0
   43.0202   41.4922   50.1558 C   0  0  0  0  0  0  0  0  0  0  0  0
   46.9073   45.6183   48.2220 C   0  0  0  0  0  0  0  0  0  0  0  0
   47.5040   45.7024   49.5993 C   0  0  0  0  0  0  0  0  0  0  0  0
   48.0907   44.5926   50.1858 C   0  0  0  0  0  0  0  0  0  0  0  0
   48.6556   44.6706   51.4454 C   0  0  0  0  0  0  0  0  0  0  0  0
   48.6421   45.8677   52.1369 C   0  0  0  0  0  0  0  0  0  0  0  0
   48.0607   46.9825   51.5614 C   0  0  0  0  0  0  0  0  0  0  0  0
   47.4980   46.8955   50.3020 C   0  0  0  0  0  0  0  0  0  0  0  0
 18 19  2  0  0  0
 18 23  1  0  0  0
 18 26  1  0  0  0
 19 20  1  0  0  0
 20 21  2  0  0  0
 21 22  1  0  0  0
 22 23  2  0  0  0
 23 24  1  0  0  0
 24 25  1  0  0  0
 25 26  2  0  0  0
 26 17  1  0  0  0
 17 12  1  0  0  0
 12 13  1  0  0  0
 12  8  1  0  0  0
 13 14  2  0  0  0
 13 15  1  0  0  0
  8  9  1  0  0  0
  9 10  2  0  0  0
  9  7  1  0  0  0
  7  6  1  0  0  0
  6  1  1  0  0  0
  1  2  1  0  0  0
  1  3  1  0  0  0
  1 28  1  0  0  0
 28 39  1  0  0  0
 28 29  1  0  0  0
 39 40  1  0  0  0
 40 41  2  0  0  0
 40 45  1  0  0  0
 41 42  1  0  0  0
 42 43  2  0  0  0
 43 44  1  0  0  0
 44 45  2  0  0  0
 29 30  1  0  0  0
 30 31  2  0  0  0
 30 33  1  0  0  0
 33 34  2  0  0  0
 33 38  1  0  0  0
 34 35  1  0  0  0
 35 36  2  0  0  0
 36 37  1  0  0  0
 37 38  2  0  0  0
 24 27  1  0  0  0
 15 16  1  0  0  0
  8 11  1  0  0  0
  2  4  1  0  0  0
  3  5  1  0  0  0
 29 32  1  0  0  0
M  END
> <minimizedAffinity>
-10.15968

$$$$
3BKL_KAW_A_800


 45 48  0  0  0  0  0  0  0  0999 V2000
   46.5540   44.9395   47.8738 C   0  0  0  0  0  0  0  0  0  0  0  0
   47.9258   44.7781   47.5012 O   0  0  0  0  0  0  0  0  0  0  0  0
   45.7766   43.9440   47.2054 O   0  0  0  0  0  0  0  0  0  0  0  0
   48.5772   45.3532   47.8517 H   0  0  0  0  0  0  0  0  0  0  0  0
   44.8498   43.9061   47.3382 H   0  0  0  0  0  0  0  0  0  0  0  0
   46.0352   46.3155   47.4478 C   0  0  0  0  0  0  0  0  0  0  0  0
   44.8159   46.1780   46.5164 C   0  0  0  0  0  0  0  0  0  0  0  0
   44.0906   47.7504   44.7973 N   0  0  0  0  0  0  0  0  0  0  0  0
   45.0881   47.0092   45.2669 C   0  0  0  0  0  0  0  0  0  0  0  0
   46.1998   46.9914   44.7392 O   0  0  0  0  0  0  0  0  0  0  0  0
   43.2173   47.7430   45.2518 H   0  0  0  0  0  0  0  0  0  0  0  0
   44.2857   48.5749   43.6107 C   0  0  0  0  0  0  0  0  0  0  0  0
   44.3084   50.0584   43.9837 C   0  0  0  0  0  0  0  0  0  0  0  0
   44.7279   50.3760   45.1162 O   0  0  0  0  0  0  0  0  0  0  0  0
   43.9041   50.8808   43.1339 O   0  0  0  0  0  0  0  0  0  0  0  0
   43.6006   50.5814   42.2995 H   0  0  0  0  0  0  0  0  0  0  0  0
   43.1853   48.3020   42.5845 C   0  0  0  0  0  0  0  0  0  0  0  0
   44.1544   48.3005   40.1550 C   0  0  0  0  0  0  0  0  0  0  0  0
   44.3585   49.6411   39.8115 C   0  0  0  0  0  0  0  0  0  0  0  0
   44.8510   49.9330   38.5528 C   0  0  0  0  0  0  0  0  0  0  0  0
   45.1414   48.9162   37.6348 C   0  0  0  0  0  0  0  0  0  0  0  0
   44.9517   47.5953   37.9395 C   0  0  0  0  0  0  0  0  0  0  0  0
   44.4553   47.2994   39.2092 C   0  0  0  0  0  0  0  0  0  0  0  0
   44.1704   46.0910   39.7867 N   0  0  0  0  0  0  0  0  0  0  0  0
   43.6989   46.3024   41.0607 C   0  0  0  0  0  0  0  0  0  0  0  0
   43.6676   47.6402   41.3297 C   0  0  0  0  0  0  0  0  0  0  0  0
   44.2848   45.2120   39.3583 H   0  0  0  0  0  0  0  0  0  0  0  0
   46.3823   44.7423   49.3821 C   0  0  0  0  0  0  0  0  0  0  0  0
   45.7914   43.4481   49.6991 N   0  0  0  0  0  0  0  0  0  0  0  0
   44.6802   43.3570   50.4206 C   0  0  0  0  0  0  0  0  0  0  0  0
   44.0487   44.3362   50.8177 O   0  0  0  0  0  0  0  0  0  0  0  0
   46.2240   42.6263   49.3723 H   0  0  0  0  0  0  0  0  0  0  0  0
   44.1980   41.9283   50.6752 C   0  0  0  0  0  0  0  0  0  0  0  0
   44.1387   41.4290   51.9651 C   0  0  0  0  0  0  0  0  0  0  0  0
   43.6864   40.1408   52.1823 C   0  0  0  0  0  0  0  0  0  0  0  0
   43.2944   39.3528   51.1163 C   0  0  0  0  0  0  0  0  0  0  0  0
   43.3559   39.8519   49.8287 C   0  0  0  0  0  0  0  0  0  0  0  0
   43.8094   41.1390   49.6072 C   0  0  0  0  0  0  0  0  0  0  0  0
   47.7087   44.8632   50.1352 C   0  0  0  0  0  0  0  0  0  0  0  0
   47.6121   45.7788   51.3238 C   0  0  0  0  0  0  0  0  0  0  0  0
   47.1323   45.3146   52.5379 C   0  0  0  0  0  0  0  0  0  0  0  0
   47.0580   46.1493   53.6377 C   0  0  0  0  0  0  0  0  0  0  0  0
   47.4671   47.4660   53.5360 C   0  0  0  0  0  0  0  0  0  0  0  0
   47.9490   47.9404   52.3299 C   0  0  0  0  0  0  0  0  0  0  0  0
   48.0195   47.0992   51.2354 C   0  0  0  0  0  0  0  0  0  0  0  0
 18 19  2  0  0  0
 18 23  1  0  0  0
 18 26  1  0  0  0
 19 20  1  0  0  0
 20 21  2  0  0  0
 21 22  1  0  0  0
 22 23  2  0  0  0
 23 24  1  0  0  0
 24 25  1  0  0  0
 25 26  2  0  0  0
 26 17  1  0  0  0
 17 12  1  0  0  0
 12 13  1  0  0  0
 12  8  1  0  0  0
 13 14  2  0  0  0
 13 15  1  0  0  0
  8  9  1  0  0  0
  9 10  2  0  0  0
  9  7  1  0  0  0
  7  6  1  0  0  0
  6  1  1  0  0  0
  1  2  1  0  0  0
  1  3  1  0  0  0
  1 28  1  0  0  0
 28 39  1  0  0  0
 28 29  1  0  0  0
 39 40  1  0  0  0
 40 41  2  0  0  0
 40 45  1  0  0  0
 41 42  1  0  0  0
 42 43  2  0  0  0
 43 44  1  0  0  0
 44 45  2  0  0  0
 29 30  1  0  0  0
 30 31  2  0  0  0
 30 33  1  0  0  0
 33 34  2  0  0  0
 33 38  1  0  0  0
 34 35  1  0  0  0
 35 36  2  0  0  0
 36 37  1  0  0  0
 37 38  2  0  0  0
 24 27  1  0  0  0
 15 16  1  0  0  0
  8 11  1  0  0  0
  2  4  1  0  0  0
  3  5  1  0  0  0
 29 32  1  0  0  0
M  END
> <minimizedAffinity>
-9.67521

$$$$
3BKL_KAW_A_800


 45 48  0  0  0  0  0  0  0  0999 V2000
   46.0722   44.3337   47.7300 C   0  0  0  0  0  0  0  0  0  0  0  0
   47.4433   44.1243   47.3800 O   0  0  0  0  0  0  0  0  0  0  0  0
   45.2481   43.6236   46.8032 O   0  0  0  0  0  0  0  0  0  0  0  0
   48.1226   44.5218   47.8884 H   0  0  0  0  0  0  0  0  0  0  0  0
   44.3154   43.6530   46.8876 H   0  0  0  0  0  0  0  0  0  0  0  0
   45.7126   45.8195   47.6469 C   0  0  0  0  0  0  0  0  0  0  0  0
   44.4964   46.0391   46.7271 C   0  0  0  0  0  0  0  0  0  0  0  0
   44.0276   47.3679   44.7350 N   0  0  0  0  0  0  0  0  0  0  0  0
   44.9637   46.8500   45.5227 C   0  0  0  0  0  0  0  0  0  0  0  0
   46.1651   47.0188   45.3160 O   0  0  0  0  0  0  0  0  0  0  0  0
   43.0763   47.2162   44.9378 H   0  0  0  0  0  0  0  0  0  0  0  0
   44.4055   48.1605   43.5709 C   0  0  0  0  0  0  0  0  0  0  0  0
   44.3214   49.6550   43.8869 C   0  0  0  0  0  0  0  0  0  0  0  0
   43.7636   50.4033   43.0573 O   0  0  0  0  0  0  0  0  0  0  0  0
   44.8171   50.0535   44.9627 O   0  0  0  0  0  0  0  0  0  0  0  0
   45.2232   49.4430   45.5460 H   0  0  0  0  0  0  0  0  0  0  0  0
   43.5107   47.8183   42.3791 C   0  0  0  0  0  0  0  0  0  0  0  0
   43.8170   48.0014   39.7880 C   0  0  0  0  0  0  0  0  0  0  0  0
   42.6875   48.6700   39.3040 C   0  0  0  0  0  0  0  0  0  0  0  0
   42.5796   48.8844   37.9422 C   0  0  0  0  0  0  0  0  0  0  0  0
   43.5733   48.4449   37.0587 C   0  0  0  0  0  0  0  0  0  0  0  0
   44.6894   47.7869   37.5001 C   0  0  0  0  0  0  0  0  0  0  0  0
   44.7998   47.5704   38.8737 C   0  0  0  0  0  0  0  0  0  0  0  0
   45.7868   46.9526   39.5940 N   0  0  0  0  0  0  0  0  0  0  0  0
   45.4535   46.9800   40.9276 C   0  0  0  0  0  0  0  0  0  0  0  0
   44.2535   47.6087   41.0949 C   0  0  0  0  0  0  0  0  0  0  0  0
   46.6039   46.5529   39.2175 H   0  0  0  0  0  0  0  0  0  0  0  0
   45.7884   43.7883   49.1320 C   0  0  0  0  0  0  0  0  0  0  0  0
   46.1704   44.7344   50.1729 N   0  0  0  0  0  0  0  0  0  0  0  0
   47.3381   44.6359   50.7977 C   0  0  0  0  0  0  0  0  0  0  0  0
   48.1896   43.7941   50.5122 O   0  0  0  0  0  0  0  0  0  0  0  0
   45.5514   45.4599   50.4174 H   0  0  0  0  0  0  0  0  0  0  0  0
   47.5806   45.6972   51.8717 C   0  0  0  0  0  0  0  0  0  0  0  0
   47.9188   46.9910   51.5134 C   0  0  0  0  0  0  0  0  0  0  0  0
   48.1203   47.9443   52.4941 C   0  0  0  0  0  0  0  0  0  0  0  0
   47.9847   47.6083   53.8283 C   0  0  0  0  0  0  0  0  0  0  0  0
   47.6488   46.3157   54.1846 C   0  0  0  0  0  0  0  0  0  0  0  0
   47.4484   45.3591   53.2068 C   0  0  0  0  0  0  0  0  0  0  0  0
   44.3133   43.4302   49.3248 C   0  0  0  0  0  0  0  0  0  0  0  0
   44.1066   41.9606   49.5656 C   0  0  0  0  0  0  0  0  0  0  0  0
   45.0499   41.0353   49.1490 C   0  0  0  0  0  0  0  0  0  0  0  0
   44.8712   39.6845   49.3838 C   0  0  0  0  0  0  0  0  0  0  0  0
   43.7405   39.2405   50.0440 C   0  0  0  0  0  0  0  0  0  0  0  0
   42.7927   40.1546   50.4658 C   0  0  0  0  0  0  0  0  0  0  0  0
   42.9791   41.5031   50.2266 C   0  0  0  0  0  0  0  0  0  0  0  0
 18 19  2  0  0  0
 18 23  1  0  0  0
 18 26  1  0  0  0
 19 20  1  0  0  0
 20 21  2  0  0  0
 21 22  1  0  0  0
 22 23  2  0  0  0
 23 24  1  0  0  0
 24 25  1  0  0  0
 25 26  2  0  0  0
 26 17  1  0  0  0
 17 12  1  0  0  0
 12 13  1  0  0  0
 12  8  1  0  0  0
 13 14  2  0  0  0
 13 15  1  0  0  0
  8  9  1  0  0  0
  9 10  2  0  0  0
  9  7  1  0  0  0
  7  6  1  0  0  0
  6  1  1  0  0  0
  1  2  1  0  0  0
  1  3  1  0  0  0
  1 28  1  0  0  0
 28 39  1  0  0  0
 28 29  1  0  0  0
 39 40  1  0  0  0
 40 41  2  0  0  0
 40 45  1  0  0  0
 41 42  1  0  0  0
 42 43  2  0  0  0
 43 44  1  0  0  0
 44 45  2  0  0  0
 29 30  1  0  0  0
 30 31  2  0  0  0
 30 33  1  0  0  0
 33 34  2  0  0  0
 33 38  1  0  0  0
 34 35  1  0  0  0
 35 36  2  0  0  0
 36 37  1  0  0  0
 37 38  2  0  0  0
 24 27  1  0  0  0
 15 16  1  0  0  0
  8 11  1  0  0  0
  2  4  1  0  0  0
  3  5  1  0  0  0
 29 32  1  0  0  0
M  END
> <minimizedAffinity>
-9.66901

$$$$
3BKL_KAW_A_800


 45 48  0  0  0  0  0  0  0  0999 V2000
   46.5166   43.5128   47.9566 C   0  0  0  0  0  0  0  0  0  0  0  0
   47.6284   44.2174   47.3963 O   0  0  0  0  0  0  0  0  0  0  0  0
   46.6096   42.1366   47.5828 O   0  0  0  0  0  0  0  0  0  0  0  0
   47.7227   45.1378   47.5448 H   0  0  0  0  0  0  0  0  0  0  0  0
   45.9563   41.5285   47.8679 H   0  0  0  0  0  0  0  0  0  0  0  0
   45.1959   44.0660   47.4150 C   0  0  0  0  0  0  0  0  0  0  0  0
   45.0422   45.5588   47.7632 C   0  0  0  0  0  0  0  0  0  0  0  0
   44.5971   46.7122   45.6595 N   0  0  0  0  0  0  0  0  0  0  0  0
   45.5122   46.3688   46.5593 C   0  0  0  0  0  0  0  0  0  0  0  0
   46.6943   46.6942   46.4530 O   0  0  0  0  0  0  0  0  0  0  0  0
   43.6596   46.4385   45.7837 H   0  0  0  0  0  0  0  0  0  0  0  0
   44.9775   47.4935   44.4886 C   0  0  0  0  0  0  0  0  0  0  0  0
   44.1701   48.7911   44.4218 C   0  0  0  0  0  0  0  0  0  0  0  0
   44.7879   49.8746   44.4820 O   0  0  0  0  0  0  0  0  0  0  0  0
   42.9285   48.7016   44.3106 O   0  0  0  0  0  0  0  0  0  0  0  0
   42.5212   47.8587   44.2703 H   0  0  0  0  0  0  0  0  0  0  0  0
   44.7749   46.6754   43.2126 C   0  0  0  0  0  0  0  0  0  0  0  0
   44.9715   47.3380   40.6900 C   0  0  0  0  0  0  0  0  0  0  0  0
   43.7289   47.0585   40.1113 C   0  0  0  0  0  0  0  0  0  0  0  0
   43.5607   47.2976   38.7598 C   0  0  0  0  0  0  0  0  0  0  0  0
   44.6054   47.8074   37.9787 C   0  0  0  0  0  0  0  0  0  0  0  0
   45.8330   48.0900   38.5142 C   0  0  0  0  0  0  0  0  0  0  0  0
   46.0038   47.8498   39.8777 C   0  0  0  0  0  0  0  0  0  0  0  0
   47.1005   48.0342   40.6765 N   0  0  0  0  0  0  0  0  0  0  0  0
   46.7900   47.6527   41.9604 C   0  0  0  0  0  0  0  0  0  0  0  0
   45.4982   47.2155   42.0168 C   0  0  0  0  0  0  0  0  0  0  0  0
   47.9715   48.3839   40.3792 H   0  0  0  0  0  0  0  0  0  0  0  0
   46.5477   43.5925   49.4851 C   0  0  0  0  0  0  0  0  0  0  0  0
   45.9224   42.4307   50.1047 N   0  0  0  0  0  0  0  0  0  0  0  0
   44.7458   42.5250   50.7131 C   0  0  0  0  0  0  0  0  0  0  0  0
   44.0834   43.5619   50.7489 O   0  0  0  0  0  0  0  0  0  0  0  0
   46.3808   41.5601   50.0715 H   0  0  0  0  0  0  0  0  0  0  0  0
   44.2342   41.2190   51.3224 C   0  0  0  0  0  0  0  0  0  0  0  0
   43.7842   40.1951   50.5064 C   0  0  0  0  0  0  0  0  0  0  0  0
   43.3386   39.0139   51.0699 C   0  0  0  0  0  0  0  0  0  0  0  0
   43.3420   38.8543   52.4431 C   0  0  0  0  0  0  0  0  0  0  0  0
   43.7899   39.8781   53.2567 C   0  0  0  0  0  0  0  0  0  0  0  0
   44.2344   41.0616   52.6970 C   0  0  0  0  0  0  0  0  0  0  0  0
   47.9727   43.7191   50.0280 C   0  0  0  0  0  0  0  0  0  0  0  0
   48.1722   44.9764   50.8277 C   0  0  0  0  0  0  0  0  0  0  0  0
   47.6599   46.1855   50.3857 C   0  0  0  0  0  0  0  0  0  0  0  0
   47.8268   47.3407   51.1270 C   0  0  0  0  0  0  0  0  0  0  0  0
   48.5109   47.2996   52.3277 C   0  0  0  0  0  0  0  0  0  0  0  0
   49.0256   46.0985   52.7799 C   0  0  0  0  0  0  0  0  0  0  0  0
   48.8545   44.9486   52.0323 C   0  0  0  0  0  0  0  0  0  0  0  0
 18 19  2  0  0  0
 18 23  1  0  0  0
 18 26  1  0  0  0
 19 20  1  0  0  0
 20 21  2  0  0  0
 21 22  1  0  0  0
 22 23  2  0  0  0
 23 24  1  0  0  0
 24 25  1  0  0  0
 25 26  2  0  0  0
 26 17  1  0  0  0
 17 12  1  0  0  0
 12 13  1  0  0  0
 12  8  1  0  0  0
 13 14  2  0  0  0
 13 15  1  0  0  0
  8  9  1  0  0  0
  9 10  2  0  0  0
  9  7  1  0  0  0
  7  6  1  0  0  0
  6  1  1  0  0  0
  1  2  1  0  0  0
  1  3  1  0  0  0
  1 28  1  0  0  0
 28 39  1  0  0  0
 28 29  1  0  0  0
 39 40  1  0  0  0
 40 41  2  0  0  0
 40 45  1  0  0  0
 41 42  1  0  0  0
 42 43  2  0  0  0
 43 44  1  0  0  0
 44 45  2  0  0  0
 29 30  1  0  0  0
 30 31  2  0  0  0
 30 33  1  0  0  0
 33 34  2  0  0  0
 33 38  1  0  0  0
 34 35  1  0  0  0
 35 36  2  0  0  0
 36 37  1  0  0  0
 37 38  2  0  0  0
 24 27  1  0  0  0
 15 16  1  0  0  0
  8 11  1  0  0  0
  2  4  1  0  0  0
  3  5  1  0  0  0
 29 32  1  0  0  0
M  END
> <minimizedAffinity>
-9.65493

$$$$
3BKL_KAW_A_800


 45 48  0  0  0  0  0  0  0  0999 V2000
   45.5856   44.4225   47.5909 C   0  0  0  0  0  0  0  0  0  0  0  0
   46.9177   44.9007   47.3828 O   0  0  0  0  0  0  0  0  0  0  0  0
   45.2920   43.4354   46.6000 O   0  0  0  0  0  0  0  0  0  0  0  0
   47.2736   45.5571   47.9488 H   0  0  0  0  0  0  0  0  0  0  0  0
   44.4544   43.0156   46.5907 H   0  0  0  0  0  0  0  0  0  0  0  0
   44.5723   45.5608   47.4452 C   0  0  0  0  0  0  0  0  0  0  0  0
   45.2200   46.7902   46.7801 C   0  0  0  0  0  0  0  0  0  0  0  0
   44.8814   47.8903   44.6286 N   0  0  0  0  0  0  0  0  0  0  0  0
   44.8965   46.7385   45.2905 C   0  0  0  0  0  0  0  0  0  0  0  0
   44.6765   45.6601   44.7398 O   0  0  0  0  0  0  0  0  0  0  0  0
   45.0694   48.7320   45.1035 H   0  0  0  0  0  0  0  0  0  0  0  0
   44.5872   47.9113   43.2006 C   0  0  0  0  0  0  0  0  0  0  0  0
   45.8754   47.7944   42.3839 C   0  0  0  0  0  0  0  0  0  0  0  0
   45.9321   46.9220   41.4923 O   0  0  0  0  0  0  0  0  0  0  0  0
   46.8100   48.5800   42.6510 O   0  0  0  0  0  0  0  0  0  0  0  0
   46.7080   49.2148   43.3327 H   0  0  0  0  0  0  0  0  0  0  0  0
   43.8370   49.1910   42.8292 C   0  0  0  0  0  0  0  0  0  0  0  0
   42.8917   48.5984   40.4635 C   0  0  0  0  0  0  0  0  0  0  0  0
   42.0682   47.4808   40.6368 C   0  0  0  0  0  0  0  0  0  0  0  0
   41.4493   46.9375   39.5261 C   0  0  0  0  0  0  0  0  0  0  0  0
   41.6369   47.4861   38.2514 C   0  0  0  0  0  0  0  0  0  0  0  0
   42.4368   48.5780   38.0480 C   0  0  0  0  0  0  0  0  0  0  0  0
   43.0615   49.1275   39.1678 C   0  0  0  0  0  0  0  0  0  0  0  0
   43.9027   50.2028   39.2713 N   0  0  0  0  0  0  0  0  0  0  0  0
   44.2671   50.3627   40.5873 C   0  0  0  0  0  0  0  0  0  0  0  0
   43.6757   49.4010   41.3545 C   0  0  0  0  0  0  0  0  0  0  0  0
   44.1992   50.7703   38.5234 H   0  0  0  0  0  0  0  0  0  0  0  0
   45.4622   43.7643   48.9675 C   0  0  0  0  0  0  0  0  0  0  0  0
   45.8593   44.6666   50.0411 N   0  0  0  0  0  0  0  0  0  0  0  0
   47.1000   44.6692   50.5144 C   0  0  0  0  0  0  0  0  0  0  0  0
   48.0014   43.9680   50.0548 O   0  0  0  0  0  0  0  0  0  0  0  0
   45.1954   45.2856   50.4224 H   0  0  0  0  0  0  0  0  0  0  0  0
   47.3503   45.6650   51.6477 C   0  0  0  0  0  0  0  0  0  0  0  0
   48.0426   46.8396   51.4071 C   0  0  0  0  0  0  0  0  0  0  0  0
   48.2486   47.7382   52.4374 C   0  0  0  0  0  0  0  0  0  0  0  0
   47.7655   47.4662   53.7038 C   0  0  0  0  0  0  0  0  0  0  0  0
   47.0760   46.2923   53.9430 C   0  0  0  0  0  0  0  0  0  0  0  0
   46.8697   45.3903   52.9157 C   0  0  0  0  0  0  0  0  0  0  0  0
   44.0393   43.2773   49.2495 C   0  0  0  0  0  0  0  0  0  0  0  0
   43.9845   41.8033   49.5402 C   0  0  0  0  0  0  0  0  0  0  0  0
   42.9892   41.2775   50.3481 C   0  0  0  0  0  0  0  0  0  0  0  0
   42.9257   39.9201   50.6038 C   0  0  0  0  0  0  0  0  0  0  0  0
   43.8618   39.0670   50.0495 C   0  0  0  0  0  0  0  0  0  0  0  0
   44.8590   39.5799   49.2405 C   0  0  0  0  0  0  0  0  0  0  0  0
   44.9153   40.9381   48.9904 C   0  0  0  0  0  0  0  0  0  0  0  0
 18 19  2  0  0  0
 18 23  1  0  0  0
 18 26  1  0  0  0
 19 20  1  0  0  0
 20 21  2  0  0  0
 21 22  1  0  0  0
 22 23  2  0  0  0
 23 24  1  0  0  0
 24 25  1  0  0  0
 25 26  2  0  0  0
 26 17  1  0  0  0
 17 12  1  0  0  0
 12 13  1  0  0  0
 12  8  1  0  0  0
 13 14  2  0  0  0
 13 15  1  0  0  0
  8  9  1  0  0  0
  9 10  2  0  0  0
  9  7  1  0  0  0
  7  6  1  0  0  0
  6  1  1  0  0  0
  1  2  1  0  0  0
  1  3  1  0  0  0
  1 28  1  0  0  0
 28 39  1  0  0  0
 28 29  1  0  0  0
 39 40  1  0  0  0
 40 41  2  0  0  0
 40 45  1  0  0  0
 41 42  1  0  0  0
 42 43  2  0  0  0
 43 44  1  0  0  0
 44 45  2  0  0  0
 29 30  1  0  0  0
 30 31  2  0  0  0
 30 33  1  0  0  0
 33 34  2  0  0  0
 33 38  1  0  0  0
 34 35  1  0  0  0
 35 36  2  0  0  0
 36 37  1  0  0  0
 37 38  2  0  0  0
 24 27  1  0  0  0
 15 16  1  0  0  0
  8 11  1  0  0  0
  2  4  1  0  0  0
  3  5  1  0  0  0
 29 32  1  0  0  0
M  END
> <minimizedAffinity>
-9.39774

$$$$
3BKL_KAW_A_800


 45 48  0  0  0  0  0  0  0  0999 V2000
   44.8532   39.7035   49.0497 C   0  0  0  0  0  0  0  0  0  0  0  0
   45.2979   39.1127   47.8251 O   0  0  0  0  0  0  0  0  0  0  0  0
   43.4515   39.4644   49.1923 O   0  0  0  0  0  0  0  0  0  0  0  0
   46.1984   39.1763   47.5742 H   0  0  0  0  0  0  0  0  0  0  0  0
   42.9956   39.7860   49.9451 H   0  0  0  0  0  0  0  0  0  0  0  0
   45.0796   41.2175   49.0344 C   0  0  0  0  0  0  0  0  0  0  0  0
   43.8021   41.9678   49.4565 C   0  0  0  0  0  0  0  0  0  0  0  0
   45.3515   43.8246   49.1318 N   0  0  0  0  0  0  0  0  0  0  0  0
   44.1296   43.4568   49.5014 C   0  0  0  0  0  0  0  0  0  0  0  0
   43.2760   44.2700   49.8544 O   0  0  0  0  0  0  0  0  0  0  0  0
   46.0045   43.1443   48.8490 H   0  0  0  0  0  0  0  0  0  0  0  0
   45.7280   45.2333   49.1437 C   0  0  0  0  0  0  0  0  0  0  0  0
   45.4882   45.8661   47.7717 C   0  0  0  0  0  0  0  0  0  0  0  0
   46.4640   45.9983   47.0039 O   0  0  0  0  0  0  0  0  0  0  0  0
   44.3240   46.2208   47.4873 O   0  0  0  0  0  0  0  0  0  0  0  0
   43.6317   46.0954   48.1061 H   0  0  0  0  0  0  0  0  0  0  0  0
   47.1930   45.3905   49.5525 C   0  0  0  0  0  0  0  0  0  0  0  0
   46.8779   45.1642   52.1392 C   0  0  0  0  0  0  0  0  0  0  0  0
   46.1251   44.0031   52.3443 C   0  0  0  0  0  0  0  0  0  0  0  0
   45.7900   43.6532   53.6394 C   0  0  0  0  0  0  0  0  0  0  0  0
   46.1899   44.4376   54.7284 C   0  0  0  0  0  0  0  0  0  0  0  0
   46.9258   45.5796   54.5614 C   0  0  0  0  0  0  0  0  0  0  0  0
   47.2650   45.9336   53.2554 C   0  0  0  0  0  0  0  0  0  0  0  0
   47.9826   47.0018   52.7878 N   0  0  0  0  0  0  0  0  0  0  0  0
   48.0553   46.9283   51.4168 C   0  0  0  0  0  0  0  0  0  0  0  0
   47.3900   45.8219   50.9738 C   0  0  0  0  0  0  0  0  0  0  0  0
   48.3824   47.7090   53.3440 H   0  0  0  0  0  0  0  0  0  0  0  0
   45.5676   39.0640   50.2430 C   0  0  0  0  0  0  0  0  0  0  0  0
   46.3824   40.0282   50.9716 N   0  0  0  0  0  0  0  0  0  0  0  0
   47.7054   39.9206   51.0113 C   0  0  0  0  0  0  0  0  0  0  0  0
   48.3326   39.0534   50.4031 O   0  0  0  0  0  0  0  0  0  0  0  0
   45.9439   40.7730   51.4431 H   0  0  0  0  0  0  0  0  0  0  0  0
   48.4112   41.0038   51.8281 C   0  0  0  0  0  0  0  0  0  0  0  0
   49.0962   42.0251   51.1922 C   0  0  0  0  0  0  0  0  0  0  0  0
   49.7169   43.0064   51.9426 C   0  0  0  0  0  0  0  0  0  0  0  0
   49.6544   42.9693   53.3232 C   0  0  0  0  0  0  0  0  0  0  0  0
   48.9717   41.9480   53.9568 C   0  0  0  0  0  0  0  0  0  0  0  0
   48.3513   40.9638   53.2099 C   0  0  0  0  0  0  0  0  0  0  0  0
   44.5872   38.4214   51.2266 C   0  0  0  0  0  0  0  0  0  0  0  0
   44.5490   39.1370   52.5482 C   0  0  0  0  0  0  0  0  0  0  0  0
   43.6871   40.2026   52.7517 C   0  0  0  0  0  0  0  0  0  0  0  0
   43.6370   40.8522   53.9713 C   0  0  0  0  0  0  0  0  0  0  0  0
   44.4522   40.4398   55.0090 C   0  0  0  0  0  0  0  0  0  0  0  0
   45.3155   39.3766   54.8183 C   0  0  0  0  0  0  0  0  0  0  0  0
   45.3594   38.7332   53.5958 C   0  0  0  0  0  0  0  0  0  0  0  0
 18 19  2  0  0  0
 18 23  1  0  0  0
 18 26  1  0  0  0
 19 20  1  0  0  0
 20 21  2  0  0  0
 21 22  1  0  0  0
 22 23  2  0  0  0
 23 24  1  0  0  0
 24 25  1  0  0  0
 25 26  2  0  0  0
 26 17  1  0  0  0
 17 12  1  0  0  0
 12 13  1  0  0  0
 12  8  1  0  0  0
 13 14  2  0  0  0
 13 15  1  0  0  0
  8  9  1  0  0  0
  9 10  2  0  0  0
  9  7  1  0  0  0
  7  6  1  0  0  0
  6  1  1  0  0  0
  1  2  1  0  0  0
  1  3  1  0  0  0
  1 28  1  0  0  0
 28 39  1  0  0  0
 28 29  1  0  0  0
 39 40  1  0  0  0
 40 41  2  0  0  0
 40 45  1  0  0  0
 41 42  1  0  0  0
 42 43  2  0  0  0
 43 44  1  0  0  0
 44 45  2  0  0  0
 29 30  1  0  0  0
 30 31  2  0  0  0
 30 33  1  0  0  0
 33 34  2  0  0  0
 33 38  1  0  0  0
 34 35  1  0  0  0
 35 36  2  0  0  0
 36 37  1  0  0  0
 37 38  2  0  0  0
 24 27  1  0  0  0
 15 16  1  0  0  0
  8 11  1  0  0  0
  2  4  1  0  0  0
  3  5  1  0  0  0
 29 32  1  0  0  0
M  END
> <minimizedAffinity>
-9.26323

$$$$
3BKL_KAW_A_800


 45 48  0  0  0  0  0  0  0  0999 V2000
   46.4614   45.9915   47.6292 C   0  0  0  0  0  0  0  0  0  0  0  0
   46.7856   47.3202   48.0484 O   0  0  0  0  0  0  0  0  0  0  0  0
   47.5996   45.4257   46.9758 O   0  0  0  0  0  0  0  0  0  0  0  0
   46.1469   47.8389   48.4969 H   0  0  0  0  0  0  0  0  0  0  0  0
   47.5593   44.5533   46.6363 H   0  0  0  0  0  0  0  0  0  0  0  0
   45.2983   46.0059   46.6339 C   0  0  0  0  0  0  0  0  0  0  0  0
   45.3385   47.2747   45.7611 C   0  0  0  0  0  0  0  0  0  0  0  0
   45.6261   47.6836   43.3728 N   0  0  0  0  0  0  0  0  0  0  0  0
   45.1907   46.8437   44.3055 C   0  0  0  0  0  0  0  0  0  0  0  0
   44.6989   45.7501   44.0286 O   0  0  0  0  0  0  0  0  0  0  0  0
   46.0201   48.5469   43.6349 H   0  0  0  0  0  0  0  0  0  0  0  0
   45.5222   47.3301   41.9620 C   0  0  0  0  0  0  0  0  0  0  0  0
   46.8700   47.5101   41.2612 C   0  0  0  0  0  0  0  0  0  0  0  0
   47.0683   48.5662   40.6251 O   0  0  0  0  0  0  0  0  0  0  0  0
   47.7079   46.5881   41.3604 O   0  0  0  0  0  0  0  0  0  0  0  0
   47.5010   45.8180   41.8524 H   0  0  0  0  0  0  0  0  0  0  0  0
   44.4498   48.1782   41.2771 C   0  0  0  0  0  0  0  0  0  0  0  0
   42.7651   47.9083   39.2946 C   0  0  0  0  0  0  0  0  0  0  0  0
   42.6682   49.1642   38.6861 C   0  0  0  0  0  0  0  0  0  0  0  0
   41.8150   49.3120   37.6081 C   0  0  0  0  0  0  0  0  0  0  0  0
   41.0595   48.2346   37.1291 C   0  0  0  0  0  0  0  0  0  0  0  0
   41.1306   46.9938   37.7028 C   0  0  0  0  0  0  0  0  0  0  0  0
   41.9914   46.8432   38.7901 C   0  0  0  0  0  0  0  0  0  0  0  0
   42.2672   45.7395   39.5521 N   0  0  0  0  0  0  0  0  0  0  0  0
   43.1852   46.0786   40.5178 C   0  0  0  0  0  0  0  0  0  0  0  0
   43.5169   47.3976   40.4022 C   0  0  0  0  0  0  0  0  0  0  0  0
   41.8717   44.8465   39.4283 H   0  0  0  0  0  0  0  0  0  0  0  0
   46.1247   45.1158   48.8388 C   0  0  0  0  0  0  0  0  0  0  0  0
   46.6324   45.6836   50.0815 N   0  0  0  0  0  0  0  0  0  0  0  0
   47.6200   45.1011   50.7515 C   0  0  0  0  0  0  0  0  0  0  0  0
   48.2060   44.0942   50.3540 O   0  0  0  0  0  0  0  0  0  0  0  0
   46.2358   46.5143   50.4307 H   0  0  0  0  0  0  0  0  0  0  0  0
   48.0265   45.8153   52.0412 C   0  0  0  0  0  0  0  0  0  0  0  0
   49.2546   46.4477   52.1337 C   0  0  0  0  0  0  0  0  0  0  0  0
   49.6031   47.1026   53.3003 C   0  0  0  0  0  0  0  0  0  0  0  0
   48.7294   47.1269   54.3714 C   0  0  0  0  0  0  0  0  0  0  0  0
   47.5043   46.4935   54.2782 C   0  0  0  0  0  0  0  0  0  0  0  0
   47.1529   45.8358   53.1140 C   0  0  0  0  0  0  0  0  0  0  0  0
   44.6182   44.8949   48.9905 C   0  0  0  0  0  0  0  0  0  0  0  0
   44.2753   43.4606   49.2828 C   0  0  0  0  0  0  0  0  0  0  0  0
   43.2973   43.1413   50.2110 C   0  0  0  0  0  0  0  0  0  0  0  0
   42.9675   41.8238   50.4700 C   0  0  0  0  0  0  0  0  0  0  0  0
   43.6147   40.8035   49.7980 C   0  0  0  0  0  0  0  0  0  0  0  0
   44.5915   41.1097   48.8685 C   0  0  0  0  0  0  0  0  0  0  0  0
   44.9153   42.4295   48.6160 C   0  0  0  0  0  0  0  0  0  0  0  0
 18 19  2  0  0  0
 18 23  1  0  0  0
 18 26  1  0  0  0
 19 20  1  0  0  0
 20 21  2  0  0  0
 21 22  1  0  0  0
 22 23  2  0  0  0
 23 24  1  0  0  0
 24 25  1  0  0  0
 25 26  2  0  0  0
 26 17  1  0  0  0
 17 12  1  0  0  0
 12 13  1  0  0  0
 12  8  1  0  0  0
 13 14  2  0  0  0
 13 15  1  0  0  0
  8  9  1  0  0  0
  9 10  2  0  0  0
  9  7  1  0  0  0
  7  6  1  0  0  0
  6  1  1  0  0  0
  1  2  1  0  0  0
  1  3  1  0  0  0
  1 28  1  0  0  0
 28 39  1  0  0  0
 28 29  1  0  0  0
 39 40  1  0  0  0
 40 41  2  0  0  0
 40 45  1  0  0  0
 41 42  1  0  0  0
 42 43  2  0  0  0
 43 44  1  0  0  0
 44 45  2  0  0  0
 29 30  1  0  0  0
 30 31  2  0  0  0
 30 33  1  0  0  0
 33 34  2  0  0  0
 33 38  1  0  0  0
 34 35  1  0  0  0
 35 36  2  0  0  0
 36 37  1  0  0  0
 37 38  2  0  0  0
 24 27  1  0  0  0
 15 16  1  0  0  0
  8 11  1  0  0  0
  2  4  1  0  0  0
  3  5  1  0  0  0
 29 32  1  0  0  0
M  END
> <minimizedAffinity>
-8.88532

$$$$
3BKL_KAW_A_800


 45 48  0  0  0  0  0  0  0  0999 V2000
   46.5495   45.7487   47.5779 C   0  0  0  0  0  0  0  0  0  0  0  0
   46.6112   47.1220   47.9740 O   0  0  0  0  0  0  0  0  0  0  0  0
   47.8418   45.3443   47.1210 O   0  0  0  0  0  0  0  0  0  0  0  0
   45.8446   47.5500   48.3014 H   0  0  0  0  0  0  0  0  0  0  0  0
   47.9796   44.4670   46.8220 H   0  0  0  0  0  0  0  0  0  0  0  0
   45.5565   45.5605   46.4281 C   0  0  0  0  0  0  0  0  0  0  0  0
   44.5644   46.7372   46.3616 C   0  0  0  0  0  0  0  0  0  0  0  0
   44.1631   48.6389   44.8864 N   0  0  0  0  0  0  0  0  0  0  0  0
   44.8762   47.5389   45.1021 C   0  0  0  0  0  0  0  0  0  0  0  0
   45.7679   47.1720   44.3374 O   0  0  0  0  0  0  0  0  0  0  0  0
   43.4625   48.9030   45.5256 H   0  0  0  0  0  0  0  0  0  0  0  0
   44.4154   49.4560   43.7053 C   0  0  0  0  0  0  0  0  0  0  0  0
   44.4722   50.9384   44.0785 C   0  0  0  0  0  0  0  0  0  0  0  0
   44.9231   51.2478   45.2011 O   0  0  0  0  0  0  0  0  0  0  0  0
   44.0626   51.7685   43.2387 O   0  0  0  0  0  0  0  0  0  0  0  0
   43.7348   51.4751   42.4114 H   0  0  0  0  0  0  0  0  0  0  0  0
   43.3360   49.2149   42.6493 C   0  0  0  0  0  0  0  0  0  0  0  0
   44.0751   47.7930   40.5821 C   0  0  0  0  0  0  0  0  0  0  0  0
   43.8544   46.4549   40.9251 C   0  0  0  0  0  0  0  0  0  0  0  0
   44.1848   45.4745   40.0077 C   0  0  0  0  0  0  0  0  0  0  0  0
   44.7298   45.8036   38.7604 C   0  0  0  0  0  0  0  0  0  0  0  0
   44.9590   47.1027   38.3949 C   0  0  0  0  0  0  0  0  0  0  0  0
   44.6256   48.0928   39.3194 C   0  0  0  0  0  0  0  0  0  0  0  0
   44.7386   49.4547   39.2344 N   0  0  0  0  0  0  0  0  0  0  0  0
   44.2799   50.0170   40.4021 C   0  0  0  0  0  0  0  0  0  0  0  0
   43.8667   49.0383   41.2593 C   0  0  0  0  0  0  0  0  0  0  0  0
   45.0916   49.9515   38.4612 H   0  0  0  0  0  0  0  0  0  0  0  0
   46.1691   44.8649   48.7685 C   0  0  0  0  0  0  0  0  0  0  0  0
   46.6950   45.3855   50.0243 N   0  0  0  0  0  0  0  0  0  0  0  0
   47.6595   44.7522   50.6817 C   0  0  0  0  0  0  0  0  0  0  0  0
   48.2091   43.7338   50.2620 O   0  0  0  0  0  0  0  0  0  0  0  0
   46.3284   46.2220   50.3919 H   0  0  0  0  0  0  0  0  0  0  0  0
   48.0896   45.4215   51.9877 C   0  0  0  0  0  0  0  0  0  0  0  0
   49.4250   45.6988   52.2254 C   0  0  0  0  0  0  0  0  0  0  0  0
   49.7983   46.3181   53.4037 C   0  0  0  0  0  0  0  0  0  0  0  0
   48.8425   46.6600   54.3422 C   0  0  0  0  0  0  0  0  0  0  0  0
   47.5097   46.3810   54.1044 C   0  0  0  0  0  0  0  0  0  0  0  0
   47.1327   45.7600   52.9281 C   0  0  0  0  0  0  0  0  0  0  0  0
   44.6537   44.7071   48.9098 C   0  0  0  0  0  0  0  0  0  0  0  0
   44.2532   43.2994   49.2540 C   0  0  0  0  0  0  0  0  0  0  0  0
   43.1726   43.0540   50.0858 C   0  0  0  0  0  0  0  0  0  0  0  0
   42.7910   41.7605   50.3908 C   0  0  0  0  0  0  0  0  0  0  0  0
   43.4890   40.6903   49.8626 C   0  0  0  0  0  0  0  0  0  0  0  0
   44.5683   40.9227   49.0302 C   0  0  0  0  0  0  0  0  0  0  0  0
   44.9432   42.2189   48.7308 C   0  0  0  0  0  0  0  0  0  0  0  0
 18 19  2  0  0  0
 18 23  1  0  0  0
 18 26  1  0  0  0
 19 20  1  0  0  0
 20 21  2  0  0  0
 21 22  1  0  0  0
 22 23  2  0  0  0
 23 24  1  0  0  0
 24 25  1  0  0  0
 25 26  2  0  0  0
 26 17  1  0  0  0
 17 12  1  0  0  0
 12 13  1  0  0  0
 12  8  1  0  0  0
 13 14  2  0  0  0
 13 15  1  0  0  0
  8  9  1  0  0  0
  9 10  2  0  0  0
  9  7  1  0  0  0
  7  6  1  0  0  0
  6  1  1  0  0  0
  1  2  1  0  0  0
  1  3  1  0  0  0
  1 28  1  0  0  0
 28 39  1  0  0  0
 28 29  1  0  0  0
 39 40  1  0  0  0
 40 41  2  0  0  0
 40 45  1  0  0  0
 41 42  1  0  0  0
 42 43  2  0  0  0
 43 44  1  0  0  0
 44 45  2  0  0  0
 29 30  1  0  0  0
 30 31  2  0  0  0
 30 33  1  0  0  0
 33 34  2  0  0  0
 33 38  1  0  0  0
 34 35  1  0  0  0
 35 36  2  0  0  0
 36 37  1  0  0  0
 37 38  2  0  0  0
 24 27  1  0  0  0
 15 16  1  0  0  0
  8 11  1  0  0  0
  2  4  1  0  0  0
  3  5  1  0  0  0
 29 32  1  0  0  0
M  END
> <minimizedAffinity>
-8.84944

$$$$
3BKL_KAW_A_800


 45 48  0  0  0  0  0  0  0  0999 V2000
   44.8262   39.8970   48.8655 C   0  0  0  0  0  0  0  0  0  0  0  0
   45.1342   39.1243   47.7016 O   0  0  0  0  0  0  0  0  0  0  0  0
   43.4169   39.8387   49.0956 O   0  0  0  0  0  0  0  0  0  0  0  0
   46.0208   39.0549   47.4065 H   0  0  0  0  0  0  0  0  0  0  0  0
   43.0419   40.2936   49.8238 H   0  0  0  0  0  0  0  0  0  0  0  0
   45.2159   41.3633   48.6612 C   0  0  0  0  0  0  0  0  0  0  0  0
   44.1509   42.3026   49.2585 C   0  0  0  0  0  0  0  0  0  0  0  0
   46.0659   43.8058   49.0945 N   0  0  0  0  0  0  0  0  0  0  0  0
   44.7899   43.6755   49.4405 C   0  0  0  0  0  0  0  0  0  0  0  0
   44.1272   44.6159   49.8777 O   0  0  0  0  0  0  0  0  0  0  0  0
   46.5605   43.0310   48.7419 H   0  0  0  0  0  0  0  0  0  0  0  0
   46.7358   45.0932   49.2355 C   0  0  0  0  0  0  0  0  0  0  0  0
   47.1485   45.6380   47.8669 C   0  0  0  0  0  0  0  0  0  0  0  0
   46.2492   45.9147   47.0460 O   0  0  0  0  0  0  0  0  0  0  0  0
   48.3690   45.7788   47.6380 O   0  0  0  0  0  0  0  0  0  0  0  0
   48.9980   45.5535   48.2949 H   0  0  0  0  0  0  0  0  0  0  0  0
   47.9577   44.9620   50.1456 C   0  0  0  0  0  0  0  0  0  0  0  0
   48.6090   46.1744   52.3699 C   0  0  0  0  0  0  0  0  0  0  0  0
   49.8592   46.7613   52.1472 C   0  0  0  0  0  0  0  0  0  0  0  0
   50.4563   47.4569   53.1823 C   0  0  0  0  0  0  0  0  0  0  0  0
   49.8318   47.5762   54.4301 C   0  0  0  0  0  0  0  0  0  0  0  0
   48.6097   47.0129   54.6804 C   0  0  0  0  0  0  0  0  0  0  0  0
   48.0059   46.3112   53.6368 C   0  0  0  0  0  0  0  0  0  0  0  0
   46.8055   45.6542   53.5923 N   0  0  0  0  0  0  0  0  0  0  0  0
   46.6383   45.1087   52.3414 C   0  0  0  0  0  0  0  0  0  0  0  0
   47.7189   45.3976   51.5592 C   0  0  0  0  0  0  0  0  0  0  0  0
   46.1649   45.5837   54.3366 H   0  0  0  0  0  0  0  0  0  0  0  0
   45.5319   39.3181   50.0944 C   0  0  0  0  0  0  0  0  0  0  0  0
   44.9302   39.7825   51.3382 N   0  0  0  0  0  0  0  0  0  0  0  0
   45.5964   40.5727   52.1720 C   0  0  0  0  0  0  0  0  0  0  0  0
   46.7231   41.0090   51.9365 O   0  0  0  0  0  0  0  0  0  0  0  0
   44.0130   39.5053   51.5642 H   0  0  0  0  0  0  0  0  0  0  0  0
   44.8294   40.9592   53.4373 C   0  0  0  0  0  0  0  0  0  0  0  0
   44.9805   42.2196   53.9898 C   0  0  0  0  0  0  0  0  0  0  0  0
   44.2695   42.5611   55.1252 C   0  0  0  0  0  0  0  0  0  0  0  0
   43.4101   41.6483   55.7078 C   0  0  0  0  0  0  0  0  0  0  0  0
   43.2616   40.3895   55.1561 C   0  0  0  0  0  0  0  0  0  0  0  0
   43.9724   40.0437   54.0219 C   0  0  0  0  0  0  0  0  0  0  0  0
   45.5241   37.7880   50.0978 C   0  0  0  0  0  0  0  0  0  0  0  0
   45.1459   37.2193   51.4371 C   0  0  0  0  0  0  0  0  0  0  0  0
   43.8176   36.9963   51.7622 C   0  0  0  0  0  0  0  0  0  0  0  0
   43.4672   36.4576   52.9864 C   0  0  0  0  0  0  0  0  0  0  0  0
   44.4475   36.1315   53.9051 C   0  0  0  0  0  0  0  0  0  0  0  0
   45.7767   36.3482   53.5915 C   0  0  0  0  0  0  0  0  0  0  0  0
   46.1181   36.8875   52.3656 C   0  0  0  0  0  0  0  0  0  0  0  0
 18 19  2  0  0  0
 18 23  1  0  0  0
 18 26  1  0  0  0
 19 20  1  0  0  0
 20 21  2  0  0  0
 21 22  1  0  0  0
 22 23  2  0  0  0
 23 24  1  0  0  0
 24 25  1  0  0  0
 25 26  2  0  0  0
 26 17  1  0  0  0
 17 12  1  0  0  0
 12 13  1  0  0  0
 12  8  1  0  0  0
 13 14  2  0  0  0
 13 15  1  0  0  0
  8  9  1  0  0  0
  9 10  2  0  0  0
  9  7  1  0  0  0
  7  6  1  0  0  0
  6  1  1  0  0  0
  1  2  1  0  0  0
  1  3  1  0  0  0
  1 28  1  0  0  0
 28 39  1  0  0  0
 28 29  1  0  0  0
 39 40  1  0  0  0
 40 41  2  0  0  0
 40 45  1  0  0  0
 41 42  1  0  0  0
 42 43  2  0  0  0
 43 44  1  0  0  0
 44 45  2  0  0  0
 29 30  1  0  0  0
 30 31  2  0  0  0
 30 33  1  0  0  0
 33 34  2  0  0  0
 33 38  1  0  0  0
 34 35  1  0  0  0
 35 36  2  0  0  0
 36 37  1  0  0  0
 37 38  2  0  0  0
 24 27  1  0  0  0
 15 16  1  0  0  0
  8 11  1  0  0  0
  2  4  1  0  0  0
  3  5  1  0  0  0
 29 32  1  0  0  0
M  END
> <minimizedAffinity>
-8.40256

$$$$
