6CE6_EYP_A_1307
  RCSB PDB02231823473D
Coordinates from PDB:6CE6:A:1307 Model:1 without hydrogens
 22 24  0  0  0  0            999 V2000
   -6.2600    6.3920    7.7460   O 0  0  0  0  0  0  0  0  0  0  0  0
   -7.4530    5.2570    6.0070   C 0  0  0  0  0  0  0  0  0  0  0  0
   -6.6490    4.0760    5.5030   C 0  0  0  0  0  0  0  0  0  0  0  0
   -5.4530    3.7270    6.3330   C 0  0  0  0  0  0  0  0  0  0  0  0
   -3.3070    3.4510    6.7930   C 0  0  0  0  0  0  0  0  0  0  0  0
   -1.9410    3.5270    6.5760   C 0  0  0  0  0  0  0  0  0  0  0  0
   -1.0930    2.6520    7.2540   C 0  0  0  0  0  0  0  0  0  0  0  0
    0.7970    1.6120    7.7180   C 0  0  0  0  0  0  0  0  0  0  0  0
    2.2480    1.2830    7.5940   C 0  0  0  0  0  0  0  0  0  0  0  0
    3.0920    2.0060    8.6110   C 0  0  0  0  0  0  0  0  0  0  0  0
    3.2210    3.4760    8.3260   C 0  0  0  0  0  0  0  0  0  0  0  0
    2.6440    4.2280    9.2230   O 0  0  0  0  0  0  0  0  0  0  0  0
    3.8060    3.9160    7.3640   O 0  0  0  0  0  0  0  0  0  0  0  0
    0.2700    2.5700    7.0260   N 0  0  0  0  0  0  0  0  0  0  0  0
   -0.2900    0.7030    8.7400   S 0  0  0  0  0  0  0  0  0  0  0  0
   -1.6100    1.7280    8.1720   C 0  0  0  0  0  0  0  0  0  0  0  0
   -2.9820    1.6910    8.4720   C 0  0  0  0  0  0  0  0  0  0  0  0
   -3.8200    2.5510    7.7380   C 0  0  0  0  0  0  0  0  0  0  0  0
   -4.2630    4.1170    6.0200   N 0  0  0  0  0  0  0  0  0  0  0  0
   -5.5700    2.5640    7.6300   S 0  0  0  0  0  0  0  0  0  0  0  0
   -6.6750    6.3980    6.5900   C 0  0  0  0  0  0  0  0  0  0  0  0
   -6.5530    7.4160    5.7560   O 0  0  0  0  0  0  0  0  0  0  0  0
  3  2  1  0  0  0  0
  3  4  1  0  0  0  0
 22 21  2  0  0  0  0
  2 21  1  0  0  0  0
 19  4  2  0  0  0  0
 19  5  1  0  0  0  0
  4 20  1  0  0  0  0
  6  5  2  0  0  0  0
  6  7  1  0  0  0  0
 21  1  1  0  0  0  0
  5 18  1  0  0  0  0
 14  7  1  0  0  0  0
 14  8  2  0  0  0  0
  7 16  2  0  0  0  0
 13 11  2  0  0  0  0
  9  8  1  0  0  0  0
  9 10  1  0  0  0  0
 20 18  1  0  0  0  0
  8 15  1  0  0  0  0
 18 17  2  0  0  0  0
 16 17  1  0  0  0  0
 16 15  1  0  0  0  0
 11 10  1  0  0  0  0
 11 12  1  0  0  0  0
A    1
O1
A    2
C1
A    3
C2
A    4
C3
A    5
C4
A    6
C5
A    7
C6
A    8
C7
A    9
C8
A   10
C9
A   11
C10
A   12
O2
A   13
O3
A   14
N1
A   15
S
A   16
C11
A   17
C12
A   18
C13
A   19
N
A   20
S1
A   21
C
A   22
O
M  END
>  <InstanceId>
6CE6_EYP_A_1307

>  <ChemCompId>
EYP

>  <PdbId>
6CE6

>  <ChainId>
A

>  <ResidueNumber>
1307

>  <InsertionCode>


>  <Model>
1

>  <AltIds>


>  <MissingHeavyAtoms>
0

>  <ObservedFormula>
C14 N2 O4 S2

>  <Name>
3,3'-(benzo[1,2-d:5,4-d']bis[1,3]thiazole-2,6-diyl)dipropanoic acid

>  <SystematicName>
3-[2-(3-hydroxy-3-oxopropyl)-[1,3]thiazolo[4,5-f][1,3]benzothiazol-6-yl]propanoic acid

>  <Synonyms>


>  <Type>
NON-POLYMER

>  <Formula>
C14 H12 N2 O4 S2

>  <MolecularWeight>
336.386

>  <ModifiedDate>
2018-02-23

>  <Parent>


>  <OneLetterCode>


>  <SubcomponentList>


>  <AmbiguousFlag>
N

>  <InChI>
InChI=1S/C14H12N2O4S2/c17-13(18)3-1-11-15-7-5-8-10(6-9(7)21-11)22-12(16-8)2-4-14(19)20/h5-6H,1-4H2,(H,17,18)(H,19,20)

>  <InChIKey>
RNLHVOCFLIRTNO-UHFFFAOYSA-N

>  <SMILES>
c1c2c(cc3c1nc(s3)CCC(=O)O)sc(n2)CCC(=O)O

$$$$
