5A5Q_6XC_A_2111


 22 24  0  0  0  0  0  0  0  0999 V2000
  -26.2557   50.2700    8.5347 C   0  0  0  0  0  0  0  0  0  0  0  0
  -25.8928   48.8868    9.0001 C   0  0  0  0  0  0  0  0  0  0  0  0
  -26.4568   48.3359   10.0874 C   0  0  0  0  0  0  0  0  0  0  0  0
  -26.1254   47.0176   10.5494 C   0  0  0  0  0  0  0  0  0  0  0  0
  -26.6886   46.4093   11.6702 C   0  0  0  0  0  0  0  0  0  0  0  0
  -26.2759   45.1336   11.9942 C   0  0  0  0  0  0  0  0  0  0  0  0
  -25.3636   44.4346   11.2977 N   0  0  0  0  0  0  0  0  0  0  0  0
  -24.7930   44.9753   10.1991 C   0  0  0  0  0  0  0  0  0  0  0  0
  -25.1823   46.2917    9.8206 C   0  0  0  0  0  0  0  0  0  0  0  0
  -24.6179   46.8818    8.7046 N   0  0  0  0  0  0  0  0  0  0  0  0
  -24.8985   48.1243    8.2431 C   0  0  0  0  0  0  0  0  0  0  0  0
  -24.3289   48.5332    7.2340 O   0  0  0  0  0  0  0  0  0  0  0  0
  -23.9556   46.3540    8.2025 H   0  0  0  0  0  0  0  0  0  0  0  0
  -23.8805   44.2237    9.5450 N   0  0  0  0  0  0  0  0  0  0  0  0
  -24.1778   43.7215    8.7521 H   0  0  0  0  0  0  0  0  0  0  0  0
  -22.4782   44.1108    9.9433 C   0  0  0  0  0  0  0  0  0  0  0  0
  -21.5786   44.7393    8.8949 C   0  0  0  0  0  0  0  0  0  0  0  0
  -20.1223   44.5524    9.2625 C   0  0  0  0  0  0  0  0  0  0  0  0
  -19.8234   43.1221    9.4106 N   0  0  0  0  0  0  0  0  0  0  0  0
  -20.6271   42.5247   10.4896 C   0  0  0  0  0  0  0  0  0  0  0  0
  -22.1020   42.6577   10.1690 C   0  0  0  0  0  0  0  0  0  0  0  0
  -18.8337   43.0090    9.6301 H   0  0  0  0  0  0  0  0  0  0  0  0
  1  2  1  0  0  0
  2  3  2  0  0  0
  2 11  1  0  0  0
  3  4  1  0  0  0
  4  5  2  0  0  0
  4  9  1  0  0  0
  5  6  1  0  0  0
  6  7  2  0  0  0
  7  8  1  0  0  0
  8 14  1  0  0  0
  8  9  2  0  0  0
 14 16  1  0  0  0
 16 17  1  0  0  0
 16 21  1  0  0  0
 17 18  1  0  0  0
 18 19  1  0  0  0
 19 20  1  0  0  0
 20 21  1  0  0  0
  9 10  1  0  0  0
 10 11  1  0  0  0
 11 12  2  0  0  0
 14 15  1  0  0  0
 19 22  1  0  0  0
 10 13  1  0  0  0
M  END
> <minimizedAffinity>
-7.18348

$$$$
5A5Q_6XC_A_2111


 22 24  0  0  0  0  0  0  0  0999 V2000
  -20.5449   42.4948   10.1222 C   0  0  0  0  0  0  0  0  0  0  0  0
  -21.6592   43.4868    9.9324 C   0  0  0  0  0  0  0  0  0  0  0  0
  -22.7892   43.4278   10.6559 C   0  0  0  0  0  0  0  0  0  0  0  0
  -23.8653   44.3639   10.4912 C   0  0  0  0  0  0  0  0  0  0  0  0
  -25.0519   44.3389   11.2225 C   0  0  0  0  0  0  0  0  0  0  0  0
  -25.9989   45.3066   10.9588 C   0  0  0  0  0  0  0  0  0  0  0  0
  -25.8527   46.2768   10.0405 N   0  0  0  0  0  0  0  0  0  0  0  0
  -24.7186   46.3503    9.3101 C   0  0  0  0  0  0  0  0  0  0  0  0
  -23.7081   45.3740    9.5413 C   0  0  0  0  0  0  0  0  0  0  0  0
  -22.5344   45.4127    8.8110 N   0  0  0  0  0  0  0  0  0  0  0  0
  -21.5020   44.5438    8.9319 C   0  0  0  0  0  0  0  0  0  0  0  0
  -20.5084   44.6891    8.2236 O   0  0  0  0  0  0  0  0  0  0  0  0
  -22.4411   46.1331    8.1465 H   0  0  0  0  0  0  0  0  0  0  0  0
  -24.6344   47.3460    8.4008 N   0  0  0  0  0  0  0  0  0  0  0  0
  -23.7453   47.5719    8.0435 H   0  0  0  0  0  0  0  0  0  0  0  0
  -25.7836   48.1083    7.9151 C   0  0  0  0  0  0  0  0  0  0  0  0
  -25.8170   48.1054    6.3978 C   0  0  0  0  0  0  0  0  0  0  0  0
  -26.9572   48.9611    5.8892 C   0  0  0  0  0  0  0  0  0  0  0  0
  -26.8213   50.3311    6.4011 N   0  0  0  0  0  0  0  0  0  0  0  0
  -26.8805   50.3524    7.8719 C   0  0  0  0  0  0  0  0  0  0  0  0
  -25.7451   49.5297    8.4463 C   0  0  0  0  0  0  0  0  0  0  0  0
  -27.5790   50.9032    6.0284 H   0  0  0  0  0  0  0  0  0  0  0  0
  1  2  1  0  0  0
  2  3  2  0  0  0
  2 11  1  0  0  0
  3  4  1  0  0  0
  4  5  2  0  0  0
  4  9  1  0  0  0
  5  6  1  0  0  0
  6  7  2  0  0  0
  7  8  1  0  0  0
  8 14  1  0  0  0
  8  9  2  0  0  0
 14 16  1  0  0  0
 16 17  1  0  0  0
 16 21  1  0  0  0
 17 18  1  0  0  0
 18 19  1  0  0  0
 19 20  1  0  0  0
 20 21  1  0  0  0
  9 10  1  0  0  0
 10 11  1  0  0  0
 11 12  2  0  0  0
 14 15  1  0  0  0
 19 22  1  0  0  0
 10 13  1  0  0  0
M  END
> <minimizedAffinity>
-7.05454

$$$$
5A5Q_6XC_A_2111


 22 24  0  0  0  0  0  0  0  0999 V2000
  -21.6266   42.7915   10.1628 C   0  0  0  0  0  0  0  0  0  0  0  0
  -22.8722   43.5690   10.4876 C   0  0  0  0  0  0  0  0  0  0  0  0
  -23.3044   44.5712    9.7049 C   0  0  0  0  0  0  0  0  0  0  0  0
  -24.4903   45.3264    9.9959 C   0  0  0  0  0  0  0  0  0  0  0  0
  -24.9736   46.3709    9.2093 C   0  0  0  0  0  0  0  0  0  0  0  0
  -26.1304   47.0061    9.6109 C   0  0  0  0  0  0  0  0  0  0  0  0
  -26.8262   46.6828   10.7142 N   0  0  0  0  0  0  0  0  0  0  0  0
  -26.4050   45.6732   11.5068 C   0  0  0  0  0  0  0  0  0  0  0  0
  -25.2143   44.9844   11.1390 C   0  0  0  0  0  0  0  0  0  0  0  0
  -24.7480   43.9478   11.9267 N   0  0  0  0  0  0  0  0  0  0  0  0
  -23.6309   43.2188   11.6896 C   0  0  0  0  0  0  0  0  0  0  0  0
  -23.3253   42.3179   12.4674 O   0  0  0  0  0  0  0  0  0  0  0  0
  -25.2725   43.7202   12.7281 H   0  0  0  0  0  0  0  0  0  0  0  0
  -27.1458   45.3999   12.6032 N   0  0  0  0  0  0  0  0  0  0  0  0
  -26.7693   45.6269   13.4840 H   0  0  0  0  0  0  0  0  0  0  0  0
  -28.4727   44.7874   12.5606 C   0  0  0  0  0  0  0  0  0  0  0  0
  -28.8889   44.3306   13.9469 C   0  0  0  0  0  0  0  0  0  0  0  0
  -30.2256   43.6224   13.8946 C   0  0  0  0  0  0  0  0  0  0  0  0
  -30.1509   42.4804   12.9741 N   0  0  0  0  0  0  0  0  0  0  0  0
  -29.8378   42.9256   11.6063 C   0  0  0  0  0  0  0  0  0  0  0  0
  -28.4935   43.6243   11.5857 C   0  0  0  0  0  0  0  0  0  0  0  0
  -31.0485   41.9959   12.9700 H   0  0  0  0  0  0  0  0  0  0  0  0
  1  2  1  0  0  0
  2  3  2  0  0  0
  2 11  1  0  0  0
  3  4  1  0  0  0
  4  5  2  0  0  0
  4  9  1  0  0  0
  5  6  1  0  0  0
  6  7  2  0  0  0
  7  8  1  0  0  0
  8 14  1  0  0  0
  8  9  2  0  0  0
 14 16  1  0  0  0
 16 17  1  0  0  0
 16 21  1  0  0  0
 17 18  1  0  0  0
 18 19  1  0  0  0
 19 20  1  0  0  0
 20 21  1  0  0  0
  9 10  1  0  0  0
 10 11  1  0  0  0
 11 12  2  0  0  0
 14 15  1  0  0  0
 19 22  1  0  0  0
 10 13  1  0  0  0
M  END
> <minimizedAffinity>
-6.98117

$$$$
5A5Q_6XC_A_2111


 22 24  0  0  0  0  0  0  0  0999 V2000
  -23.0160   42.7964   11.4729 C   0  0  0  0  0  0  0  0  0  0  0  0
  -24.0154   43.9080   11.3087 C   0  0  0  0  0  0  0  0  0  0  0  0
  -24.8444   44.2661   12.3029 C   0  0  0  0  0  0  0  0  0  0  0  0
  -25.8058   45.3238   12.1680 C   0  0  0  0  0  0  0  0  0  0  0  0
  -26.6816   45.7273   13.1747 C   0  0  0  0  0  0  0  0  0  0  0  0
  -27.5511   46.7634   12.9037 C   0  0  0  0  0  0  0  0  0  0  0  0
  -27.6096   47.4132   11.7289 N   0  0  0  0  0  0  0  0  0  0  0  0
  -26.7775   47.0663   10.7228 C   0  0  0  0  0  0  0  0  0  0  0  0
  -25.8601   46.0010   10.9490 C   0  0  0  0  0  0  0  0  0  0  0  0
  -24.9946   45.6132    9.9426 N   0  0  0  0  0  0  0  0  0  0  0  0
  -24.0812   44.6164   10.0293 C   0  0  0  0  0  0  0  0  0  0  0  0
  -23.3658   44.3712    9.0608 O   0  0  0  0  0  0  0  0  0  0  0  0
  -25.0467   46.1032    9.0903 H   0  0  0  0  0  0  0  0  0  0  0  0
  -26.8884   47.7550    9.5657 N   0  0  0  0  0  0  0  0  0  0  0  0
  -26.5629   48.6839    9.5474 H   0  0  0  0  0  0  0  0  0  0  0  0
  -27.4626   47.2043    8.3390 C   0  0  0  0  0  0  0  0  0  0  0  0
  -27.5667   48.2808    7.2742 C   0  0  0  0  0  0  0  0  0  0  0  0
  -28.2358   47.7360    6.0307 C   0  0  0  0  0  0  0  0  0  0  0  0
  -29.5655   47.2109    6.3674 N   0  0  0  0  0  0  0  0  0  0  0  0
  -29.4660   46.1031    7.3317 C   0  0  0  0  0  0  0  0  0  0  0  0
  -28.8235   46.5912    8.6143 C   0  0  0  0  0  0  0  0  0  0  0  0
  -30.0161   46.8735    5.5169 H   0  0  0  0  0  0  0  0  0  0  0  0
  1  2  1  0  0  0
  2  3  2  0  0  0
  2 11  1  0  0  0
  3  4  1  0  0  0
  4  5  2  0  0  0
  4  9  1  0  0  0
  5  6  1  0  0  0
  6  7  2  0  0  0
  7  8  1  0  0  0
  8 14  1  0  0  0
  8  9  2  0  0  0
 14 16  1  0  0  0
 16 17  1  0  0  0
 16 21  1  0  0  0
 17 18  1  0  0  0
 18 19  1  0  0  0
 19 20  1  0  0  0
 20 21  1  0  0  0
  9 10  1  0  0  0
 10 11  1  0  0  0
 11 12  2  0  0  0
 14 15  1  0  0  0
 19 22  1  0  0  0
 10 13  1  0  0  0
M  END
> <minimizedAffinity>
-6.56950

$$$$
5A5Q_6XC_A_2111


 22 24  0  0  0  0  0  0  0  0999 V2000
  -29.3626   46.0454   15.1997 C   0  0  0  0  0  0  0  0  0  0  0  0
  -28.5529   46.2279   13.9456 C   0  0  0  0  0  0  0  0  0  0  0  0
  -27.5436   45.4004   13.6289 C   0  0  0  0  0  0  0  0  0  0  0  0
  -26.7578   45.5560   12.4375 C   0  0  0  0  0  0  0  0  0  0  0  0
  -25.7048   44.7189   12.0716 C   0  0  0  0  0  0  0  0  0  0  0  0
  -25.0393   44.9878   10.8935 C   0  0  0  0  0  0  0  0  0  0  0  0
  -25.3405   46.0069   10.0711 N   0  0  0  0  0  0  0  0  0  0  0  0
  -26.3569   46.8431   10.3755 C   0  0  0  0  0  0  0  0  0  0  0  0
  -27.0768   46.6115   11.5820 C   0  0  0  0  0  0  0  0  0  0  0  0
  -28.1213   47.4479   11.9311 N   0  0  0  0  0  0  0  0  0  0  0  0
  -28.8789   47.3381   13.0489 C   0  0  0  0  0  0  0  0  0  0  0  0
  -29.7839   48.1464   13.2429 O   0  0  0  0  0  0  0  0  0  0  0  0
  -28.3324   48.1860   11.3148 H   0  0  0  0  0  0  0  0  0  0  0  0
  -26.6070   47.8502    9.5102 N   0  0  0  0  0  0  0  0  0  0  0  0
  -27.2219   48.5637    9.7964 H   0  0  0  0  0  0  0  0  0  0  0  0
  -26.0199   47.9445    8.1745 C   0  0  0  0  0  0  0  0  0  0  0  0
  -25.0081   49.0745    8.1203 C   0  0  0  0  0  0  0  0  0  0  0  0
  -24.4579   49.2290    6.7188 C   0  0  0  0  0  0  0  0  0  0  0  0
  -25.5562   49.4722    5.7743 N   0  0  0  0  0  0  0  0  0  0  0  0
  -26.4942   48.3378    5.7535 C   0  0  0  0  0  0  0  0  0  0  0  0
  -27.1012   48.1445    7.1283 C   0  0  0  0  0  0  0  0  0  0  0  0
  -25.1696   49.6026    4.8395 H   0  0  0  0  0  0  0  0  0  0  0  0
  1  2  1  0  0  0
  2  3  2  0  0  0
  2 11  1  0  0  0
  3  4  1  0  0  0
  4  5  2  0  0  0
  4  9  1  0  0  0
  5  6  1  0  0  0
  6  7  2  0  0  0
  7  8  1  0  0  0
  8 14  1  0  0  0
  8  9  2  0  0  0
 14 16  1  0  0  0
 16 17  1  0  0  0
 16 21  1  0  0  0
 17 18  1  0  0  0
 18 19  1  0  0  0
 19 20  1  0  0  0
 20 21  1  0  0  0
  9 10  1  0  0  0
 10 11  1  0  0  0
 11 12  2  0  0  0
 14 15  1  0  0  0
 19 22  1  0  0  0
 10 13  1  0  0  0
M  END
> <minimizedAffinity>
-6.45588

$$$$
5A5Q_6XC_A_2111


 22 24  0  0  0  0  0  0  0  0999 V2000
  -21.9297   43.0944   10.2094 C   0  0  0  0  0  0  0  0  0  0  0  0
  -23.2027   43.8063   10.5758 C   0  0  0  0  0  0  0  0  0  0  0  0
  -23.6967   44.8037    9.8241 C   0  0  0  0  0  0  0  0  0  0  0  0
  -24.9097   45.4968   10.1551 C   0  0  0  0  0  0  0  0  0  0  0  0
  -25.4566   46.5342    9.4014 C   0  0  0  0  0  0  0  0  0  0  0  0
  -26.6328   47.1065    9.8396 C   0  0  0  0  0  0  0  0  0  0  0  0
  -27.2899   46.7281   10.9491 N   0  0  0  0  0  0  0  0  0  0  0  0
  -26.8064   45.7227   11.7108 C   0  0  0  0  0  0  0  0  0  0  0  0
  -25.5932   45.0976   11.3044 C   0  0  0  0  0  0  0  0  0  0  0  0
  -25.0635   44.0674   12.0597 N   0  0  0  0  0  0  0  0  0  0  0  0
  -23.9194   43.3962   11.7846 C   0  0  0  0  0  0  0  0  0  0  0  0
  -23.5566   42.4942   12.5362 O   0  0  0  0  0  0  0  0  0  0  0  0
  -25.5603   43.7989   12.8662 H   0  0  0  0  0  0  0  0  0  0  0  0
  -27.5109   45.3922   12.8153 N   0  0  0  0  0  0  0  0  0  0  0  0
  -27.5191   44.4478   13.0933 H   0  0  0  0  0  0  0  0  0  0  0  0
  -28.2620   46.3522   13.6228 C   0  0  0  0  0  0  0  0  0  0  0  0
  -28.9393   45.6498   14.7853 C   0  0  0  0  0  0  0  0  0  0  0  0
  -29.7844   46.6248   15.5765 C   0  0  0  0  0  0  0  0  0  0  0  0
  -30.7815   47.2500   14.6979 N   0  0  0  0  0  0  0  0  0  0  0  0
  -30.1301   48.0109   13.6191 C   0  0  0  0  0  0  0  0  0  0  0  0
  -29.2839   47.0831   12.7711 C   0  0  0  0  0  0  0  0  0  0  0  0
  -31.3619   47.8825   15.2488 H   0  0  0  0  0  0  0  0  0  0  0  0
  1  2  1  0  0  0
  2  3  2  0  0  0
  2 11  1  0  0  0
  3  4  1  0  0  0
  4  5  2  0  0  0
  4  9  1  0  0  0
  5  6  1  0  0  0
  6  7  2  0  0  0
  7  8  1  0  0  0
  8 14  1  0  0  0
  8  9  2  0  0  0
 14 16  1  0  0  0
 16 17  1  0  0  0
 16 21  1  0  0  0
 17 18  1  0  0  0
 18 19  1  0  0  0
 19 20  1  0  0  0
 20 21  1  0  0  0
  9 10  1  0  0  0
 10 11  1  0  0  0
 11 12  2  0  0  0
 14 15  1  0  0  0
 19 22  1  0  0  0
 10 13  1  0  0  0
M  END
> <minimizedAffinity>
-6.04752

$$$$
5A5Q_6XC_A_2111


 22 24  0  0  0  0  0  0  0  0999 V2000
  -26.3862   46.9568   10.7474 C   0  0  0  0  0  0  0  0  0  0  0  0
  -27.2194   46.3326   11.8327 C   0  0  0  0  0  0  0  0  0  0  0  0
  -28.0916   47.0527   12.5570 C   0  0  0  0  0  0  0  0  0  0  0  0
  -28.8967   46.4776   13.5974 C   0  0  0  0  0  0  0  0  0  0  0  0
  -29.8140   47.1887   14.3697 C   0  0  0  0  0  0  0  0  0  0  0  0
  -30.5225   46.5024   15.3341 C   0  0  0  0  0  0  0  0  0  0  0  0
  -30.3874   45.1881   15.5791 N   0  0  0  0  0  0  0  0  0  0  0  0
  -29.5175   44.4516   14.8539 C   0  0  0  0  0  0  0  0  0  0  0  0
  -28.7588   45.1112   13.8455 C   0  0  0  0  0  0  0  0  0  0  0  0
  -27.8547   44.3930   13.0845 N   0  0  0  0  0  0  0  0  0  0  0  0
  -27.0729   44.9011   12.1016 C   0  0  0  0  0  0  0  0  0  0  0  0
  -26.3097   44.1537   11.4943 O   0  0  0  0  0  0  0  0  0  0  0  0
  -27.7722   43.4302   13.2730 H   0  0  0  0  0  0  0  0  0  0  0  0
  -29.4252   43.1368   15.1513 N   0  0  0  0  0  0  0  0  0  0  0  0
  -28.9123   42.5595   14.5406 H   0  0  0  0  0  0  0  0  0  0  0  0
  -30.0407   42.5195   16.3251 C   0  0  0  0  0  0  0  0  0  0  0  0
  -29.2121   41.3388   16.7972 C   0  0  0  0  0  0  0  0  0  0  0  0
  -29.8877   40.6465   17.9613 C   0  0  0  0  0  0  0  0  0  0  0  0
  -31.2346   40.2102   17.5704 N   0  0  0  0  0  0  0  0  0  0  0  0
  -32.0742   41.3608   17.1986 C   0  0  0  0  0  0  0  0  0  0  0  0
  -31.4624   42.0860   16.0173 C   0  0  0  0  0  0  0  0  0  0  0  0
  -31.6672   39.7207   18.3538 H   0  0  0  0  0  0  0  0  0  0  0  0
  1  2  1  0  0  0
  2  3  2  0  0  0
  2 11  1  0  0  0
  3  4  1  0  0  0
  4  5  2  0  0  0
  4  9  1  0  0  0
  5  6  1  0  0  0
  6  7  2  0  0  0
  7  8  1  0  0  0
  8 14  1  0  0  0
  8  9  2  0  0  0
 14 16  1  0  0  0
 16 17  1  0  0  0
 16 21  1  0  0  0
 17 18  1  0  0  0
 18 19  1  0  0  0
 19 20  1  0  0  0
 20 21  1  0  0  0
  9 10  1  0  0  0
 10 11  1  0  0  0
 11 12  2  0  0  0
 14 15  1  0  0  0
 19 22  1  0  0  0
 10 13  1  0  0  0
M  END
> <minimizedAffinity>
-5.89970

$$$$
5A5Q_6XC_A_2111


 22 24  0  0  0  0  0  0  0  0999 V2000
  -22.6565   43.9804   10.5024 C   0  0  0  0  0  0  0  0  0  0  0  0
  -24.0760   44.3025   10.8802 C   0  0  0  0  0  0  0  0  0  0  0  0
  -24.8252   45.1505   10.1566 C   0  0  0  0  0  0  0  0  0  0  0  0
  -26.1819   45.4723   10.4987 C   0  0  0  0  0  0  0  0  0  0  0  0
  -26.9930   46.3442    9.7740 C   0  0  0  0  0  0  0  0  0  0  0  0
  -28.2811   46.5564   10.2198 C   0  0  0  0  0  0  0  0  0  0  0  0
  -28.8087   45.9752   11.3106 N   0  0  0  0  0  0  0  0  0  0  0  0
  -28.0674   45.1162   12.0438 C   0  0  0  0  0  0  0  0  0  0  0  0
  -26.7292   44.8624   11.6284 C   0  0  0  0  0  0  0  0  0  0  0  0
  -25.9367   43.9926   12.3548 N   0  0  0  0  0  0  0  0  0  0  0  0
  -24.6522   43.6710   12.0686 C   0  0  0  0  0  0  0  0  0  0  0  0
  -24.0553   42.8788   12.7939 O   0  0  0  0  0  0  0  0  0  0  0  0
  -26.3404   43.5711   13.1477 H   0  0  0  0  0  0  0  0  0  0  0  0
  -28.6538   44.5682   13.1307 N   0  0  0  0  0  0  0  0  0  0  0  0
  -28.4134   44.9262   14.0157 H   0  0  0  0  0  0  0  0  0  0  0  0
  -29.6238   43.4757   13.0721 C   0  0  0  0  0  0  0  0  0  0  0  0
  -29.5835   42.8053   11.7111 C   0  0  0  0  0  0  0  0  0  0  0  0
  -30.6422   41.7277   11.6174 C   0  0  0  0  0  0  0  0  0  0  0  0
  -31.9684   42.3062   11.8703 N   0  0  0  0  0  0  0  0  0  0  0  0
  -32.0445   42.8778   13.2247 C   0  0  0  0  0  0  0  0  0  0  0  0
  -31.0210   43.9847   13.3762 C   0  0  0  0  0  0  0  0  0  0  0  0
  -32.6743   41.5760   11.7761 H   0  0  0  0  0  0  0  0  0  0  0  0
  1  2  1  0  0  0
  2  3  2  0  0  0
  2 11  1  0  0  0
  3  4  1  0  0  0
  4  5  2  0  0  0
  4  9  1  0  0  0
  5  6  1  0  0  0
  6  7  2  0  0  0
  7  8  1  0  0  0
  8 14  1  0  0  0
  8  9  2  0  0  0
 14 16  1  0  0  0
 16 17  1  0  0  0
 16 21  1  0  0  0
 17 18  1  0  0  0
 18 19  1  0  0  0
 19 20  1  0  0  0
 20 21  1  0  0  0
  9 10  1  0  0  0
 10 11  1  0  0  0
 11 12  2  0  0  0
 14 15  1  0  0  0
 19 22  1  0  0  0
 10 13  1  0  0  0
M  END
> <minimizedAffinity>
-5.72863

$$$$
5A5Q_6XC_A_2111


 22 24  0  0  0  0  0  0  0  0999 V2000
  -26.8068   50.2596    6.0711 C   0  0  0  0  0  0  0  0  0  0  0  0
  -26.4375   49.1571    7.0248 C   0  0  0  0  0  0  0  0  0  0  0  0
  -27.3692   48.4658    7.7015 C   0  0  0  0  0  0  0  0  0  0  0  0
  -27.0393   47.4099    8.6167 C   0  0  0  0  0  0  0  0  0  0  0  0
  -27.9749   46.6678    9.3358 C   0  0  0  0  0  0  0  0  0  0  0  0
  -27.5117   45.6784   10.1782 C   0  0  0  0  0  0  0  0  0  0  0  0
  -26.2129   45.3805   10.3517 N   0  0  0  0  0  0  0  0  0  0  0  0
  -25.2663   46.0646    9.6729 C   0  0  0  0  0  0  0  0  0  0  0  0
  -25.6900   47.0985    8.7902 C   0  0  0  0  0  0  0  0  0  0  0  0
  -24.7513   47.8247    8.0805 N   0  0  0  0  0  0  0  0  0  0  0  0
  -25.0230   48.8317    7.2159 C   0  0  0  0  0  0  0  0  0  0  0  0
  -24.0953   49.3981    6.6427 O   0  0  0  0  0  0  0  0  0  0  0  0
  -23.8047   47.5899    8.2150 H   0  0  0  0  0  0  0  0  0  0  0  0
  -23.9787   45.7201    9.8942 N   0  0  0  0  0  0  0  0  0  0  0  0
  -23.3019   46.4351    9.8929 H   0  0  0  0  0  0  0  0  0  0  0  0
  -23.5295   44.3499   10.1355 C   0  0  0  0  0  0  0  0  0  0  0  0
  -23.6569   44.0032   11.6076 C   0  0  0  0  0  0  0  0  0  0  0  0
  -23.1166   42.6150   11.8758 C   0  0  0  0  0  0  0  0  0  0  0  0
  -21.7153   42.5316   11.4440 N   0  0  0  0  0  0  0  0  0  0  0  0
  -21.5941   42.7763    9.9975 C   0  0  0  0  0  0  0  0  0  0  0  0
  -22.0982   44.1659    9.6649 C   0  0  0  0  0  0  0  0  0  0  0  0
  -21.3556   41.6010   11.6563 H   0  0  0  0  0  0  0  0  0  0  0  0
  1  2  1  0  0  0
  2  3  2  0  0  0
  2 11  1  0  0  0
  3  4  1  0  0  0
  4  5  2  0  0  0
  4  9  1  0  0  0
  5  6  1  0  0  0
  6  7  2  0  0  0
  7  8  1  0  0  0
  8 14  1  0  0  0
  8  9  2  0  0  0
 14 16  1  0  0  0
 16 17  1  0  0  0
 16 21  1  0  0  0
 17 18  1  0  0  0
 18 19  1  0  0  0
 19 20  1  0  0  0
 20 21  1  0  0  0
  9 10  1  0  0  0
 10 11  1  0  0  0
 11 12  2  0  0  0
 14 15  1  0  0  0
 19 22  1  0  0  0
 10 13  1  0  0  0
M  END
> <minimizedAffinity>
-5.64248

$$$$
5A5Q_6XC_A_2111


 22 24  0  0  0  0  0  0  0  0999 V2000
  -31.7519   42.0776    8.9572 C   0  0  0  0  0  0  0  0  0  0  0  0
  -30.6930   42.7755    9.7654 C   0  0  0  0  0  0  0  0  0  0  0  0
  -30.8144   42.9473   11.0919 C   0  0  0  0  0  0  0  0  0  0  0  0
  -29.8162   43.6104   11.8826 C   0  0  0  0  0  0  0  0  0  0  0  0
  -29.9028   43.8068   13.2601 C   0  0  0  0  0  0  0  0  0  0  0  0
  -28.8636   44.4591   13.8906 C   0  0  0  0  0  0  0  0  0  0  0  0
  -27.7680   44.9188   13.2628 N   0  0  0  0  0  0  0  0  0  0  0  0
  -27.6314   44.7476   11.9298 C   0  0  0  0  0  0  0  0  0  0  0  0
  -28.6767   44.0814   11.2290 C   0  0  0  0  0  0  0  0  0  0  0  0
  -28.5763   43.8903    9.8631 N   0  0  0  0  0  0  0  0  0  0  0  0
  -29.4993   43.2779    9.0830 C   0  0  0  0  0  0  0  0  0  0  0  0
  -29.2889   43.1677    7.8774 O   0  0  0  0  0  0  0  0  0  0  0  0
  -27.7648   44.2281    9.4196 H   0  0  0  0  0  0  0  0  0  0  0  0
  -26.5092   45.2359   11.3572 N   0  0  0  0  0  0  0  0  0  0  0  0
  -26.4424   46.2095   11.2273 H   0  0  0  0  0  0  0  0  0  0  0  0
  -25.3881   44.4061   10.9189 C   0  0  0  0  0  0  0  0  0  0  0  0
  -24.5827   43.9311   12.1143 C   0  0  0  0  0  0  0  0  0  0  0  0
  -23.3743   43.1402   11.6613 C   0  0  0  0  0  0  0  0  0  0  0  0
  -22.5437   43.9618   10.7712 N   0  0  0  0  0  0  0  0  0  0  0  0
  -23.2903   44.3503    9.5634 C   0  0  0  0  0  0  0  0  0  0  0  0
  -24.5052   45.1698    9.9487 C   0  0  0  0  0  0  0  0  0  0  0  0
  -21.7195   43.4275   10.4965 H   0  0  0  0  0  0  0  0  0  0  0  0
  1  2  1  0  0  0
  2  3  2  0  0  0
  2 11  1  0  0  0
  3  4  1  0  0  0
  4  5  2  0  0  0
  4  9  1  0  0  0
  5  6  1  0  0  0
  6  7  2  0  0  0
  7  8  1  0  0  0
  8 14  1  0  0  0
  8  9  2  0  0  0
 14 16  1  0  0  0
 16 17  1  0  0  0
 16 21  1  0  0  0
 17 18  1  0  0  0
 18 19  1  0  0  0
 19 20  1  0  0  0
 20 21  1  0  0  0
  9 10  1  0  0  0
 10 11  1  0  0  0
 11 12  2  0  0  0
 14 15  1  0  0  0
 19 22  1  0  0  0
 10 13  1  0  0  0
M  END
> <minimizedAffinity>
-5.52359

$$$$
