3EL4_ROC_A_100


 55 59  0  0  0  0  0  0  0  0999 V2000
    4.8970   -2.0398   15.6836 C   0  0  0  0  0  0  0  0  0  0  0  0
    6.8313   -3.4929   16.0070 C   0  0  0  0  0  0  0  0  0  0  0  0
    7.3769   -3.0745   14.9855 O   0  0  0  0  0  0  0  0  0  0  0  0
    5.6367   -3.0513   16.4222 N   0  0  0  0  0  0  0  0  0  0  0  0
    5.2494   -3.4208   17.2485 H   0  0  0  0  0  0  0  0  0  0  0  0
    7.4609   -4.5688   16.8767 C   0  0  0  0  0  0  0  0  0  0  0  0
    6.1528   -6.2381   18.1078 C   0  0  0  0  0  0  0  0  0  0  0  0
    6.5519   -5.7203   19.1608 O   0  0  0  0  0  0  0  0  0  0  0  0
    6.5614   -5.7158   16.9335 N   0  0  0  0  0  0  0  0  0  0  0  0
    6.2445   -6.1189   16.0931 H   0  0  0  0  0  0  0  0  0  0  0  0
    5.2168   -8.0778   16.8852 N   0  0  0  0  0  0  0  0  0  0  0  0
    5.2563   -7.3298   18.0537 C   0  0  0  0  0  0  0  0  0  0  0  0
    4.3896   -7.6843   19.1290 C   0  0  0  0  0  0  0  0  0  0  0  0
    3.5135   -8.7953   18.9747 C   0  0  0  0  0  0  0  0  0  0  0  0
    2.6436  -10.6502   17.5818 C   0  0  0  0  0  0  0  0  0  0  0  0
    2.6779  -11.3604   16.3410 C   0  0  0  0  0  0  0  0  0  0  0  0
    3.5641  -10.9671   15.2897 C   0  0  0  0  0  0  0  0  0  0  0  0
    4.4300   -9.8548   15.4632 C   0  0  0  0  0  0  0  0  0  0  0  0
    3.5081   -9.5348   17.7618 C   0  0  0  0  0  0  0  0  0  0  0  0
    4.3996   -9.1479   16.6920 C   0  0  0  0  0  0  0  0  0  0  0  0
    8.8215   -4.9933   16.3275 C   0  0  0  0  0  0  0  0  0  0  0  0
    9.6867   -5.6322   17.3928 C   0  0  0  0  0  0  0  0  0  0  0  0
    9.8432   -5.0845   18.4827 O   0  0  0  0  0  0  0  0  0  0  0  0
   10.2308   -6.8055   17.0969 N   0  0  0  0  0  0  0  0  0  0  0  0
   10.0799   -7.2088   16.2116 H   0  0  0  0  0  0  0  0  0  0  0  0
   10.7855   -7.2727   17.7626 H   0  0  0  0  0  0  0  0  0  0  0  0
    5.5493   -0.6644   16.0187 C   0  0  0  0  0  0  0  0  0  0  0  0
    5.2869   -0.3525   17.3858 O   0  0  0  0  0  0  0  0  0  0  0  0
    4.3328   -0.2327   17.5127 H   0  0  0  0  0  0  0  0  0  0  0  0
    5.1930    0.5343   15.1216 C   0  0  0  0  0  0  0  0  0  0  0  0
    5.8819    0.4882   13.8203 N   0  0  0  0  0  0  0  0  0  0  0  0
    5.0769    1.0994   12.7063 C   0  0  0  0  0  0  0  0  0  0  0  0
    5.8584    1.0608   11.3782 C   0  0  0  0  0  0  0  0  0  0  0  0
    7.2147    1.7610   11.5522 C   0  0  0  0  0  0  0  0  0  0  0  0
    8.0414    1.7259   10.2693 C   0  0  0  0  0  0  0  0  0  0  0  0
    8.6357    0.3247    9.9874 C   0  0  0  0  0  0  0  0  0  0  0  0
    9.4819   -0.2198   11.1569 C   0  0  0  0  0  0  0  0  0  0  0  0
    8.6059   -0.2619   12.4207 C   0  0  0  0  0  0  0  0  0  0  0  0
    8.0598    1.1426   12.7506 C   0  0  0  0  0  0  0  0  0  0  0  0
    7.1838    1.1515   14.0155 C   0  0  0  0  0  0  0  0  0  0  0  0
    3.7408    0.4189   12.4365 C   0  0  0  0  0  0  0  0  0  0  0  0
    3.7115   -0.8150   12.3365 O   0  0  0  0  0  0  0  0  0  0  0  0
    2.7005    1.2774   12.3820 N   0  0  0  0  0  0  0  0  0  0  0  0
    2.9052    2.2260   12.5474 H   0  0  0  0  0  0  0  0  0  0  0  0
    1.3043    0.9514   12.1042 C   0  0  0  0  0  0  0  0  0  0  0  0
    0.5798    2.2759   12.1142 C   0  0  0  0  0  0  0  0  0  0  0  0
    1.1156    0.3592   10.7277 C   0  0  0  0  0  0  0  0  0  0  0  0
    0.6863    0.0506   13.1896 C   0  0  0  0  0  0  0  0  0  0  0  0
    3.4076   -2.1463   16.1178 C   0  0  0  0  0  0  0  0  0  0  0  0
    2.8924   -3.5715   16.1567 C   0  0  0  0  0  0  0  0  0  0  0  0
    2.7951   -4.3110   14.9799 C   0  0  0  0  0  0  0  0  0  0  0  0
    2.5597   -4.1356   17.3879 C   0  0  0  0  0  0  0  0  0  0  0  0
    2.3639   -5.6311   15.0434 C   0  0  0  0  0  0  0  0  0  0  0  0
    2.1323   -5.4505   17.4314 C   0  0  0  0  0  0  0  0  0  0  0  0
    2.0362   -6.1967   16.2624 C   0  0  0  0  0  0  0  0  0  0  0  0
  8  7  2  0  0  0
  7 12  1  0  0  0
 11 12  2  0  0  0
 11 20  1  0  0  0
 12 13  1  0  0  0
 13 14  2  0  0  0
 14 19  1  0  0  0
 19 15  2  0  0  0
 19 20  1  0  0  0
 15 16  1  0  0  0
 16 17  2  0  0  0
 17 18  1  0  0  0
 18 20  2  0  0  0
  9  6  1  0  0  0
  6  2  1  0  0  0
  6 21  1  0  0  0
  2  3  2  0  0  0
 21 22  1  0  0  0
 22 23  2  0  0  0
 22 24  1  0  0  0
 27 28  1  0  0  0
 27  1  1  0  0  0
  1  4  1  0  0  0
  1 49  1  0  0  0
 49 50  1  0  0  0
 50 51  2  0  0  0
 50 52  1  0  0  0
 51 53  1  0  0  0
 52 54  2  0  0  0
 53 55  2  0  0  0
 54 55  1  0  0  0
 31 30  1  0  0  0
 31 32  1  0  0  0
 31 40  1  0  0  0
 32 41  1  0  0  0
 32 33  1  0  0  0
 41 42  2  0  0  0
 33 34  1  0  0  0
 34 35  1  0  0  0
 34 39  1  0  0  0
 35 36  1  0  0  0
 36 37  1  0  0  0
 37 38  1  0  0  0
 38 39  1  0  0  0
 39 40  1  0  0  0
 43 45  1  0  0  0
 45 46  1  0  0  0
 45 47  1  0  0  0
 45 48  1  0  0  0
  7  9  1  0  0  0
  2  4  1  0  0  0
 27 30  1  0  0  0
 41 43  1  0  0  0
  9 10  1  0  0  0
 24 25  1  0  0  0
 24 26  1  0  0  0
 28 29  1  0  0  0
  4  5  1  0  0  0
 43 44  1  0  0  0
M  END
> <minimizedAffinity>
-12.07134

$$$$
3EL4_ROC_A_100


 55 59  0  0  0  0  0  0  0  0999 V2000
    4.9880   -2.1721   15.8587 C   0  0  0  0  0  0  0  0  0  0  0  0
    6.8851   -3.6689   16.2028 C   0  0  0  0  0  0  0  0  0  0  0  0
    7.2230   -3.5902   15.0214 O   0  0  0  0  0  0  0  0  0  0  0  0
    5.8224   -3.0194   16.6963 N   0  0  0  0  0  0  0  0  0  0  0  0
    5.6006   -3.1181   17.6504 H   0  0  0  0  0  0  0  0  0  0  0  0
    7.6365   -4.5327   17.2025 C   0  0  0  0  0  0  0  0  0  0  0  0
    6.4906   -6.4312   18.2495 C   0  0  0  0  0  0  0  0  0  0  0  0
    6.4129   -5.7627   19.2904 O   0  0  0  0  0  0  0  0  0  0  0  0
    7.0833   -5.8821   17.1697 N   0  0  0  0  0  0  0  0  0  0  0  0
    7.1443   -6.4053   16.3380 H   0  0  0  0  0  0  0  0  0  0  0  0
    4.7244   -7.9963   18.6811 N   0  0  0  0  0  0  0  0  0  0  0  0
    5.9591   -7.7330   18.1043 C   0  0  0  0  0  0  0  0  0  0  0  0
    6.6341   -8.7806   17.4115 C   0  0  0  0  0  0  0  0  0  0  0  0
    6.0215  -10.0626   17.3284 C   0  0  0  0  0  0  0  0  0  0  0  0
    4.1199  -11.5583   17.8620 C   0  0  0  0  0  0  0  0  0  0  0  0
    2.8449  -11.7310   18.4862 C   0  0  0  0  0  0  0  0  0  0  0  0
    2.2062  -10.6502   19.1714 C   0  0  0  0  0  0  0  0  0  0  0  0
    2.8347   -9.3786   19.2439 C   0  0  0  0  0  0  0  0  0  0  0  0
    4.7550  -10.2871   17.9315 C   0  0  0  0  0  0  0  0  0  0  0  0
    4.0987   -9.2029   18.6261 C   0  0  0  0  0  0  0  0  0  0  0  0
    9.1302   -4.5680   16.8852 C   0  0  0  0  0  0  0  0  0  0  0  0
    9.5325   -5.8572   16.2012 C   0  0  0  0  0  0  0  0  0  0  0  0
    9.8139   -6.8547   16.8631 O   0  0  0  0  0  0  0  0  0  0  0  0
    9.5359   -5.8544   14.8746 N   0  0  0  0  0  0  0  0  0  0  0  0
    9.3041   -5.0332   14.3834 H   0  0  0  0  0  0  0  0  0  0  0  0
    9.7703   -6.6735   14.3812 H   0  0  0  0  0  0  0  0  0  0  0  0
    5.5476   -0.7223   15.9784 C   0  0  0  0  0  0  0  0  0  0  0  0
    5.4067   -0.2857   17.3292 O   0  0  0  0  0  0  0  0  0  0  0  0
    4.4648   -0.2269   17.5535 H   0  0  0  0  0  0  0  0  0  0  0  0
    4.9919    0.3413   15.0148 C   0  0  0  0  0  0  0  0  0  0  0  0
    5.7200    0.3767   13.7347 N   0  0  0  0  0  0  0  0  0  0  0  0
    4.9721    1.1054   12.6521 C   0  0  0  0  0  0  0  0  0  0  0  0
    5.7938    1.1472   11.3487 C   0  0  0  0  0  0  0  0  0  0  0  0
    7.1667    1.7815   11.6193 C   0  0  0  0  0  0  0  0  0  0  0  0
    8.0322    1.8213   10.3624 C   0  0  0  0  0  0  0  0  0  0  0  0
    8.5878    0.4272    9.9831 C   0  0  0  0  0  0  0  0  0  0  0  0
    9.3775   -0.2411   11.1276 C   0  0  0  0  0  0  0  0  0  0  0  0
    8.4606   -0.3545   12.3576 C   0  0  0  0  0  0  0  0  0  0  0  0
    7.9518    1.0371   12.7865 C   0  0  0  0  0  0  0  0  0  0  0  0
    7.0366    0.9744   14.0218 C   0  0  0  0  0  0  0  0  0  0  0  0
    3.6232    0.4980   12.2882 C   0  0  0  0  0  0  0  0  0  0  0  0
    3.5697   -0.7075   12.0097 O   0  0  0  0  0  0  0  0  0  0  0  0
    2.6000    1.3755   12.3610 N   0  0  0  0  0  0  0  0  0  0  0  0
    2.8232    2.2858   12.6625 H   0  0  0  0  0  0  0  0  0  0  0  0
    1.1981    1.1211   12.0409 C   0  0  0  0  0  0  0  0  0  0  0  0
    1.2138    0.4933   10.6680 C   0  0  0  0  0  0  0  0  0  0  0  0
    0.5690    0.1151   12.9755 C   0  0  0  0  0  0  0  0  0  0  0  0
    0.3683    2.4167   11.9740 C   0  0  0  0  0  0  0  0  0  0  0  0
    3.5246   -2.3197   16.3635 C   0  0  0  0  0  0  0  0  0  0  0  0
    3.0122   -3.7457   16.3153 C   0  0  0  0  0  0  0  0  0  0  0  0
    2.7695   -4.3592   15.0881 C   0  0  0  0  0  0  0  0  0  0  0  0
    2.8293   -4.4381   17.5119 C   0  0  0  0  0  0  0  0  0  0  0  0
    2.3439   -5.6825   15.0650 C   0  0  0  0  0  0  0  0  0  0  0  0
    2.4051   -5.7540   17.4692 C   0  0  0  0  0  0  0  0  0  0  0  0
    2.1646   -6.3750   16.2489 C   0  0  0  0  0  0  0  0  0  0  0  0
  8  7  2  0  0  0
  7 12  1  0  0  0
 11 12  2  0  0  0
 11 20  1  0  0  0
 12 13  1  0  0  0
 13 14  2  0  0  0
 14 19  1  0  0  0
 19 15  2  0  0  0
 19 20  1  0  0  0
 15 16  1  0  0  0
 16 17  2  0  0  0
 17 18  1  0  0  0
 18 20  2  0  0  0
  9  6  1  0  0  0
  6  2  1  0  0  0
  6 21  1  0  0  0
  2  3  2  0  0  0
 21 22  1  0  0  0
 22 23  2  0  0  0
 22 24  1  0  0  0
 27 28  1  0  0  0
 27  1  1  0  0  0
  1  4  1  0  0  0
  1 49  1  0  0  0
 49 50  1  0  0  0
 50 51  2  0  0  0
 50 52  1  0  0  0
 51 53  1  0  0  0
 52 54  2  0  0  0
 53 55  2  0  0  0
 54 55  1  0  0  0
 31 30  1  0  0  0
 31 32  1  0  0  0
 31 40  1  0  0  0
 32 41  1  0  0  0
 32 33  1  0  0  0
 41 42  2  0  0  0
 33 34  1  0  0  0
 34 35  1  0  0  0
 34 39  1  0  0  0
 35 36  1  0  0  0
 36 37  1  0  0  0
 37 38  1  0  0  0
 38 39  1  0  0  0
 39 40  1  0  0  0
 43 45  1  0  0  0
 45 46  1  0  0  0
 45 47  1  0  0  0
 45 48  1  0  0  0
  7  9  1  0  0  0
  2  4  1  0  0  0
 27 30  1  0  0  0
 41 43  1  0  0  0
  9 10  1  0  0  0
 24 25  1  0  0  0
 24 26  1  0  0  0
 28 29  1  0  0  0
  4  5  1  0  0  0
 43 44  1  0  0  0
M  END
> <minimizedAffinity>
-10.93926

$$$$
3EL4_ROC_A_100


 55 59  0  0  0  0  0  0  0  0999 V2000
    5.4693   -3.0125   15.3243 C   0  0  0  0  0  0  0  0  0  0  0  0
    5.0397   -4.8345   16.8906 C   0  0  0  0  0  0  0  0  0  0  0  0
    6.0099   -4.5303   17.5851 O   0  0  0  0  0  0  0  0  0  0  0  0
    4.7018   -4.1594   15.7840 N   0  0  0  0  0  0  0  0  0  0  0  0
    3.9138   -4.4469   15.2686 H   0  0  0  0  0  0  0  0  0  0  0  0
    4.1508   -6.0227   17.2198 C   0  0  0  0  0  0  0  0  0  0  0  0
    4.6718   -8.2951   16.4594 C   0  0  0  0  0  0  0  0  0  0  0  0
    3.6845   -8.2319   15.7127 O   0  0  0  0  0  0  0  0  0  0  0  0
    4.9663   -7.2320   17.2353 N   0  0  0  0  0  0  0  0  0  0  0  0
    5.7518   -7.2733   17.8273 H   0  0  0  0  0  0  0  0  0  0  0  0
    6.7947   -9.2143   17.0948 N   0  0  0  0  0  0  0  0  0  0  0  0
    5.5433   -9.4061   16.5257 C   0  0  0  0  0  0  0  0  0  0  0  0
    5.2035  -10.6977   16.0263 C   0  0  0  0  0  0  0  0  0  0  0  0
    6.1541  -11.7519   16.1292 C   0  0  0  0  0  0  0  0  0  0  0  0
    8.3905  -12.5478   16.8384 C   0  0  0  0  0  0  0  0  0  0  0  0
    9.6523  -12.2525   17.4433 C   0  0  0  0  0  0  0  0  0  0  0  0
    9.9488  -10.9405   17.9293 C   0  0  0  0  0  0  0  0  0  0  0  0
    8.9868   -9.9019   17.8163 C   0  0  0  0  0  0  0  0  0  0  0  0
    7.4226  -11.5116   16.7217 C   0  0  0  0  0  0  0  0  0  0  0  0
    7.7343  -10.1903   17.2175 C   0  0  0  0  0  0  0  0  0  0  0  0
    3.4605   -5.8356   18.5695 C   0  0  0  0  0  0  0  0  0  0  0  0
    4.2744   -6.4166   19.7060 C   0  0  0  0  0  0  0  0  0  0  0  0
    4.1926   -7.6112   19.9867 O   0  0  0  0  0  0  0  0  0  0  0  0
    5.0837   -5.5845   20.3482 N   0  0  0  0  0  0  0  0  0  0  0  0
    5.1182   -4.6348   20.0911 H   0  0  0  0  0  0  0  0  0  0  0  0
    5.6499   -5.9166   21.0820 H   0  0  0  0  0  0  0  0  0  0  0  0
    4.4704   -2.0552   14.6065 C   0  0  0  0  0  0  0  0  0  0  0  0
    4.3063   -2.4899   13.2578 O   0  0  0  0  0  0  0  0  0  0  0  0
    5.1481   -2.4000   12.7843 H   0  0  0  0  0  0  0  0  0  0  0  0
    4.7710   -0.5463   14.6463 C   0  0  0  0  0  0  0  0  0  0  0  0
    5.5041   -0.0866   13.4542 N   0  0  0  0  0  0  0  0  0  0  0  0
    4.7601    0.9621   12.6738 C   0  0  0  0  0  0  0  0  0  0  0  0
    5.5869    1.4356   11.4621 C   0  0  0  0  0  0  0  0  0  0  0  0
    6.9584    1.9420   11.9340 C   0  0  0  0  0  0  0  0  0  0  0  0
    7.8289    2.3981   10.7658 C   0  0  0  0  0  0  0  0  0  0  0  0
    8.3866    1.2099    9.9453 C   0  0  0  0  0  0  0  0  0  0  0  0
    9.1720    0.1974   10.8044 C   0  0  0  0  0  0  0  0  0  0  0  0
    8.2504   -0.3190   11.9226 C   0  0  0  0  0  0  0  0  0  0  0  0
    7.7393    0.8503   12.7891 C   0  0  0  0  0  0  0  0  0  0  0  0
    6.8193    0.3800   13.9292 C   0  0  0  0  0  0  0  0  0  0  0  0
    3.4129    0.5120   12.1229 C   0  0  0  0  0  0  0  0  0  0  0  0
    3.3515   -0.5586   11.5037 O   0  0  0  0  0  0  0  0  0  0  0  0
    2.3990    1.3489   12.4293 N   0  0  0  0  0  0  0  0  0  0  0  0
    2.6259    2.1274   12.9875 H   0  0  0  0  0  0  0  0  0  0  0  0
    1.0019    1.2246   12.0224 C   0  0  0  0  0  0  0  0  0  0  0  0
    0.4610    2.6340   12.0306 C   0  0  0  0  0  0  0  0  0  0  0  0
    0.8587    0.7086   10.6101 C   0  0  0  0  0  0  0  0  0  0  0  0
    0.1768    0.3810   13.0119 C   0  0  0  0  0  0  0  0  0  0  0  0
    6.5945   -3.5506   14.3956 C   0  0  0  0  0  0  0  0  0  0  0  0
    7.9813   -3.4253   14.9951 C   0  0  0  0  0  0  0  0  0  0  0  0
    8.6135   -4.5449   15.5319 C   0  0  0  0  0  0  0  0  0  0  0  0
    8.6216   -2.1870   14.9619 C   0  0  0  0  0  0  0  0  0  0  0  0
    9.9033   -4.4180   16.0349 C   0  0  0  0  0  0  0  0  0  0  0  0
    9.9048   -2.0799   15.4675 C   0  0  0  0  0  0  0  0  0  0  0  0
   10.5444   -3.1929   16.0011 C   0  0  0  0  0  0  0  0  0  0  0  0
  8  7  2  0  0  0
  7 12  1  0  0  0
 11 12  2  0  0  0
 11 20  1  0  0  0
 12 13  1  0  0  0
 13 14  2  0  0  0
 14 19  1  0  0  0
 19 15  2  0  0  0
 19 20  1  0  0  0
 15 16  1  0  0  0
 16 17  2  0  0  0
 17 18  1  0  0  0
 18 20  2  0  0  0
  9  6  1  0  0  0
  6  2  1  0  0  0
  6 21  1  0  0  0
  2  3  2  0  0  0
 21 22  1  0  0  0
 22 23  2  0  0  0
 22 24  1  0  0  0
 27 28  1  0  0  0
 27  1  1  0  0  0
  1  4  1  0  0  0
  1 49  1  0  0  0
 49 50  1  0  0  0
 50 51  2  0  0  0
 50 52  1  0  0  0
 51 53  1  0  0  0
 52 54  2  0  0  0
 53 55  2  0  0  0
 54 55  1  0  0  0
 31 30  1  0  0  0
 31 32  1  0  0  0
 31 40  1  0  0  0
 32 41  1  0  0  0
 32 33  1  0  0  0
 41 42  2  0  0  0
 33 34  1  0  0  0
 34 35  1  0  0  0
 34 39  1  0  0  0
 35 36  1  0  0  0
 36 37  1  0  0  0
 37 38  1  0  0  0
 38 39  1  0  0  0
 39 40  1  0  0  0
 43 45  1  0  0  0
 45 46  1  0  0  0
 45 47  1  0  0  0
 45 48  1  0  0  0
  7  9  1  0  0  0
  2  4  1  0  0  0
 27 30  1  0  0  0
 41 43  1  0  0  0
  9 10  1  0  0  0
 24 25  1  0  0  0
 24 26  1  0  0  0
 28 29  1  0  0  0
  4  5  1  0  0  0
 43 44  1  0  0  0
M  END
> <minimizedAffinity>
-10.80406

$$$$
3EL4_ROC_A_100


 55 59  0  0  0  0  0  0  0  0999 V2000
    5.4686   -3.1969   15.1448 C   0  0  0  0  0  0  0  0  0  0  0  0
    4.2863   -4.9906   16.3034 C   0  0  0  0  0  0  0  0  0  0  0  0
    4.3278   -4.3894   17.3772 O   0  0  0  0  0  0  0  0  0  0  0  0
    4.8086   -4.4928   15.1748 N   0  0  0  0  0  0  0  0  0  0  0  0
    4.7442   -5.0175   14.3442 H   0  0  0  0  0  0  0  0  0  0  0  0
    3.6547   -6.3668   16.1716 C   0  0  0  0  0  0  0  0  0  0  0  0
    4.7101   -8.5605   16.4665 C   0  0  0  0  0  0  0  0  0  0  0  0
    4.2706   -8.8806   15.3527 O   0  0  0  0  0  0  0  0  0  0  0  0
    4.4458   -7.3243   16.9364 N   0  0  0  0  0  0  0  0  0  0  0  0
    4.7958   -7.0614   17.8182 H   0  0  0  0  0  0  0  0  0  0  0  0
    6.8794   -9.4146   17.0323 N   0  0  0  0  0  0  0  0  0  0  0  0
    5.5122   -9.4012   17.2716 C   0  0  0  0  0  0  0  0  0  0  0  0
    4.9835  -10.2381   18.2979 C   0  0  0  0  0  0  0  0  0  0  0  0
    5.8719  -11.0585   19.0485 C   0  0  0  0  0  0  0  0  0  0  0  0
    8.1750  -11.8476   19.5074 C   0  0  0  0  0  0  0  0  0  0  0  0
    9.5678  -11.7900   19.1882 C   0  0  0  0  0  0  0  0  0  0  0  0
   10.0521  -10.9353   18.1487 C   0  0  0  0  0  0  0  0  0  0  0  0
    9.1489  -10.1250   17.4106 C   0  0  0  0  0  0  0  0  0  0  0  0
    7.2650  -11.0387   18.7714 C   0  0  0  0  0  0  0  0  0  0  0  0
    7.7671  -10.1787   17.7239 C   0  0  0  0  0  0  0  0  0  0  0  0
    2.2109   -6.3591   16.6701 C   0  0  0  0  0  0  0  0  0  0  0  0
    1.2833   -5.6527   15.7046 C   0  0  0  0  0  0  0  0  0  0  0  0
    0.1491   -5.3278   16.0516 O   0  0  0  0  0  0  0  0  0  0  0  0
    1.7662   -5.3862   14.4980 N   0  0  0  0  0  0  0  0  0  0  0  0
    2.6804   -5.6644   14.2612 H   0  0  0  0  0  0  0  0  0  0  0  0
    1.2105   -4.9101   13.8395 H   0  0  0  0  0  0  0  0  0  0  0  0
    4.4696   -2.1928   14.4943 C   0  0  0  0  0  0  0  0  0  0  0  0
    4.3006   -2.5380   13.1204 O   0  0  0  0  0  0  0  0  0  0  0  0
    5.1413   -2.4187   12.6514 H   0  0  0  0  0  0  0  0  0  0  0  0
    4.7732   -0.6904   14.6320 C   0  0  0  0  0  0  0  0  0  0  0  0
    5.5440   -0.1650   13.4919 N   0  0  0  0  0  0  0  0  0  0  0  0
    4.8420    0.9541   12.7725 C   0  0  0  0  0  0  0  0  0  0  0  0
    5.7072    1.4923   11.6160 C   0  0  0  0  0  0  0  0  0  0  0  0
    7.0783    1.9310   12.1525 C   0  0  0  0  0  0  0  0  0  0  0  0
    7.9857    2.4478   11.0390 C   0  0  0  0  0  0  0  0  0  0  0  0
    8.5357    1.3078   10.1479 C   0  0  0  0  0  0  0  0  0  0  0  0
    9.2781    0.2184   10.9493 C   0  0  0  0  0  0  0  0  0  0  0  0
    8.3193   -0.3538   12.0074 C   0  0  0  0  0  0  0  0  0  0  0  0
    7.8144    0.7629   12.9441 C   0  0  0  0  0  0  0  0  0  0  0  0
    6.8579    0.2351   14.0275 C   0  0  0  0  0  0  0  0  0  0  0  0
    3.4983    0.5766   12.1619 C   0  0  0  0  0  0  0  0  0  0  0  0
    3.3959   -0.5089   11.5748 O   0  0  0  0  0  0  0  0  0  0  0  0
    2.5299    1.4905   12.3840 N   0  0  0  0  0  0  0  0  0  0  0  0
    2.7801    2.2714   12.9289 H   0  0  0  0  0  0  0  0  0  0  0  0
    1.1515    1.4464   11.9038 C   0  0  0  0  0  0  0  0  0  0  0  0
    0.4236    0.5476   12.8742 C   0  0  0  0  0  0  0  0  0  0  0  0
    0.4776    2.7965   11.9673 C   0  0  0  0  0  0  0  0  0  0  0  0
    1.0414    0.8325   10.4957 C   0  0  0  0  0  0  0  0  0  0  0  0
    6.7904   -3.3691   14.3439 C   0  0  0  0  0  0  0  0  0  0  0  0
    8.0197   -3.4694   15.2255 C   0  0  0  0  0  0  0  0  0  0  0  0
    8.1497   -4.5262   16.1243 C   0  0  0  0  0  0  0  0  0  0  0  0
    9.0268   -2.5143   15.0908 C   0  0  0  0  0  0  0  0  0  0  0  0
    9.3055   -4.6251   16.8904 C   0  0  0  0  0  0  0  0  0  0  0  0
   10.1695   -2.6290   15.8618 C   0  0  0  0  0  0  0  0  0  0  0  0
   10.3092   -3.6825   16.7581 C   0  0  0  0  0  0  0  0  0  0  0  0
  8  7  2  0  0  0
  7 12  1  0  0  0
 11 12  2  0  0  0
 11 20  1  0  0  0
 12 13  1  0  0  0
 13 14  2  0  0  0
 14 19  1  0  0  0
 19 15  2  0  0  0
 19 20  1  0  0  0
 15 16  1  0  0  0
 16 17  2  0  0  0
 17 18  1  0  0  0
 18 20  2  0  0  0
  9  6  1  0  0  0
  6  2  1  0  0  0
  6 21  1  0  0  0
  2  3  2  0  0  0
 21 22  1  0  0  0
 22 23  2  0  0  0
 22 24  1  0  0  0
 27 28  1  0  0  0
 27  1  1  0  0  0
  1  4  1  0  0  0
  1 49  1  0  0  0
 49 50  1  0  0  0
 50 51  2  0  0  0
 50 52  1  0  0  0
 51 53  1  0  0  0
 52 54  2  0  0  0
 53 55  2  0  0  0
 54 55  1  0  0  0
 31 30  1  0  0  0
 31 32  1  0  0  0
 31 40  1  0  0  0
 32 41  1  0  0  0
 32 33  1  0  0  0
 41 42  2  0  0  0
 33 34  1  0  0  0
 34 35  1  0  0  0
 34 39  1  0  0  0
 35 36  1  0  0  0
 36 37  1  0  0  0
 37 38  1  0  0  0
 38 39  1  0  0  0
 39 40  1  0  0  0
 43 45  1  0  0  0
 45 46  1  0  0  0
 45 47  1  0  0  0
 45 48  1  0  0  0
  7  9  1  0  0  0
  2  4  1  0  0  0
 27 30  1  0  0  0
 41 43  1  0  0  0
  9 10  1  0  0  0
 24 25  1  0  0  0
 24 26  1  0  0  0
 28 29  1  0  0  0
  4  5  1  0  0  0
 43 44  1  0  0  0
M  END
> <minimizedAffinity>
-9.82465

$$$$
3EL4_ROC_A_100


 55 59  0  0  0  0  0  0  0  0999 V2000
    6.8807   -5.9710   17.1444 C   0  0  0  0  0  0  0  0  0  0  0  0
    4.8006   -4.9580   16.3668 C   0  0  0  0  0  0  0  0  0  0  0  0
    5.1971   -4.9231   15.2016 O   0  0  0  0  0  0  0  0  0  0  0  0
    5.5426   -5.4468   17.3693 N   0  0  0  0  0  0  0  0  0  0  0  0
    5.1728   -5.4513   18.2817 H   0  0  0  0  0  0  0  0  0  0  0  0
    3.4360   -4.4255   16.7725 C   0  0  0  0  0  0  0  0  0  0  0  0
    3.4788   -2.1068   15.9755 C   0  0  0  0  0  0  0  0  0  0  0  0
    4.2377   -1.8361   16.9173 O   0  0  0  0  0  0  0  0  0  0  0  0
    3.0426   -3.3757   15.8393 N   0  0  0  0  0  0  0  0  0  0  0  0
    2.4434   -3.5992   15.0908 H   0  0  0  0  0  0  0  0  0  0  0  0
    3.9934   -0.2378   14.5623 N   0  0  0  0  0  0  0  0  0  0  0  0
    3.0643   -1.1716   14.9999 C   0  0  0  0  0  0  0  0  0  0  0  0
    1.7445   -1.1358   14.4615 C   0  0  0  0  0  0  0  0  0  0  0  0
    1.4197   -0.1478   13.4900 C   0  0  0  0  0  0  0  0  0  0  0  0
    2.1051    1.7838   12.0982 C   0  0  0  0  0  0  0  0  0  0  0  0
    3.1314    2.7007   11.7092 C   0  0  0  0  0  0  0  0  0  0  0  0
    4.4416    2.6266   12.2778 C   0  0  0  0  0  0  0  0  0  0  0  0
    4.7453    1.6338   13.2468 C   0  0  0  0  0  0  0  0  0  0  0  0
    2.4028    0.7871   13.0688 C   0  0  0  0  0  0  0  0  0  0  0  0
    3.7309    0.7224   13.6353 C   0  0  0  0  0  0  0  0  0  0  0  0
    2.3916   -5.5401   16.7821 C   0  0  0  0  0  0  0  0  0  0  0  0
    1.4629   -5.4548   15.5897 C   0  0  0  0  0  0  0  0  0  0  0  0
    1.9024   -5.5609   14.4460 O   0  0  0  0  0  0  0  0  0  0  0  0
    0.1719   -5.2906   15.8477 N   0  0  0  0  0  0  0  0  0  0  0  0
   -0.1376   -5.2099   16.7788 H   0  0  0  0  0  0  0  0  0  0  0  0
   -0.4765   -5.2494   15.1081 H   0  0  0  0  0  0  0  0  0  0  0  0
    6.9373   -7.3761   17.8167 C   0  0  0  0  0  0  0  0  0  0  0  0
    7.5421   -8.2956   16.9089 O   0  0  0  0  0  0  0  0  0  0  0  0
    6.9771   -8.3970   16.1271 H   0  0  0  0  0  0  0  0  0  0  0  0
    5.6241   -7.9591   18.3683 C   0  0  0  0  0  0  0  0  0  0  0  0
    5.1621   -9.1295   17.6023 N   0  0  0  0  0  0  0  0  0  0  0  0
    4.9713  -10.3534   18.4556 C   0  0  0  0  0  0  0  0  0  0  0  0
    4.4504  -11.5349   17.6137 C   0  0  0  0  0  0  0  0  0  0  0  0
    3.1526  -11.1312   16.8975 C   0  0  0  0  0  0  0  0  0  0  0  0
    2.6092  -12.2606   16.0260 C   0  0  0  0  0  0  0  0  0  0  0  0
    3.4348  -12.4578   14.7316 C   0  0  0  0  0  0  0  0  0  0  0  0
    3.5532  -11.1716   13.8879 C   0  0  0  0  0  0  0  0  0  0  0  0
    4.1859  -10.0701   14.7555 C   0  0  0  0  0  0  0  0  0  0  0  0
    3.3365   -9.8175   16.0181 C   0  0  0  0  0  0  0  0  0  0  0  0
    3.9265   -8.7143   16.9137 C   0  0  0  0  0  0  0  0  0  0  0  0
    6.2320  -10.8481   19.1533 C   0  0  0  0  0  0  0  0  0  0  0  0
    6.1763  -11.1190   20.3603 O   0  0  0  0  0  0  0  0  0  0  0  0
    7.2897  -10.9794   18.3248 N   0  0  0  0  0  0  0  0  0  0  0  0
    7.1313  -10.7749   17.3749 H   0  0  0  0  0  0  0  0  0  0  0  0
    8.6436  -11.3920   18.6849 C   0  0  0  0  0  0  0  0  0  0  0  0
    9.4371  -11.3051   17.4035 C   0  0  0  0  0  0  0  0  0  0  0  0
    9.2911  -10.4440   19.6663 C   0  0  0  0  0  0  0  0  0  0  0  0
    8.6973  -12.8448   19.1929 C   0  0  0  0  0  0  0  0  0  0  0  0
    7.8856   -4.9495   17.7484 C   0  0  0  0  0  0  0  0  0  0  0  0
    8.3865   -3.9315   16.7429 C   0  0  0  0  0  0  0  0  0  0  0  0
    7.5279   -2.9458   16.2606 C   0  0  0  0  0  0  0  0  0  0  0  0
    9.7224   -3.9762   16.3454 C   0  0  0  0  0  0  0  0  0  0  0  0
    8.0194   -1.9941   15.3744 C   0  0  0  0  0  0  0  0  0  0  0  0
   10.1934   -3.0209   15.4627 C   0  0  0  0  0  0  0  0  0  0  0  0
    9.3446   -2.0317   14.9797 C   0  0  0  0  0  0  0  0  0  0  0  0
  8  7  2  0  0  0
  7 12  1  0  0  0
 11 12  2  0  0  0
 11 20  1  0  0  0
 12 13  1  0  0  0
 13 14  2  0  0  0
 14 19  1  0  0  0
 19 15  2  0  0  0
 19 20  1  0  0  0
 15 16  1  0  0  0
 16 17  2  0  0  0
 17 18  1  0  0  0
 18 20  2  0  0  0
  9  6  1  0  0  0
  6  2  1  0  0  0
  6 21  1  0  0  0
  2  3  2  0  0  0
 21 22  1  0  0  0
 22 23  2  0  0  0
 22 24  1  0  0  0
 27 28  1  0  0  0
 27  1  1  0  0  0
  1  4  1  0  0  0
  1 49  1  0  0  0
 49 50  1  0  0  0
 50 51  2  0  0  0
 50 52  1  0  0  0
 51 53  1  0  0  0
 52 54  2  0  0  0
 53 55  2  0  0  0
 54 55  1  0  0  0
 31 30  1  0  0  0
 31 32  1  0  0  0
 31 40  1  0  0  0
 32 41  1  0  0  0
 32 33  1  0  0  0
 41 42  2  0  0  0
 33 34  1  0  0  0
 34 35  1  0  0  0
 34 39  1  0  0  0
 35 36  1  0  0  0
 36 37  1  0  0  0
 37 38  1  0  0  0
 38 39  1  0  0  0
 39 40  1  0  0  0
 43 45  1  0  0  0
 45 46  1  0  0  0
 45 47  1  0  0  0
 45 48  1  0  0  0
  7  9  1  0  0  0
  2  4  1  0  0  0
 27 30  1  0  0  0
 41 43  1  0  0  0
  9 10  1  0  0  0
 24 25  1  0  0  0
 24 26  1  0  0  0
 28 29  1  0  0  0
  4  5  1  0  0  0
 43 44  1  0  0  0
M  END
> <minimizedAffinity>
-9.70894

$$$$
3EL4_ROC_A_100


 55 59  0  0  0  0  0  0  0  0999 V2000
    5.1357    0.0391   13.8011 C   0  0  0  0  0  0  0  0  0  0  0  0
    6.5716    0.8470   12.0003 C   0  0  0  0  0  0  0  0  0  0  0  0
    6.6962   -0.2832   11.5277 O   0  0  0  0  0  0  0  0  0  0  0  0
    5.8380    1.0978   13.0927 N   0  0  0  0  0  0  0  0  0  0  0  0
    5.7726    2.0223   13.4247 H   0  0  0  0  0  0  0  0  0  0  0  0
    7.2622    2.0574   11.3933 C   0  0  0  0  0  0  0  0  0  0  0  0
    6.5969    2.7149    9.1265 C   0  0  0  0  0  0  0  0  0  0  0  0
    7.6239    2.1638    8.7050 O   0  0  0  0  0  0  0  0  0  0  0  0
    6.3504    2.6984   10.4524 N   0  0  0  0  0  0  0  0  0  0  0  0
    5.5340    3.1299   10.7939 H   0  0  0  0  0  0  0  0  0  0  0  0
    4.5413    3.9325    8.9084 N   0  0  0  0  0  0  0  0  0  0  0  0
    5.6347    3.3348    8.2969 C   0  0  0  0  0  0  0  0  0  0  0  0
    5.7287    3.3606    6.8744 C   0  0  0  0  0  0  0  0  0  0  0  0
    4.7025    4.0008    6.1243 C   0  0  0  0  0  0  0  0  0  0  0  0
    2.5637    5.2499    6.0663 C   0  0  0  0  0  0  0  0  0  0  0  0
    1.4784    5.8395    6.7871 C   0  0  0  0  0  0  0  0  0  0  0  0
    1.4265    5.7878    8.2154 C   0  0  0  0  0  0  0  0  0  0  0  0
    2.4602    5.1433    8.9456 C   0  0  0  0  0  0  0  0  0  0  0  0
    3.6022    4.6023    6.7918 C   0  0  0  0  0  0  0  0  0  0  0  0
    3.5383    4.5576    8.2349 C   0  0  0  0  0  0  0  0  0  0  0  0
    7.6852    3.0491   12.4754 C   0  0  0  0  0  0  0  0  0  0  0  0
    7.5490    4.4837   12.0117 C   0  0  0  0  0  0  0  0  0  0  0  0
    8.3461    4.9583   11.2044 O   0  0  0  0  0  0  0  0  0  0  0  0
    6.5248    5.1740   12.4962 N   0  0  0  0  0  0  0  0  0  0  0  0
    5.9101    4.7553   13.1413 H   0  0  0  0  0  0  0  0  0  0  0  0
    6.3796    6.1049   12.2107 H   0  0  0  0  0  0  0  0  0  0  0  0
    6.2163   -0.8125   14.5333 C   0  0  0  0  0  0  0  0  0  0  0  0
    6.5918   -1.9010   13.6910 O   0  0  0  0  0  0  0  0  0  0  0  0
    5.8307   -2.4888   13.5638 H   0  0  0  0  0  0  0  0  0  0  0  0
    5.8882   -1.3229   15.9476 C   0  0  0  0  0  0  0  0  0  0  0  0
    5.0866   -2.5587   15.9283 N   0  0  0  0  0  0  0  0  0  0  0  0
    5.7744   -3.7168   16.5980 C   0  0  0  0  0  0  0  0  0  0  0  0
    4.8781   -4.9708   16.5848 C   0  0  0  0  0  0  0  0  0  0  0  0
    3.5272   -4.6517   17.2433 C   0  0  0  0  0  0  0  0  0  0  0  0
    2.5900   -5.8566   17.2308 C   0  0  0  0  0  0  0  0  0  0  0  0
    2.0048   -6.1355   15.8251 C   0  0  0  0  0  0  0  0  0  0  0  0
    1.2794   -4.9161   15.2191 C   0  0  0  0  0  0  0  0  0  0  0  0
    2.2659   -3.7375   15.1564 C   0  0  0  0  0  0  0  0  0  0  0  0
    2.8073   -3.4063   16.5624 C   0  0  0  0  0  0  0  0  0  0  0  0
    3.7927   -2.2248   16.5506 C   0  0  0  0  0  0  0  0  0  0  0  0
    7.0960   -4.1288   15.9621 C   0  0  0  0  0  0  0  0  0  0  0  0
    7.1144   -4.4054   14.7552 O   0  0  0  0  0  0  0  0  0  0  0  0
    8.1389   -4.0969   16.8186 N   0  0  0  0  0  0  0  0  0  0  0  0
    7.9459   -3.7902   17.7340 H   0  0  0  0  0  0  0  0  0  0  0  0
    9.5225   -4.4682   16.5346 C   0  0  0  0  0  0  0  0  0  0  0  0
   10.0937   -4.9084   17.8609 C   0  0  0  0  0  0  0  0  0  0  0  0
    9.6197   -5.6517   15.6014 C   0  0  0  0  0  0  0  0  0  0  0  0
   10.3534   -3.2791   16.0175 C   0  0  0  0  0  0  0  0  0  0  0  0
    4.3197   -0.7611   12.7465 C   0  0  0  0  0  0  0  0  0  0  0  0
    2.8834   -0.2938   12.6156 C   0  0  0  0  0  0  0  0  0  0  0  0
    2.0062   -0.4247   13.6901 C   0  0  0  0  0  0  0  0  0  0  0  0
    2.4731    0.3011   11.4230 C   0  0  0  0  0  0  0  0  0  0  0  0
    0.7063    0.0520   13.5649 C   0  0  0  0  0  0  0  0  0  0  0  0
    1.1758    0.7692   11.3168 C   0  0  0  0  0  0  0  0  0  0  0  0
    0.2952    0.6464   12.3855 C   0  0  0  0  0  0  0  0  0  0  0  0
  8  7  2  0  0  0
  7 12  1  0  0  0
 11 12  2  0  0  0
 11 20  1  0  0  0
 12 13  1  0  0  0
 13 14  2  0  0  0
 14 19  1  0  0  0
 19 15  2  0  0  0
 19 20  1  0  0  0
 15 16  1  0  0  0
 16 17  2  0  0  0
 17 18  1  0  0  0
 18 20  2  0  0  0
  9  6  1  0  0  0
  6  2  1  0  0  0
  6 21  1  0  0  0
  2  3  2  0  0  0
 21 22  1  0  0  0
 22 23  2  0  0  0
 22 24  1  0  0  0
 27 28  1  0  0  0
 27  1  1  0  0  0
  1  4  1  0  0  0
  1 49  1  0  0  0
 49 50  1  0  0  0
 50 51  2  0  0  0
 50 52  1  0  0  0
 51 53  1  0  0  0
 52 54  2  0  0  0
 53 55  2  0  0  0
 54 55  1  0  0  0
 31 30  1  0  0  0
 31 32  1  0  0  0
 31 40  1  0  0  0
 32 41  1  0  0  0
 32 33  1  0  0  0
 41 42  2  0  0  0
 33 34  1  0  0  0
 34 35  1  0  0  0
 34 39  1  0  0  0
 35 36  1  0  0  0
 36 37  1  0  0  0
 37 38  1  0  0  0
 38 39  1  0  0  0
 39 40  1  0  0  0
 43 45  1  0  0  0
 45 46  1  0  0  0
 45 47  1  0  0  0
 45 48  1  0  0  0
  7  9  1  0  0  0
  2  4  1  0  0  0
 27 30  1  0  0  0
 41 43  1  0  0  0
  9 10  1  0  0  0
 24 25  1  0  0  0
 24 26  1  0  0  0
 28 29  1  0  0  0
  4  5  1  0  0  0
 43 44  1  0  0  0
M  END
> <minimizedAffinity>
-9.61069

$$$$
3EL4_ROC_A_100


 55 59  0  0  0  0  0  0  0  0999 V2000
    3.7025   -1.1410   14.9302 C   0  0  0  0  0  0  0  0  0  0  0  0
    5.6198    0.1321   14.1172 C   0  0  0  0  0  0  0  0  0  0  0  0
    5.5789    0.8997   15.0791 O   0  0  0  0  0  0  0  0  0  0  0  0
    4.7570   -0.8810   13.9626 N   0  0  0  0  0  0  0  0  0  0  0  0
    4.8388   -1.4645   13.1739 H   0  0  0  0  0  0  0  0  0  0  0  0
    6.6450    0.2836   13.0054 C   0  0  0  0  0  0  0  0  0  0  0  0
    6.5607    1.3309   10.7896 C   0  0  0  0  0  0  0  0  0  0  0  0
    7.2917    0.4211   10.3725 O   0  0  0  0  0  0  0  0  0  0  0  0
    6.1959    1.3249   12.0880 N   0  0  0  0  0  0  0  0  0  0  0  0
    5.6114    2.0418   12.4253 H   0  0  0  0  0  0  0  0  0  0  0  0
    4.7486    2.7964   10.2206 N   0  0  0  0  0  0  0  0  0  0  0  0
    6.0459    2.3669    9.9773 C   0  0  0  0  0  0  0  0  0  0  0  0
    6.7866    2.9741    8.9210 C   0  0  0  0  0  0  0  0  0  0  0  0
    6.1767    4.0038    8.1507 C   0  0  0  0  0  0  0  0  0  0  0  0
    4.2144    5.4419    7.6828 C   0  0  0  0  0  0  0  0  0  0  0  0
    2.8741    5.8171    8.0116 C   0  0  0  0  0  0  0  0  0  0  0  0
    2.1699    5.1785    9.0801 C   0  0  0  0  0  0  0  0  0  0  0  0
    2.7960    4.1523    9.8364 C   0  0  0  0  0  0  0  0  0  0  0  0
    4.8470    4.4142    8.4362 C   0  0  0  0  0  0  0  0  0  0  0  0
    4.1249    3.7773    9.5140 C   0  0  0  0  0  0  0  0  0  0  0  0
    8.0200    0.6360   13.5697 C   0  0  0  0  0  0  0  0  0  0  0  0
    9.0418   -0.4439   13.2844 C   0  0  0  0  0  0  0  0  0  0  0  0
    9.2055   -1.3737   14.0725 O   0  0  0  0  0  0  0  0  0  0  0  0
    9.7148   -0.3444   12.1454 N   0  0  0  0  0  0  0  0  0  0  0  0
    9.5527    0.4170   11.5428 H   0  0  0  0  0  0  0  0  0  0  0  0
   10.3764   -1.0320   11.9029 H   0  0  0  0  0  0  0  0  0  0  0  0
    4.2141   -2.2780   15.8656 C   0  0  0  0  0  0  0  0  0  0  0  0
    5.0589   -1.7069   16.8632 O   0  0  0  0  0  0  0  0  0  0  0  0
    5.8487   -1.3326   16.4424 H   0  0  0  0  0  0  0  0  0  0  0  0
    4.9061   -3.4866   15.2106 C   0  0  0  0  0  0  0  0  0  0  0  0
    4.8462   -4.6940   16.0525 N   0  0  0  0  0  0  0  0  0  0  0  0
    5.7676   -4.6300   17.2397 C   0  0  0  0  0  0  0  0  0  0  0  0
    5.6365   -5.8980   18.1063 C   0  0  0  0  0  0  0  0  0  0  0  0
    4.1724   -6.0893   18.5305 C   0  0  0  0  0  0  0  0  0  0  0  0
    3.9838   -7.3502   19.3701 C   0  0  0  0  0  0  0  0  0  0  0  0
    4.0597   -8.6423   18.5211 C   0  0  0  0  0  0  0  0  0  0  0  0
    3.0587   -8.6543   17.3472 C   0  0  0  0  0  0  0  0  0  0  0  0
    3.3231   -7.4242   16.4621 C   0  0  0  0  0  0  0  0  0  0  0  0
    3.1859   -6.1249   17.2821 C   0  0  0  0  0  0  0  0  0  0  0  0
    3.4327   -4.8648   16.4343 C   0  0  0  0  0  0  0  0  0  0  0  0
    7.2455   -4.4985   16.8945 C   0  0  0  0  0  0  0  0  0  0  0  0
    7.6873   -3.3834   16.5865 O   0  0  0  0  0  0  0  0  0  0  0  0
    7.9318   -5.6546   17.0155 N   0  0  0  0  0  0  0  0  0  0  0  0
    7.4238   -6.4352   17.3346 H   0  0  0  0  0  0  0  0  0  0  0  0
    9.3461   -5.8730   16.7245 C   0  0  0  0  0  0  0  0  0  0  0  0
    9.5603   -7.3576   16.8962 C   0  0  0  0  0  0  0  0  0  0  0  0
    9.6957   -5.5427   15.2928 C   0  0  0  0  0  0  0  0  0  0  0  0
   10.2680   -5.1312   17.7102 C   0  0  0  0  0  0  0  0  0  0  0  0
    2.4235   -1.5190   14.1305 C   0  0  0  0  0  0  0  0  0  0  0  0
    1.7312   -0.3252   13.5029 C   0  0  0  0  0  0  0  0  0  0  0  0
    2.4288    0.5067   12.6297 C   0  0  0  0  0  0  0  0  0  0  0  0
    0.3834   -0.1025   13.7828 C   0  0  0  0  0  0  0  0  0  0  0  0
    1.7627    1.5690   12.0293 C   0  0  0  0  0  0  0  0  0  0  0  0
   -0.2626    0.9596   13.1761 C   0  0  0  0  0  0  0  0  0  0  0  0
    0.4248    1.7922   12.3005 C   0  0  0  0  0  0  0  0  0  0  0  0
  8  7  2  0  0  0
  7 12  1  0  0  0
 11 12  2  0  0  0
 11 20  1  0  0  0
 12 13  1  0  0  0
 13 14  2  0  0  0
 14 19  1  0  0  0
 19 15  2  0  0  0
 19 20  1  0  0  0
 15 16  1  0  0  0
 16 17  2  0  0  0
 17 18  1  0  0  0
 18 20  2  0  0  0
  9  6  1  0  0  0
  6  2  1  0  0  0
  6 21  1  0  0  0
  2  3  2  0  0  0
 21 22  1  0  0  0
 22 23  2  0  0  0
 22 24  1  0  0  0
 27 28  1  0  0  0
 27  1  1  0  0  0
  1  4  1  0  0  0
  1 49  1  0  0  0
 49 50  1  0  0  0
 50 51  2  0  0  0
 50 52  1  0  0  0
 51 53  1  0  0  0
 52 54  2  0  0  0
 53 55  2  0  0  0
 54 55  1  0  0  0
 31 30  1  0  0  0
 31 32  1  0  0  0
 31 40  1  0  0  0
 32 41  1  0  0  0
 32 33  1  0  0  0
 41 42  2  0  0  0
 33 34  1  0  0  0
 34 35  1  0  0  0
 34 39  1  0  0  0
 35 36  1  0  0  0
 36 37  1  0  0  0
 37 38  1  0  0  0
 38 39  1  0  0  0
 39 40  1  0  0  0
 43 45  1  0  0  0
 45 46  1  0  0  0
 45 47  1  0  0  0
 45 48  1  0  0  0
  7  9  1  0  0  0
  2  4  1  0  0  0
 27 30  1  0  0  0
 41 43  1  0  0  0
  9 10  1  0  0  0
 24 25  1  0  0  0
 24 26  1  0  0  0
 28 29  1  0  0  0
  4  5  1  0  0  0
 43 44  1  0  0  0
M  END
> <minimizedAffinity>
-9.59053

$$$$
3EL4_ROC_A_100


 55 59  0  0  0  0  0  0  0  0999 V2000
    6.3786   -2.8189   16.4645 C   0  0  0  0  0  0  0  0  0  0  0  0
    4.6054   -4.4953   16.5166 C   0  0  0  0  0  0  0  0  0  0  0  0
    4.3427   -4.2506   17.6944 O   0  0  0  0  0  0  0  0  0  0  0  0
    5.5691   -3.8547   15.8418 N   0  0  0  0  0  0  0  0  0  0  0  0
    5.7336   -4.0909   14.9004 H   0  0  0  0  0  0  0  0  0  0  0  0
    3.8687   -5.5674   15.7303 C   0  0  0  0  0  0  0  0  0  0  0  0
    4.6242   -7.6406   16.8001 C   0  0  0  0  0  0  0  0  0  0  0  0
    3.8964   -7.3646   17.7647 O   0  0  0  0  0  0  0  0  0  0  0  0
    4.6581   -6.7939   15.7509 N   0  0  0  0  0  0  0  0  0  0  0  0
    5.2302   -7.0091   14.9792 H   0  0  0  0  0  0  0  0  0  0  0  0
    6.6568   -8.8120   17.3019 N   0  0  0  0  0  0  0  0  0  0  0  0
    5.4024   -8.8172   16.7078 C   0  0  0  0  0  0  0  0  0  0  0  0
    4.9668   -9.9916   16.0267 C   0  0  0  0  0  0  0  0  0  0  0  0
    5.8278  -11.1239   15.9790 C   0  0  0  0  0  0  0  0  0  0  0  0
    7.9824  -12.1934   16.5719 C   0  0  0  0  0  0  0  0  0  0  0  0
    9.2551  -12.0922   17.2162 C   0  0  0  0  0  0  0  0  0  0  0  0
    9.6494  -10.8921   17.8870 C   0  0  0  0  0  0  0  0  0  0  0  0
    8.7759   -9.7729   17.9223 C   0  0  0  0  0  0  0  0  0  0  0  0
    7.1030  -11.0755   16.6032 C   0  0  0  0  0  0  0  0  0  0  0  0
    7.5129   -9.8689   17.2851 C   0  0  0  0  0  0  0  0  0  0  0  0
    2.4817   -5.8238   16.3165 C   0  0  0  0  0  0  0  0  0  0  0  0
    1.3823   -5.3021   15.4161 C   0  0  0  0  0  0  0  0  0  0  0  0
    1.6293   -4.9620   14.2603 O   0  0  0  0  0  0  0  0  0  0  0  0
    0.1591   -5.2612   15.9280 N   0  0  0  0  0  0  0  0  0  0  0  0
    0.0053   -5.5428   16.8588 H   0  0  0  0  0  0  0  0  0  0  0  0
   -0.5949   -4.9491   15.3772 H   0  0  0  0  0  0  0  0  0  0  0  0
    5.7025   -1.4539   16.1348 C   0  0  0  0  0  0  0  0  0  0  0  0
    4.9081   -1.0535   17.2502 O   0  0  0  0  0  0  0  0  0  0  0  0
    4.1836   -1.6863   17.3749 H   0  0  0  0  0  0  0  0  0  0  0  0
    4.8831   -1.3561   14.8358 C   0  0  0  0  0  0  0  0  0  0  0  0
    5.6041   -0.6425   13.7676 N   0  0  0  0  0  0  0  0  0  0  0  0
    4.8106    0.4910   13.1776 C   0  0  0  0  0  0  0  0  0  0  0  0
    5.6246    1.2269   12.0951 C   0  0  0  0  0  0  0  0  0  0  0  0
    6.9576    1.7111   12.6858 C   0  0  0  0  0  0  0  0  0  0  0  0
    7.8156    2.4242   11.6439 C   0  0  0  0  0  0  0  0  0  0  0  0
    8.4530    1.4425   10.6310 C   0  0  0  0  0  0  0  0  0  0  0  0
    9.2846    0.3322   11.3061 C   0  0  0  0  0  0  0  0  0  0  0  0
    8.3798   -0.4336   12.2864 C   0  0  0  0  0  0  0  0  0  0  0  0
    7.7894    0.5236   13.3423 C   0  0  0  0  0  0  0  0  0  0  0  0
    6.8832   -0.2011   14.3527 C   0  0  0  0  0  0  0  0  0  0  0  0
    3.4997    0.0781   12.5204 C   0  0  0  0  0  0  0  0  0  0  0  0
    3.4484   -1.0071   11.9260 O   0  0  0  0  0  0  0  0  0  0  0  0
    2.4985    0.9629   12.7131 N   0  0  0  0  0  0  0  0  0  0  0  0
    2.7076    1.7480   13.2690 H   0  0  0  0  0  0  0  0  0  0  0  0
    1.1389    0.8817   12.1863 C   0  0  0  0  0  0  0  0  0  0  0  0
    0.6297    2.3029   12.1859 C   0  0  0  0  0  0  0  0  0  0  0  0
    1.1054    0.4040   10.7538 C   0  0  0  0  0  0  0  0  0  0  0  0
    0.2145    0.0339   13.0798 C   0  0  0  0  0  0  0  0  0  0  0  0
    7.8200   -2.9544   15.8968 C   0  0  0  0  0  0  0  0  0  0  0  0
    8.5084   -4.2426   16.3030 C   0  0  0  0  0  0  0  0  0  0  0  0
    9.5046   -4.7866   15.4949 C   0  0  0  0  0  0  0  0  0  0  0  0
    8.1561   -4.8445   17.5106 C   0  0  0  0  0  0  0  0  0  0  0  0
   10.1553   -5.9435   15.9083 C   0  0  0  0  0  0  0  0  0  0  0  0
    8.8143   -5.9954   17.9053 C   0  0  0  0  0  0  0  0  0  0  0  0
    9.8123   -6.5425   17.1070 C   0  0  0  0  0  0  0  0  0  0  0  0
  8  7  2  0  0  0
  7 12  1  0  0  0
 11 12  2  0  0  0
 11 20  1  0  0  0
 12 13  1  0  0  0
 13 14  2  0  0  0
 14 19  1  0  0  0
 19 15  2  0  0  0
 19 20  1  0  0  0
 15 16  1  0  0  0
 16 17  2  0  0  0
 17 18  1  0  0  0
 18 20  2  0  0  0
  9  6  1  0  0  0
  6  2  1  0  0  0
  6 21  1  0  0  0
  2  3  2  0  0  0
 21 22  1  0  0  0
 22 23  2  0  0  0
 22 24  1  0  0  0
 27 28  1  0  0  0
 27  1  1  0  0  0
  1  4  1  0  0  0
  1 49  1  0  0  0
 49 50  1  0  0  0
 50 51  2  0  0  0
 50 52  1  0  0  0
 51 53  1  0  0  0
 52 54  2  0  0  0
 53 55  2  0  0  0
 54 55  1  0  0  0
 31 30  1  0  0  0
 31 32  1  0  0  0
 31 40  1  0  0  0
 32 41  1  0  0  0
 32 33  1  0  0  0
 41 42  2  0  0  0
 33 34  1  0  0  0
 34 35  1  0  0  0
 34 39  1  0  0  0
 35 36  1  0  0  0
 36 37  1  0  0  0
 37 38  1  0  0  0
 38 39  1  0  0  0
 39 40  1  0  0  0
 43 45  1  0  0  0
 45 46  1  0  0  0
 45 47  1  0  0  0
 45 48  1  0  0  0
  7  9  1  0  0  0
  2  4  1  0  0  0
 27 30  1  0  0  0
 41 43  1  0  0  0
  9 10  1  0  0  0
 24 25  1  0  0  0
 24 26  1  0  0  0
 28 29  1  0  0  0
  4  5  1  0  0  0
 43 44  1  0  0  0
M  END
> <minimizedAffinity>
-9.57002

$$$$
3EL4_ROC_A_100


 55 59  0  0  0  0  0  0  0  0999 V2000
    5.5981   -6.3413   18.2007 C   0  0  0  0  0  0  0  0  0  0  0  0
    4.3666   -5.3331   16.3502 C   0  0  0  0  0  0  0  0  0  0  0  0
    4.5723   -6.3040   15.6213 O   0  0  0  0  0  0  0  0  0  0  0  0
    4.8211   -5.2637   17.6084 N   0  0  0  0  0  0  0  0  0  0  0  0
    4.6241   -4.4628   18.1460 H   0  0  0  0  0  0  0  0  0  0  0  0
    3.5939   -4.1140   15.8736 C   0  0  0  0  0  0  0  0  0  0  0  0
    4.5825   -2.0445   15.0056 C   0  0  0  0  0  0  0  0  0  0  0  0
    4.0268   -1.4347   15.9306 O   0  0  0  0  0  0  0  0  0  0  0  0
    4.4143   -3.3797   14.9168 N   0  0  0  0  0  0  0  0  0  0  0  0
    4.8567   -3.8714   14.1875 H   0  0  0  0  0  0  0  0  0  0  0  0
    6.7946   -1.5401   14.2262 N   0  0  0  0  0  0  0  0  0  0  0  0
    5.4223   -1.4327   14.0472 C   0  0  0  0  0  0  0  0  0  0  0  0
    4.9281   -0.7056   12.9246 C   0  0  0  0  0  0  0  0  0  0  0  0
    5.8546   -0.1154   12.0197 C   0  0  0  0  0  0  0  0  0  0  0  0
    8.1988    0.3261   11.3504 C   0  0  0  0  0  0  0  0  0  0  0  0
    9.5934    0.1581   11.6184 C   0  0  0  0  0  0  0  0  0  0  0  0
   10.0423   -0.5795   12.7586 C   0  0  0  0  0  0  0  0  0  0  0  0
    9.1016   -1.1600   13.6502 C   0  0  0  0  0  0  0  0  0  0  0  0
    7.2513   -0.2526   12.2401 C   0  0  0  0  0  0  0  0  0  0  0  0
    7.7178   -0.9962   13.3882 C   0  0  0  0  0  0  0  0  0  0  0  0
    2.2696   -4.5197   15.2297 C   0  0  0  0  0  0  0  0  0  0  0  0
    1.2464   -4.9451   16.2611 C   0  0  0  0  0  0  0  0  0  0  0  0
    1.5394   -4.9798   17.4550 O   0  0  0  0  0  0  0  0  0  0  0  0
    0.0342   -5.2443   15.8128 N   0  0  0  0  0  0  0  0  0  0  0  0
   -0.1579   -5.2035   14.8481 H   0  0  0  0  0  0  0  0  0  0  0  0
   -0.6734   -5.5070   16.4449 H   0  0  0  0  0  0  0  0  0  0  0  0
    4.7077   -6.9911   19.3028 C   0  0  0  0  0  0  0  0  0  0  0  0
    4.7711   -6.1856   20.4785 O   0  0  0  0  0  0  0  0  0  0  0  0
    5.6759   -6.1942   20.8279 H   0  0  0  0  0  0  0  0  0  0  0  0
    4.9668   -8.4668   19.6543 C   0  0  0  0  0  0  0  0  0  0  0  0
    4.8446   -9.3540   18.4846 N   0  0  0  0  0  0  0  0  0  0  0  0
    5.0408  -10.8061   18.8244 C   0  0  0  0  0  0  0  0  0  0  0  0
    4.8636  -11.6918   17.5753 C   0  0  0  0  0  0  0  0  0  0  0  0
    3.4857  -11.4345   16.9464 C   0  0  0  0  0  0  0  0  0  0  0  0
    3.2709  -12.2695   15.6866 C   0  0  0  0  0  0  0  0  0  0  0  0
    4.0832  -11.7389   14.4804 C   0  0  0  0  0  0  0  0  0  0  0  0
    3.7998  -10.2554   14.1659 C   0  0  0  0  0  0  0  0  0  0  0  0
    4.1080   -9.4188   15.4195 C   0  0  0  0  0  0  0  0  0  0  0  0
    3.2560   -9.8951   16.6139 C   0  0  0  0  0  0  0  0  0  0  0  0
    3.5237   -9.0793   17.8907 C   0  0  0  0  0  0  0  0  0  0  0  0
    6.4092  -11.1477   19.4004 C   0  0  0  0  0  0  0  0  0  0  0  0
    6.4779  -11.5564   20.5673 O   0  0  0  0  0  0  0  0  0  0  0  0
    7.4181  -10.9997   18.5159 N   0  0  0  0  0  0  0  0  0  0  0  0
    7.1665  -10.7218   17.6055 H   0  0  0  0  0  0  0  0  0  0  0  0
    8.8425  -11.2072   18.7629 C   0  0  0  0  0  0  0  0  0  0  0  0
    9.5482  -10.4599   17.6572 C   0  0  0  0  0  0  0  0  0  0  0  0
    9.2951  -10.5919   20.0658 C   0  0  0  0  0  0  0  0  0  0  0  0
    9.2411  -12.6923   18.6779 C   0  0  0  0  0  0  0  0  0  0  0  0
    6.9127   -5.7170   18.7485 C   0  0  0  0  0  0  0  0  0  0  0  0
    7.9993   -5.5852   17.6996 C   0  0  0  0  0  0  0  0  0  0  0  0
    7.9969   -4.5008   16.8246 C   0  0  0  0  0  0  0  0  0  0  0  0
    9.0143   -6.5403   17.6553 C   0  0  0  0  0  0  0  0  0  0  0  0
    9.0278   -4.3743   15.9005 C   0  0  0  0  0  0  0  0  0  0  0  0
   10.0315   -6.3979   16.7288 C   0  0  0  0  0  0  0  0  0  0  0  0
   10.0390   -5.3169   15.8548 C   0  0  0  0  0  0  0  0  0  0  0  0
  8  7  2  0  0  0
  7 12  1  0  0  0
 11 12  2  0  0  0
 11 20  1  0  0  0
 12 13  1  0  0  0
 13 14  2  0  0  0
 14 19  1  0  0  0
 19 15  2  0  0  0
 19 20  1  0  0  0
 15 16  1  0  0  0
 16 17  2  0  0  0
 17 18  1  0  0  0
 18 20  2  0  0  0
  9  6  1  0  0  0
  6  2  1  0  0  0
  6 21  1  0  0  0
  2  3  2  0  0  0
 21 22  1  0  0  0
 22 23  2  0  0  0
 22 24  1  0  0  0
 27 28  1  0  0  0
 27  1  1  0  0  0
  1  4  1  0  0  0
  1 49  1  0  0  0
 49 50  1  0  0  0
 50 51  2  0  0  0
 50 52  1  0  0  0
 51 53  1  0  0  0
 52 54  2  0  0  0
 53 55  2  0  0  0
 54 55  1  0  0  0
 31 30  1  0  0  0
 31 32  1  0  0  0
 31 40  1  0  0  0
 32 41  1  0  0  0
 32 33  1  0  0  0
 41 42  2  0  0  0
 33 34  1  0  0  0
 34 35  1  0  0  0
 34 39  1  0  0  0
 35 36  1  0  0  0
 36 37  1  0  0  0
 37 38  1  0  0  0
 38 39  1  0  0  0
 39 40  1  0  0  0
 43 45  1  0  0  0
 45 46  1  0  0  0
 45 47  1  0  0  0
 45 48  1  0  0  0
  7  9  1  0  0  0
  2  4  1  0  0  0
 27 30  1  0  0  0
 41 43  1  0  0  0
  9 10  1  0  0  0
 24 25  1  0  0  0
 24 26  1  0  0  0
 28 29  1  0  0  0
  4  5  1  0  0  0
 43 44  1  0  0  0
M  END
> <minimizedAffinity>
-9.21747

$$$$
3EL4_ROC_A_100


 55 59  0  0  0  0  0  0  0  0999 V2000
    3.6432   -3.9235   14.9050 C   0  0  0  0  0  0  0  0  0  0  0  0
    6.0420   -4.1399   15.3004 C   0  0  0  0  0  0  0  0  0  0  0  0
    6.2655   -4.3732   14.1122 O   0  0  0  0  0  0  0  0  0  0  0  0
    4.8100   -3.9097   15.7734 N   0  0  0  0  0  0  0  0  0  0  0  0
    4.6913   -3.7265   16.7334 H   0  0  0  0  0  0  0  0  0  0  0  0
    7.1493   -4.1152   16.3413 C   0  0  0  0  0  0  0  0  0  0  0  0
    6.9139   -6.1656   17.6656 C   0  0  0  0  0  0  0  0  0  0  0  0
    6.0172   -5.6026   18.3099 O   0  0  0  0  0  0  0  0  0  0  0  0
    7.5192   -5.4875   16.6693 N   0  0  0  0  0  0  0  0  0  0  0  0
    8.2290   -5.9301   16.1501 H   0  0  0  0  0  0  0  0  0  0  0  0
    6.3694   -8.4088   18.3191 N   0  0  0  0  0  0  0  0  0  0  0  0
    7.3241   -7.5009   17.8823 C   0  0  0  0  0  0  0  0  0  0  0  0
    8.6638   -7.9489   17.6883 C   0  0  0  0  0  0  0  0  0  0  0  0
    8.9818   -9.3124   17.9439 C   0  0  0  0  0  0  0  0  0  0  0  0
    8.2626  -11.5760   18.6488 C   0  0  0  0  0  0  0  0  0  0  0  0
    7.2095  -12.4353   19.0935 C   0  0  0  0  0  0  0  0  0  0  0  0
    5.8800  -11.9403   19.2749 C   0  0  0  0  0  0  0  0  0  0  0  0
    5.5834  -10.5759   19.0153 C   0  0  0  0  0  0  0  0  0  0  0  0
    7.9722  -10.2080   18.3875 C   0  0  0  0  0  0  0  0  0  0  0  0
    6.6245   -9.7204   18.5739 C   0  0  0  0  0  0  0  0  0  0  0  0
    8.3678   -3.3492   15.8298 C   0  0  0  0  0  0  0  0  0  0  0  0
    9.6626   -4.0595   16.1625 C   0  0  0  0  0  0  0  0  0  0  0  0
   10.0349   -5.0247   15.4976 O   0  0  0  0  0  0  0  0  0  0  0  0
   10.3694   -3.5719   17.1738 N   0  0  0  0  0  0  0  0  0  0  0  0
   10.0342   -2.7970   17.6802 H   0  0  0  0  0  0  0  0  0  0  0  0
   11.2290   -3.9849   17.4179 H   0  0  0  0  0  0  0  0  0  0  0  0
    3.6429   -2.5756   14.1225 C   0  0  0  0  0  0  0  0  0  0  0  0
    4.3006   -2.7705   12.8716 O   0  0  0  0  0  0  0  0  0  0  0  0
    5.2330   -2.9880   13.0270 H   0  0  0  0  0  0  0  0  0  0  0  0
    4.2104   -1.3346   14.8342 C   0  0  0  0  0  0  0  0  0  0  0  0
    5.2140   -0.6281   14.0196 N   0  0  0  0  0  0  0  0  0  0  0  0
    4.7230    0.6942   13.4971 C   0  0  0  0  0  0  0  0  0  0  0  0
    5.8230    1.4078   12.6867 C   0  0  0  0  0  0  0  0  0  0  0  0
    7.0837    1.5685   13.5499 C   0  0  0  0  0  0  0  0  0  0  0  0
    8.2156    2.2469   12.7824 C   0  0  0  0  0  0  0  0  0  0  0  0
    8.8703    1.3067   11.7415 C   0  0  0  0  0  0  0  0  0  0  0  0
    9.3864   -0.0107   12.3566 C   0  0  0  0  0  0  0  0  0  0  0  0
    8.2122   -0.7243   13.0482 C   0  0  0  0  0  0  0  0  0  0  0  0
    7.5916    0.1781   14.1346 C   0  0  0  0  0  0  0  0  0  0  0  0
    6.4169   -0.4990   14.8619 C   0  0  0  0  0  0  0  0  0  0  0  0
    3.5067    0.6078   12.5839 C   0  0  0  0  0  0  0  0  0  0  0  0
    3.6769    0.3132   11.3932 O   0  0  0  0  0  0  0  0  0  0  0  0
    2.3376    0.8282   13.2217 N   0  0  0  0  0  0  0  0  0  0  0  0
    2.3902    0.9885   14.1916 H   0  0  0  0  0  0  0  0  0  0  0  0
    1.0031    0.8546   12.6289 C   0  0  0  0  0  0  0  0  0  0  0  0
    0.7677    2.2968   12.2497 C   0  0  0  0  0  0  0  0  0  0  0  0
    0.9247    0.0481   11.3544 C   0  0  0  0  0  0  0  0  0  0  0  0
   -0.0895    0.4294   13.6274 C   0  0  0  0  0  0  0  0  0  0  0  0
    2.3944   -4.1193   15.8109 C   0  0  0  0  0  0  0  0  0  0  0  0
    2.5664   -5.2148   16.8446 C   0  0  0  0  0  0  0  0  0  0  0  0
    2.8789   -6.5116   16.4420 C   0  0  0  0  0  0  0  0  0  0  0  0
    2.4470   -4.8925   18.1961 C   0  0  0  0  0  0  0  0  0  0  0  0
    3.0777   -7.4912   17.4083 C   0  0  0  0  0  0  0  0  0  0  0  0
    2.6481   -5.8805   19.1431 C   0  0  0  0  0  0  0  0  0  0  0  0
    2.9641   -7.1760   18.7503 C   0  0  0  0  0  0  0  0  0  0  0  0
  8  7  2  0  0  0
  7 12  1  0  0  0
 11 12  2  0  0  0
 11 20  1  0  0  0
 12 13  1  0  0  0
 13 14  2  0  0  0
 14 19  1  0  0  0
 19 15  2  0  0  0
 19 20  1  0  0  0
 15 16  1  0  0  0
 16 17  2  0  0  0
 17 18  1  0  0  0
 18 20  2  0  0  0
  9  6  1  0  0  0
  6  2  1  0  0  0
  6 21  1  0  0  0
  2  3  2  0  0  0
 21 22  1  0  0  0
 22 23  2  0  0  0
 22 24  1  0  0  0
 27 28  1  0  0  0
 27  1  1  0  0  0
  1  4  1  0  0  0
  1 49  1  0  0  0
 49 50  1  0  0  0
 50 51  2  0  0  0
 50 52  1  0  0  0
 51 53  1  0  0  0
 52 54  2  0  0  0
 53 55  2  0  0  0
 54 55  1  0  0  0
 31 30  1  0  0  0
 31 32  1  0  0  0
 31 40  1  0  0  0
 32 41  1  0  0  0
 32 33  1  0  0  0
 41 42  2  0  0  0
 33 34  1  0  0  0
 34 35  1  0  0  0
 34 39  1  0  0  0
 35 36  1  0  0  0
 36 37  1  0  0  0
 37 38  1  0  0  0
 38 39  1  0  0  0
 39 40  1  0  0  0
 43 45  1  0  0  0
 45 46  1  0  0  0
 45 47  1  0  0  0
 45 48  1  0  0  0
  7  9  1  0  0  0
  2  4  1  0  0  0
 27 30  1  0  0  0
 41 43  1  0  0  0
  9 10  1  0  0  0
 24 25  1  0  0  0
 24 26  1  0  0  0
 28 29  1  0  0  0
  4  5  1  0  0  0
 43 44  1  0  0  0
M  END
> <minimizedAffinity>
-9.20624

$$$$
