1V2O_ANH_T_800


 35 36  0  0  0  0  0  0  0  0999 V2000
   -3.1913   18.5939   18.1696 C   0  0  0  0  0  0  0  0  0  0  0  0
   -2.0036   19.4579   17.9136 N   0  0  0  0  0  0  0  0  0  0  0  0
   -1.9076   20.3768   16.9451 C   0  0  0  0  0  0  0  0  0  0  0  0
   -2.7259   20.4952   16.0361 O   0  0  0  0  0  0  0  0  0  0  0  0
   -1.2256   19.3431   18.5059 H   0  0  0  0  0  0  0  0  0  0  0  0
   -0.7059   21.2966   16.9887 C   0  0  0  0  0  0  0  0  0  0  0  0
    0.2017   21.0400   18.1308 N   0  0  0  0  0  0  0  0  0  0  0  0
   -0.3693   20.6547   18.8831 H   0  0  0  0  0  0  0  0  0  0  0  0
    1.5120   20.0025   17.9294 S   0  0  0  0  0  0  0  0  0  0  0  0
    0.9136   18.5268   17.9719 O   0  0  0  0  0  0  0  0  0  0  0  0
    2.0920   20.4508   16.5398 O   0  0  0  0  0  0  0  0  0  0  0  0
    5.6107   21.3549   22.1654 C   0  0  0  0  0  0  0  0  0  0  0  0
    4.5914   20.9651   21.1609 C   0  0  0  0  0  0  0  0  0  0  0  0
    3.7803   19.7899   21.3207 C   0  0  0  0  0  0  0  0  0  0  0  0
    2.8039   19.4574   20.3219 C   0  0  0  0  0  0  0  0  0  0  0  0
    2.6765   20.3268   19.1795 C   0  0  0  0  0  0  0  0  0  0  0  0
    3.4862   21.4865   19.0280 C   0  0  0  0  0  0  0  0  0  0  0  0
    4.4355   21.7985   20.0168 C   0  0  0  0  0  0  0  0  0  0  0  0
   -4.5663   19.3286   18.5452 C   0  0  0  0  0  0  0  0  0  0  0  0
   -4.6951   19.7746   19.7085 O   0  0  0  0  0  0  0  0  0  0  0  0
   -5.6021   19.4558   17.5514 O   0  0  0  0  0  0  0  0  0  0  0  0
   -7.0319   19.7401   17.7944 C   0  0  0  0  0  0  0  0  0  0  0  0
   -2.8311   17.6077   19.2789 C   0  0  0  0  0  0  0  0  0  0  0  0
   -2.0657   16.3531   18.8703 C   0  0  0  0  0  0  0  0  0  0  0  0
   -1.1076   15.8257   19.7718 C   0  0  0  0  0  0  0  0  0  0  0  0
   -0.3681   14.6582   19.4504 C   0  0  0  0  0  0  0  0  0  0  0  0
   -0.5886   14.0054   18.2092 C   0  0  0  0  0  0  0  0  0  0  0  0
   -1.5602   14.4964   17.2337 C   0  0  0  0  0  0  0  0  0  0  0  0
   -2.2966   15.6914   17.5997 C   0  0  0  0  0  0  0  0  0  0  0  0
   -1.7545   13.8249   16.0120 C   0  0  0  0  0  0  0  0  0  0  0  0
   -2.1802   14.3801   14.8947 N   0  0  0  0  0  0  0  0  0  0  0  0
   -1.5291   12.5283   15.8332 N   0  0  0  0  0  0  0  0  0  0  0  0
   -2.3902   15.3416   14.8717 H   0  0  0  0  0  0  0  0  0  0  0  0
   -2.2880   13.8332   14.0832 H   0  0  0  0  0  0  0  0  0  0  0  0
   -1.2058   11.9770   16.5821 H   0  0  0  0  0  0  0  0  0  0  0  0
  2  1  1  0  0  0
  2  3  1  0  0  0
  1 23  1  0  0  0
  1 19  1  0  0  0
 23 24  1  0  0  0
 19 20  2  0  0  0
 19 21  1  0  0  0
 21 22  1  0  0  0
 24 25  2  0  0  0
 24 29  1  0  0  0
 25 26  1  0  0  0
 26 27  2  0  0  0
 27 28  1  0  0  0
 28 29  2  0  0  0
 28 30  1  0  0  0
 30 31  1  0  0  0
 30 32  2  0  0  0
  3  6  1  0  0  0
  3  4  2  0  0  0
  6  7  1  0  0  0
  7  9  1  0  0  0
 12 13  1  0  0  0
 13 14  1  0  0  0
 13 18  2  0  0  0
 14 15  2  0  0  0
 15 16  1  0  0  0
 16 17  2  0  0  0
 16  9  1  0  0  0
 17 18  1  0  0  0
  9 10  2  0  0  0
  9 11  2  0  0  0
  2  5  1  0  0  0
 31 33  1  0  0  0
 31 34  1  0  0  0
 32 35  1  0  0  0
  7  8  1  0  0  0
M  END
> <minimizedAffinity>
-7.53976

$$$$
1V2O_ANH_T_800


 35 36  0  0  0  0  0  0  0  0999 V2000
   -3.2657   18.8484   18.3634 C   0  0  0  0  0  0  0  0  0  0  0  0
   -2.0412   19.6810   18.1898 N   0  0  0  0  0  0  0  0  0  0  0  0
   -1.7629   20.4370   17.1208 C   0  0  0  0  0  0  0  0  0  0  0  0
   -2.4042   20.3965   16.0733 O   0  0  0  0  0  0  0  0  0  0  0  0
   -1.3830   19.6743   18.9219 H   0  0  0  0  0  0  0  0  0  0  0  0
   -0.5775   21.3722   17.2318 C   0  0  0  0  0  0  0  0  0  0  0  0
    0.6338   20.8871   16.5309 N   0  0  0  0  0  0  0  0  0  0  0  0
    0.3869   20.0012   16.0898 H   0  0  0  0  0  0  0  0  0  0  0  0
    1.3415   21.8461   15.3420 S   0  0  0  0  0  0  0  0  0  0  0  0
    0.4719   21.6259   14.0256 O   0  0  0  0  0  0  0  0  0  0  0  0
    1.2569   23.2845   15.9683 O   0  0  0  0  0  0  0  0  0  0  0  0
    7.1476   20.3626   14.5286 C   0  0  0  0  0  0  0  0  0  0  0  0
    5.7254   20.6936   14.7887 C   0  0  0  0  0  0  0  0  0  0  0  0
    5.0814   20.3508   16.0266 C   0  0  0  0  0  0  0  0  0  0  0  0
    3.7033   20.6969   16.2320 C   0  0  0  0  0  0  0  0  0  0  0  0
    3.0086   21.3816   15.1710 C   0  0  0  0  0  0  0  0  0  0  0  0
    3.6533   21.7140   13.9474 C   0  0  0  0  0  0  0  0  0  0  0  0
    5.0039   21.3700   13.7640 C   0  0  0  0  0  0  0  0  0  0  0  0
   -4.6235   19.6107   18.7464 C   0  0  0  0  0  0  0  0  0  0  0  0
   -4.6025   20.8623   18.7886 O   0  0  0  0  0  0  0  0  0  0  0  0
   -5.8144   18.8494   19.0274 O   0  0  0  0  0  0  0  0  0  0  0  0
   -7.1731   19.1067   18.5058 C   0  0  0  0  0  0  0  0  0  0  0  0
   -2.9719   17.7865   19.4213 C   0  0  0  0  0  0  0  0  0  0  0  0
   -2.1318   16.5893   18.9880 C   0  0  0  0  0  0  0  0  0  0  0  0
   -1.0046   16.2388   19.7725 C   0  0  0  0  0  0  0  0  0  0  0  0
   -0.1879   15.1323   19.4234 C   0  0  0  0  0  0  0  0  0  0  0  0
   -0.5014   14.3620   18.2729 C   0  0  0  0  0  0  0  0  0  0  0  0
   -1.6479   14.6690   17.4197 C   0  0  0  0  0  0  0  0  0  0  0  0
   -2.4585   15.8067   17.8105 C   0  0  0  0  0  0  0  0  0  0  0  0
   -1.9308   13.8845   16.2858 C   0  0  0  0  0  0  0  0  0  0  0  0
   -2.7380   14.2276   15.3018 N   0  0  0  0  0  0  0  0  0  0  0  0
   -1.4102   12.6826   16.0657 N   0  0  0  0  0  0  0  0  0  0  0  0
   -3.2002   15.0966   15.3245 H   0  0  0  0  0  0  0  0  0  0  0  0
   -2.8787   13.6149   14.5441 H   0  0  0  0  0  0  0  0  0  0  0  0
   -0.7850   12.2901   16.7171 H   0  0  0  0  0  0  0  0  0  0  0  0
  2  1  1  0  0  0
  2  3  1  0  0  0
  1 23  1  0  0  0
  1 19  1  0  0  0
 23 24  1  0  0  0
 19 20  2  0  0  0
 19 21  1  0  0  0
 21 22  1  0  0  0
 24 25  2  0  0  0
 24 29  1  0  0  0
 25 26  1  0  0  0
 26 27  2  0  0  0
 27 28  1  0  0  0
 28 29  2  0  0  0
 28 30  1  0  0  0
 30 31  1  0  0  0
 30 32  2  0  0  0
  3  6  1  0  0  0
  3  4  2  0  0  0
  6  7  1  0  0  0
  7  9  1  0  0  0
 12 13  1  0  0  0
 13 14  1  0  0  0
 13 18  2  0  0  0
 14 15  2  0  0  0
 15 16  1  0  0  0
 16 17  2  0  0  0
 16  9  1  0  0  0
 17 18  1  0  0  0
  9 10  2  0  0  0
  9 11  2  0  0  0
  2  5  1  0  0  0
 31 33  1  0  0  0
 31 34  1  0  0  0
 32 35  1  0  0  0
  7  8  1  0  0  0
M  END
> <minimizedAffinity>
-7.53770

$$$$
1V2O_ANH_T_800


 35 36  0  0  0  0  0  0  0  0999 V2000
   -2.5604   18.7604   18.0202 C   0  0  0  0  0  0  0  0  0  0  0  0
   -1.1013   18.9176   17.7575 N   0  0  0  0  0  0  0  0  0  0  0  0
   -0.1771   19.2259   18.6753 C   0  0  0  0  0  0  0  0  0  0  0  0
   -0.4474   19.5913   19.8170 O   0  0  0  0  0  0  0  0  0  0  0  0
   -0.7920   18.7835   16.8325 H   0  0  0  0  0  0  0  0  0  0  0  0
    1.2725   19.1251   18.2501 C   0  0  0  0  0  0  0  0  0  0  0  0
    1.5063   19.4903   16.8339 N   0  0  0  0  0  0  0  0  0  0  0  0
    0.6331   19.3196   16.3351 H   0  0  0  0  0  0  0  0  0  0  0  0
    1.9905   21.0568   16.4525 S   0  0  0  0  0  0  0  0  0  0  0  0
    0.8028   21.6874   15.5985 O   0  0  0  0  0  0  0  0  0  0  0  0
    2.2125   21.6999   17.8687 O   0  0  0  0  0  0  0  0  0  0  0  0
    7.1474   20.9030   13.2973 C   0  0  0  0  0  0  0  0  0  0  0  0
    5.9166   20.9141   14.1249 C   0  0  0  0  0  0  0  0  0  0  0  0
    5.9306   20.5300   15.5094 C   0  0  0  0  0  0  0  0  0  0  0  0
    4.7130   20.5616   16.2694 C   0  0  0  0  0  0  0  0  0  0  0  0
    3.5057   20.9802   15.6026 C   0  0  0  0  0  0  0  0  0  0  0  0
    3.5007   21.3556   14.2306 C   0  0  0  0  0  0  0  0  0  0  0  0
    4.7024   21.3212   13.5020 C   0  0  0  0  0  0  0  0  0  0  0  0
   -3.3523   20.0472   18.5575 C   0  0  0  0  0  0  0  0  0  0  0  0
   -4.0615   19.9151   19.5814 O   0  0  0  0  0  0  0  0  0  0  0  0
   -3.2299   21.3027   17.8607 O   0  0  0  0  0  0  0  0  0  0  0  0
   -3.0192   22.6342   18.4664 C   0  0  0  0  0  0  0  0  0  0  0  0
   -2.7439   17.6106   19.0086 C   0  0  0  0  0  0  0  0  0  0  0  0
   -2.0311   16.3004   18.6890 C   0  0  0  0  0  0  0  0  0  0  0  0
   -1.2017   15.7252   19.6840 C   0  0  0  0  0  0  0  0  0  0  0  0
   -0.5170   14.5051   19.4477 C   0  0  0  0  0  0  0  0  0  0  0  0
   -0.6627   13.8474   18.1981 C   0  0  0  0  0  0  0  0  0  0  0  0
   -1.5009   14.3860   17.1285 C   0  0  0  0  0  0  0  0  0  0  0  0
   -2.1849   15.6340   17.4092 C   0  0  0  0  0  0  0  0  0  0  0  0
   -1.6237   13.7082   15.9009 C   0  0  0  0  0  0  0  0  0  0  0  0
   -1.4226   12.4185   15.7172 N   0  0  0  0  0  0  0  0  0  0  0  0
   -1.9628   14.2957   14.7590 N   0  0  0  0  0  0  0  0  0  0  0  0
   -1.1638   11.8476   16.4764 H   0  0  0  0  0  0  0  0  0  0  0  0
   -1.5311   12.0262   14.8208 H   0  0  0  0  0  0  0  0  0  0  0  0
   -2.1456   15.2629   14.7383 H   0  0  0  0  0  0  0  0  0  0  0  0
  2  1  1  0  0  0
  2  3  1  0  0  0
  1 23  1  0  0  0
  1 19  1  0  0  0
 23 24  1  0  0  0
 19 20  2  0  0  0
 19 21  1  0  0  0
 21 22  1  0  0  0
 24 25  2  0  0  0
 24 29  1  0  0  0
 25 26  1  0  0  0
 26 27  2  0  0  0
 27 28  1  0  0  0
 28 29  2  0  0  0
 28 30  1  0  0  0
 30 31  1  0  0  0
 30 32  2  0  0  0
  3  6  1  0  0  0
  3  4  2  0  0  0
  6  7  1  0  0  0
  7  9  1  0  0  0
 12 13  1  0  0  0
 13 14  1  0  0  0
 13 18  2  0  0  0
 14 15  2  0  0  0
 15 16  1  0  0  0
 16 17  2  0  0  0
 16  9  1  0  0  0
 17 18  1  0  0  0
  9 10  2  0  0  0
  9 11  2  0  0  0
  2  5  1  0  0  0
 31 33  1  0  0  0
 31 34  1  0  0  0
 32 35  1  0  0  0
  7  8  1  0  0  0
M  END
> <minimizedAffinity>
-7.41067

$$$$
1V2O_ANH_T_800


 35 36  0  0  0  0  0  0  0  0999 V2000
   -1.6358   18.9300   18.2839 C   0  0  0  0  0  0  0  0  0  0  0  0
   -0.7780   19.7252   19.2083 N   0  0  0  0  0  0  0  0  0  0  0  0
    0.5290   19.5259   19.4174 C   0  0  0  0  0  0  0  0  0  0  0  0
    1.1427   18.5455   19.0023 O   0  0  0  0  0  0  0  0  0  0  0  0
   -1.2084   20.4575   19.7061 H   0  0  0  0  0  0  0  0  0  0  0  0
    1.2621   20.5746   20.2267 C   0  0  0  0  0  0  0  0  0  0  0  0
    1.6761   21.7571   19.4368 N   0  0  0  0  0  0  0  0  0  0  0  0
    1.0750   22.5302   19.7223 H   0  0  0  0  0  0  0  0  0  0  0  0
    3.2639   22.3068   19.5404 S   0  0  0  0  0  0  0  0  0  0  0  0
    3.1750   23.8963   19.5975 O   0  0  0  0  0  0  0  0  0  0  0  0
    3.7790   21.6167   20.8545 O   0  0  0  0  0  0  0  0  0  0  0  0
    6.5721   20.2898   14.8971 C   0  0  0  0  0  0  0  0  0  0  0  0
    5.7055   20.7543   16.0076 C   0  0  0  0  0  0  0  0  0  0  0  0
    4.3223   20.3763   16.0989 C   0  0  0  0  0  0  0  0  0  0  0  0
    3.5259   20.8489   17.1960 C   0  0  0  0  0  0  0  0  0  0  0  0
    4.1538   21.6995   18.1754 C   0  0  0  0  0  0  0  0  0  0  0  0
    5.5232   22.0713   18.0752 C   0  0  0  0  0  0  0  0  0  0  0  0
    6.2890   21.5975   16.9958 C   0  0  0  0  0  0  0  0  0  0  0  0
   -2.8186   19.7067   17.5294 C   0  0  0  0  0  0  0  0  0  0  0  0
   -2.5838   20.1691   16.3893 O   0  0  0  0  0  0  0  0  0  0  0  0
   -4.1009   19.8505   18.1710 O   0  0  0  0  0  0  0  0  0  0  0  0
   -5.4262   19.6033   17.5656 C   0  0  0  0  0  0  0  0  0  0  0  0
   -2.2259   17.7615   19.0708 C   0  0  0  0  0  0  0  0  0  0  0  0
   -1.7036   16.3672   18.7389 C   0  0  0  0  0  0  0  0  0  0  0  0
   -0.9432   15.6822   19.7193 C   0  0  0  0  0  0  0  0  0  0  0  0
   -0.4351   14.3809   19.4713 C   0  0  0  0  0  0  0  0  0  0  0  0
   -0.6904   13.7520   18.2244 C   0  0  0  0  0  0  0  0  0  0  0  0
   -1.4658   14.4021   17.1695 C   0  0  0  0  0  0  0  0  0  0  0  0
   -1.9687   15.7309   17.4620 C   0  0  0  0  0  0  0  0  0  0  0  0
   -1.7009   13.7501   15.9443 C   0  0  0  0  0  0  0  0  0  0  0  0
   -1.4722   12.4748   15.7017 N   0  0  0  0  0  0  0  0  0  0  0  0
   -2.1898   14.3508   14.8653 N   0  0  0  0  0  0  0  0  0  0  0  0
   -1.1071   11.8967   16.4100 H   0  0  0  0  0  0  0  0  0  0  0  0
   -1.6665   12.1004   14.8121 H   0  0  0  0  0  0  0  0  0  0  0  0
   -2.4110   15.3098   14.8935 H   0  0  0  0  0  0  0  0  0  0  0  0
  2  1  1  0  0  0
  2  3  1  0  0  0
  1 23  1  0  0  0
  1 19  1  0  0  0
 23 24  1  0  0  0
 19 20  2  0  0  0
 19 21  1  0  0  0
 21 22  1  0  0  0
 24 25  2  0  0  0
 24 29  1  0  0  0
 25 26  1  0  0  0
 26 27  2  0  0  0
 27 28  1  0  0  0
 28 29  2  0  0  0
 28 30  1  0  0  0
 30 31  1  0  0  0
 30 32  2  0  0  0
  3  6  1  0  0  0
  3  4  2  0  0  0
  6  7  1  0  0  0
  7  9  1  0  0  0
 12 13  1  0  0  0
 13 14  1  0  0  0
 13 18  2  0  0  0
 14 15  2  0  0  0
 15 16  1  0  0  0
 16 17  2  0  0  0
 16  9  1  0  0  0
 17 18  1  0  0  0
  9 10  2  0  0  0
  9 11  2  0  0  0
  2  5  1  0  0  0
 31 33  1  0  0  0
 31 34  1  0  0  0
 32 35  1  0  0  0
  7  8  1  0  0  0
M  END
> <minimizedAffinity>
-7.40932

$$$$
1V2O_ANH_T_800


 35 36  0  0  0  0  0  0  0  0999 V2000
    3.5403   20.4954   18.5692 C   0  0  0  0  0  0  0  0  0  0  0  0
    2.4623   19.8462   19.3687 N   0  0  0  0  0  0  0  0  0  0  0  0
    2.6519   19.0968   20.4614 C   0  0  0  0  0  0  0  0  0  0  0  0
    3.7554   18.7069   20.8360 O   0  0  0  0  0  0  0  0  0  0  0  0
    1.5344   19.9797   19.0681 H   0  0  0  0  0  0  0  0  0  0  0  0
    1.4190   18.7101   21.2505 C   0  0  0  0  0  0  0  0  0  0  0  0
    0.8975   17.3633   20.9220 N   0  0  0  0  0  0  0  0  0  0  0  0
    1.1055   16.7618   21.7190 H   0  0  0  0  0  0  0  0  0  0  0  0
   -0.7389   17.1713   20.5768 S   0  0  0  0  0  0  0  0  0  0  0  0
   -1.4115   16.6423   21.9205 O   0  0  0  0  0  0  0  0  0  0  0  0
   -1.1671   18.6177   20.1374 O   0  0  0  0  0  0  0  0  0  0  0  0
   -1.1896   13.1986   16.0396 C   0  0  0  0  0  0  0  0  0  0  0  0
   -1.1129   14.2188   17.1135 C   0  0  0  0  0  0  0  0  0  0  0  0
   -1.7490   15.5011   16.9878 C   0  0  0  0  0  0  0  0  0  0  0  0
   -1.6491   16.4533   18.0576 C   0  0  0  0  0  0  0  0  0  0  0  0
   -0.9004   16.0813   19.2316 C   0  0  0  0  0  0  0  0  0  0  0  0
   -0.2712   14.8107   19.3459 C   0  0  0  0  0  0  0  0  0  0  0  0
   -0.3813   13.8893   18.2900 C   0  0  0  0  0  0  0  0  0  0  0  0
    4.1111   21.8945   19.1060 C   0  0  0  0  0  0  0  0  0  0  0  0
    3.4995   22.9398   18.7863 O   0  0  0  0  0  0  0  0  0  0  0  0
    5.2935   21.9141   19.9295 O   0  0  0  0  0  0  0  0  0  0  0  0
    5.3445   21.8777   21.4061 C   0  0  0  0  0  0  0  0  0  0  0  0
    3.0287   20.6777   17.1417 C   0  0  0  0  0  0  0  0  0  0  0  0
    4.0748   20.7544   16.0341 C   0  0  0  0  0  0  0  0  0  0  0  0
    5.3910   20.3132   16.3197 C   0  0  0  0  0  0  0  0  0  0  0  0
    6.4059   20.3549   15.3290 C   0  0  0  0  0  0  0  0  0  0  0  0
    6.1024   20.8442   14.0314 C   0  0  0  0  0  0  0  0  0  0  0  0
    4.7668   21.3158   13.6703 C   0  0  0  0  0  0  0  0  0  0  0  0
    3.7570   21.2560   14.7101 C   0  0  0  0  0  0  0  0  0  0  0  0
    4.4994   21.7948   12.3741 C   0  0  0  0  0  0  0  0  0  0  0  0
    5.2597   21.5981   11.3153 N   0  0  0  0  0  0  0  0  0  0  0  0
    3.4307   22.5157   12.0546 N   0  0  0  0  0  0  0  0  0  0  0  0
    6.0917   21.0781   11.3965 H   0  0  0  0  0  0  0  0  0  0  0  0
    4.9955   21.9712   10.4434 H   0  0  0  0  0  0  0  0  0  0  0  0
    2.7671   22.7449   12.7449 H   0  0  0  0  0  0  0  0  0  0  0  0
  2  1  1  0  0  0
  2  3  1  0  0  0
  1 23  1  0  0  0
  1 19  1  0  0  0
 23 24  1  0  0  0
 19 20  2  0  0  0
 19 21  1  0  0  0
 21 22  1  0  0  0
 24 25  2  0  0  0
 24 29  1  0  0  0
 25 26  1  0  0  0
 26 27  2  0  0  0
 27 28  1  0  0  0
 28 29  2  0  0  0
 28 30  1  0  0  0
 30 31  1  0  0  0
 30 32  2  0  0  0
  3  6  1  0  0  0
  3  4  2  0  0  0
  6  7  1  0  0  0
  7  9  1  0  0  0
 12 13  1  0  0  0
 13 14  1  0  0  0
 13 18  2  0  0  0
 14 15  2  0  0  0
 15 16  1  0  0  0
 16 17  2  0  0  0
 16  9  1  0  0  0
 17 18  1  0  0  0
  9 10  2  0  0  0
  9 11  2  0  0  0
  2  5  1  0  0  0
 31 33  1  0  0  0
 31 34  1  0  0  0
 32 35  1  0  0  0
  7  8  1  0  0  0
M  END
> <minimizedAffinity>
-7.26068

$$$$
1V2O_ANH_T_800


 35 36  0  0  0  0  0  0  0  0999 V2000
   -1.4057   18.9555   18.5505 C   0  0  0  0  0  0  0  0  0  0  0  0
   -1.1449   19.8646   17.3980 N   0  0  0  0  0  0  0  0  0  0  0  0
   -2.0829   20.4240   16.6240 C   0  0  0  0  0  0  0  0  0  0  0  0
   -3.2710   20.1126   16.6622 O   0  0  0  0  0  0  0  0  0  0  0  0
   -0.2051   20.0705   17.1889 H   0  0  0  0  0  0  0  0  0  0  0  0
   -1.6227   21.4842   15.6461 C   0  0  0  0  0  0  0  0  0  0  0  0
   -0.1922   21.3766   15.2777 N   0  0  0  0  0  0  0  0  0  0  0  0
   -0.1481   21.3644   14.2587 H   0  0  0  0  0  0  0  0  0  0  0  0
    0.8880   22.5569   15.8009 S   0  0  0  0  0  0  0  0  0  0  0  0
    0.5947   23.8454   14.9112 O   0  0  0  0  0  0  0  0  0  0  0  0
    0.5283   22.6980   17.3238 O   0  0  0  0  0  0  0  0  0  0  0  0
    6.4570   20.2334   15.4009 C   0  0  0  0  0  0  0  0  0  0  0  0
    5.1089   20.8497   15.4513 C   0  0  0  0  0  0  0  0  0  0  0  0
    4.7308   21.9192   14.5692 C   0  0  0  0  0  0  0  0  0  0  0  0
    3.4119   22.4799   14.6543 C   0  0  0  0  0  0  0  0  0  0  0  0
    2.5066   21.9422   15.6385 C   0  0  0  0  0  0  0  0  0  0  0  0
    2.8906   20.8855   16.5099 C   0  0  0  0  0  0  0  0  0  0  0  0
    4.1851   20.3464   16.4111 C   0  0  0  0  0  0  0  0  0  0  0  0
   -1.6114   19.6341   19.9888 C   0  0  0  0  0  0  0  0  0  0  0  0
   -1.2609   18.9839   21.0004 O   0  0  0  0  0  0  0  0  0  0  0  0
   -2.1843   20.9532   20.0801 O   0  0  0  0  0  0  0  0  0  0  0  0
   -3.5959   21.2875   20.3626 C   0  0  0  0  0  0  0  0  0  0  0  0
   -0.2594   17.9493   18.6306 C   0  0  0  0  0  0  0  0  0  0  0  0
   -0.6312   16.4702   18.6017 C   0  0  0  0  0  0  0  0  0  0  0  0
   -0.4789   15.7144   19.7910 C   0  0  0  0  0  0  0  0  0  0  0  0
   -0.8131   14.3360   19.8277 C   0  0  0  0  0  0  0  0  0  0  0  0
   -1.3084   13.7009   18.6587 C   0  0  0  0  0  0  0  0  0  0  0  0
   -1.4884   14.4206   17.3992 C   0  0  0  0  0  0  0  0  0  0  0  0
   -1.1367   15.8279   17.4026 C   0  0  0  0  0  0  0  0  0  0  0  0
   -1.9821   13.7606   16.2581 C   0  0  0  0  0  0  0  0  0  0  0  0
   -1.5373   12.6122   15.7879 N   0  0  0  0  0  0  0  0  0  0  0  0
   -2.9726   14.2225   15.5035 N   0  0  0  0  0  0  0  0  0  0  0  0
   -0.8000   12.1459   16.2442 H   0  0  0  0  0  0  0  0  0  0  0  0
   -1.9424   12.2209   14.9805 H   0  0  0  0  0  0  0  0  0  0  0  0
   -3.4080   15.0757   15.7308 H   0  0  0  0  0  0  0  0  0  0  0  0
  2  1  1  0  0  0
  2  3  1  0  0  0
  1 23  1  0  0  0
  1 19  1  0  0  0
 23 24  1  0  0  0
 19 20  2  0  0  0
 19 21  1  0  0  0
 21 22  1  0  0  0
 24 25  2  0  0  0
 24 29  1  0  0  0
 25 26  1  0  0  0
 26 27  2  0  0  0
 27 28  1  0  0  0
 28 29  2  0  0  0
 28 30  1  0  0  0
 30 31  1  0  0  0
 30 32  2  0  0  0
  3  6  1  0  0  0
  3  4  2  0  0  0
  6  7  1  0  0  0
  7  9  1  0  0  0
 12 13  1  0  0  0
 13 14  1  0  0  0
 13 18  2  0  0  0
 14 15  2  0  0  0
 15 16  1  0  0  0
 16 17  2  0  0  0
 16  9  1  0  0  0
 17 18  1  0  0  0
  9 10  2  0  0  0
  9 11  2  0  0  0
  2  5  1  0  0  0
 31 33  1  0  0  0
 31 34  1  0  0  0
 32 35  1  0  0  0
  7  8  1  0  0  0
M  END
> <minimizedAffinity>
-7.16011

$$$$
1V2O_ANH_T_800


 35 36  0  0  0  0  0  0  0  0999 V2000
    0.5140   18.6191   20.3286 C   0  0  0  0  0  0  0  0  0  0  0  0
    1.5039   18.9281   19.2574 N   0  0  0  0  0  0  0  0  0  0  0  0
    1.2312   19.5579   18.1082 C   0  0  0  0  0  0  0  0  0  0  0  0
    0.0912   19.8013   17.7195 O   0  0  0  0  0  0  0  0  0  0  0  0
    2.4349   18.6456   19.4077 H   0  0  0  0  0  0  0  0  0  0  0  0
    2.4119   19.9667   17.2530 C   0  0  0  0  0  0  0  0  0  0  0  0
    2.1094   20.0219   15.8042 N   0  0  0  0  0  0  0  0  0  0  0  0
    1.1918   19.5952   15.6759 H   0  0  0  0  0  0  0  0  0  0  0  0
    2.0700   21.5128   15.0235 S   0  0  0  0  0  0  0  0  0  0  0  0
    0.5338   21.9276   14.9472 O   0  0  0  0  0  0  0  0  0  0  0  0
    2.9609   22.4101   15.9560 O   0  0  0  0  0  0  0  0  0  0  0  0
    4.9494   20.9904    9.7312 C   0  0  0  0  0  0  0  0  0  0  0  0
    4.1846   21.1009   10.9972 C   0  0  0  0  0  0  0  0  0  0  0  0
    2.7911   20.7590   11.0735 C   0  0  0  0  0  0  0  0  0  0  0  0
    2.0959   20.8791   12.3238 C   0  0  0  0  0  0  0  0  0  0  0  0
    2.8333   21.3484   13.4697 C   0  0  0  0  0  0  0  0  0  0  0  0
    4.2121   21.6878   13.3841 C   0  0  0  0  0  0  0  0  0  0  0  0
    4.8780   21.5618   12.1526 C   0  0  0  0  0  0  0  0  0  0  0  0
    0.8164   19.1929   21.7952 C   0  0  0  0  0  0  0  0  0  0  0  0
    0.4287   18.5224   22.7796 O   0  0  0  0  0  0  0  0  0  0  0  0
    1.5154   20.4445   21.9416 O   0  0  0  0  0  0  0  0  0  0  0  0
    2.3748   20.8513   23.0730 C   0  0  0  0  0  0  0  0  0  0  0  0
    0.3570   17.1018   20.4069 C   0  0  0  0  0  0  0  0  0  0  0  0
   -0.5853   16.4489   19.4006 C   0  0  0  0  0  0  0  0  0  0  0  0
   -1.8257   17.0800   19.1323 C   0  0  0  0  0  0  0  0  0  0  0  0
   -2.7416   16.5237   18.2023 C   0  0  0  0  0  0  0  0  0  0  0  0
   -2.4144   15.3180   17.5281 C   0  0  0  0  0  0  0  0  0  0  0  0
   -1.1535   14.6152   17.7586 C   0  0  0  0  0  0  0  0  0  0  0  0
   -0.2438   15.2162   18.7154 C   0  0  0  0  0  0  0  0  0  0  0  0
   -0.8601   13.4214   17.0731 C   0  0  0  0  0  0  0  0  0  0  0  0
    0.2032   12.6681   17.2720 N   0  0  0  0  0  0  0  0  0  0  0  0
   -1.6318   12.9000   16.1261 N   0  0  0  0  0  0  0  0  0  0  0  0
    0.8709   12.9276   17.9473 H   0  0  0  0  0  0  0  0  0  0  0  0
    0.3296   11.8460   16.7452 H   0  0  0  0  0  0  0  0  0  0  0  0
   -2.4662   13.3531   15.8662 H   0  0  0  0  0  0  0  0  0  0  0  0
  2  1  1  0  0  0
  2  3  1  0  0  0
  1 23  1  0  0  0
  1 19  1  0  0  0
 23 24  1  0  0  0
 19 20  2  0  0  0
 19 21  1  0  0  0
 21 22  1  0  0  0
 24 25  2  0  0  0
 24 29  1  0  0  0
 25 26  1  0  0  0
 26 27  2  0  0  0
 27 28  1  0  0  0
 28 29  2  0  0  0
 28 30  1  0  0  0
 30 31  1  0  0  0
 30 32  2  0  0  0
  3  6  1  0  0  0
  3  4  2  0  0  0
  6  7  1  0  0  0
  7  9  1  0  0  0
 12 13  1  0  0  0
 13 14  1  0  0  0
 13 18  2  0  0  0
 14 15  2  0  0  0
 15 16  1  0  0  0
 16 17  2  0  0  0
 16  9  1  0  0  0
 17 18  1  0  0  0
  9 10  2  0  0  0
  9 11  2  0  0  0
  2  5  1  0  0  0
 31 33  1  0  0  0
 31 34  1  0  0  0
 32 35  1  0  0  0
  7  8  1  0  0  0
M  END
> <minimizedAffinity>
-6.99936

$$$$
1V2O_ANH_T_800


 35 36  0  0  0  0  0  0  0  0999 V2000
   -3.2157   18.9392   18.0904 C   0  0  0  0  0  0  0  0  0  0  0  0
   -1.9608   19.6679   18.4325 N   0  0  0  0  0  0  0  0  0  0  0  0
   -1.3722   20.5980   17.6709 C   0  0  0  0  0  0  0  0  0  0  0  0
   -1.7024   20.8368   16.5116 O   0  0  0  0  0  0  0  0  0  0  0  0
   -1.5295   19.4468   19.2894 H   0  0  0  0  0  0  0  0  0  0  0  0
   -0.2293   21.3716   18.2932 C   0  0  0  0  0  0  0  0  0  0  0  0
    0.5496   20.5932   19.2837 N   0  0  0  0  0  0  0  0  0  0  0  0
   -0.1229   20.0767   19.8507 H   0  0  0  0  0  0  0  0  0  0  0  0
    1.6943   19.4815   18.7471 S   0  0  0  0  0  0  0  0  0  0  0  0
    2.4018   18.9137   20.0566 O   0  0  0  0  0  0  0  0  0  0  0  0
    0.8184   18.4448   17.9556 O   0  0  0  0  0  0  0  0  0  0  0  0
    5.6158   22.3383   15.1371 C   0  0  0  0  0  0  0  0  0  0  0  0
    4.6189   21.6184   15.9664 C   0  0  0  0  0  0  0  0  0  0  0  0
    3.5564   20.8504   15.3782 C   0  0  0  0  0  0  0  0  0  0  0  0
    2.6185   20.1678   16.2242 C   0  0  0  0  0  0  0  0  0  0  0  0
    2.7800   20.2846   17.6516 C   0  0  0  0  0  0  0  0  0  0  0  0
    3.8330   21.0499   18.2251 C   0  0  0  0  0  0  0  0  0  0  0  0
    4.7440   21.7097   17.3820 C   0  0  0  0  0  0  0  0  0  0  0  0
   -4.5867   19.7685   18.1536 C   0  0  0  0  0  0  0  0  0  0  0  0
   -5.4647   19.5181   17.2962 O   0  0  0  0  0  0  0  0  0  0  0  0
   -4.7716   20.7645   19.1787 O   0  0  0  0  0  0  0  0  0  0  0  0
   -5.7291   20.7102   20.3031 C   0  0  0  0  0  0  0  0  0  0  0  0
   -3.3235   17.7225   19.0075 C   0  0  0  0  0  0  0  0  0  0  0  0
   -2.4017   16.5445   18.7086 C   0  0  0  0  0  0  0  0  0  0  0  0
   -1.4166   16.2004   19.6677 C   0  0  0  0  0  0  0  0  0  0  0  0
   -0.5336   15.1115   19.4488 C   0  0  0  0  0  0  0  0  0  0  0  0
   -0.6357   14.3525   18.2535 C   0  0  0  0  0  0  0  0  0  0  0  0
   -1.6275   14.6539   17.2228 C   0  0  0  0  0  0  0  0  0  0  0  0
   -2.5120   15.7735   17.4842 C   0  0  0  0  0  0  0  0  0  0  0  0
   -1.7019   13.8810   16.0488 C   0  0  0  0  0  0  0  0  0  0  0  0
   -2.1117   14.3149   14.8735 N   0  0  0  0  0  0  0  0  0  0  0  0
   -1.3628   12.5986   15.9812 N   0  0  0  0  0  0  0  0  0  0  0  0
   -2.3976   15.2509   14.7667 H   0  0  0  0  0  0  0  0  0  0  0  0
   -2.1318   13.7031   14.1024 H   0  0  0  0  0  0  0  0  0  0  0  0
   -1.0358   12.1329   16.7846 H   0  0  0  0  0  0  0  0  0  0  0  0
  2  1  1  0  0  0
  2  3  1  0  0  0
  1 23  1  0  0  0
  1 19  1  0  0  0
 23 24  1  0  0  0
 19 20  2  0  0  0
 19 21  1  0  0  0
 21 22  1  0  0  0
 24 25  2  0  0  0
 24 29  1  0  0  0
 25 26  1  0  0  0
 26 27  2  0  0  0
 27 28  1  0  0  0
 28 29  2  0  0  0
 28 30  1  0  0  0
 30 31  1  0  0  0
 30 32  2  0  0  0
  3  6  1  0  0  0
  3  4  2  0  0  0
  6  7  1  0  0  0
  7  9  1  0  0  0
 12 13  1  0  0  0
 13 14  1  0  0  0
 13 18  2  0  0  0
 14 15  2  0  0  0
 15 16  1  0  0  0
 16 17  2  0  0  0
 16  9  1  0  0  0
 17 18  1  0  0  0
  9 10  2  0  0  0
  9 11  2  0  0  0
  2  5  1  0  0  0
 31 33  1  0  0  0
 31 34  1  0  0  0
 32 35  1  0  0  0
  7  8  1  0  0  0
M  END
> <minimizedAffinity>
-6.96378

$$$$
1V2O_ANH_T_800


 35 36  0  0  0  0  0  0  0  0999 V2000
    1.1850   20.4593   17.8357 C   0  0  0  0  0  0  0  0  0  0  0  0
    1.1677   19.1435   18.5364 N   0  0  0  0  0  0  0  0  0  0  0  0
    1.6779   18.9050   19.7507 C   0  0  0  0  0  0  0  0  0  0  0  0
    2.3818   19.7054   20.3621 O   0  0  0  0  0  0  0  0  0  0  0  0
    0.7462   18.3875   18.0673 H   0  0  0  0  0  0  0  0  0  0  0  0
    1.3670   17.5606   20.3736 C   0  0  0  0  0  0  0  0  0  0  0  0
    0.3836   17.6274   21.4791 N   0  0  0  0  0  0  0  0  0  0  0  0
    0.4163   18.5776   21.8485 H   0  0  0  0  0  0  0  0  0  0  0  0
   -1.2337   17.2770   21.1701 S   0  0  0  0  0  0  0  0  0  0  0  0
   -1.8084   16.6389   22.5118 O   0  0  0  0  0  0  0  0  0  0  0  0
   -1.8216   18.6840   20.7917 O   0  0  0  0  0  0  0  0  0  0  0  0
   -1.5717   13.8021   16.2322 C   0  0  0  0  0  0  0  0  0  0  0  0
   -1.4758   14.5976   17.4803 C   0  0  0  0  0  0  0  0  0  0  0  0
   -1.1114   13.9990   18.7347 C   0  0  0  0  0  0  0  0  0  0  0  0
   -1.0281   14.8129   19.9145 C   0  0  0  0  0  0  0  0  0  0  0  0
   -1.3211   16.2188   19.7929 C   0  0  0  0  0  0  0  0  0  0  0  0
   -1.6842   16.8022   18.5474 C   0  0  0  0  0  0  0  0  0  0  0  0
   -1.7585   15.9911   17.4017 C   0  0  0  0  0  0  0  0  0  0  0  0
   -0.2321   21.1152   17.4704 C   0  0  0  0  0  0  0  0  0  0  0  0
   -0.4304   21.4614   16.2832 O   0  0  0  0  0  0  0  0  0  0  0  0
   -1.2256   21.2866   18.5001 O   0  0  0  0  0  0  0  0  0  0  0  0
   -2.6931   21.2701   18.3256 C   0  0  0  0  0  0  0  0  0  0  0  0
    2.0102   20.3070   16.5595 C   0  0  0  0  0  0  0  0  0  0  0  0
    3.4798   20.7093   16.6313 C   0  0  0  0  0  0  0  0  0  0  0  0
    4.3335   20.3338   15.5641 C   0  0  0  0  0  0  0  0  0  0  0  0
    5.7086   20.6837   15.5715 C   0  0  0  0  0  0  0  0  0  0  0  0
    6.2408   21.4214   16.6614 C   0  0  0  0  0  0  0  0  0  0  0  0
    5.4169   21.8393   17.7942 C   0  0  0  0  0  0  0  0  0  0  0  0
    4.0166   21.4633   17.7489 C   0  0  0  0  0  0  0  0  0  0  0  0
    5.9763   22.5702   18.8592 C   0  0  0  0  0  0  0  0  0  0  0  0
    6.6847   23.6753   18.7380 N   0  0  0  0  0  0  0  0  0  0  0  0
    5.8567   22.2296   20.1373 N   0  0  0  0  0  0  0  0  0  0  0  0
    6.8591   24.0529   17.8456 H   0  0  0  0  0  0  0  0  0  0  0  0
    7.0394   24.1230   19.5398 H   0  0  0  0  0  0  0  0  0  0  0  0
    5.3517   21.4220   20.3863 H   0  0  0  0  0  0  0  0  0  0  0  0
  2  1  1  0  0  0
  2  3  1  0  0  0
  1 23  1  0  0  0
  1 19  1  0  0  0
 23 24  1  0  0  0
 19 20  2  0  0  0
 19 21  1  0  0  0
 21 22  1  0  0  0
 24 25  2  0  0  0
 24 29  1  0  0  0
 25 26  1  0  0  0
 26 27  2  0  0  0
 27 28  1  0  0  0
 28 29  2  0  0  0
 28 30  1  0  0  0
 30 31  1  0  0  0
 30 32  2  0  0  0
  3  6  1  0  0  0
  3  4  2  0  0  0
  6  7  1  0  0  0
  7  9  1  0  0  0
 12 13  1  0  0  0
 13 14  1  0  0  0
 13 18  2  0  0  0
 14 15  2  0  0  0
 15 16  1  0  0  0
 16 17  2  0  0  0
 16  9  1  0  0  0
 17 18  1  0  0  0
  9 10  2  0  0  0
  9 11  2  0  0  0
  2  5  1  0  0  0
 31 33  1  0  0  0
 31 34  1  0  0  0
 32 35  1  0  0  0
  7  8  1  0  0  0
M  END
> <minimizedAffinity>
-6.89217

$$$$
1V2O_ANH_T_800


 35 36  0  0  0  0  0  0  0  0999 V2000
    0.6382   18.1340   18.8878 C   0  0  0  0  0  0  0  0  0  0  0  0
   -0.5427   18.3937   18.0155 N   0  0  0  0  0  0  0  0  0  0  0  0
   -1.7457   18.7993   18.4398 C   0  0  0  0  0  0  0  0  0  0  0  0
   -2.0726   18.8366   19.6238 O   0  0  0  0  0  0  0  0  0  0  0  0
   -0.4283   18.2554   17.0475 H   0  0  0  0  0  0  0  0  0  0  0  0
   -2.7434   19.2138   17.3792 C   0  0  0  0  0  0  0  0  0  0  0  0
   -2.1284   19.8826   16.2094 N   0  0  0  0  0  0  0  0  0  0  0  0
   -2.5224   19.4453   15.3763 H   0  0  0  0  0  0  0  0  0  0  0  0
   -2.3051   21.5459   16.0199 S   0  0  0  0  0  0  0  0  0  0  0  0
   -2.3971   21.8013   14.4501 O   0  0  0  0  0  0  0  0  0  0  0  0
   -3.6207   21.8435   16.8255 O   0  0  0  0  0  0  0  0  0  0  0  0
    2.2807   24.2299   18.9076 C   0  0  0  0  0  0  0  0  0  0  0  0
    1.1849   23.5902   18.1396 C   0  0  0  0  0  0  0  0  0  0  0  0
    1.2019   23.5267   16.7042 C   0  0  0  0  0  0  0  0  0  0  0  0
    0.1190   22.8927   16.0066 C   0  0  0  0  0  0  0  0  0  0  0  0
   -0.9604   22.3397   16.7852 C   0  0  0  0  0  0  0  0  0  0  0  0
   -0.9704   22.4101   18.2058 C   0  0  0  0  0  0  0  0  0  0  0  0
    0.0992   23.0322   18.8729 C   0  0  0  0  0  0  0  0  0  0  0  0
    0.4189   17.1739   20.1534 C   0  0  0  0  0  0  0  0  0  0  0  0
    0.5494   17.6697   21.2962 O   0  0  0  0  0  0  0  0  0  0  0  0
    0.0824   15.7879   19.9479 O   0  0  0  0  0  0  0  0  0  0  0  0
   -1.1734   15.2571   19.3775 C   0  0  0  0  0  0  0  0  0  0  0  0
    1.1794   19.4793   19.3674 C   0  0  0  0  0  0  0  0  0  0  0  0
    2.3299   20.0878   18.5719 C   0  0  0  0  0  0  0  0  0  0  0  0
    2.3100   19.9669   17.1598 C   0  0  0  0  0  0  0  0  0  0  0  0
    3.3490   20.5169   16.3654 C   0  0  0  0  0  0  0  0  0  0  0  0
    4.4257   21.1996   16.9900 C   0  0  0  0  0  0  0  0  0  0  0  0
    4.5089   21.3591   18.4406 C   0  0  0  0  0  0  0  0  0  0  0  0
    3.4272   20.7840   19.2175 C   0  0  0  0  0  0  0  0  0  0  0  0
    5.5905   22.0421   19.0279 C   0  0  0  0  0  0  0  0  0  0  0  0
    6.6025   22.5761   18.3735 N   0  0  0  0  0  0  0  0  0  0  0  0
    5.7255   22.2345   20.3351 N   0  0  0  0  0  0  0  0  0  0  0  0
    6.6418   22.5137   17.3917 H   0  0  0  0  0  0  0  0  0  0  0  0
    7.3190   23.0374   18.8664 H   0  0  0  0  0  0  0  0  0  0  0  0
    5.0437   21.8904   20.9564 H   0  0  0  0  0  0  0  0  0  0  0  0
  2  1  1  0  0  0
  2  3  1  0  0  0
  1 23  1  0  0  0
  1 19  1  0  0  0
 23 24  1  0  0  0
 19 20  2  0  0  0
 19 21  1  0  0  0
 21 22  1  0  0  0
 24 25  2  0  0  0
 24 29  1  0  0  0
 25 26  1  0  0  0
 26 27  2  0  0  0
 27 28  1  0  0  0
 28 29  2  0  0  0
 28 30  1  0  0  0
 30 31  1  0  0  0
 30 32  2  0  0  0
  3  6  1  0  0  0
  3  4  2  0  0  0
  6  7  1  0  0  0
  7  9  1  0  0  0
 12 13  1  0  0  0
 13 14  1  0  0  0
 13 18  2  0  0  0
 14 15  2  0  0  0
 15 16  1  0  0  0
 16 17  2  0  0  0
 16  9  1  0  0  0
 17 18  1  0  0  0
  9 10  2  0  0  0
  9 11  2  0  0  0
  2  5  1  0  0  0
 31 33  1  0  0  0
 31 34  1  0  0  0
 32 35  1  0  0  0
  7  8  1  0  0  0
M  END
> <minimizedAffinity>
-6.72681

$$$$
