3VJE_ZGA_A_301


 54 56  0  0  0  0  0  0  0  0999 V2000
   22.8392   -8.9825    7.2243 O   0  0  0  0  0  0  0  0  0  0  0  0
   22.7779   -4.6137   10.0355 O   0  0  0  0  0  0  0  0  0  0  0  0
   24.1706   -7.1049    8.8155 O   0  0  0  0  0  0  0  0  0  0  0  0
   22.5151   -7.3556   10.3360 O   0  0  0  0  0  0  0  0  0  0  0  0
   22.2695   -8.6911    8.5032 C   0  0  0  0  0  0  0  0  0  0  0  0
   23.5460   -5.9764    8.1832 C   0  0  0  0  0  0  0  0  0  0  0  0
   21.1470   -7.6679    8.5086 C   0  0  0  0  0  0  0  0  0  0  0  0
   22.3294   -5.4666    8.9778 C   0  0  0  0  0  0  0  0  0  0  0  0
   23.3172   -8.0807    9.4175 C   0  0  0  0  0  0  0  0  0  0  0  0
   21.5519   -6.6442    9.5717 C   0  0  0  0  0  0  0  0  0  0  0  0
   22.1616   -9.3715    6.6495 H   0  0  0  0  0  0  0  0  0  0  0  0
   23.2709   -3.8668    9.6615 H   0  0  0  0  0  0  0  0  0  0  0  0
   20.6473   -6.1253   11.6810 O   0  0  0  0  0  0  0  0  0  0  0  0
   19.2946   -5.9469    9.9680 O   0  0  0  0  0  0  0  0  0  0  0  0
   20.4106   -6.2182   10.4611 C   0  0  0  0  0  0  0  0  0  0  0  0
   19.1576   -6.0300    9.0448 H   0  0  0  0  0  0  0  0  0  0  0  0
   20.8020   -5.1673    7.1800 O   0  0  0  0  0  0  0  0  0  0  0  0
   21.3040   -3.4099    8.3868 O   0  0  0  0  0  0  0  0  0  0  0  0
   21.4204   -4.6244    8.1193 C   0  0  0  0  0  0  0  0  0  0  0  0
   20.9159   -6.0818    7.0107 H   0  0  0  0  0  0  0  0  0  0  0  0
   25.3567   -4.6487    8.9890 O   0  0  0  0  0  0  0  0  0  0  0  0
   24.6786   -4.3280    6.9271 O   0  0  0  0  0  0  0  0  0  0  0  0
   24.5945   -4.9089    8.0315 C   0  0  0  0  0  0  0  0  0  0  0  0
   25.2617   -5.1063    9.8012 H   0  0  0  0  0  0  0  0  0  0  0  0
   24.1048   -9.2498    9.9877 C   0  0  0  0  0  0  0  0  0  0  0  0
   25.5595   -8.8672   10.0857 C   0  0  0  0  0  0  0  0  0  0  0  0
   27.4882  -10.3587   10.0248 C   0  0  0  0  0  0  0  0  0  0  0  0
   26.3932   -9.9277    9.3973 C   0  0  0  0  0  0  0  0  0  0  0  0
   25.8977  -10.4832    8.0906 C   0  0  0  0  0  0  0  0  0  0  0  0
   26.2276  -12.5458    6.6583 C   0  0  0  0  0  0  0  0  0  0  0  0
   26.0665  -12.0026    8.0840 C   0  0  0  0  0  0  0  0  0  0  0  0
   24.9121  -12.6288    8.8713 C   0  0  0  0  0  0  0  0  0  0  0  0
   26.0933  -15.6729   11.7086 C   0  0  0  0  0  0  0  0  0  0  0  0
   24.7442  -15.4445   11.4355 C   0  0  0  0  0  0  0  0  0  0  0  0
   27.0628  -14.9181   11.0505 C   0  0  0  0  0  0  0  0  0  0  0  0
   24.3744  -14.4620   10.5204 C   0  0  0  0  0  0  0  0  0  0  0  0
   26.6894  -13.9227   10.1388 C   0  0  0  0  0  0  0  0  0  0  0  0
   25.3414  -13.7061    9.8561 C   0  0  0  0  0  0  0  0  0  0  0  0
   26.6844  -10.0227    6.9975 O   0  0  0  0  0  0  0  0  0  0  0  0
   26.8260   -7.5613    6.5250 C   0  0  0  0  0  0  0  0  0  0  0  0
   25.1145   -8.9929    5.6543 O   0  0  0  0  0  0  0  0  0  0  0  0
   26.1195   -8.8618    6.3370 C   0  0  0  0  0  0  0  0  0  0  0  0
   19.9520   -8.3584    8.8673 O   0  0  0  0  0  0  0  0  0  0  0  0
   18.8954   -7.8188    6.8652 O   0  0  0  0  0  0  0  0  0  0  0  0
   19.0928   -8.6635    7.7312 C   0  0  0  0  0  0  0  0  0  0  0  0
   18.4401   -9.9838    7.6867 C   0  0  0  0  0  0  0  0  0  0  0  0
   17.2028  -10.1219    7.2094 C   0  0  0  0  0  0  0  0  0  0  0  0
   15.7750  -11.6497    5.8541 C   0  0  0  0  0  0  0  0  0  0  0  0
   16.4831  -11.4552    7.1935 C   0  0  0  0  0  0  0  0  0  0  0  0
   17.4712  -12.5543    7.5772 C   0  0  0  0  0  0  0  0  0  0  0  0
   17.0786  -12.4594   10.0149 C   0  0  0  0  0  0  0  0  0  0  0  0
   17.0445  -13.3638    8.7919 C   0  0  0  0  0  0  0  0  0  0  0  0
   14.9868  -14.2590    9.8823 C   0  0  0  0  0  0  0  0  0  0  0  0
   15.6699  -13.9796    8.5626 C   0  0  0  0  0  0  0  0  0  0  0  0
 27 28  2  0  0  0
 53 54  1  0  0  0
 40 42  1  0  0  0
 48 49  1  0  0  0
 51 52  1  0  0  0
 30 31  1  0  0  0
 41 42  2  0  0  0
 44 45  2  0  0  0
 21 23  1  0  0  0
 17 19  1  0  0  0
 13 15  2  0  0  0
 22 23  2  0  0  0
 18 19  2  0  0  0
 14 15  1  0  0  0
  1  5  1  0  0  0
  2  8  1  0  0  0
 46 47  2  0  0  0
 46 45  1  0  0  0
 47 49  1  0  0  0
 33 34  2  0  0  0
 33 35  1  0  0  0
 34 36  1  0  0  0
 35 37  2  0  0  0
 36 38  2  0  0  0
 37 38  1  0  0  0
 54 52  1  0  0  0
 26 25  1  0  0  0
 26 28  1  0  0  0
 25  9  1  0  0  0
 32 38  1  0  0  0
 32 31  1  0  0  0
 50 49  1  0  0  0
 50 52  1  0  0  0
 39 42  1  0  0  0
 39 29  1  0  0  0
 43 45  1  0  0  0
 43  7  1  0  0  0
  3  6  1  0  0  0
  3  9  1  0  0  0
  4  9  1  0  0  0
  4 10  1  0  0  0
 28 29  1  0  0  0
 23  6  1  0  0  0
 19  8  1  0  0  0
 15 10  1  0  0  0
 31 29  1  0  0  0
  5  7  1  0  0  0
  5  9  1  0  0  0
  6  8  1  0  0  0
  7 10  1  0  0  0
  8 10  1  0  0  0
 21 24  1  0  0  0
 17 20  1  0  0  0
 14 16  1  0  0  0
  1 11  1  0  0  0
  2 12  1  0  0  0
M  END
> <minimizedAffinity>
-10.97053

$$$$
3VJE_ZGA_A_301


 54 56  0  0  0  0  0  0  0  0999 V2000
   22.1395   -6.2485    7.1274 O   0  0  0  0  0  0  0  0  0  0  0  0
   21.6162   -5.9747   12.2892 O   0  0  0  0  0  0  0  0  0  0  0  0
   23.1122   -5.4387    9.6230 O   0  0  0  0  0  0  0  0  0  0  0  0
   22.7816   -7.5590   10.3375 O   0  0  0  0  0  0  0  0  0  0  0  0
   22.2473   -7.2510    8.1415 C   0  0  0  0  0  0  0  0  0  0  0  0
   21.8314   -4.9833   10.0872 C   0  0  0  0  0  0  0  0  0  0  0  0
   20.9727   -7.5524    8.9106 C   0  0  0  0  0  0  0  0  0  0  0  0
   21.1178   -6.0408   10.9496 C   0  0  0  0  0  0  0  0  0  0  0  0
   23.2206   -6.8053    9.2186 C   0  0  0  0  0  0  0  0  0  0  0  0
   21.3666   -7.4422   10.3852 C   0  0  0  0  0  0  0  0  0  0  0  0
   21.5159   -6.5439    6.4457 H   0  0  0  0  0  0  0  0  0  0  0  0
   21.4597   -5.0876   12.6490 H   0  0  0  0  0  0  0  0  0  0  0  0
   21.5697   -9.0956   12.0468 O   0  0  0  0  0  0  0  0  0  0  0  0
   19.5847   -8.8451   11.1564 O   0  0  0  0  0  0  0  0  0  0  0  0
   20.7941   -8.5420   11.2440 C   0  0  0  0  0  0  0  0  0  0  0  0
   19.0347   -8.4043   10.5390 H   0  0  0  0  0  0  0  0  0  0  0  0
   18.9391   -5.8766   10.0110 O   0  0  0  0  0  0  0  0  0  0  0  0
   19.1533   -5.4715   12.1527 O   0  0  0  0  0  0  0  0  0  0  0  0
   19.6370   -5.7736   11.0414 C   0  0  0  0  0  0  0  0  0  0  0  0
   19.3392   -6.1053    9.1951 H   0  0  0  0  0  0  0  0  0  0  0  0
   21.3027   -2.7285   10.6589 O   0  0  0  0  0  0  0  0  0  0  0  0
   22.9952   -3.6826   11.6783 O   0  0  0  0  0  0  0  0  0  0  0  0
   22.0576   -3.7076   10.8508 C   0  0  0  0  0  0  0  0  0  0  0  0
   20.6109   -2.7865   10.0295 H   0  0  0  0  0  0  0  0  0  0  0  0
   24.6077   -7.1325    8.6883 C   0  0  0  0  0  0  0  0  0  0  0  0
   25.1825   -8.2807    9.4777 C   0  0  0  0  0  0  0  0  0  0  0  0
   27.4556   -7.4157    9.2959 C   0  0  0  0  0  0  0  0  0  0  0  0
   26.6397   -8.4529    9.1032 C   0  0  0  0  0  0  0  0  0  0  0  0
   27.0921   -9.8001    8.6114 C   0  0  0  0  0  0  0  0  0  0  0  0
   27.6297  -10.6841   10.9232 C   0  0  0  0  0  0  0  0  0  0  0  0
   26.7725  -10.8624    9.6634 C   0  0  0  0  0  0  0  0  0  0  0  0
   26.8834  -12.2451    9.0150 C   0  0  0  0  0  0  0  0  0  0  0  0
   24.9255  -15.3723   11.2733 C   0  0  0  0  0  0  0  0  0  0  0  0
   24.1770  -14.4715   10.5151 C   0  0  0  0  0  0  0  0  0  0  0  0
   26.3151  -15.2645   11.2900 C   0  0  0  0  0  0  0  0  0  0  0  0
   24.8169  -13.4681    9.7916 C   0  0  0  0  0  0  0  0  0  0  0  0
   26.9569  -14.2483   10.5711 C   0  0  0  0  0  0  0  0  0  0  0  0
   26.2082  -13.3584    9.8022 C   0  0  0  0  0  0  0  0  0  0  0  0
   28.5063   -9.8503    8.4583 O   0  0  0  0  0  0  0  0  0  0  0  0
   27.8625   -9.7995    6.0325 C   0  0  0  0  0  0  0  0  0  0  0  0
   30.1202   -9.9766    6.8126 O   0  0  0  0  0  0  0  0  0  0  0  0
   28.9293   -9.8885    7.0717 C   0  0  0  0  0  0  0  0  0  0  0  0
   20.5790   -8.8790    8.5661 O   0  0  0  0  0  0  0  0  0  0  0  0
   19.0210   -8.0318    7.0591 O   0  0  0  0  0  0  0  0  0  0  0  0
   19.3277   -8.9403    7.8227 C   0  0  0  0  0  0  0  0  0  0  0  0
   18.4353  -10.0896    8.0553 C   0  0  0  0  0  0  0  0  0  0  0  0
   17.4456  -10.3723    7.2077 C   0  0  0  0  0  0  0  0  0  0  0  0
   15.7552  -11.8600    6.1407 C   0  0  0  0  0  0  0  0  0  0  0  0
   16.4794  -11.5160    7.4408 C   0  0  0  0  0  0  0  0  0  0  0  0
   17.2314  -12.6718    8.0967 C   0  0  0  0  0  0  0  0  0  0  0  0
   15.4541  -12.2205    9.7529 C   0  0  0  0  0  0  0  0  0  0  0  0
   16.7068  -13.0384    9.4763 C   0  0  0  0  0  0  0  0  0  0  0  0
   17.0691  -15.1059   10.8250 C   0  0  0  0  0  0  0  0  0  0  0  0
   16.4534  -14.5381    9.5660 C   0  0  0  0  0  0  0  0  0  0  0  0
 27 28  2  0  0  0
 53 54  1  0  0  0
 40 42  1  0  0  0
 48 49  1  0  0  0
 51 52  1  0  0  0
 30 31  1  0  0  0
 41 42  2  0  0  0
 44 45  2  0  0  0
 21 23  1  0  0  0
 17 19  1  0  0  0
 13 15  2  0  0  0
 22 23  2  0  0  0
 18 19  2  0  0  0
 14 15  1  0  0  0
  1  5  1  0  0  0
  2  8  1  0  0  0
 46 47  2  0  0  0
 46 45  1  0  0  0
 47 49  1  0  0  0
 33 34  2  0  0  0
 33 35  1  0  0  0
 34 36  1  0  0  0
 35 37  2  0  0  0
 36 38  2  0  0  0
 37 38  1  0  0  0
 54 52  1  0  0  0
 26 25  1  0  0  0
 26 28  1  0  0  0
 25  9  1  0  0  0
 32 38  1  0  0  0
 32 31  1  0  0  0
 50 49  1  0  0  0
 50 52  1  0  0  0
 39 42  1  0  0  0
 39 29  1  0  0  0
 43 45  1  0  0  0
 43  7  1  0  0  0
  3  6  1  0  0  0
  3  9  1  0  0  0
  4  9  1  0  0  0
  4 10  1  0  0  0
 28 29  1  0  0  0
 23  6  1  0  0  0
 19  8  1  0  0  0
 15 10  1  0  0  0
 31 29  1  0  0  0
  5  7  1  0  0  0
  5  9  1  0  0  0
  6  8  1  0  0  0
  7 10  1  0  0  0
  8 10  1  0  0  0
 21 24  1  0  0  0
 17 20  1  0  0  0
 14 16  1  0  0  0
  1 11  1  0  0  0
  2 12  1  0  0  0
M  END
> <minimizedAffinity>
-10.72856

$$$$
3VJE_ZGA_A_301


 54 56  0  0  0  0  0  0  0  0999 V2000
   22.2820   -9.2847    6.9461 O   0  0  0  0  0  0  0  0  0  0  0  0
   23.5737   -4.9172    9.4460 O   0  0  0  0  0  0  0  0  0  0  0  0
   24.2336   -7.4880    7.8368 O   0  0  0  0  0  0  0  0  0  0  0  0
   23.3028   -7.6383    9.8927 O   0  0  0  0  0  0  0  0  0  0  0  0
   22.2808   -8.9586    8.3386 C   0  0  0  0  0  0  0  0  0  0  0  0
   23.4722   -6.3250    7.4748 C   0  0  0  0  0  0  0  0  0  0  0  0
   21.3092   -7.8704    8.7613 C   0  0  0  0  0  0  0  0  0  0  0  0
   22.6982   -5.7429    8.6721 C   0  0  0  0  0  0  0  0  0  0  0  0
   23.6360   -8.4108    8.7503 C   0  0  0  0  0  0  0  0  0  0  0  0
   22.1561   -6.8716    9.5532 C   0  0  0  0  0  0  0  0  0  0  0  0
   21.4123   -9.6332    6.6949 H   0  0  0  0  0  0  0  0  0  0  0  0
   23.9186   -4.2013    8.8898 H   0  0  0  0  0  0  0  0  0  0  0  0
   22.1110   -6.5135   11.8783 O   0  0  0  0  0  0  0  0  0  0  0  0
   20.3610   -5.8323   10.7515 O   0  0  0  0  0  0  0  0  0  0  0  0
   21.4841   -6.3776   10.8100 C   0  0  0  0  0  0  0  0  0  0  0  0
   19.9226   -5.7498    9.9276 H   0  0  0  0  0  0  0  0  0  0  0  0
   20.9363   -5.1503    7.1892 O   0  0  0  0  0  0  0  0  0  0  0  0
   21.2990   -3.8409    8.9070 O   0  0  0  0  0  0  0  0  0  0  0  0
   21.5711   -4.8490    8.2216 C   0  0  0  0  0  0  0  0  0  0  0  0
   21.1708   -5.9153    6.7015 H   0  0  0  0  0  0  0  0  0  0  0  0
   23.9971   -4.3858    6.1885 O   0  0  0  0  0  0  0  0  0  0  0  0
   25.6455   -5.4534    7.1670 O   0  0  0  0  0  0  0  0  0  0  0  0
   24.4316   -5.3220    6.8958 C   0  0  0  0  0  0  0  0  0  0  0  0
   23.0799   -4.3218    6.0079 H   0  0  0  0  0  0  0  0  0  0  0  0
   24.5202   -9.6241    8.9919 C   0  0  0  0  0  0  0  0  0  0  0  0
   25.7079   -9.2143    9.8246 C   0  0  0  0  0  0  0  0  0  0  0  0
   27.5932  -10.3272   10.8995 C   0  0  0  0  0  0  0  0  0  0  0  0
   26.6350  -10.4023    9.9750 C   0  0  0  0  0  0  0  0  0  0  0  0
   26.3729  -11.6190    9.1308 C   0  0  0  0  0  0  0  0  0  0  0  0
   27.1319  -13.9479    9.7749 C   0  0  0  0  0  0  0  0  0  0  0  0
   26.1200  -12.8248   10.0360 C   0  0  0  0  0  0  0  0  0  0  0  0
   24.6556  -13.2485    9.8922 C   0  0  0  0  0  0  0  0  0  0  0  0
   23.8321  -15.6933    6.4198 C   0  0  0  0  0  0  0  0  0  0  0  0
   24.2699  -14.3769    6.2715 C   0  0  0  0  0  0  0  0  0  0  0  0
   23.6712  -16.2216    7.6996 C   0  0  0  0  0  0  0  0  0  0  0  0
   24.5323  -13.5980    7.3959 C   0  0  0  0  0  0  0  0  0  0  0  0
   23.9246  -15.4340    8.8296 C   0  0  0  0  0  0  0  0  0  0  0  0
   24.3764  -14.1236    8.6793 C   0  0  0  0  0  0  0  0  0  0  0  0
   27.5156  -11.9734    8.3597 O   0  0  0  0  0  0  0  0  0  0  0  0
   29.0105  -10.4644    7.0218 C   0  0  0  0  0  0  0  0  0  0  0  0
   26.7756  -11.0410    6.3818 O   0  0  0  0  0  0  0  0  0  0  0  0
   27.6913  -11.1420    7.1846 C   0  0  0  0  0  0  0  0  0  0  0  0
   20.3176   -8.4883    9.5790 O   0  0  0  0  0  0  0  0  0  0  0  0
   18.2970   -7.4984    8.9848 O   0  0  0  0  0  0  0  0  0  0  0  0
   18.9929   -8.5073    8.9734 C   0  0  0  0  0  0  0  0  0  0  0  0
   18.5074   -9.7752    8.4007 C   0  0  0  0  0  0  0  0  0  0  0  0
   17.6307   -9.7832    7.3961 C   0  0  0  0  0  0  0  0  0  0  0  0
   17.5199  -11.2194    5.3628 C   0  0  0  0  0  0  0  0  0  0  0  0
   17.0733  -11.0670    6.8155 C   0  0  0  0  0  0  0  0  0  0  0  0
   17.4408  -12.2267    7.7383 C   0  0  0  0  0  0  0  0  0  0  0  0
   15.0531  -12.8197    7.5088 C   0  0  0  0  0  0  0  0  0  0  0  0
   16.2472  -12.8431    8.4512 C   0  0  0  0  0  0  0  0  0  0  0  0
   16.7243  -14.2807   10.4338 C   0  0  0  0  0  0  0  0  0  0  0  0
   16.5834  -14.2505    8.9285 C   0  0  0  0  0  0  0  0  0  0  0  0
 27 28  2  0  0  0
 53 54  1  0  0  0
 40 42  1  0  0  0
 48 49  1  0  0  0
 51 52  1  0  0  0
 30 31  1  0  0  0
 41 42  2  0  0  0
 44 45  2  0  0  0
 21 23  1  0  0  0
 17 19  1  0  0  0
 13 15  2  0  0  0
 22 23  2  0  0  0
 18 19  2  0  0  0
 14 15  1  0  0  0
  1  5  1  0  0  0
  2  8  1  0  0  0
 46 47  2  0  0  0
 46 45  1  0  0  0
 47 49  1  0  0  0
 33 34  2  0  0  0
 33 35  1  0  0  0
 34 36  1  0  0  0
 35 37  2  0  0  0
 36 38  2  0  0  0
 37 38  1  0  0  0
 54 52  1  0  0  0
 26 25  1  0  0  0
 26 28  1  0  0  0
 25  9  1  0  0  0
 32 38  1  0  0  0
 32 31  1  0  0  0
 50 49  1  0  0  0
 50 52  1  0  0  0
 39 42  1  0  0  0
 39 29  1  0  0  0
 43 45  1  0  0  0
 43  7  1  0  0  0
  3  6  1  0  0  0
  3  9  1  0  0  0
  4  9  1  0  0  0
  4 10  1  0  0  0
 28 29  1  0  0  0
 23  6  1  0  0  0
 19  8  1  0  0  0
 15 10  1  0  0  0
 31 29  1  0  0  0
  5  7  1  0  0  0
  5  9  1  0  0  0
  6  8  1  0  0  0
  7 10  1  0  0  0
  8 10  1  0  0  0
 21 24  1  0  0  0
 17 20  1  0  0  0
 14 16  1  0  0  0
  1 11  1  0  0  0
  2 12  1  0  0  0
M  END
> <minimizedAffinity>
-10.38421

$$$$
3VJE_ZGA_A_301


 54 56  0  0  0  0  0  0  0  0999 V2000
   23.5051   -8.5716    6.4634 O   0  0  0  0  0  0  0  0  0  0  0  0
   23.5648   -4.3907    9.5471 O   0  0  0  0  0  0  0  0  0  0  0  0
   24.9251   -6.5601    7.7928 O   0  0  0  0  0  0  0  0  0  0  0  0
   23.8155   -7.1471    9.6742 O   0  0  0  0  0  0  0  0  0  0  0  0
   23.2759   -8.4315    7.8681 C   0  0  0  0  0  0  0  0  0  0  0  0
   23.9855   -5.5295    7.4485 C   0  0  0  0  0  0  0  0  0  0  0  0
   22.0574   -7.6140    8.2603 C   0  0  0  0  0  0  0  0  0  0  0  0
   22.9750   -5.2647    8.5799 C   0  0  0  0  0  0  0  0  0  0  0  0
   24.4311   -7.6892    8.5167 C   0  0  0  0  0  0  0  0  0  0  0  0
   22.5814   -6.5794    9.2587 C   0  0  0  0  0  0  0  0  0  0  0  0
   22.7616   -9.0466    6.0603 H   0  0  0  0  0  0  0  0  0  0  0  0
   23.8151   -3.5568    9.1193 H   0  0  0  0  0  0  0  0  0  0  0  0
   22.0593   -6.8845   11.5326 O   0  0  0  0  0  0  0  0  0  0  0  0
   20.6235   -5.7310   10.3475 O   0  0  0  0  0  0  0  0  0  0  0  0
   21.6814   -6.3882   10.4539 C   0  0  0  0  0  0  0  0  0  0  0  0
   20.3750   -5.3743    9.5175 H   0  0  0  0  0  0  0  0  0  0  0  0
   21.0613   -5.0977    7.1783 O   0  0  0  0  0  0  0  0  0  0  0  0
   21.4448   -3.4511    8.5706 O   0  0  0  0  0  0  0  0  0  0  0  0
   21.7463   -4.5552    8.0705 C   0  0  0  0  0  0  0  0  0  0  0  0
   21.3205   -5.9272    6.8279 H   0  0  0  0  0  0  0  0  0  0  0  0
   25.9598   -4.1915    7.5036 O   0  0  0  0  0  0  0  0  0  0  0  0
   24.2149   -3.4137    6.4244 O   0  0  0  0  0  0  0  0  0  0  0  0
   24.7758   -4.2948    7.1124 C   0  0  0  0  0  0  0  0  0  0  0  0
   26.3445   -4.8739    8.0177 H   0  0  0  0  0  0  0  0  0  0  0  0
   25.5142   -8.7297    8.7543 C   0  0  0  0  0  0  0  0  0  0  0  0
   24.8847   -9.9849    9.3021 C   0  0  0  0  0  0  0  0  0  0  0  0
   26.9924  -10.5871   10.3713 C   0  0  0  0  0  0  0  0  0  0  0  0
   25.9767  -10.9892    9.6062 C   0  0  0  0  0  0  0  0  0  0  0  0
   25.8127  -12.3936    9.0941 C   0  0  0  0  0  0  0  0  0  0  0  0
   24.3016  -13.4568    7.3618 C   0  0  0  0  0  0  0  0  0  0  0  0
   25.3325  -12.3561    7.6432 C   0  0  0  0  0  0  0  0  0  0  0  0
   26.5541  -12.3846    6.7204 C   0  0  0  0  0  0  0  0  0  0  0  0
   27.8570   -8.4692    5.4225 C   0  0  0  0  0  0  0  0  0  0  0  0
   28.6310   -9.2141    6.3129 C   0  0  0  0  0  0  0  0  0  0  0  0
   26.6612   -9.0014    4.9433 C   0  0  0  0  0  0  0  0  0  0  0  0
   28.2026  -10.4737    6.7247 C   0  0  0  0  0  0  0  0  0  0  0  0
   26.2259  -10.2634    5.3667 C   0  0  0  0  0  0  0  0  0  0  0  0
   27.0079  -11.0125    6.2448 C   0  0  0  0  0  0  0  0  0  0  0  0
   24.7909  -13.0890    9.8000 O   0  0  0  0  0  0  0  0  0  0  0  0
   26.7446  -14.4007   10.6743 C   0  0  0  0  0  0  0  0  0  0  0  0
   24.4664  -15.1184   10.8512 O   0  0  0  0  0  0  0  0  0  0  0  0
   25.2714  -14.2810   10.4719 C   0  0  0  0  0  0  0  0  0  0  0  0
   21.1284   -8.5105    8.8661 O   0  0  0  0  0  0  0  0  0  0  0  0
   19.2284   -7.3148    8.2526 O   0  0  0  0  0  0  0  0  0  0  0  0
   19.7807   -8.4068    8.3230 C   0  0  0  0  0  0  0  0  0  0  0  0
   19.0973   -9.6468    7.9149 C   0  0  0  0  0  0  0  0  0  0  0  0
   17.9469  -10.0142    8.4802 C   0  0  0  0  0  0  0  0  0  0  0  0
   17.7778  -11.8404    6.7933 C   0  0  0  0  0  0  0  0  0  0  0  0
   17.2419  -11.3062    8.1202 C   0  0  0  0  0  0  0  0  0  0  0  0
   17.3413  -12.2688    9.3014 C   0  0  0  0  0  0  0  0  0  0  0  0
   16.9482  -14.6449    8.7489 C   0  0  0  0  0  0  0  0  0  0  0  0
   16.2982  -13.3752    9.2783 C   0  0  0  0  0  0  0  0  0  0  0  0
   14.7435  -12.4363   10.9889 C   0  0  0  0  0  0  0  0  0  0  0  0
   15.6959  -13.5652   10.6649 C   0  0  0  0  0  0  0  0  0  0  0  0
 27 28  2  0  0  0
 53 54  1  0  0  0
 40 42  1  0  0  0
 48 49  1  0  0  0
 51 52  1  0  0  0
 30 31  1  0  0  0
 41 42  2  0  0  0
 44 45  2  0  0  0
 21 23  1  0  0  0
 17 19  1  0  0  0
 13 15  2  0  0  0
 22 23  2  0  0  0
 18 19  2  0  0  0
 14 15  1  0  0  0
  1  5  1  0  0  0
  2  8  1  0  0  0
 46 47  2  0  0  0
 46 45  1  0  0  0
 47 49  1  0  0  0
 33 34  2  0  0  0
 33 35  1  0  0  0
 34 36  1  0  0  0
 35 37  2  0  0  0
 36 38  2  0  0  0
 37 38  1  0  0  0
 54 52  1  0  0  0
 26 25  1  0  0  0
 26 28  1  0  0  0
 25  9  1  0  0  0
 32 38  1  0  0  0
 32 31  1  0  0  0
 50 49  1  0  0  0
 50 52  1  0  0  0
 39 42  1  0  0  0
 39 29  1  0  0  0
 43 45  1  0  0  0
 43  7  1  0  0  0
  3  6  1  0  0  0
  3  9  1  0  0  0
  4  9  1  0  0  0
  4 10  1  0  0  0
 28 29  1  0  0  0
 23  6  1  0  0  0
 19  8  1  0  0  0
 15 10  1  0  0  0
 31 29  1  0  0  0
  5  7  1  0  0  0
  5  9  1  0  0  0
  6  8  1  0  0  0
  7 10  1  0  0  0
  8 10  1  0  0  0
 21 24  1  0  0  0
 17 20  1  0  0  0
 14 16  1  0  0  0
  1 11  1  0  0  0
  2 12  1  0  0  0
M  END
> <minimizedAffinity>
-9.54056

$$$$
3VJE_ZGA_A_301


 54 56  0  0  0  0  0  0  0  0999 V2000
   22.0043   -5.0826    6.9457 O   0  0  0  0  0  0  0  0  0  0  0  0
   22.1668   -5.8046   12.0882 O   0  0  0  0  0  0  0  0  0  0  0  0
   23.2187   -4.6125    9.4224 O   0  0  0  0  0  0  0  0  0  0  0  0
   23.2144   -6.8509    9.7462 O   0  0  0  0  0  0  0  0  0  0  0  0
   22.3550   -6.2276    7.7274 C   0  0  0  0  0  0  0  0  0  0  0  0
   21.9727   -4.4167   10.1098 C   0  0  0  0  0  0  0  0  0  0  0  0
   21.2367   -6.8236    8.5646 C   0  0  0  0  0  0  0  0  0  0  0  0
   21.4995   -5.6944   10.8273 C   0  0  0  0  0  0  0  0  0  0  0  0
   23.4142   -5.8593    8.7514 C   0  0  0  0  0  0  0  0  0  0  0  0
   21.8150   -6.9284    9.9776 C   0  0  0  0  0  0  0  0  0  0  0  0
   21.3279   -5.3296    6.2958 H   0  0  0  0  0  0  0  0  0  0  0  0
   21.9683   -5.0238   12.6284 H   0  0  0  0  0  0  0  0  0  0  0  0
   22.4435   -8.9296   11.0436 O   0  0  0  0  0  0  0  0  0  0  0  0
   20.2937   -8.5510   10.8672 O   0  0  0  0  0  0  0  0  0  0  0  0
   21.4846   -8.2285   10.6672 C   0  0  0  0  0  0  0  0  0  0  0  0
   19.6013   -7.9953   10.5678 H   0  0  0  0  0  0  0  0  0  0  0  0
   19.2078   -5.6466   10.1944 O   0  0  0  0  0  0  0  0  0  0  0  0
   19.6692   -5.6094   12.3352 O   0  0  0  0  0  0  0  0  0  0  0  0
   20.0253   -5.6415   11.1384 C   0  0  0  0  0  0  0  0  0  0  0  0
   19.5142   -5.6711    9.3093 H   0  0  0  0  0  0  0  0  0  0  0  0
   21.2798   -2.4024   11.1838 O   0  0  0  0  0  0  0  0  0  0  0  0
   23.2131   -3.2668   11.7582 O   0  0  0  0  0  0  0  0  0  0  0  0
   22.1656   -3.2795   11.0748 C   0  0  0  0  0  0  0  0  0  0  0  0
   20.5087   -2.4470   10.6534 H   0  0  0  0  0  0  0  0  0  0  0  0
   24.7423   -5.9045    8.0122 C   0  0  0  0  0  0  0  0  0  0  0  0
   25.0587   -7.3324    7.6476 C   0  0  0  0  0  0  0  0  0  0  0  0
   26.9191   -6.8659    9.1542 C   0  0  0  0  0  0  0  0  0  0  0  0
   26.2687   -7.7842    8.4384 C   0  0  0  0  0  0  0  0  0  0  0  0
   26.6163   -9.2473    8.4305 C   0  0  0  0  0  0  0  0  0  0  0  0
   27.4089  -10.5112   10.4772 C   0  0  0  0  0  0  0  0  0  0  0  0
   26.2086   -9.8770    9.7626 C   0  0  0  0  0  0  0  0  0  0  0  0
   25.0417  -10.8372    9.5155 C   0  0  0  0  0  0  0  0  0  0  0  0
   24.8790  -12.3571    5.4689 C   0  0  0  0  0  0  0  0  0  0  0  0
   25.7019  -12.9614    6.4199 C   0  0  0  0  0  0  0  0  0  0  0  0
   24.0981  -11.2623    5.8353 C   0  0  0  0  0  0  0  0  0  0  0  0
   25.7471  -12.4644    7.7201 C   0  0  0  0  0  0  0  0  0  0  0  0
   24.1528  -10.7563    7.1400 C   0  0  0  0  0  0  0  0  0  0  0  0
   24.9643  -11.3708    8.0928 C   0  0  0  0  0  0  0  0  0  0  0  0
   28.0230   -9.4476    8.3462 O   0  0  0  0  0  0  0  0  0  0  0  0
   28.2148   -9.2079    5.8547 C   0  0  0  0  0  0  0  0  0  0  0  0
   28.9690  -11.1261    7.0748 O   0  0  0  0  0  0  0  0  0  0  0  0
   28.4428  -10.0233    7.0831 C   0  0  0  0  0  0  0  0  0  0  0  0
   20.9416   -8.1070    8.0174 O   0  0  0  0  0  0  0  0  0  0  0  0
   18.7001   -7.5640    8.3286 O   0  0  0  0  0  0  0  0  0  0  0  0
   19.5151   -8.3902    7.9342 C   0  0  0  0  0  0  0  0  0  0  0  0
   19.0953   -9.7036    7.4145 C   0  0  0  0  0  0  0  0  0  0  0  0
   17.8963  -10.2069    7.7095 C   0  0  0  0  0  0  0  0  0  0  0  0
   18.3003  -12.0142    6.0422 C   0  0  0  0  0  0  0  0  0  0  0  0
   17.4507  -11.5745    7.2329 C   0  0  0  0  0  0  0  0  0  0  0  0
   17.4432  -12.5333    8.4213 C   0  0  0  0  0  0  0  0  0  0  0  0
   15.1865  -13.5108    8.1810 C   0  0  0  0  0  0  0  0  0  0  0  0
   16.0817  -12.6754    9.0841 C   0  0  0  0  0  0  0  0  0  0  0  0
   16.6221  -14.7363   10.3822 C   0  0  0  0  0  0  0  0  0  0  0  0
   16.2296  -13.2790   10.4752 C   0  0  0  0  0  0  0  0  0  0  0  0
 27 28  2  0  0  0
 53 54  1  0  0  0
 40 42  1  0  0  0
 48 49  1  0  0  0
 51 52  1  0  0  0
 30 31  1  0  0  0
 41 42  2  0  0  0
 44 45  2  0  0  0
 21 23  1  0  0  0
 17 19  1  0  0  0
 13 15  2  0  0  0
 22 23  2  0  0  0
 18 19  2  0  0  0
 14 15  1  0  0  0
  1  5  1  0  0  0
  2  8  1  0  0  0
 46 47  2  0  0  0
 46 45  1  0  0  0
 47 49  1  0  0  0
 33 34  2  0  0  0
 33 35  1  0  0  0
 34 36  1  0  0  0
 35 37  2  0  0  0
 36 38  2  0  0  0
 37 38  1  0  0  0
 54 52  1  0  0  0
 26 25  1  0  0  0
 26 28  1  0  0  0
 25  9  1  0  0  0
 32 38  1  0  0  0
 32 31  1  0  0  0
 50 49  1  0  0  0
 50 52  1  0  0  0
 39 42  1  0  0  0
 39 29  1  0  0  0
 43 45  1  0  0  0
 43  7  1  0  0  0
  3  6  1  0  0  0
  3  9  1  0  0  0
  4  9  1  0  0  0
  4 10  1  0  0  0
 28 29  1  0  0  0
 23  6  1  0  0  0
 19  8  1  0  0  0
 15 10  1  0  0  0
 31 29  1  0  0  0
  5  7  1  0  0  0
  5  9  1  0  0  0
  6  8  1  0  0  0
  7 10  1  0  0  0
  8 10  1  0  0  0
 21 24  1  0  0  0
 17 20  1  0  0  0
 14 16  1  0  0  0
  1 11  1  0  0  0
  2 12  1  0  0  0
M  END
> <minimizedAffinity>
-9.53703

$$$$
3VJE_ZGA_A_301


 54 56  0  0  0  0  0  0  0  0999 V2000
   23.6907   -6.9197    6.8242 O   0  0  0  0  0  0  0  0  0  0  0  0
   26.9710   -2.8966    7.0423 O   0  0  0  0  0  0  0  0  0  0  0  0
   26.2024   -5.8082    6.2898 O   0  0  0  0  0  0  0  0  0  0  0  0
   26.2825   -5.1756    8.4598 O   0  0  0  0  0  0  0  0  0  0  0  0
   24.3901   -6.3307    7.9238 C   0  0  0  0  0  0  0  0  0  0  0  0
   25.6643   -4.5522    5.8466 C   0  0  0  0  0  0  0  0  0  0  0  0
   24.0033   -4.9017    8.2635 C   0  0  0  0  0  0  0  0  0  0  0  0
   25.6722   -3.4918    6.9632 C   0  0  0  0  0  0  0  0  0  0  0  0
   25.8735   -6.2377    7.6128 C   0  0  0  0  0  0  0  0  0  0  0  0
   25.3271   -4.1352    8.3090 C   0  0  0  0  0  0  0  0  0  0  0  0
   22.7452   -6.9738    7.0341 H   0  0  0  0  0  0  0  0  0  0  0  0
   27.1919   -2.4883    6.1906 H   0  0  0  0  0  0  0  0  0  0  0  0
   26.5262   -3.1138   10.0568 O   0  0  0  0  0  0  0  0  0  0  0  0
   24.4487   -2.4731    9.7936 O   0  0  0  0  0  0  0  0  0  0  0  0
   25.4283   -3.1792    9.4712 C   0  0  0  0  0  0  0  0  0  0  0  0
   23.6399   -2.5530    9.3273 H   0  0  0  0  0  0  0  0  0  0  0  0
   23.6914   -2.6058    5.9905 O   0  0  0  0  0  0  0  0  0  0  0  0
   24.9701   -1.2304    7.1176 O   0  0  0  0  0  0  0  0  0  0  0  0
   24.7147   -2.3663    6.6652 C   0  0  0  0  0  0  0  0  0  0  0  0
   23.5347   -3.4716    5.6683 H   0  0  0  0  0  0  0  0  0  0  0  0
   27.5617   -4.6745    4.4059 O   0  0  0  0  0  0  0  0  0  0  0  0
   26.0084   -3.1950    3.9446 O   0  0  0  0  0  0  0  0  0  0  0  0
   26.4737   -4.1106    4.6585 C   0  0  0  0  0  0  0  0  0  0  0  0
   27.8767   -5.3569    4.9654 H   0  0  0  0  0  0  0  0  0  0  0  0
   26.4516   -7.6091    7.9249 C   0  0  0  0  0  0  0  0  0  0  0  0
   26.7003   -8.3480    6.6349 C   0  0  0  0  0  0  0  0  0  0  0  0
   27.9342  -10.4162    7.0199 C   0  0  0  0  0  0  0  0  0  0  0  0
   26.7381   -9.8348    6.9204 C   0  0  0  0  0  0  0  0  0  0  0  0
   25.4338  -10.5473    7.1498 C   0  0  0  0  0  0  0  0  0  0  0  0
   25.3955  -13.0275    6.6380 C   0  0  0  0  0  0  0  0  0  0  0  0
   25.7062  -11.9523    7.6873 C   0  0  0  0  0  0  0  0  0  0  0  0
   24.9557  -12.1263    9.0106 C   0  0  0  0  0  0  0  0  0  0  0  0
   26.2847  -15.5444   11.3046 C   0  0  0  0  0  0  0  0  0  0  0  0
   27.2008  -14.5913   10.8585 C   0  0  0  0  0  0  0  0  0  0  0  0
   24.9311  -15.3820   11.0143 C   0  0  0  0  0  0  0  0  0  0  0  0
   26.7627  -13.4944   10.1205 C   0  0  0  0  0  0  0  0  0  0  0  0
   24.4931  -14.2846   10.2626 C   0  0  0  0  0  0  0  0  0  0  0  0
   25.4080  -13.3254    9.8306 C   0  0  0  0  0  0  0  0  0  0  0  0
   24.7310  -10.7522    5.9291 O   0  0  0  0  0  0  0  0  0  0  0  0
   22.3870  -11.2744    5.1979 C   0  0  0  0  0  0  0  0  0  0  0  0
   22.9434   -9.5679    6.7839 O   0  0  0  0  0  0  0  0  0  0  0  0
   23.3154  -10.4535    6.0286 C   0  0  0  0  0  0  0  0  0  0  0  0
   23.3655   -4.9318    9.5386 O   0  0  0  0  0  0  0  0  0  0  0  0
   21.2336   -4.0996    9.1167 O   0  0  0  0  0  0  0  0  0  0  0  0
   21.9163   -5.0573    9.4617 C   0  0  0  0  0  0  0  0  0  0  0  0
   21.3067   -6.3399    9.8550 C   0  0  0  0  0  0  0  0  0  0  0  0
   20.7064   -7.1190    8.9548 C   0  0  0  0  0  0  0  0  0  0  0  0
   19.8288   -8.4854   10.8448 C   0  0  0  0  0  0  0  0  0  0  0  0
   20.0271   -8.4199    9.3317 C   0  0  0  0  0  0  0  0  0  0  0  0
   18.7571   -8.5735    8.4979 C   0  0  0  0  0  0  0  0  0  0  0  0
   16.9858  -10.2505    8.1035 C   0  0  0  0  0  0  0  0  0  0  0  0
   18.4860  -10.0025    8.0537 C   0  0  0  0  0  0  0  0  0  0  0  0
   18.4237  -11.4533    6.0249 C   0  0  0  0  0  0  0  0  0  0  0  0
   19.0698  -10.2467    6.6677 C   0  0  0  0  0  0  0  0  0  0  0  0
 27 28  2  0  0  0
 53 54  1  0  0  0
 40 42  1  0  0  0
 48 49  1  0  0  0
 51 52  1  0  0  0
 30 31  1  0  0  0
 41 42  2  0  0  0
 44 45  2  0  0  0
 21 23  1  0  0  0
 17 19  1  0  0  0
 13 15  2  0  0  0
 22 23  2  0  0  0
 18 19  2  0  0  0
 14 15  1  0  0  0
  1  5  1  0  0  0
  2  8  1  0  0  0
 46 47  2  0  0  0
 46 45  1  0  0  0
 47 49  1  0  0  0
 33 34  2  0  0  0
 33 35  1  0  0  0
 34 36  1  0  0  0
 35 37  2  0  0  0
 36 38  2  0  0  0
 37 38  1  0  0  0
 54 52  1  0  0  0
 26 25  1  0  0  0
 26 28  1  0  0  0
 25  9  1  0  0  0
 32 38  1  0  0  0
 32 31  1  0  0  0
 50 49  1  0  0  0
 50 52  1  0  0  0
 39 42  1  0  0  0
 39 29  1  0  0  0
 43 45  1  0  0  0
 43  7  1  0  0  0
  3  6  1  0  0  0
  3  9  1  0  0  0
  4  9  1  0  0  0
  4 10  1  0  0  0
 28 29  1  0  0  0
 23  6  1  0  0  0
 19  8  1  0  0  0
 15 10  1  0  0  0
 31 29  1  0  0  0
  5  7  1  0  0  0
  5  9  1  0  0  0
  6  8  1  0  0  0
  7 10  1  0  0  0
  8 10  1  0  0  0
 21 24  1  0  0  0
 17 20  1  0  0  0
 14 16  1  0  0  0
  1 11  1  0  0  0
  2 12  1  0  0  0
M  END
> <minimizedAffinity>
-9.53228

$$$$
3VJE_ZGA_A_301


 54 56  0  0  0  0  0  0  0  0999 V2000
   25.9737   -4.7269    7.0514 O   0  0  0  0  0  0  0  0  0  0  0  0
   23.5596   -0.9552    4.4172 O   0  0  0  0  0  0  0  0  0  0  0  0
   24.4826   -2.3592    7.0269 O   0  0  0  0  0  0  0  0  0  0  0  0
   23.0367   -3.3921    5.6276 O   0  0  0  0  0  0  0  0  0  0  0  0
   24.7572   -4.7305    6.2996 C   0  0  0  0  0  0  0  0  0  0  0  0
   25.2429   -1.7726    5.9586 C   0  0  0  0  0  0  0  0  0  0  0  0
   24.9006   -4.4718    4.8098 C   0  0  0  0  0  0  0  0  0  0  0  0
   24.5618   -1.9616    4.5906 C   0  0  0  0  0  0  0  0  0  0  0  0
   23.8446   -3.6128    6.7728 C   0  0  0  0  0  0  0  0  0  0  0  0
   23.9102   -3.3447    4.5083 C   0  0  0  0  0  0  0  0  0  0  0  0
   26.5479   -5.4443    6.7407 H   0  0  0  0  0  0  0  0  0  0  0  0
   23.9701   -0.0779    4.4689 H   0  0  0  0  0  0  0  0  0  0  0  0
   21.9124   -3.2677    3.2678 O   0  0  0  0  0  0  0  0  0  0  0  0
   23.6912   -3.9840    2.2101 O   0  0  0  0  0  0  0  0  0  0  0  0
   23.1234   -3.5596    3.2396 C   0  0  0  0  0  0  0  0  0  0  0  0
   24.6045   -4.1922    2.2309 H   0  0  0  0  0  0  0  0  0  0  0  0
   25.1091   -1.4018    2.3452 O   0  0  0  0  0  0  0  0  0  0  0  0
   26.7484   -1.9976    3.6697 O   0  0  0  0  0  0  0  0  0  0  0  0
   25.5374   -1.7791    3.4559 C   0  0  0  0  0  0  0  0  0  0  0  0
   24.1927   -1.2482    2.2240 H   0  0  0  0  0  0  0  0  0  0  0  0
   26.4932    0.2590    5.9641 O   0  0  0  0  0  0  0  0  0  0  0  0
   24.4907    0.2763    6.8609 O   0  0  0  0  0  0  0  0  0  0  0  0
   25.4304   -0.3170    6.2869 C   0  0  0  0  0  0  0  0  0  0  0  0
   27.1744   -0.2206    5.5352 H   0  0  0  0  0  0  0  0  0  0  0  0
   23.1338   -4.1486    8.0056 C   0  0  0  0  0  0  0  0  0  0  0  0
   22.3547   -5.3836    7.6315 C   0  0  0  0  0  0  0  0  0  0  0  0
   21.8000   -5.4146   10.0063 C   0  0  0  0  0  0  0  0  0  0  0  0
   21.9812   -6.1297    8.8953 C   0  0  0  0  0  0  0  0  0  0  0  0
   21.7629   -7.6149    8.8049 C   0  0  0  0  0  0  0  0  0  0  0  0
   22.9939   -9.2404    7.3025 C   0  0  0  0  0  0  0  0  0  0  0  0
   23.0937   -8.3110    8.5190 C   0  0  0  0  0  0  0  0  0  0  0  0
   23.5743   -8.9979    9.8004 C   0  0  0  0  0  0  0  0  0  0  0  0
   27.7292  -10.2008    9.7644 C   0  0  0  0  0  0  0  0  0  0  0  0
   26.7246  -11.1144    9.4439 C   0  0  0  0  0  0  0  0  0  0  0  0
   27.3849   -8.8893   10.0873 C   0  0  0  0  0  0  0  0  0  0  0  0
   25.3898  -10.7171    9.4585 C   0  0  0  0  0  0  0  0  0  0  0  0
   26.0417   -8.4938   10.1125 C   0  0  0  0  0  0  0  0  0  0  0  0
   25.0403   -9.4041    9.7774 C   0  0  0  0  0  0  0  0  0  0  0  0
   20.9290   -7.9522    7.7019 O   0  0  0  0  0  0  0  0  0  0  0  0
   19.3441   -8.7594    9.4735 C   0  0  0  0  0  0  0  0  0  0  0  0
   18.6607   -8.0604    7.2869 O   0  0  0  0  0  0  0  0  0  0  0  0
   19.5632   -8.2489    8.0888 C   0  0  0  0  0  0  0  0  0  0  0  0
   24.5477   -5.6795    4.1386 O   0  0  0  0  0  0  0  0  0  0  0  0
   26.0655   -6.0471    2.4132 O   0  0  0  0  0  0  0  0  0  0  0  0
   25.6835   -6.3627    3.5343 C   0  0  0  0  0  0  0  0  0  0  0  0
   26.3145   -7.4623    4.2854 C   0  0  0  0  0  0  0  0  0  0  0  0
   25.7919   -7.8987    5.4318 C   0  0  0  0  0  0  0  0  0  0  0  0
   26.1476  -10.3569    5.6315 C   0  0  0  0  0  0  0  0  0  0  0  0
   26.4404   -8.9934    6.2546 C   0  0  0  0  0  0  0  0  0  0  0  0
   27.9195   -8.6621    6.4390 C   0  0  0  0  0  0  0  0  0  0  0  0
   29.6389   -8.9026    4.6807 C   0  0  0  0  0  0  0  0  0  0  0  0
   28.8566   -9.6447    5.7540 C   0  0  0  0  0  0  0  0  0  0  0  0
   31.1516   -9.7108    6.7303 C   0  0  0  0  0  0  0  0  0  0  0  0
   29.7654  -10.3129    6.7783 C   0  0  0  0  0  0  0  0  0  0  0  0
 27 28  2  0  0  0
 53 54  1  0  0  0
 40 42  1  0  0  0
 48 49  1  0  0  0
 51 52  1  0  0  0
 30 31  1  0  0  0
 41 42  2  0  0  0
 44 45  2  0  0  0
 21 23  1  0  0  0
 17 19  1  0  0  0
 13 15  2  0  0  0
 22 23  2  0  0  0
 18 19  2  0  0  0
 14 15  1  0  0  0
  1  5  1  0  0  0
  2  8  1  0  0  0
 46 47  2  0  0  0
 46 45  1  0  0  0
 47 49  1  0  0  0
 33 34  2  0  0  0
 33 35  1  0  0  0
 34 36  1  0  0  0
 35 37  2  0  0  0
 36 38  2  0  0  0
 37 38  1  0  0  0
 54 52  1  0  0  0
 26 25  1  0  0  0
 26 28  1  0  0  0
 25  9  1  0  0  0
 32 38  1  0  0  0
 32 31  1  0  0  0
 50 49  1  0  0  0
 50 52  1  0  0  0
 39 42  1  0  0  0
 39 29  1  0  0  0
 43 45  1  0  0  0
 43  7  1  0  0  0
  3  6  1  0  0  0
  3  9  1  0  0  0
  4  9  1  0  0  0
  4 10  1  0  0  0
 28 29  1  0  0  0
 23  6  1  0  0  0
 19  8  1  0  0  0
 15 10  1  0  0  0
 31 29  1  0  0  0
  5  7  1  0  0  0
  5  9  1  0  0  0
  6  8  1  0  0  0
  7 10  1  0  0  0
  8 10  1  0  0  0
 21 24  1  0  0  0
 17 20  1  0  0  0
 14 16  1  0  0  0
  1 11  1  0  0  0
  2 12  1  0  0  0
M  END
> <minimizedAffinity>
-9.51162

$$$$
3VJE_ZGA_A_301


 54 56  0  0  0  0  0  0  0  0999 V2000
   26.0301   -4.6083    7.0883 O   0  0  0  0  0  0  0  0  0  0  0  0
   23.5226   -0.9315    4.4074 O   0  0  0  0  0  0  0  0  0  0  0  0
   24.4725   -2.2842    7.0345 O   0  0  0  0  0  0  0  0  0  0  0  0
   23.0633   -3.3709    5.6386 O   0  0  0  0  0  0  0  0  0  0  0  0
   24.8177   -4.6535    6.3310 C   0  0  0  0  0  0  0  0  0  0  0  0
   25.2211   -1.6863    5.9642 C   0  0  0  0  0  0  0  0  0  0  0  0
   24.9609   -4.4048    4.8395 C   0  0  0  0  0  0  0  0  0  0  0  0
   24.5521   -1.9074    4.5949 C   0  0  0  0  0  0  0  0  0  0  0  0
   23.8716   -3.5577    6.7894 C   0  0  0  0  0  0  0  0  0  0  0  0
   23.9404   -3.3091    4.5229 C   0  0  0  0  0  0  0  0  0  0  0  0
   26.6259   -5.3119    6.7871 H   0  0  0  0  0  0  0  0  0  0  0  0
   23.9078   -0.0424    4.4526 H   0  0  0  0  0  0  0  0  0  0  0  0
   21.9476   -3.2985    3.2720 O   0  0  0  0  0  0  0  0  0  0  0  0
   23.7503   -3.9780    2.2305 O   0  0  0  0  0  0  0  0  0  0  0  0
   23.1662   -3.5582    3.2527 C   0  0  0  0  0  0  0  0  0  0  0  0
   24.6687   -4.1615    2.2578 H   0  0  0  0  0  0  0  0  0  0  0  0
   26.7401   -1.9296    3.6638 O   0  0  0  0  0  0  0  0  0  0  0  0
   25.0868   -1.3406    2.3535 O   0  0  0  0  0  0  0  0  0  0  0  0
   25.5276   -1.7079    3.4630 C   0  0  0  0  0  0  0  0  0  0  0  0
   27.0322   -2.2039    4.5108 H   0  0  0  0  0  0  0  0  0  0  0  0
   24.4238    0.3876    6.8324 O   0  0  0  0  0  0  0  0  0  0  0  0
   26.4493    0.3307    5.9907 O   0  0  0  0  0  0  0  0  0  0  0  0
   25.3656   -0.2229    6.2794 C   0  0  0  0  0  0  0  0  0  0  0  0
   23.6270   -0.0628    7.0327 H   0  0  0  0  0  0  0  0  0  0  0  0
   23.1704   -4.1020    8.0241 C   0  0  0  0  0  0  0  0  0  0  0  0
   22.4883   -5.4001    7.6754 C   0  0  0  0  0  0  0  0  0  0  0  0
   21.8071   -5.2957   10.0149 C   0  0  0  0  0  0  0  0  0  0  0  0
   22.0282   -6.0712    8.9527 C   0  0  0  0  0  0  0  0  0  0  0  0
   21.7754   -7.5534    8.9249 C   0  0  0  0  0  0  0  0  0  0  0  0
   22.6944   -9.2920    7.3288 C   0  0  0  0  0  0  0  0  0  0  0  0
   23.0279   -8.2766    8.4295 C   0  0  0  0  0  0  0  0  0  0  0  0
   23.7615   -8.8707    9.6350 C   0  0  0  0  0  0  0  0  0  0  0  0
   28.0554   -8.3803    9.4488 C   0  0  0  0  0  0  0  0  0  0  0  0
   27.2079   -7.4131    8.9076 C   0  0  0  0  0  0  0  0  0  0  0  0
   27.5072   -9.5055   10.0622 C   0  0  0  0  0  0  0  0  0  0  0  0
   25.8268   -7.5804    8.9726 C   0  0  0  0  0  0  0  0  0  0  0  0
   26.1185   -9.6782   10.1171 C   0  0  0  0  0  0  0  0  0  0  0  0
   25.2731   -8.7034    9.5890 C   0  0  0  0  0  0  0  0  0  0  0  0
   20.7616   -7.8909    7.9846 O   0  0  0  0  0  0  0  0  0  0  0  0
   19.5054   -8.5582   10.0530 C   0  0  0  0  0  0  0  0  0  0  0  0
   18.4673   -8.1415    7.9351 O   0  0  0  0  0  0  0  0  0  0  0  0
   19.4876   -8.1994    8.6050 C   0  0  0  0  0  0  0  0  0  0  0  0
   24.6457   -5.6282    4.1783 O   0  0  0  0  0  0  0  0  0  0  0  0
   26.0552   -6.0581    2.3771 O   0  0  0  0  0  0  0  0  0  0  0  0
   25.7977   -6.2677    3.5570 C   0  0  0  0  0  0  0  0  0  0  0  0
   26.5996   -7.1989    4.3700 C   0  0  0  0  0  0  0  0  0  0  0  0
   26.3745   -8.5126    4.3309 C   0  0  0  0  0  0  0  0  0  0  0  0
   28.4834   -8.8838    5.6053 C   0  0  0  0  0  0  0  0  0  0  0  0
   27.1464   -9.4941    5.1892 C   0  0  0  0  0  0  0  0  0  0  0  0
   26.2520   -9.9557    6.3375 C   0  0  0  0  0  0  0  0  0  0  0  0
   27.5699  -11.7639    7.3860 C   0  0  0  0  0  0  0  0  0  0  0  0
   26.3090  -11.4538    6.5931 C   0  0  0  0  0  0  0  0  0  0  0  0
   25.3692  -13.0058    8.3057 C   0  0  0  0  0  0  0  0  0  0  0  0
   25.0451  -11.9186    7.3059 C   0  0  0  0  0  0  0  0  0  0  0  0
 27 28  2  0  0  0
 53 54  1  0  0  0
 40 42  1  0  0  0
 48 49  1  0  0  0
 51 52  1  0  0  0
 30 31  1  0  0  0
 41 42  2  0  0  0
 44 45  2  0  0  0
 21 23  1  0  0  0
 17 19  1  0  0  0
 13 15  2  0  0  0
 22 23  2  0  0  0
 18 19  2  0  0  0
 14 15  1  0  0  0
  1  5  1  0  0  0
  2  8  1  0  0  0
 46 47  2  0  0  0
 46 45  1  0  0  0
 47 49  1  0  0  0
 33 34  2  0  0  0
 33 35  1  0  0  0
 34 36  1  0  0  0
 35 37  2  0  0  0
 36 38  2  0  0  0
 37 38  1  0  0  0
 54 52  1  0  0  0
 26 25  1  0  0  0
 26 28  1  0  0  0
 25  9  1  0  0  0
 32 38  1  0  0  0
 32 31  1  0  0  0
 50 49  1  0  0  0
 50 52  1  0  0  0
 39 42  1  0  0  0
 39 29  1  0  0  0
 43 45  1  0  0  0
 43  7  1  0  0  0
  3  6  1  0  0  0
  3  9  1  0  0  0
  4  9  1  0  0  0
  4 10  1  0  0  0
 28 29  1  0  0  0
 23  6  1  0  0  0
 19  8  1  0  0  0
 15 10  1  0  0  0
 31 29  1  0  0  0
  5  7  1  0  0  0
  5  9  1  0  0  0
  6  8  1  0  0  0
  7 10  1  0  0  0
  8 10  1  0  0  0
 21 24  1  0  0  0
 17 20  1  0  0  0
 14 16  1  0  0  0
  1 11  1  0  0  0
  2 12  1  0  0  0
M  END
> <minimizedAffinity>
-9.45038

$$$$
3VJE_ZGA_A_301


 54 56  0  0  0  0  0  0  0  0999 V2000
   22.3997   -6.8979   11.0673 O   0  0  0  0  0  0  0  0  0  0  0  0
   23.6914   -3.8251    7.0820 O   0  0  0  0  0  0  0  0  0  0  0  0
   21.7795   -4.7976    9.3255 O   0  0  0  0  0  0  0  0  0  0  0  0
   22.3248   -6.1754    7.6166 O   0  0  0  0  0  0  0  0  0  0  0  0
   22.5003   -7.1625    9.6655 C   0  0  0  0  0  0  0  0  0  0  0  0
   23.0910   -4.2161    9.3982 C   0  0  0  0  0  0  0  0  0  0  0  0
   23.8913   -7.0398    9.0682 C   0  0  0  0  0  0  0  0  0  0  0  0
   23.9818   -4.6455    8.2177 C   0  0  0  0  0  0  0  0  0  0  0  0
   21.6814   -6.1525    8.8809 C   0  0  0  0  0  0  0  0  0  0  0  0
   23.7224   -6.1121    7.8628 C   0  0  0  0  0  0  0  0  0  0  0  0
   22.9262   -7.5485   11.5576 H   0  0  0  0  0  0  0  0  0  0  0  0
   23.8550   -2.8953    7.3045 H   0  0  0  0  0  0  0  0  0  0  0  0
   23.9012   -6.4494    5.5411 O   0  0  0  0  0  0  0  0  0  0  0  0
   25.6354   -7.0262    6.7477 O   0  0  0  0  0  0  0  0  0  0  0  0
   24.4757   -6.5727    6.6399 C   0  0  0  0  0  0  0  0  0  0  0  0
   26.0318   -7.1028    7.5933 H   0  0  0  0  0  0  0  0  0  0  0  0
   26.0607   -3.5289    7.9246 O   0  0  0  0  0  0  0  0  0  0  0  0
   25.9865   -5.1687    9.3746 O   0  0  0  0  0  0  0  0  0  0  0  0
   25.4434   -4.4356    8.5216 C   0  0  0  0  0  0  0  0  0  0  0  0
   25.6181   -2.9995    7.2908 H   0  0  0  0  0  0  0  0  0  0  0  0
   23.9248   -1.9811    9.3951 O   0  0  0  0  0  0  0  0  0  0  0  0
   21.7535   -2.2731    9.5160 O   0  0  0  0  0  0  0  0  0  0  0  0
   22.9186   -2.7229    9.4466 C   0  0  0  0  0  0  0  0  0  0  0  0
   24.7817   -2.3568    9.3437 H   0  0  0  0  0  0  0  0  0  0  0  0
   20.2483   -6.6597    8.9168 C   0  0  0  0  0  0  0  0  0  0  0  0
   20.1197   -7.8485    7.9990 C   0  0  0  0  0  0  0  0  0  0  0  0
   19.2213   -8.8194   10.0480 C   0  0  0  0  0  0  0  0  0  0  0  0
   19.4009   -8.9604    8.7341 C   0  0  0  0  0  0  0  0  0  0  0  0
   18.8679  -10.1144    7.9304 C   0  0  0  0  0  0  0  0  0  0  0  0
   17.8679   -9.2744    5.7603 C   0  0  0  0  0  0  0  0  0  0  0  0
   19.1118   -9.8576    6.4431 C   0  0  0  0  0  0  0  0  0  0  0  0
   19.6386  -11.1446    5.8022 C   0  0  0  0  0  0  0  0  0  0  0  0
   23.9514  -11.2968    5.5048 C   0  0  0  0  0  0  0  0  0  0  0  0
   23.3177  -10.1765    6.0433 C   0  0  0  0  0  0  0  0  0  0  0  0
   23.1832  -12.3760    5.0711 C   0  0  0  0  0  0  0  0  0  0  0  0
   21.9286  -10.1374    6.1346 C   0  0  0  0  0  0  0  0  0  0  0  0
   21.7859  -12.3309    5.1530 C   0  0  0  0  0  0  0  0  0  0  0  0
   21.1552  -11.2169    5.7052 C   0  0  0  0  0  0  0  0  0  0  0  0
   17.4545  -10.2270    8.0555 O   0  0  0  0  0  0  0  0  0  0  0  0
   15.9714  -12.2314    7.7655 C   0  0  0  0  0  0  0  0  0  0  0  0
   17.5456  -11.9813    9.5532 O   0  0  0  0  0  0  0  0  0  0  0  0
   17.0265  -11.5226    8.5465 C   0  0  0  0  0  0  0  0  0  0  0  0
   24.2958   -8.3495    8.6750 O   0  0  0  0  0  0  0  0  0  0  0  0
   25.6260   -8.3561   10.5846 O   0  0  0  0  0  0  0  0  0  0  0  0
   25.2257   -8.9753    9.6054 C   0  0  0  0  0  0  0  0  0  0  0  0
   25.6991  -10.3381    9.3056 C   0  0  0  0  0  0  0  0  0  0  0  0
   24.8369  -11.3292    9.0768 C   0  0  0  0  0  0  0  0  0  0  0  0
   26.4629  -12.7550    7.8387 C   0  0  0  0  0  0  0  0  0  0  0  0
   25.2871  -12.7519    8.8137 C   0  0  0  0  0  0  0  0  0  0  0  0
   25.5435  -13.4439   10.1504 C   0  0  0  0  0  0  0  0  0  0  0  0
   24.0059  -15.1635    9.2647 C   0  0  0  0  0  0  0  0  0  0  0  0
   24.4758  -14.4588   10.5286 C   0  0  0  0  0  0  0  0  0  0  0  0
   26.4991  -15.6442   11.3805 C   0  0  0  0  0  0  0  0  0  0  0  0
   25.0141  -15.4316   11.5704 C   0  0  0  0  0  0  0  0  0  0  0  0
 27 28  2  0  0  0
 53 54  1  0  0  0
 40 42  1  0  0  0
 48 49  1  0  0  0
 51 52  1  0  0  0
 30 31  1  0  0  0
 41 42  2  0  0  0
 44 45  2  0  0  0
 21 23  1  0  0  0
 17 19  1  0  0  0
 13 15  2  0  0  0
 22 23  2  0  0  0
 18 19  2  0  0  0
 14 15  1  0  0  0
  1  5  1  0  0  0
  2  8  1  0  0  0
 46 47  2  0  0  0
 46 45  1  0  0  0
 47 49  1  0  0  0
 33 34  2  0  0  0
 33 35  1  0  0  0
 34 36  1  0  0  0
 35 37  2  0  0  0
 36 38  2  0  0  0
 37 38  1  0  0  0
 54 52  1  0  0  0
 26 25  1  0  0  0
 26 28  1  0  0  0
 25  9  1  0  0  0
 32 38  1  0  0  0
 32 31  1  0  0  0
 50 49  1  0  0  0
 50 52  1  0  0  0
 39 42  1  0  0  0
 39 29  1  0  0  0
 43 45  1  0  0  0
 43  7  1  0  0  0
  3  6  1  0  0  0
  3  9  1  0  0  0
  4  9  1  0  0  0
  4 10  1  0  0  0
 28 29  1  0  0  0
 23  6  1  0  0  0
 19  8  1  0  0  0
 15 10  1  0  0  0
 31 29  1  0  0  0
  5  7  1  0  0  0
  5  9  1  0  0  0
  6  8  1  0  0  0
  7 10  1  0  0  0
  8 10  1  0  0  0
 21 24  1  0  0  0
 17 20  1  0  0  0
 14 16  1  0  0  0
  1 11  1  0  0  0
  2 12  1  0  0  0
M  END
> <minimizedAffinity>
-9.19551

$$$$
3VJE_ZGA_A_301


 54 56  0  0  0  0  0  0  0  0999 V2000
   26.0647   -5.0920    6.9046 O   0  0  0  0  0  0  0  0  0  0  0  0
   23.1474   -1.7679    4.1783 O   0  0  0  0  0  0  0  0  0  0  0  0
   24.2459   -2.9671    6.8220 O   0  0  0  0  0  0  0  0  0  0  0  0
   22.9753   -4.2286    5.4401 O   0  0  0  0  0  0  0  0  0  0  0  0
   24.8670   -5.2883    6.1482 C   0  0  0  0  0  0  0  0  0  0  0  0
   24.9206   -2.2991    5.7440 C   0  0  0  0  0  0  0  0  0  0  0  0
   24.9819   -5.0432    4.6537 C   0  0  0  0  0  0  0  0  0  0  0  0
   24.2838   -2.6141    4.3778 C   0  0  0  0  0  0  0  0  0  0  0  0
   23.7985   -4.3051    6.5930 C   0  0  0  0  0  0  0  0  0  0  0  0
   23.8406   -4.0786    4.3235 C   0  0  0  0  0  0  0  0  0  0  0  0
   26.7392   -5.7247    6.6121 H   0  0  0  0  0  0  0  0  0  0  0  0
   23.4259   -0.8393    4.2122 H   0  0  0  0  0  0  0  0  0  0  0  0
   21.8901   -4.1480    3.0093 O   0  0  0  0  0  0  0  0  0  0  0  0
   23.7094   -4.9595    2.0998 O   0  0  0  0  0  0  0  0  0  0  0  0
   23.1023   -4.4324    3.0567 C   0  0  0  0  0  0  0  0  0  0  0  0
   24.6220   -5.1578    2.1760 H   0  0  0  0  0  0  0  0  0  0  0  0
   26.1903   -3.0883    3.0379 O   0  0  0  0  0  0  0  0  0  0  0  0
   25.0141   -1.3107    2.5342 O   0  0  0  0  0  0  0  0  0  0  0  0
   25.2307   -2.3159    3.2432 C   0  0  0  0  0  0  0  0  0  0  0  0
   26.3196   -3.8326    3.5923 H   0  0  0  0  0  0  0  0  0  0  0  0
   23.8375   -0.2971    6.4576 O   0  0  0  0  0  0  0  0  0  0  0  0
   25.9500   -0.1777    5.8768 O   0  0  0  0  0  0  0  0  0  0  0  0
   24.8925   -0.8250    6.0408 C   0  0  0  0  0  0  0  0  0  0  0  0
   23.0653   -0.8164    6.5673 H   0  0  0  0  0  0  0  0  0  0  0  0
   23.1642   -4.9122    7.8346 C   0  0  0  0  0  0  0  0  0  0  0  0
   21.8099   -5.4694    7.4778 C   0  0  0  0  0  0  0  0  0  0  0  0
   20.4091   -7.3628    8.1113 C   0  0  0  0  0  0  0  0  0  0  0  0
   21.5575   -6.7128    8.3047 C   0  0  0  0  0  0  0  0  0  0  0  0
   22.6438   -7.1807    9.2335 C   0  0  0  0  0  0  0  0  0  0  0  0
   23.9496   -9.2325    9.9403 C   0  0  0  0  0  0  0  0  0  0  0  0
   23.0540   -8.6062    8.8636 C   0  0  0  0  0  0  0  0  0  0  0  0
   23.6685   -8.5925    7.4611 C   0  0  0  0  0  0  0  0  0  0  0  0
   23.0721  -12.2194    5.1804 C   0  0  0  0  0  0  0  0  0  0  0  0
   24.3078  -11.9477    5.7684 C   0  0  0  0  0  0  0  0  0  0  0  0
   22.0230  -11.3161    5.3423 C   0  0  0  0  0  0  0  0  0  0  0  0
   24.4896  -10.7770    6.5007 C   0  0  0  0  0  0  0  0  0  0  0  0
   22.2101  -10.1339    6.0694 C   0  0  0  0  0  0  0  0  0  0  0  0
   23.4413   -9.8712    6.6687 C   0  0  0  0  0  0  0  0  0  0  0  0
   22.1784   -7.2702   10.5756 O   0  0  0  0  0  0  0  0  0  0  0  0
   20.1732   -6.0866   11.5139 C   0  0  0  0  0  0  0  0  0  0  0  0
   22.2769   -5.0222   11.0912 O   0  0  0  0  0  0  0  0  0  0  0  0
   21.5936   -6.0348   11.0604 C   0  0  0  0  0  0  0  0  0  0  0  0
   24.8128   -6.3033    4.0080 O   0  0  0  0  0  0  0  0  0  0  0  0
   26.1945   -6.8282    2.2103 O   0  0  0  0  0  0  0  0  0  0  0  0
   26.0407   -6.8287    3.4264 C   0  0  0  0  0  0  0  0  0  0  0  0
   27.0531   -7.3972    4.3337 C   0  0  0  0  0  0  0  0  0  0  0  0
   26.9434   -8.6459    4.7881 C   0  0  0  0  0  0  0  0  0  0  0  0
   29.3360   -9.2449    5.1427 C   0  0  0  0  0  0  0  0  0  0  0  0
   27.9388   -9.2463    5.7600 C   0  0  0  0  0  0  0  0  0  0  0  0
   27.8150   -8.5268    7.1011 C   0  0  0  0  0  0  0  0  0  0  0  0
   27.8345  -10.8058    8.0559 C   0  0  0  0  0  0  0  0  0  0  0  0
   27.2677   -9.4031    8.2172 C   0  0  0  0  0  0  0  0  0  0  0  0
   27.3311   -7.3078    9.5701 C   0  0  0  0  0  0  0  0  0  0  0  0
   27.5947   -8.7967    9.5762 C   0  0  0  0  0  0  0  0  0  0  0  0
 27 28  2  0  0  0
 53 54  1  0  0  0
 40 42  1  0  0  0
 48 49  1  0  0  0
 51 52  1  0  0  0
 30 31  1  0  0  0
 41 42  2  0  0  0
 44 45  2  0  0  0
 21 23  1  0  0  0
 17 19  1  0  0  0
 13 15  2  0  0  0
 22 23  2  0  0  0
 18 19  2  0  0  0
 14 15  1  0  0  0
  1  5  1  0  0  0
  2  8  1  0  0  0
 46 47  2  0  0  0
 46 45  1  0  0  0
 47 49  1  0  0  0
 33 34  2  0  0  0
 33 35  1  0  0  0
 34 36  1  0  0  0
 35 37  2  0  0  0
 36 38  2  0  0  0
 37 38  1  0  0  0
 54 52  1  0  0  0
 26 25  1  0  0  0
 26 28  1  0  0  0
 25  9  1  0  0  0
 32 38  1  0  0  0
 32 31  1  0  0  0
 50 49  1  0  0  0
 50 52  1  0  0  0
 39 42  1  0  0  0
 39 29  1  0  0  0
 43 45  1  0  0  0
 43  7  1  0  0  0
  3  6  1  0  0  0
  3  9  1  0  0  0
  4  9  1  0  0  0
  4 10  1  0  0  0
 28 29  1  0  0  0
 23  6  1  0  0  0
 19  8  1  0  0  0
 15 10  1  0  0  0
 31 29  1  0  0  0
  5  7  1  0  0  0
  5  9  1  0  0  0
  6  8  1  0  0  0
  7 10  1  0  0  0
  8 10  1  0  0  0
 21 24  1  0  0  0
 17 20  1  0  0  0
 14 16  1  0  0  0
  1 11  1  0  0  0
  2 12  1  0  0  0
M  END
> <minimizedAffinity>
-8.91226

$$$$
