3VJE_ZGA_A_301
  RCSB PDB12061711143D
Coordinates from PDB:3VJE:A:301 Model:1 without hydrogens
 49 51  0  0  0  0            999 V2000
   27.5770   -7.8390    8.8300   C 0  0  0  0  0  0  0  0  0  0  0  0
   16.6680  -15.5630   11.0370   C 0  0  0  0  0  0  0  0  0  0  0  0
   29.8080  -10.2480    6.1330   C 0  0  0  0  0  0  0  0  0  0  0  0
   15.6450  -12.0390    6.9840   C 0  0  0  0  0  0  0  0  0  0  0  0
   17.1450  -14.8620    8.5410   C 0  0  0  0  0  0  0  0  0  0  0  0
   27.3190  -10.7810   10.7770   C 0  0  0  0  0  0  0  0  0  0  0  0
   27.5750   -9.3910    6.0060   O 0  0  0  0  0  0  0  0  0  0  0  0
   18.4790   -7.9190    8.0930   O 0  0  0  0  0  0  0  0  0  0  0  0
   21.6910   -2.9470   11.0110   O 0  0  0  0  0  0  0  0  0  0  0  0
   19.2220   -5.4980   10.3800   O 0  0  0  0  0  0  0  0  0  0  0  0
   21.7580   -9.1910   12.1950   O 0  0  0  0  0  0  0  0  0  0  0  0
   23.7760   -3.6080   10.8370   O 0  0  0  0  0  0  0  0  0  0  0  0
   19.6550   -5.3670   12.5230   O 0  0  0  0  0  0  0  0  0  0  0  0
   19.7190   -8.4430   11.9140   O 0  0  0  0  0  0  0  0  0  0  0  0
   21.9070   -6.5970    7.2000   O 0  0  0  0  0  0  0  0  0  0  0  0
   22.1130   -5.8900   12.3430   O 0  0  0  0  0  0  0  0  0  0  0  0
   18.1600  -10.1700    8.7260   C 0  0  0  0  0  0  0  0  0  0  0  0
   16.9540  -10.2800    8.1680   C 0  0  0  0  0  0  0  0  0  0  0  0
   25.1300  -15.6750   11.5770   C 0  0  0  0  0  0  0  0  0  0  0  0
   26.5090  -15.5000   11.4570   C 0  0  0  0  0  0  0  0  0  0  0  0
   24.2690  -14.8340   10.8740   C 0  0  0  0  0  0  0  0  0  0  0  0
   27.0160  -14.4990   10.6320   C 0  0  0  0  0  0  0  0  0  0  0  0
   24.7800  -13.8350   10.0360   C 0  0  0  0  0  0  0  0  0  0  0  0
   15.8810  -14.3260   10.6670   C 0  0  0  0  0  0  0  0  0  0  0  0
   25.2950   -8.3780    9.5010   C 0  0  0  0  0  0  0  0  0  0  0  0
   24.4780   -7.5980    8.5030   C 0  0  0  0  0  0  0  0  0  0  0  0
   26.7360  -12.5750    9.0230   C 0  0  0  0  0  0  0  0  0  0  0  0
   16.8250  -12.5110    9.2310   C 0  0  0  0  0  0  0  0  0  0  0  0
   28.1290  -10.4330    7.9900   O 0  0  0  0  0  0  0  0  0  0  0  0
   20.3340   -8.9490    9.0490   O 0  0  0  0  0  0  0  0  0  0  0  0
   23.2750   -5.7020    9.4710   O 0  0  0  0  0  0  0  0  0  0  0  0
   22.8620   -7.7210   10.4030   O 0  0  0  0  0  0  0  0  0  0  0  0
   28.4370   -9.9690    6.6510   C 0  0  0  0  0  0  0  0  0  0  0  0
   18.9580   -8.9410    8.5710   C 0  0  0  0  0  0  0  0  0  0  0  0
   26.6140   -8.7610    8.8630   C 0  0  0  0  0  0  0  0  0  0  0  0
   22.5500   -3.7900   10.6690   C 0  0  0  0  0  0  0  0  0  0  0  0
   20.0080   -5.5910   11.3460   C 0  0  0  0  0  0  0  0  0  0  0  0
   20.9380   -8.4360   11.6380   C 0  0  0  0  0  0  0  0  0  0  0  0
   26.1580  -13.6520    9.9290   C 0  0  0  0  0  0  0  0  0  0  0  0
   16.0860  -11.5090    8.3470   C 0  0  0  0  0  0  0  0  0  0  0  0
   16.1990  -13.8970    9.2400   C 0  0  0  0  0  0  0  0  0  0  0  0
   26.5110  -11.1460    9.5250   C 0  0  0  0  0  0  0  0  0  0  0  0
   22.0640   -7.5270    8.2750   C 0  0  0  0  0  0  0  0  0  0  0  0
   26.7840  -10.1740    8.3770   C 0  0  0  0  0  0  0  0  0  0  0  0
   22.1130   -5.0910   10.0540   C 0  0  0  0  0  0  0  0  0  0  0  0
   20.8840   -7.6450    9.2240   C 0  0  0  0  0  0  0  0  0  0  0  0
   21.4340   -6.0070   11.0890   C 0  0  0  0  0  0  0  0  0  0  0  0
   23.2090   -7.0990    9.1760   C 0  0  0  0  0  0  0  0  0  0  0  0
   21.4820   -7.4640   10.6210   C 0  0  0  0  0  0  0  0  0  0  0  0
  1 35  2  0  0  0  0
  2 24  1  0  0  0  0
  3 33  1  0  0  0  0
  4 40  1  0  0  0  0
  5 41  1  0  0  0  0
  6 42  1  0  0  0  0
  7 33  2  0  0  0  0
  8 34  2  0  0  0  0
  9 36  1  0  0  0  0
 10 37  1  0  0  0  0
 11 38  2  0  0  0  0
 12 36  2  0  0  0  0
 13 37  2  0  0  0  0
 14 38  1  0  0  0  0
 15 43  1  0  0  0  0
 16 47  1  0  0  0  0
 17 18  2  0  0  0  0
 17 34  1  0  0  0  0
 18 40  1  0  0  0  0
 19 20  2  0  0  0  0
 19 21  1  0  0  0  0
 20 22  1  0  0  0  0
 21 23  2  0  0  0  0
 22 39  2  0  0  0  0
 23 39  1  0  0  0  0
 24 41  1  0  0  0  0
 25 26  1  0  0  0  0
 25 35  1  0  0  0  0
 26 48  1  0  0  0  0
 27 39  1  0  0  0  0
 27 42  1  0  0  0  0
 28 40  1  0  0  0  0
 28 41  1  0  0  0  0
 29 33  1  0  0  0  0
 29 44  1  0  0  0  0
 30 34  1  0  0  0  0
 30 46  1  0  0  0  0
 31 45  1  0  0  0  0
 31 48  1  0  0  0  0
 32 48  1  0  0  0  0
 32 49  1  0  0  0  0
 35 44  1  0  0  0  0
 36 45  1  0  0  0  0
 37 47  1  0  0  0  0
 38 49  1  0  0  0  0
 42 44  1  0  0  0  0
 43 46  1  0  0  0  0
 43 48  1  0  0  0  0
 45 47  1  0  0  0  0
 46 49  1  0  0  0  0
 47 49  1  0  0  0  0
A    1
CAA
A    2
CAB
A    3
CAC
A    4
CAD
A    5
CAE
A    6
CAF
A    7
OAG
A    8
OAH
A    9
OAI
A   10
OAJ
A   11
OAK
A   12
OAL
A   13
OAM
A   14
OAN
A   15
OAO
A   16
OAP
A   17
CAQ
A   18
CAR
A   19
CAS
A   20
CAT
A   21
CAU
A   22
CAV
A   23
CAW
A   24
CAX
A   25
CAY
A   26
CAZ
A   27
CBA
A   28
CBB
A   29
OBC
A   30
OBD
A   31
OBE
A   32
OBF
A   33
CBG
A   34
CBH
A   35
CBI
A   36
CBJ
A   37
CBK
A   38
CBL
A   39
CBM
A   40
CBN
A   41
CBO
A   42
CBP
A   43
CBQ
A   44
CBR
A   45
CBS
A   46
CBT
A   47
CBU
A   48
CBV
A   49
CBW
M  END
>  <InstanceId>
3VJE_ZGA_A_301

>  <ChemCompId>
ZGA

>  <PdbId>
3VJE

>  <ChainId>
A

>  <ResidueNumber>
301

>  <InsertionCode>


>  <Model>
1

>  <AltIds>


>  <MissingHeavyAtoms>
0

>  <ObservedFormula>
C35 O14

>  <Name>
Zaragozic acid A

>  <SystematicName>
(1S,3S,4S,5R,6R,7R)-1-[(4S,5R)-4-acetyloxy-5-methyl-3-methylidene-6-phenyl-hexyl]-6-[(E,4S,6S)-4,6-dimethyloct-2-enoyl]oxy-4,7-bis(oxidanyl)-2,8-dioxabicyclo[3.2.1]octane-3,4,5-tricarboxylic acid

>  <Synonyms>
(1S,3S,4S,5R,6R,7R)-1-[(4S,5R)-4-(acetyloxy)-5-methyl-3-methylidene-6-phenylhexyl]-6-{[(2E,4S,6S)-4,6-dimethyloct-2-enoyl]oxy}-4,7-dihydroxy-2,8-dioxabicyclo[3.2.1]octane-3,4,5-tricarboxylic acid

>  <Type>
NON-POLYMER

>  <Formula>
C35 H46 O14

>  <MolecularWeight>
690.731

>  <ModifiedDate>
2012-04-06

>  <Parent>


>  <OneLetterCode>


>  <SubcomponentList>


>  <AmbiguousFlag>
N

>  <InChI>
InChI=1S/C35H46O14/c1-7-19(2)17-20(3)13-14-25(37)47-28-27(38)33(48-29(30(39)40)34(45,31(41)42)35(28,49-33)32(43)44)16-15-21(4)26(46-23(6)36)22(5)18-24-11-9-8-10-12-24/h8-14,19-20,22,26-29,38,45H,4,7,15-18H2,1-3,5-6H3,(H,39,40)(H,41,42)(H,43,44)/b14-13+/t19-,20+,22+,26+,27+,28+,29+,33-,34+,35-/m0/s1

>  <InChIKey>
DFKDOZMCHOGOBR-NCSQYGPNSA-N

>  <SMILES>
CC[C@H](C)C[C@H](C)/C=C/C(=O)O[C@@H]1[C@H]([C@]2(O[C@@H]([C@]([C@@]1(O2)C(=O)O)(C(=O)O)O)C(=O)O)CCC(=C)[C@H]([C@H](C)Cc3ccccc3)OC(=O)C)O

$$$$
