1LVU_9PP_A_6100
  RCSB PDB12061703133D
Coordinates from PDB:1LVU:A:6100 Model:1 without hydrogens
 20 21  0  0  0  0            999 V2000
   41.9590   61.6290  169.8140   N 0  0  0  0  0  0  0  0  0  0  0  0
   40.8240   61.2750  169.1000   C 0  0  0  0  0  0  0  0  0  0  0  0
   40.6190   62.1460  168.1210   N 0  0  0  0  0  0  0  0  0  0  0  0
   41.6380   63.0850  168.1910   C 0  0  0  0  0  0  0  0  0  0  0  0
   41.9380   64.2710  167.3770   C 0  0  0  0  0  0  0  0  0  0  0  0
   41.2860   64.6940  166.3950   N 0  0  0  0  0  0  0  0  0  0  0  0
   43.1150   64.9640  167.8140   N 0  0  0  0  0  0  0  0  0  0  0  0
   43.9180   64.5650  168.9100   C 0  0  0  0  0  0  0  0  0  0  0  0
   45.0170   65.3060  169.2260   N 0  0  0  0  0  0  0  0  0  0  0  0
   43.6340   63.4590  169.6650   N 0  0  0  0  0  0  0  0  0  0  0  0
   42.4900   62.7730  169.2530   C 0  0  0  0  0  0  0  0  0  0  0  0
   42.5020   60.9680  170.8980   C 0  0  0  0  0  0  0  0  0  0  0  0
   41.5010   60.6560  172.0270   C 0  0  0  0  0  0  0  0  0  0  0  0
   41.1270   61.9480  172.7460   C 0  0  0  0  0  0  0  0  0  0  0  0
   42.1240   59.7420  172.9700   O 0  0  0  0  0  0  0  0  0  0  0  0
   42.7310   57.3840  173.3300   P 0  0  0  0  0  0  0  0  0  0  0  0
   41.7990   58.3710  172.6320   C 0  0  0  0  0  0  0  0  0  0  0  0
   42.3210   55.9870  172.9760   O 0  0  0  0  0  0  0  0  0  0  0  0
   44.1440   57.6140  172.8910   O 0  5  0  0  0  0  0  0  0  0  0  0
   42.6390   57.5620  174.8100   O 0  5  0  0  0  0  0  0  0  0  0  0
  1  2  1  0  0  0  0
  1 11  1  0  0  0  0
  1 12  1  0  0  0  0
  2  3  2  0  0  0  0
  3  4  1  0  0  0  0
  4  5  1  0  0  0  0
  4 11  2  0  0  0  0
  5  6  1  0  0  0  0
  5  7  2  0  0  0  0
  7  8  1  0  0  0  0
  8  9  1  0  0  0  0
  8 10  2  0  0  0  0
 10 11  1  0  0  0  0
 12 13  1  0  0  0  0
 13 14  1  0  0  0  0
 13 15  1  0  0  0  0
 15 17  1  0  0  0  0
 16 17  1  0  0  0  0
 16 18  2  0  0  0  0
 16 19  1  0  0  0  0
 16 20  1  0  0  0  0
M  CHG  2  19  -1  20  -1
A    1
N9
A    2
C8
A    3
N7
A    4
C5
A    5
C6
A    6
N6
A    7
N1
A    8
C2
A    9
N2
A   10
N3
A   11
C4
A   12
C10
A   13
C11
A   14
C12
A   15
O13
A   16
P
A   17
C14
A   18
O2P
A   19
O3P
A   20
O1P
M  END
>  <InstanceId>
1LVU_9PP_A_6100

>  <ChemCompId>
9PP

>  <PdbId>
1LVU

>  <ChainId>
A

>  <ResidueNumber>
6100

>  <InsertionCode>


>  <Model>
1

>  <AltIds>


>  <MissingHeavyAtoms>
0

>  <ObservedFormula>
C9 N6 O4 P

>  <Name>
2,6-DIAMINO-(S)-9-[2-(PHOSPHONOMETHOXY)PROPYL]PURINE

>  <SystematicName>
9-[(2S)-2-(phosphonatomethoxy)propyl]purine-2,6-diamine

>  <Synonyms>


>  <Type>
NON-POLYMER

>  <Formula>
C9 H13 N6 O4 P

>  <MolecularWeight>
300.211

>  <ModifiedDate>
2011-06-04

>  <Parent>


>  <OneLetterCode>


>  <SubcomponentList>


>  <AmbiguousFlag>
N

>  <InChI>
InChI=1S/C9H15N6O4P/c1-5(19-4-20(16,17)18)2-15-3-12-6-7(10)13-9(11)14-8(6)15/h3,5H,2,4H2,1H3,(H2,16,17,18)(H4,10,11,13,14)/p-2/t5-/m0/s1

>  <InChIKey>
LWEKFDHXJHJYGB-YFKPBYRVSA-L

>  <SMILES>
C[C@@H](Cn1cnc2c1nc(nc2N)N)OCP(=O)([O-])[O-]

$$$$
