1LVU_9PP_A_6100


 24 25  0  0  0  0  0  0  0  0999 V2000
   41.8552   61.3485  170.0237 N   0  0  0  0  0  0  0  0  0  0  0  0
   40.7352   60.9521  169.3083 C   0  0  0  0  0  0  0  0  0  0  0  0
   40.5656   61.7484  168.2613 N   0  0  0  0  0  0  0  0  0  0  0  0
   41.5931   62.6804  168.2875 C   0  0  0  0  0  0  0  0  0  0  0  0
   41.9277   63.7985  167.3946 C   0  0  0  0  0  0  0  0  0  0  0  0
   41.3063   64.1520  166.3664 N   0  0  0  0  0  0  0  0  0  0  0  0
   43.1008   64.5114  167.8095 N   0  0  0  0  0  0  0  0  0  0  0  0
   43.8705   64.1890  168.9535 C   0  0  0  0  0  0  0  0  0  0  0  0
   44.9693   64.9414  169.2420 N   0  0  0  0  0  0  0  0  0  0  0  0
   43.5543   63.1461  169.7819 N   0  0  0  0  0  0  0  0  0  0  0  0
   42.4136   62.4416  169.3924 C   0  0  0  0  0  0  0  0  0  0  0  0
   40.5013   63.6605  166.0843 H   0  0  0  0  0  0  0  0  0  0  0  0
   41.6228   64.9216  165.8402 H   0  0  0  0  0  0  0  0  0  0  0  0
   45.2155   65.6963  168.6601 H   0  0  0  0  0  0  0  0  0  0  0  0
   45.5169   64.7300  170.0324 H   0  0  0  0  0  0  0  0  0  0  0  0
   42.3623   60.7663  171.1686 C   0  0  0  0  0  0  0  0  0  0  0  0
   41.3369   60.5833  172.3040 C   0  0  0  0  0  0  0  0  0  0  0  0
   41.7265   61.4631  173.4873 C   0  0  0  0  0  0  0  0  0  0  0  0
   41.3361   59.1900  172.7182 O   0  0  0  0  0  0  0  0  0  0  0  0
   42.5084   58.9024  173.5198 C   0  0  0  0  0  0  0  0  0  0  0  0
   43.1863   57.6075  173.0796 P   0  0  0  0  0  0  0  0  0  0  0  0
   42.1651   56.7062  172.4552 O   0  0  0  0  0  0  0  0  0  0  0  0
   44.2631   57.9050  172.0825 O   0  0  0  0  0  0  0  0  0  0  0  0
   43.7859   56.9229  174.2638 O   0  0  0  0  0  0  0  0  0  0  0  0
  1  2  1  0  0  0
  1 11  1  0  0  0
  1 16  1  0  0  0
  2  3  2  0  0  0
  3  4  1  0  0  0
  4  5  1  0  0  0
  4 11  2  0  0  0
  5  6  1  0  0  0
  5  7  2  0  0  0
  7  8  1  0  0  0
  8  9  1  0  0  0
  8 10  2  0  0  0
 10 11  1  0  0  0
 16 17  1  0  0  0
 17 18  1  0  0  0
 17 19  1  0  0  0
 19 20  1  0  0  0
 21 20  1  0  0  0
 21 22  2  0  0  0
 21 23  1  0  0  0
 21 24  1  0  0  0
  6 12  1  0  0  0
  6 13  1  0  0  0
  9 14  1  0  0  0
  9 15  1  0  0  0
M  CHG 1  23  -1
M  CHG 1  24  -1
M  END
> <minimizedAffinity>
-8.01278

$$$$
1LVU_9PP_A_6100


 24 25  0  0  0  0  0  0  0  0999 V2000
   41.5533   60.6650  173.7237 N   0  0  0  0  0  0  0  0  0  0  0  0
   40.7316   60.2096  174.7439 C   0  0  0  0  0  0  0  0  0  0  0  0
   41.0194   58.9452  175.0223 N   0  0  0  0  0  0  0  0  0  0  0  0
   42.0493   58.5654  174.1738 C   0  0  0  0  0  0  0  0  0  0  0  0
   42.7798   57.2995  174.0215 C   0  0  0  0  0  0  0  0  0  0  0  0
   42.6009   56.2447  174.6725 N   0  0  0  0  0  0  0  0  0  0  0  0
   43.7866   57.3560  173.0019 N   0  0  0  0  0  0  0  0  0  0  0  0
   44.0648   58.4996  172.2144 C   0  0  0  0  0  0  0  0  0  0  0  0
   45.0513   58.4301  171.2770 N   0  0  0  0  0  0  0  0  0  0  0  0
   43.3813   59.6765  172.3606 N   0  0  0  0  0  0  0  0  0  0  0  0
   42.3963   59.6381  173.3492 C   0  0  0  0  0  0  0  0  0  0  0  0
   41.9088   56.2092  175.3718 H   0  0  0  0  0  0  0  0  0  0  0  0
   43.1523   55.4510  174.4849 H   0  0  0  0  0  0  0  0  0  0  0  0
   45.5560   57.5937  171.1545 H   0  0  0  0  0  0  0  0  0  0  0  0
   45.2593   59.2162  170.7221 H   0  0  0  0  0  0  0  0  0  0  0  0
   41.5637   61.9263  173.1616 C   0  0  0  0  0  0  0  0  0  0  0  0
   40.5141   62.1446  172.0549 C   0  0  0  0  0  0  0  0  0  0  0  0
   39.1398   62.3350  172.6883 C   0  0  0  0  0  0  0  0  0  0  0  0
   40.4896   60.9757  171.1914 O   0  0  0  0  0  0  0  0  0  0  0  0
   41.1770   61.2547  169.9467 C   0  0  0  0  0  0  0  0  0  0  0  0
   40.2036   61.3399  168.7740 P   0  0  0  0  0  0  0  0  0  0  0  0
   38.9288   61.9751  169.2391 O   0  0  0  0  0  0  0  0  0  0  0  0
   40.7970   62.1635  167.6732 O   0  0  0  0  0  0  0  0  0  0  0  0
   39.9095   59.9686  168.2605 O   0  0  0  0  0  0  0  0  0  0  0  0
  1  2  1  0  0  0
  1 11  1  0  0  0
  1 16  1  0  0  0
  2  3  2  0  0  0
  3  4  1  0  0  0
  4  5  1  0  0  0
  4 11  2  0  0  0
  5  6  1  0  0  0
  5  7  2  0  0  0
  7  8  1  0  0  0
  8  9  1  0  0  0
  8 10  2  0  0  0
 10 11  1  0  0  0
 16 17  1  0  0  0
 17 18  1  0  0  0
 17 19  1  0  0  0
 19 20  1  0  0  0
 21 20  1  0  0  0
 21 22  2  0  0  0
 21 23  1  0  0  0
 21 24  1  0  0  0
  6 12  1  0  0  0
  6 13  1  0  0  0
  9 14  1  0  0  0
  9 15  1  0  0  0
M  CHG 1  23  -1
M  CHG 1  24  -1
M  END
> <minimizedAffinity>
-7.09096

$$$$
1LVU_9PP_A_6100


 24 25  0  0  0  0  0  0  0  0999 V2000
   41.6357   61.4545  169.9210 N   0  0  0  0  0  0  0  0  0  0  0  0
   40.5312   61.1261  169.1493 C   0  0  0  0  0  0  0  0  0  0  0  0
   40.4593   61.9346  168.1004 N   0  0  0  0  0  0  0  0  0  0  0  0
   41.5361   62.8055  168.1827 C   0  0  0  0  0  0  0  0  0  0  0  0
   41.9779   63.9057  167.3145 C   0  0  0  0  0  0  0  0  0  0  0  0
   41.4291   64.2982  166.2595 N   0  0  0  0  0  0  0  0  0  0  0  0
   43.1682   64.5482  167.7906 N   0  0  0  0  0  0  0  0  0  0  0  0
   43.8610   64.1778  168.9688 C   0  0  0  0  0  0  0  0  0  0  0  0
   44.9857   64.8644  169.3154 N   0  0  0  0  0  0  0  0  0  0  0  0
   43.4451   63.1518  169.7741 N   0  0  0  0  0  0  0  0  0  0  0  0
   42.2863   62.5159  169.3248 C   0  0  0  0  0  0  0  0  0  0  0  0
   40.6120   63.8550  165.9353 H   0  0  0  0  0  0  0  0  0  0  0  0
   41.8147   65.0501  165.7543 H   0  0  0  0  0  0  0  0  0  0  0  0
   45.3033   65.6060  168.7511 H   0  0  0  0  0  0  0  0  0  0  0  0
   45.4808   64.6190  170.1302 H   0  0  0  0  0  0  0  0  0  0  0  0
   42.0516   60.8399  171.0856 C   0  0  0  0  0  0  0  0  0  0  0  0
   40.9626   60.7113  172.1679 C   0  0  0  0  0  0  0  0  0  0  0  0
   40.6365   62.0921  172.7274 C   0  0  0  0  0  0  0  0  0  0  0  0
   41.4595   59.8622  173.2379 O   0  0  0  0  0  0  0  0  0  0  0  0
   41.1442   60.4415  174.5281 C   0  0  0  0  0  0  0  0  0  0  0  0
   40.3854   59.4582  175.4154 P   0  0  0  0  0  0  0  0  0  0  0  0
   40.4780   59.9106  176.8408 O   0  0  0  0  0  0  0  0  0  0  0  0
   38.9467   59.4007  175.0043 O   0  0  0  0  0  0  0  0  0  0  0  0
   40.9884   58.0974  175.2925 O   0  0  0  0  0  0  0  0  0  0  0  0
  1  2  1  0  0  0
  1 11  1  0  0  0
  1 16  1  0  0  0
  2  3  2  0  0  0
  3  4  1  0  0  0
  4  5  1  0  0  0
  4 11  2  0  0  0
  5  6  1  0  0  0
  5  7  2  0  0  0
  7  8  1  0  0  0
  8  9  1  0  0  0
  8 10  2  0  0  0
 10 11  1  0  0  0
 16 17  1  0  0  0
 17 18  1  0  0  0
 17 19  1  0  0  0
 19 20  1  0  0  0
 21 20  1  0  0  0
 21 22  2  0  0  0
 21 23  1  0  0  0
 21 24  1  0  0  0
  6 12  1  0  0  0
  6 13  1  0  0  0
  9 14  1  0  0  0
  9 15  1  0  0  0
M  CHG 1  23  -1
M  CHG 1  24  -1
M  END
> <minimizedAffinity>
-7.08084

$$$$
1LVU_9PP_A_6100


 24 25  0  0  0  0  0  0  0  0999 V2000
   41.5825   61.4101  170.0852 N   0  0  0  0  0  0  0  0  0  0  0  0
   42.5497   61.3433  171.0769 C   0  0  0  0  0  0  0  0  0  0  0  0
   43.4888   62.2521  170.8507 N   0  0  0  0  0  0  0  0  0  0  0  0
   43.1306   62.9290  169.6938 C   0  0  0  0  0  0  0  0  0  0  0  0
   43.7715   64.0305  168.9622 C   0  0  0  0  0  0  0  0  0  0  0  0
   44.8400   64.6111  169.2614 N   0  0  0  0  0  0  0  0  0  0  0  0
   43.0374   64.4266  167.7957 N   0  0  0  0  0  0  0  0  0  0  0  0
   41.8220   63.8339  167.3755 C   0  0  0  0  0  0  0  0  0  0  0  0
   41.2157   64.3018  166.2484 N   0  0  0  0  0  0  0  0  0  0  0  0
   41.2291   62.8079  168.0609 N   0  0  0  0  0  0  0  0  0  0  0  0
   41.9319   62.4095  169.1995 C   0  0  0  0  0  0  0  0  0  0  0  0
   45.3416   64.3367  170.0629 H   0  0  0  0  0  0  0  0  0  0  0  0
   45.1785   65.3418  168.6951 H   0  0  0  0  0  0  0  0  0  0  0  0
   41.6242   65.0390  165.7396 H   0  0  0  0  0  0  0  0  0  0  0  0
   40.3692   63.9026  165.9430 H   0  0  0  0  0  0  0  0  0  0  0  0
   40.4451   60.6346  169.9762 C   0  0  0  0  0  0  0  0  0  0  0  0
   39.5787   60.5833  171.2493 C   0  0  0  0  0  0  0  0  0  0  0  0
   39.3658   61.9985  171.7764 C   0  0  0  0  0  0  0  0  0  0  0  0
   40.2664   59.7918  172.2559 O   0  0  0  0  0  0  0  0  0  0  0  0
   39.9246   60.2594  173.5841 C   0  0  0  0  0  0  0  0  0  0  0  0
   41.0465   59.9858  174.5823 P   0  0  0  0  0  0  0  0  0  0  0  0
   41.7168   58.6940  174.2258 O   0  0  0  0  0  0  0  0  0  0  0  0
   42.0514   61.0952  174.5419 O   0  0  0  0  0  0  0  0  0  0  0  0
   40.4821   59.8813  175.9611 O   0  0  0  0  0  0  0  0  0  0  0  0
  1  2  1  0  0  0
  1 11  1  0  0  0
  1 16  1  0  0  0
  2  3  2  0  0  0
  3  4  1  0  0  0
  4  5  1  0  0  0
  4 11  2  0  0  0
  5  6  1  0  0  0
  5  7  2  0  0  0
  7  8  1  0  0  0
  8  9  1  0  0  0
  8 10  2  0  0  0
 10 11  1  0  0  0
 16 17  1  0  0  0
 17 18  1  0  0  0
 17 19  1  0  0  0
 19 20  1  0  0  0
 21 20  1  0  0  0
 21 22  2  0  0  0
 21 23  1  0  0  0
 21 24  1  0  0  0
  6 12  1  0  0  0
  6 13  1  0  0  0
  9 14  1  0  0  0
  9 15  1  0  0  0
M  CHG 1  23  -1
M  CHG 1  24  -1
M  END
> <minimizedAffinity>
-7.04976

$$$$
1LVU_9PP_A_6100


 24 25  0  0  0  0  0  0  0  0999 V2000
   41.6520   61.4433  169.9438 N   0  0  0  0  0  0  0  0  0  0  0  0
   40.5470   61.0926  169.1826 C   0  0  0  0  0  0  0  0  0  0  0  0
   40.4603   61.8865  168.1237 N   0  0  0  0  0  0  0  0  0  0  0  0
   41.5277   62.7704  168.1886 C   0  0  0  0  0  0  0  0  0  0  0  0
   41.9523   63.8639  167.3037 C   0  0  0  0  0  0  0  0  0  0  0  0
   41.3933   64.2365  166.2468 N   0  0  0  0  0  0  0  0  0  0  0  0
   43.1380   64.5258  167.7647 N   0  0  0  0  0  0  0  0  0  0  0  0
   43.8414   64.1785  168.9436 C   0  0  0  0  0  0  0  0  0  0  0  0
   44.9603   64.8821  169.2749 N   0  0  0  0  0  0  0  0  0  0  0  0
   43.4415   63.1586  169.7645 N   0  0  0  0  0  0  0  0  0  0  0  0
   42.2874   62.5040  169.3301 C   0  0  0  0  0  0  0  0  0  0  0  0
   40.5794   63.7800  165.9330 H   0  0  0  0  0  0  0  0  0  0  0  0
   41.7677   64.9860  165.7297 H   0  0  0  0  0  0  0  0  0  0  0  0
   45.2663   65.6198  168.6992 H   0  0  0  0  0  0  0  0  0  0  0  0
   45.4626   64.6529  170.0900 H   0  0  0  0  0  0  0  0  0  0  0  0
   42.0812   60.8487  171.1138 C   0  0  0  0  0  0  0  0  0  0  0  0
   41.6006   61.5448  172.4016 C   0  0  0  0  0  0  0  0  0  0  0  0
   42.6123   61.3042  173.5173 C   0  0  0  0  0  0  0  0  0  0  0  0
   40.3151   60.9868  172.7873 O   0  0  0  0  0  0  0  0  0  0  0  0
   39.2698   61.9789  172.6364 C   0  0  0  0  0  0  0  0  0  0  0  0
   37.9442   61.3411  172.2289 P   0  0  0  0  0  0  0  0  0  0  0  0
   38.0934   59.8502  172.2374 O   0  0  0  0  0  0  0  0  0  0  0  0
   36.8666   61.7386  173.1896 O   0  0  0  0  0  0  0  0  0  0  0  0
   37.5694   61.7887  170.8543 O   0  0  0  0  0  0  0  0  0  0  0  0
  1  2  1  0  0  0
  1 11  1  0  0  0
  1 16  1  0  0  0
  2  3  2  0  0  0
  3  4  1  0  0  0
  4  5  1  0  0  0
  4 11  2  0  0  0
  5  6  1  0  0  0
  5  7  2  0  0  0
  7  8  1  0  0  0
  8  9  1  0  0  0
  8 10  2  0  0  0
 10 11  1  0  0  0
 16 17  1  0  0  0
 17 18  1  0  0  0
 17 19  1  0  0  0
 19 20  1  0  0  0
 21 20  1  0  0  0
 21 22  2  0  0  0
 21 23  1  0  0  0
 21 24  1  0  0  0
  6 12  1  0  0  0
  6 13  1  0  0  0
  9 14  1  0  0  0
  9 15  1  0  0  0
M  CHG 1  23  -1
M  CHG 1  24  -1
M  END
> <minimizedAffinity>
-6.95810

$$$$
1LVU_9PP_A_6100


 24 25  0  0  0  0  0  0  0  0999 V2000
   40.2379   60.9528  172.9685 N   0  0  0  0  0  0  0  0  0  0  0  0
   39.1868   60.3282  173.6231 C   0  0  0  0  0  0  0  0  0  0  0  0
   38.2392   60.0111  172.7510 N   0  0  0  0  0  0  0  0  0  0  0  0
   38.6768   60.4309  171.5031 C   0  0  0  0  0  0  0  0  0  0  0  0
   38.0652   60.3494  170.1695 C   0  0  0  0  0  0  0  0  0  0  0  0
   36.9527   59.8517  169.8812 N   0  0  0  0  0  0  0  0  0  0  0  0
   38.8880   60.9200  169.1429 N   0  0  0  0  0  0  0  0  0  0  0  0
   40.1582   61.5041  169.3679 C   0  0  0  0  0  0  0  0  0  0  0  0
   40.8477   62.0108  168.3074 N   0  0  0  0  0  0  0  0  0  0  0  0
   40.7235   61.5773  170.6125 N   0  0  0  0  0  0  0  0  0  0  0  0
   39.9344   61.0267  171.6240 C   0  0  0  0  0  0  0  0  0  0  0  0
   36.3902   59.4608  170.5883 H   0  0  0  0  0  0  0  0  0  0  0  0
   36.6407   59.8514  168.9475 H   0  0  0  0  0  0  0  0  0  0  0  0
   40.4605   61.9690  167.4032 H   0  0  0  0  0  0  0  0  0  0  0  0
   41.7330   62.4187  168.4454 H   0  0  0  0  0  0  0  0  0  0  0  0
   41.4086   61.4227  173.5303 C   0  0  0  0  0  0  0  0  0  0  0  0
   42.3816   60.3241  173.9996 C   0  0  0  0  0  0  0  0  0  0  0  0
   43.8129   60.8446  173.9192 C   0  0  0  0  0  0  0  0  0  0  0  0
   42.2397   59.1667  173.1318 O   0  0  0  0  0  0  0  0  0  0  0  0
   43.3610   58.2658  173.3066 C   0  0  0  0  0  0  0  0  0  0  0  0
   42.9006   56.8664  173.7065 P   0  0  0  0  0  0  0  0  0  0  0  0
   42.0928   56.9561  174.9652 O   0  0  0  0  0  0  0  0  0  0  0  0
   42.0614   56.2717  172.6182 O   0  0  0  0  0  0  0  0  0  0  0  0
   44.0880   55.9930  173.9469 O   0  0  0  0  0  0  0  0  0  0  0  0
  1  2  1  0  0  0
  1 11  1  0  0  0
  1 16  1  0  0  0
  2  3  2  0  0  0
  3  4  1  0  0  0
  4  5  1  0  0  0
  4 11  2  0  0  0
  5  6  1  0  0  0
  5  7  2  0  0  0
  7  8  1  0  0  0
  8  9  1  0  0  0
  8 10  2  0  0  0
 10 11  1  0  0  0
 16 17  1  0  0  0
 17 18  1  0  0  0
 17 19  1  0  0  0
 19 20  1  0  0  0
 21 20  1  0  0  0
 21 22  2  0  0  0
 21 23  1  0  0  0
 21 24  1  0  0  0
  6 12  1  0  0  0
  6 13  1  0  0  0
  9 14  1  0  0  0
  9 15  1  0  0  0
M  CHG 1  23  -1
M  CHG 1  24  -1
M  END
> <minimizedAffinity>
-6.89246

$$$$
1LVU_9PP_A_6100


 24 25  0  0  0  0  0  0  0  0999 V2000
   41.5111   61.2559  172.7840 N   0  0  0  0  0  0  0  0  0  0  0  0
   42.8643   61.5338  172.6625 C   0  0  0  0  0  0  0  0  0  0  0  0
   43.1697   61.7323  171.3871 N   0  0  0  0  0  0  0  0  0  0  0  0
   41.9972   61.5860  170.6599 C   0  0  0  0  0  0  0  0  0  0  0  0
   41.7138   61.6929  169.2220 C   0  0  0  0  0  0  0  0  0  0  0  0
   42.5327   61.9536  168.3112 N   0  0  0  0  0  0  0  0  0  0  0  0
   40.3339   61.4616  168.9070 N   0  0  0  0  0  0  0  0  0  0  0  0
   39.3341   61.1617  169.8639 C   0  0  0  0  0  0  0  0  0  0  0  0
   38.0540   60.9657  169.4401 N   0  0  0  0  0  0  0  0  0  0  0  0
   39.6036   61.0634  171.2024 N   0  0  0  0  0  0  0  0  0  0  0  0
   40.9435   61.2851  171.5260 C   0  0  0  0  0  0  0  0  0  0  0  0
   43.4793   62.1119  168.5307 H   0  0  0  0  0  0  0  0  0  0  0  0
   42.2299   62.0004  167.3755 H   0  0  0  0  0  0  0  0  0  0  0  0
   37.8371   61.0315  168.4820 H   0  0  0  0  0  0  0  0  0  0  0  0
   37.3459   60.7583  170.0919 H   0  0  0  0  0  0  0  0  0  0  0  0
   40.8136   61.0007  173.9481 C   0  0  0  0  0  0  0  0  0  0  0  0
   40.7996   59.5208  174.3768 C   0  0  0  0  0  0  0  0  0  0  0  0
   40.0517   59.3817  175.6988 C   0  0  0  0  0  0  0  0  0  0  0  0
   42.1697   59.0666  174.5475 O   0  0  0  0  0  0  0  0  0  0  0  0
   42.2145   57.6205  174.6278 C   0  0  0  0  0  0  0  0  0  0  0  0
   43.0338   57.0195  173.4887 P   0  0  0  0  0  0  0  0  0  0  0  0
   43.9222   55.9446  174.0367 O   0  0  0  0  0  0  0  0  0  0  0  0
   42.1228   56.4329  172.4551 O   0  0  0  0  0  0  0  0  0  0  0  0
   43.8771   58.0791  172.8588 O   0  0  0  0  0  0  0  0  0  0  0  0
  1  2  1  0  0  0
  1 11  1  0  0  0
  1 16  1  0  0  0
  2  3  2  0  0  0
  3  4  1  0  0  0
  4  5  1  0  0  0
  4 11  2  0  0  0
  5  6  1  0  0  0
  5  7  2  0  0  0
  7  8  1  0  0  0
  8  9  1  0  0  0
  8 10  2  0  0  0
 10 11  1  0  0  0
 16 17  1  0  0  0
 17 18  1  0  0  0
 17 19  1  0  0  0
 19 20  1  0  0  0
 21 20  1  0  0  0
 21 22  2  0  0  0
 21 23  1  0  0  0
 21 24  1  0  0  0
  6 12  1  0  0  0
  6 13  1  0  0  0
  9 14  1  0  0  0
  9 15  1  0  0  0
M  CHG 1  23  -1
M  CHG 1  24  -1
M  END
> <minimizedAffinity>
-6.69493

$$$$
1LVU_9PP_A_6100


 24 25  0  0  0  0  0  0  0  0999 V2000
   43.3161   60.1756  172.2199 N   0  0  0  0  0  0  0  0  0  0  0  0
   44.2918   59.3401  171.6970 C   0  0  0  0  0  0  0  0  0  0  0  0
   44.2430   58.1597  172.2999 N   0  0  0  0  0  0  0  0  0  0  0  0
   43.2164   58.2199  173.2312 C   0  0  0  0  0  0  0  0  0  0  0  0
   42.6937   57.2289  174.1819 C   0  0  0  0  0  0  0  0  0  0  0  0
   43.1029   56.0571  174.3482 N   0  0  0  0  0  0  0  0  0  0  0  0
   41.6020   57.7298  174.9655 N   0  0  0  0  0  0  0  0  0  0  0  0
   41.0681   59.0363  174.8512 C   0  0  0  0  0  0  0  0  0  0  0  0
   40.0248   59.3942  175.6513 N   0  0  0  0  0  0  0  0  0  0  0  0
   41.5588   59.9557  173.9636 N   0  0  0  0  0  0  0  0  0  0  0  0
   42.6232   59.4840  173.1930 C   0  0  0  0  0  0  0  0  0  0  0  0
   43.8526   55.7163  173.8086 H   0  0  0  0  0  0  0  0  0  0  0  0
   42.6750   55.4767  175.0184 H   0  0  0  0  0  0  0  0  0  0  0  0
   39.6558   58.7492  176.2970 H   0  0  0  0  0  0  0  0  0  0  0  0
   39.6401   60.2979  175.5836 H   0  0  0  0  0  0  0  0  0  0  0  0
   43.0465   61.4777  171.8477 C   0  0  0  0  0  0  0  0  0  0  0  0
   42.9307   61.6999  170.3274 C   0  0  0  0  0  0  0  0  0  0  0  0
   42.7003   63.1811  170.0464 C   0  0  0  0  0  0  0  0  0  0  0  0
   41.8040   60.9322  169.8234 O   0  0  0  0  0  0  0  0  0  0  0  0
   40.5620   61.4474  170.3631 C   0  0  0  0  0  0  0  0  0  0  0  0
   39.3500   60.8493  169.6536 P   0  0  0  0  0  0  0  0  0  0  0  0
   38.4548   61.9584  169.1915 O   0  0  0  0  0  0  0  0  0  0  0  0
   39.7930   60.0428  168.4723 O   0  0  0  0  0  0  0  0  0  0  0  0
   38.5953   59.9703  170.5961 O   0  0  0  0  0  0  0  0  0  0  0  0
  1  2  1  0  0  0
  1 11  1  0  0  0
  1 16  1  0  0  0
  2  3  2  0  0  0
  3  4  1  0  0  0
  4  5  1  0  0  0
  4 11  2  0  0  0
  5  6  1  0  0  0
  5  7  2  0  0  0
  7  8  1  0  0  0
  8  9  1  0  0  0
  8 10  2  0  0  0
 10 11  1  0  0  0
 16 17  1  0  0  0
 17 18  1  0  0  0
 17 19  1  0  0  0
 19 20  1  0  0  0
 21 20  1  0  0  0
 21 22  2  0  0  0
 21 23  1  0  0  0
 21 24  1  0  0  0
  6 12  1  0  0  0
  6 13  1  0  0  0
  9 14  1  0  0  0
  9 15  1  0  0  0
M  CHG 1  23  -1
M  CHG 1  24  -1
M  END
> <minimizedAffinity>
-6.60064

$$$$
1LVU_9PP_A_6100


 24 25  0  0  0  0  0  0  0  0999 V2000
   42.1875   58.0619  173.7757 N   0  0  0  0  0  0  0  0  0  0  0  0
   42.8843   56.8637  173.7297 C   0  0  0  0  0  0  0  0  0  0  0  0
   42.5954   56.1345  174.7992 N   0  0  0  0  0  0  0  0  0  0  0  0
   41.6914   56.8640  175.5578 C   0  0  0  0  0  0  0  0  0  0  0  0
   41.0184   56.5733  176.8312 C   0  0  0  0  0  0  0  0  0  0  0  0
   41.1397   55.5393  177.5274 N   0  0  0  0  0  0  0  0  0  0  0  0
   40.1480   57.6309  177.2561 N   0  0  0  0  0  0  0  0  0  0  0  0
   39.9433   58.8352  176.5398 C   0  0  0  0  0  0  0  0  0  0  0  0
   39.0859   59.7654  177.0461 N   0  0  0  0  0  0  0  0  0  0  0  0
   40.5729   59.1009  175.3537 N   0  0  0  0  0  0  0  0  0  0  0  0
   41.4250   58.0811  174.9262 C   0  0  0  0  0  0  0  0  0  0  0  0
   41.7381   54.8151  177.2329 H   0  0  0  0  0  0  0  0  0  0  0  0
   40.6368   55.4507  178.3691 H   0  0  0  0  0  0  0  0  0  0  0  0
   38.6221   59.5955  177.8977 H   0  0  0  0  0  0  0  0  0  0  0  0
   38.9302   60.6074  176.5603 H   0  0  0  0  0  0  0  0  0  0  0  0
   42.2168   59.0798  172.8430 C   0  0  0  0  0  0  0  0  0  0  0  0
   43.5008   59.9312  172.8619 C   0  0  0  0  0  0  0  0  0  0  0  0
   43.3722   61.0212  173.9209 C   0  0  0  0  0  0  0  0  0  0  0  0
   43.6784   60.5453  171.5565 O   0  0  0  0  0  0  0  0  0  0  0  0
   43.1109   61.8785  171.5458 C   0  0  0  0  0  0  0  0  0  0  0  0
   42.2732   62.1227  170.2934 P   0  0  0  0  0  0  0  0  0  0  0  0
   42.6665   61.1337  169.2389 O   0  0  0  0  0  0  0  0  0  0  0  0
   40.8185   61.9608  170.6094 O   0  0  0  0  0  0  0  0  0  0  0  0
   42.5165   63.5055  169.7842 O   0  0  0  0  0  0  0  0  0  0  0  0
  1  2  1  0  0  0
  1 11  1  0  0  0
  1 16  1  0  0  0
  2  3  2  0  0  0
  3  4  1  0  0  0
  4  5  1  0  0  0
  4 11  2  0  0  0
  5  6  1  0  0  0
  5  7  2  0  0  0
  7  8  1  0  0  0
  8  9  1  0  0  0
  8 10  2  0  0  0
 10 11  1  0  0  0
 16 17  1  0  0  0
 17 18  1  0  0  0
 17 19  1  0  0  0
 19 20  1  0  0  0
 21 20  1  0  0  0
 21 22  2  0  0  0
 21 23  1  0  0  0
 21 24  1  0  0  0
  6 12  1  0  0  0
  6 13  1  0  0  0
  9 14  1  0  0  0
  9 15  1  0  0  0
M  CHG 1  23  -1
M  CHG 1  24  -1
M  END
> <minimizedAffinity>
-6.49878

$$$$
1LVU_9PP_A_6100


 24 25  0  0  0  0  0  0  0  0999 V2000
   42.4509   60.6579  173.2911 N   0  0  0  0  0  0  0  0  0  0  0  0
   43.3889   60.3050  172.3325 C   0  0  0  0  0  0  0  0  0  0  0  0
   43.6366   59.0039  172.4037 N   0  0  0  0  0  0  0  0  0  0  0  0
   42.8457   58.4937  173.4231 C   0  0  0  0  0  0  0  0  0  0  0  0
   42.6881   57.1336  173.9565 C   0  0  0  0  0  0  0  0  0  0  0  0
   43.2791   56.1001  173.5681 N   0  0  0  0  0  0  0  0  0  0  0  0
   41.7418   57.0626  175.0317 N   0  0  0  0  0  0  0  0  0  0  0  0
   41.0239   58.1721  175.5404 C   0  0  0  0  0  0  0  0  0  0  0  0
   40.1473   57.9761  176.5651 N   0  0  0  0  0  0  0  0  0  0  0  0
   41.1744   59.4372  175.0396 N   0  0  0  0  0  0  0  0  0  0  0  0
   42.0933   59.5238  173.9921 C   0  0  0  0  0  0  0  0  0  0  0  0
   43.9282   56.1522  172.8297 H   0  0  0  0  0  0  0  0  0  0  0  0
   43.0946   55.2354  174.0012 H   0  0  0  0  0  0  0  0  0  0  0  0
   40.0229   57.0747  176.9409 H   0  0  0  0  0  0  0  0  0  0  0  0
   39.6384   58.7359  176.9296 H   0  0  0  0  0  0  0  0  0  0  0  0
   41.9310   61.9155  173.5256 C   0  0  0  0  0  0  0  0  0  0  0  0
   40.8916   62.3840  172.4891 C   0  0  0  0  0  0  0  0  0  0  0  0
   39.6098   61.5739  172.6530 C   0  0  0  0  0  0  0  0  0  0  0  0
   41.4284   62.1731  171.1549 O   0  0  0  0  0  0  0  0  0  0  0  0
   40.3519   61.9960  170.2012 C   0  0  0  0  0  0  0  0  0  0  0  0
   40.8665   61.4695  168.8641 P   0  0  0  0  0  0  0  0  0  0  0  0
   40.0702   60.2623  168.4723 O   0  0  0  0  0  0  0  0  0  0  0  0
   40.7249   62.5226  167.8090 O   0  0  0  0  0  0  0  0  0  0  0  0
   42.3050   61.0883  168.9908 O   0  0  0  0  0  0  0  0  0  0  0  0
  1  2  1  0  0  0
  1 11  1  0  0  0
  1 16  1  0  0  0
  2  3  2  0  0  0
  3  4  1  0  0  0
  4  5  1  0  0  0
  4 11  2  0  0  0
  5  6  1  0  0  0
  5  7  2  0  0  0
  7  8  1  0  0  0
  8  9  1  0  0  0
  8 10  2  0  0  0
 10 11  1  0  0  0
 16 17  1  0  0  0
 17 18  1  0  0  0
 17 19  1  0  0  0
 19 20  1  0  0  0
 21 20  1  0  0  0
 21 22  2  0  0  0
 21 23  1  0  0  0
 21 24  1  0  0  0
  6 12  1  0  0  0
  6 13  1  0  0  0
  9 14  1  0  0  0
  9 15  1  0  0  0
M  CHG 1  23  -1
M  CHG 1  24  -1
M  END
> <minimizedAffinity>
-6.46186

$$$$
