3OYW_TDG_A_600


 31 32  0  0  0  0  0  0  0  0999 V2000
   23.7037   -1.7973   17.4659 S   0  0  0  0  0  0  0  0  0  0  0  0
   23.6270   -2.6454   19.0172 C   0  0  0  0  0  0  0  0  0  0  0  0
   24.5066   -1.9581   20.0672 C   0  0  0  0  0  0  0  0  0  0  0  0
   25.8860   -2.0591   19.7103 O   0  0  0  0  0  0  0  0  0  0  0  0
   24.2991   -2.6079   21.4389 C   0  0  0  0  0  0  0  0  0  0  0  0
   25.0435   -1.9310   22.4546 O   0  0  0  0  0  0  0  0  0  0  0  0
   22.8167   -2.6315   21.7990 C   0  0  0  0  0  0  0  0  0  0  0  0
   22.3101   -1.2879   21.8842 O   0  0  0  0  0  0  0  0  0  0  0  0
   22.0804   -3.4018   20.7078 C   0  0  0  0  0  0  0  0  0  0  0  0
   22.2588   -2.7030   19.4645 O   0  0  0  0  0  0  0  0  0  0  0  0
   26.1420   -2.9939   19.6705 H   0  0  0  0  0  0  0  0  0  0  0  0
   24.7341   -1.0145   22.5258 H   0  0  0  0  0  0  0  0  0  0  0  0
   22.4329   -0.8413   21.0319 H   0  0  0  0  0  0  0  0  0  0  0  0
   20.5975   -3.5692   21.0214 C   0  0  0  0  0  0  0  0  0  0  0  0
   19.8925   -2.3692   20.6542 O   0  0  0  0  0  0  0  0  0  0  0  0
   20.2475   -1.6191   21.1565 H   0  0  0  0  0  0  0  0  0  0  0  0
   23.1978   -0.1961   18.0276 C   0  0  0  0  0  0  0  0  0  0  0  0
   23.9067    0.9352   17.2669 C   0  0  0  0  0  0  0  0  0  0  0  0
   25.3233    0.8937   17.4889 O   0  0  0  0  0  0  0  0  0  0  0  0
   23.3783    2.2968   17.7442 C   0  0  0  0  0  0  0  0  0  0  0  0
   23.8988    3.3560   16.9360 O   0  0  0  0  0  0  0  0  0  0  0  0
   21.8484    2.3564   17.7654 C   0  0  0  0  0  0  0  0  0  0  0  0
   21.3477    2.3455   16.4245 O   0  0  0  0  0  0  0  0  0  0  0  0
   21.2977    1.1544   18.5390 C   0  0  0  0  0  0  0  0  0  0  0  0
   21.7704   -0.0522   17.9151 O   0  0  0  0  0  0  0  0  0  0  0  0
   25.5062    1.0126   18.4340 H   0  0  0  0  0  0  0  0  0  0  0  0
   23.5921    3.2462   16.0223 H   0  0  0  0  0  0  0  0  0  0  0  0
   21.6294    1.5302   15.9808 H   0  0  0  0  0  0  0  0  0  0  0  0
   19.7712    1.1951   18.6865 C   0  0  0  0  0  0  0  0  0  0  0  0
   19.2061   -0.1207   18.7458 O   0  0  0  0  0  0  0  0  0  0  0  0
   19.4050   -0.5954   17.9237 H   0  0  0  0  0  0  0  0  0  0  0  0
  2  1  1  0  0  0
  2  3  1  0  0  0
  2 10  1  0  0  0
  1 17  1  0  0  0
  3  4  1  0  0  0
  3  5  1  0  0  0
  5  6  1  0  0  0
  5  7  1  0  0  0
  7  8  1  0  0  0
  7  9  1  0  0  0
  9 10  1  0  0  0
  9 14  1  0  0  0
 14 15  1  0  0  0
 17 18  1  0  0  0
 17 25  1  0  0  0
 18 19  1  0  0  0
 18 20  1  0  0  0
 20 21  1  0  0  0
 20 22  1  0  0  0
 22 23  1  0  0  0
 22 24  1  0  0  0
 24 25  1  0  0  0
 24 29  1  0  0  0
 29 30  1  0  0  0
  4 11  1  0  0  0
  6 12  1  0  0  0
  8 13  1  0  0  0
 15 16  1  0  0  0
 19 26  1  0  0  0
 21 27  1  0  0  0
 23 28  1  0  0  0
 30 31  1  0  0  0
M  END
> <minimizedAffinity>
-6.13975

$$$$
3OYW_TDG_A_600


 31 32  0  0  0  0  0  0  0  0999 V2000
   24.0660   -1.6106   17.2995 S   0  0  0  0  0  0  0  0  0  0  0  0
   23.5087   -3.2096   17.8134 C   0  0  0  0  0  0  0  0  0  0  0  0
   23.1967   -4.1008   16.6064 C   0  0  0  0  0  0  0  0  0  0  0  0
   22.0803   -3.5869   15.8784 O   0  0  0  0  0  0  0  0  0  0  0  0
   22.8752   -5.5253   17.0693 C   0  0  0  0  0  0  0  0  0  0  0  0
   22.6637   -6.3996   15.9580 O   0  0  0  0  0  0  0  0  0  0  0  0
   23.9935   -6.0625   17.9573 C   0  0  0  0  0  0  0  0  0  0  0  0
   25.2240   -6.1244   17.2148 O   0  0  0  0  0  0  0  0  0  0  0  0
   24.1443   -5.1184   19.1456 C   0  0  0  0  0  0  0  0  0  0  0  0
   24.5120   -3.8215   18.6467 O   0  0  0  0  0  0  0  0  0  0  0  0
   21.2982   -3.5748   16.4520 H   0  0  0  0  0  0  0  0  0  0  0  0
   23.4743   -6.4503   15.4277 H   0  0  0  0  0  0  0  0  0  0  0  0
   25.4552   -5.2374   16.8978 H   0  0  0  0  0  0  0  0  0  0  0  0
   25.1755   -5.6185   20.1515 C   0  0  0  0  0  0  0  0  0  0  0  0
   26.4925   -5.2295   19.7200 O   0  0  0  0  0  0  0  0  0  0  0  0
   26.6748   -5.6162   18.8493 H   0  0  0  0  0  0  0  0  0  0  0  0
   23.1509   -0.6380   18.4622 C   0  0  0  0  0  0  0  0  0  0  0  0
   22.3588    0.4877   17.7793 C   0  0  0  0  0  0  0  0  0  0  0  0
   23.2405    1.4153   17.1312 O   0  0  0  0  0  0  0  0  0  0  0  0
   21.5303    1.2515   18.8238 C   0  0  0  0  0  0  0  0  0  0  0  0
   20.6583    2.1930   18.1919 O   0  0  0  0  0  0  0  0  0  0  0  0
   20.7245    0.3164   19.7298 C   0  0  0  0  0  0  0  0  0  0  0  0
   19.6759   -0.2996   18.9748 O   0  0  0  0  0  0  0  0  0  0  0  0
   21.6488   -0.7570   20.3131 C   0  0  0  0  0  0  0  0  0  0  0  0
   22.2655   -1.4737   19.2294 O   0  0  0  0  0  0  0  0  0  0  0  0
   23.8238    1.8219   17.7909 H   0  0  0  0  0  0  0  0  0  0  0  0
   20.0248    1.7201   17.6297 H   0  0  0  0  0  0  0  0  0  0  0  0
   20.0602   -0.8129   18.2470 H   0  0  0  0  0  0  0  0  0  0  0  0
   20.9318   -1.6769   21.3096 C   0  0  0  0  0  0  0  0  0  0  0  0
   19.9717   -2.5204   20.6608 O   0  0  0  0  0  0  0  0  0  0  0  0
   19.2948   -1.9716   20.2346 H   0  0  0  0  0  0  0  0  0  0  0  0
  2  1  1  0  0  0
  2  3  1  0  0  0
  2 10  1  0  0  0
  1 17  1  0  0  0
  3  4  1  0  0  0
  3  5  1  0  0  0
  5  6  1  0  0  0
  5  7  1  0  0  0
  7  8  1  0  0  0
  7  9  1  0  0  0
  9 10  1  0  0  0
  9 14  1  0  0  0
 14 15  1  0  0  0
 17 18  1  0  0  0
 17 25  1  0  0  0
 18 19  1  0  0  0
 18 20  1  0  0  0
 20 21  1  0  0  0
 20 22  1  0  0  0
 22 23  1  0  0  0
 22 24  1  0  0  0
 24 25  1  0  0  0
 24 29  1  0  0  0
 29 30  1  0  0  0
  4 11  1  0  0  0
  6 12  1  0  0  0
  8 13  1  0  0  0
 15 16  1  0  0  0
 19 26  1  0  0  0
 21 27  1  0  0  0
 23 28  1  0  0  0
 30 31  1  0  0  0
M  END
> <minimizedAffinity>
-6.02641

$$$$
3OYW_TDG_A_600


 31 32  0  0  0  0  0  0  0  0999 V2000
   23.8289   -1.4635   17.3925 S   0  0  0  0  0  0  0  0  0  0  0  0
   23.2859    0.0922   18.0380 C   0  0  0  0  0  0  0  0  0  0  0  0
   23.8830    1.2591   17.2440 C   0  0  0  0  0  0  0  0  0  0  0  0
   25.2997    1.3122   17.4188 O   0  0  0  0  0  0  0  0  0  0  0  0
   23.2742    2.5845   17.7125 C   0  0  0  0  0  0  0  0  0  0  0  0
   23.7503    3.6825   16.9302 O   0  0  0  0  0  0  0  0  0  0  0  0
   21.7509    2.5201   17.6586 C   0  0  0  0  0  0  0  0  0  0  0  0
   21.3155    2.3076   16.3042 O   0  0  0  0  0  0  0  0  0  0  0  0
   21.2980    1.3632   18.5432 C   0  0  0  0  0  0  0  0  0  0  0  0
   21.8466    0.1465   18.0095 O   0  0  0  0  0  0  0  0  0  0  0  0
   25.5047    1.4520   18.3566 H   0  0  0  0  0  0  0  0  0  0  0  0
   23.4844    3.5599   16.0055 H   0  0  0  0  0  0  0  0  0  0  0  0
   21.6902    1.4775   15.9706 H   0  0  0  0  0  0  0  0  0  0  0  0
   19.7789    1.2707   18.6378 C   0  0  0  0  0  0  0  0  0  0  0  0
   19.4001   -0.0848   18.9396 O   0  0  0  0  0  0  0  0  0  0  0  0
   19.7176   -0.6733   18.2370 H   0  0  0  0  0  0  0  0  0  0  0  0
   23.7683   -2.3963   18.8964 C   0  0  0  0  0  0  0  0  0  0  0  0
   24.6906   -1.8123   19.9777 C   0  0  0  0  0  0  0  0  0  0  0  0
   26.0632   -1.8633   19.5637 O   0  0  0  0  0  0  0  0  0  0  0  0
   24.5441   -2.6160   21.2791 C   0  0  0  0  0  0  0  0  0  0  0  0
   25.2636   -1.9917   22.3462 O   0  0  0  0  0  0  0  0  0  0  0  0
   23.0803   -2.8176   21.6810 C   0  0  0  0  0  0  0  0  0  0  0  0
   22.5168   -1.5671   22.0899 O   0  0  0  0  0  0  0  0  0  0  0  0
   22.2942   -3.3821   20.4936 C   0  0  0  0  0  0  0  0  0  0  0  0
   22.4170   -2.4741   19.3850 O   0  0  0  0  0  0  0  0  0  0  0  0
   26.3234   -2.7865   19.4197 H   0  0  0  0  0  0  0  0  0  0  0  0
   24.8876   -1.1146   22.5200 H   0  0  0  0  0  0  0  0  0  0  0  0
   22.5621   -0.9362   21.3545 H   0  0  0  0  0  0  0  0  0  0  0  0
   20.8363   -3.7023   20.8481 C   0  0  0  0  0  0  0  0  0  0  0  0
   19.9852   -2.5605   20.6862 O   0  0  0  0  0  0  0  0  0  0  0  0
   20.2786   -1.8517   21.2798 H   0  0  0  0  0  0  0  0  0  0  0  0
  2  1  1  0  0  0
  2  3  1  0  0  0
  2 10  1  0  0  0
  1 17  1  0  0  0
  3  4  1  0  0  0
  3  5  1  0  0  0
  5  6  1  0  0  0
  5  7  1  0  0  0
  7  8  1  0  0  0
  7  9  1  0  0  0
  9 10  1  0  0  0
  9 14  1  0  0  0
 14 15  1  0  0  0
 17 18  1  0  0  0
 17 25  1  0  0  0
 18 19  1  0  0  0
 18 20  1  0  0  0
 20 21  1  0  0  0
 20 22  1  0  0  0
 22 23  1  0  0  0
 22 24  1  0  0  0
 24 25  1  0  0  0
 24 29  1  0  0  0
 29 30  1  0  0  0
  4 11  1  0  0  0
  6 12  1  0  0  0
  8 13  1  0  0  0
 15 16  1  0  0  0
 19 26  1  0  0  0
 21 27  1  0  0  0
 23 28  1  0  0  0
 30 31  1  0  0  0
M  END
> <minimizedAffinity>
-5.80132

$$$$
3OYW_TDG_A_600


 31 32  0  0  0  0  0  0  0  0999 V2000
   24.2500   -1.5270   16.8655 S   0  0  0  0  0  0  0  0  0  0  0  0
   23.5783   -0.2376   17.8744 C   0  0  0  0  0  0  0  0  0  0  0  0
   24.0495    1.1403   17.3971 C   0  0  0  0  0  0  0  0  0  0  0  0
   25.4584    1.2819   17.5855 O   0  0  0  0  0  0  0  0  0  0  0  0
   23.3302    2.2452   18.1773 C   0  0  0  0  0  0  0  0  0  0  0  0
   23.6875    3.5424   17.6938 O   0  0  0  0  0  0  0  0  0  0  0  0
   21.8185    2.0528   18.1030 C   0  0  0  0  0  0  0  0  0  0  0  0
   21.3783    2.1418   16.7364 O   0  0  0  0  0  0  0  0  0  0  0  0
   21.4918    0.6756   18.6711 C   0  0  0  0  0  0  0  0  0  0  0  0
   22.1399   -0.3139   17.8545 O   0  0  0  0  0  0  0  0  0  0  0  0
   25.6679    1.2041   18.5294 H   0  0  0  0  0  0  0  0  0  0  0  0
   23.4161    3.6278   16.7664 H   0  0  0  0  0  0  0  0  0  0  0  0
   21.8215    1.4591   16.2088 H   0  0  0  0  0  0  0  0  0  0  0  0
   19.9898    0.4198   18.7337 C   0  0  0  0  0  0  0  0  0  0  0  0
   19.4933    0.1593   17.4079 O   0  0  0  0  0  0  0  0  0  0  0  0
   19.6682    0.9264   16.8407 H   0  0  0  0  0  0  0  0  0  0  0  0
   23.5023   -2.9061   17.6866 C   0  0  0  0  0  0  0  0  0  0  0  0
   23.0746   -4.0046   16.7010 C   0  0  0  0  0  0  0  0  0  0  0  0
   22.0708   -3.5210   15.7976 O   0  0  0  0  0  0  0  0  0  0  0  0
   22.4998   -5.2031   17.4717 C   0  0  0  0  0  0  0  0  0  0  0  0
   22.2510   -6.3023   16.5908 O   0  0  0  0  0  0  0  0  0  0  0  0
   23.4063   -5.6483   18.6228 C   0  0  0  0  0  0  0  0  0  0  0  0
   24.6009   -6.2346   18.0955 O   0  0  0  0  0  0  0  0  0  0  0  0
   23.7583   -4.4404   19.4967 C   0  0  0  0  0  0  0  0  0  0  0  0
   24.3967   -3.4469   18.6758 O   0  0  0  0  0  0  0  0  0  0  0  0
   21.2859   -3.2522   16.3002 H   0  0  0  0  0  0  0  0  0  0  0  0
   23.0878   -6.6006   16.2016 H   0  0  0  0  0  0  0  0  0  0  0  0
   25.0701   -5.5808   17.5540 H   0  0  0  0  0  0  0  0  0  0  0  0
   24.5878   -4.8237   20.7290 C   0  0  0  0  0  0  0  0  0  0  0  0
   25.9643   -5.0459   20.3968 O   0  0  0  0  0  0  0  0  0  0  0  0
   26.0302   -5.7782   19.7642 H   0  0  0  0  0  0  0  0  0  0  0  0
  2  1  1  0  0  0
  2  3  1  0  0  0
  2 10  1  0  0  0
  1 17  1  0  0  0
  3  4  1  0  0  0
  3  5  1  0  0  0
  5  6  1  0  0  0
  5  7  1  0  0  0
  7  8  1  0  0  0
  7  9  1  0  0  0
  9 10  1  0  0  0
  9 14  1  0  0  0
 14 15  1  0  0  0
 17 18  1  0  0  0
 17 25  1  0  0  0
 18 19  1  0  0  0
 18 20  1  0  0  0
 20 21  1  0  0  0
 20 22  1  0  0  0
 22 23  1  0  0  0
 22 24  1  0  0  0
 24 25  1  0  0  0
 24 29  1  0  0  0
 29 30  1  0  0  0
  4 11  1  0  0  0
  6 12  1  0  0  0
  8 13  1  0  0  0
 15 16  1  0  0  0
 19 26  1  0  0  0
 21 27  1  0  0  0
 23 28  1  0  0  0
 30 31  1  0  0  0
M  END
> <minimizedAffinity>
-5.60809

$$$$
3OYW_TDG_A_600


 31 32  0  0  0  0  0  0  0  0999 V2000
   24.2576   -1.6136   16.8752 S   0  0  0  0  0  0  0  0  0  0  0  0
   23.4441   -2.9634   17.6802 C   0  0  0  0  0  0  0  0  0  0  0  0
   23.0410   -4.0460   16.6732 C   0  0  0  0  0  0  0  0  0  0  0  0
   22.0426   -3.5527   15.7788 O   0  0  0  0  0  0  0  0  0  0  0  0
   22.4890   -5.2723   17.4071 C   0  0  0  0  0  0  0  0  0  0  0  0
   22.1844   -6.3316   16.4965 O   0  0  0  0  0  0  0  0  0  0  0  0
   23.4802   -5.7530   18.4626 C   0  0  0  0  0  0  0  0  0  0  0  0
   24.7115   -6.1519   17.8351 O   0  0  0  0  0  0  0  0  0  0  0  0
   23.7329   -4.6006   19.4291 C   0  0  0  0  0  0  0  0  0  0  0  0
   24.3121   -3.5120   18.6906 O   0  0  0  0  0  0  0  0  0  0  0  0
   21.2522   -3.3029   16.2825 H   0  0  0  0  0  0  0  0  0  0  0  0
   22.9955   -6.6131   16.0451 H   0  0  0  0  0  0  0  0  0  0  0  0
   25.0870   -5.3991   17.3521 H   0  0  0  0  0  0  0  0  0  0  0  0
   24.6397   -5.0070   20.5858 C   0  0  0  0  0  0  0  0  0  0  0  0
   25.5154   -3.9129   20.9143 O   0  0  0  0  0  0  0  0  0  0  0  0
   26.0567   -3.6887   20.1413 H   0  0  0  0  0  0  0  0  0  0  0  0
   23.5602   -0.2938   17.8276 C   0  0  0  0  0  0  0  0  0  0  0  0
   24.0005    1.0861   17.3145 C   0  0  0  0  0  0  0  0  0  0  0  0
   25.4204    1.2497   17.4362 O   0  0  0  0  0  0  0  0  0  0  0  0
   23.3110    2.1910   18.1298 C   0  0  0  0  0  0  0  0  0  0  0  0
   23.5730    3.4787   17.5647 O   0  0  0  0  0  0  0  0  0  0  0  0
   21.8008    1.9705   18.2548 C   0  0  0  0  0  0  0  0  0  0  0  0
   21.1784    2.1686   16.9812 O   0  0  0  0  0  0  0  0  0  0  0  0
   21.5284    0.5483   18.7544 C   0  0  0  0  0  0  0  0  0  0  0  0
   22.1241   -0.3854   17.8368 O   0  0  0  0  0  0  0  0  0  0  0  0
   25.6743    1.1863   18.3703 H   0  0  0  0  0  0  0  0  0  0  0  0
   23.1991    3.5217   16.6707 H   0  0  0  0  0  0  0  0  0  0  0  0
   21.5416    1.5359   16.3419 H   0  0  0  0  0  0  0  0  0  0  0  0
   20.0372    0.2823   18.9974 C   0  0  0  0  0  0  0  0  0  0  0  0
   19.3217    0.0975   17.7692 O   0  0  0  0  0  0  0  0  0  0  0  0
   19.3885    0.9022   17.2319 H   0  0  0  0  0  0  0  0  0  0  0  0
  2  1  1  0  0  0
  2  3  1  0  0  0
  2 10  1  0  0  0
  1 17  1  0  0  0
  3  4  1  0  0  0
  3  5  1  0  0  0
  5  6  1  0  0  0
  5  7  1  0  0  0
  7  8  1  0  0  0
  7  9  1  0  0  0
  9 10  1  0  0  0
  9 14  1  0  0  0
 14 15  1  0  0  0
 17 18  1  0  0  0
 17 25  1  0  0  0
 18 19  1  0  0  0
 18 20  1  0  0  0
 20 21  1  0  0  0
 20 22  1  0  0  0
 22 23  1  0  0  0
 22 24  1  0  0  0
 24 25  1  0  0  0
 24 29  1  0  0  0
 29 30  1  0  0  0
  4 11  1  0  0  0
  6 12  1  0  0  0
  8 13  1  0  0  0
 15 16  1  0  0  0
 19 26  1  0  0  0
 21 27  1  0  0  0
 23 28  1  0  0  0
 30 31  1  0  0  0
M  END
> <minimizedAffinity>
-5.55934

$$$$
3OYW_TDG_A_600


 31 32  0  0  0  0  0  0  0  0999 V2000
   22.7242    4.6502   17.6408 S   0  0  0  0  0  0  0  0  0  0  0  0
   23.6667    4.5746   16.1449 C   0  0  0  0  0  0  0  0  0  0  0  0
   22.7516    4.5128   14.9173 C   0  0  0  0  0  0  0  0  0  0  0  0
   22.0171    3.2878   14.9000 O   0  0  0  0  0  0  0  0  0  0  0  0
   23.5810    4.6133   13.6332 C   0  0  0  0  0  0  0  0  0  0  0  0
   22.7453    4.6442   12.4736 O   0  0  0  0  0  0  0  0  0  0  0  0
   24.4755    5.8486   13.6715 C   0  0  0  0  0  0  0  0  0  0  0  0
   23.6690    7.0372   13.7507 O   0  0  0  0  0  0  0  0  0  0  0  0
   25.3732    5.7407   14.8998 C   0  0  0  0  0  0  0  0  0  0  0  0
   24.5369    5.7201   16.0686 O   0  0  0  0  0  0  0  0  0  0  0  0
   22.6345    2.5413   14.8512 H   0  0  0  0  0  0  0  0  0  0  0  0
   22.1768    5.4295   12.5056 H   0  0  0  0  0  0  0  0  0  0  0  0
   23.1221    7.0041   14.5511 H   0  0  0  0  0  0  0  0  0  0  0  0
   26.3796    6.8835   14.9800 C   0  0  0  0  0  0  0  0  0  0  0  0
   25.7028    8.0899   15.3780 O   0  0  0  0  0  0  0  0  0  0  0  0
   25.0177    8.3063   14.7263 H   0  0  0  0  0  0  0  0  0  0  0  0
   23.0767    3.0234   18.2444 C   0  0  0  0  0  0  0  0  0  0  0  0
   22.0394    1.9930   17.7719 C   0  0  0  0  0  0  0  0  0  0  0  0
   20.7361    2.3051   18.2837 O   0  0  0  0  0  0  0  0  0  0  0  0
   22.4333    0.5917   18.2639 C   0  0  0  0  0  0  0  0  0  0  0  0
   21.5778   -0.4053   17.6979 O   0  0  0  0  0  0  0  0  0  0  0  0
   23.8975    0.2568   17.9662 C   0  0  0  0  0  0  0  0  0  0  0  0
   24.0760    0.0903   16.5559 O   0  0  0  0  0  0  0  0  0  0  0  0
   24.7975    1.3861   18.4775 C   0  0  0  0  0  0  0  0  0  0  0  0
   24.3984    2.6157   17.8472 O   0  0  0  0  0  0  0  0  0  0  0  0
   20.7555    2.2824   19.2532 H   0  0  0  0  0  0  0  0  0  0  0  0
   21.6830   -0.4120   16.7336 H   0  0  0  0  0  0  0  0  0  0  0  0
   23.8376    0.9129   16.1004 H   0  0  0  0  0  0  0  0  0  0  0  0
   26.2901    1.0785   18.3014 C   0  0  0  0  0  0  0  0  0  0  0  0
   26.5240   -0.3182   18.0802 O   0  0  0  0  0  0  0  0  0  0  0  0
   26.2127   -0.8236   18.8474 H   0  0  0  0  0  0  0  0  0  0  0  0
  2  1  1  0  0  0
  2  3  1  0  0  0
  2 10  1  0  0  0
  1 17  1  0  0  0
  3  4  1  0  0  0
  3  5  1  0  0  0
  5  6  1  0  0  0
  5  7  1  0  0  0
  7  8  1  0  0  0
  7  9  1  0  0  0
  9 10  1  0  0  0
  9 14  1  0  0  0
 14 15  1  0  0  0
 17 18  1  0  0  0
 17 25  1  0  0  0
 18 19  1  0  0  0
 18 20  1  0  0  0
 20 21  1  0  0  0
 20 22  1  0  0  0
 22 23  1  0  0  0
 22 24  1  0  0  0
 24 25  1  0  0  0
 24 29  1  0  0  0
 29 30  1  0  0  0
  4 11  1  0  0  0
  6 12  1  0  0  0
  8 13  1  0  0  0
 15 16  1  0  0  0
 19 26  1  0  0  0
 21 27  1  0  0  0
 23 28  1  0  0  0
 30 31  1  0  0  0
M  END
> <minimizedAffinity>
-5.45963

$$$$
3OYW_TDG_A_600


 31 32  0  0  0  0  0  0  0  0999 V2000
   23.2377   -2.5277   19.2960 S   0  0  0  0  0  0  0  0  0  0  0  0
   22.8155   -0.8396   19.6182 C   0  0  0  0  0  0  0  0  0  0  0  0
   23.9469    0.1037   19.1955 C   0  0  0  0  0  0  0  0  0  0  0  0
   25.1026   -0.1025   20.0093 O   0  0  0  0  0  0  0  0  0  0  0  0
   23.4980    1.5622   19.3299 C   0  0  0  0  0  0  0  0  0  0  0  0
   24.5045    2.4630   18.8612 O   0  0  0  0  0  0  0  0  0  0  0  0
   22.1928    1.7902   18.5736 C   0  0  0  0  0  0  0  0  0  0  0  0
   22.3856    1.5323   17.1716 O   0  0  0  0  0  0  0  0  0  0  0  0
   21.1470    0.8376   19.1436 C   0  0  0  0  0  0  0  0  0  0  0  0
   21.5973   -0.5096   18.9237 O   0  0  0  0  0  0  0  0  0  0  0  0
   24.8842    0.0876   20.9351 H   0  0  0  0  0  0  0  0  0  0  0  0
   24.6681    2.3028   17.9186 H   0  0  0  0  0  0  0  0  0  0  0  0
   22.6793    0.6161   17.0488 H   0  0  0  0  0  0  0  0  0  0  0  0
   19.7718    1.0522   18.5206 C   0  0  0  0  0  0  0  0  0  0  0  0
   19.6619    0.2643   17.3210 O   0  0  0  0  0  0  0  0  0  0  0  0
   20.3487    0.5355   16.6920 H   0  0  0  0  0  0  0  0  0  0  0  0
   22.5852   -3.2393   20.7804 C   0  0  0  0  0  0  0  0  0  0  0  0
   22.6830   -2.2780   21.9751 C   0  0  0  0  0  0  0  0  0  0  0  0
   24.0517   -1.9744   22.2788 O   0  0  0  0  0  0  0  0  0  0  0  0
   22.0392   -2.9181   23.2147 C   0  0  0  0  0  0  0  0  0  0  0  0
   21.9677   -1.9801   24.2924 O   0  0  0  0  0  0  0  0  0  0  0  0
   20.6487   -3.4893   22.9234 C   0  0  0  0  0  0  0  0  0  0  0  0
   19.7292   -2.4189   22.6838 O   0  0  0  0  0  0  0  0  0  0  0  0
   20.7157   -4.4054   21.6975 C   0  0  0  0  0  0  0  0  0  0  0  0
   21.2200   -3.6491   20.5829 O   0  0  0  0  0  0  0  0  0  0  0  0
   24.5189   -2.7906   22.5165 H   0  0  0  0  0  0  0  0  0  0  0  0
   21.3974   -1.2380   24.0377 H   0  0  0  0  0  0  0  0  0  0  0  0
   20.0280   -1.9008   21.9201 H   0  0  0  0  0  0  0  0  0  0  0  0
   19.3772   -5.0932   21.3994 C   0  0  0  0  0  0  0  0  0  0  0  0
   18.4049   -4.8321   22.4196 O   0  0  0  0  0  0  0  0  0  0  0  0
   18.7253   -5.1773   23.2676 H   0  0  0  0  0  0  0  0  0  0  0  0
  2  1  1  0  0  0
  2  3  1  0  0  0
  2 10  1  0  0  0
  1 17  1  0  0  0
  3  4  1  0  0  0
  3  5  1  0  0  0
  5  6  1  0  0  0
  5  7  1  0  0  0
  7  8  1  0  0  0
  7  9  1  0  0  0
  9 10  1  0  0  0
  9 14  1  0  0  0
 14 15  1  0  0  0
 17 18  1  0  0  0
 17 25  1  0  0  0
 18 19  1  0  0  0
 18 20  1  0  0  0
 20 21  1  0  0  0
 20 22  1  0  0  0
 22 23  1  0  0  0
 22 24  1  0  0  0
 24 25  1  0  0  0
 24 29  1  0  0  0
 29 30  1  0  0  0
  4 11  1  0  0  0
  6 12  1  0  0  0
  8 13  1  0  0  0
 15 16  1  0  0  0
 19 26  1  0  0  0
 21 27  1  0  0  0
 23 28  1  0  0  0
 30 31  1  0  0  0
M  END
> <minimizedAffinity>
-5.43365

$$$$
3OYW_TDG_A_600


 31 32  0  0  0  0  0  0  0  0999 V2000
   21.6393    2.1709   17.6270 S   0  0  0  0  0  0  0  0  0  0  0  0
   21.8199    1.2421   19.1224 C   0  0  0  0  0  0  0  0  0  0  0  0
   20.7611    0.1383   19.2190 C   0  0  0  0  0  0  0  0  0  0  0  0
   19.4558    0.7046   19.3447 O   0  0  0  0  0  0  0  0  0  0  0  0
   21.0354   -0.7532   20.4343 C   0  0  0  0  0  0  0  0  0  0  0  0
   20.1124   -1.8431   20.5005 O   0  0  0  0  0  0  0  0  0  0  0  0
   22.4679   -1.2769   20.3989 C   0  0  0  0  0  0  0  0  0  0  0  0
   22.6671   -2.0848   19.2255 O   0  0  0  0  0  0  0  0  0  0  0  0
   23.4069   -0.0754   20.3745 C   0  0  0  0  0  0  0  0  0  0  0  0
   23.1440    0.6776   19.1787 O   0  0  0  0  0  0  0  0  0  0  0  0
   19.4102    1.2352   20.1554 H   0  0  0  0  0  0  0  0  0  0  0  0
   20.2124   -2.3998   19.7125 H   0  0  0  0  0  0  0  0  0  0  0  0
   22.4934   -1.5527   18.4333 H   0  0  0  0  0  0  0  0  0  0  0  0
   24.8734   -0.4888   20.4369 C   0  0  0  0  0  0  0  0  0  0  0  0
   25.3999   -0.5869   19.1008 O   0  0  0  0  0  0  0  0  0  0  0  0
   24.8969   -1.2502   18.6029 H   0  0  0  0  0  0  0  0  0  0  0  0
   22.9619    3.3203   17.8818 C   0  0  0  0  0  0  0  0  0  0  0  0
   24.1439    3.0625   16.9344 C   0  0  0  0  0  0  0  0  0  0  0  0
   24.7217    1.7716   17.1742 O   0  0  0  0  0  0  0  0  0  0  0  0
   25.2284    4.1294   17.1497 C   0  0  0  0  0  0  0  0  0  0  0  0
   26.2609    4.0107   16.1668 O   0  0  0  0  0  0  0  0  0  0  0  0
   24.6601    5.5513   17.1444 C   0  0  0  0  0  0  0  0  0  0  0  0
   24.2276    5.8918   15.8232 O   0  0  0  0  0  0  0  0  0  0  0  0
   23.4814    5.6375   18.1191 C   0  0  0  0  0  0  0  0  0  0  0  0
   22.4896    4.6711   17.7307 O   0  0  0  0  0  0  0  0  0  0  0  0
   25.0570    1.7313   18.0835 H   0  0  0  0  0  0  0  0  0  0  0  0
   25.8883    4.1703   15.2856 H   0  0  0  0  0  0  0  0  0  0  0  0
   23.5383    5.2714   15.5387 H   0  0  0  0  0  0  0  0  0  0  0  0
   22.9182    7.0593   18.2415 C   0  0  0  0  0  0  0  0  0  0  0  0
   23.8179    8.0372   17.7044 O   0  0  0  0  0  0  0  0  0  0  0  0
   24.6532    8.0132   18.1970 H   0  0  0  0  0  0  0  0  0  0  0  0
  2  1  1  0  0  0
  2  3  1  0  0  0
  2 10  1  0  0  0
  1 17  1  0  0  0
  3  4  1  0  0  0
  3  5  1  0  0  0
  5  6  1  0  0  0
  5  7  1  0  0  0
  7  8  1  0  0  0
  7  9  1  0  0  0
  9 10  1  0  0  0
  9 14  1  0  0  0
 14 15  1  0  0  0
 17 18  1  0  0  0
 17 25  1  0  0  0
 18 19  1  0  0  0
 18 20  1  0  0  0
 20 21  1  0  0  0
 20 22  1  0  0  0
 22 23  1  0  0  0
 22 24  1  0  0  0
 24 25  1  0  0  0
 24 29  1  0  0  0
 29 30  1  0  0  0
  4 11  1  0  0  0
  6 12  1  0  0  0
  8 13  1  0  0  0
 15 16  1  0  0  0
 19 26  1  0  0  0
 21 27  1  0  0  0
 23 28  1  0  0  0
 30 31  1  0  0  0
M  END
> <minimizedAffinity>
-5.36239

$$$$
3OYW_TDG_A_600


 31 32  0  0  0  0  0  0  0  0999 V2000
   21.7608    1.1972   17.6603 S   0  0  0  0  0  0  0  0  0  0  0  0
   22.9741   -0.0151   18.0959 C   0  0  0  0  0  0  0  0  0  0  0  0
   22.9257   -0.3323   19.5945 C   0  0  0  0  0  0  0  0  0  0  0  0
   23.3163    0.8076   20.3616 O   0  0  0  0  0  0  0  0  0  0  0  0
   23.8667   -1.4966   19.9197 C   0  0  0  0  0  0  0  0  0  0  0  0
   23.7777   -1.8701   21.2969 O   0  0  0  0  0  0  0  0  0  0  0  0
   23.5598   -2.6955   19.0274 C   0  0  0  0  0  0  0  0  0  0  0  0
   22.2175   -3.1546   19.2655 O   0  0  0  0  0  0  0  0  0  0  0  0
   23.7133   -2.2524   17.5761 C   0  0  0  0  0  0  0  0  0  0  0  0
   22.7580   -1.2095   17.3200 O   0  0  0  0  0  0  0  0  0  0  0  0
   24.2276    1.0520   20.1364 H   0  0  0  0  0  0  0  0  0  0  0  0
   22.8766   -2.1711   21.4926 H   0  0  0  0  0  0  0  0  0  0  0  0
   21.5923   -2.4374   19.0768 H   0  0  0  0  0  0  0  0  0  0  0  0
   23.5227   -3.4068   16.5981 C   0  0  0  0  0  0  0  0  0  0  0  0
   22.1582   -3.4254   16.1402 O   0  0  0  0  0  0  0  0  0  0  0  0
   21.5643   -3.5413   16.8983 H   0  0  0  0  0  0  0  0  0  0  0  0
   22.8506    2.5727   17.4252 C   0  0  0  0  0  0  0  0  0  0  0  0
   22.3471    3.5308   16.3345 C   0  0  0  0  0  0  0  0  0  0  0  0
   22.2955    2.8753   15.0596 O   0  0  0  0  0  0  0  0  0  0  0  0
   23.2907    4.7384   16.2236 C   0  0  0  0  0  0  0  0  0  0  0  0
   22.7542    5.7232   15.3357 O   0  0  0  0  0  0  0  0  0  0  0  0
   23.5959    5.3699   17.5847 C   0  0  0  0  0  0  0  0  0  0  0  0
   22.4211    6.0113   18.0920 O   0  0  0  0  0  0  0  0  0  0  0  0
   24.0629    4.2861   18.5614 C   0  0  0  0  0  0  0  0  0  0  0  0
   23.0373    3.2830   18.6628 O   0  0  0  0  0  0  0  0  0  0  0  0
   23.1862    2.5839   14.8095 H   0  0  0  0  0  0  0  0  0  0  0  0
   21.9173    6.0592   15.6932 H   0  0  0  0  0  0  0  0  0  0  0  0
   21.7139    5.3555   18.1956 H   0  0  0  0  0  0  0  0  0  0  0  0
   24.4806    4.8569   19.9227 C   0  0  0  0  0  0  0  0  0  0  0  0
   24.5365    3.8410   20.9323 O   0  0  0  0  0  0  0  0  0  0  0  0
   23.6577    3.4450   21.0415 H   0  0  0  0  0  0  0  0  0  0  0  0
  2  1  1  0  0  0
  2  3  1  0  0  0
  2 10  1  0  0  0
  1 17  1  0  0  0
  3  4  1  0  0  0
  3  5  1  0  0  0
  5  6  1  0  0  0
  5  7  1  0  0  0
  7  8  1  0  0  0
  7  9  1  0  0  0
  9 10  1  0  0  0
  9 14  1  0  0  0
 14 15  1  0  0  0
 17 18  1  0  0  0
 17 25  1  0  0  0
 18 19  1  0  0  0
 18 20  1  0  0  0
 20 21  1  0  0  0
 20 22  1  0  0  0
 22 23  1  0  0  0
 22 24  1  0  0  0
 24 25  1  0  0  0
 24 29  1  0  0  0
 29 30  1  0  0  0
  4 11  1  0  0  0
  6 12  1  0  0  0
  8 13  1  0  0  0
 15 16  1  0  0  0
 19 26  1  0  0  0
 21 27  1  0  0  0
 23 28  1  0  0  0
 30 31  1  0  0  0
M  END
> <minimizedAffinity>
-5.31233

$$$$
3OYW_TDG_A_600


 31 32  0  0  0  0  0  0  0  0999 V2000
   24.7091   -2.2450   19.1071 S   0  0  0  0  0  0  0  0  0  0  0  0
   23.7150   -3.3274   18.1213 C   0  0  0  0  0  0  0  0  0  0  0  0
   24.0925   -3.2285   16.6393 C   0  0  0  0  0  0  0  0  0  0  0  0
   23.7714   -1.9352   16.1249 O   0  0  0  0  0  0  0  0  0  0  0  0
   23.3377   -4.2872   15.8291 C   0  0  0  0  0  0  0  0  0  0  0  0
   23.7350   -4.2740   14.4557 O   0  0  0  0  0  0  0  0  0  0  0  0
   23.5567   -5.6732   16.4280 C   0  0  0  0  0  0  0  0  0  0  0  0
   24.9530   -6.0152   16.3779 O   0  0  0  0  0  0  0  0  0  0  0  0
   23.0757   -5.6411   17.8750 C   0  0  0  0  0  0  0  0  0  0  0  0
   23.8686   -4.6802   18.5920 O   0  0  0  0  0  0  0  0  0  0  0  0
   22.8162   -1.7848   16.2015 H   0  0  0  0  0  0  0  0  0  0  0  0
   24.6790   -4.4870   14.3901 H   0  0  0  0  0  0  0  0  0  0  0  0
   25.4648   -5.3588   16.8760 H   0  0  0  0  0  0  0  0  0  0  0  0
   23.1602   -7.0104   18.5407 C   0  0  0  0  0  0  0  0  0  0  0  0
   23.1546   -8.0349   17.5296 O   0  0  0  0  0  0  0  0  0  0  0  0
   22.3355   -7.9753   17.0134 H   0  0  0  0  0  0  0  0  0  0  0  0
   23.4085   -1.4836   20.0367 C   0  0  0  0  0  0  0  0  0  0  0  0
   22.2757   -0.9701   19.1344 C   0  0  0  0  0  0  0  0  0  0  0  0
   22.7491    0.0547   18.2494 O   0  0  0  0  0  0  0  0  0  0  0  0
   21.1456   -0.3860   19.9961 C   0  0  0  0  0  0  0  0  0  0  0  0
   20.0106   -0.0557   19.1906 O   0  0  0  0  0  0  0  0  0  0  0  0
   20.7281   -1.3263   21.1302 C   0  0  0  0  0  0  0  0  0  0  0  0
   20.0659   -2.4726   20.5858 O   0  0  0  0  0  0  0  0  0  0  0  0
   21.9670   -1.7633   21.9181 C   0  0  0  0  0  0  0  0  0  0  0  0
   22.8872   -2.4010   21.0152 O   0  0  0  0  0  0  0  0  0  0  0  0
   23.0766    0.8052   18.7695 H   0  0  0  0  0  0  0  0  0  0  0  0
   19.6578   -0.8621   18.7829 H   0  0  0  0  0  0  0  0  0  0  0  0
   20.6694   -2.9412   19.9882 H   0  0  0  0  0  0  0  0  0  0  0  0
   21.6187   -2.6330   23.1330 C   0  0  0  0  0  0  0  0  0  0  0  0
   20.2087   -2.6503   23.3895 O   0  0  0  0  0  0  0  0  0  0  0  0
   19.9038   -1.7496   23.5812 H   0  0  0  0  0  0  0  0  0  0  0  0
  2  1  1  0  0  0
  2  3  1  0  0  0
  2 10  1  0  0  0
  1 17  1  0  0  0
  3  4  1  0  0  0
  3  5  1  0  0  0
  5  6  1  0  0  0
  5  7  1  0  0  0
  7  8  1  0  0  0
  7  9  1  0  0  0
  9 10  1  0  0  0
  9 14  1  0  0  0
 14 15  1  0  0  0
 17 18  1  0  0  0
 17 25  1  0  0  0
 18 19  1  0  0  0
 18 20  1  0  0  0
 20 21  1  0  0  0
 20 22  1  0  0  0
 22 23  1  0  0  0
 22 24  1  0  0  0
 24 25  1  0  0  0
 24 29  1  0  0  0
 29 30  1  0  0  0
  4 11  1  0  0  0
  6 12  1  0  0  0
  8 13  1  0  0  0
 15 16  1  0  0  0
 19 26  1  0  0  0
 21 27  1  0  0  0
 23 28  1  0  0  0
 30 31  1  0  0  0
M  END
> <minimizedAffinity>
-5.29360

$$$$
