3OYW_TDG_A_600
  RCSB PDB12061710113D
Coordinates from PDB:3OYW:A:600 Model:1 without hydrogens
 23 24  0  0  0  0            999 V2000
   23.3850    0.3650   17.8970   C 0  0  0  0  0  0  0  0  0  0  0  0
   24.2870   -0.9310   17.0980   S 0  0  0  0  0  0  0  0  0  0  0  0
   23.7660    1.7360   17.3280   C 0  0  0  0  0  0  0  0  0  0  0  0
   25.1250    2.0480   17.6380   O 0  0  0  0  0  0  0  0  0  0  0  0
   22.8600    2.8230   17.9150   C 0  0  0  0  0  0  0  0  0  0  0  0
   23.1370    4.1010   17.3370   O 0  0  0  0  0  0  0  0  0  0  0  0
   21.3920    2.4600   17.7130   C 0  0  0  0  0  0  0  0  0  0  0  0
   21.0960    2.3730   16.3080   O 0  0  0  0  0  0  0  0  0  0  0  0
   21.1440    1.1140   18.3860   C 0  0  0  0  0  0  0  0  0  0  0  0
   21.9720    0.1300   17.7440   O 0  0  0  0  0  0  0  0  0  0  0  0
   19.6770    0.7020   18.3270   C 0  0  0  0  0  0  0  0  0  0  0  0
   19.4940   -0.5220   19.0620   O 0  0  0  0  0  0  0  0  0  0  0  0
   23.5920   -2.3020   17.9770   C 0  0  0  0  0  0  0  0  0  0  0  0
   23.2320   -3.4670   17.0420   C 0  0  0  0  0  0  0  0  0  0  0  0
   22.2210   -3.0770   16.1020   O 0  0  0  0  0  0  0  0  0  0  0  0
   22.7020   -4.6520   17.8640   C 0  0  0  0  0  0  0  0  0  0  0  0
   22.5190   -5.8040   17.0360   O 0  0  0  0  0  0  0  0  0  0  0  0
   23.6100   -4.9960   19.0480   C 0  0  0  0  0  0  0  0  0  0  0  0
   24.8390   -5.5500   18.5670   O 0  0  0  0  0  0  0  0  0  0  0  0
   23.8910   -3.7310   19.8650   C 0  0  0  0  0  0  0  0  0  0  0  0
   24.4950   -2.7500   19.0040   O 0  0  0  0  0  0  0  0  0  0  0  0
   24.7180   -4.0130   21.1260   C 0  0  0  0  0  0  0  0  0  0  0  0
   26.0670   -3.5470   20.9940   O 0  0  0  0  0  0  0  0  0  0  0  0
  1  2  1  0  0  0  0
  1  3  1  0  0  0  0
  1 10  1  0  0  0  0
  2 13  1  0  0  0  0
  3  4  1  0  0  0  0
  3  5  1  0  0  0  0
  5  6  1  0  0  0  0
  5  7  1  0  0  0  0
  7  8  1  0  0  0  0
  7  9  1  0  0  0  0
  9 10  1  0  0  0  0
  9 11  1  0  0  0  0
 11 12  1  0  0  0  0
 13 14  1  0  0  0  0
 13 21  1  0  0  0  0
 14 15  1  0  0  0  0
 14 16  1  0  0  0  0
 16 17  1  0  0  0  0
 16 18  1  0  0  0  0
 18 19  1  0  0  0  0
 18 20  1  0  0  0  0
 20 21  1  0  0  0  0
 20 22  1  0  0  0  0
 22 23  1  0  0  0  0
A    1
C1
A    2
S1
A    3
C2
A    4
O2
A    5
C3
A    6
O3
A    7
C4
A    8
O4
A    9
C5
A   10
O5
A   11
C6
A   12
O6
A   13
C1'
A   14
C2'
A   15
O2'
A   16
C3'
A   17
O3'
A   18
C4'
A   19
O4'
A   20
C5'
A   21
O5'
A   22
C6'
A   23
O6'
M  END
>  <InstanceId>
3OYW_TDG_A_600

>  <ChemCompId>
TDG

>  <PdbId>
3OYW

>  <ChainId>
A

>  <ResidueNumber>
600

>  <InsertionCode>


>  <Model>
1

>  <AltIds>


>  <MissingHeavyAtoms>
0

>  <ObservedFormula>
C12 O10 S

>  <Name>
THIODIGALACTOSIDE

>  <SystematicName>
(2R,3R,4S,5R,6S)-2-(hydroxymethyl)-6-[(2S,3R,4S,5R,6R)-3,4,5-trihydroxy-6-(hydroxymethyl)oxan-2-yl]sulfanyl-oxane-3,4,5-triol

>  <Synonyms>


>  <Type>
SACCHARIDE

>  <Formula>
C12 H22 O10 S

>  <MolecularWeight>
358.362

>  <ModifiedDate>
2011-06-04

>  <Parent>


>  <OneLetterCode>


>  <SubcomponentList>


>  <AmbiguousFlag>
N

>  <InChI>
InChI=1S/C12H22O10S/c13-1-3-5(15)7(17)9(19)11(21-3)23-12-10(20)8(18)6(16)4(2-14)22-12/h3-20H,1-2H2/t3-,4-,5+,6+,7+,8+,9-,10-,11+,12+/m1/s1

>  <InChIKey>
SYKYBMOFPMXDRQ-ZFDCCPEWSA-N

>  <SMILES>
C([C@@H]1[C@@H]([C@@H]([C@H]([C@@H](O1)S[C@H]2[C@@H]([C@H]([C@H]([C@H](O2)CO)O)O)O)O)O)O)O

$$$$
