1DET_2GP_A_105
  RCSB PDB12061702163D
Coordinates from PDB:1DET:A:105 Model:1 without hydrogens
 24 26  0  0  0  0            999 V2000
   22.7350  -47.6960   -0.0090   P 0  0  0  0  0  0  0  0  0  0  0  0
   23.9020  -47.3570   -0.7320   O 0  0  0  0  0  0  0  0  0  0  0  0
   21.5810  -47.3360   -0.7480   O 0  0  0  0  0  0  0  0  0  0  0  0
   22.7660  -49.1440   -0.1880   O 0  0  0  0  0  0  0  0  0  0  0  0
   19.6270  -47.8520    3.9310   O 0  0  0  0  0  0  0  0  0  0  0  0
   19.5520  -46.4330    4.1580   C 0  0  0  0  0  0  0  0  0  0  0  0
   20.8460  -45.7400    3.7100   C 0  0  0  0  0  0  0  0  0  0  0  0
   21.8990  -46.4050    4.4610   O 0  0  0  0  0  0  0  0  0  0  0  0
   21.2500  -45.8080    2.2670   C 0  0  0  0  0  0  0  0  0  0  0  0
   21.5680  -44.5100    1.7080   O 0  0  0  0  0  0  0  0  0  0  0  0
   22.6520  -46.4380    2.2270   C 0  0  0  0  0  0  0  0  0  0  0  0
   22.6900  -47.5800    1.4800   O 0  0  0  0  0  0  0  0  0  0  0  0
   23.0550  -46.5180    3.6710   C 0  0  0  0  0  0  0  0  0  0  0  0
   23.8290  -47.7260    4.1120   N 0  0  0  0  0  0  0  0  0  0  0  0
   23.4390  -48.9790    4.5070   C 0  0  0  0  0  0  0  0  0  0  0  0
   24.4330  -49.7590    4.7810   N 0  0  0  0  0  0  0  0  0  0  0  0
   25.5670  -48.9470    4.5580   C 0  0  0  0  0  0  0  0  0  0  0  0
   26.9630  -49.2380    4.6790   C 0  0  0  0  0  0  0  0  0  0  0  0
   27.4420  -50.3000    5.0250   O 0  0  0  0  0  0  0  0  0  0  0  0
   27.7440  -48.1120    4.4130   N 0  0  0  0  0  0  0  0  0  0  0  0
   27.2890  -46.8680    4.0140   C 0  0  0  0  0  0  0  0  0  0  0  0
   28.2310  -45.9750    3.7670   N 0  0  0  0  0  0  0  0  0  0  0  0
   25.9910  -46.6070    3.8680   N 0  0  0  0  0  0  0  0  0  0  0  0
   25.2100  -47.6780    4.1580   C 0  0  0  0  0  0  0  0  0  0  0  0
  1  2  2  0  0  0  0
  1  3  1  0  0  0  0
  1  4  1  0  0  0  0
  1 12  1  0  0  0  0
  5  6  1  0  0  0  0
  6  7  1  0  0  0  0
  7  8  1  0  0  0  0
  7  9  1  0  0  0  0
  8 13  1  0  0  0  0
  9 10  1  0  0  0  0
  9 11  1  0  0  0  0
 11 12  1  0  0  0  0
 11 13  1  0  0  0  0
 13 14  1  0  0  0  0
 14 15  1  0  0  0  0
 14 24  1  0  0  0  0
 15 16  2  0  0  0  0
 16 17  1  0  0  0  0
 17 18  1  0  0  0  0
 17 24  2  0  0  0  0
 18 19  2  0  0  0  0
 18 20  1  0  0  0  0
 20 21  1  0  0  0  0
 21 22  1  0  0  0  0
 21 23  2  0  0  0  0
 23 24  1  0  0  0  0
A    1
P
A    2
O1P
A    3
O2P
A    4
O3P
A    5
O5'
A    6
C5'
A    7
C4'
A    8
O4'
A    9
C3'
A   10
O3'
A   11
C2'
A   12
O2'
A   13
C1'
A   14
N9
A   15
C8
A   16
N7
A   17
C5
A   18
C6
A   19
O6
A   20
N1
A   21
C2
A   22
N2
A   23
N3
A   24
C4
M  END
>  <InstanceId>
1DET_2GP_A_105

>  <ChemCompId>
2GP

>  <PdbId>
1DET

>  <ChainId>
A

>  <ResidueNumber>
105

>  <InsertionCode>


>  <Model>
1

>  <AltIds>


>  <MissingHeavyAtoms>
0

>  <ObservedFormula>
C10 N5 O8 P

>  <Name>
GUANOSINE-2'-MONOPHOSPHATE

>  <SystematicName>
[(2R,3R,4R,5R)-2-(2-amino-6-oxo-1H-purin-9-yl)-4-hydroxy-5-(hydroxymethyl)oxolan-3-yl] dihydrogen phosphate

>  <Synonyms>


>  <Type>
NON-POLYMER

>  <Formula>
C10 H14 N5 O8 P

>  <MolecularWeight>
363.221

>  <ModifiedDate>
2011-06-04

>  <Parent>


>  <OneLetterCode>


>  <SubcomponentList>


>  <AmbiguousFlag>
N

>  <InChI>
InChI=1S/C10H14N5O8P/c11-10-13-7-4(8(18)14-10)12-2-15(7)9-6(23-24(19,20)21)5(17)3(1-16)22-9/h2-3,5-6,9,16-17H,1H2,(H2,19,20,21)(H3,11,13,14,18)/t3-,5-,6-,9-/m1/s1

>  <InChIKey>
WTIFIAZWCCBCGE-UUOKFMHZSA-N

>  <SMILES>
c1nc2c(n1[C@H]3[C@@H]([C@@H]([C@H](O3)CO)O)OP(=O)(O)O)N=C(NC2=O)N

$$$$
