5CJ6_51Y_A_1001


 20 21  0  0  0  0  0  0  0  0999 V2000
  -27.5261    3.7152   -4.3497 C   0  0  0  0  0  0  0  0  0  0  0  0
  -26.5487    2.8129   -4.7263 C   0  0  0  0  0  0  0  0  0  0  0  0
  -27.2690    5.0665   -4.3031 C   0  0  0  0  0  0  0  0  0  0  0  0
  -24.2299    2.3166   -5.4660 C   0  0  0  0  0  0  0  0  0  0  0  0
  -25.2969    3.2813   -5.0627 C   0  0  0  0  0  0  0  0  0  0  0  0
  -25.0407    4.6326   -5.0150 C   0  0  0  0  0  0  0  0  0  0  0  0
  -26.0170    5.5289   -4.6378 C   0  0  0  0  0  0  0  0  0  0  0  0
  -23.4740    5.2173   -5.4289 Cl  0  0  0  0  0  0  0  0  0  0  0  0
  -26.7477    1.4252   -4.8018 N   0  0  0  0  0  0  0  0  0  0  0  0
  -26.1586    0.8389   -5.3294 H   0  0  0  0  0  0  0  0  0  0  0  0
  -27.8725    0.9142   -4.0553 C   0  0  0  0  0  0  0  0  0  0  0  0
  -29.0540    0.5558   -4.9350 C   0  0  0  0  0  0  0  0  0  0  0  0
  -30.1378    1.3400   -4.4872 O   0  0  0  0  0  0  0  0  0  0  0  0
  -28.8528    0.7771   -6.4196 C   0  0  0  0  0  0  0  0  0  0  0  0
  -29.4016   -0.8861   -4.6885 C   0  0  0  0  0  0  0  0  0  0  0  0
  -28.5589   -1.3513   -3.5318 C   0  0  0  0  0  0  0  0  0  0  0  0
  -27.4249   -0.3680   -3.3901 C   0  0  0  0  0  0  0  0  0  0  0  0
  -30.9220    1.1442   -5.0236 H   0  0  0  0  0  0  0  0  0  0  0  0
  -25.7259    6.9259   -4.6007 C   0  0  0  0  0  0  0  0  0  0  0  0
  -25.4483    8.0581   -4.6017 N   0  0  0  0  0  0  0  0  0  0  0  0
 14 12  1  0  0  0
  8  6  1  0  0  0
  4  5  1  0  0  0
 12 15  1  0  0  0
 12 13  1  0  0  0
 12 11  1  0  0  0
 15 16  1  0  0  0
  5  6  2  0  0  0
  5  2  1  0  0  0
  6  7  1  0  0  0
 20 19  3  0  0  0
  9  2  1  0  0  0
  9 11  1  0  0  0
 19  7  1  0  0  0
  7  3  2  0  0  0
  2  1  2  0  0  0
  3  1  1  0  0  0
 11 17  1  0  0  0
 16 17  1  0  0  0
  9 10  1  0  0  0
 13 18  1  0  0  0
M  END
> <minimizedAffinity>
-8.96084

$$$$
5CJ6_51Y_A_1001


 20 21  0  0  0  0  0  0  0  0999 V2000
  -27.3257    4.1262   -4.0408 C   0  0  0  0  0  0  0  0  0  0  0  0
  -26.6358    2.9343   -4.1611 C   0  0  0  0  0  0  0  0  0  0  0  0
  -26.7552    5.3212   -4.4161 C   0  0  0  0  0  0  0  0  0  0  0  0
  -24.5960    1.6686   -4.7997 C   0  0  0  0  0  0  0  0  0  0  0  0
  -25.3547    2.9489   -4.6695 C   0  0  0  0  0  0  0  0  0  0  0  0
  -24.7850    4.1443   -5.0438 C   0  0  0  0  0  0  0  0  0  0  0  0
  -25.4752    5.3306   -4.9211 C   0  0  0  0  0  0  0  0  0  0  0  0
  -23.1814    4.1632   -5.6729 Cl  0  0  0  0  0  0  0  0  0  0  0  0
  -27.1620    1.6825   -3.8042 N   0  0  0  0  0  0  0  0  0  0  0  0
  -27.2703    1.4077   -2.8651 H   0  0  0  0  0  0  0  0  0  0  0  0
  -27.5337    0.8250   -4.9042 C   0  0  0  0  0  0  0  0  0  0  0  0
  -27.8824   -0.5837   -4.4656 C   0  0  0  0  0  0  0  0  0  0  0  0
  -26.9932   -1.4445   -5.1429 O   0  0  0  0  0  0  0  0  0  0  0  0
  -27.7966   -0.8433   -2.9761 C   0  0  0  0  0  0  0  0  0  0  0  0
  -29.2728   -0.8938   -4.9464 C   0  0  0  0  0  0  0  0  0  0  0  0
  -29.6978    0.2466   -5.8314 C   0  0  0  0  0  0  0  0  0  0  0  0
  -28.7847    1.4061   -5.5238 C   0  0  0  0  0  0  0  0  0  0  0  0
  -27.1789   -2.3631   -4.8927 H   0  0  0  0  0  0  0  0  0  0  0  0
  -24.8622    6.5563   -5.3207 C   0  0  0  0  0  0  0  0  0  0  0  0
  -24.3802    7.5499   -5.6943 N   0  0  0  0  0  0  0  0  0  0  0  0
 14 12  1  0  0  0
  8  6  1  0  0  0
  4  5  1  0  0  0
 12 15  1  0  0  0
 12 13  1  0  0  0
 12 11  1  0  0  0
 15 16  1  0  0  0
  5  6  2  0  0  0
  5  2  1  0  0  0
  6  7  1  0  0  0
 20 19  3  0  0  0
  9  2  1  0  0  0
  9 11  1  0  0  0
 19  7  1  0  0  0
  7  3  2  0  0  0
  2  1  2  0  0  0
  3  1  1  0  0  0
 11 17  1  0  0  0
 16 17  1  0  0  0
  9 10  1  0  0  0
 13 18  1  0  0  0
M  END
> <minimizedAffinity>
-7.97734

$$$$
5CJ6_51Y_A_1001


 20 21  0  0  0  0  0  0  0  0999 V2000
  -24.2378    2.6640   -5.0854 C   0  0  0  0  0  0  0  0  0  0  0  0
  -25.4534    2.3778   -4.4925 C   0  0  0  0  0  0  0  0  0  0  0  0
  -23.9016    3.9515   -5.4370 C   0  0  0  0  0  0  0  0  0  0  0  0
  -27.6589    3.1090   -3.6138 C   0  0  0  0  0  0  0  0  0  0  0  0
  -26.3395    3.4051   -4.2489 C   0  0  0  0  0  0  0  0  0  0  0  0
  -26.0026    4.6920   -4.6015 C   0  0  0  0  0  0  0  0  0  0  0  0
  -24.7906    4.9732   -5.1936 C   0  0  0  0  0  0  0  0  0  0  0  0
  -27.1129    5.9749   -4.3032 Cl  0  0  0  0  0  0  0  0  0  0  0  0
  -25.8538    1.0897   -4.1034 N   0  0  0  0  0  0  0  0  0  0  0  0
  -25.7125    0.7500   -3.1902 H   0  0  0  0  0  0  0  0  0  0  0  0
  -26.4863    0.2958   -5.1297 C   0  0  0  0  0  0  0  0  0  0  0  0
  -27.5763   -0.6097   -4.5909 C   0  0  0  0  0  0  0  0  0  0  0  0
  -27.2018   -1.9281   -4.9250 O   0  0  0  0  0  0  0  0  0  0  0  0
  -27.8213   -0.5194   -3.0992 C   0  0  0  0  0  0  0  0  0  0  0  0
  -28.8507   -0.2974   -5.3252 C   0  0  0  0  0  0  0  0  0  0  0  0
  -28.4987    0.6596   -6.4319 C   0  0  0  0  0  0  0  0  0  0  0  0
  -27.1560    1.2535   -6.0894 C   0  0  0  0  0  0  0  0  0  0  0  0
  -27.8732   -2.5475   -4.5988 H   0  0  0  0  0  0  0  0  0  0  0  0
  -24.4644    6.3176   -5.5458 C   0  0  0  0  0  0  0  0  0  0  0  0
  -24.2483    7.4251   -5.8386 N   0  0  0  0  0  0  0  0  0  0  0  0
 14 12  1  0  0  0
  8  6  1  0  0  0
  4  5  1  0  0  0
 12 15  1  0  0  0
 12 13  1  0  0  0
 12 11  1  0  0  0
 15 16  1  0  0  0
  5  6  2  0  0  0
  5  2  1  0  0  0
  6  7  1  0  0  0
 20 19  3  0  0  0
  9  2  1  0  0  0
  9 11  1  0  0  0
 19  7  1  0  0  0
  7  3  2  0  0  0
  2  1  2  0  0  0
  3  1  1  0  0  0
 11 17  1  0  0  0
 16 17  1  0  0  0
  9 10  1  0  0  0
 13 18  1  0  0  0
M  END
> <minimizedAffinity>
-7.31601

$$$$
5CJ6_51Y_A_1001


 20 21  0  0  0  0  0  0  0  0999 V2000
  -28.2091    2.1831   -3.9713 C   0  0  0  0  0  0  0  0  0  0  0  0
  -26.8330    2.0540   -4.0016 C   0  0  0  0  0  0  0  0  0  0  0  0
  -29.0310    1.0867   -4.1009 C   0  0  0  0  0  0  0  0  0  0  0  0
  -24.7944    0.6489   -4.2021 C   0  0  0  0  0  0  0  0  0  0  0  0
  -26.2800    0.8018   -4.1620 C   0  0  0  0  0  0  0  0  0  0  0  0
  -27.1027   -0.2937   -4.2923 C   0  0  0  0  0  0  0  0  0  0  0  0
  -28.4739   -0.1610   -4.2630 C   0  0  0  0  0  0  0  0  0  0  0  0
  -26.4114   -1.8579   -4.4996 Cl  0  0  0  0  0  0  0  0  0  0  0  0
  -25.9400    3.1290   -3.8677 N   0  0  0  0  0  0  0  0  0  0  0  0
  -25.2615    3.1615   -3.1551 H   0  0  0  0  0  0  0  0  0  0  0  0
  -26.0817    4.1836   -4.8431 C   0  0  0  0  0  0  0  0  0  0  0  0
  -26.6873    5.4476   -4.2654 C   0  0  0  0  0  0  0  0  0  0  0  0
  -27.8629    5.7005   -5.0029 O   0  0  0  0  0  0  0  0  0  0  0  0
  -27.0213    5.3953   -2.7892 C   0  0  0  0  0  0  0  0  0  0  0  0
  -25.7351    6.5828   -4.5211 C   0  0  0  0  0  0  0  0  0  0  0  0
  -24.6444    6.0515   -5.4113 C   0  0  0  0  0  0  0  0  0  0  0  0
  -24.6922    4.5477   -5.3158 C   0  0  0  0  0  0  0  0  0  0  0  0
  -28.2883    6.5052   -4.6675 H   0  0  0  0  0  0  0  0  0  0  0  0
  -29.3045   -1.3143   -4.3964 C   0  0  0  0  0  0  0  0  0  0  0  0
  -29.9592   -2.2765   -4.4642 N   0  0  0  0  0  0  0  0  0  0  0  0
 14 12  1  0  0  0
  8  6  1  0  0  0
  4  5  1  0  0  0
 12 15  1  0  0  0
 12 13  1  0  0  0
 12 11  1  0  0  0
 15 16  1  0  0  0
  5  6  2  0  0  0
  5  2  1  0  0  0
  6  7  1  0  0  0
 20 19  3  0  0  0
  9  2  1  0  0  0
  9 11  1  0  0  0
 19  7  1  0  0  0
  7  3  2  0  0  0
  2  1  2  0  0  0
  3  1  1  0  0  0
 11 17  1  0  0  0
 16 17  1  0  0  0
  9 10  1  0  0  0
 13 18  1  0  0  0
M  END
> <minimizedAffinity>
-7.13146

$$$$
5CJ6_51Y_A_1001


 20 21  0  0  0  0  0  0  0  0999 V2000
  -25.7090    1.2448   -5.1667 C   0  0  0  0  0  0  0  0  0  0  0  0
  -26.8171    2.0159   -4.8689 C   0  0  0  0  0  0  0  0  0  0  0  0
  -24.4693    1.8162   -5.3432 C   0  0  0  0  0  0  0  0  0  0  0  0
  -27.8613    4.2264   -4.4288 C   0  0  0  0  0  0  0  0  0  0  0  0
  -26.6710    3.3808   -4.7449 C   0  0  0  0  0  0  0  0  0  0  0  0
  -25.4312    3.9512   -4.9223 C   0  0  0  0  0  0  0  0  0  0  0  0
  -24.3292    3.1796   -5.2205 C   0  0  0  0  0  0  0  0  0  0  0  0
  -25.2501    5.6579   -4.7740 Cl  0  0  0  0  0  0  0  0  0  0  0  0
  -28.1057    1.4955   -4.6696 N   0  0  0  0  0  0  0  0  0  0  0  0
  -28.7986    1.9871   -4.1721 H   0  0  0  0  0  0  0  0  0  0  0  0
  -28.3483    0.1927   -5.2416 C   0  0  0  0  0  0  0  0  0  0  0  0
  -28.2961   -0.9234   -4.2170 C   0  0  0  0  0  0  0  0  0  0  0  0
  -27.2844   -1.8096   -4.6428 O   0  0  0  0  0  0  0  0  0  0  0  0
  -28.0176   -0.4893   -2.7931 C   0  0  0  0  0  0  0  0  0  0  0  0
  -29.6028   -1.6656   -4.2653 C   0  0  0  0  0  0  0  0  0  0  0  0
  -30.3741   -1.1245   -5.4387 C   0  0  0  0  0  0  0  0  0  0  0  0
  -29.7541    0.2017   -5.7989 C   0  0  0  0  0  0  0  0  0  0  0  0
  -27.2133   -2.5451   -4.0145 H   0  0  0  0  0  0  0  0  0  0  0  0
  -23.0538    3.7962   -5.3955 C   0  0  0  0  0  0  0  0  0  0  0  0
  -22.0117    4.3106   -5.4881 N   0  0  0  0  0  0  0  0  0  0  0  0
 14 12  1  0  0  0
  8  6  1  0  0  0
  4  5  1  0  0  0
 12 15  1  0  0  0
 12 13  1  0  0  0
 12 11  1  0  0  0
 15 16  1  0  0  0
  5  6  2  0  0  0
  5  2  1  0  0  0
  6  7  1  0  0  0
 20 19  3  0  0  0
  9  2  1  0  0  0
  9 11  1  0  0  0
 19  7  1  0  0  0
  7  3  2  0  0  0
  2  1  2  0  0  0
  3  1  1  0  0  0
 11 17  1  0  0  0
 16 17  1  0  0  0
  9 10  1  0  0  0
 13 18  1  0  0  0
M  END
> <minimizedAffinity>
-6.87071

$$$$
5CJ6_51Y_A_1001


 20 21  0  0  0  0  0  0  0  0999 V2000
  -26.5183   -0.0834   -4.3727 C   0  0  0  0  0  0  0  0  0  0  0  0
  -26.8812    0.8308   -5.3442 C   0  0  0  0  0  0  0  0  0  0  0  0
  -27.3879   -1.0666   -3.9585 C   0  0  0  0  0  0  0  0  0  0  0  0
  -28.5440    1.7344   -6.9533 C   0  0  0  0  0  0  0  0  0  0  0  0
  -28.1370    0.7494   -5.9065 C   0  0  0  0  0  0  0  0  0  0  0  0
  -29.0059   -0.2336   -5.4911 C   0  0  0  0  0  0  0  0  0  0  0  0
  -28.6412   -1.1422   -4.5215 C   0  0  0  0  0  0  0  0  0  0  0  0
  -30.5778   -0.3310   -6.1891 Cl  0  0  0  0  0  0  0  0  0  0  0  0
  -26.0404    1.8514   -5.8159 N   0  0  0  0  0  0  0  0  0  0  0  0
  -25.8136    1.9453   -6.7693 H   0  0  0  0  0  0  0  0  0  0  0  0
  -25.5300    2.7539   -4.8116 C   0  0  0  0  0  0  0  0  0  0  0  0
  -24.3433    3.5655   -5.2925 C   0  0  0  0  0  0  0  0  0  0  0  0
  -23.2757    3.2678   -4.4196 O   0  0  0  0  0  0  0  0  0  0  0  0
  -23.9119    3.3070   -6.7209 C   0  0  0  0  0  0  0  0  0  0  0  0
  -24.6744    5.0229   -5.1278 C   0  0  0  0  0  0  0  0  0  0  0  0
  -25.9777    5.0970   -4.3792 C   0  0  0  0  0  0  0  0  0  0  0  0
  -26.6297    3.7427   -4.4959 C   0  0  0  0  0  0  0  0  0  0  0  0
  -22.4889    3.7670   -4.6891 H   0  0  0  0  0  0  0  0  0  0  0  0
  -29.5604   -2.1545   -4.1117 C   0  0  0  0  0  0  0  0  0  0  0  0
  -30.3113   -2.9990   -3.8253 N   0  0  0  0  0  0  0  0  0  0  0  0
 14 12  1  0  0  0
  8  6  1  0  0  0
  4  5  1  0  0  0
 12 15  1  0  0  0
 12 13  1  0  0  0
 12 11  1  0  0  0
 15 16  1  0  0  0
  5  6  2  0  0  0
  5  2  1  0  0  0
  6  7  1  0  0  0
 20 19  3  0  0  0
  9  2  1  0  0  0
  9 11  1  0  0  0
 19  7  1  0  0  0
  7  3  2  0  0  0
  2  1  2  0  0  0
  3  1  1  0  0  0
 11 17  1  0  0  0
 16 17  1  0  0  0
  9 10  1  0  0  0
 13 18  1  0  0  0
M  END
> <minimizedAffinity>
-6.37527

$$$$
5CJ6_51Y_A_1001


 20 21  0  0  0  0  0  0  0  0999 V2000
  -25.0244    2.3072   -5.5038 C   0  0  0  0  0  0  0  0  0  0  0  0
  -26.3995    2.1926   -5.4197 C   0  0  0  0  0  0  0  0  0  0  0  0
  -24.3972    3.5181   -5.3176 C   0  0  0  0  0  0  0  0  0  0  0  0
  -28.6379    3.2055   -5.0532 C   0  0  0  0  0  0  0  0  0  0  0  0
  -27.1505    3.3143   -5.1413 C   0  0  0  0  0  0  0  0  0  0  0  0
  -26.5224    4.5247   -4.9561 C   0  0  0  0  0  0  0  0  0  0  0  0
  -25.1516    4.6354   -5.0420 C   0  0  0  0  0  0  0  0  0  0  0  0
  -27.4617    5.9279   -4.6148 Cl  0  0  0  0  0  0  0  0  0  0  0  0
  -27.0994    0.9877   -5.5914 N   0  0  0  0  0  0  0  0  0  0  0  0
  -27.2745    0.6052   -6.4815 H   0  0  0  0  0  0  0  0  0  0  0  0
  -27.5453    0.3463   -4.3776 C   0  0  0  0  0  0  0  0  0  0  0  0
  -28.9600   -0.1898   -4.4760 C   0  0  0  0  0  0  0  0  0  0  0  0
  -29.7012    0.4501   -3.4605 O   0  0  0  0  0  0  0  0  0  0  0  0
  -29.6466    0.0219   -5.8091 C   0  0  0  0  0  0  0  0  0  0  0  0
  -28.9274   -1.6594   -4.1599 C   0  0  0  0  0  0  0  0  0  0  0  0
  -27.5338   -1.9786   -3.6902 C   0  0  0  0  0  0  0  0  0  0  0  0
  -26.6466   -0.8473   -4.1441 C   0  0  0  0  0  0  0  0  0  0  0  0
  -30.6190    0.1371   -3.4840 H   0  0  0  0  0  0  0  0  0  0  0  0
  -24.5250    5.9022   -4.8415 C   0  0  0  0  0  0  0  0  0  0  0  0
  -23.9924    6.9183   -4.6345 N   0  0  0  0  0  0  0  0  0  0  0  0
 14 12  1  0  0  0
  8  6  1  0  0  0
  4  5  1  0  0  0
 12 15  1  0  0  0
 12 13  1  0  0  0
 12 11  1  0  0  0
 15 16  1  0  0  0
  5  6  2  0  0  0
  5  2  1  0  0  0
  6  7  1  0  0  0
 20 19  3  0  0  0
  9  2  1  0  0  0
  9 11  1  0  0  0
 19  7  1  0  0  0
  7  3  2  0  0  0
  2  1  2  0  0  0
  3  1  1  0  0  0
 11 17  1  0  0  0
 16 17  1  0  0  0
  9 10  1  0  0  0
 13 18  1  0  0  0
M  END
> <minimizedAffinity>
-6.28845

$$$$
