1LGW_1AN_A_401


 10 10  0  0  0  0  0  0  0  0999 V2000
   25.4969    5.3927    5.8205 C   0  0  0  0  0  0  0  0  0  0  0  0
   26.1797    6.5594    6.1688 C   0  0  0  0  0  0  0  0  0  0  0  0
   25.6429    4.9561    4.5092 C   0  0  0  0  0  0  0  0  0  0  0  0
   26.9740    7.2910    5.2729 C   0  0  0  0  0  0  0  0  0  0  0  0
   26.4807    5.6348    3.6251 C   0  0  0  0  0  0  0  0  0  0  0  0
   27.1257    6.8276    3.9687 C   0  0  0  0  0  0  0  0  0  0  0  0
   27.9694    7.4541    3.0683 N   0  0  0  0  0  0  0  0  0  0  0  0
   26.5727    5.1696    2.4308 F   0  0  0  0  0  0  0  0  0  0  0  0
   28.4197    8.2934    3.3176 H   0  0  0  0  0  0  0  0  0  0  0  0
   28.1194    7.0606    2.1784 H   0  0  0  0  0  0  0  0  0  0  0  0
  1  2  2  0  0  0
  1  3  1  0  0  0
  2  4  1  0  0  0
  3  5  2  0  0  0
  4  6  2  0  0  0
  5  6  1  0  0  0
  5  8  1  0  0  0
  6  7  1  0  0  0
  7  9  1  0  0  0
  7 10  1  0  0  0
M  END
> <minimizedAffinity>
-6.39188

$$$$
1LGW_1AN_A_401


 10 10  0  0  0  0  0  0  0  0999 V2000
   25.5164    5.5980    5.8517 C   0  0  0  0  0  0  0  0  0  0  0  0
   25.4577    5.0976    4.5498 C   0  0  0  0  0  0  0  0  0  0  0  0
   26.4410    6.6086    6.0870 C   0  0  0  0  0  0  0  0  0  0  0  0
   26.2764    5.5531    3.5052 C   0  0  0  0  0  0  0  0  0  0  0  0
   27.2156    7.1177    5.0453 C   0  0  0  0  0  0  0  0  0  0  0  0
   27.1826    6.5805    3.7541 C   0  0  0  0  0  0  0  0  0  0  0  0
   27.9492    7.1341    2.7436 N   0  0  0  0  0  0  0  0  0  0  0  0
   28.0439    8.0563    5.3353 F   0  0  0  0  0  0  0  0  0  0  0  0
   27.9206    6.7503    1.8375 H   0  0  0  0  0  0  0  0  0  0  0  0
   28.5232    7.9117    2.9310 H   0  0  0  0  0  0  0  0  0  0  0  0
  1  2  2  0  0  0
  1  3  1  0  0  0
  2  4  1  0  0  0
  3  5  2  0  0  0
  4  6  2  0  0  0
  5  6  1  0  0  0
  5  8  1  0  0  0
  6  7  1  0  0  0
  7  9  1  0  0  0
  7 10  1  0  0  0
M  END
> <minimizedAffinity>
-6.15736

$$$$
1LGW_1AN_A_401


 10 10  0  0  0  0  0  0  0  0999 V2000
   26.0247    6.5306    6.2256 C   0  0  0  0  0  0  0  0  0  0  0  0
   25.5650    5.3045    5.7416 C   0  0  0  0  0  0  0  0  0  0  0  0
   26.8136    7.2820    5.3628 C   0  0  0  0  0  0  0  0  0  0  0  0
   25.8669    4.8120    4.4629 C   0  0  0  0  0  0  0  0  0  0  0  0
   27.0682    6.8372    4.0660 C   0  0  0  0  0  0  0  0  0  0  0  0
   26.6415    5.5876    3.6042 C   0  0  0  0  0  0  0  0  0  0  0  0
   26.8938    5.1973    2.3007 N   0  0  0  0  0  0  0  0  0  0  0  0
   27.7993    7.5875    3.3219 F   0  0  0  0  0  0  0  0  0  0  0  0
   26.5902    4.3162    1.9832 H   0  0  0  0  0  0  0  0  0  0  0  0
   27.3768    5.8006    1.6909 H   0  0  0  0  0  0  0  0  0  0  0  0
  1  2  2  0  0  0
  1  3  1  0  0  0
  2  4  1  0  0  0
  3  5  2  0  0  0
  4  6  2  0  0  0
  5  6  1  0  0  0
  5  8  1  0  0  0
  6  7  1  0  0  0
  7  9  1  0  0  0
  7 10  1  0  0  0
M  END
> <minimizedAffinity>
-6.02491

$$$$
1LGW_1AN_A_401


 10 10  0  0  0  0  0  0  0  0999 V2000
   27.8961    6.3623    2.5012 C   0  0  0  0  0  0  0  0  0  0  0  0
   27.2626    5.1183    2.5057 C   0  0  0  0  0  0  0  0  0  0  0  0
   27.5602    7.2334    3.5306 C   0  0  0  0  0  0  0  0  0  0  0  0
   26.3225    4.7292    3.4718 C   0  0  0  0  0  0  0  0  0  0  0  0
   26.6777    6.8375    4.5350 C   0  0  0  0  0  0  0  0  0  0  0  0
   26.0134    5.6067    4.5078 C   0  0  0  0  0  0  0  0  0  0  0  0
   25.1657    5.2435    5.5395 N   0  0  0  0  0  0  0  0  0  0  0  0
   26.4193    7.6926    5.4588 F   0  0  0  0  0  0  0  0  0  0  0  0
   24.7018    4.3756    5.5130 H   0  0  0  0  0  0  0  0  0  0  0  0
   25.0265    5.8530    6.3000 H   0  0  0  0  0  0  0  0  0  0  0  0
  1  2  2  0  0  0
  1  3  1  0  0  0
  2  4  1  0  0  0
  3  5  2  0  0  0
  4  6  2  0  0  0
  5  6  1  0  0  0
  5  8  1  0  0  0
  6  7  1  0  0  0
  7  9  1  0  0  0
  7 10  1  0  0  0
M  END
> <minimizedAffinity>
-5.86463

$$$$
1LGW_1AN_A_401


 10 10  0  0  0  0  0  0  0  0999 V2000
   25.7746    6.1380    6.1961 C   0  0  0  0  0  0  0  0  0  0  0  0
   26.4915    7.2131    5.6678 C   0  0  0  0  0  0  0  0  0  0  0  0
   25.6668    5.0092    5.3926 C   0  0  0  0  0  0  0  0  0  0  0  0
   27.0800    7.2030    4.3941 C   0  0  0  0  0  0  0  0  0  0  0  0
   26.3013    4.9588    4.1519 C   0  0  0  0  0  0  0  0  0  0  0  0
   26.9797    6.0561    3.6110 C   0  0  0  0  0  0  0  0  0  0  0  0
   27.6177    5.9535    2.3873 N   0  0  0  0  0  0  0  0  0  0  0  0
   26.1642    3.8803    3.4668 F   0  0  0  0  0  0  0  0  0  0  0  0
   28.0931    6.7303    2.0134 H   0  0  0  0  0  0  0  0  0  0  0  0
   27.5962    5.1037    1.8907 H   0  0  0  0  0  0  0  0  0  0  0  0
  1  2  2  0  0  0
  1  3  1  0  0  0
  2  4  1  0  0  0
  3  5  2  0  0  0
  4  6  2  0  0  0
  5  6  1  0  0  0
  5  8  1  0  0  0
  6  7  1  0  0  0
  7  9  1  0  0  0
  7 10  1  0  0  0
M  END
> <minimizedAffinity>
-5.81844

$$$$
1LGW_1AN_A_401


 10 10  0  0  0  0  0  0  0  0999 V2000
   27.0957    4.8600    2.5943 C   0  0  0  0  0  0  0  0  0  0  0  0
   27.6636    6.1348    2.6304 C   0  0  0  0  0  0  0  0  0  0  0  0
   26.3030    4.5027    3.6785 C   0  0  0  0  0  0  0  0  0  0  0  0
   27.4797    7.0369    3.6893 C   0  0  0  0  0  0  0  0  0  0  0  0
   26.0570    5.4115    4.7070 C   0  0  0  0  0  0  0  0  0  0  0  0
   26.6656    6.6701    4.7576 C   0  0  0  0  0  0  0  0  0  0  0  0
   26.3722    7.5509    5.7838 N   0  0  0  0  0  0  0  0  0  0  0  0
   25.3088    5.0146    5.6734 F   0  0  0  0  0  0  0  0  0  0  0  0
   26.8047    8.4349    5.8124 H   0  0  0  0  0  0  0  0  0  0  0  0
   25.7311    7.2937    6.4852 H   0  0  0  0  0  0  0  0  0  0  0  0
  1  2  2  0  0  0
  1  3  1  0  0  0
  2  4  1  0  0  0
  3  5  2  0  0  0
  4  6  2  0  0  0
  5  6  1  0  0  0
  5  8  1  0  0  0
  6  7  1  0  0  0
  7  9  1  0  0  0
  7 10  1  0  0  0
M  END
> <minimizedAffinity>
-5.50477

$$$$
1LGW_1AN_A_401


 10 10  0  0  0  0  0  0  0  0999 V2000
   27.9732    6.5592    2.5650 C   0  0  0  0  0  0  0  0  0  0  0  0
   27.5038    7.4005    3.5753 C   0  0  0  0  0  0  0  0  0  0  0  0
   27.4914    5.2556    2.5692 C   0  0  0  0  0  0  0  0  0  0  0  0
   26.6015    6.9919    4.5692 C   0  0  0  0  0  0  0  0  0  0  0  0
   26.5444    4.8526    3.5100 C   0  0  0  0  0  0  0  0  0  0  0  0
   26.1132    5.6882    4.5457 C   0  0  0  0  0  0  0  0  0  0  0  0
   25.1517    5.2559    5.4423 N   0  0  0  0  0  0  0  0  0  0  0  0
   26.1388    3.6348    3.4488 F   0  0  0  0  0  0  0  0  0  0  0  0
   24.8534    5.8499    6.1686 H   0  0  0  0  0  0  0  0  0  0  0  0
   24.7661    4.3544    5.3539 H   0  0  0  0  0  0  0  0  0  0  0  0
  1  2  2  0  0  0
  1  3  1  0  0  0
  2  4  1  0  0  0
  3  5  2  0  0  0
  4  6  2  0  0  0
  5  6  1  0  0  0
  5  8  1  0  0  0
  6  7  1  0  0  0
  7  9  1  0  0  0
  7 10  1  0  0  0
M  END
> <minimizedAffinity>
-5.49707

$$$$
1LGW_1AN_A_401


 10 10  0  0  0  0  0  0  0  0999 V2000
   27.5174    5.7949    2.6319 C   0  0  0  0  0  0  0  0  0  0  0  0
   26.4193    5.1245    3.1737 C   0  0  0  0  0  0  0  0  0  0  0  0
   28.0527    6.8264    3.3941 C   0  0  0  0  0  0  0  0  0  0  0  0
   25.8466    5.4475    4.4133 C   0  0  0  0  0  0  0  0  0  0  0  0
   27.5368    7.1166    4.6566 C   0  0  0  0  0  0  0  0  0  0  0  0
   26.4087    6.4702    5.1728 C   0  0  0  0  0  0  0  0  0  0  0  0
   25.9463    6.7714    6.4419 N   0  0  0  0  0  0  0  0  0  0  0  0
   28.0864    8.0787    5.3074 F   0  0  0  0  0  0  0  0  0  0  0  0
   25.1516    6.3121    6.7981 H   0  0  0  0  0  0  0  0  0  0  0  0
   26.4119    7.4449    6.9885 H   0  0  0  0  0  0  0  0  0  0  0  0
  1  2  2  0  0  0
  1  3  1  0  0  0
  2  4  1  0  0  0
  3  5  2  0  0  0
  4  6  2  0  0  0
  5  6  1  0  0  0
  5  8  1  0  0  0
  6  7  1  0  0  0
  7  9  1  0  0  0
  7 10  1  0  0  0
M  END
> <minimizedAffinity>
-4.85525

$$$$
1LGW_1AN_A_401


 10 10  0  0  0  0  0  0  0  0999 V2000
   25.8865    4.3529    3.9689 C   0  0  0  0  0  0  0  0  0  0  0  0
   26.8531    4.1574    2.9808 C   0  0  0  0  0  0  0  0  0  0  0  0
   25.8091    5.6273    4.5178 C   0  0  0  0  0  0  0  0  0  0  0  0
   27.7284    5.1620    2.5413 C   0  0  0  0  0  0  0  0  0  0  0  0
   26.6269    6.6535    4.0460 C   0  0  0  0  0  0  0  0  0  0  0  0
   27.6229    6.4385    3.0876 C   0  0  0  0  0  0  0  0  0  0  0  0
   28.3945    7.4915    2.6285 N   0  0  0  0  0  0  0  0  0  0  0  0
   26.4951    7.8076    4.5953 F   0  0  0  0  0  0  0  0  0  0  0  0
   29.0935    7.3321    1.9538 H   0  0  0  0  0  0  0  0  0  0  0  0
   28.2443    8.4001    2.9765 H   0  0  0  0  0  0  0  0  0  0  0  0
  1  2  2  0  0  0
  1  3  1  0  0  0
  2  4  1  0  0  0
  3  5  2  0  0  0
  4  6  2  0  0  0
  5  6  1  0  0  0
  5  8  1  0  0  0
  6  7  1  0  0  0
  7  9  1  0  0  0
  7 10  1  0  0  0
M  END
> <minimizedAffinity>
-4.45785

$$$$
1LGW_1AN_A_401


 10 10  0  0  0  0  0  0  0  0999 V2000
   26.1938    7.8483    5.5513 C   0  0  0  0  0  0  0  0  0  0  0  0
   26.5914    7.7248    4.2189 C   0  0  0  0  0  0  0  0  0  0  0  0
   25.7781    6.6836    6.1854 C   0  0  0  0  0  0  0  0  0  0  0  0
   26.5786    6.5117    3.5140 C   0  0  0  0  0  0  0  0  0  0  0  0
   25.8218    5.4593    5.5194 C   0  0  0  0  0  0  0  0  0  0  0  0
   26.1788    5.3511    4.1712 C   0  0  0  0  0  0  0  0  0  0  0  0
   26.2342    4.1123    3.5569 N   0  0  0  0  0  0  0  0  0  0  0  0
   25.4292    4.4235    6.1706 F   0  0  0  0  0  0  0  0  0  0  0  0
   26.4863    4.0443    2.6076 H   0  0  0  0  0  0  0  0  0  0  0  0
   26.0214    3.2989    4.0691 H   0  0  0  0  0  0  0  0  0  0  0  0
  1  2  2  0  0  0
  1  3  1  0  0  0
  2  4  1  0  0  0
  3  5  2  0  0  0
  4  6  2  0  0  0
  5  6  1  0  0  0
  5  8  1  0  0  0
  6  7  1  0  0  0
  7  9  1  0  0  0
  7 10  1  0  0  0
M  END
> <minimizedAffinity>
-3.56720

$$$$
