4O0A_2P9_A_201


 44 48  0  0  0  0  0  0  0  0999 V2000
   -2.4690   11.6157   -0.2510 C   0  0  0  0  0  0  0  0  0  0  0  0
   -1.2749   11.0823   -0.6966 C   0  0  0  0  0  0  0  0  0  0  0  0
   -0.0756   11.4541   -0.1193 C   0  0  0  0  0  0  0  0  0  0  0  0
   -0.0562   12.3557    0.9236 C   0  0  0  0  0  0  0  0  0  0  0  0
   -1.2513   12.8989    1.3951 C   0  0  0  0  0  0  0  0  0  0  0  0
   -2.4575   12.5157    0.8069 C   0  0  0  0  0  0  0  0  0  0  0  0
   -5.4373   10.8140   -2.3200 C   0  0  0  0  0  0  0  0  0  0  0  0
   -5.7601   10.3350   -1.1365 N   0  0  0  0  0  0  0  0  0  0  0  0
   -4.8003   10.5605   -0.2936 N   0  0  0  0  0  0  0  0  0  0  0  0
   -3.7692   11.1666   -0.8843 C   0  0  0  0  0  0  0  0  0  0  0  0
   -4.1420   11.3810   -2.2423 C   0  0  0  0  0  0  0  0  0  0  0  0
   -4.8694   10.1295    1.0538 C   0  0  0  0  0  0  0  0  0  0  0  0
   -4.2651    8.9303    1.3834 C   0  0  0  0  0  0  0  0  0  0  0  0
   -4.3023    8.4631    2.6832 C   0  0  0  0  0  0  0  0  0  0  0  0
   -3.5139    6.9381    2.9766 Cl  0  0  0  0  0  0  0  0  0  0  0  0
   -4.9582    9.1856    3.6820 C   0  0  0  0  0  0  0  0  0  0  0  0
   -5.0093    8.6243    5.3323 Cl  0  0  0  0  0  0  0  0  0  0  0  0
   -5.5694   10.3839    3.3363 C   0  0  0  0  0  0  0  0  0  0  0  0
   -5.5286   10.8558    2.0267 C   0  0  0  0  0  0  0  0  0  0  0  0
   -6.8713    9.6063   -3.7622 O   0  0  0  0  0  0  0  0  0  0  0  0
   -6.3397   10.7140   -3.5132 C   0  0  0  0  0  0  0  0  0  0  0  0
   -6.5178   11.7196   -4.2394 O   0  0  0  0  0  0  0  0  0  0  0  0
   -6.7164    8.8748   -3.1975 H   0  0  0  0  0  0  0  0  0  0  0  0
    1.2817   12.7298    1.5174 C   0  0  0  0  0  0  0  0  0  0  0  0
    2.2463   11.7635    1.1310 N   0  0  0  0  0  0  0  0  0  0  0  0
    2.5646   11.6448    0.2070 H   0  0  0  0  0  0  0  0  0  0  0  0
    2.7002   10.9867    2.2312 C   0  0  0  0  0  0  0  0  0  0  0  0
    1.4128   10.5269    3.3679 S   0  0  0  0  0  0  0  0  0  0  0  0
    3.6984    9.9049    1.8285 C   0  0  0  0  0  0  0  0  0  0  0  0
    4.7185    9.7482    2.7521 C   0  0  0  0  0  0  0  0  0  0  0  0
    5.7380    8.8330    2.5568 C   0  0  0  0  0  0  0  0  0  0  0  0
    5.7293    8.0766    1.4034 C   0  0  0  0  0  0  0  0  0  0  0  0
    4.7230    8.2181    0.4721 C   0  0  0  0  0  0  0  0  0  0  0  0
    3.7007    9.1325    0.6587 C   0  0  0  0  0  0  0  0  0  0  0  0
    2.4639    9.2420   -0.5718 Cl  0  0  0  0  0  0  0  0  0  0  0  0
    6.7761    7.0555    1.1251 C   0  0  0  0  0  0  0  0  0  0  0  0
    7.7965    6.5756    1.9435 C   0  0  0  0  0  0  0  0  0  0  0  0
    8.4844    5.5984    1.1541 C   0  0  0  0  0  0  0  0  0  0  0  0
    7.7943    5.5946   -0.0541 C   0  0  0  0  0  0  0  0  0  0  0  0
    6.8148    6.4512   -0.0365 O   0  0  0  0  0  0  0  0  0  0  0  0
    8.0551    4.7713   -1.2677 C   0  0  0  0  0  0  0  0  0  0  0  0
    7.3515    4.9472   -2.2895 O   0  0  0  0  0  0  0  0  0  0  0  0
    9.0091    3.9655   -1.1902 O   0  0  0  0  0  0  0  0  0  0  0  0
    6.6514    5.5697   -2.2748 H   0  0  0  0  0  0  0  0  0  0  0  0
 22 21  2  0  0  0
 21 20  1  0  0  0
 21  7  1  0  0  0
  7 11  1  0  0  0
  7  8  2  0  0  0
 11 10  2  0  0  0
 43 41  2  0  0  0
 42 41  1  0  0  0
 41 39  1  0  0  0
  8  9  1  0  0  0
  6  5  2  0  0  0
  6  1  1  0  0  0
 10  9  1  0  0  0
 10  1  1  0  0  0
  5  4  1  0  0  0
  9 12  1  0  0  0
  1  2  2  0  0  0
 35 34  1  0  0  0
 39 40  1  0  0  0
 39 38  2  0  0  0
 40 36  1  0  0  0
 33 34  2  0  0  0
 33 32  1  0  0  0
 34 29  1  0  0  0
  4 24  1  0  0  0
  4  3  2  0  0  0
 38 37  1  0  0  0
 36 32  1  0  0  0
 36 37  2  0  0  0
  2  3  1  0  0  0
 12 13  2  0  0  0
 12 19  1  0  0  0
 25 24  1  0  0  0
 25 27  1  0  0  0
 32 31  2  0  0  0
 13 14  1  0  0  0
 29 27  1  0  0  0
 29 30  2  0  0  0
 19 18  2  0  0  0
 27 28  2  0  0  0
 31 30  1  0  0  0
 14 15  1  0  0  0
 14 16  2  0  0  0
 18 16  1  0  0  0
 16 17  1  0  0  0
 20 23  1  0  0  0
 25 26  1  0  0  0
 42 44  1  0  0  0
M  END
> <minimizedAffinity>
-8.87032

$$$$
4O0A_2P9_A_201


 44 48  0  0  0  0  0  0  0  0999 V2000
   -2.9444   11.5544    2.8849 C   0  0  0  0  0  0  0  0  0  0  0  0
   -1.7568   10.8768    3.0838 C   0  0  0  0  0  0  0  0  0  0  0  0
   -0.5502   11.4436    2.7196 C   0  0  0  0  0  0  0  0  0  0  0  0
   -0.5143   12.7047    2.1635 C   0  0  0  0  0  0  0  0  0  0  0  0
   -1.7010   13.4099    1.9629 C   0  0  0  0  0  0  0  0  0  0  0  0
   -2.9143   12.8299    2.3358 C   0  0  0  0  0  0  0  0  0  0  0  0
   -5.8849   10.0185    4.5369 C   0  0  0  0  0  0  0  0  0  0  0  0
   -6.2015    9.9712    3.2594 N   0  0  0  0  0  0  0  0  0  0  0  0
   -5.2397   10.4732    2.5486 N   0  0  0  0  0  0  0  0  0  0  0  0
   -4.2480   10.9191    3.3213 C   0  0  0  0  0  0  0  0  0  0  0  0
   -4.6126   10.6266    4.6669 C   0  0  0  0  0  0  0  0  0  0  0  0
   -5.3227   10.5716    1.1382 C   0  0  0  0  0  0  0  0  0  0  0  0
   -6.2522   11.4438    0.6020 C   0  0  0  0  0  0  0  0  0  0  0  0
   -6.3749   11.5789   -0.7676 C   0  0  0  0  0  0  0  0  0  0  0  0
   -7.5844   12.7009   -1.3258 Cl  0  0  0  0  0  0  0  0  0  0  0  0
   -5.5730   10.8313   -1.6325 C   0  0  0  0  0  0  0  0  0  0  0  0
   -5.6996   10.9920   -3.3643 Cl  0  0  0  0  0  0  0  0  0  0  0  0
   -4.6500    9.9518   -1.0818 C   0  0  0  0  0  0  0  0  0  0  0  0
   -4.5244    9.8187    0.2988 C   0  0  0  0  0  0  0  0  0  0  0  0
   -7.7894   10.2033    5.9274 O   0  0  0  0  0  0  0  0  0  0  0  0
   -6.7897    9.5121    5.6199 C   0  0  0  0  0  0  0  0  0  0  0  0
   -6.5145    8.4377    6.2031 O   0  0  0  0  0  0  0  0  0  0  0  0
   -7.9654   11.0020    5.4701 H   0  0  0  0  0  0  0  0  0  0  0  0
    0.8306   13.2769    1.7812 C   0  0  0  0  0  0  0  0  0  0  0  0
    1.8128   12.2576    1.8809 N   0  0  0  0  0  0  0  0  0  0  0  0
    2.1371   11.8895    2.7345 H   0  0  0  0  0  0  0  0  0  0  0  0
    2.2747   11.8292    0.6069 C   0  0  0  0  0  0  0  0  0  0  0  0
    2.4232   13.1412   -0.5838 S   0  0  0  0  0  0  0  0  0  0  0  0
    3.4228   10.8276    0.6925 C   0  0  0  0  0  0  0  0  0  0  0  0
    3.0195    9.5284    0.4328 C   0  0  0  0  0  0  0  0  0  0  0  0
    3.9091    8.4697    0.4852 C   0  0  0  0  0  0  0  0  0  0  0  0
    5.2219    8.7311    0.8183 C   0  0  0  0  0  0  0  0  0  0  0  0
    5.6427   10.0172    1.0804 C   0  0  0  0  0  0  0  0  0  0  0  0
    4.7590   11.0815    1.0321 C   0  0  0  0  0  0  0  0  0  0  0  0
    5.3803   12.6792    1.3746 Cl  0  0  0  0  0  0  0  0  0  0  0  0
    6.2474    7.6538    0.8770 C   0  0  0  0  0  0  0  0  0  0  0  0
    7.0124    7.2055    1.9518 C   0  0  0  0  0  0  0  0  0  0  0  0
    7.8159    6.1433    1.4254 C   0  0  0  0  0  0  0  0  0  0  0  0
    7.4386    6.0661    0.0883 C   0  0  0  0  0  0  0  0  0  0  0  0
    6.5322    6.9560   -0.1945 O   0  0  0  0  0  0  0  0  0  0  0  0
    7.9392    5.1380   -0.9637 C   0  0  0  0  0  0  0  0  0  0  0  0
    8.6487    4.1604   -0.6305 O   0  0  0  0  0  0  0  0  0  0  0  0
    7.5747    5.3871   -2.1345 O   0  0  0  0  0  0  0  0  0  0  0  0
    8.8834    4.0366    0.2681 H   0  0  0  0  0  0  0  0  0  0  0  0
 22 21  2  0  0  0
 21 20  1  0  0  0
 21  7  1  0  0  0
  7 11  1  0  0  0
  7  8  2  0  0  0
 11 10  2  0  0  0
 43 41  2  0  0  0
 42 41  1  0  0  0
 41 39  1  0  0  0
  8  9  1  0  0  0
  6  5  2  0  0  0
  6  1  1  0  0  0
 10  9  1  0  0  0
 10  1  1  0  0  0
  5  4  1  0  0  0
  9 12  1  0  0  0
  1  2  2  0  0  0
 35 34  1  0  0  0
 39 40  1  0  0  0
 39 38  2  0  0  0
 40 36  1  0  0  0
 33 34  2  0  0  0
 33 32  1  0  0  0
 34 29  1  0  0  0
  4 24  1  0  0  0
  4  3  2  0  0  0
 38 37  1  0  0  0
 36 32  1  0  0  0
 36 37  2  0  0  0
  2  3  1  0  0  0
 12 13  2  0  0  0
 12 19  1  0  0  0
 25 24  1  0  0  0
 25 27  1  0  0  0
 32 31  2  0  0  0
 13 14  1  0  0  0
 29 27  1  0  0  0
 29 30  2  0  0  0
 19 18  2  0  0  0
 27 28  2  0  0  0
 31 30  1  0  0  0
 14 15  1  0  0  0
 14 16  2  0  0  0
 18 16  1  0  0  0
 16 17  1  0  0  0
 20 23  1  0  0  0
 25 26  1  0  0  0
 42 44  1  0  0  0
M  END
> <minimizedAffinity>
-7.96117

$$$$
4O0A_2P9_A_201


 44 48  0  0  0  0  0  0  0  0999 V2000
   -2.8582   11.3678   -0.6485 C   0  0  0  0  0  0  0  0  0  0  0  0
   -2.6938   12.5547    0.0396 C   0  0  0  0  0  0  0  0  0  0  0  0
   -1.4320   13.0108    0.3707 C   0  0  0  0  0  0  0  0  0  0  0  0
   -0.3145   12.2912    0.0043 C   0  0  0  0  0  0  0  0  0  0  0  0
   -0.4577   11.0953   -0.6992 C   0  0  0  0  0  0  0  0  0  0  0  0
   -1.7360   10.6439   -1.0307 C   0  0  0  0  0  0  0  0  0  0  0  0
   -6.1390   10.4938   -2.1339 C   0  0  0  0  0  0  0  0  0  0  0  0
   -6.2710   10.1208   -0.8777 N   0  0  0  0  0  0  0  0  0  0  0  0
   -5.1822   10.3836   -0.2236 N   0  0  0  0  0  0  0  0  0  0  0  0
   -4.2521   10.9091   -1.0225 C   0  0  0  0  0  0  0  0  0  0  0  0
   -4.8391   11.0257   -2.3151 C   0  0  0  0  0  0  0  0  0  0  0  0
   -5.0364   10.0639    1.1483 C   0  0  0  0  0  0  0  0  0  0  0  0
   -4.4332    8.8630    1.4744 C   0  0  0  0  0  0  0  0  0  0  0  0
   -4.2656    8.5018    2.7975 C   0  0  0  0  0  0  0  0  0  0  0  0
   -3.5006    6.9639    3.0852 Cl  0  0  0  0  0  0  0  0  0  0  0  0
   -4.7107    9.3350    3.8259 C   0  0  0  0  0  0  0  0  0  0  0  0
   -4.5004    8.9083    5.5036 Cl  0  0  0  0  0  0  0  0  0  0  0  0
   -5.3234   10.5340    3.4853 C   0  0  0  0  0  0  0  0  0  0  0  0
   -5.4889   10.8990    2.1516 C   0  0  0  0  0  0  0  0  0  0  0  0
   -6.9172    9.8743   -4.2799 O   0  0  0  0  0  0  0  0  0  0  0  0
   -7.2267   10.3262   -3.1522 C   0  0  0  0  0  0  0  0  0  0  0  0
   -8.3992   10.6624   -2.8652 O   0  0  0  0  0  0  0  0  0  0  0  0
   -6.0302    9.6326   -4.4605 H   0  0  0  0  0  0  0  0  0  0  0  0
    1.0411   12.8332    0.3930 C   0  0  0  0  0  0  0  0  0  0  0  0
    2.0356   11.8790    0.0554 N   0  0  0  0  0  0  0  0  0  0  0  0
    1.8593   11.0650   -0.4696 H   0  0  0  0  0  0  0  0  0  0  0  0
    3.3152   12.2334    0.5620 C   0  0  0  0  0  0  0  0  0  0  0  0
    3.2564   13.2388    2.0273 S   0  0  0  0  0  0  0  0  0  0  0  0
    4.3067   11.0735    0.5477 C   0  0  0  0  0  0  0  0  0  0  0  0
    3.7188    9.8634    0.8769 C   0  0  0  0  0  0  0  0  0  0  0  0
    4.4562    8.6944    0.9436 C   0  0  0  0  0  0  0  0  0  0  0  0
    5.8099    8.7564    0.6858 C   0  0  0  0  0  0  0  0  0  0  0  0
    6.4135    9.9510    0.3568 C   0  0  0  0  0  0  0  0  0  0  0  0
    5.6837   11.1252    0.2898 C   0  0  0  0  0  0  0  0  0  0  0  0
    6.5301   12.5934   -0.1391 Cl  0  0  0  0  0  0  0  0  0  0  0  0
    6.6721    7.5432    0.7157 C   0  0  0  0  0  0  0  0  0  0  0  0
    7.3635    6.9640    1.7777 C   0  0  0  0  0  0  0  0  0  0  0  0
    8.0092    5.8121    1.2233 C   0  0  0  0  0  0  0  0  0  0  0  0
    7.6276    5.8231   -0.1147 C   0  0  0  0  0  0  0  0  0  0  0  0
    6.8572    6.8394   -0.3735 O   0  0  0  0  0  0  0  0  0  0  0  0
    7.9936    4.8603   -1.1906 C   0  0  0  0  0  0  0  0  0  0  0  0
    8.7688    3.9121   -0.9259 O   0  0  0  0  0  0  0  0  0  0  0  0
    7.4566    5.0512   -2.3045 O   0  0  0  0  0  0  0  0  0  0  0  0
    9.1348    3.8319   -0.0671 H   0  0  0  0  0  0  0  0  0  0  0  0
 22 21  2  0  0  0
 21 20  1  0  0  0
 21  7  1  0  0  0
  7 11  1  0  0  0
  7  8  2  0  0  0
 11 10  2  0  0  0
 43 41  2  0  0  0
 42 41  1  0  0  0
 41 39  1  0  0  0
  8  9  1  0  0  0
  6  5  2  0  0  0
  6  1  1  0  0  0
 10  9  1  0  0  0
 10  1  1  0  0  0
  5  4  1  0  0  0
  9 12  1  0  0  0
  1  2  2  0  0  0
 35 34  1  0  0  0
 39 40  1  0  0  0
 39 38  2  0  0  0
 40 36  1  0  0  0
 33 34  2  0  0  0
 33 32  1  0  0  0
 34 29  1  0  0  0
  4 24  1  0  0  0
  4  3  2  0  0  0
 38 37  1  0  0  0
 36 32  1  0  0  0
 36 37  2  0  0  0
  2  3  1  0  0  0
 12 13  2  0  0  0
 12 19  1  0  0  0
 25 24  1  0  0  0
 25 27  1  0  0  0
 32 31  2  0  0  0
 13 14  1  0  0  0
 29 27  1  0  0  0
 29 30  2  0  0  0
 19 18  2  0  0  0
 27 28  2  0  0  0
 31 30  1  0  0  0
 14 15  1  0  0  0
 14 16  2  0  0  0
 18 16  1  0  0  0
 16 17  1  0  0  0
 20 23  1  0  0  0
 25 26  1  0  0  0
 42 44  1  0  0  0
M  END
> <minimizedAffinity>
-7.89138

$$$$
4O0A_2P9_A_201


 44 48  0  0  0  0  0  0  0  0999 V2000
   -3.9183   11.8201    0.1282 C   0  0  0  0  0  0  0  0  0  0  0  0
   -4.3882   13.0862   -0.1639 C   0  0  0  0  0  0  0  0  0  0  0  0
   -4.2969   13.5958   -1.4453 C   0  0  0  0  0  0  0  0  0  0  0  0
   -3.7463   12.8381   -2.4570 C   0  0  0  0  0  0  0  0  0  0  0  0
   -3.2746   11.5538   -2.1857 C   0  0  0  0  0  0  0  0  0  0  0  0
   -3.3730   11.0472   -0.8890 C   0  0  0  0  0  0  0  0  0  0  0  0
   -4.8640   10.3728    3.4062 C   0  0  0  0  0  0  0  0  0  0  0  0
   -3.6270   10.7790    3.6047 N   0  0  0  0  0  0  0  0  0  0  0  0
   -3.1650   11.3279    2.5241 N   0  0  0  0  0  0  0  0  0  0  0  0
   -4.0590   11.2783    1.5353 C   0  0  0  0  0  0  0  0  0  0  0  0
   -5.2284   10.6646    2.0692 C   0  0  0  0  0  0  0  0  0  0  0  0
   -1.8445   11.8339    2.4460 C   0  0  0  0  0  0  0  0  0  0  0  0
   -0.8043   10.9882    2.7848 C   0  0  0  0  0  0  0  0  0  0  0  0
    0.5034   11.4306    2.7262 C   0  0  0  0  0  0  0  0  0  0  0  0
    1.7275   10.2793    3.1835 Cl  0  0  0  0  0  0  0  0  0  0  0  0
    0.7966   12.7389    2.3357 C   0  0  0  0  0  0  0  0  0  0  0  0
    2.4387   13.3183    2.2416 Cl  0  0  0  0  0  0  0  0  0  0  0  0
   -0.2575   13.5813    2.0070 C   0  0  0  0  0  0  0  0  0  0  0  0
   -1.5751   13.1337    2.0631 C   0  0  0  0  0  0  0  0  0  0  0  0
   -5.3823    8.5206    4.7830 O   0  0  0  0  0  0  0  0  0  0  0  0
   -5.6798    9.6968    4.4670 C   0  0  0  0  0  0  0  0  0  0  0  0
   -6.6438   10.3055    4.9871 O   0  0  0  0  0  0  0  0  0  0  0  0
   -4.6545    8.0954    4.3738 H   0  0  0  0  0  0  0  0  0  0  0  0
   -3.6685   13.4435   -3.8390 C   0  0  0  0  0  0  0  0  0  0  0  0
   -2.6601   12.7757   -4.5810 N   0  0  0  0  0  0  0  0  0  0  0  0
   -2.7002   11.8235   -4.8280 H   0  0  0  0  0  0  0  0  0  0  0  0
   -1.5856   13.6393   -4.9267 C   0  0  0  0  0  0  0  0  0  0  0  0
   -1.3860   15.0182   -3.8222 S   0  0  0  0  0  0  0  0  0  0  0  0
   -0.3246   12.8880   -5.3442 C   0  0  0  0  0  0  0  0  0  0  0  0
    0.2275   12.1529   -4.3084 C   0  0  0  0  0  0  0  0  0  0  0  0
    1.3892   11.4207   -4.4789 C   0  0  0  0  0  0  0  0  0  0  0  0
    2.0058   11.4453   -5.7126 C   0  0  0  0  0  0  0  0  0  0  0  0
    1.4721   12.1710   -6.7559 C   0  0  0  0  0  0  0  0  0  0  0  0
    0.3116   12.9077   -6.5932 C   0  0  0  0  0  0  0  0  0  0  0  0
   -0.2964   13.7947   -7.9714 Cl  0  0  0  0  0  0  0  0  0  0  0  0
    3.2466   10.6700   -5.9869 C   0  0  0  0  0  0  0  0  0  0  0  0
    4.5153   11.1141   -6.3537 C   0  0  0  0  0  0  0  0  0  0  0  0
    5.3111    9.9288   -6.4672 C   0  0  0  0  0  0  0  0  0  0  0  0
    4.4305    8.8998   -6.1484 C   0  0  0  0  0  0  0  0  0  0  0  0
    3.2452    9.3645   -5.8790 O   0  0  0  0  0  0  0  0  0  0  0  0
    4.6967    7.4352   -6.0960 C   0  0  0  0  0  0  0  0  0  0  0  0
    3.7466    6.6342   -6.2568 O   0  0  0  0  0  0  0  0  0  0  0  0
    5.8901    7.0995   -5.9269 O   0  0  0  0  0  0  0  0  0  0  0  0
    2.8759    6.9584   -6.3782 H   0  0  0  0  0  0  0  0  0  0  0  0
 22 21  2  0  0  0
 21 20  1  0  0  0
 21  7  1  0  0  0
  7 11  1  0  0  0
  7  8  2  0  0  0
 11 10  2  0  0  0
 43 41  2  0  0  0
 42 41  1  0  0  0
 41 39  1  0  0  0
  8  9  1  0  0  0
  6  5  2  0  0  0
  6  1  1  0  0  0
 10  9  1  0  0  0
 10  1  1  0  0  0
  5  4  1  0  0  0
  9 12  1  0  0  0
  1  2  2  0  0  0
 35 34  1  0  0  0
 39 40  1  0  0  0
 39 38  2  0  0  0
 40 36  1  0  0  0
 33 34  2  0  0  0
 33 32  1  0  0  0
 34 29  1  0  0  0
  4 24  1  0  0  0
  4  3  2  0  0  0
 38 37  1  0  0  0
 36 32  1  0  0  0
 36 37  2  0  0  0
  2  3  1  0  0  0
 12 13  2  0  0  0
 12 19  1  0  0  0
 25 24  1  0  0  0
 25 27  1  0  0  0
 32 31  2  0  0  0
 13 14  1  0  0  0
 29 27  1  0  0  0
 29 30  2  0  0  0
 19 18  2  0  0  0
 27 28  2  0  0  0
 31 30  1  0  0  0
 14 15  1  0  0  0
 14 16  2  0  0  0
 18 16  1  0  0  0
 16 17  1  0  0  0
 20 23  1  0  0  0
 25 26  1  0  0  0
 42 44  1  0  0  0
M  END
> <minimizedAffinity>
-7.73380

$$$$
4O0A_2P9_A_201


 44 48  0  0  0  0  0  0  0  0999 V2000
    1.4495   12.9124   -3.5373 C   0  0  0  0  0  0  0  0  0  0  0  0
    0.7071   12.1202   -2.6826 C   0  0  0  0  0  0  0  0  0  0  0  0
    1.0534   12.0007   -1.3501 C   0  0  0  0  0  0  0  0  0  0  0  0
    2.1410   12.6850   -0.8505 C   0  0  0  0  0  0  0  0  0  0  0  0
    2.8983   13.4977   -1.6940 C   0  0  0  0  0  0  0  0  0  0  0  0
    2.5395   13.6137   -3.0377 C   0  0  0  0  0  0  0  0  0  0  0  0
   -0.0236   13.6404   -6.8591 C   0  0  0  0  0  0  0  0  0  0  0  0
    0.8812   12.7219   -7.1284 N   0  0  0  0  0  0  0  0  0  0  0  0
    1.4776   12.3578   -6.0357 N   0  0  0  0  0  0  0  0  0  0  0  0
    1.0278   13.0465   -4.9856 C   0  0  0  0  0  0  0  0  0  0  0  0
    0.0051   13.9119   -5.4695 C   0  0  0  0  0  0  0  0  0  0  0  0
    2.5170   11.3957   -6.0340 C   0  0  0  0  0  0  0  0  0  0  0  0
    3.7876   11.8124   -6.3863 C   0  0  0  0  0  0  0  0  0  0  0  0
    4.8382   10.9151   -6.4011 C   0  0  0  0  0  0  0  0  0  0  0  0
    6.3898   11.5532   -6.8685 Cl  0  0  0  0  0  0  0  0  0  0  0  0
    4.6345    9.5733   -6.0723 C   0  0  0  0  0  0  0  0  0  0  0  0
    5.9455    8.4234   -6.0713 Cl  0  0  0  0  0  0  0  0  0  0  0  0
    3.3520    9.1653   -5.7294 C   0  0  0  0  0  0  0  0  0  0  0  0
    2.2942   10.0710   -5.7114 C   0  0  0  0  0  0  0  0  0  0  0  0
   -1.9808   13.7163   -8.1852 O   0  0  0  0  0  0  0  0  0  0  0  0
   -0.8877   14.2664   -7.9124 C   0  0  0  0  0  0  0  0  0  0  0  0
   -0.4904   15.2957   -8.5064 O   0  0  0  0  0  0  0  0  0  0  0  0
   -2.2470   12.9472   -7.7209 H   0  0  0  0  0  0  0  0  0  0  0  0
    2.4774   12.5175    0.6128 C   0  0  0  0  0  0  0  0  0  0  0  0
    1.8623   11.3339    1.0969 N   0  0  0  0  0  0  0  0  0  0  0  0
    1.0479   10.9403    0.7083 H   0  0  0  0  0  0  0  0  0  0  0  0
    2.5570   10.7820    2.2072 C   0  0  0  0  0  0  0  0  0  0  0  0
    1.5131   10.4117    3.5980 S   0  0  0  0  0  0  0  0  0  0  0  0
    3.5879    9.7310    1.8056 C   0  0  0  0  0  0  0  0  0  0  0  0
    4.6584    9.6697    2.6823 C   0  0  0  0  0  0  0  0  0  0  0  0
    5.7121    8.7963    2.4786 C   0  0  0  0  0  0  0  0  0  0  0  0
    5.6857    7.9839    1.3641 C   0  0  0  0  0  0  0  0  0  0  0  0
    4.6294    8.0303    0.4798 C   0  0  0  0  0  0  0  0  0  0  0  0
    3.5724    8.9025    0.6749 C   0  0  0  0  0  0  0  0  0  0  0  0
    2.2733    8.8909   -0.4946 Cl  0  0  0  0  0  0  0  0  0  0  0  0
    6.7681    7.0020    1.0813 C   0  0  0  0  0  0  0  0  0  0  0  0
    7.8141    6.5665    1.8921 C   0  0  0  0  0  0  0  0  0  0  0  0
    8.5312    5.6115    1.1016 C   0  0  0  0  0  0  0  0  0  0  0  0
    7.8300    5.5739   -0.0996 C   0  0  0  0  0  0  0  0  0  0  0  0
    6.8186    6.3924   -0.0771 O   0  0  0  0  0  0  0  0  0  0  0  0
    8.1103    4.7537   -1.3109 C   0  0  0  0  0  0  0  0  0  0  0  0
    7.4507    4.9603   -2.3562 O   0  0  0  0  0  0  0  0  0  0  0  0
    9.0357    3.9181   -1.2065 O   0  0  0  0  0  0  0  0  0  0  0  0
    6.7698    5.6039   -2.3609 H   0  0  0  0  0  0  0  0  0  0  0  0
 22 21  2  0  0  0
 21 20  1  0  0  0
 21  7  1  0  0  0
  7 11  1  0  0  0
  7  8  2  0  0  0
 11 10  2  0  0  0
 43 41  2  0  0  0
 42 41  1  0  0  0
 41 39  1  0  0  0
  8  9  1  0  0  0
  6  5  2  0  0  0
  6  1  1  0  0  0
 10  9  1  0  0  0
 10  1  1  0  0  0
  5  4  1  0  0  0
  9 12  1  0  0  0
  1  2  2  0  0  0
 35 34  1  0  0  0
 39 40  1  0  0  0
 39 38  2  0  0  0
 40 36  1  0  0  0
 33 34  2  0  0  0
 33 32  1  0  0  0
 34 29  1  0  0  0
  4 24  1  0  0  0
  4  3  2  0  0  0
 38 37  1  0  0  0
 36 32  1  0  0  0
 36 37  2  0  0  0
  2  3  1  0  0  0
 12 13  2  0  0  0
 12 19  1  0  0  0
 25 24  1  0  0  0
 25 27  1  0  0  0
 32 31  2  0  0  0
 13 14  1  0  0  0
 29 27  1  0  0  0
 29 30  2  0  0  0
 19 18  2  0  0  0
 27 28  2  0  0  0
 31 30  1  0  0  0
 14 15  1  0  0  0
 14 16  2  0  0  0
 18 16  1  0  0  0
 16 17  1  0  0  0
 20 23  1  0  0  0
 25 26  1  0  0  0
 42 44  1  0  0  0
M  END
> <minimizedAffinity>
-7.72762

$$$$
4O0A_2P9_A_201


 44 48  0  0  0  0  0  0  0  0999 V2000
    1.5325   11.2944   -4.8489 C   0  0  0  0  0  0  0  0  0  0  0  0
    1.5597   11.6266   -3.5080 C   0  0  0  0  0  0  0  0  0  0  0  0
    0.5337   12.3578   -2.9401 C   0  0  0  0  0  0  0  0  0  0  0  0
   -0.5428   12.7548   -3.7046 C   0  0  0  0  0  0  0  0  0  0  0  0
   -0.5946   12.4217   -5.0581 C   0  0  0  0  0  0  0  0  0  0  0  0
    0.4454   11.6813   -5.6220 C   0  0  0  0  0  0  0  0  0  0  0  0
    4.0226    8.7873   -5.9661 C   0  0  0  0  0  0  0  0  0  0  0  0
    4.4810    9.9115   -6.4766 N   0  0  0  0  0  0  0  0  0  0  0  0
    3.7006   10.8943   -6.1489 N   0  0  0  0  0  0  0  0  0  0  0  0
    2.6573   10.4674   -5.4356 C   0  0  0  0  0  0  0  0  0  0  0  0
    2.8247    9.0633   -5.2630 C   0  0  0  0  0  0  0  0  0  0  0  0
    3.9418   12.2202   -6.5842 C   0  0  0  0  0  0  0  0  0  0  0  0
    4.8961   12.9608   -5.9111 C   0  0  0  0  0  0  0  0  0  0  0  0
    5.1711   14.2595   -6.2945 C   0  0  0  0  0  0  0  0  0  0  0  0
    6.3861   15.0954   -5.3680 Cl  0  0  0  0  0  0  0  0  0  0  0  0
    4.4849   14.8495   -7.3580 C   0  0  0  0  0  0  0  0  0  0  0  0
    4.8216   16.4823   -7.8695 Cl  0  0  0  0  0  0  0  0  0  0  0  0
    3.5222   14.0985   -8.0198 C   0  0  0  0  0  0  0  0  0  0  0  0
    3.2479   12.7884   -7.6350 C   0  0  0  0  0  0  0  0  0  0  0  0
    4.0051    6.4882   -6.5220 O   0  0  0  0  0  0  0  0  0  0  0  0
    4.7031    7.4659   -6.1630 C   0  0  0  0  0  0  0  0  0  0  0  0
    5.9323    7.3645   -5.9414 O   0  0  0  0  0  0  0  0  0  0  0  0
    3.0882    6.5998   -6.6793 H   0  0  0  0  0  0  0  0  0  0  0  0
   -1.6361   13.5540   -3.0350 C   0  0  0  0  0  0  0  0  0  0  0  0
   -2.8118   12.7625   -2.9652 N   0  0  0  0  0  0  0  0  0  0  0  0
   -3.0010   12.0065   -3.5668 H   0  0  0  0  0  0  0  0  0  0  0  0
   -3.6849   13.1866   -1.9271 C   0  0  0  0  0  0  0  0  0  0  0  0
   -5.0998   14.0965   -2.5030 S   0  0  0  0  0  0  0  0  0  0  0  0
   -3.9258   12.1115   -0.8713 C   0  0  0  0  0  0  0  0  0  0  0  0
   -3.2520   12.3639    0.3122 C   0  0  0  0  0  0  0  0  0  0  0  0
   -3.3219   11.4930    1.3853 C   0  0  0  0  0  0  0  0  0  0  0  0
   -4.0744   10.3447    1.2511 C   0  0  0  0  0  0  0  0  0  0  0  0
   -4.7520   10.0756    0.0813 C   0  0  0  0  0  0  0  0  0  0  0  0
   -4.6859   10.9404   -0.9974 C   0  0  0  0  0  0  0  0  0  0  0  0
   -5.5804   10.5219   -2.4398 Cl  0  0  0  0  0  0  0  0  0  0  0  0
   -4.2195    9.3656    2.3629 C   0  0  0  0  0  0  0  0  0  0  0  0
   -3.7779    8.0474    2.4563 C   0  0  0  0  0  0  0  0  0  0  0  0
   -4.1883    7.6037    3.7547 C   0  0  0  0  0  0  0  0  0  0  0  0
   -4.8281    8.7111    4.3026 C   0  0  0  0  0  0  0  0  0  0  0  0
   -4.8301    9.7106    3.4692 O   0  0  0  0  0  0  0  0  0  0  0  0
   -5.4630    8.8452    5.6434 C   0  0  0  0  0  0  0  0  0  0  0  0
   -6.4619    8.1414    5.9209 O   0  0  0  0  0  0  0  0  0  0  0  0
   -4.9158    9.6474    6.4325 O   0  0  0  0  0  0  0  0  0  0  0  0
   -6.8193    7.5610    5.2780 H   0  0  0  0  0  0  0  0  0  0  0  0
 22 21  2  0  0  0
 21 20  1  0  0  0
 21  7  1  0  0  0
  7 11  1  0  0  0
  7  8  2  0  0  0
 11 10  2  0  0  0
 43 41  2  0  0  0
 42 41  1  0  0  0
 41 39  1  0  0  0
  8  9  1  0  0  0
  6  5  2  0  0  0
  6  1  1  0  0  0
 10  9  1  0  0  0
 10  1  1  0  0  0
  5  4  1  0  0  0
  9 12  1  0  0  0
  1  2  2  0  0  0
 35 34  1  0  0  0
 39 40  1  0  0  0
 39 38  2  0  0  0
 40 36  1  0  0  0
 33 34  2  0  0  0
 33 32  1  0  0  0
 34 29  1  0  0  0
  4 24  1  0  0  0
  4  3  2  0  0  0
 38 37  1  0  0  0
 36 32  1  0  0  0
 36 37  2  0  0  0
  2  3  1  0  0  0
 12 13  2  0  0  0
 12 19  1  0  0  0
 25 24  1  0  0  0
 25 27  1  0  0  0
 32 31  2  0  0  0
 13 14  1  0  0  0
 29 27  1  0  0  0
 29 30  2  0  0  0
 19 18  2  0  0  0
 27 28  2  0  0  0
 31 30  1  0  0  0
 14 15  1  0  0  0
 14 16  2  0  0  0
 18 16  1  0  0  0
 16 17  1  0  0  0
 20 23  1  0  0  0
 25 26  1  0  0  0
 42 44  1  0  0  0
M  END
> <minimizedAffinity>
-7.64642

$$$$
4O0A_2P9_A_201


 44 48  0  0  0  0  0  0  0  0999 V2000
    4.4365    9.7092    1.8966 C   0  0  0  0  0  0  0  0  0  0  0  0
    4.4495   10.9472    1.2831 C   0  0  0  0  0  0  0  0  0  0  0  0
    3.4013   11.8315    1.4537 C   0  0  0  0  0  0  0  0  0  0  0  0
    2.3304   11.4940    2.2537 C   0  0  0  0  0  0  0  0  0  0  0  0
    2.3019   10.2530    2.8899 C   0  0  0  0  0  0  0  0  0  0  0  0
    3.3661    9.3676    2.7131 C   0  0  0  0  0  0  0  0  0  0  0  0
    6.9214    7.0825    1.0838 C   0  0  0  0  0  0  0  0  0  0  0  0
    7.5648    7.8472    1.9416 N   0  0  0  0  0  0  0  0  0  0  0  0
    6.7969    8.8186    2.3277 N   0  0  0  0  0  0  0  0  0  0  0  0
    5.6133    8.7737    1.7140 C   0  0  0  0  0  0  0  0  0  0  0  0
    5.6274    7.6200    0.8787 C   0  0  0  0  0  0  0  0  0  0  0  0
    7.2420    9.8105    3.2353 C   0  0  0  0  0  0  0  0  0  0  0  0
    7.2918    9.4859    4.5785 C   0  0  0  0  0  0  0  0  0  0  0  0
    7.7186   10.4161    5.5069 C   0  0  0  0  0  0  0  0  0  0  0  0
    7.7314    9.8959    7.1689 Cl  0  0  0  0  0  0  0  0  0  0  0  0
    8.0956   11.7002    5.1081 C   0  0  0  0  0  0  0  0  0  0  0  0
    8.6494   12.8885    6.2579 Cl  0  0  0  0  0  0  0  0  0  0  0  0
    8.0321   12.0169    3.7574 C   0  0  0  0  0  0  0  0  0  0  0  0
    7.6051   11.0778    2.8219 C   0  0  0  0  0  0  0  0  0  0  0  0
    6.9298    5.3264   -0.5008 O   0  0  0  0  0  0  0  0  0  0  0  0
    7.5369    5.8702    0.4519 C   0  0  0  0  0  0  0  0  0  0  0  0
    8.6158    5.4189    0.9020 O   0  0  0  0  0  0  0  0  0  0  0  0
    6.1248    5.6909   -0.8123 H   0  0  0  0  0  0  0  0  0  0  0  0
    1.2100   12.4962    2.4046 C   0  0  0  0  0  0  0  0  0  0  0  0
    0.7029   12.8208    1.1197 N   0  0  0  0  0  0  0  0  0  0  0  0
    0.8015   13.7050    0.6981 H   0  0  0  0  0  0  0  0  0  0  0  0
    0.0363   11.7230    0.5113 C   0  0  0  0  0  0  0  0  0  0  0  0
   -1.7288   11.7445    0.7242 S   0  0  0  0  0  0  0  0  0  0  0  0
    0.5700   11.3954   -0.8803 C   0  0  0  0  0  0  0  0  0  0  0  0
    1.3450   10.2477   -0.8993 C   0  0  0  0  0  0  0  0  0  0  0  0
    1.9414    9.7957   -2.0632 C   0  0  0  0  0  0  0  0  0  0  0  0
    1.7598   10.5249   -3.2200 C   0  0  0  0  0  0  0  0  0  0  0  0
    0.9924   11.6698   -3.2215 C   0  0  0  0  0  0  0  0  0  0  0  0
    0.3940   12.1300   -2.0613 C   0  0  0  0  0  0  0  0  0  0  0  0
   -0.5653   13.5882   -2.1562 Cl  0  0  0  0  0  0  0  0  0  0  0  0
    2.3486   10.0980   -4.5188 C   0  0  0  0  0  0  0  0  0  0  0  0
    2.2681   10.6941   -5.7756 C   0  0  0  0  0  0  0  0  0  0  0  0
    3.0369    9.8518   -6.6421 C   0  0  0  0  0  0  0  0  0  0  0  0
    3.5015    8.8420   -5.8052 C   0  0  0  0  0  0  0  0  0  0  0  0
    3.0819    9.0145   -4.5855 O   0  0  0  0  0  0  0  0  0  0  0  0
    4.3607    7.6749   -6.1496 C   0  0  0  0  0  0  0  0  0  0  0  0
    3.8526    6.5300   -6.1848 O   0  0  0  0  0  0  0  0  0  0  0  0
    5.5541    7.9330   -6.4227 O   0  0  0  0  0  0  0  0  0  0  0  0
    2.9491    6.4114   -5.9668 H   0  0  0  0  0  0  0  0  0  0  0  0
 22 21  2  0  0  0
 21 20  1  0  0  0
 21  7  1  0  0  0
  7 11  1  0  0  0
  7  8  2  0  0  0
 11 10  2  0  0  0
 43 41  2  0  0  0
 42 41  1  0  0  0
 41 39  1  0  0  0
  8  9  1  0  0  0
  6  5  2  0  0  0
  6  1  1  0  0  0
 10  9  1  0  0  0
 10  1  1  0  0  0
  5  4  1  0  0  0
  9 12  1  0  0  0
  1  2  2  0  0  0
 35 34  1  0  0  0
 39 40  1  0  0  0
 39 38  2  0  0  0
 40 36  1  0  0  0
 33 34  2  0  0  0
 33 32  1  0  0  0
 34 29  1  0  0  0
  4 24  1  0  0  0
  4  3  2  0  0  0
 38 37  1  0  0  0
 36 32  1  0  0  0
 36 37  2  0  0  0
  2  3  1  0  0  0
 12 13  2  0  0  0
 12 19  1  0  0  0
 25 24  1  0  0  0
 25 27  1  0  0  0
 32 31  2  0  0  0
 13 14  1  0  0  0
 29 27  1  0  0  0
 29 30  2  0  0  0
 19 18  2  0  0  0
 27 28  2  0  0  0
 31 30  1  0  0  0
 14 15  1  0  0  0
 14 16  2  0  0  0
 18 16  1  0  0  0
 16 17  1  0  0  0
 20 23  1  0  0  0
 25 26  1  0  0  0
 42 44  1  0  0  0
M  END
> <minimizedAffinity>
-7.53261

$$$$
4O0A_2P9_A_201


 44 48  0  0  0  0  0  0  0  0999 V2000
    1.2603   12.5225   -3.0439 C   0  0  0  0  0  0  0  0  0  0  0  0
   -0.0551   12.2838   -2.6945 C   0  0  0  0  0  0  0  0  0  0  0  0
   -0.8423   13.2930   -2.1734 C   0  0  0  0  0  0  0  0  0  0  0  0
   -0.3272   14.5611   -2.0079 C   0  0  0  0  0  0  0  0  0  0  0  0
    0.9954   14.8259   -2.3632 C   0  0  0  0  0  0  0  0  0  0  0  0
    1.7819   13.8007   -2.8905 C   0  0  0  0  0  0  0  0  0  0  0  0
    3.0594    9.9861   -5.0597 C   0  0  0  0  0  0  0  0  0  0  0  0
    3.3548    9.6480   -3.8216 N   0  0  0  0  0  0  0  0  0  0  0  0
    2.7714   10.4575   -2.9930 N   0  0  0  0  0  0  0  0  0  0  0  0
    2.0888   11.4037   -3.6397 C   0  0  0  0  0  0  0  0  0  0  0  0
    2.2277   11.1319   -5.0311 C   0  0  0  0  0  0  0  0  0  0  0  0
    2.9352   10.3415   -1.5910 C   0  0  0  0  0  0  0  0  0  0  0  0
    3.6969   11.2980   -0.9452 C   0  0  0  0  0  0  0  0  0  0  0  0
    3.8887   11.2326    0.4216 C   0  0  0  0  0  0  0  0  0  0  0  0
    4.8724   12.4874    1.1225 Cl  0  0  0  0  0  0  0  0  0  0  0  0
    3.3280   10.1966    1.1715 C   0  0  0  0  0  0  0  0  0  0  0  0
    3.5448   10.0978    2.8990 Cl  0  0  0  0  0  0  0  0  0  0  0  0
    2.5730    9.2369    0.5098 C   0  0  0  0  0  0  0  0  0  0  0  0
    2.3773    9.3054   -0.8673 C   0  0  0  0  0  0  0  0  0  0  0  0
    2.8747    8.3212   -6.7297 O   0  0  0  0  0  0  0  0  0  0  0  0
    3.5791    9.2425   -6.2535 C   0  0  0  0  0  0  0  0  0  0  0  0
    4.7022    9.5374   -6.7245 O   0  0  0  0  0  0  0  0  0  0  0  0
    2.0392    8.1274   -6.3525 H   0  0  0  0  0  0  0  0  0  0  0  0
   -1.2295   15.6272   -1.4320 C   0  0  0  0  0  0  0  0  0  0  0  0
   -2.1816   15.0153   -0.5761 N   0  0  0  0  0  0  0  0  0  0  0  0
   -3.0703   14.7118   -0.8718 H   0  0  0  0  0  0  0  0  0  0  0  0
   -1.7051   14.8909    0.7570 C   0  0  0  0  0  0  0  0  0  0  0  0
   -1.8652   16.3766    1.7205 S   0  0  0  0  0  0  0  0  0  0  0  0
   -2.1157   13.5788    1.4192 C   0  0  0  0  0  0  0  0  0  0  0  0
   -3.4188   13.6012    1.8878 C   0  0  0  0  0  0  0  0  0  0  0  0
   -3.9718   12.5146    2.5423 C   0  0  0  0  0  0  0  0  0  0  0  0
   -3.1882   11.3959    2.7354 C   0  0  0  0  0  0  0  0  0  0  0  0
   -1.8891   11.3543    2.2768 C   0  0  0  0  0  0  0  0  0  0  0  0
   -1.3276   12.4375    1.6229 C   0  0  0  0  0  0  0  0  0  0  0  0
    0.3251   12.2956    1.0715 Cl  0  0  0  0  0  0  0  0  0  0  0  0
   -3.7113   10.1770    3.4111 C   0  0  0  0  0  0  0  0  0  0  0  0
   -3.5891    8.8356    3.0548 C   0  0  0  0  0  0  0  0  0  0  0  0
   -4.2786    8.1094    4.0787 C   0  0  0  0  0  0  0  0  0  0  0  0
   -4.7352    9.0987    4.9441 C   0  0  0  0  0  0  0  0  0  0  0  0
   -4.3916   10.2820    4.5256 O   0  0  0  0  0  0  0  0  0  0  0  0
   -5.5207    8.9410    6.1999 C   0  0  0  0  0  0  0  0  0  0  0  0
   -4.9883    9.2341    7.2957 O   0  0  0  0  0  0  0  0  0  0  0  0
   -6.7017    8.5510    6.0638 O   0  0  0  0  0  0  0  0  0  0  0  0
   -4.0964    9.5199    7.3217 H   0  0  0  0  0  0  0  0  0  0  0  0
 22 21  2  0  0  0
 21 20  1  0  0  0
 21  7  1  0  0  0
  7 11  1  0  0  0
  7  8  2  0  0  0
 11 10  2  0  0  0
 43 41  2  0  0  0
 42 41  1  0  0  0
 41 39  1  0  0  0
  8  9  1  0  0  0
  6  5  2  0  0  0
  6  1  1  0  0  0
 10  9  1  0  0  0
 10  1  1  0  0  0
  5  4  1  0  0  0
  9 12  1  0  0  0
  1  2  2  0  0  0
 35 34  1  0  0  0
 39 40  1  0  0  0
 39 38  2  0  0  0
 40 36  1  0  0  0
 33 34  2  0  0  0
 33 32  1  0  0  0
 34 29  1  0  0  0
  4 24  1  0  0  0
  4  3  2  0  0  0
 38 37  1  0  0  0
 36 32  1  0  0  0
 36 37  2  0  0  0
  2  3  1  0  0  0
 12 13  2  0  0  0
 12 19  1  0  0  0
 25 24  1  0  0  0
 25 27  1  0  0  0
 32 31  2  0  0  0
 13 14  1  0  0  0
 29 27  1  0  0  0
 29 30  2  0  0  0
 19 18  2  0  0  0
 27 28  2  0  0  0
 31 30  1  0  0  0
 14 15  1  0  0  0
 14 16  2  0  0  0
 18 16  1  0  0  0
 16 17  1  0  0  0
 20 23  1  0  0  0
 25 26  1  0  0  0
 42 44  1  0  0  0
M  END
> <minimizedAffinity>
-7.47230

$$$$
4O0A_2P9_A_201


 44 48  0  0  0  0  0  0  0  0999 V2000
    2.2943   13.0810   -1.7686 C   0  0  0  0  0  0  0  0  0  0  0  0
    0.9857   13.5241   -1.7511 C   0  0  0  0  0  0  0  0  0  0  0  0
    0.6296   14.6475   -1.0291 C   0  0  0  0  0  0  0  0  0  0  0  0
    1.5827   15.3524   -0.3253 C   0  0  0  0  0  0  0  0  0  0  0  0
    2.9112   14.9276   -0.3374 C   0  0  0  0  0  0  0  0  0  0  0  0
    3.2614   13.7932   -1.0711 C   0  0  0  0  0  0  0  0  0  0  0  0
    2.9377   10.4257   -4.2726 C   0  0  0  0  0  0  0  0  0  0  0  0
    3.3210    9.8694   -3.1421 N   0  0  0  0  0  0  0  0  0  0  0  0
    3.1371   10.6962   -2.1599 N   0  0  0  0  0  0  0  0  0  0  0  0
    2.6588   11.8639   -2.5927 C   0  0  0  0  0  0  0  0  0  0  0  0
    2.4856   11.7401   -4.0012 C   0  0  0  0  0  0  0  0  0  0  0  0
    3.4865   10.3669   -0.8275 C   0  0  0  0  0  0  0  0  0  0  0  0
    4.8127   10.4891   -0.4552 C   0  0  0  0  0  0  0  0  0  0  0  0
    5.2081   10.1811    0.8324 C   0  0  0  0  0  0  0  0  0  0  0  0
    6.9042   10.3659    1.1824 Cl  0  0  0  0  0  0  0  0  0  0  0  0
    4.2809    9.7318    1.7749 C   0  0  0  0  0  0  0  0  0  0  0  0
    4.7518    9.3482    3.4095 Cl  0  0  0  0  0  0  0  0  0  0  0  0
    2.9537    9.6043    1.3859 C   0  0  0  0  0  0  0  0  0  0  0  0
    2.5552    9.9182    0.0889 C   0  0  0  0  0  0  0  0  0  0  0  0
    3.3313   10.3997   -6.6049 O   0  0  0  0  0  0  0  0  0  0  0  0
    3.0209    9.7244   -5.5952 C   0  0  0  0  0  0  0  0  0  0  0  0
    2.7556    8.5017   -5.6642 O   0  0  0  0  0  0  0  0  0  0  0  0
    3.5237   11.3125   -6.5169 H   0  0  0  0  0  0  0  0  0  0  0  0
    1.1398   16.5717    0.4491 C   0  0  0  0  0  0  0  0  0  0  0  0
   -0.1698   16.3521    0.9493 N   0  0  0  0  0  0  0  0  0  0  0  0
   -0.9882   16.6668    0.5017 H   0  0  0  0  0  0  0  0  0  0  0  0
   -0.1643   15.6256    2.1708 C   0  0  0  0  0  0  0  0  0  0  0  0
   -0.5798   16.6068    3.5941 S   0  0  0  0  0  0  0  0  0  0  0  0
   -0.8171   14.2513    2.0526 C   0  0  0  0  0  0  0  0  0  0  0  0
   -2.1938   14.3229    1.9194 C   0  0  0  0  0  0  0  0  0  0  0  0
   -2.9724   13.1831    1.8228 C   0  0  0  0  0  0  0  0  0  0  0  0
   -2.3472   11.9546    1.8752 C   0  0  0  0  0  0  0  0  0  0  0  0
   -0.9784   11.8624    2.0078 C   0  0  0  0  0  0  0  0  0  0  0  0
   -0.1925   12.9975    2.1071 C   0  0  0  0  0  0  0  0  0  0  0  0
    1.5353   12.7870    2.2683 Cl  0  0  0  0  0  0  0  0  0  0  0  0
   -3.1074   10.6801    1.7579 C   0  0  0  0  0  0  0  0  0  0  0  0
   -3.8255   10.1636    0.6813 C   0  0  0  0  0  0  0  0  0  0  0  0
   -4.3326    8.9039    1.1364 C   0  0  0  0  0  0  0  0  0  0  0  0
   -3.8559    8.7995    2.4393 C   0  0  0  0  0  0  0  0  0  0  0  0
   -3.1539    9.8453    2.7663 O   0  0  0  0  0  0  0  0  0  0  0  0
   -4.0620    7.6936    3.4157 C   0  0  0  0  0  0  0  0  0  0  0  0
   -5.0367    7.7445    4.2015 O   0  0  0  0  0  0  0  0  0  0  0  0
   -3.2448    6.7480    3.3552 O   0  0  0  0  0  0  0  0  0  0  0  0
   -5.6088    8.4865    4.1909 H   0  0  0  0  0  0  0  0  0  0  0  0
 22 21  2  0  0  0
 21 20  1  0  0  0
 21  7  1  0  0  0
  7 11  1  0  0  0
  7  8  2  0  0  0
 11 10  2  0  0  0
 43 41  2  0  0  0
 42 41  1  0  0  0
 41 39  1  0  0  0
  8  9  1  0  0  0
  6  5  2  0  0  0
  6  1  1  0  0  0
 10  9  1  0  0  0
 10  1  1  0  0  0
  5  4  1  0  0  0
  9 12  1  0  0  0
  1  2  2  0  0  0
 35 34  1  0  0  0
 39 40  1  0  0  0
 39 38  2  0  0  0
 40 36  1  0  0  0
 33 34  2  0  0  0
 33 32  1  0  0  0
 34 29  1  0  0  0
  4 24  1  0  0  0
  4  3  2  0  0  0
 38 37  1  0  0  0
 36 32  1  0  0  0
 36 37  2  0  0  0
  2  3  1  0  0  0
 12 13  2  0  0  0
 12 19  1  0  0  0
 25 24  1  0  0  0
 25 27  1  0  0  0
 32 31  2  0  0  0
 13 14  1  0  0  0
 29 27  1  0  0  0
 29 30  2  0  0  0
 19 18  2  0  0  0
 27 28  2  0  0  0
 31 30  1  0  0  0
 14 15  1  0  0  0
 14 16  2  0  0  0
 18 16  1  0  0  0
 16 17  1  0  0  0
 20 23  1  0  0  0
 25 26  1  0  0  0
 42 44  1  0  0  0
M  END
> <minimizedAffinity>
-7.42275

$$$$
4O0A_2P9_A_201


 44 48  0  0  0  0  0  0  0  0999 V2000
    2.2609   11.1809   -3.2996 C   0  0  0  0  0  0  0  0  0  0  0  0
    1.5961   10.0920   -2.7692 C   0  0  0  0  0  0  0  0  0  0  0  0
    1.8209    9.6931   -1.4653 C   0  0  0  0  0  0  0  0  0  0  0  0
    2.7050   10.3887   -0.6682 C   0  0  0  0  0  0  0  0  0  0  0  0
    3.3795   11.4967   -1.1810 C   0  0  0  0  0  0  0  0  0  0  0  0
    3.1443   11.8930   -2.4984 C   0  0  0  0  0  0  0  0  0  0  0  0
    1.0421   12.5196   -6.5333 C   0  0  0  0  0  0  0  0  0  0  0  0
    2.0841   11.7946   -6.8839 N   0  0  0  0  0  0  0  0  0  0  0  0
    2.6121   11.2458   -5.8339 N   0  0  0  0  0  0  0  0  0  0  0  0
    1.9715   11.6113   -4.7224 C   0  0  0  0  0  0  0  0  0  0  0  0
    0.8954   12.4526   -5.1263 C   0  0  0  0  0  0  0  0  0  0  0  0
    3.7657   10.4283   -5.9154 C   0  0  0  0  0  0  0  0  0  0  0  0
    3.5862    9.0627   -6.0377 C   0  0  0  0  0  0  0  0  0  0  0  0
    4.6774    8.2192   -6.1213 C   0  0  0  0  0  0  0  0  0  0  0  0
    4.3276    6.5190   -6.2648 Cl  0  0  0  0  0  0  0  0  0  0  0  0
    5.9770    8.7276   -6.0727 C   0  0  0  0  0  0  0  0  0  0  0  0
    7.3708    7.6861   -6.1884 Cl  0  0  0  0  0  0  0  0  0  0  0  0
    6.1441   10.1000   -5.9401 C   0  0  0  0  0  0  0  0  0  0  0  0
    5.0438   10.9499   -5.8594 C   0  0  0  0  0  0  0  0  0  0  0  0
   -1.0231   13.3659   -7.3168 O   0  0  0  0  0  0  0  0  0  0  0  0
    0.2111   13.2829   -7.5206 C   0  0  0  0  0  0  0  0  0  0  0  0
    0.7583   13.7906   -8.5272 O   0  0  0  0  0  0  0  0  0  0  0  0
   -1.3991   12.9743   -6.5531 H   0  0  0  0  0  0  0  0  0  0  0  0
    2.9157    9.9093    0.7489 C   0  0  0  0  0  0  0  0  0  0  0  0
    3.8583    8.8486    0.7436 N   0  0  0  0  0  0  0  0  0  0  0  0
    3.6498    7.9306    0.4553 H   0  0  0  0  0  0  0  0  0  0  0  0
    5.1378    9.2636    1.2023 C   0  0  0  0  0  0  0  0  0  0  0  0
    5.1819    9.6855    2.9289 S   0  0  0  0  0  0  0  0  0  0  0  0
    6.2755    8.4016    0.6625 C   0  0  0  0  0  0  0  0  0  0  0  0
    6.3298    7.1529    1.2593 C   0  0  0  0  0  0  0  0  0  0  0  0
    7.3067    6.2320    0.9241 C   0  0  0  0  0  0  0  0  0  0  0  0
    8.2484    6.5875   -0.0190 C   0  0  0  0  0  0  0  0  0  0  0  0
    8.2115    7.8254   -0.6240 C   0  0  0  0  0  0  0  0  0  0  0  0
    7.2390    8.7532   -0.2931 C   0  0  0  0  0  0  0  0  0  0  0  0
    7.2654   10.2967   -1.1134 Cl  0  0  0  0  0  0  0  0  0  0  0  0
    9.3202    5.6496   -0.4520 C   0  0  0  0  0  0  0  0  0  0  0  0
   10.5824    5.4221    0.0925 C   0  0  0  0  0  0  0  0  0  0  0  0
   11.1686    4.4047   -0.7275 C   0  0  0  0  0  0  0  0  0  0  0  0
   10.1872    4.1277   -1.6741 C   0  0  0  0  0  0  0  0  0  0  0  0
    9.1335    4.8679   -1.4863 O   0  0  0  0  0  0  0  0  0  0  0  0
   10.2300    3.1458   -2.7933 C   0  0  0  0  0  0  0  0  0  0  0  0
   11.2566    3.0773   -3.5087 O   0  0  0  0  0  0  0  0  0  0  0  0
    9.2237    2.4132   -2.9202 O   0  0  0  0  0  0  0  0  0  0  0  0
   11.9741    3.6601   -3.3555 H   0  0  0  0  0  0  0  0  0  0  0  0
 22 21  2  0  0  0
 21 20  1  0  0  0
 21  7  1  0  0  0
  7 11  1  0  0  0
  7  8  2  0  0  0
 11 10  2  0  0  0
 43 41  2  0  0  0
 42 41  1  0  0  0
 41 39  1  0  0  0
  8  9  1  0  0  0
  6  5  2  0  0  0
  6  1  1  0  0  0
 10  9  1  0  0  0
 10  1  1  0  0  0
  5  4  1  0  0  0
  9 12  1  0  0  0
  1  2  2  0  0  0
 35 34  1  0  0  0
 39 40  1  0  0  0
 39 38  2  0  0  0
 40 36  1  0  0  0
 33 34  2  0  0  0
 33 32  1  0  0  0
 34 29  1  0  0  0
  4 24  1  0  0  0
  4  3  2  0  0  0
 38 37  1  0  0  0
 36 32  1  0  0  0
 36 37  2  0  0  0
  2  3  1  0  0  0
 12 13  2  0  0  0
 12 19  1  0  0  0
 25 24  1  0  0  0
 25 27  1  0  0  0
 32 31  2  0  0  0
 13 14  1  0  0  0
 29 27  1  0  0  0
 29 30  2  0  0  0
 19 18  2  0  0  0
 27 28  2  0  0  0
 31 30  1  0  0  0
 14 15  1  0  0  0
 14 16  2  0  0  0
 18 16  1  0  0  0
 16 17  1  0  0  0
 20 23  1  0  0  0
 25 26  1  0  0  0
 42 44  1  0  0  0
M  END
> <minimizedAffinity>
-7.39593

$$$$
