5NYH_9EK_A_301


 35 39  0  0  0  0  0  0  0  0999 V2000
   -1.2122   32.8211   23.7747 C   0  0  0  0  0  0  0  0  0  0  0  0
    0.0521   31.8526   25.5457 C   0  0  0  0  0  0  0  0  0  0  0  0
    1.2527   32.1449   24.8810 C   0  0  0  0  0  0  0  0  0  0  0  0
    2.3193   31.7043   25.7606 C   0  0  0  0  0  0  0  0  0  0  0  0
   -0.0218   33.1423   23.0942 C   0  0  0  0  0  0  0  0  0  0  0  0
    1.2048   32.7849   23.6499 C   0  0  0  0  0  0  0  0  0  0  0  0
   -1.1817   32.1770   25.0012 C   0  0  0  0  0  0  0  0  0  0  0  0
   -2.4067   33.1287   23.2285 O   0  0  0  0  0  0  0  0  0  0  0  0
    1.7416   31.1805   26.8495 N   0  0  0  0  0  0  0  0  0  0  0  0
    0.4004   31.2785   26.7190 N   0  0  0  0  0  0  0  0  0  0  0  0
   -2.4446   33.5642   22.3997 H   0  0  0  0  0  0  0  0  0  0  0  0
    2.2159   30.7888   27.6181 H   0  0  0  0  0  0  0  0  0  0  0  0
    3.7819   31.9234   25.5075 C   0  0  0  0  0  0  0  0  0  0  0  0
    5.9025   31.1129   24.5081 C   0  0  0  0  0  0  0  0  0  0  0  0
    3.9379   29.7177   24.3926 C   0  0  0  0  0  0  0  0  0  0  0  0
    4.4839   30.9940   24.8472 N   0  0  0  0  0  0  0  0  0  0  0  0
    6.2894   29.7102   24.1222 C   0  0  0  0  0  0  0  0  0  0  0  0
    5.0754   29.0874   23.6329 C   0  0  0  0  0  0  0  0  0  0  0  0
    4.2756   32.9377   25.9396 O   0  0  0  0  0  0  0  0  0  0  0  0
   -0.0960   33.8759   21.7868 C   0  0  0  0  0  0  0  0  0  0  0  0
    0.4378   35.8016   20.4227 C   0  0  0  0  0  0  0  0  0  0  0  0
    0.5218   35.0816   21.6835 N   0  0  0  0  0  0  0  0  0  0  0  0
   -0.7293   33.4028   20.8746 O   0  0  0  0  0  0  0  0  0  0  0  0
    1.2656   35.7196   22.7298 C   0  0  0  0  0  0  0  0  0  0  0  0
    2.6417   35.7190   22.7011 C   0  0  0  0  0  0  0  0  0  0  0  0
    1.3289   37.1017   24.6902 C   0  0  0  0  0  0  0  0  0  0  0  0
    2.7175   37.1077   24.6671 C   0  0  0  0  0  0  0  0  0  0  0  0
    3.3599   36.4086   23.6553 C   0  0  0  0  0  0  0  0  0  0  0  0
    0.6121   36.4115   23.7311 C   0  0  0  0  0  0  0  0  0  0  0  0
    5.3816   39.1260   26.3039 C   0  0  0  0  0  0  0  0  0  0  0  0
    3.8483   38.5399   27.9380 C   0  0  0  0  0  0  0  0  0  0  0  0
    2.8164   38.1112   26.9257 C   0  0  0  0  0  0  0  0  0  0  0  0
    3.4575   37.7567   25.6534 N   0  0  0  0  0  0  0  0  0  0  0  0
    4.4455   38.7300   25.1770 C   0  0  0  0  0  0  0  0  0  0  0  0
    4.6643   39.5659   27.4392 O   0  0  0  0  0  0  0  0  0  0  0  0
 21 22  1  0  0  0
 23 20  2  0  0  0
 22 20  1  0  0  0
 22 24  1  0  0  0
 20  5  1  0  0  0
 25 24  2  0  0  0
 25 28  1  0  0  0
 24 29  1  0  0  0
  5  6  2  0  0  0
  5  1  1  0  0  0
  8  1  1  0  0  0
 28 27  2  0  0  0
 18 17  1  0  0  0
 18 15  1  0  0  0
  6  3  1  0  0  0
  1  7  2  0  0  0
 29 26  2  0  0  0
 17 14  1  0  0  0
 15 16  1  0  0  0
 27 26  1  0  0  0
 27 33  1  0  0  0
 14 16  1  0  0  0
 16 13  1  0  0  0
  3  2  1  0  0  0
  3  4  2  0  0  0
  7  2  1  0  0  0
 34 33  1  0  0  0
 34 30  1  0  0  0
 33 32  1  0  0  0
  2 10  2  0  0  0
 13  4  1  0  0  0
 13 19  2  0  0  0
  4  9  1  0  0  0
 30 35  1  0  0  0
 32 31  1  0  0  0
 10  9  1  0  0  0
 35 31  1  0  0  0
  8 11  1  0  0  0
  9 12  1  0  0  0
M  END
> <minimizedAffinity>
-11.44085

$$$$
5NYH_9EK_A_301


 35 39  0  0  0  0  0  0  0  0999 V2000
    2.5679   36.7279   22.9425 C   0  0  0  0  0  0  0  0  0  0  0  0
    1.0636   35.0991   22.0727 C   0  0  0  0  0  0  0  0  0  0  0  0
    0.7120   34.6958   23.3698 C   0  0  0  0  0  0  0  0  0  0  0  0
   -0.3017   33.6695   23.2131 C   0  0  0  0  0  0  0  0  0  0  0  0
    2.2200   36.3552   24.2553 C   0  0  0  0  0  0  0  0  0  0  0  0
    1.3022   35.3265   24.4567 C   0  0  0  0  0  0  0  0  0  0  0  0
    1.9926   36.1041   21.8471 C   0  0  0  0  0  0  0  0  0  0  0  0
    3.4834   37.6969   22.7355 O   0  0  0  0  0  0  0  0  0  0  0  0
   -0.4917   33.5003   21.8982 N   0  0  0  0  0  0  0  0  0  0  0  0
    0.3137   34.3545   21.2297 N   0  0  0  0  0  0  0  0  0  0  0  0
    3.8819   38.1285   23.4655 H   0  0  0  0  0  0  0  0  0  0  0  0
   -1.1154   32.8592   21.4867 H   0  0  0  0  0  0  0  0  0  0  0  0
   -1.0533   33.0301   24.3435 C   0  0  0  0  0  0  0  0  0  0  0  0
   -1.0092   31.6386   26.3964 C   0  0  0  0  0  0  0  0  0  0  0  0
    1.0331   31.9728   25.1567 C   0  0  0  0  0  0  0  0  0  0  0  0
   -0.3931   32.2792   25.2338 N   0  0  0  0  0  0  0  0  0  0  0  0
    0.0325   30.6483   26.8439 C   0  0  0  0  0  0  0  0  0  0  0  0
    1.3052   31.1958   26.4178 C   0  0  0  0  0  0  0  0  0  0  0  0
   -2.2476   33.2060   24.3875 O   0  0  0  0  0  0  0  0  0  0  0  0
    2.8358   37.0825   25.4149 C   0  0  0  0  0  0  0  0  0  0  0  0
    4.5259   37.2426   27.1389 C   0  0  0  0  0  0  0  0  0  0  0  0
    3.9368   36.5480   26.0051 N   0  0  0  0  0  0  0  0  0  0  0  0
    2.3231   38.0972   25.8206 O   0  0  0  0  0  0  0  0  0  0  0  0
    4.5831   35.3345   25.5992 C   0  0  0  0  0  0  0  0  0  0  0  0
    5.8073   35.3779   24.9717 C   0  0  0  0  0  0  0  0  0  0  0  0
    4.6906   32.9375   25.5955 C   0  0  0  0  0  0  0  0  0  0  0  0
    5.9271   32.9727   24.9640 C   0  0  0  0  0  0  0  0  0  0  0  0
    6.4743   34.2114   24.6616 C   0  0  0  0  0  0  0  0  0  0  0  0
    4.0258   34.1084   25.9068 C   0  0  0  0  0  0  0  0  0  0  0  0
    6.5401   29.4023   24.1118 C   0  0  0  0  0  0  0  0  0  0  0  0
    8.5419   30.5363   23.8433 C   0  0  0  0  0  0  0  0  0  0  0  0
    7.8726   31.8866   23.8899 C   0  0  0  0  0  0  0  0  0  0  0  0
    6.5893   31.8026   24.5981 N   0  0  0  0  0  0  0  0  0  0  0  0
    5.7347   30.6866   24.1800 C   0  0  0  0  0  0  0  0  0  0  0  0
    7.6915   29.5581   23.3074 O   0  0  0  0  0  0  0  0  0  0  0  0
 21 22  1  0  0  0
 23 20  2  0  0  0
 22 20  1  0  0  0
 22 24  1  0  0  0
 20  5  1  0  0  0
 25 24  2  0  0  0
 25 28  1  0  0  0
 24 29  1  0  0  0
  5  6  2  0  0  0
  5  1  1  0  0  0
  8  1  1  0  0  0
 28 27  2  0  0  0
 18 17  1  0  0  0
 18 15  1  0  0  0
  6  3  1  0  0  0
  1  7  2  0  0  0
 29 26  2  0  0  0
 17 14  1  0  0  0
 15 16  1  0  0  0
 27 26  1  0  0  0
 27 33  1  0  0  0
 14 16  1  0  0  0
 16 13  1  0  0  0
  3  2  1  0  0  0
  3  4  2  0  0  0
  7  2  1  0  0  0
 34 33  1  0  0  0
 34 30  1  0  0  0
 33 32  1  0  0  0
  2 10  2  0  0  0
 13  4  1  0  0  0
 13 19  2  0  0  0
  4  9  1  0  0  0
 30 35  1  0  0  0
 32 31  1  0  0  0
 10  9  1  0  0  0
 35 31  1  0  0  0
  8 11  1  0  0  0
  9 12  1  0  0  0
M  END
> <minimizedAffinity>
-10.37554

$$$$
5NYH_9EK_A_301


 35 39  0  0  0  0  0  0  0  0999 V2000
   -0.2194   34.0604   22.0545 C   0  0  0  0  0  0  0  0  0  0  0  0
    1.2827   35.8855   21.7626 C   0  0  0  0  0  0  0  0  0  0  0  0
    1.4128   36.0321   23.1520 C   0  0  0  0  0  0  0  0  0  0  0  0
    2.3670   37.1058   23.3574 C   0  0  0  0  0  0  0  0  0  0  0  0
   -0.0933   34.1738   23.4525 C   0  0  0  0  0  0  0  0  0  0  0  0
    0.7137   35.1742   23.9903 C   0  0  0  0  0  0  0  0  0  0  0  0
    0.4667   34.9127   21.2043 C   0  0  0  0  0  0  0  0  0  0  0  0
   -1.0274   33.1197   21.5233 O   0  0  0  0  0  0  0  0  0  0  0  0
    2.7355   37.5431   22.1464 N   0  0  0  0  0  0  0  0  0  0  0  0
    2.0961   36.8117   21.2076 N   0  0  0  0  0  0  0  0  0  0  0  0
   -1.4984   32.5355   22.0844 H   0  0  0  0  0  0  0  0  0  0  0  0
    3.3680   38.2765   21.9695 H   0  0  0  0  0  0  0  0  0  0  0  0
    2.9002   37.5320   24.6937 C   0  0  0  0  0  0  0  0  0  0  0  0
    4.6959   37.3929   26.3991 C   0  0  0  0  0  0  0  0  0  0  0  0
    4.8384   36.0143   24.4246 C   0  0  0  0  0  0  0  0  0  0  0  0
    4.0585   37.0253   25.1342 N   0  0  0  0  0  0  0  0  0  0  0  0
    5.7301   36.3169   26.5962 C   0  0  0  0  0  0  0  0  0  0  0  0
    6.0771   35.8560   25.2664 C   0  0  0  0  0  0  0  0  0  0  0  0
    2.2360   38.3109   25.3351 O   0  0  0  0  0  0  0  0  0  0  0  0
   -0.8218   33.2058   24.3386 C   0  0  0  0  0  0  0  0  0  0  0  0
   -0.8216   31.2548   25.7696 C   0  0  0  0  0  0  0  0  0  0  0  0
   -0.1151   32.2034   24.9233 N   0  0  0  0  0  0  0  0  0  0  0  0
   -2.0155   33.3130   24.4817 O   0  0  0  0  0  0  0  0  0  0  0  0
    1.2957   31.9947   24.7771 C   0  0  0  0  0  0  0  0  0  0  0  0
    2.1876   32.9186   25.2723 C   0  0  0  0  0  0  0  0  0  0  0  0
    3.1349   30.5858   24.1532 C   0  0  0  0  0  0  0  0  0  0  0  0
    4.0414   31.5121   24.6523 C   0  0  0  0  0  0  0  0  0  0  0  0
    3.5445   32.6788   25.2152 C   0  0  0  0  0  0  0  0  0  0  0  0
    1.7757   30.8282   24.2139 C   0  0  0  0  0  0  0  0  0  0  0  0
    7.7074   32.1080   24.8887 C   0  0  0  0  0  0  0  0  0  0  0  0
    7.4015   29.9553   24.0904 C   0  0  0  0  0  0  0  0  0  0  0  0
    5.9418   29.9395   24.4679 C   0  0  0  0  0  0  0  0  0  0  0  0
    5.4164   31.3076   24.5554 N   0  0  0  0  0  0  0  0  0  0  0  0
    6.2575   32.2356   25.3182 C   0  0  0  0  0  0  0  0  0  0  0  0
    8.1488   30.7672   24.9562 O   0  0  0  0  0  0  0  0  0  0  0  0
 21 22  1  0  0  0
 23 20  2  0  0  0
 22 20  1  0  0  0
 22 24  1  0  0  0
 20  5  1  0  0  0
 25 24  2  0  0  0
 25 28  1  0  0  0
 24 29  1  0  0  0
  5  6  2  0  0  0
  5  1  1  0  0  0
  8  1  1  0  0  0
 28 27  2  0  0  0
 18 17  1  0  0  0
 18 15  1  0  0  0
  6  3  1  0  0  0
  1  7  2  0  0  0
 29 26  2  0  0  0
 17 14  1  0  0  0
 15 16  1  0  0  0
 27 26  1  0  0  0
 27 33  1  0  0  0
 14 16  1  0  0  0
 16 13  1  0  0  0
  3  2  1  0  0  0
  3  4  2  0  0  0
  7  2  1  0  0  0
 34 33  1  0  0  0
 34 30  1  0  0  0
 33 32  1  0  0  0
  2 10  2  0  0  0
 13  4  1  0  0  0
 13 19  2  0  0  0
  4  9  1  0  0  0
 30 35  1  0  0  0
 32 31  1  0  0  0
 10  9  1  0  0  0
 35 31  1  0  0  0
  8 11  1  0  0  0
  9 12  1  0  0  0
M  END
> <minimizedAffinity>
-10.20166

$$$$
5NYH_9EK_A_301


 35 39  0  0  0  0  0  0  0  0999 V2000
    3.5422   30.8433   24.6173 C   0  0  0  0  0  0  0  0  0  0  0  0
    5.4371   32.2824   24.7203 C   0  0  0  0  0  0  0  0  0  0  0  0
    4.7601   33.1516   25.5892 C   0  0  0  0  0  0  0  0  0  0  0  0
    5.7031   34.2018   25.9261 C   0  0  0  0  0  0  0  0  0  0  0  0
    2.8458   31.6888   25.5024 C   0  0  0  0  0  0  0  0  0  0  0  0
    3.4596   32.8491   25.9695 C   0  0  0  0  0  0  0  0  0  0  0  0
    4.8384   31.1343   24.2232 C   0  0  0  0  0  0  0  0  0  0  0  0
    2.9443   29.7369   24.1290 O   0  0  0  0  0  0  0  0  0  0  0  0
    6.8387   33.9386   25.2667 N   0  0  0  0  0  0  0  0  0  0  0  0
    6.6768   32.7977   24.5615 N   0  0  0  0  0  0  0  0  0  0  0  0
    2.0682   29.5259   24.3855 H   0  0  0  0  0  0  0  0  0  0  0  0
    7.6565   34.4861   25.2918 H   0  0  0  0  0  0  0  0  0  0  0  0
    5.4475   35.2928   26.9240 C   0  0  0  0  0  0  0  0  0  0  0  0
    4.3150   37.4274   27.4840 C   0  0  0  0  0  0  0  0  0  0  0  0
    4.0753   36.5147   25.2638 C   0  0  0  0  0  0  0  0  0  0  0  0
    4.6670   36.3267   26.5861 N   0  0  0  0  0  0  0  0  0  0  0  0
    3.7573   38.4726   26.5552 C   0  0  0  0  0  0  0  0  0  0  0  0
    3.2227   37.7463   25.4204 C   0  0  0  0  0  0  0  0  0  0  0  0
    5.9867   35.1993   28.0009 O   0  0  0  0  0  0  0  0  0  0  0  0
    1.4577   31.3177   25.9365 C   0  0  0  0  0  0  0  0  0  0  0  0
   -0.9369   31.6480   25.8333 C   0  0  0  0  0  0  0  0  0  0  0  0
    0.4081   31.9951   25.4024 N   0  0  0  0  0  0  0  0  0  0  0  0
    1.3054   30.4599   26.7719 O   0  0  0  0  0  0  0  0  0  0  0  0
    0.5118   33.0434   24.4300 C   0  0  0  0  0  0  0  0  0  0  0  0
    0.2861   32.7781   23.0985 C   0  0  0  0  0  0  0  0  0  0  0  0
    0.7683   35.3696   23.9006 C   0  0  0  0  0  0  0  0  0  0  0  0
    0.5396   35.1105   22.5554 C   0  0  0  0  0  0  0  0  0  0  0  0
    0.2950   33.7997   22.1721 C   0  0  0  0  0  0  0  0  0  0  0  0
    0.7565   34.3439   24.8267 C   0  0  0  0  0  0  0  0  0  0  0  0
    0.0471   38.4043   20.8945 C   0  0  0  0  0  0  0  0  0  0  0  0
    1.3517   37.1039   19.4901 C   0  0  0  0  0  0  0  0  0  0  0  0
    1.6401   36.0906   20.5688 C   0  0  0  0  0  0  0  0  0  0  0  0
    0.5964   36.1240   21.6008 N   0  0  0  0  0  0  0  0  0  0  0  0
    0.2483   37.4683   22.0719 C   0  0  0  0  0  0  0  0  0  0  0  0
    1.1615   38.3863   20.0256 O   0  0  0  0  0  0  0  0  0  0  0  0
 21 22  1  0  0  0
 23 20  2  0  0  0
 22 20  1  0  0  0
 22 24  1  0  0  0
 20  5  1  0  0  0
 25 24  2  0  0  0
 25 28  1  0  0  0
 24 29  1  0  0  0
  5  6  2  0  0  0
  5  1  1  0  0  0
  8  1  1  0  0  0
 28 27  2  0  0  0
 18 17  1  0  0  0
 18 15  1  0  0  0
  6  3  1  0  0  0
  1  7  2  0  0  0
 29 26  2  0  0  0
 17 14  1  0  0  0
 15 16  1  0  0  0
 27 26  1  0  0  0
 27 33  1  0  0  0
 14 16  1  0  0  0
 16 13  1  0  0  0
  3  2  1  0  0  0
  3  4  2  0  0  0
  7  2  1  0  0  0
 34 33  1  0  0  0
 34 30  1  0  0  0
 33 32  1  0  0  0
  2 10  2  0  0  0
 13  4  1  0  0  0
 13 19  2  0  0  0
  4  9  1  0  0  0
 30 35  1  0  0  0
 32 31  1  0  0  0
 10  9  1  0  0  0
 35 31  1  0  0  0
  8 11  1  0  0  0
  9 12  1  0  0  0
M  END
> <minimizedAffinity>
-10.12375

$$$$
5NYH_9EK_A_301


 35 39  0  0  0  0  0  0  0  0999 V2000
    6.8829   34.8452   26.4080 C   0  0  0  0  0  0  0  0  0  0  0  0
    6.4489   33.0402   24.9160 C   0  0  0  0  0  0  0  0  0  0  0  0
    5.1172   32.9681   25.3520 C   0  0  0  0  0  0  0  0  0  0  0  0
    4.4885   31.9272   24.5603 C   0  0  0  0  0  0  0  0  0  0  0  0
    5.5467   34.8066   26.8511 C   0  0  0  0  0  0  0  0  0  0  0  0
    4.6767   33.8529   26.3270 C   0  0  0  0  0  0  0  0  0  0  0  0
    7.3397   33.9652   25.4401 C   0  0  0  0  0  0  0  0  0  0  0  0
    7.7439   35.7397   26.9356 O   0  0  0  0  0  0  0  0  0  0  0  0
    5.4255   31.4361   23.7389 N   0  0  0  0  0  0  0  0  0  0  0  0
    6.5807   32.1044   23.9494 N   0  0  0  0  0  0  0  0  0  0  0  0
    7.4509   36.3418   27.5911 H   0  0  0  0  0  0  0  0  0  0  0  0
    5.2942   30.7084   23.0891 H   0  0  0  0  0  0  0  0  0  0  0  0
    3.0290   31.5820   24.6057 C   0  0  0  0  0  0  0  0  0  0  0  0
    0.6878   32.2074   24.0766 C   0  0  0  0  0  0  0  0  0  0  0  0
    2.4615   33.7694   23.5930 C   0  0  0  0  0  0  0  0  0  0  0  0
    2.1304   32.4486   24.1221 N   0  0  0  0  0  0  0  0  0  0  0  0
    0.1125   33.5722   23.8074 C   0  0  0  0  0  0  0  0  0  0  0  0
    1.1433   34.3005   23.0945 C   0  0  0  0  0  0  0  0  0  0  0  0
    2.7222   30.5269   25.1076 O   0  0  0  0  0  0  0  0  0  0  0  0
    5.0803   35.8032   27.8721 C   0  0  0  0  0  0  0  0  0  0  0  0
    4.0733   37.9324   28.4255 C   0  0  0  0  0  0  0  0  0  0  0  0
    4.5114   36.9583   27.4384 N   0  0  0  0  0  0  0  0  0  0  0  0
    5.2534   35.5779   29.0452 O   0  0  0  0  0  0  0  0  0  0  0  0
    4.2998   37.3084   26.0645 C   0  0  0  0  0  0  0  0  0  0  0  0
    3.0852   37.0618   25.4659 C   0  0  0  0  0  0  0  0  0  0  0  0
    5.0458   38.3881   24.0558 C   0  0  0  0  0  0  0  0  0  0  0  0
    3.8223   38.1448   23.4453 C   0  0  0  0  0  0  0  0  0  0  0  0
    2.8467   37.4789   24.1732 C   0  0  0  0  0  0  0  0  0  0  0  0
    5.2807   37.9707   25.3521 C   0  0  0  0  0  0  0  0  0  0  0  0
    2.8405   37.9369   19.8615 C   0  0  0  0  0  0  0  0  0  0  0  0
    3.4335   40.1335   20.2952 C   0  0  0  0  0  0  0  0  0  0  0  0
    3.3936   39.9310   21.7888 C   0  0  0  0  0  0  0  0  0  0  0  0
    3.5843   38.5142   22.1229 N   0  0  0  0  0  0  0  0  0  0  0  0
    2.7646   37.5870   21.3362 C   0  0  0  0  0  0  0  0  0  0  0  0
    2.5218   39.2952   19.6370 O   0  0  0  0  0  0  0  0  0  0  0  0
 21 22  1  0  0  0
 23 20  2  0  0  0
 22 20  1  0  0  0
 22 24  1  0  0  0
 20  5  1  0  0  0
 25 24  2  0  0  0
 25 28  1  0  0  0
 24 29  1  0  0  0
  5  6  2  0  0  0
  5  1  1  0  0  0
  8  1  1  0  0  0
 28 27  2  0  0  0
 18 17  1  0  0  0
 18 15  1  0  0  0
  6  3  1  0  0  0
  1  7  2  0  0  0
 29 26  2  0  0  0
 17 14  1  0  0  0
 15 16  1  0  0  0
 27 26  1  0  0  0
 27 33  1  0  0  0
 14 16  1  0  0  0
 16 13  1  0  0  0
  3  2  1  0  0  0
  3  4  2  0  0  0
  7  2  1  0  0  0
 34 33  1  0  0  0
 34 30  1  0  0  0
 33 32  1  0  0  0
  2 10  2  0  0  0
 13  4  1  0  0  0
 13 19  2  0  0  0
  4  9  1  0  0  0
 30 35  1  0  0  0
 32 31  1  0  0  0
 10  9  1  0  0  0
 35 31  1  0  0  0
  8 11  1  0  0  0
  9 12  1  0  0  0
M  END
> <minimizedAffinity>
-9.84387

$$$$
5NYH_9EK_A_301


 35 39  0  0  0  0  0  0  0  0999 V2000
    1.3365   30.8992   25.9894 C   0  0  0  0  0  0  0  0  0  0  0  0
   -0.5310   32.1589   25.2159 C   0  0  0  0  0  0  0  0  0  0  0  0
    0.1763   32.5486   24.0685 C   0  0  0  0  0  0  0  0  0  0  0  0
   -0.7422   33.3486   23.2799 C   0  0  0  0  0  0  0  0  0  0  0  0
    2.0630   31.2604   24.8383 C   0  0  0  0  0  0  0  0  0  0  0  0
    1.4779   32.0990   23.8919 C   0  0  0  0  0  0  0  0  0  0  0  0
    0.0388   31.3445   26.1834 C   0  0  0  0  0  0  0  0  0  0  0  0
    1.9063   30.1184   26.9305 O   0  0  0  0  0  0  0  0  0  0  0  0
   -1.8937   33.4131   23.9607 N   0  0  0  0  0  0  0  0  0  0  0  0
   -1.7642   32.7008   25.1013 N   0  0  0  0  0  0  0  0  0  0  0  0
    2.7830   29.8089   26.8145 H   0  0  0  0  0  0  0  0  0  0  0  0
   -2.7013   33.8994   23.6768 H   0  0  0  0  0  0  0  0  0  0  0  0
   -0.4500   33.8835   21.9088 C   0  0  0  0  0  0  0  0  0  0  0  0
    0.4543   35.7120   20.4976 C   0  0  0  0  0  0  0  0  0  0  0  0
    0.3707   36.0035   22.8909 C   0  0  0  0  0  0  0  0  0  0  0  0
    0.0903   35.1013   21.7767 N   0  0  0  0  0  0  0  0  0  0  0  0
    0.6583   37.1620   20.8469 C   0  0  0  0  0  0  0  0  0  0  0  0
    1.0521   37.1794   22.2418 C   0  0  0  0  0  0  0  0  0  0  0  0
   -0.7425   33.1873   20.9659 O   0  0  0  0  0  0  0  0  0  0  0  0
    3.4519   30.7247   24.6459 C   0  0  0  0  0  0  0  0  0  0  0  0
    5.8440   31.0723   24.5400 C   0  0  0  0  0  0  0  0  0  0  0  0
    4.4984   31.5860   24.7418 N   0  0  0  0  0  0  0  0  0  0  0  0
    3.6073   29.5590   24.3742 O   0  0  0  0  0  0  0  0  0  0  0  0
    4.3907   32.9858   25.0314 C   0  0  0  0  0  0  0  0  0  0  0  0
    4.9351   33.4981   26.1871 C   0  0  0  0  0  0  0  0  0  0  0  0
    3.7900   35.2082   24.3552 C   0  0  0  0  0  0  0  0  0  0  0  0
    4.3388   35.7332   25.5180 C   0  0  0  0  0  0  0  0  0  0  0  0
    4.9141   34.8561   26.4262 C   0  0  0  0  0  0  0  0  0  0  0  0
    3.8147   33.8471   24.1177 C   0  0  0  0  0  0  0  0  0  0  0  0
    3.9368   39.4026   25.0446 C   0  0  0  0  0  0  0  0  0  0  0  0
    4.2897   39.0260   27.3026 C   0  0  0  0  0  0  0  0  0  0  0  0
    4.0364   37.5451   27.1745 C   0  0  0  0  0  0  0  0  0  0  0  0
    4.2794   37.0970   25.7977 N   0  0  0  0  0  0  0  0  0  0  0  0
    3.6620   37.9365   24.7659 C   0  0  0  0  0  0  0  0  0  0  0  0
    3.5552   39.7579   26.3581 O   0  0  0  0  0  0  0  0  0  0  0  0
 21 22  1  0  0  0
 23 20  2  0  0  0
 22 20  1  0  0  0
 22 24  1  0  0  0
 20  5  1  0  0  0
 25 24  2  0  0  0
 25 28  1  0  0  0
 24 29  1  0  0  0
  5  6  2  0  0  0
  5  1  1  0  0  0
  8  1  1  0  0  0
 28 27  2  0  0  0
 18 17  1  0  0  0
 18 15  1  0  0  0
  6  3  1  0  0  0
  1  7  2  0  0  0
 29 26  2  0  0  0
 17 14  1  0  0  0
 15 16  1  0  0  0
 27 26  1  0  0  0
 27 33  1  0  0  0
 14 16  1  0  0  0
 16 13  1  0  0  0
  3  2  1  0  0  0
  3  4  2  0  0  0
  7  2  1  0  0  0
 34 33  1  0  0  0
 34 30  1  0  0  0
 33 32  1  0  0  0
  2 10  2  0  0  0
 13  4  1  0  0  0
 13 19  2  0  0  0
  4  9  1  0  0  0
 30 35  1  0  0  0
 32 31  1  0  0  0
 10  9  1  0  0  0
 35 31  1  0  0  0
  8 11  1  0  0  0
  9 12  1  0  0  0
M  END
> <minimizedAffinity>
-9.73233

$$$$
5NYH_9EK_A_301


 35 39  0  0  0  0  0  0  0  0999 V2000
    3.4009   31.1231   24.6612 C   0  0  0  0  0  0  0  0  0  0  0  0
    5.3767   32.3795   25.0976 C   0  0  0  0  0  0  0  0  0  0  0  0
    4.6176   33.4375   25.6202 C   0  0  0  0  0  0  0  0  0  0  0  0
    5.5704   34.4375   26.0648 C   0  0  0  0  0  0  0  0  0  0  0  0
    2.6159   32.1624   25.1969 C   0  0  0  0  0  0  0  0  0  0  0  0
    3.2346   33.3221   25.6591 C   0  0  0  0  0  0  0  0  0  0  0  0
    4.7819   31.2255   24.6095 C   0  0  0  0  0  0  0  0  0  0  0  0
    2.8102   30.0115   24.1762 O   0  0  0  0  0  0  0  0  0  0  0  0
    6.7936   33.9669   25.7893 N   0  0  0  0  0  0  0  0  0  0  0  0
    6.6718   32.7458   25.2242 N   0  0  0  0  0  0  0  0  0  0  0  0
    1.8774   29.9267   24.2037 H   0  0  0  0  0  0  0  0  0  0  0  0
    7.6416   34.4337   25.9689 H   0  0  0  0  0  0  0  0  0  0  0  0
    5.2099   35.6958   26.7984 C   0  0  0  0  0  0  0  0  0  0  0  0
    4.5407   38.0825   26.7066 C   0  0  0  0  0  0  0  0  0  0  0  0
    5.0311   36.9176   24.6518 C   0  0  0  0  0  0  0  0  0  0  0  0
    4.9404   36.8094   26.1058 N   0  0  0  0  0  0  0  0  0  0  0  0
    4.7165   39.0703   25.5843 C   0  0  0  0  0  0  0  0  0  0  0  0
    4.5417   38.3120   24.3613 C   0  0  0  0  0  0  0  0  0  0  0  0
    5.2013   35.6531   28.0056 O   0  0  0  0  0  0  0  0  0  0  0  0
    1.1260   31.9963   25.2717 C   0  0  0  0  0  0  0  0  0  0  0  0
   -1.1056   32.7825   24.7659 C   0  0  0  0  0  0  0  0  0  0  0  0
    0.3385   32.9329   24.6812 N   0  0  0  0  0  0  0  0  0  0  0  0
    0.6615   31.0643   25.8820 O   0  0  0  0  0  0  0  0  0  0  0  0
    0.8159   34.0799   23.9660 C   0  0  0  0  0  0  0  0  0  0  0  0
    1.0861   33.9935   22.6191 C   0  0  0  0  0  0  0  0  0  0  0  0
    1.3046   36.4278   23.8912 C   0  0  0  0  0  0  0  0  0  0  0  0
    1.5772   36.3494   22.5316 C   0  0  0  0  0  0  0  0  0  0  0  0
    1.4578   35.1155   21.9086 C   0  0  0  0  0  0  0  0  0  0  0  0
    0.9302   35.3020   24.5998 C   0  0  0  0  0  0  0  0  0  0  0  0
    3.1153   38.4208   19.8495 C   0  0  0  0  0  0  0  0  0  0  0  0
    2.1576   39.8673   21.3842 C   0  0  0  0  0  0  0  0  0  0  0  0
    1.3693   38.7661   22.0470 C   0  0  0  0  0  0  0  0  0  0  0  0
    2.0035   37.4633   21.8110 N   0  0  0  0  0  0  0  0  0  0  0  0
    2.3878   37.2162   20.4175 C   0  0  0  0  0  0  0  0  0  0  0  0
    2.3638   39.6051   20.0218 O   0  0  0  0  0  0  0  0  0  0  0  0
 21 22  1  0  0  0
 23 20  2  0  0  0
 22 20  1  0  0  0
 22 24  1  0  0  0
 20  5  1  0  0  0
 25 24  2  0  0  0
 25 28  1  0  0  0
 24 29  1  0  0  0
  5  6  2  0  0  0
  5  1  1  0  0  0
  8  1  1  0  0  0
 28 27  2  0  0  0
 18 17  1  0  0  0
 18 15  1  0  0  0
  6  3  1  0  0  0
  1  7  2  0  0  0
 29 26  2  0  0  0
 17 14  1  0  0  0
 15 16  1  0  0  0
 27 26  1  0  0  0
 27 33  1  0  0  0
 14 16  1  0  0  0
 16 13  1  0  0  0
  3  2  1  0  0  0
  3  4  2  0  0  0
  7  2  1  0  0  0
 34 33  1  0  0  0
 34 30  1  0  0  0
 33 32  1  0  0  0
  2 10  2  0  0  0
 13  4  1  0  0  0
 13 19  2  0  0  0
  4  9  1  0  0  0
 30 35  1  0  0  0
 32 31  1  0  0  0
 10  9  1  0  0  0
 35 31  1  0  0  0
  8 11  1  0  0  0
  9 12  1  0  0  0
M  END
> <minimizedAffinity>
-9.68610

$$$$
5NYH_9EK_A_301


 35 39  0  0  0  0  0  0  0  0999 V2000
    5.2827   36.3023   26.7775 C   0  0  0  0  0  0  0  0  0  0  0  0
    3.9546   38.1475   26.0675 C   0  0  0  0  0  0  0  0  0  0  0  0
    4.4694   38.0483   24.7660 C   0  0  0  0  0  0  0  0  0  0  0  0
    3.7933   39.0677   23.9853 C   0  0  0  0  0  0  0  0  0  0  0  0
    5.8022   36.1690   25.4754 C   0  0  0  0  0  0  0  0  0  0  0  0
    5.3999   37.0582   24.4811 C   0  0  0  0  0  0  0  0  0  0  0  0
    4.3579   37.2891   27.0796 C   0  0  0  0  0  0  0  0  0  0  0  0
    5.6934   35.4707   27.7571 O   0  0  0  0  0  0  0  0  0  0  0  0
    2.9587   39.7096   24.8130 N   0  0  0  0  0  0  0  0  0  0  0  0
    3.0537   39.1550   26.0413 N   0  0  0  0  0  0  0  0  0  0  0  0
    6.3182   34.7981   27.5694 H   0  0  0  0  0  0  0  0  0  0  0  0
    2.3727   40.4614   24.5670 H   0  0  0  0  0  0  0  0  0  0  0  0
    3.9465   39.2523   22.5041 C   0  0  0  0  0  0  0  0  0  0  0  0
    3.3844   38.5025   20.2075 C   0  0  0  0  0  0  0  0  0  0  0  0
    2.5677   37.2370   22.0920 C   0  0  0  0  0  0  0  0  0  0  0  0
    3.3401   38.4016   21.6668 N   0  0  0  0  0  0  0  0  0  0  0  0
    2.8873   37.1579   19.7481 C   0  0  0  0  0  0  0  0  0  0  0  0
    2.0213   36.6757   20.8057 C   0  0  0  0  0  0  0  0  0  0  0  0
    4.6427   40.1642   22.1262 O   0  0  0  0  0  0  0  0  0  0  0  0
    6.7718   35.0621   25.1791 C   0  0  0  0  0  0  0  0  0  0  0  0
    7.2176   32.7519   24.6152 C   0  0  0  0  0  0  0  0  0  0  0  0
    6.2798   33.8297   24.8869 N   0  0  0  0  0  0  0  0  0  0  0  0
    7.9577   35.2772   25.2438 O   0  0  0  0  0  0  0  0  0  0  0  0
    4.8883   33.4916   24.8206 C   0  0  0  0  0  0  0  0  0  0  0  0
    4.3780   32.4969   25.6235 C   0  0  0  0  0  0  0  0  0  0  0  0
    2.6743   33.9476   24.0158 C   0  0  0  0  0  0  0  0  0  0  0  0
    2.1513   32.9468   24.8244 C   0  0  0  0  0  0  0  0  0  0  0  0
    3.0250   32.2302   25.6295 C   0  0  0  0  0  0  0  0  0  0  0  0
    4.0304   34.2138   24.0138 C   0  0  0  0  0  0  0  0  0  0  0  0
   -1.0886   31.3112   25.6477 C   0  0  0  0  0  0  0  0  0  0  0  0
   -1.5196   32.9616   24.0807 C   0  0  0  0  0  0  0  0  0  0  0  0
   -0.1683   33.6030   24.2702 C   0  0  0  0  0  0  0  0  0  0  0  0
    0.7943   32.6311   24.8033 N   0  0  0  0  0  0  0  0  0  0  0  0
    0.3014   31.8457   25.9394 C   0  0  0  0  0  0  0  0  0  0  0  0
   -1.9680   32.3469   25.2590 O   0  0  0  0  0  0  0  0  0  0  0  0
 21 22  1  0  0  0
 23 20  2  0  0  0
 22 20  1  0  0  0
 22 24  1  0  0  0
 20  5  1  0  0  0
 25 24  2  0  0  0
 25 28  1  0  0  0
 24 29  1  0  0  0
  5  6  2  0  0  0
  5  1  1  0  0  0
  8  1  1  0  0  0
 28 27  2  0  0  0
 18 17  1  0  0  0
 18 15  1  0  0  0
  6  3  1  0  0  0
  1  7  2  0  0  0
 29 26  2  0  0  0
 17 14  1  0  0  0
 15 16  1  0  0  0
 27 26  1  0  0  0
 27 33  1  0  0  0
 14 16  1  0  0  0
 16 13  1  0  0  0
  3  2  1  0  0  0
  3  4  2  0  0  0
  7  2  1  0  0  0
 34 33  1  0  0  0
 34 30  1  0  0  0
 33 32  1  0  0  0
  2 10  2  0  0  0
 13  4  1  0  0  0
 13 19  2  0  0  0
  4  9  1  0  0  0
 30 35  1  0  0  0
 32 31  1  0  0  0
 10  9  1  0  0  0
 35 31  1  0  0  0
  8 11  1  0  0  0
  9 12  1  0  0  0
M  END
> <minimizedAffinity>
-9.46822

$$$$
5NYH_9EK_A_301


 35 39  0  0  0  0  0  0  0  0999 V2000
    2.5357   40.0584   23.6462 C   0  0  0  0  0  0  0  0  0  0  0  0
    3.8016   39.3385   25.5309 C   0  0  0  0  0  0  0  0  0  0  0  0
    4.4683   38.3833   24.7487 C   0  0  0  0  0  0  0  0  0  0  0  0
    5.4263   37.7388   25.6275 C   0  0  0  0  0  0  0  0  0  0  0  0
    3.2023   39.1205   22.8342 C   0  0  0  0  0  0  0  0  0  0  0  0
    4.1558   38.2770   23.4002 C   0  0  0  0  0  0  0  0  0  0  0  0
    2.8316   40.1728   24.9951 C   0  0  0  0  0  0  0  0  0  0  0  0
    1.5839   40.8545   23.1170 O   0  0  0  0  0  0  0  0  0  0  0  0
    5.2882   38.2955   26.8377 N   0  0  0  0  0  0  0  0  0  0  0  0
    4.3307   39.2463   26.7714 N   0  0  0  0  0  0  0  0  0  0  0  0
    1.3719   40.7897   22.2066 H   0  0  0  0  0  0  0  0  0  0  0  0
    5.7999   38.0521   27.6428 H   0  0  0  0  0  0  0  0  0  0  0  0
    6.4427   36.7259   25.1887 C   0  0  0  0  0  0  0  0  0  0  0  0
    7.0415   34.3458   24.8290 C   0  0  0  0  0  0  0  0  0  0  0  0
    4.9045   34.8869   25.8089 C   0  0  0  0  0  0  0  0  0  0  0  0
    6.1492   35.4217   25.2623 N   0  0  0  0  0  0  0  0  0  0  0  0
    6.4306   33.1149   25.4436 C   0  0  0  0  0  0  0  0  0  0  0  0
    5.0164   33.4027   25.5790 C   0  0  0  0  0  0  0  0  0  0  0  0
    7.5099   37.1398   24.8028 O   0  0  0  0  0  0  0  0  0  0  0  0
    2.8816   39.0552   21.3693 C   0  0  0  0  0  0  0  0  0  0  0  0
    1.8958   37.9069   19.4816 C   0  0  0  0  0  0  0  0  0  0  0  0
    2.1939   37.9801   20.9031 N   0  0  0  0  0  0  0  0  0  0  0  0
    3.2707   39.9312   20.6357 O   0  0  0  0  0  0  0  0  0  0  0  0
    1.7255   36.8890   21.7064 C   0  0  0  0  0  0  0  0  0  0  0  0
    2.4456   35.7179   21.7719 C   0  0  0  0  0  0  0  0  0  0  0  0
    0.1916   36.0110   23.3291 C   0  0  0  0  0  0  0  0  0  0  0  0
    0.9138   34.8269   23.4025 C   0  0  0  0  0  0  0  0  0  0  0  0
    2.0478   34.7002   22.6132 C   0  0  0  0  0  0  0  0  0  0  0  0
    0.5942   37.0298   22.4866 C   0  0  0  0  0  0  0  0  0  0  0  0
   -1.3084   32.4081   25.1522 C   0  0  0  0  0  0  0  0  0  0  0  0
    0.8793   31.8166   25.6310 C   0  0  0  0  0  0  0  0  0  0  0  0
    1.4372   32.6927   24.5379 C   0  0  0  0  0  0  0  0  0  0  0  0
    0.4959   33.7701   24.2088 N   0  0  0  0  0  0  0  0  0  0  0  0
   -0.8911   33.3317   24.0227 C   0  0  0  0  0  0  0  0  0  0  0  0
   -0.3984   31.3379   25.3058 O   0  0  0  0  0  0  0  0  0  0  0  0
 21 22  1  0  0  0
 23 20  2  0  0  0
 22 20  1  0  0  0
 22 24  1  0  0  0
 20  5  1  0  0  0
 25 24  2  0  0  0
 25 28  1  0  0  0
 24 29  1  0  0  0
  5  6  2  0  0  0
  5  1  1  0  0  0
  8  1  1  0  0  0
 28 27  2  0  0  0
 18 17  1  0  0  0
 18 15  1  0  0  0
  6  3  1  0  0  0
  1  7  2  0  0  0
 29 26  2  0  0  0
 17 14  1  0  0  0
 15 16  1  0  0  0
 27 26  1  0  0  0
 27 33  1  0  0  0
 14 16  1  0  0  0
 16 13  1  0  0  0
  3  2  1  0  0  0
  3  4  2  0  0  0
  7  2  1  0  0  0
 34 33  1  0  0  0
 34 30  1  0  0  0
 33 32  1  0  0  0
  2 10  2  0  0  0
 13  4  1  0  0  0
 13 19  2  0  0  0
  4  9  1  0  0  0
 30 35  1  0  0  0
 32 31  1  0  0  0
 10  9  1  0  0  0
 35 31  1  0  0  0
  8 11  1  0  0  0
  9 12  1  0  0  0
M  END
> <minimizedAffinity>
-9.41805

$$$$
5NYH_9EK_A_301


 35 39  0  0  0  0  0  0  0  0999 V2000
    5.3030   36.1094   27.1080 C   0  0  0  0  0  0  0  0  0  0  0  0
    4.0532   38.0994   26.7202 C   0  0  0  0  0  0  0  0  0  0  0  0
    4.5648   38.1957   25.4172 C   0  0  0  0  0  0  0  0  0  0  0  0
    3.9323   39.3568   24.8195 C   0  0  0  0  0  0  0  0  0  0  0  0
    5.8179   36.1719   25.7987 C   0  0  0  0  0  0  0  0  0  0  0  0
    5.4538   37.2289   24.9673 C   0  0  0  0  0  0  0  0  0  0  0  0
    4.4196   37.0697   27.5742 C   0  0  0  0  0  0  0  0  0  0  0  0
    5.6779   35.1112   27.9344 O   0  0  0  0  0  0  0  0  0  0  0  0
    3.1241   39.8868   25.7466 N   0  0  0  0  0  0  0  0  0  0  0  0
    3.1948   39.1335   26.8659 N   0  0  0  0  0  0  0  0  0  0  0  0
    6.2746   34.4539   27.6345 H   0  0  0  0  0  0  0  0  0  0  0  0
    2.5700   40.6924   25.6316 H   0  0  0  0  0  0  0  0  0  0  0  0
    4.0946   39.7772   23.3883 C   0  0  0  0  0  0  0  0  0  0  0  0
    5.1325   41.3085   21.7358 C   0  0  0  0  0  0  0  0  0  0  0  0
    5.5381   41.6640   24.0871 C   0  0  0  0  0  0  0  0  0  0  0  0
    4.8679   40.8295   23.0931 N   0  0  0  0  0  0  0  0  0  0  0  0
    5.7212   42.6764   21.9555 C   0  0  0  0  0  0  0  0  0  0  0  0
    6.3464   42.6308   23.2625 C   0  0  0  0  0  0  0  0  0  0  0  0
    3.4899   39.1493   22.5520 O   0  0  0  0  0  0  0  0  0  0  0  0
    6.7411   35.0903   25.3181 C   0  0  0  0  0  0  0  0  0  0  0  0
    7.0998   32.8430   24.4965 C   0  0  0  0  0  0  0  0  0  0  0  0
    6.2058   33.8978   24.9475 N   0  0  0  0  0  0  0  0  0  0  0  0
    7.9321   35.2864   25.3073 O   0  0  0  0  0  0  0  0  0  0  0  0
    4.8076   33.5814   24.9612 C   0  0  0  0  0  0  0  0  0  0  0  0
    3.9265   34.3028   24.1882 C   0  0  0  0  0  0  0  0  0  0  0  0
    3.0091   32.1394   25.6269 C   0  0  0  0  0  0  0  0  0  0  0  0
    2.1140   32.8610   24.8479 C   0  0  0  0  0  0  0  0  0  0  0  0
    2.5961   33.9447   24.1279 C   0  0  0  0  0  0  0  0  0  0  0  0
    4.3421   32.4997   25.6834 C   0  0  0  0  0  0  0  0  0  0  0  0
   -1.1239   31.2003   25.6277 C   0  0  0  0  0  0  0  0  0  0  0  0
   -1.5557   32.8852   24.0981 C   0  0  0  0  0  0  0  0  0  0  0  0
   -0.2061   33.5249   24.3047 C   0  0  0  0  0  0  0  0  0  0  0  0
    0.7576   32.5430   24.8171 N   0  0  0  0  0  0  0  0  0  0  0  0
    0.2644   31.7309   25.9341 C   0  0  0  0  0  0  0  0  0  0  0  0
   -2.0048   32.2428   25.2613 O   0  0  0  0  0  0  0  0  0  0  0  0
 21 22  1  0  0  0
 23 20  2  0  0  0
 22 20  1  0  0  0
 22 24  1  0  0  0
 20  5  1  0  0  0
 25 24  2  0  0  0
 25 28  1  0  0  0
 24 29  1  0  0  0
  5  6  2  0  0  0
  5  1  1  0  0  0
  8  1  1  0  0  0
 28 27  2  0  0  0
 18 17  1  0  0  0
 18 15  1  0  0  0
  6  3  1  0  0  0
  1  7  2  0  0  0
 29 26  2  0  0  0
 17 14  1  0  0  0
 15 16  1  0  0  0
 27 26  1  0  0  0
 27 33  1  0  0  0
 14 16  1  0  0  0
 16 13  1  0  0  0
  3  2  1  0  0  0
  3  4  2  0  0  0
  7  2  1  0  0  0
 34 33  1  0  0  0
 34 30  1  0  0  0
 33 32  1  0  0  0
  2 10  2  0  0  0
 13  4  1  0  0  0
 13 19  2  0  0  0
  4  9  1  0  0  0
 30 35  1  0  0  0
 32 31  1  0  0  0
 10  9  1  0  0  0
 35 31  1  0  0  0
  8 11  1  0  0  0
  9 12  1  0  0  0
M  END
> <minimizedAffinity>
-9.25552

$$$$
