1GAI_GAC_A_498


 58 61  0  0  0  0  0  0  0  0999 V2000
   29.0121   14.0652    2.2946 C   0  0  0  0  0  0  0  0  0  0  0  0
   28.5746   15.4488    1.8527 C   0  0  0  0  0  0  0  0  0  0  0  0
   29.7053   16.4563    2.0647 C   0  0  0  0  0  0  0  0  0  0  0  0
   30.2469   16.3924    3.5073 C   0  0  0  0  0  0  0  0  0  0  0  0
   30.5284   14.9503    3.9236 C   0  0  0  0  0  0  0  0  0  0  0  0
   28.2363   15.4158    0.4738 O   0  0  0  0  0  0  0  0  0  0  0  0
   29.1897   17.7501    1.7950 O   0  0  0  0  0  0  0  0  0  0  0  0
   29.3927   14.1038    3.6628 O   0  0  0  0  0  0  0  0  0  0  0  0
   29.0115   15.1457   -0.0429 H   0  0  0  0  0  0  0  0  0  0  0  0
   28.4547   17.9377    2.3995 H   0  0  0  0  0  0  0  0  0  0  0  0
   30.8779   14.8169    5.3955 C   0  0  0  0  0  0  0  0  0  0  0  0
   30.8618   13.4608    5.8062 O   0  0  0  0  0  0  0  0  0  0  0  0
   29.9731   13.0942    5.6764 H   0  0  0  0  0  0  0  0  0  0  0  0
   31.4998   17.1035    3.6167 O   0  0  0  0  0  0  0  0  0  0  0  0
   31.6345   18.4720    3.3427 C   0  0  0  0  0  0  0  0  0  0  0  0
   33.1080   18.8079    3.6153 C   0  0  0  0  0  0  0  0  0  0  0  0
   33.4209   18.6065    5.1118 C   0  0  0  0  0  0  0  0  0  0  0  0
   32.5013   19.5283    5.9308 C   0  0  0  0  0  0  0  0  0  0  0  0
   31.0546   19.0950    5.6232 C   0  0  0  0  0  0  0  0  0  0  0  0
   29.9948   19.9174    6.3319 C   0  0  0  0  0  0  0  0  0  0  0  0
   33.9297   17.9435    2.8374 O   0  0  0  0  0  0  0  0  0  0  0  0
   34.7913   18.8928    5.3753 O   0  0  0  0  0  0  0  0  0  0  0  0
   30.7925   19.2356    4.2065 O   0  0  0  0  0  0  0  0  0  0  0  0
   33.7510   17.0218    3.0810 H   0  0  0  0  0  0  0  0  0  0  0  0
   34.9818   19.8126    5.1332 H   0  0  0  0  0  0  0  0  0  0  0  0
   32.8025   19.4350    7.3785 N   0  0  0  0  0  0  0  0  0  0  0  0
   31.9832   19.0472    7.8462 H   0  0  0  0  0  0  0  0  0  0  0  0
   33.1434   20.7188    8.0407 C   0  0  0  0  0  0  0  0  0  0  0  0
   34.3617   20.5320    8.9485 C   0  0  0  0  0  0  0  0  0  0  0  0
   33.9975   19.6519   10.1426 C   0  0  0  0  0  0  0  0  0  0  0  0
   32.9370   20.3347   11.0015 C   0  0  0  0  0  0  0  0  0  0  0  0
   31.6521   20.6063   10.1940 C   0  0  0  0  0  0  0  0  0  0  0  0
   31.9537   21.2950    8.8336 C   0  0  0  0  0  0  0  0  0  0  0  0
   35.4130   19.9169    8.2211 O   0  0  0  0  0  0  0  0  0  0  0  0
   35.1577   19.4197   10.9298 O   0  0  0  0  0  0  0  0  0  0  0  0
   32.6373   19.5054   12.1231 O   0  0  0  0  0  0  0  0  0  0  0  0
   35.1219   19.0472    7.9052 H   0  0  0  0  0  0  0  0  0  0  0  0
   35.5035   20.2662   11.2536 H   0  0  0  0  0  0  0  0  0  0  0  0
   32.2893   18.6550   11.8125 H   0  0  0  0  0  0  0  0  0  0  0  0
   30.6736   21.4500   11.0162 C   0  0  0  0  0  0  0  0  0  0  0  0
   31.2286   22.7226   11.3496 O   0  0  0  0  0  0  0  0  0  0  0  0
   32.0279   22.5967   11.8845 H   0  0  0  0  0  0  0  0  0  0  0  0
   30.0705   13.6654    1.4702 O   0  0  0  0  0  0  0  0  0  0  0  0
   29.1160    9.6360    1.5936 C   0  0  0  0  0  0  0  0  0  0  0  0
   30.4348   10.0136    2.2715 C   0  0  0  0  0  0  0  0  0  0  0  0
   30.4541   11.5190    2.5115 C   0  0  0  0  0  0  0  0  0  0  0  0
   30.2067   12.2611    1.1958 C   0  0  0  0  0  0  0  0  0  0  0  0
   28.9264   11.7631    0.5282 C   0  0  0  0  0  0  0  0  0  0  0  0
   28.0609   10.0118    2.4068 O   0  0  0  0  0  0  0  0  0  0  0  0
   30.5617    9.3277    3.5137 O   0  0  0  0  0  0  0  0  0  0  0  0
   31.7094   11.9043    3.0579 O   0  0  0  0  0  0  0  0  0  0  0  0
   28.9835   10.3346    0.3491 O   0  0  0  0  0  0  0  0  0  0  0  0
   28.0870   10.9711    2.5477 H   0  0  0  0  0  0  0  0  0  0  0  0
   29.8249    9.5727    4.0951 H   0  0  0  0  0  0  0  0  0  0  0  0
   32.4170   11.6770    2.4345 H   0  0  0  0  0  0  0  0  0  0  0  0
   28.7253   12.3777   -0.8420 C   0  0  0  0  0  0  0  0  0  0  0  0
   29.8147   13.2223   -1.1919 O   0  0  0  0  0  0  0  0  0  0  0  0
   29.8839   13.9443   -0.5479 H   0  0  0  0  0  0  0  0  0  0  0  0
 28 29  1  0  0  0
 28 33  1  0  0  0
 28 26  1  0  0  0
 29 30  1  0  0  0
 29 34  1  0  0  0
 30 31  1  0  0  0
 30 35  1  0  0  0
 31 32  1  0  0  0
 31 36  1  0  0  0
 32 40  1  0  0  0
 32 33  1  0  0  0
 40 41  1  0  0  0
 15 16  1  0  0  0
 15 23  1  0  0  0
 15 14  1  0  0  0
 16 17  1  0  0  0
 16 21  1  0  0  0
 17 18  1  0  0  0
 17 22  1  0  0  0
 18 19  1  0  0  0
 18 26  1  0  0  0
 19 20  1  0  0  0
 19 23  1  0  0  0
  1  2  1  0  0  0
  1  8  1  0  0  0
  1 43  1  0  0  0
  2  3  1  0  0  0
  2  6  1  0  0  0
  3  4  1  0  0  0
  3  7  1  0  0  0
  4  5  1  0  0  0
  4 14  1  0  0  0
  5 11  1  0  0  0
  5  8  1  0  0  0
 11 12  1  0  0  0
 44 45  1  0  0  0
 44 49  1  0  0  0
 44 52  1  0  0  0
 45 46  1  0  0  0
 45 50  1  0  0  0
 46 47  1  0  0  0
 46 51  1  0  0  0
 47 48  1  0  0  0
 47 43  1  0  0  0
 48 56  1  0  0  0
 48 52  1  0  0  0
 56 57  1  0  0  0
 34 37  1  0  0  0
 35 38  1  0  0  0
 36 39  1  0  0  0
 41 42  1  0  0  0
 26 27  1  0  0  0
 21 24  1  0  0  0
 22 25  1  0  0  0
  6  9  1  0  0  0
  7 10  1  0  0  0
 12 13  1  0  0  0
 49 53  1  0  0  0
 50 54  1  0  0  0
 51 55  1  0  0  0
 57 58  1  0  0  0
M  END
> <minimizedAffinity>
-11.43793

$$$$
1GAI_GAC_A_498


 58 61  0  0  0  0  0  0  0  0999 V2000
   28.7109   14.2890    2.4227 C   0  0  0  0  0  0  0  0  0  0  0  0
   28.3056   15.7045    2.0580 C   0  0  0  0  0  0  0  0  0  0  0  0
   29.5010   16.6494    2.1881 C   0  0  0  0  0  0  0  0  0  0  0  0
   30.1693   16.5171    3.5716 C   0  0  0  0  0  0  0  0  0  0  0  0
   30.4142   15.0514    3.9240 C   0  0  0  0  0  0  0  0  0  0  0  0
   27.8404   15.7284    0.7163 O   0  0  0  0  0  0  0  0  0  0  0  0
   29.0293   17.9740    1.9998 O   0  0  0  0  0  0  0  0  0  0  0  0
   29.2175   14.2690    3.7498 O   0  0  0  0  0  0  0  0  0  0  0  0
   28.5499   15.4363    0.1229 H   0  0  0  0  0  0  0  0  0  0  0  0
   28.3638   18.1792    2.6749 H   0  0  0  0  0  0  0  0  0  0  0  0
   30.8907   14.8581    5.3530 C   0  0  0  0  0  0  0  0  0  0  0  0
   30.8124   13.4975    5.7407 O   0  0  0  0  0  0  0  0  0  0  0  0
   29.8906   13.1996    5.6910 H   0  0  0  0  0  0  0  0  0  0  0  0
   31.4616   17.1630    3.5808 O   0  0  0  0  0  0  0  0  0  0  0  0
   31.6406   18.5300    3.3246 C   0  0  0  0  0  0  0  0  0  0  0  0
   33.1182   18.8198    3.6262 C   0  0  0  0  0  0  0  0  0  0  0  0
   33.3990   18.5933    5.1255 C   0  0  0  0  0  0  0  0  0  0  0  0
   32.4922   19.5325    5.9390 C   0  0  0  0  0  0  0  0  0  0  0  0
   31.0392   19.1449    5.6018 C   0  0  0  0  0  0  0  0  0  0  0  0
   29.9914   19.9900    6.3015 C   0  0  0  0  0  0  0  0  0  0  0  0
   33.9280   17.9404    2.8528 O   0  0  0  0  0  0  0  0  0  0  0  0
   34.7723   18.8368    5.4156 O   0  0  0  0  0  0  0  0  0  0  0  0
   30.8060   19.3084    4.1825 O   0  0  0  0  0  0  0  0  0  0  0  0
   33.7185   17.0217    3.0828 H   0  0  0  0  0  0  0  0  0  0  0  0
   34.9935   19.7532    5.1873 H   0  0  0  0  0  0  0  0  0  0  0  0
   32.7653   19.4149    7.3905 N   0  0  0  0  0  0  0  0  0  0  0  0
   31.9252   19.0513    7.8405 H   0  0  0  0  0  0  0  0  0  0  0  0
   33.1391   20.6796    8.0714 C   0  0  0  0  0  0  0  0  0  0  0  0
   34.3167   20.4358    9.0184 C   0  0  0  0  0  0  0  0  0  0  0  0
   33.8745   19.5671   10.1944 C   0  0  0  0  0  0  0  0  0  0  0  0
   32.8163   20.2917   11.0213 C   0  0  0  0  0  0  0  0  0  0  0  0
   31.5724   20.6226   10.1727 C   0  0  0  0  0  0  0  0  0  0  0  0
   31.9494   21.3036    8.8273 C   0  0  0  0  0  0  0  0  0  0  0  0
   35.3643   19.7787    8.3231 O   0  0  0  0  0  0  0  0  0  0  0  0
   34.9963   19.2810   11.0187 O   0  0  0  0  0  0  0  0  0  0  0  0
   32.4431   19.4712   12.1272 O   0  0  0  0  0  0  0  0  0  0  0  0
   35.0465   18.9239    7.9924 H   0  0  0  0  0  0  0  0  0  0  0  0
   35.3674   20.1101   11.3589 H   0  0  0  0  0  0  0  0  0  0  0  0
   32.0692   18.6381   11.8000 H   0  0  0  0  0  0  0  0  0  0  0  0
   30.6043   21.5045   10.9666 C   0  0  0  0  0  0  0  0  0  0  0  0
   31.2074   22.7439   11.3392 O   0  0  0  0  0  0  0  0  0  0  0  0
   31.9772   22.5720   11.9038 H   0  0  0  0  0  0  0  0  0  0  0  0
   29.6670   13.8627    1.4933 O   0  0  0  0  0  0  0  0  0  0  0  0
   30.5932   10.5352   -0.7941 C   0  0  0  0  0  0  0  0  0  0  0  0
   29.1486   11.0253   -0.9131 C   0  0  0  0  0  0  0  0  0  0  0  0
   29.0623   12.4468   -0.3689 C   0  0  0  0  0  0  0  0  0  0  0  0
   29.6098   12.4935    1.0597 C   0  0  0  0  0  0  0  0  0  0  0  0
   31.0154   11.8989    1.1183 C   0  0  0  0  0  0  0  0  0  0  0  0
   31.4225   11.3807   -1.5105 O   0  0  0  0  0  0  0  0  0  0  0  0
   28.7352   11.0071   -2.2763 O   0  0  0  0  0  0  0  0  0  0  0  0
   27.7104   12.8886   -0.3858 O   0  0  0  0  0  0  0  0  0  0  0  0
   31.0125   10.5639    0.5762 O   0  0  0  0  0  0  0  0  0  0  0  0
   31.3569   12.2791   -1.1508 H   0  0  0  0  0  0  0  0  0  0  0  0
   29.3112   11.5888   -2.7966 H   0  0  0  0  0  0  0  0  0  0  0  0
   27.1728   12.3057    0.1728 H   0  0  0  0  0  0  0  0  0  0  0  0
   31.5317   11.8030    2.5396 C   0  0  0  0  0  0  0  0  0  0  0  0
   30.4750   11.5391    3.4541 O   0  0  0  0  0  0  0  0  0  0  0  0
   29.8291   12.2619    3.4191 H   0  0  0  0  0  0  0  0  0  0  0  0
 28 29  1  0  0  0
 28 33  1  0  0  0
 28 26  1  0  0  0
 29 30  1  0  0  0
 29 34  1  0  0  0
 30 31  1  0  0  0
 30 35  1  0  0  0
 31 32  1  0  0  0
 31 36  1  0  0  0
 32 40  1  0  0  0
 32 33  1  0  0  0
 40 41  1  0  0  0
 15 16  1  0  0  0
 15 23  1  0  0  0
 15 14  1  0  0  0
 16 17  1  0  0  0
 16 21  1  0  0  0
 17 18  1  0  0  0
 17 22  1  0  0  0
 18 19  1  0  0  0
 18 26  1  0  0  0
 19 20  1  0  0  0
 19 23  1  0  0  0
  1  2  1  0  0  0
  1  8  1  0  0  0
  1 43  1  0  0  0
  2  3  1  0  0  0
  2  6  1  0  0  0
  3  4  1  0  0  0
  3  7  1  0  0  0
  4  5  1  0  0  0
  4 14  1  0  0  0
  5 11  1  0  0  0
  5  8  1  0  0  0
 11 12  1  0  0  0
 44 45  1  0  0  0
 44 49  1  0  0  0
 44 52  1  0  0  0
 45 46  1  0  0  0
 45 50  1  0  0  0
 46 47  1  0  0  0
 46 51  1  0  0  0
 47 48  1  0  0  0
 47 43  1  0  0  0
 48 56  1  0  0  0
 48 52  1  0  0  0
 56 57  1  0  0  0
 34 37  1  0  0  0
 35 38  1  0  0  0
 36 39  1  0  0  0
 41 42  1  0  0  0
 26 27  1  0  0  0
 21 24  1  0  0  0
 22 25  1  0  0  0
  6  9  1  0  0  0
  7 10  1  0  0  0
 12 13  1  0  0  0
 49 53  1  0  0  0
 50 54  1  0  0  0
 51 55  1  0  0  0
 57 58  1  0  0  0
M  END
> <minimizedAffinity>
-11.40694

$$$$
1GAI_GAC_A_498


 58 61  0  0  0  0  0  0  0  0999 V2000
   31.2114   13.8804    1.1232 C   0  0  0  0  0  0  0  0  0  0  0  0
   30.8283   15.2009    0.4825 C   0  0  0  0  0  0  0  0  0  0  0  0
   31.2973   16.3686    1.3516 C   0  0  0  0  0  0  0  0  0  0  0  0
   30.8188   16.2076    2.8088 C   0  0  0  0  0  0  0  0  0  0  0  0
   31.1156   14.8035    3.3311 C   0  0  0  0  0  0  0  0  0  0  0  0
   31.4420   15.2984   -0.7945 O   0  0  0  0  0  0  0  0  0  0  0  0
   30.7705   17.5624    0.7951 O   0  0  0  0  0  0  0  0  0  0  0  0
   30.6345   13.7981    2.4189 O   0  0  0  0  0  0  0  0  0  0  0  0
   32.4059   15.2599   -0.6937 H   0  0  0  0  0  0  0  0  0  0  0  0
   29.8016   17.5162    0.7889 H   0  0  0  0  0  0  0  0  0  0  0  0
   30.4924   14.5336    4.6894 C   0  0  0  0  0  0  0  0  0  0  0  0
   30.8888   13.2704    5.1943 O   0  0  0  0  0  0  0  0  0  0  0  0
   30.5950   12.5729    4.5876 H   0  0  0  0  0  0  0  0  0  0  0  0
   31.5139   17.1257    3.6812 O   0  0  0  0  0  0  0  0  0  0  0  0
   31.6467   18.4948    3.4091 C   0  0  0  0  0  0  0  0  0  0  0  0
   33.1196   18.8326    3.6830 C   0  0  0  0  0  0  0  0  0  0  0  0
   33.4319   18.6298    5.1795 C   0  0  0  0  0  0  0  0  0  0  0  0
   32.5104   19.5491    5.9990 C   0  0  0  0  0  0  0  0  0  0  0  0
   31.0645   19.1140    5.6901 C   0  0  0  0  0  0  0  0  0  0  0  0
   30.0031   19.9338    6.3992 C   0  0  0  0  0  0  0  0  0  0  0  0
   33.9431   17.9705    2.9045 O   0  0  0  0  0  0  0  0  0  0  0  0
   34.8017   18.9178    5.4441 O   0  0  0  0  0  0  0  0  0  0  0  0
   30.8030   19.2560    4.2734 O   0  0  0  0  0  0  0  0  0  0  0  0
   33.7656   17.0482    3.1467 H   0  0  0  0  0  0  0  0  0  0  0  0
   34.9909   19.8382    5.2033 H   0  0  0  0  0  0  0  0  0  0  0  0
   32.8109   19.4543    7.4468 N   0  0  0  0  0  0  0  0  0  0  0  0
   31.9909   19.0674    7.9140 H   0  0  0  0  0  0  0  0  0  0  0  0
   33.1533   20.7372    8.1100 C   0  0  0  0  0  0  0  0  0  0  0  0
   34.3652   20.5459    9.0253 C   0  0  0  0  0  0  0  0  0  0  0  0
   33.9901   19.6684   10.2179 C   0  0  0  0  0  0  0  0  0  0  0  0
   32.9274   20.3565   11.0699 C   0  0  0  0  0  0  0  0  0  0  0  0
   31.6486   20.6330   10.2544 C   0  0  0  0  0  0  0  0  0  0  0  0
   31.9613   21.3192    8.8953 C   0  0  0  0  0  0  0  0  0  0  0  0
   35.4182   19.9257    8.3048 O   0  0  0  0  0  0  0  0  0  0  0  0
   35.1445   19.4319   11.0123 O   0  0  0  0  0  0  0  0  0  0  0  0
   32.6173   19.5295   12.1902 O   0  0  0  0  0  0  0  0  0  0  0  0
   35.1253   19.0570    7.9879 H   0  0  0  0  0  0  0  0  0  0  0  0
   35.4919   20.2771   11.3375 H   0  0  0  0  0  0  0  0  0  0  0  0
   32.2675   18.6802   11.8783 H   0  0  0  0  0  0  0  0  0  0  0  0
   30.6688   21.4815   11.0699 C   0  0  0  0  0  0  0  0  0  0  0  0
   31.2148   22.7644   11.3781 O   0  0  0  0  0  0  0  0  0  0  0  0
   32.0192   22.6544   11.9088 H   0  0  0  0  0  0  0  0  0  0  0  0
   32.6089   13.8146    1.1696 O   0  0  0  0  0  0  0  0  0  0  0  0
   35.6822   11.2581    0.0828 C   0  0  0  0  0  0  0  0  0  0  0  0
   35.1380   12.1379   -1.0446 C   0  0  0  0  0  0  0  0  0  0  0  0
   34.3345   13.2814   -0.4354 C   0  0  0  0  0  0  0  0  0  0  0  0
   33.2471   12.7232    0.4859 C   0  0  0  0  0  0  0  0  0  0  0  0
   33.8513   11.7782    1.5225 C   0  0  0  0  0  0  0  0  0  0  0  0
   36.4810   12.0238    0.9143 O   0  0  0  0  0  0  0  0  0  0  0  0
   36.2123   12.6645   -1.8179 O   0  0  0  0  0  0  0  0  0  0  0  0
   33.7434   14.0597   -1.4688 O   0  0  0  0  0  0  0  0  0  0  0  0
   34.6016   10.7372    0.8673 O   0  0  0  0  0  0  0  0  0  0  0  0
   35.9547   12.7447    1.2942 H   0  0  0  0  0  0  0  0  0  0  0  0
   36.7887   13.1985   -1.2492 H   0  0  0  0  0  0  0  0  0  0  0  0
   33.1474   13.5020   -1.9929 H   0  0  0  0  0  0  0  0  0  0  0  0
   32.7866   11.1014    2.3616 C   0  0  0  0  0  0  0  0  0  0  0  0
   32.6179   11.7622    3.6095 O   0  0  0  0  0  0  0  0  0  0  0  0
   33.4512   11.7347    4.1053 H   0  0  0  0  0  0  0  0  0  0  0  0
 28 29  1  0  0  0
 28 33  1  0  0  0
 28 26  1  0  0  0
 29 30  1  0  0  0
 29 34  1  0  0  0
 30 31  1  0  0  0
 30 35  1  0  0  0
 31 32  1  0  0  0
 31 36  1  0  0  0
 32 40  1  0  0  0
 32 33  1  0  0  0
 40 41  1  0  0  0
 15 16  1  0  0  0
 15 23  1  0  0  0
 15 14  1  0  0  0
 16 17  1  0  0  0
 16 21  1  0  0  0
 17 18  1  0  0  0
 17 22  1  0  0  0
 18 19  1  0  0  0
 18 26  1  0  0  0
 19 20  1  0  0  0
 19 23  1  0  0  0
  1  2  1  0  0  0
  1  8  1  0  0  0
  1 43  1  0  0  0
  2  3  1  0  0  0
  2  6  1  0  0  0
  3  4  1  0  0  0
  3  7  1  0  0  0
  4  5  1  0  0  0
  4 14  1  0  0  0
  5 11  1  0  0  0
  5  8  1  0  0  0
 11 12  1  0  0  0
 44 45  1  0  0  0
 44 49  1  0  0  0
 44 52  1  0  0  0
 45 46  1  0  0  0
 45 50  1  0  0  0
 46 47  1  0  0  0
 46 51  1  0  0  0
 47 48  1  0  0  0
 47 43  1  0  0  0
 48 56  1  0  0  0
 48 52  1  0  0  0
 56 57  1  0  0  0
 34 37  1  0  0  0
 35 38  1  0  0  0
 36 39  1  0  0  0
 41 42  1  0  0  0
 26 27  1  0  0  0
 21 24  1  0  0  0
 22 25  1  0  0  0
  6  9  1  0  0  0
  7 10  1  0  0  0
 12 13  1  0  0  0
 49 53  1  0  0  0
 50 54  1  0  0  0
 51 55  1  0  0  0
 57 58  1  0  0  0
M  END
> <minimizedAffinity>
-11.37968

$$$$
1GAI_GAC_A_498


 58 61  0  0  0  0  0  0  0  0999 V2000
   31.2728   13.7136    1.2142 C   0  0  0  0  0  0  0  0  0  0  0  0
   31.0293   15.0129    0.4702 C   0  0  0  0  0  0  0  0  0  0  0  0
   31.4984   16.2018    1.3100 C   0  0  0  0  0  0  0  0  0  0  0  0
   30.8914   16.1585    2.7271 C   0  0  0  0  0  0  0  0  0  0  0  0
   31.0536   14.7738    3.3507 C   0  0  0  0  0  0  0  0  0  0  0  0
   31.7517   14.9959   -0.7524 O   0  0  0  0  0  0  0  0  0  0  0  0
   31.0969   17.3884    0.6442 O   0  0  0  0  0  0  0  0  0  0  0  0
   30.5864   13.7448    2.4578 O   0  0  0  0  0  0  0  0  0  0  0  0
   32.6996   14.9069   -0.5667 H   0  0  0  0  0  0  0  0  0  0  0  0
   30.1309   17.3991    0.5569 H   0  0  0  0  0  0  0  0  0  0  0  0
   30.3039   14.6246    4.6629 C   0  0  0  0  0  0  0  0  0  0  0  0
   30.8002   13.5319    5.4163 O   0  0  0  0  0  0  0  0  0  0  0  0
   30.6839   12.7117    4.9116 H   0  0  0  0  0  0  0  0  0  0  0  0
   31.5691   17.0856    3.6038 O   0  0  0  0  0  0  0  0  0  0  0  0
   31.6820   18.4570    3.3345 C   0  0  0  0  0  0  0  0  0  0  0  0
   33.1466   18.8184    3.6223 C   0  0  0  0  0  0  0  0  0  0  0  0
   33.4484   18.6187    5.1214 C   0  0  0  0  0  0  0  0  0  0  0  0
   32.5046   19.5218    5.9335 C   0  0  0  0  0  0  0  0  0  0  0  0
   31.0688   19.0636    5.6107 C   0  0  0  0  0  0  0  0  0  0  0  0
   29.9877   19.8651    6.3110 C   0  0  0  0  0  0  0  0  0  0  0  0
   33.9912   17.9708    2.8505 O   0  0  0  0  0  0  0  0  0  0  0  0
   34.8109   18.9287    5.3990 O   0  0  0  0  0  0  0  0  0  0  0  0
   30.8181   19.2033    4.1918 O   0  0  0  0  0  0  0  0  0  0  0  0
   33.8265   17.0454    3.0900 H   0  0  0  0  0  0  0  0  0  0  0  0
   34.9873   19.8523    5.1610 H   0  0  0  0  0  0  0  0  0  0  0  0
   32.7932   19.4301    7.3839 N   0  0  0  0  0  0  0  0  0  0  0  0
   31.9700   19.0424    7.8449 H   0  0  0  0  0  0  0  0  0  0  0  0
   33.1277   20.7147    8.0477 C   0  0  0  0  0  0  0  0  0  0  0  0
   34.3339   20.5277    8.9715 C   0  0  0  0  0  0  0  0  0  0  0  0
   33.9529   19.6508   10.1627 C   0  0  0  0  0  0  0  0  0  0  0  0
   32.8826   20.3373   11.0064 C   0  0  0  0  0  0  0  0  0  0  0  0
   31.6087   20.6093   10.1819 C   0  0  0  0  0  0  0  0  0  0  0  0
   31.9289   21.2946    8.8240 C   0  0  0  0  0  0  0  0  0  0  0  0
   35.3934   19.9093    8.2590 O   0  0  0  0  0  0  0  0  0  0  0  0
   35.1025   19.4183   10.9652 O   0  0  0  0  0  0  0  0  0  0  0  0
   32.5670   19.5109   12.1258 O   0  0  0  0  0  0  0  0  0  0  0  0
   35.1049   19.0394    7.9412 H   0  0  0  0  0  0  0  0  0  0  0  0
   35.4455   20.2649   11.2917 H   0  0  0  0  0  0  0  0  0  0  0  0
   32.2216   18.6603   11.8125 H   0  0  0  0  0  0  0  0  0  0  0  0
   30.6211   21.4564   10.9896 C   0  0  0  0  0  0  0  0  0  0  0  0
   31.1645   22.7384   11.3059 O   0  0  0  0  0  0  0  0  0  0  0  0
   31.9636   22.6269   11.8443 H   0  0  0  0  0  0  0  0  0  0  0  0
   32.6546   13.5686    1.3850 O   0  0  0  0  0  0  0  0  0  0  0  0
   32.7751    9.5329    0.4571 C   0  0  0  0  0  0  0  0  0  0  0  0
   32.7827    9.8575    1.9524 C   0  0  0  0  0  0  0  0  0  0  0  0
   32.3274   11.2993    2.1477 C   0  0  0  0  0  0  0  0  0  0  0  0
   33.1986   12.2402    1.3117 C   0  0  0  0  0  0  0  0  0  0  0  0
   33.2220   11.7973   -0.1498 C   0  0  0  0  0  0  0  0  0  0  0  0
   31.4964    9.7102   -0.0420 O   0  0  0  0  0  0  0  0  0  0  0  0
   31.9051    8.9782    2.6496 O   0  0  0  0  0  0  0  0  0  0  0  0
   32.4144   11.6506    3.5232 O   0  0  0  0  0  0  0  0  0  0  0  0
   33.6499   10.4248   -0.2457 O   0  0  0  0  0  0  0  0  0  0  0  0
   31.2232   10.6318    0.0886 H   0  0  0  0  0  0  0  0  0  0  0  0
   31.0036    9.0826    2.3071 H   0  0  0  0  0  0  0  0  0  0  0  0
   33.3342   11.5691    3.8202 H   0  0  0  0  0  0  0  0  0  0  0  0
   34.1845   12.6244   -0.9776 C   0  0  0  0  0  0  0  0  0  0  0  0
   35.3671   12.9226   -0.2461 O   0  0  0  0  0  0  0  0  0  0  0  0
   35.1374   13.4346    0.5451 H   0  0  0  0  0  0  0  0  0  0  0  0
 28 29  1  0  0  0
 28 33  1  0  0  0
 28 26  1  0  0  0
 29 30  1  0  0  0
 29 34  1  0  0  0
 30 31  1  0  0  0
 30 35  1  0  0  0
 31 32  1  0  0  0
 31 36  1  0  0  0
 32 40  1  0  0  0
 32 33  1  0  0  0
 40 41  1  0  0  0
 15 16  1  0  0  0
 15 23  1  0  0  0
 15 14  1  0  0  0
 16 17  1  0  0  0
 16 21  1  0  0  0
 17 18  1  0  0  0
 17 22  1  0  0  0
 18 19  1  0  0  0
 18 26  1  0  0  0
 19 20  1  0  0  0
 19 23  1  0  0  0
  1  2  1  0  0  0
  1  8  1  0  0  0
  1 43  1  0  0  0
  2  3  1  0  0  0
  2  6  1  0  0  0
  3  4  1  0  0  0
  3  7  1  0  0  0
  4  5  1  0  0  0
  4 14  1  0  0  0
  5 11  1  0  0  0
  5  8  1  0  0  0
 11 12  1  0  0  0
 44 45  1  0  0  0
 44 49  1  0  0  0
 44 52  1  0  0  0
 45 46  1  0  0  0
 45 50  1  0  0  0
 46 47  1  0  0  0
 46 51  1  0  0  0
 47 48  1  0  0  0
 47 43  1  0  0  0
 48 56  1  0  0  0
 48 52  1  0  0  0
 56 57  1  0  0  0
 34 37  1  0  0  0
 35 38  1  0  0  0
 36 39  1  0  0  0
 41 42  1  0  0  0
 26 27  1  0  0  0
 21 24  1  0  0  0
 22 25  1  0  0  0
  6  9  1  0  0  0
  7 10  1  0  0  0
 12 13  1  0  0  0
 49 53  1  0  0  0
 50 54  1  0  0  0
 51 55  1  0  0  0
 57 58  1  0  0  0
M  END
> <minimizedAffinity>
-11.13405

$$$$
1GAI_GAC_A_498


 58 61  0  0  0  0  0  0  0  0999 V2000
   31.2574   13.3703    1.4303 C   0  0  0  0  0  0  0  0  0  0  0  0
   32.3236   14.1960    0.7356 C   0  0  0  0  0  0  0  0  0  0  0  0
   32.7208   15.3900    1.6047 C   0  0  0  0  0  0  0  0  0  0  0  0
   31.4821   16.1953    2.0469 C   0  0  0  0  0  0  0  0  0  0  0  0
   30.3994   15.2736    2.6041 C   0  0  0  0  0  0  0  0  0  0  0  0
   33.4688   13.3876    0.5080 O   0  0  0  0  0  0  0  0  0  0  0  0
   33.5892   16.2120    0.8415 O   0  0  0  0  0  0  0  0  0  0  0  0
   30.1265   14.1872    1.6987 O   0  0  0  0  0  0  0  0  0  0  0  0
   33.8138   13.0693    1.3568 H   0  0  0  0  0  0  0  0  0  0  0  0
   33.1287   16.5157    0.0436 H   0  0  0  0  0  0  0  0  0  0  0  0
   29.0897   15.9940    2.8723 C   0  0  0  0  0  0  0  0  0  0  0  0
   28.0046   15.3397    2.2380 O   0  0  0  0  0  0  0  0  0  0  0  0
   28.1488   15.3303    1.2788 H   0  0  0  0  0  0  0  0  0  0  0  0
   31.8214   17.1175    3.1061 O   0  0  0  0  0  0  0  0  0  0  0  0
   31.8618   18.5082    2.9321 C   0  0  0  0  0  0  0  0  0  0  0  0
   33.2813   18.9365    3.3322 C   0  0  0  0  0  0  0  0  0  0  0  0
   33.5084   18.6548    4.8312 C   0  0  0  0  0  0  0  0  0  0  0  0
   32.4636   19.4429    5.6394 C   0  0  0  0  0  0  0  0  0  0  0  0
   31.0811   18.9223    5.2002 C   0  0  0  0  0  0  0  0  0  0  0  0
   29.9124   19.6085    5.8821 C   0  0  0  0  0  0  0  0  0  0  0  0
   34.2214   18.1951    2.5615 O   0  0  0  0  0  0  0  0  0  0  0  0
   34.8300   19.0265    5.2115 O   0  0  0  0  0  0  0  0  0  0  0  0
   30.9041   19.1419    3.7803 O   0  0  0  0  0  0  0  0  0  0  0  0
   34.1026   17.2474    2.7310 H   0  0  0  0  0  0  0  0  0  0  0  0
   34.9605   19.9730    5.0441 H   0  0  0  0  0  0  0  0  0  0  0  0
   32.6735   19.2712    7.0961 N   0  0  0  0  0  0  0  0  0  0  0  0
   31.7916   18.9654    7.5074 H   0  0  0  0  0  0  0  0  0  0  0  0
   33.1203   20.4866    7.8213 C   0  0  0  0  0  0  0  0  0  0  0  0
   34.1679   20.1129    8.8730 C   0  0  0  0  0  0  0  0  0  0  0  0
   33.5214   19.3007    9.9935 C   0  0  0  0  0  0  0  0  0  0  0  0
   32.4773   20.1406   10.7237 C   0  0  0  0  0  0  0  0  0  0  0  0
   31.3647   20.6085    9.7646 C   0  0  0  0  0  0  0  0  0  0  0  0
   31.9417   21.2413    8.4674 C   0  0  0  0  0  0  0  0  0  0  0  0
   35.1965   19.3414    8.2735 O   0  0  0  0  0  0  0  0  0  0  0  0
   34.5207   18.8911   10.9174 O   0  0  0  0  0  0  0  0  0  0  0  0
   31.9112   19.3686   11.7814 O   0  0  0  0  0  0  0  0  0  0  0  0
   34.8178   18.5274    7.9062 H   0  0  0  0  0  0  0  0  0  0  0  0
   34.9483   19.6736   11.2991 H   0  0  0  0  0  0  0  0  0  0  0  0
   31.4790   18.5825   11.4124 H   0  0  0  0  0  0  0  0  0  0  0  0
   30.4305   21.5945   10.4718 C   0  0  0  0  0  0  0  0  0  0  0  0
   31.0952   22.2786   11.5344 O   0  0  0  0  0  0  0  0  0  0  0  0
   31.3963   21.6350   12.1948 H   0  0  0  0  0  0  0  0  0  0  0  0
   31.8144   12.8491    2.6042 O   0  0  0  0  0  0  0  0  0  0  0  0
   30.5733    8.9370    2.0407 C   0  0  0  0  0  0  0  0  0  0  0  0
   29.6251    9.8081    2.8674 C   0  0  0  0  0  0  0  0  0  0  0  0
   29.9828   11.2738    2.6485 C   0  0  0  0  0  0  0  0  0  0  0  0
   31.4619   11.5040    2.9680 C   0  0  0  0  0  0  0  0  0  0  0  0
   32.3410   10.5343    2.1808 C   0  0  0  0  0  0  0  0  0  0  0  0
   30.4518    9.2722    0.7033 O   0  0  0  0  0  0  0  0  0  0  0  0
   28.2764    9.5784    2.4701 O   0  0  0  0  0  0  0  0  0  0  0  0
   29.1726   12.0972    3.4783 O   0  0  0  0  0  0  0  0  0  0  0  0
   31.9310    9.1763    2.4331 O   0  0  0  0  0  0  0  0  0  0  0  0
   30.6843   10.2060    0.5815 H   0  0  0  0  0  0  0  0  0  0  0  0
   28.1736    9.8005    1.5314 H   0  0  0  0  0  0  0  0  0  0  0  0
   29.3289   11.8718    4.4088 H   0  0  0  0  0  0  0  0  0  0  0  0
   33.7995   10.6418    2.5770 C   0  0  0  0  0  0  0  0  0  0  0  0
   34.6260   10.8647    1.4412 O   0  0  0  0  0  0  0  0  0  0  0  0
   34.5376   10.1200    0.8259 H   0  0  0  0  0  0  0  0  0  0  0  0
 28 29  1  0  0  0
 28 33  1  0  0  0
 28 26  1  0  0  0
 29 30  1  0  0  0
 29 34  1  0  0  0
 30 31  1  0  0  0
 30 35  1  0  0  0
 31 32  1  0  0  0
 31 36  1  0  0  0
 32 40  1  0  0  0
 32 33  1  0  0  0
 40 41  1  0  0  0
 15 16  1  0  0  0
 15 23  1  0  0  0
 15 14  1  0  0  0
 16 17  1  0  0  0
 16 21  1  0  0  0
 17 18  1  0  0  0
 17 22  1  0  0  0
 18 19  1  0  0  0
 18 26  1  0  0  0
 19 20  1  0  0  0
 19 23  1  0  0  0
  1  2  1  0  0  0
  1  8  1  0  0  0
  1 43  1  0  0  0
  2  3  1  0  0  0
  2  6  1  0  0  0
  3  4  1  0  0  0
  3  7  1  0  0  0
  4  5  1  0  0  0
  4 14  1  0  0  0
  5 11  1  0  0  0
  5  8  1  0  0  0
 11 12  1  0  0  0
 44 45  1  0  0  0
 44 49  1  0  0  0
 44 52  1  0  0  0
 45 46  1  0  0  0
 45 50  1  0  0  0
 46 47  1  0  0  0
 46 51  1  0  0  0
 47 48  1  0  0  0
 47 43  1  0  0  0
 48 56  1  0  0  0
 48 52  1  0  0  0
 56 57  1  0  0  0
 34 37  1  0  0  0
 35 38  1  0  0  0
 36 39  1  0  0  0
 41 42  1  0  0  0
 26 27  1  0  0  0
 21 24  1  0  0  0
 22 25  1  0  0  0
  6  9  1  0  0  0
  7 10  1  0  0  0
 12 13  1  0  0  0
 49 53  1  0  0  0
 50 54  1  0  0  0
 51 55  1  0  0  0
 57 58  1  0  0  0
M  END
> <minimizedAffinity>
-10.75540

$$$$
1GAI_GAC_A_498


 58 61  0  0  0  0  0  0  0  0999 V2000
   29.3953   15.5755    0.3761 C   0  0  0  0  0  0  0  0  0  0  0  0
   28.5313   16.4829    1.2312 C   0  0  0  0  0  0  0  0  0  0  0  0
   29.4028   17.3043    2.1822 C   0  0  0  0  0  0  0  0  0  0  0  0
   30.3604   16.3995    2.9839 C   0  0  0  0  0  0  0  0  0  0  0  0
   31.0865   15.4194    2.0649 C   0  0  0  0  0  0  0  0  0  0  0  0
   27.8035   17.3664    0.3905 O   0  0  0  0  0  0  0  0  0  0  0  0
   28.5407   18.0042    3.0650 O   0  0  0  0  0  0  0  0  0  0  0  0
   30.1576   14.7194    1.2154 O   0  0  0  0  0  0  0  0  0  0  0  0
   28.4231   17.9071   -0.1239 H   0  0  0  0  0  0  0  0  0  0  0  0
   28.0046   17.3689    3.5648 H   0  0  0  0  0  0  0  0  0  0  0  0
   31.8923   14.3811    2.8257 C   0  0  0  0  0  0  0  0  0  0  0  0
   33.1099   14.9255    3.3040 O   0  0  0  0  0  0  0  0  0  0  0  0
   33.6456   15.2278    2.5539 H   0  0  0  0  0  0  0  0  0  0  0  0
   31.3826   17.1852    3.6360 O   0  0  0  0  0  0  0  0  0  0  0  0
   31.5907   18.5469    3.3744 C   0  0  0  0  0  0  0  0  0  0  0  0
   33.0776   18.8032    3.6603 C   0  0  0  0  0  0  0  0  0  0  0  0
   33.3681   18.5739    5.1574 C   0  0  0  0  0  0  0  0  0  0  0  0
   32.4917   19.5359    5.9773 C   0  0  0  0  0  0  0  0  0  0  0  0
   31.0267   19.1813    5.6558 C   0  0  0  0  0  0  0  0  0  0  0  0
   30.0060   20.0523    6.3636 C   0  0  0  0  0  0  0  0  0  0  0  0
   33.8590   17.9033    2.8813 O   0  0  0  0  0  0  0  0  0  0  0  0
   34.7496   18.7861    5.4331 O   0  0  0  0  0  0  0  0  0  0  0  0
   30.7831   19.3466    4.2384 O   0  0  0  0  0  0  0  0  0  0  0  0
   33.6305   16.9902    3.1159 H   0  0  0  0  0  0  0  0  0  0  0  0
   34.9897   19.6966    5.2000 H   0  0  0  0  0  0  0  0  0  0  0  0
   32.7766   19.4156    7.4263 N   0  0  0  0  0  0  0  0  0  0  0  0
   31.9434   19.0422    7.8811 H   0  0  0  0  0  0  0  0  0  0  0  0
   33.1430   20.6814    8.1092 C   0  0  0  0  0  0  0  0  0  0  0  0
   34.3087   20.4385    9.0712 C   0  0  0  0  0  0  0  0  0  0  0  0
   33.8512   19.5725   10.2433 C   0  0  0  0  0  0  0  0  0  0  0  0
   32.7835   20.2997   11.0557 C   0  0  0  0  0  0  0  0  0  0  0  0
   31.5505   20.6300   10.1912 C   0  0  0  0  0  0  0  0  0  0  0  0
   31.9446   21.3079    8.8492 C   0  0  0  0  0  0  0  0  0  0  0  0
   35.3641   19.7791    8.3902 O   0  0  0  0  0  0  0  0  0  0  0  0
   34.9626   19.2872   11.0820 O   0  0  0  0  0  0  0  0  0  0  0  0
   32.3960   19.4818   12.1586 O   0  0  0  0  0  0  0  0  0  0  0  0
   35.0498   18.9240    8.0573 H   0  0  0  0  0  0  0  0  0  0  0  0
   35.3301   20.1167   11.4251 H   0  0  0  0  0  0  0  0  0  0  0  0
   32.0254   18.6483   11.8285 H   0  0  0  0  0  0  0  0  0  0  0  0
   30.5734   21.5142   10.9713 C   0  0  0  0  0  0  0  0  0  0  0  0
   31.1781   22.7469   11.3631 O   0  0  0  0  0  0  0  0  0  0  0  0
   31.9354   22.5661   11.9416 H   0  0  0  0  0  0  0  0  0  0  0  0
   30.2120   16.3860   -0.4213 O   0  0  0  0  0  0  0  0  0  0  0  0
   31.4890   16.7033   -4.3495 C   0  0  0  0  0  0  0  0  0  0  0  0
   29.9738   16.5980   -4.1641 C   0  0  0  0  0  0  0  0  0  0  0  0
   29.6314   16.9005   -2.7096 C   0  0  0  0  0  0  0  0  0  0  0  0
   30.4279   15.9789   -1.7827 C   0  0  0  0  0  0  0  0  0  0  0  0
   31.9214   16.0635   -2.0914 C   0  0  0  0  0  0  0  0  0  0  0  0
   31.9030   17.9792   -4.0084 O   0  0  0  0  0  0  0  0  0  0  0  0
   29.3097   17.5261   -5.0168 O   0  0  0  0  0  0  0  0  0  0  0  0
   28.2373   16.7190   -2.4944 O   0  0  0  0  0  0  0  0  0  0  0  0
   32.1574   15.7770   -3.4836 O   0  0  0  0  0  0  0  0  0  0  0  0
   31.6795   18.1545   -3.0809 H   0  0  0  0  0  0  0  0  0  0  0  0
   29.5940   18.4273   -4.7976 H   0  0  0  0  0  0  0  0  0  0  0  0
   27.9972   15.7995   -2.6884 H   0  0  0  0  0  0  0  0  0  0  0  0
   32.7244   15.0618   -1.2866 C   0  0  0  0  0  0  0  0  0  0  0  0
   31.9662   13.8878   -1.0229 O   0  0  0  0  0  0  0  0  0  0  0  0
   31.1777   14.1209   -0.5083 H   0  0  0  0  0  0  0  0  0  0  0  0
 28 29  1  0  0  0
 28 33  1  0  0  0
 28 26  1  0  0  0
 29 30  1  0  0  0
 29 34  1  0  0  0
 30 31  1  0  0  0
 30 35  1  0  0  0
 31 32  1  0  0  0
 31 36  1  0  0  0
 32 40  1  0  0  0
 32 33  1  0  0  0
 40 41  1  0  0  0
 15 16  1  0  0  0
 15 23  1  0  0  0
 15 14  1  0  0  0
 16 17  1  0  0  0
 16 21  1  0  0  0
 17 18  1  0  0  0
 17 22  1  0  0  0
 18 19  1  0  0  0
 18 26  1  0  0  0
 19 20  1  0  0  0
 19 23  1  0  0  0
  1  2  1  0  0  0
  1  8  1  0  0  0
  1 43  1  0  0  0
  2  3  1  0  0  0
  2  6  1  0  0  0
  3  4  1  0  0  0
  3  7  1  0  0  0
  4  5  1  0  0  0
  4 14  1  0  0  0
  5 11  1  0  0  0
  5  8  1  0  0  0
 11 12  1  0  0  0
 44 45  1  0  0  0
 44 49  1  0  0  0
 44 52  1  0  0  0
 45 46  1  0  0  0
 45 50  1  0  0  0
 46 47  1  0  0  0
 46 51  1  0  0  0
 47 48  1  0  0  0
 47 43  1  0  0  0
 48 56  1  0  0  0
 48 52  1  0  0  0
 56 57  1  0  0  0
 34 37  1  0  0  0
 35 38  1  0  0  0
 36 39  1  0  0  0
 41 42  1  0  0  0
 26 27  1  0  0  0
 21 24  1  0  0  0
 22 25  1  0  0  0
  6  9  1  0  0  0
  7 10  1  0  0  0
 12 13  1  0  0  0
 49 53  1  0  0  0
 50 54  1  0  0  0
 51 55  1  0  0  0
 57 58  1  0  0  0
M  END
> <minimizedAffinity>
-10.10378

$$$$
1GAI_GAC_A_498


 58 61  0  0  0  0  0  0  0  0999 V2000
   31.9998   14.0062    1.2516 C   0  0  0  0  0  0  0  0  0  0  0  0
   32.9968   14.1845    2.3808 C   0  0  0  0  0  0  0  0  0  0  0  0
   32.5398   15.3003    3.3215 C   0  0  0  0  0  0  0  0  0  0  0  0
   32.2251   16.5935    2.5425 C   0  0  0  0  0  0  0  0  0  0  0  0
   31.3309   16.3043    1.3387 C   0  0  0  0  0  0  0  0  0  0  0  0
   33.0968   12.9725    3.1142 O   0  0  0  0  0  0  0  0  0  0  0  0
   33.5823   15.5352    4.2545 O   0  0  0  0  0  0  0  0  0  0  0  0
   31.8647   15.2297    0.5421 O   0  0  0  0  0  0  0  0  0  0  0  0
   32.2297   12.7472    3.4862 H   0  0  0  0  0  0  0  0  0  0  0  0
   34.3856   15.8028    3.7811 H   0  0  0  0  0  0  0  0  0  0  0  0
   31.1519   17.5092    0.4317 C   0  0  0  0  0  0  0  0  0  0  0  0
   32.4028   18.0314    0.0188 O   0  0  0  0  0  0  0  0  0  0  0  0
   32.9070   18.3163    0.7970 H   0  0  0  0  0  0  0  0  0  0  0  0
   31.5047   17.5304    3.3735 O   0  0  0  0  0  0  0  0  0  0  0  0
   31.6192   18.9217    3.2422 C   0  0  0  0  0  0  0  0  0  0  0  0
   33.0761   19.2547    3.5958 C   0  0  0  0  0  0  0  0  0  0  0  0
   33.3461   18.9096    5.0743 C   0  0  0  0  0  0  0  0  0  0  0  0
   32.3821   19.7279    5.9502 C   0  0  0  0  0  0  0  0  0  0  0  0
   30.9551   19.3020    5.5529 C   0  0  0  0  0  0  0  0  0  0  0  0
   29.8567   20.0300    6.3046 C   0  0  0  0  0  0  0  0  0  0  0  0
   33.9397   18.4876    2.7633 O   0  0  0  0  0  0  0  0  0  0  0  0
   34.7013   19.1923    5.4105 O   0  0  0  0  0  0  0  0  0  0  0  0
   30.7346   19.5796    4.1494 O   0  0  0  0  0  0  0  0  0  0  0  0
   33.7728   17.5430    2.9075 H   0  0  0  0  0  0  0  0  0  0  0  0
   34.8798   20.1350    5.2680 H   0  0  0  0  0  0  0  0  0  0  0  0
   32.6397   19.4949    7.3906 N   0  0  0  0  0  0  0  0  0  0  0  0
   31.7779   19.1493    7.8127 H   0  0  0  0  0  0  0  0  0  0  0  0
   33.0802   20.6865    8.1581 C   0  0  0  0  0  0  0  0  0  0  0  0
   34.1986   20.2993    9.1290 C   0  0  0  0  0  0  0  0  0  0  0  0
   33.6472   19.4017   10.2351 C   0  0  0  0  0  0  0  0  0  0  0  0
   32.6147   20.1574   11.0668 C   0  0  0  0  0  0  0  0  0  0  0  0
   31.4331   20.6308   10.1971 C   0  0  0  0  0  0  0  0  0  0  0  0
   31.9120   21.3561    8.9085 C   0  0  0  0  0  0  0  0  0  0  0  0
   35.2203   19.6042    8.4323 O   0  0  0  0  0  0  0  0  0  0  0  0
   34.7116   18.9839   11.0791 O   0  0  0  0  0  0  0  0  0  0  0  0
   32.1385   19.3065   12.1082 O   0  0  0  0  0  0  0  0  0  0  0  0
   34.8527   18.7966    8.0405 H   0  0  0  0  0  0  0  0  0  0  0  0
   35.1300   19.7613   11.4807 H   0  0  0  0  0  0  0  0  0  0  0  0
   31.7164   18.5246   11.7193 H   0  0  0  0  0  0  0  0  0  0  0  0
   30.5034   21.5379   11.0082 C   0  0  0  0  0  0  0  0  0  0  0  0
   31.1568   22.7461   11.3982 O   0  0  0  0  0  0  0  0  0  0  0  0
   31.9208   22.5346   11.9572 H   0  0  0  0  0  0  0  0  0  0  0  0
   30.7857   13.5916    1.8116 O   0  0  0  0  0  0  0  0  0  0  0  0
   27.9449   10.6143    1.3340 C   0  0  0  0  0  0  0  0  0  0  0  0
   29.1822   10.2105    2.1385 C   0  0  0  0  0  0  0  0  0  0  0  0
   29.9189   11.4706    2.5785 C   0  0  0  0  0  0  0  0  0  0  0  0
   30.2370   12.3419    1.3609 C   0  0  0  0  0  0  0  0  0  0  0  0
   28.9715   12.6222    0.5530 C   0  0  0  0  0  0  0  0  0  0  0  0
   27.1265   11.4054    2.1216 O   0  0  0  0  0  0  0  0  0  0  0  0
   28.7977    9.4546    3.2833 O   0  0  0  0  0  0  0  0  0  0  0  0
   31.1217   11.1165    3.2501 O   0  0  0  0  0  0  0  0  0  0  0  0
   28.3312   11.3841    0.1882 O   0  0  0  0  0  0  0  0  0  0  0  0
   27.6094   12.2024    2.3911 H   0  0  0  0  0  0  0  0  0  0  0  0
   28.2159    9.9910    3.8444 H   0  0  0  0  0  0  0  0  0  0  0  0
   31.6922   10.6137    2.6480 H   0  0  0  0  0  0  0  0  0  0  0  0
   29.2726   13.3654   -0.7327 C   0  0  0  0  0  0  0  0  0  0  0  0
   29.0546   14.7626   -0.5823 O   0  0  0  0  0  0  0  0  0  0  0  0
   28.1250   14.9223   -0.3556 H   0  0  0  0  0  0  0  0  0  0  0  0
 28 29  1  0  0  0
 28 33  1  0  0  0
 28 26  1  0  0  0
 29 30  1  0  0  0
 29 34  1  0  0  0
 30 31  1  0  0  0
 30 35  1  0  0  0
 31 32  1  0  0  0
 31 36  1  0  0  0
 32 40  1  0  0  0
 32 33  1  0  0  0
 40 41  1  0  0  0
 15 16  1  0  0  0
 15 23  1  0  0  0
 15 14  1  0  0  0
 16 17  1  0  0  0
 16 21  1  0  0  0
 17 18  1  0  0  0
 17 22  1  0  0  0
 18 19  1  0  0  0
 18 26  1  0  0  0
 19 20  1  0  0  0
 19 23  1  0  0  0
  1  2  1  0  0  0
  1  8  1  0  0  0
  1 43  1  0  0  0
  2  3  1  0  0  0
  2  6  1  0  0  0
  3  4  1  0  0  0
  3  7  1  0  0  0
  4  5  1  0  0  0
  4 14  1  0  0  0
  5 11  1  0  0  0
  5  8  1  0  0  0
 11 12  1  0  0  0
 44 45  1  0  0  0
 44 49  1  0  0  0
 44 52  1  0  0  0
 45 46  1  0  0  0
 45 50  1  0  0  0
 46 47  1  0  0  0
 46 51  1  0  0  0
 47 48  1  0  0  0
 47 43  1  0  0  0
 48 56  1  0  0  0
 48 52  1  0  0  0
 56 57  1  0  0  0
 34 37  1  0  0  0
 35 38  1  0  0  0
 36 39  1  0  0  0
 41 42  1  0  0  0
 26 27  1  0  0  0
 21 24  1  0  0  0
 22 25  1  0  0  0
  6  9  1  0  0  0
  7 10  1  0  0  0
 12 13  1  0  0  0
 49 53  1  0  0  0
 50 54  1  0  0  0
 51 55  1  0  0  0
 57 58  1  0  0  0
M  END
> <minimizedAffinity>
-9.93873

$$$$
1GAI_GAC_A_498


 58 61  0  0  0  0  0  0  0  0999 V2000
   30.4836   15.5597   -0.0926 C   0  0  0  0  0  0  0  0  0  0  0  0
   29.3268   16.1494    0.6919 C   0  0  0  0  0  0  0  0  0  0  0  0
   29.8496   17.0151    1.8390 C   0  0  0  0  0  0  0  0  0  0  0  0
   30.8723   16.2447    2.6987 C   0  0  0  0  0  0  0  0  0  0  0  0
   31.9214   15.5630    1.8229 C   0  0  0  0  0  0  0  0  0  0  0  0
   28.5358   16.9530   -0.1714 O   0  0  0  0  0  0  0  0  0  0  0  0
   28.7387   17.4007    2.6325 O   0  0  0  0  0  0  0  0  0  0  0  0
   31.3017   14.7901    0.7774 O   0  0  0  0  0  0  0  0  0  0  0  0
   29.0781   17.6727   -0.5303 H   0  0  0  0  0  0  0  0  0  0  0  0
   28.3005   16.6089    2.9818 H   0  0  0  0  0  0  0  0  0  0  0  0
   32.8340   14.6357    2.6062 C   0  0  0  0  0  0  0  0  0  0  0  0
   32.0980   13.5987    3.2314 O   0  0  0  0  0  0  0  0  0  0  0  0
   31.4602   13.9840    3.8525 H   0  0  0  0  0  0  0  0  0  0  0  0
   31.5889   17.1447    3.5726 O   0  0  0  0  0  0  0  0  0  0  0  0
   31.7371   18.5146    3.3126 C   0  0  0  0  0  0  0  0  0  0  0  0
   33.2048   18.8411    3.6252 C   0  0  0  0  0  0  0  0  0  0  0  0
   33.4785   18.6269    5.1276 C   0  0  0  0  0  0  0  0  0  0  0  0
   32.5428   19.5470    5.9300 C   0  0  0  0  0  0  0  0  0  0  0  0
   31.1023   19.1232    5.5824 C   0  0  0  0  0  0  0  0  0  0  0  0
   30.0288   19.9454    6.2703 C   0  0  0  0  0  0  0  0  0  0  0  0
   34.0419   17.9786    2.8618 O   0  0  0  0  0  0  0  0  0  0  0  0
   34.8432   18.9044    5.4280 O   0  0  0  0  0  0  0  0  0  0  0  0
   30.8770   19.2758    4.1606 O   0  0  0  0  0  0  0  0  0  0  0  0
   33.8526   17.0559    3.0937 H   0  0  0  0  0  0  0  0  0  0  0  0
   35.0441   19.8250    5.1979 H   0  0  0  0  0  0  0  0  0  0  0  0
   32.8066   19.4412    7.3841 N   0  0  0  0  0  0  0  0  0  0  0  0
   31.9710   19.0612    7.8289 H   0  0  0  0  0  0  0  0  0  0  0  0
   33.1471   20.7166    8.0626 C   0  0  0  0  0  0  0  0  0  0  0  0
   34.3332   20.5063    9.0072 C   0  0  0  0  0  0  0  0  0  0  0  0
   33.9176   19.6274   10.1852 C   0  0  0  0  0  0  0  0  0  0  0  0
   32.8418   20.3238   11.0137 C   0  0  0  0  0  0  0  0  0  0  0  0
   31.5874   20.6195   10.1676 C   0  0  0  0  0  0  0  0  0  0  0  0
   31.9425   21.3088    8.8205 C   0  0  0  0  0  0  0  0  0  0  0  0
   35.3967   19.8773    8.3103 O   0  0  0  0  0  0  0  0  0  0  0  0
   35.0487   19.3732   11.0073 O   0  0  0  0  0  0  0  0  0  0  0  0
   32.4937   19.4949   12.1215 O   0  0  0  0  0  0  0  0  0  0  0  0
   35.1018   19.0137    7.9814 H   0  0  0  0  0  0  0  0  0  0  0  0
   35.3976   20.2126   11.3457 H   0  0  0  0  0  0  0  0  0  0  0  0
   32.1420   18.6514   11.7962 H   0  0  0  0  0  0  0  0  0  0  0  0
   30.5973   21.4755   10.9626 C   0  0  0  0  0  0  0  0  0  0  0  0
   31.1706   22.7273   11.3411 O   0  0  0  0  0  0  0  0  0  0  0  0
   31.9430   22.5713   11.9067 H   0  0  0  0  0  0  0  0  0  0  0  0
   31.1921   16.6178   -0.6742 O   0  0  0  0  0  0  0  0  0  0  0  0
   32.9568   14.3550   -3.6621 C   0  0  0  0  0  0  0  0  0  0  0  0
   33.9124   15.2569   -2.8782 C   0  0  0  0  0  0  0  0  0  0  0  0
   33.2306   15.6966   -1.5875 C   0  0  0  0  0  0  0  0  0  0  0  0
   31.8866   16.3567   -1.9052 C   0  0  0  0  0  0  0  0  0  0  0  0
   31.0262   15.4388   -2.7712 C   0  0  0  0  0  0  0  0  0  0  0  0
   32.6282   13.2558   -2.8877 O   0  0  0  0  0  0  0  0  0  0  0  0
   35.1118   14.5518   -2.5716 O   0  0  0  0  0  0  0  0  0  0  0  0
   34.0666   16.6093   -0.8869 O   0  0  0  0  0  0  0  0  0  0  0  0
   31.7458   15.0612   -3.9610 O   0  0  0  0  0  0  0  0  0  0  0  0
   32.1944   13.5527   -2.0725 H   0  0  0  0  0  0  0  0  0  0  0  0
   34.9001   13.7719   -2.0351 H   0  0  0  0  0  0  0  0  0  0  0  0
   34.2264   17.3906   -1.4390 H   0  0  0  0  0  0  0  0  0  0  0  0
   29.7471   16.1165   -3.2188 C   0  0  0  0  0  0  0  0  0  0  0  0
   29.7610   17.5027   -2.9011 O   0  0  0  0  0  0  0  0  0  0  0  0
   29.8375   17.6135   -1.9405 H   0  0  0  0  0  0  0  0  0  0  0  0
 28 29  1  0  0  0
 28 33  1  0  0  0
 28 26  1  0  0  0
 29 30  1  0  0  0
 29 34  1  0  0  0
 30 31  1  0  0  0
 30 35  1  0  0  0
 31 32  1  0  0  0
 31 36  1  0  0  0
 32 40  1  0  0  0
 32 33  1  0  0  0
 40 41  1  0  0  0
 15 16  1  0  0  0
 15 23  1  0  0  0
 15 14  1  0  0  0
 16 17  1  0  0  0
 16 21  1  0  0  0
 17 18  1  0  0  0
 17 22  1  0  0  0
 18 19  1  0  0  0
 18 26  1  0  0  0
 19 20  1  0  0  0
 19 23  1  0  0  0
  1  2  1  0  0  0
  1  8  1  0  0  0
  1 43  1  0  0  0
  2  3  1  0  0  0
  2  6  1  0  0  0
  3  4  1  0  0  0
  3  7  1  0  0  0
  4  5  1  0  0  0
  4 14  1  0  0  0
  5 11  1  0  0  0
  5  8  1  0  0  0
 11 12  1  0  0  0
 44 45  1  0  0  0
 44 49  1  0  0  0
 44 52  1  0  0  0
 45 46  1  0  0  0
 45 50  1  0  0  0
 46 47  1  0  0  0
 46 51  1  0  0  0
 47 48  1  0  0  0
 47 43  1  0  0  0
 48 56  1  0  0  0
 48 52  1  0  0  0
 56 57  1  0  0  0
 34 37  1  0  0  0
 35 38  1  0  0  0
 36 39  1  0  0  0
 41 42  1  0  0  0
 26 27  1  0  0  0
 21 24  1  0  0  0
 22 25  1  0  0  0
  6  9  1  0  0  0
  7 10  1  0  0  0
 12 13  1  0  0  0
 49 53  1  0  0  0
 50 54  1  0  0  0
 51 55  1  0  0  0
 57 58  1  0  0  0
M  END
> <minimizedAffinity>
-9.73370

$$$$
1GAI_GAC_A_498


 58 61  0  0  0  0  0  0  0  0999 V2000
   31.2303   13.0580    1.3936 C   0  0  0  0  0  0  0  0  0  0  0  0
   32.4695   13.4071    2.1960 C   0  0  0  0  0  0  0  0  0  0  0  0
   32.2481   14.7023    2.9785 C   0  0  0  0  0  0  0  0  0  0  0  0
   31.7495   15.8334    2.0563 C   0  0  0  0  0  0  0  0  0  0  0  0
   30.5927   15.3568    1.1806 C   0  0  0  0  0  0  0  0  0  0  0  0
   32.7483   12.3561    3.1096 O   0  0  0  0  0  0  0  0  0  0  0  0
   33.4838   15.0669    3.5722 O   0  0  0  0  0  0  0  0  0  0  0  0
   30.9231   14.1263    0.5089 O   0  0  0  0  0  0  0  0  0  0  0  0
   31.9974   12.2450    3.7135 H   0  0  0  0  0  0  0  0  0  0  0  0
   34.1481   15.2028    2.8785 H   0  0  0  0  0  0  0  0  0  0  0  0
   30.1953   16.3707    0.1221 C   0  0  0  0  0  0  0  0  0  0  0  0
   29.0434   17.0972    0.5137 O   0  0  0  0  0  0  0  0  0  0  0  0
   28.3006   16.4851    0.6341 H   0  0  0  0  0  0  0  0  0  0  0  0
   31.2468   16.9436    2.8322 O   0  0  0  0  0  0  0  0  0  0  0  0
   31.5478   18.2825    2.5445 C   0  0  0  0  0  0  0  0  0  0  0  0
   32.9890   18.4984    3.0288 C   0  0  0  0  0  0  0  0  0  0  0  0
   33.0552   18.3322    4.5605 C   0  0  0  0  0  0  0  0  0  0  0  0
   32.1138   19.3642    5.2044 C   0  0  0  0  0  0  0  0  0  0  0  0
   30.6950   19.0476    4.6922 C   0  0  0  0  0  0  0  0  0  0  0  0
   29.6228   19.9884    5.2086 C   0  0  0  0  0  0  0  0  0  0  0  0
   33.8334   17.5339    2.4091 O   0  0  0  0  0  0  0  0  0  0  0  0
   34.3917   18.5074    5.0215 O   0  0  0  0  0  0  0  0  0  0  0  0
   30.6612   19.1522    3.2488 O   0  0  0  0  0  0  0  0  0  0  0  0
   33.5352   16.6422    2.6478 H   0  0  0  0  0  0  0  0  0  0  0  0
   34.7010   19.3962    4.7861 H   0  0  0  0  0  0  0  0  0  0  0  0
   32.1858   19.3045    6.6831 N   0  0  0  0  0  0  0  0  0  0  0  0
   31.3223   18.8816    7.0236 H   0  0  0  0  0  0  0  0  0  0  0  0
   32.3554   20.6121    7.3643 C   0  0  0  0  0  0  0  0  0  0  0  0
   33.8396   20.8739    7.6323 C   0  0  0  0  0  0  0  0  0  0  0  0
   34.3626   19.9017    8.6881 C   0  0  0  0  0  0  0  0  0  0  0  0
   33.6510   20.1297   10.0186 C   0  0  0  0  0  0  0  0  0  0  0  0
   32.1297   19.9205    9.8831 C   0  0  0  0  0  0  0  0  0  0  0  0
   31.5409   20.6944    8.6705 C   0  0  0  0  0  0  0  0  0  0  0  0
   34.5814   20.7032    6.4352 O   0  0  0  0  0  0  0  0  0  0  0  0
   35.7585   20.1019    8.8646 O   0  0  0  0  0  0  0  0  0  0  0  0
   34.1783   19.2299   10.9921 O   0  0  0  0  0  0  0  0  0  0  0  0
   34.4767   19.7929    6.1169 H   0  0  0  0  0  0  0  0  0  0  0  0
   35.9197   21.0107    9.1629 H   0  0  0  0  0  0  0  0  0  0  0  0
   34.0225   18.3163   10.7057 H   0  0  0  0  0  0  0  0  0  0  0  0
   31.4177   20.3288   11.1759 C   0  0  0  0  0  0  0  0  0  0  0  0
   32.1295   21.3563   11.8660 O   0  0  0  0  0  0  0  0  0  0  0  0
   33.0116   21.0327   12.1069 H   0  0  0  0  0  0  0  0  0  0  0  0
   30.1888   12.8128    2.2962 O   0  0  0  0  0  0  0  0  0  0  0  0
   27.8833   10.5273   -0.2775 C   0  0  0  0  0  0  0  0  0  0  0  0
   27.1173   11.5904    0.5125 C   0  0  0  0  0  0  0  0  0  0  0  0
   28.1117   12.5966    1.0808 C   0  0  0  0  0  0  0  0  0  0  0  0
   29.1772   11.8696    1.9050 C   0  0  0  0  0  0  0  0  0  0  0  0
   29.8298   10.7594    1.0838 C   0  0  0  0  0  0  0  0  0  0  0  0
   28.5920   11.1388   -1.2972 O   0  0  0  0  0  0  0  0  0  0  0  0
   26.1899   12.2594   -0.3372 O   0  0  0  0  0  0  0  0  0  0  0  0
   27.4293   13.5424    1.8948 O   0  0  0  0  0  0  0  0  0  0  0  0
   28.8240    9.8618    0.5750 O   0  0  0  0  0  0  0  0  0  0  0  0
   29.2203   11.7735   -0.9188 H   0  0  0  0  0  0  0  0  0  0  0  0
   26.6683   12.6881   -1.0640 H   0  0  0  0  0  0  0  0  0  0  0  0
   26.9941   13.0822    2.6295 H   0  0  0  0  0  0  0  0  0  0  0  0
   30.7902    9.9309    1.9126 C   0  0  0  0  0  0  0  0  0  0  0  0
   30.5899   10.1492    3.3035 O   0  0  0  0  0  0  0  0  0  0  0  0
   30.7468   11.0839    3.5100 H   0  0  0  0  0  0  0  0  0  0  0  0
 28 29  1  0  0  0
 28 33  1  0  0  0
 28 26  1  0  0  0
 29 30  1  0  0  0
 29 34  1  0  0  0
 30 31  1  0  0  0
 30 35  1  0  0  0
 31 32  1  0  0  0
 31 36  1  0  0  0
 32 40  1  0  0  0
 32 33  1  0  0  0
 40 41  1  0  0  0
 15 16  1  0  0  0
 15 23  1  0  0  0
 15 14  1  0  0  0
 16 17  1  0  0  0
 16 21  1  0  0  0
 17 18  1  0  0  0
 17 22  1  0  0  0
 18 19  1  0  0  0
 18 26  1  0  0  0
 19 20  1  0  0  0
 19 23  1  0  0  0
  1  2  1  0  0  0
  1  8  1  0  0  0
  1 43  1  0  0  0
  2  3  1  0  0  0
  2  6  1  0  0  0
  3  4  1  0  0  0
  3  7  1  0  0  0
  4  5  1  0  0  0
  4 14  1  0  0  0
  5 11  1  0  0  0
  5  8  1  0  0  0
 11 12  1  0  0  0
 44 45  1  0  0  0
 44 49  1  0  0  0
 44 52  1  0  0  0
 45 46  1  0  0  0
 45 50  1  0  0  0
 46 47  1  0  0  0
 46 51  1  0  0  0
 47 48  1  0  0  0
 47 43  1  0  0  0
 48 56  1  0  0  0
 48 52  1  0  0  0
 56 57  1  0  0  0
 34 37  1  0  0  0
 35 38  1  0  0  0
 36 39  1  0  0  0
 41 42  1  0  0  0
 26 27  1  0  0  0
 21 24  1  0  0  0
 22 25  1  0  0  0
  6  9  1  0  0  0
  7 10  1  0  0  0
 12 13  1  0  0  0
 49 53  1  0  0  0
 50 54  1  0  0  0
 51 55  1  0  0  0
 57 58  1  0  0  0
M  END
> <minimizedAffinity>
-8.73373

$$$$
