4ARB_C57_A_1543


 26 27  0  0  0  0  0  0  0  0999 V2000
   29.2134   21.1984   11.8825 C   0  0  0  0  0  0  0  0  0  0  0  0
   28.3148   21.8785   12.7529 C   0  0  0  0  0  0  0  0  0  0  0  0
   27.4271   21.1448   13.6087 C   0  0  0  0  0  0  0  0  0  0  0  0
   27.4059   19.7630   13.5931 C   0  0  0  0  0  0  0  0  0  0  0  0
   28.3307   19.0588   12.6993 C   0  0  0  0  0  0  0  0  0  0  0  0
   29.1994   19.7935   11.8587 C   0  0  0  0  0  0  0  0  0  0  0  0
   30.7325   22.9118   11.3773 O   0  0  0  0  0  0  0  0  0  0  0  0
   30.1513   21.9441   10.9568 C   0  0  0  0  0  0  0  0  0  0  0  0
   30.3960   21.5008    9.6044 N   0  0  0  0  0  0  0  0  0  0  0  0
   29.9185   20.7051    9.2757 H   0  0  0  0  0  0  0  0  0  0  0  0
   31.3244   22.1846    8.7002 C   0  0  0  0  0  0  0  0  0  0  0  0
   33.9807   23.6928    8.1310 C   0  0  0  0  0  0  0  0  0  0  0  0
   33.6909   22.6863    9.1797 C   0  0  0  0  0  0  0  0  0  0  0  0
   32.7683   21.7316    8.5128 C   0  0  0  0  0  0  0  0  0  0  0  0
   33.2432   21.6777    7.1387 N   0  0  0  0  0  0  0  0  0  0  0  0
   33.8594   22.9514    6.8458 C   0  0  0  0  0  0  0  0  0  0  0  0
   33.8188   20.5404    6.4431 C   0  0  0  0  0  0  0  0  0  0  0  0
   34.9227   20.8309    5.4179 C   0  0  0  0  0  0  0  0  0  0  0  0
   26.4262   19.1353   14.5592 N   0  0  0  0  0  0  0  0  0  0  0  0
   24.9954   19.1703   14.2424 C   0  0  0  0  0  0  0  0  0  0  0  0
   26.8528   18.5129   15.8357 C   0  0  0  0  0  0  0  0  0  0  0  0
   28.4228   17.6302   12.5705 N   0  0  0  0  0  0  0  0  0  0  0  0
   28.2588   17.0531   11.4093 O   0  0  0  0  0  0  0  0  0  0  0  0
   28.6452   16.9304   13.5705 O   0  0  0  0  0  0  0  0  0  0  0  0
   28.2809   23.2540   12.8102 O   0  0  0  0  0  0  0  0  0  0  0  0
   28.6195   23.8844   13.9999 C   0  0  0  0  0  0  0  0  0  0  0  0
  7  8  2  0  0  0
  8  1  1  0  0  0
  8  9  1  0  0  0
  1  2  1  0  0  0
  1  6  2  0  0  0
  5  6  1  0  0  0
  2 25  1  0  0  0
  2  3  2  0  0  0
 25 26  1  0  0  0
  3  4  1  0  0  0
  4 19  1  0  0  0
  4  5  2  0  0  0
 19 20  1  0  0  0
 19 21  1  0  0  0
  5 22  1  0  0  0
 22 23  1  0  0  0
 22 24  2  0  0  0
  9 11  1  0  0  0
 11 14  1  0  0  0
 12 13  1  0  0  0
 12 16  1  0  0  0
 13 14  1  0  0  0
 14 15  1  0  0  0
 15 17  1  0  0  0
 15 16  1  0  0  0
 17 18  1  0  0  0
  9 10  1  0  0  0
M  CHG 1  22   1
M  CHG 1  23  -1
M  END
> <minimizedAffinity>
-8.90646

$$$$
4ARB_C57_A_1543


 26 27  0  0  0  0  0  0  0  0999 V2000
   33.5478   22.9264    8.7889 C   0  0  0  0  0  0  0  0  0  0  0  0
   33.7400   22.5725    7.4231 C   0  0  0  0  0  0  0  0  0  0  0  0
   34.7454   23.2224    6.6321 C   0  0  0  0  0  0  0  0  0  0  0  0
   35.5351   24.2219    7.1684 C   0  0  0  0  0  0  0  0  0  0  0  0
   35.3412   24.5884    8.5749 C   0  0  0  0  0  0  0  0  0  0  0  0
   34.3451   23.9419    9.3436 C   0  0  0  0  0  0  0  0  0  0  0  0
   32.5941   21.0993    9.9072 O   0  0  0  0  0  0  0  0  0  0  0  0
   32.4855   22.2700    9.6451 C   0  0  0  0  0  0  0  0  0  0  0  0
   31.3755   23.0187   10.1862 N   0  0  0  0  0  0  0  0  0  0  0  0
   31.3023   23.9761    9.9686 H   0  0  0  0  0  0  0  0  0  0  0  0
   30.3535   22.4148   11.0451 C   0  0  0  0  0  0  0  0  0  0  0  0
   27.5009   21.3799   11.7133 C   0  0  0  0  0  0  0  0  0  0  0  0
   28.1434   21.5403   10.3873 C   0  0  0  0  0  0  0  0  0  0  0  0
   29.5633   21.1777   10.6325 C   0  0  0  0  0  0  0  0  0  0  0  0
   29.4935   20.1110   11.6193 N   0  0  0  0  0  0  0  0  0  0  0  0
   28.2936   20.3210   12.3965 C   0  0  0  0  0  0  0  0  0  0  0  0
   29.8850   18.7225   11.4537 C   0  0  0  0  0  0  0  0  0  0  0  0
   28.8516   17.6529   11.8307 C   0  0  0  0  0  0  0  0  0  0  0  0
   36.5560   24.8006    6.2145 N   0  0  0  0  0  0  0  0  0  0  0  0
   37.8353   24.1072    6.0372 C   0  0  0  0  0  0  0  0  0  0  0  0
   36.3281   26.0645    5.4731 C   0  0  0  0  0  0  0  0  0  0  0  0
   36.0812   25.6063    9.2693 N   0  0  0  0  0  0  0  0  0  0  0  0
   37.3789   25.5172    9.3980 O   0  0  0  0  0  0  0  0  0  0  0  0
   35.4866   26.5748    9.7669 O   0  0  0  0  0  0  0  0  0  0  0  0
   32.9808   21.5904    6.8270 O   0  0  0  0  0  0  0  0  0  0  0  0
   33.5649   20.3591    6.5621 C   0  0  0  0  0  0  0  0  0  0  0  0
  7  8  2  0  0  0
  8  1  1  0  0  0
  8  9  1  0  0  0
  1  2  1  0  0  0
  1  6  2  0  0  0
  5  6  1  0  0  0
  2 25  1  0  0  0
  2  3  2  0  0  0
 25 26  1  0  0  0
  3  4  1  0  0  0
  4 19  1  0  0  0
  4  5  2  0  0  0
 19 20  1  0  0  0
 19 21  1  0  0  0
  5 22  1  0  0  0
 22 23  1  0  0  0
 22 24  2  0  0  0
  9 11  1  0  0  0
 11 14  1  0  0  0
 12 13  1  0  0  0
 12 16  1  0  0  0
 13 14  1  0  0  0
 14 15  1  0  0  0
 15 17  1  0  0  0
 15 16  1  0  0  0
 17 18  1  0  0  0
  9 10  1  0  0  0
M  CHG 1  22   1
M  CHG 1  23  -1
M  END
> <minimizedAffinity>
-8.73209

$$$$
4ARB_C57_A_1543


 26 27  0  0  0  0  0  0  0  0999 V2000
   33.0647   22.5588    8.5863 C   0  0  0  0  0  0  0  0  0  0  0  0
   33.7015   23.5037    9.4405 C   0  0  0  0  0  0  0  0  0  0  0  0
   34.8848   24.1948    9.0155 C   0  0  0  0  0  0  0  0  0  0  0  0
   35.4481   23.9446    7.7784 C   0  0  0  0  0  0  0  0  0  0  0  0
   34.7947   22.9734    6.8953 C   0  0  0  0  0  0  0  0  0  0  0  0
   33.6297   22.2968    7.3267 C   0  0  0  0  0  0  0  0  0  0  0  0
   30.8572   21.8243    8.2935 O   0  0  0  0  0  0  0  0  0  0  0  0
   31.8239   21.8025    9.0118 C   0  0  0  0  0  0  0  0  0  0  0  0
   31.7868   21.0265   10.2291 N   0  0  0  0  0  0  0  0  0  0  0  0
   32.5861   21.0130   10.8038 H   0  0  0  0  0  0  0  0  0  0  0  0
   30.6107   20.2583   10.6458 C   0  0  0  0  0  0  0  0  0  0  0  0
   27.7814   21.5408   10.5737 C   0  0  0  0  0  0  0  0  0  0  0  0
   28.2571   20.3855   11.3711 C   0  0  0  0  0  0  0  0  0  0  0  0
   29.6534   20.7480   11.7268 C   0  0  0  0  0  0  0  0  0  0  0  0
   29.6073   22.1879   11.9289 N   0  0  0  0  0  0  0  0  0  0  0  0
   28.5470   22.7062   11.0952 C   0  0  0  0  0  0  0  0  0  0  0  0
   29.8327   22.9181   13.1637 C   0  0  0  0  0  0  0  0  0  0  0  0
   28.6382   23.6749   13.7589 C   0  0  0  0  0  0  0  0  0  0  0  0
   36.6844   24.7595    7.4707 N   0  0  0  0  0  0  0  0  0  0  0  0
   36.8674   26.0516    8.1385 C   0  0  0  0  0  0  0  0  0  0  0  0
   37.7069   24.3184    6.4916 C   0  0  0  0  0  0  0  0  0  0  0  0
   35.2619   22.6073    5.5863 N   0  0  0  0  0  0  0  0  0  0  0  0
   35.8695   21.4668    5.3896 O   0  0  0  0  0  0  0  0  0  0  0  0
   35.1034   23.3836    4.6316 O   0  0  0  0  0  0  0  0  0  0  0  0
   33.1951   23.7922   10.6881 O   0  0  0  0  0  0  0  0  0  0  0  0
   33.8557   24.7198   11.4822 C   0  0  0  0  0  0  0  0  0  0  0  0
  7  8  2  0  0  0
  8  1  1  0  0  0
  8  9  1  0  0  0
  1  2  1  0  0  0
  1  6  2  0  0  0
  5  6  1  0  0  0
  2 25  1  0  0  0
  2  3  2  0  0  0
 25 26  1  0  0  0
  3  4  1  0  0  0
  4 19  1  0  0  0
  4  5  2  0  0  0
 19 20  1  0  0  0
 19 21  1  0  0  0
  5 22  1  0  0  0
 22 23  1  0  0  0
 22 24  2  0  0  0
  9 11  1  0  0  0
 11 14  1  0  0  0
 12 13  1  0  0  0
 12 16  1  0  0  0
 13 14  1  0  0  0
 14 15  1  0  0  0
 15 17  1  0  0  0
 15 16  1  0  0  0
 17 18  1  0  0  0
  9 10  1  0  0  0
M  CHG 1  22   1
M  CHG 1  23  -1
M  END
> <minimizedAffinity>
-8.72857

$$$$
4ARB_C57_A_1543


 26 27  0  0  0  0  0  0  0  0999 V2000
   31.6066   22.1629    9.7815 C   0  0  0  0  0  0  0  0  0  0  0  0
   32.5999   23.1334   10.0967 C   0  0  0  0  0  0  0  0  0  0  0  0
   33.6546   23.4301    9.1702 C   0  0  0  0  0  0  0  0  0  0  0  0
   33.7458   22.7666    7.9612 C   0  0  0  0  0  0  0  0  0  0  0  0
   32.7241   21.7675    7.6323 C   0  0  0  0  0  0  0  0  0  0  0  0
   31.6906   21.4822    8.5551 C   0  0  0  0  0  0  0  0  0  0  0  0
   29.4526   22.4241   10.6706 O   0  0  0  0  0  0  0  0  0  0  0  0
   30.4903   21.8168   10.7441 C   0  0  0  0  0  0  0  0  0  0  0  0
   30.6245   20.7547   11.7134 N   0  0  0  0  0  0  0  0  0  0  0  0
   31.4761   20.2629   11.7585 H   0  0  0  0  0  0  0  0  0  0  0  0
   29.5475   20.3776   12.6325 C   0  0  0  0  0  0  0  0  0  0  0  0
   27.2505   21.9778   13.9811 C   0  0  0  0  0  0  0  0  0  0  0  0
   27.9963   20.8071   14.5010 C   0  0  0  0  0  0  0  0  0  0  0  0
   29.3814   21.0179   14.0064 C   0  0  0  0  0  0  0  0  0  0  0  0
   29.5636   22.4602   14.0606 N   0  0  0  0  0  0  0  0  0  0  0  0
   28.2627   23.0655   13.8889 C   0  0  0  0  0  0  0  0  0  0  0  0
   30.4847   23.2071   14.8987 C   0  0  0  0  0  0  0  0  0  0  0  0
   30.9811   22.5220   16.1785 C   0  0  0  0  0  0  0  0  0  0  0  0
   34.9037   23.1982    7.0895 N   0  0  0  0  0  0  0  0  0  0  0  0
   35.9421   24.0592    7.6634 C   0  0  0  0  0  0  0  0  0  0  0  0
   35.0146   22.8120    5.6621 C   0  0  0  0  0  0  0  0  0  0  0  0
   32.6875   20.9969    6.4195 N   0  0  0  0  0  0  0  0  0  0  0  0
   33.4545   19.9489    6.2716 O   0  0  0  0  0  0  0  0  0  0  0  0
   31.9330   21.3329    5.4938 O   0  0  0  0  0  0  0  0  0  0  0  0
   32.5702   23.8237   11.2878 O   0  0  0  0  0  0  0  0  0  0  0  0
   33.6537   24.6225   11.6275 C   0  0  0  0  0  0  0  0  0  0  0  0
  7  8  2  0  0  0
  8  1  1  0  0  0
  8  9  1  0  0  0
  1  2  1  0  0  0
  1  6  2  0  0  0
  5  6  1  0  0  0
  2 25  1  0  0  0
  2  3  2  0  0  0
 25 26  1  0  0  0
  3  4  1  0  0  0
  4 19  1  0  0  0
  4  5  2  0  0  0
 19 20  1  0  0  0
 19 21  1  0  0  0
  5 22  1  0  0  0
 22 23  1  0  0  0
 22 24  2  0  0  0
  9 11  1  0  0  0
 11 14  1  0  0  0
 12 13  1  0  0  0
 12 16  1  0  0  0
 13 14  1  0  0  0
 14 15  1  0  0  0
 15 17  1  0  0  0
 15 16  1  0  0  0
 17 18  1  0  0  0
  9 10  1  0  0  0
M  CHG 1  22   1
M  CHG 1  23  -1
M  END
> <minimizedAffinity>
-8.72399

$$$$
4ARB_C57_A_1543


 26 27  0  0  0  0  0  0  0  0999 V2000
   31.3082   22.1823    9.9567 C   0  0  0  0  0  0  0  0  0  0  0  0
   32.3426   23.1232   10.2257 C   0  0  0  0  0  0  0  0  0  0  0  0
   33.3904   23.3529    9.2728 C   0  0  0  0  0  0  0  0  0  0  0  0
   33.4346   22.6516    8.0827 C   0  0  0  0  0  0  0  0  0  0  0  0
   32.3706   21.6828    7.8012 C   0  0  0  0  0  0  0  0  0  0  0  0
   31.3443   21.4636    8.7497 C   0  0  0  0  0  0  0  0  0  0  0  0
   30.4800   21.7678   12.1109 O   0  0  0  0  0  0  0  0  0  0  0  0
   30.1976   21.9067   10.9482 C   0  0  0  0  0  0  0  0  0  0  0  0
   28.8130   21.8488   10.5419 N   0  0  0  0  0  0  0  0  0  0  0  0
   28.5961   21.9697    9.5893 H   0  0  0  0  0  0  0  0  0  0  0  0
   27.7171   21.6178   11.4867 C   0  0  0  0  0  0  0  0  0  0  0  0
   26.6234   20.4542   14.1522 C   0  0  0  0  0  0  0  0  0  0  0  0
   26.0826   20.3003   12.7808 C   0  0  0  0  0  0  0  0  0  0  0  0
   27.2952   20.2199   11.9259 C   0  0  0  0  0  0  0  0  0  0  0  0
   28.2574   19.4929   12.7396 N   0  0  0  0  0  0  0  0  0  0  0  0
   27.9403   19.7605   14.1238 C   0  0  0  0  0  0  0  0  0  0  0  0
   28.8280   18.1830   12.4805 C   0  0  0  0  0  0  0  0  0  0  0  0
   30.1106   18.1306   11.6402 C   0  0  0  0  0  0  0  0  0  0  0  0
   34.5917   23.0138    7.1787 N   0  0  0  0  0  0  0  0  0  0  0  0
   35.6518   23.8838    7.6964 C   0  0  0  0  0  0  0  0  0  0  0  0
   34.6810   22.5500    5.7731 C   0  0  0  0  0  0  0  0  0  0  0  0
   32.2831   20.8792    6.6126 N   0  0  0  0  0  0  0  0  0  0  0  0
   31.4481   21.1911    5.6566 O   0  0  0  0  0  0  0  0  0  0  0  0
   32.9939   19.8696    6.4929 O   0  0  0  0  0  0  0  0  0  0  0  0
   32.3604   23.8485   11.3962 O   0  0  0  0  0  0  0  0  0  0  0  0
   33.4887   24.5961   11.7050 C   0  0  0  0  0  0  0  0  0  0  0  0
  7  8  2  0  0  0
  8  1  1  0  0  0
  8  9  1  0  0  0
  1  2  1  0  0  0
  1  6  2  0  0  0
  5  6  1  0  0  0
  2 25  1  0  0  0
  2  3  2  0  0  0
 25 26  1  0  0  0
  3  4  1  0  0  0
  4 19  1  0  0  0
  4  5  2  0  0  0
 19 20  1  0  0  0
 19 21  1  0  0  0
  5 22  1  0  0  0
 22 23  1  0  0  0
 22 24  2  0  0  0
  9 11  1  0  0  0
 11 14  1  0  0  0
 12 13  1  0  0  0
 12 16  1  0  0  0
 13 14  1  0  0  0
 14 15  1  0  0  0
 15 17  1  0  0  0
 15 16  1  0  0  0
 17 18  1  0  0  0
  9 10  1  0  0  0
M  CHG 1  22   1
M  CHG 1  23  -1
M  END
> <minimizedAffinity>
-8.66729

$$$$
4ARB_C57_A_1543


 26 27  0  0  0  0  0  0  0  0999 V2000
   32.7572   22.2980    9.0919 C   0  0  0  0  0  0  0  0  0  0  0  0
   33.4126   23.3924    9.7249 C   0  0  0  0  0  0  0  0  0  0  0  0
   34.4054   24.1561    9.0252 C   0  0  0  0  0  0  0  0  0  0  0  0
   34.7663   23.8353    7.7302 C   0  0  0  0  0  0  0  0  0  0  0  0
   34.0929   22.7100    7.0743 C   0  0  0  0  0  0  0  0  0  0  0  0
   33.1172   21.9633    7.7756 C   0  0  0  0  0  0  0  0  0  0  0  0
   31.6389   20.2892    9.5529 O   0  0  0  0  0  0  0  0  0  0  0  0
   31.7166   21.4638    9.8086 C   0  0  0  0  0  0  0  0  0  0  0  0
   30.8496   22.0303   10.8150 N   0  0  0  0  0  0  0  0  0  0  0  0
   30.9279   22.9904   11.0180 H   0  0  0  0  0  0  0  0  0  0  0  0
   29.8584   21.2374   11.5470 C   0  0  0  0  0  0  0  0  0  0  0  0
   28.5174   23.1621   13.5848 C   0  0  0  0  0  0  0  0  0  0  0  0
   28.4103   23.1537   12.1065 C   0  0  0  0  0  0  0  0  0  0  0  0
   28.4237   21.7100   11.7558 C   0  0  0  0  0  0  0  0  0  0  0  0
   27.6975   21.0723   12.8432 N   0  0  0  0  0  0  0  0  0  0  0  0
   27.8816   21.8887   14.0212 C   0  0  0  0  0  0  0  0  0  0  0  0
   26.4273   20.3724   12.7712 C   0  0  0  0  0  0  0  0  0  0  0  0
   25.6002   20.2859   14.0606 C   0  0  0  0  0  0  0  0  0  0  0  0
   35.8162   24.7397    7.1245 N   0  0  0  0  0  0  0  0  0  0  0  0
   35.4355   26.0949    6.7156 C   0  0  0  0  0  0  0  0  0  0  0  0
   37.2131   24.2981    6.8955 C   0  0  0  0  0  0  0  0  0  0  0  0
   34.3617   22.2565    5.7371 N   0  0  0  0  0  0  0  0  0  0  0  0
   35.4777   21.6376    5.4543 O   0  0  0  0  0  0  0  0  0  0  0  0
   33.5368   22.4645    4.8341 O   0  0  0  0  0  0  0  0  0  0  0  0
   33.1043   23.7584   11.0161 O   0  0  0  0  0  0  0  0  0  0  0  0
   33.7893   24.8183   11.5947 C   0  0  0  0  0  0  0  0  0  0  0  0
  7  8  2  0  0  0
  8  1  1  0  0  0
  8  9  1  0  0  0
  1  2  1  0  0  0
  1  6  2  0  0  0
  5  6  1  0  0  0
  2 25  1  0  0  0
  2  3  2  0  0  0
 25 26  1  0  0  0
  3  4  1  0  0  0
  4 19  1  0  0  0
  4  5  2  0  0  0
 19 20  1  0  0  0
 19 21  1  0  0  0
  5 22  1  0  0  0
 22 23  1  0  0  0
 22 24  2  0  0  0
  9 11  1  0  0  0
 11 14  1  0  0  0
 12 13  1  0  0  0
 12 16  1  0  0  0
 13 14  1  0  0  0
 14 15  1  0  0  0
 15 17  1  0  0  0
 15 16  1  0  0  0
 17 18  1  0  0  0
  9 10  1  0  0  0
M  CHG 1  22   1
M  CHG 1  23  -1
M  END
> <minimizedAffinity>
-8.51347

$$$$
4ARB_C57_A_1543


 26 27  0  0  0  0  0  0  0  0999 V2000
   33.0622   22.7138    8.8909 C   0  0  0  0  0  0  0  0  0  0  0  0
   33.2673   22.2339    7.5660 C   0  0  0  0  0  0  0  0  0  0  0  0
   34.3293   22.7549    6.7539 C   0  0  0  0  0  0  0  0  0  0  0  0
   35.1635   23.7498    7.2279 C   0  0  0  0  0  0  0  0  0  0  0  0
   34.9565   24.2458    8.5922 C   0  0  0  0  0  0  0  0  0  0  0  0
   33.9046   23.7256    9.3821 C   0  0  0  0  0  0  0  0  0  0  0  0
   31.4654   22.9294   10.5944 O   0  0  0  0  0  0  0  0  0  0  0  0
   31.9415   22.1950    9.7668 C   0  0  0  0  0  0  0  0  0  0  0  0
   31.4052   20.8638    9.6060 N   0  0  0  0  0  0  0  0  0  0  0  0
   31.8001   20.2763    8.9218 H   0  0  0  0  0  0  0  0  0  0  0  0
   30.2985   20.3500   10.4173 C   0  0  0  0  0  0  0  0  0  0  0  0
   28.8507   18.1049   12.0042 C   0  0  0  0  0  0  0  0  0  0  0  0
   30.2998   18.2680   11.7391 C   0  0  0  0  0  0  0  0  0  0  0  0
   30.5102   19.7377   11.7976 C   0  0  0  0  0  0  0  0  0  0  0  0
   29.5979   20.1872   12.8379 N   0  0  0  0  0  0  0  0  0  0  0  0
   28.4869   19.2637   12.8650 C   0  0  0  0  0  0  0  0  0  0  0  0
   29.9369   20.7808   14.1191 C   0  0  0  0  0  0  0  0  0  0  0  0
   29.0222   20.4546   15.3070 C   0  0  0  0  0  0  0  0  0  0  0  0
   36.2407   24.1852    6.2600 N   0  0  0  0  0  0  0  0  0  0  0  0
   37.0826   23.1648    5.6285 C   0  0  0  0  0  0  0  0  0  0  0  0
   36.5034   25.6109    5.9478 C   0  0  0  0  0  0  0  0  0  0  0  0
   35.7382   25.2753    9.2207 N   0  0  0  0  0  0  0  0  0  0  0  0
   35.1808   26.3908    9.6124 O   0  0  0  0  0  0  0  0  0  0  0  0
   36.9578   25.1161    9.3828 O   0  0  0  0  0  0  0  0  0  0  0  0
   32.4661   21.2495    7.0319 O   0  0  0  0  0  0  0  0  0  0  0  0
   31.5531   21.5906    6.0432 C   0  0  0  0  0  0  0  0  0  0  0  0
  7  8  2  0  0  0
  8  1  1  0  0  0
  8  9  1  0  0  0
  1  2  1  0  0  0
  1  6  2  0  0  0
  5  6  1  0  0  0
  2 25  1  0  0  0
  2  3  2  0  0  0
 25 26  1  0  0  0
  3  4  1  0  0  0
  4 19  1  0  0  0
  4  5  2  0  0  0
 19 20  1  0  0  0
 19 21  1  0  0  0
  5 22  1  0  0  0
 22 23  1  0  0  0
 22 24  2  0  0  0
  9 11  1  0  0  0
 11 14  1  0  0  0
 12 13  1  0  0  0
 12 16  1  0  0  0
 13 14  1  0  0  0
 14 15  1  0  0  0
 15 17  1  0  0  0
 15 16  1  0  0  0
 17 18  1  0  0  0
  9 10  1  0  0  0
M  CHG 1  22   1
M  CHG 1  23  -1
M  END
> <minimizedAffinity>
-8.35623

$$$$
4ARB_C57_A_1543


 26 27  0  0  0  0  0  0  0  0999 V2000
   32.7963   22.3232    8.9318 C   0  0  0  0  0  0  0  0  0  0  0  0
   33.3919   23.3837    9.6724 C   0  0  0  0  0  0  0  0  0  0  0  0
   34.4146   24.2022    9.0871 C   0  0  0  0  0  0  0  0  0  0  0  0
   34.8626   23.9679    7.8007 C   0  0  0  0  0  0  0  0  0  0  0  0
   34.2509   22.8778    7.0342 C   0  0  0  0  0  0  0  0  0  0  0  0
   33.2450   22.0764    7.6233 C   0  0  0  0  0  0  0  0  0  0  0  0
   31.5956   20.3157    9.0949 O   0  0  0  0  0  0  0  0  0  0  0  0
   31.7260   21.4326    9.5266 C   0  0  0  0  0  0  0  0  0  0  0  0
   30.8920   21.8731   10.6202 N   0  0  0  0  0  0  0  0  0  0  0  0
   31.0133   22.7865   10.9670 H   0  0  0  0  0  0  0  0  0  0  0  0
   29.8730   21.0190   11.2358 C   0  0  0  0  0  0  0  0  0  0  0  0
   29.2370   18.0585   11.9331 C   0  0  0  0  0  0  0  0  0  0  0  0
   30.5341   18.7719   12.0077 C   0  0  0  0  0  0  0  0  0  0  0  0
   30.1632   20.1415   12.4486 C   0  0  0  0  0  0  0  0  0  0  0  0
   29.0502   19.9328   13.3619 N   0  0  0  0  0  0  0  0  0  0  0  0
   28.3766   18.7224   12.9505 C   0  0  0  0  0  0  0  0  0  0  0  0
   29.0091   20.2066   14.7874 C   0  0  0  0  0  0  0  0  0  0  0  0
   27.7944   19.6859   15.5666 C   0  0  0  0  0  0  0  0  0  0  0  0
   35.9339   24.9216    7.3214 N   0  0  0  0  0  0  0  0  0  0  0  0
   35.5429   26.2616    6.8736 C   0  0  0  0  0  0  0  0  0  0  0  0
   37.3661   24.5434    7.2539 C   0  0  0  0  0  0  0  0  0  0  0  0
   34.6119   22.5127    5.6917 N   0  0  0  0  0  0  0  0  0  0  0  0
   35.8317   22.1392    5.4070 O   0  0  0  0  0  0  0  0  0  0  0  0
   33.7656   22.5645    4.7861 O   0  0  0  0  0  0  0  0  0  0  0  0
   32.9959   23.6638   10.9612 O   0  0  0  0  0  0  0  0  0  0  0  0
   33.6307   24.6883   11.6504 C   0  0  0  0  0  0  0  0  0  0  0  0
  7  8  2  0  0  0
  8  1  1  0  0  0
  8  9  1  0  0  0
  1  2  1  0  0  0
  1  6  2  0  0  0
  5  6  1  0  0  0
  2 25  1  0  0  0
  2  3  2  0  0  0
 25 26  1  0  0  0
  3  4  1  0  0  0
  4 19  1  0  0  0
  4  5  2  0  0  0
 19 20  1  0  0  0
 19 21  1  0  0  0
  5 22  1  0  0  0
 22 23  1  0  0  0
 22 24  2  0  0  0
  9 11  1  0  0  0
 11 14  1  0  0  0
 12 13  1  0  0  0
 12 16  1  0  0  0
 13 14  1  0  0  0
 14 15  1  0  0  0
 15 17  1  0  0  0
 15 16  1  0  0  0
 17 18  1  0  0  0
  9 10  1  0  0  0
M  CHG 1  22   1
M  CHG 1  23  -1
M  END
> <minimizedAffinity>
-8.34057

$$$$
4ARB_C57_A_1543


 26 27  0  0  0  0  0  0  0  0999 V2000
   32.8246   22.4060    9.1131 C   0  0  0  0  0  0  0  0  0  0  0  0
   32.9677   22.1242    7.7246 C   0  0  0  0  0  0  0  0  0  0  0  0
   33.9354   22.8252    6.9304 C   0  0  0  0  0  0  0  0  0  0  0  0
   34.7352   23.8055    7.4868 C   0  0  0  0  0  0  0  0  0  0  0  0
   34.5920   24.0978    8.9165 C   0  0  0  0  0  0  0  0  0  0  0  0
   33.6326   23.4013    9.6883 C   0  0  0  0  0  0  0  0  0  0  0  0
   31.9284   20.5117   10.1651 O   0  0  0  0  0  0  0  0  0  0  0  0
   31.8026   21.6943    9.9742 C   0  0  0  0  0  0  0  0  0  0  0  0
   30.7122   22.4030   10.6023 N   0  0  0  0  0  0  0  0  0  0  0  0
   30.6249   23.3705   10.4422 H   0  0  0  0  0  0  0  0  0  0  0  0
   29.7303   21.7440   11.4674 C   0  0  0  0  0  0  0  0  0  0  0  0
   30.2406   22.8028   14.3438 C   0  0  0  0  0  0  0  0  0  0  0  0
   29.7024   23.5288   13.1690 C   0  0  0  0  0  0  0  0  0  0  0  0
   28.8752   22.5121   12.4693 C   0  0  0  0  0  0  0  0  0  0  0  0
   28.2951   21.7229   13.5450 N   0  0  0  0  0  0  0  0  0  0  0  0
   29.2142   21.7717   14.6590 C   0  0  0  0  0  0  0  0  0  0  0  0
   26.8933   21.6120   13.9074 C   0  0  0  0  0  0  0  0  0  0  0  0
   26.4096   20.2531   14.4304 C   0  0  0  0  0  0  0  0  0  0  0  0
   35.7128   24.4439    6.5257 N   0  0  0  0  0  0  0  0  0  0  0  0
   36.6713   23.5909    5.8167 C   0  0  0  0  0  0  0  0  0  0  0  0
   35.7640   25.9079    6.2954 C   0  0  0  0  0  0  0  0  0  0  0  0
   35.3480   25.0878    9.6335 N   0  0  0  0  0  0  0  0  0  0  0  0
   34.7450   26.0687   10.2523 O   0  0  0  0  0  0  0  0  0  0  0  0
   36.5868   25.0251    9.6571 O   0  0  0  0  0  0  0  0  0  0  0  0
   32.1959   21.1646    7.1082 O   0  0  0  0  0  0  0  0  0  0  0  0
   31.4324   21.5241    6.0058 C   0  0  0  0  0  0  0  0  0  0  0  0
  7  8  2  0  0  0
  8  1  1  0  0  0
  8  9  1  0  0  0
  1  2  1  0  0  0
  1  6  2  0  0  0
  5  6  1  0  0  0
  2 25  1  0  0  0
  2  3  2  0  0  0
 25 26  1  0  0  0
  3  4  1  0  0  0
  4 19  1  0  0  0
  4  5  2  0  0  0
 19 20  1  0  0  0
 19 21  1  0  0  0
  5 22  1  0  0  0
 22 23  1  0  0  0
 22 24  2  0  0  0
  9 11  1  0  0  0
 11 14  1  0  0  0
 12 13  1  0  0  0
 12 16  1  0  0  0
 13 14  1  0  0  0
 14 15  1  0  0  0
 15 17  1  0  0  0
 15 16  1  0  0  0
 17 18  1  0  0  0
  9 10  1  0  0  0
M  CHG 1  22   1
M  CHG 1  23  -1
M  END
> <minimizedAffinity>
-8.17615

$$$$
4ARB_C57_A_1543


 26 27  0  0  0  0  0  0  0  0999 V2000
   30.3343   21.1394   11.1200 C   0  0  0  0  0  0  0  0  0  0  0  0
   29.9858   19.8633   11.6472 C   0  0  0  0  0  0  0  0  0  0  0  0
   29.3456   19.7487   12.9261 C   0  0  0  0  0  0  0  0  0  0  0  0
   29.0726   20.8698   13.6869 C   0  0  0  0  0  0  0  0  0  0  0  0
   29.4286   22.1858   13.1472 C   0  0  0  0  0  0  0  0  0  0  0  0
   30.0615   22.2855   11.8859 C   0  0  0  0  0  0  0  0  0  0  0  0
   30.4147   21.7895    8.8685 O   0  0  0  0  0  0  0  0  0  0  0  0
   31.0241   21.2923    9.7809 C   0  0  0  0  0  0  0  0  0  0  0  0
   32.3993   20.8975    9.5848 N   0  0  0  0  0  0  0  0  0  0  0  0
   32.8871   20.4977   10.3407 H   0  0  0  0  0  0  0  0  0  0  0  0
   33.0999   21.0664    8.3090 C   0  0  0  0  0  0  0  0  0  0  0  0
   34.0439   21.9003    5.4685 C   0  0  0  0  0  0  0  0  0  0  0  0
   32.7568   22.1935    6.1425 C   0  0  0  0  0  0  0  0  0  0  0  0
   33.1367   22.3965    7.5645 C   0  0  0  0  0  0  0  0  0  0  0  0
   34.4346   23.0502    7.4969 N   0  0  0  0  0  0  0  0  0  0  0  0
   35.0688   22.6229    6.2708 C   0  0  0  0  0  0  0  0  0  0  0  0
   34.7749   24.3936    7.9306 C   0  0  0  0  0  0  0  0  0  0  0  0
   34.8686   24.6399    9.4421 C   0  0  0  0  0  0  0  0  0  0  0  0
   28.3850   20.5872   15.0040 N   0  0  0  0  0  0  0  0  0  0  0  0
   29.1644   20.6657   16.2430 C   0  0  0  0  0  0  0  0  0  0  0  0
   26.9564   20.1995   15.0907 C   0  0  0  0  0  0  0  0  0  0  0  0
   29.2110   23.4372   13.8199 N   0  0  0  0  0  0  0  0  0  0  0  0
   28.0364   24.0102   13.7994 O   0  0  0  0  0  0  0  0  0  0  0  0
   30.1471   23.9920   14.4157 O   0  0  0  0  0  0  0  0  0  0  0  0
   30.2378   18.7074   10.9425 O   0  0  0  0  0  0  0  0  0  0  0  0
   29.6523   17.5221   11.3664 C   0  0  0  0  0  0  0  0  0  0  0  0
  7  8  2  0  0  0
  8  1  1  0  0  0
  8  9  1  0  0  0
  1  2  1  0  0  0
  1  6  2  0  0  0
  5  6  1  0  0  0
  2 25  1  0  0  0
  2  3  2  0  0  0
 25 26  1  0  0  0
  3  4  1  0  0  0
  4 19  1  0  0  0
  4  5  2  0  0  0
 19 20  1  0  0  0
 19 21  1  0  0  0
  5 22  1  0  0  0
 22 23  1  0  0  0
 22 24  2  0  0  0
  9 11  1  0  0  0
 11 14  1  0  0  0
 12 13  1  0  0  0
 12 16  1  0  0  0
 13 14  1  0  0  0
 14 15  1  0  0  0
 15 17  1  0  0  0
 15 16  1  0  0  0
 17 18  1  0  0  0
  9 10  1  0  0  0
M  CHG 1  22   1
M  CHG 1  23  -1
M  END
> <minimizedAffinity>
-8.14268

$$$$
