1HVH_Q82_B_265


 48 52  0  0  0  0  0  0  0  0999 V2000
   -7.5374   14.7309   28.0869 N   0  0  0  0  0  0  0  0  0  0  0  0
  -11.7274   18.3629   29.1617 O   0  0  0  0  0  0  0  0  0  0  0  0
  -10.2640   19.3097   27.0579 O   0  0  0  0  0  0  0  0  0  0  0  0
   -9.1061   15.8769   26.8734 N   0  0  0  0  0  0  0  0  0  0  0  0
   -9.3728   15.4913   29.1586 N   0  0  0  0  0  0  0  0  0  0  0  0
   -8.6530   15.3637   28.0292 C   0  0  0  0  0  0  0  0  0  0  0  0
  -10.6343   16.2311   29.1882 C   0  0  0  0  0  0  0  0  0  0  0  0
  -10.5507   17.7026   28.7635 C   0  0  0  0  0  0  0  0  0  0  0  0
  -10.3893   17.9263   27.2699 C   0  0  0  0  0  0  0  0  0  0  0  0
   -9.1180   17.3190   26.7170 C   0  0  0  0  0  0  0  0  0  0  0  0
  -11.8607   18.2395   30.1146 H   0  0  0  0  0  0  0  0  0  0  0  0
  -11.0542   19.7612   27.3935 H   0  0  0  0  0  0  0  0  0  0  0  0
   -6.9717   14.2608   27.0227 C   0  0  0  0  0  0  0  0  0  0  0  0
   -6.4469   13.8500   26.0620 N   0  0  0  0  0  0  0  0  0  0  0  0
   -9.0016   14.7324   30.3622 C   0  0  0  0  0  0  0  0  0  0  0  0
   -9.5199   15.3125   31.6622 C   0  0  0  0  0  0  0  0  0  0  0  0
   -8.8730   16.3956   32.2484 C   0  0  0  0  0  0  0  0  0  0  0  0
   -9.2279   16.8089   33.5288 C   0  0  0  0  0  0  0  0  0  0  0  0
  -10.2872   16.0783   34.2615 C   0  0  0  0  0  0  0  0  0  0  0  0
  -10.9081   15.0035   33.6369 C   0  0  0  0  0  0  0  0  0  0  0  0
  -10.5104   14.6251   32.3655 C   0  0  0  0  0  0  0  0  0  0  0  0
  -10.6953   16.4950   35.6458 C   0  0  0  0  0  0  0  0  0  0  0  0
  -12.0368   16.1439   35.9661 O   0  0  0  0  0  0  0  0  0  0  0  0
  -12.6432   16.5972   35.3597 H   0  0  0  0  0  0  0  0  0  0  0  0
   -9.5500   15.0602   25.7331 C   0  0  0  0  0  0  0  0  0  0  0  0
   -9.1531   15.5576   24.3413 C   0  0  0  0  0  0  0  0  0  0  0  0
   -7.9634   15.4317   23.8295 C   0  0  0  0  0  0  0  0  0  0  0  0
   -7.5928   15.8759   22.5624 C   0  0  0  0  0  0  0  0  0  0  0  0
   -8.6052   16.5336   21.7162 C   0  0  0  0  0  0  0  0  0  0  0  0
   -9.8674   16.6628   22.2781 C   0  0  0  0  0  0  0  0  0  0  0  0
  -10.1369   16.1778   23.5608 C   0  0  0  0  0  0  0  0  0  0  0  0
   -8.2940   17.0478   20.3414 C   0  0  0  0  0  0  0  0  0  0  0  0
   -8.0956   18.4529   20.2982 O   0  0  0  0  0  0  0  0  0  0  0  0
   -8.9093   18.9030   20.5741 H   0  0  0  0  0  0  0  0  0  0  0  0
  -11.6384   15.3517   28.4259 C   0  0  0  0  0  0  0  0  0  0  0  0
  -12.2535   14.2891   29.3148 C   0  0  0  0  0  0  0  0  0  0  0  0
  -11.9041   12.9419   29.2788 C   0  0  0  0  0  0  0  0  0  0  0  0
  -12.5002   11.9237   30.0130 C   0  0  0  0  0  0  0  0  0  0  0  0
  -13.5458   12.2566   30.8562 C   0  0  0  0  0  0  0  0  0  0  0  0
  -13.9340   13.5913   30.9259 C   0  0  0  0  0  0  0  0  0  0  0  0
  -13.3092   14.5966   30.1782 C   0  0  0  0  0  0  0  0  0  0  0  0
   -7.8606   17.8445   27.4155 C   0  0  0  0  0  0  0  0  0  0  0  0
   -6.7585   18.1545   26.4316 C   0  0  0  0  0  0  0  0  0  0  0  0
   -7.0777   18.7320   25.2088 C   0  0  0  0  0  0  0  0  0  0  0  0
   -6.1752   18.6628   24.1512 C   0  0  0  0  0  0  0  0  0  0  0  0
   -4.9505   18.0264   24.3233 C   0  0  0  0  0  0  0  0  0  0  0  0
   -4.6260   17.4457   25.5439 C   0  0  0  0  0  0  0  0  0  0  0  0
   -5.5305   17.5140   26.5998 C   0  0  0  0  0  0  0  0  0  0  0  0
  1  6  2  0  0  0
  1 13  1  0  0  0
  2  8  1  0  0  0
  3  9  1  0  0  0
  4  6  1  0  0  0
  4 10  1  0  0  0
  4 25  1  0  0  0
  5  6  1  0  0  0
  5 15  1  0  0  0
  5  7  1  0  0  0
 15 16  1  0  0  0
  7  8  1  0  0  0
  7 35  1  0  0  0
  8  9  1  0  0  0
  9 10  1  0  0  0
 10 42  1  0  0  0
 25 26  1  0  0  0
 16 17  2  0  0  0
 16 21  1  0  0  0
 17 18  1  0  0  0
 18 19  2  0  0  0
 19 20  1  0  0  0
 19 22  1  0  0  0
 20 21  2  0  0  0
 35 36  1  0  0  0
 36 37  2  0  0  0
 36 41  1  0  0  0
 37 38  1  0  0  0
 38 39  2  0  0  0
 39 40  1  0  0  0
 40 41  2  0  0  0
 42 43  1  0  0  0
 43 44  2  0  0  0
 43 48  1  0  0  0
 44 45  1  0  0  0
 45 46  2  0  0  0
 46 47  1  0  0  0
 47 48  2  0  0  0
 26 27  2  0  0  0
 26 31  1  0  0  0
 27 28  1  0  0  0
 28 29  2  0  0  0
 29 30  1  0  0  0
 29 32  1  0  0  0
 30 31  2  0  0  0
 13 14  3  0  0  0
 32 33  1  0  0  0
 22 23  1  0  0  0
  2 11  1  0  0  0
  3 12  1  0  0  0
 33 34  1  0  0  0
 23 24  1  0  0  0
M  END
> <minimizedAffinity>
-10.35111

$$$$
1HVH_Q82_B_265


 48 52  0  0  0  0  0  0  0  0999 V2000
   -8.2676   14.4796   28.1713 N   0  0  0  0  0  0  0  0  0  0  0  0
  -10.1342   19.6534   26.8867 O   0  0  0  0  0  0  0  0  0  0  0  0
  -11.6416   18.6614   28.9380 O   0  0  0  0  0  0  0  0  0  0  0  0
   -8.8494   16.3766   29.3157 N   0  0  0  0  0  0  0  0  0  0  0  0
   -8.2781   16.4414   27.0548 N   0  0  0  0  0  0  0  0  0  0  0  0
   -8.4699   15.7473   28.1912 C   0  0  0  0  0  0  0  0  0  0  0  0
   -8.5245   17.8814   26.9812 C   0  0  0  0  0  0  0  0  0  0  0  0
   -9.9511   18.3288   27.3237 C   0  0  0  0  0  0  0  0  0  0  0  0
  -10.2935   18.2886   28.8029 C   0  0  0  0  0  0  0  0  0  0  0  0
  -10.2013   16.8973   29.3916 C   0  0  0  0  0  0  0  0  0  0  0  0
   -9.9231   19.7143   25.9419 H   0  0  0  0  0  0  0  0  0  0  0  0
  -11.7685   19.5524   28.5760 H   0  0  0  0  0  0  0  0  0  0  0  0
   -8.0817   13.8081   29.2614 C   0  0  0  0  0  0  0  0  0  0  0  0
   -7.9051   13.1872   30.2361 N   0  0  0  0  0  0  0  0  0  0  0  0
   -7.6376   15.8015   25.8961 C   0  0  0  0  0  0  0  0  0  0  0  0
   -8.0521   16.3640   24.5520 C   0  0  0  0  0  0  0  0  0  0  0  0
   -9.3211   16.0989   24.0475 C   0  0  0  0  0  0  0  0  0  0  0  0
   -9.6380   16.4515   22.7392 C   0  0  0  0  0  0  0  0  0  0  0  0
   -8.6103   17.0966   21.8905 C   0  0  0  0  0  0  0  0  0  0  0  0
   -7.3566   17.3445   22.4360 C   0  0  0  0  0  0  0  0  0  0  0  0
   -7.0881   16.9639   23.7402 C   0  0  0  0  0  0  0  0  0  0  0  0
   -8.9160   17.4895   20.4732 C   0  0  0  0  0  0  0  0  0  0  0  0
   -7.9969   18.4375   19.9419 O   0  0  0  0  0  0  0  0  0  0  0  0
   -8.0390   19.2552   20.4621 H   0  0  0  0  0  0  0  0  0  0  0  0
   -7.9884   16.5303   30.4986 C   0  0  0  0  0  0  0  0  0  0  0  0
   -8.6743   16.4167   31.8619 C   0  0  0  0  0  0  0  0  0  0  0  0
   -8.7966   17.4003   32.7051 C   0  0  0  0  0  0  0  0  0  0  0  0
   -9.4232   17.3094   33.9458 C   0  0  0  0  0  0  0  0  0  0  0  0
  -10.0050   16.0180   34.3548 C   0  0  0  0  0  0  0  0  0  0  0  0
   -9.8629   14.9791   33.4458 C   0  0  0  0  0  0  0  0  0  0  0  0
   -9.2178   15.1771   32.2220 C   0  0  0  0  0  0  0  0  0  0  0  0
  -10.6931   15.8271   35.6743 C   0  0  0  0  0  0  0  0  0  0  0  0
  -12.0716   16.1655   35.6437 O   0  0  0  0  0  0  0  0  0  0  0  0
  -12.1690   17.1055   35.4249 H   0  0  0  0  0  0  0  0  0  0  0  0
   -7.3885   18.5292   27.7890 C   0  0  0  0  0  0  0  0  0  0  0  0
   -6.0378   18.3320   27.1300 C   0  0  0  0  0  0  0  0  0  0  0  0
   -5.6099   19.0263   26.0017 C   0  0  0  0  0  0  0  0  0  0  0  0
   -4.4187   18.8173   25.3171 C   0  0  0  0  0  0  0  0  0  0  0  0
   -3.5699   17.8258   25.7771 C   0  0  0  0  0  0  0  0  0  0  0  0
   -3.9543   17.1018   26.9019 C   0  0  0  0  0  0  0  0  0  0  0  0
   -5.1587   17.3401   27.5747 C   0  0  0  0  0  0  0  0  0  0  0  0
  -11.0988   15.8895   28.6678 C   0  0  0  0  0  0  0  0  0  0  0  0
  -11.9371   15.0877   29.6338 C   0  0  0  0  0  0  0  0  0  0  0  0
  -12.5165   15.7231   30.7252 C   0  0  0  0  0  0  0  0  0  0  0  0
  -12.9426   14.9749   31.8190 C   0  0  0  0  0  0  0  0  0  0  0  0
  -12.7989   13.5915   31.8130 C   0  0  0  0  0  0  0  0  0  0  0  0
  -12.2189   12.9502   30.7245 C   0  0  0  0  0  0  0  0  0  0  0  0
  -11.7915   13.7001   29.6325 C   0  0  0  0  0  0  0  0  0  0  0  0
  1  6  2  0  0  0
  1 13  1  0  0  0
  2  8  1  0  0  0
  3  9  1  0  0  0
  4  6  1  0  0  0
  4 10  1  0  0  0
  4 25  1  0  0  0
  5  6  1  0  0  0
  5 15  1  0  0  0
  5  7  1  0  0  0
 15 16  1  0  0  0
  7  8  1  0  0  0
  7 35  1  0  0  0
  8  9  1  0  0  0
  9 10  1  0  0  0
 10 42  1  0  0  0
 25 26  1  0  0  0
 16 17  2  0  0  0
 16 21  1  0  0  0
 17 18  1  0  0  0
 18 19  2  0  0  0
 19 20  1  0  0  0
 19 22  1  0  0  0
 20 21  2  0  0  0
 35 36  1  0  0  0
 36 37  2  0  0  0
 36 41  1  0  0  0
 37 38  1  0  0  0
 38 39  2  0  0  0
 39 40  1  0  0  0
 40 41  2  0  0  0
 42 43  1  0  0  0
 43 44  2  0  0  0
 43 48  1  0  0  0
 44 45  1  0  0  0
 45 46  2  0  0  0
 46 47  1  0  0  0
 47 48  2  0  0  0
 26 27  2  0  0  0
 26 31  1  0  0  0
 27 28  1  0  0  0
 28 29  2  0  0  0
 29 30  1  0  0  0
 29 32  1  0  0  0
 30 31  2  0  0  0
 13 14  3  0  0  0
 32 33  1  0  0  0
 22 23  1  0  0  0
  2 11  1  0  0  0
  3 12  1  0  0  0
 33 34  1  0  0  0
 23 24  1  0  0  0
M  END
> <minimizedAffinity>
-9.29003

$$$$
1HVH_Q82_B_265


 48 52  0  0  0  0  0  0  0  0999 V2000
  -10.6639   17.4492   27.8504 N   0  0  0  0  0  0  0  0  0  0  0  0
   -8.3675   13.0379   30.5282 O   0  0  0  0  0  0  0  0  0  0  0  0
   -7.0586   13.4036   28.1581 O   0  0  0  0  0  0  0  0  0  0  0  0
   -8.5527   16.7045   28.3351 N   0  0  0  0  0  0  0  0  0  0  0  0
  -10.4110   15.9783   29.5439 N   0  0  0  0  0  0  0  0  0  0  0  0
   -9.8774   16.7210   28.5572 C   0  0  0  0  0  0  0  0  0  0  0  0
   -9.5913   15.0915   30.3695 C   0  0  0  0  0  0  0  0  0  0  0  0
   -8.8201   14.0040   29.6111 C   0  0  0  0  0  0  0  0  0  0  0  0
   -7.6082   14.5012   28.8422 C   0  0  0  0  0  0  0  0  0  0  0  0
   -7.9635   15.5063   27.7679 C   0  0  0  0  0  0  0  0  0  0  0  0
   -9.1198   12.6984   31.0377 H   0  0  0  0  0  0  0  0  0  0  0  0
   -6.8077   12.7175   28.7962 H   0  0  0  0  0  0  0  0  0  0  0  0
  -10.2172   18.4360   27.1431 C   0  0  0  0  0  0  0  0  0  0  0  0
   -9.8319   19.3340   26.5011 N   0  0  0  0  0  0  0  0  0  0  0  0
  -11.8127   16.1746   29.9424 C   0  0  0  0  0  0  0  0  0  0  0  0
  -12.5614   14.9004   30.2752 C   0  0  0  0  0  0  0  0  0  0  0  0
  -13.1464   14.7432   31.5276 C   0  0  0  0  0  0  0  0  0  0  0  0
  -13.6681   13.5089   31.9025 C   0  0  0  0  0  0  0  0  0  0  0  0
  -13.5821   12.3674   30.9633 C   0  0  0  0  0  0  0  0  0  0  0  0
  -12.9913   12.5698   29.7220 C   0  0  0  0  0  0  0  0  0  0  0  0
  -12.4772   13.8152   29.4015 C   0  0  0  0  0  0  0  0  0  0  0  0
  -14.1330   11.0200   31.3345 C   0  0  0  0  0  0  0  0  0  0  0  0
  -13.1250   10.0753   31.6766 O   0  0  0  0  0  0  0  0  0  0  0  0
  -12.5473    9.9275   30.9115 H   0  0  0  0  0  0  0  0  0  0  0  0
   -7.6653   17.8498   28.5900 C   0  0  0  0  0  0  0  0  0  0  0  0
   -6.4873   18.0282   27.6295 C   0  0  0  0  0  0  0  0  0  0  0  0
   -6.4614   18.8879   26.6529 C   0  0  0  0  0  0  0  0  0  0  0  0
   -5.3930   19.0621   25.7763 C   0  0  0  0  0  0  0  0  0  0  0  0
   -4.1888   18.2295   25.9500 C   0  0  0  0  0  0  0  0  0  0  0  0
   -4.2341   17.3158   26.9936 C   0  0  0  0  0  0  0  0  0  0  0  0
   -5.3571   17.2232   27.8203 C   0  0  0  0  0  0  0  0  0  0  0  0
   -2.9938   18.3451   25.0501 C   0  0  0  0  0  0  0  0  0  0  0  0
   -2.7035   19.6818   24.6699 O   0  0  0  0  0  0  0  0  0  0  0  0
   -3.4510   20.0453   24.1699 H   0  0  0  0  0  0  0  0  0  0  0  0
   -8.7614   16.0240   31.2662 C   0  0  0  0  0  0  0  0  0  0  0  0
   -9.2830   16.0575   32.6890 C   0  0  0  0  0  0  0  0  0  0  0  0
  -10.0934   15.0730   33.2478 C   0  0  0  0  0  0  0  0  0  0  0  0
  -10.6618   15.1054   34.5155 C   0  0  0  0  0  0  0  0  0  0  0  0
  -10.4205   16.2140   35.3080 C   0  0  0  0  0  0  0  0  0  0  0  0
   -9.6172   17.2271   34.7931 C   0  0  0  0  0  0  0  0  0  0  0  0
   -9.0527   17.1628   33.5135 C   0  0  0  0  0  0  0  0  0  0  0  0
   -8.9757   14.9579   26.7580 C   0  0  0  0  0  0  0  0  0  0  0  0
   -8.6459   15.3784   25.3462 C   0  0  0  0  0  0  0  0  0  0  0  0
   -7.3196   15.5857   24.9879 C   0  0  0  0  0  0  0  0  0  0  0  0
   -7.0150   16.3376   23.8566 C   0  0  0  0  0  0  0  0  0  0  0  0
   -8.0385   16.8701   23.0799 C   0  0  0  0  0  0  0  0  0  0  0  0
   -9.3674   16.6671   23.4340 C   0  0  0  0  0  0  0  0  0  0  0  0
   -9.6701   15.9168   24.5666 C   0  0  0  0  0  0  0  0  0  0  0  0
  1  6  2  0  0  0
  1 13  1  0  0  0
  2  8  1  0  0  0
  3  9  1  0  0  0
  4  6  1  0  0  0
  4 10  1  0  0  0
  4 25  1  0  0  0
  5  6  1  0  0  0
  5 15  1  0  0  0
  5  7  1  0  0  0
 15 16  1  0  0  0
  7  8  1  0  0  0
  7 35  1  0  0  0
  8  9  1  0  0  0
  9 10  1  0  0  0
 10 42  1  0  0  0
 25 26  1  0  0  0
 16 17  2  0  0  0
 16 21  1  0  0  0
 17 18  1  0  0  0
 18 19  2  0  0  0
 19 20  1  0  0  0
 19 22  1  0  0  0
 20 21  2  0  0  0
 35 36  1  0  0  0
 36 37  2  0  0  0
 36 41  1  0  0  0
 37 38  1  0  0  0
 38 39  2  0  0  0
 39 40  1  0  0  0
 40 41  2  0  0  0
 42 43  1  0  0  0
 43 44  2  0  0  0
 43 48  1  0  0  0
 44 45  1  0  0  0
 45 46  2  0  0  0
 46 47  1  0  0  0
 47 48  2  0  0  0
 26 27  2  0  0  0
 26 31  1  0  0  0
 27 28  1  0  0  0
 28 29  2  0  0  0
 29 30  1  0  0  0
 29 32  1  0  0  0
 30 31  2  0  0  0
 13 14  3  0  0  0
 32 33  1  0  0  0
 22 23  1  0  0  0
  2 11  1  0  0  0
  3 12  1  0  0  0
 33 34  1  0  0  0
 23 24  1  0  0  0
M  END
> <minimizedAffinity>
-9.01589

$$$$
1HVH_Q82_B_265


 48 52  0  0  0  0  0  0  0  0999 V2000
   -8.1556   14.9888   26.4120 N   0  0  0  0  0  0  0  0  0  0  0  0
   -6.1145   20.2034   25.6738 O   0  0  0  0  0  0  0  0  0  0  0  0
   -8.0193   20.2760   27.6310 O   0  0  0  0  0  0  0  0  0  0  0  0
   -7.4231   16.6996   27.7473 N   0  0  0  0  0  0  0  0  0  0  0  0
   -6.8186   16.5614   25.4984 N   0  0  0  0  0  0  0  0  0  0  0  0
   -7.4821   16.0717   26.5613 C   0  0  0  0  0  0  0  0  0  0  0  0
   -6.0605   17.8103   25.5726 C   0  0  0  0  0  0  0  0  0  0  0  0
   -6.8660   19.0525   25.9735 C   0  0  0  0  0  0  0  0  0  0  0  0
   -7.2364   19.1240   27.4448 C   0  0  0  0  0  0  0  0  0  0  0  0
   -8.1088   17.9700   27.8896 C   0  0  0  0  0  0  0  0  0  0  0  0
   -5.8607   20.1891   24.7377 H   0  0  0  0  0  0  0  0  0  0  0  0
   -7.5127   21.0582   27.3618 H   0  0  0  0  0  0  0  0  0  0  0  0
   -8.5165   14.2724   27.4269 C   0  0  0  0  0  0  0  0  0  0  0  0
   -8.8521   13.6403   28.3515 N   0  0  0  0  0  0  0  0  0  0  0  0
   -6.6854   15.7573   24.2745 C   0  0  0  0  0  0  0  0  0  0  0  0
   -6.4003   16.5561   23.0192 C   0  0  0  0  0  0  0  0  0  0  0  0
   -7.4339   16.8663   22.1414 C   0  0  0  0  0  0  0  0  0  0  0  0
   -7.1490   17.4313   20.9021 C   0  0  0  0  0  0  0  0  0  0  0  0
   -5.7397   17.6849   20.5251 C   0  0  0  0  0  0  0  0  0  0  0  0
   -4.7392   17.3614   21.4335 C   0  0  0  0  0  0  0  0  0  0  0  0
   -5.0749   16.7906   22.6498 C   0  0  0  0  0  0  0  0  0  0  0  0
   -5.3943   18.2919   19.1951 C   0  0  0  0  0  0  0  0  0  0  0  0
   -5.3956   17.3488   18.1293 O   0  0  0  0  0  0  0  0  0  0  0  0
   -4.7232   16.6701   18.2972 H   0  0  0  0  0  0  0  0  0  0  0  0
   -6.7407   16.1529   28.9304 C   0  0  0  0  0  0  0  0  0  0  0  0
   -7.4859   16.2672   30.2622 C   0  0  0  0  0  0  0  0  0  0  0  0
   -7.6666   17.3825   30.9077 C   0  0  0  0  0  0  0  0  0  0  0  0
   -8.3474   17.4987   32.1174 C   0  0  0  0  0  0  0  0  0  0  0  0
   -8.9210   16.2860   32.7288 C   0  0  0  0  0  0  0  0  0  0  0  0
   -8.7164   15.1049   32.0295 C   0  0  0  0  0  0  0  0  0  0  0  0
   -8.0201   15.0977   30.8178 C   0  0  0  0  0  0  0  0  0  0  0  0
   -9.6648   16.3164   34.0315 C   0  0  0  0  0  0  0  0  0  0  0  0
   -9.5719   17.5637   34.7032 O   0  0  0  0  0  0  0  0  0  0  0  0
   -8.6442   17.7455   34.9206 H   0  0  0  0  0  0  0  0  0  0  0  0
   -4.8263   17.4856   26.4291 C   0  0  0  0  0  0  0  0  0  0  0  0
   -3.5556   17.4452   25.6037 C   0  0  0  0  0  0  0  0  0  0  0  0
   -2.8904   18.5757   25.1372 C   0  0  0  0  0  0  0  0  0  0  0  0
   -1.7745   18.5832   24.3090 C   0  0  0  0  0  0  0  0  0  0  0  0
   -1.2679   17.3655   23.8898 C   0  0  0  0  0  0  0  0  0  0  0  0
   -1.8998   16.2053   24.3279 C   0  0  0  0  0  0  0  0  0  0  0  0
   -3.0193   16.2297   25.1682 C   0  0  0  0  0  0  0  0  0  0  0  0
   -9.4028   17.8612   27.0779 C   0  0  0  0  0  0  0  0  0  0  0  0
  -10.5563   17.3736   27.9208 C   0  0  0  0  0  0  0  0  0  0  0  0
  -10.6501   17.7757   29.2475 C   0  0  0  0  0  0  0  0  0  0  0  0
  -11.4401   17.0540   30.1379 C   0  0  0  0  0  0  0  0  0  0  0  0
  -12.1439   15.9388   29.6958 C   0  0  0  0  0  0  0  0  0  0  0  0
  -12.0531   15.5309   28.3699 C   0  0  0  0  0  0  0  0  0  0  0  0
  -11.2610   16.2525   27.4815 C   0  0  0  0  0  0  0  0  0  0  0  0
  1  6  2  0  0  0
  1 13  1  0  0  0
  2  8  1  0  0  0
  3  9  1  0  0  0
  4  6  1  0  0  0
  4 10  1  0  0  0
  4 25  1  0  0  0
  5  6  1  0  0  0
  5 15  1  0  0  0
  5  7  1  0  0  0
 15 16  1  0  0  0
  7  8  1  0  0  0
  7 35  1  0  0  0
  8  9  1  0  0  0
  9 10  1  0  0  0
 10 42  1  0  0  0
 25 26  1  0  0  0
 16 17  2  0  0  0
 16 21  1  0  0  0
 17 18  1  0  0  0
 18 19  2  0  0  0
 19 20  1  0  0  0
 19 22  1  0  0  0
 20 21  2  0  0  0
 35 36  1  0  0  0
 36 37  2  0  0  0
 36 41  1  0  0  0
 37 38  1  0  0  0
 38 39  2  0  0  0
 39 40  1  0  0  0
 40 41  2  0  0  0
 42 43  1  0  0  0
 43 44  2  0  0  0
 43 48  1  0  0  0
 44 45  1  0  0  0
 45 46  2  0  0  0
 46 47  1  0  0  0
 47 48  2  0  0  0
 26 27  2  0  0  0
 26 31  1  0  0  0
 27 28  1  0  0  0
 28 29  2  0  0  0
 29 30  1  0  0  0
 29 32  1  0  0  0
 30 31  2  0  0  0
 13 14  3  0  0  0
 32 33  1  0  0  0
 22 23  1  0  0  0
  2 11  1  0  0  0
  3 12  1  0  0  0
 33 34  1  0  0  0
 23 24  1  0  0  0
M  END
> <minimizedAffinity>
-9.00048

$$$$
1HVH_Q82_B_265


 48 52  0  0  0  0  0  0  0  0999 V2000
   -6.7972   15.3458   25.3222 N   0  0  0  0  0  0  0  0  0  0  0  0
   -8.2398   18.5571   29.7391 O   0  0  0  0  0  0  0  0  0  0  0  0
  -10.1127   18.8740   27.7754 O   0  0  0  0  0  0  0  0  0  0  0  0
   -8.6998   15.7766   26.5227 N   0  0  0  0  0  0  0  0  0  0  0  0
   -6.5801   16.1965   27.4017 N   0  0  0  0  0  0  0  0  0  0  0  0
   -7.3627   15.7693   26.3943 C   0  0  0  0  0  0  0  0  0  0  0  0
   -7.1440   16.7314   28.6410 C   0  0  0  0  0  0  0  0  0  0  0  0
   -8.0560   17.9542   28.4814 C   0  0  0  0  0  0  0  0  0  0  0  0
   -9.4340   17.6519   27.9185 C   0  0  0  0  0  0  0  0  0  0  0  0
   -9.3849   17.0553   26.5284 C   0  0  0  0  0  0  0  0  0  0  0  0
   -7.3756   18.7639   30.1279 H   0  0  0  0  0  0  0  0  0  0  0  0
  -10.1783   19.3105   28.6392 H   0  0  0  0  0  0  0  0  0  0  0  0
   -7.4308   14.6049   24.4717 C   0  0  0  0  0  0  0  0  0  0  0  0
   -7.9929   13.9431   23.6888 N   0  0  0  0  0  0  0  0  0  0  0  0
   -5.1282   15.9680   27.3588 C   0  0  0  0  0  0  0  0  0  0  0  0
   -4.3783   16.8398   26.3725 C   0  0  0  0  0  0  0  0  0  0  0  0
   -4.7425   18.1716   26.2032 C   0  0  0  0  0  0  0  0  0  0  0  0
   -4.1861   18.9197   25.1702 C   0  0  0  0  0  0  0  0  0  0  0  0
   -3.2171   18.2815   24.2502 C   0  0  0  0  0  0  0  0  0  0  0  0
   -2.8805   16.9495   24.4576 C   0  0  0  0  0  0  0  0  0  0  0  0
   -3.4712   16.2456   25.4938 C   0  0  0  0  0  0  0  0  0  0  0  0
   -2.5975   19.0576   23.1231 C   0  0  0  0  0  0  0  0  0  0  0  0
   -3.5542   19.7222   22.3054 O   0  0  0  0  0  0  0  0  0  0  0  0
   -4.1368   19.0664   21.8913 H   0  0  0  0  0  0  0  0  0  0  0  0
   -9.5206   14.5591   26.6119 C   0  0  0  0  0  0  0  0  0  0  0  0
  -10.6575   14.5754   27.6363 C   0  0  0  0  0  0  0  0  0  0  0  0
  -11.6542   15.4116   27.6120 C   0  0  0  0  0  0  0  0  0  0  0  0
  -12.6965   15.4321   28.5358 C   0  0  0  0  0  0  0  0  0  0  0  0
  -12.6983   14.4401   29.6264 C   0  0  0  0  0  0  0  0  0  0  0  0
  -11.6269   13.5582   29.6398 C   0  0  0  0  0  0  0  0  0  0  0  0
  -10.6319   13.6202   28.6604 C   0  0  0  0  0  0  0  0  0  0  0  0
  -13.7769   14.3917   30.6683 C   0  0  0  0  0  0  0  0  0  0  0  0
  -14.8474   15.2881   30.4115 O   0  0  0  0  0  0  0  0  0  0  0  0
  -14.5141   16.1990   30.4139 H   0  0  0  0  0  0  0  0  0  0  0  0
   -7.7422   15.5184   29.3713 C   0  0  0  0  0  0  0  0  0  0  0  0
   -8.1550   15.8555   30.7903 C   0  0  0  0  0  0  0  0  0  0  0  0
   -7.2622   16.0197   31.8458 C   0  0  0  0  0  0  0  0  0  0  0  0
   -7.6010   16.2443   33.1748 C   0  0  0  0  0  0  0  0  0  0  0  0
   -8.9444   16.3037   33.5020 C   0  0  0  0  0  0  0  0  0  0  0  0
   -9.8768   16.1433   32.4812 C   0  0  0  0  0  0  0  0  0  0  0  0
   -9.5043   15.9249   31.1495 C   0  0  0  0  0  0  0  0  0  0  0  0
   -8.6478   17.9502   25.5278 C   0  0  0  0  0  0  0  0  0  0  0  0
   -9.0886   17.6882   24.1079 C   0  0  0  0  0  0  0  0  0  0  0  0
  -10.1921   16.8768   23.8745 C   0  0  0  0  0  0  0  0  0  0  0  0
  -10.3793   16.3027   22.6202 C   0  0  0  0  0  0  0  0  0  0  0  0
   -9.4684   16.5517   21.5991 C   0  0  0  0  0  0  0  0  0  0  0  0
   -8.3618   17.3617   21.8270 C   0  0  0  0  0  0  0  0  0  0  0  0
   -8.1750   17.9332   23.0823 C   0  0  0  0  0  0  0  0  0  0  0  0
  1  6  2  0  0  0
  1 13  1  0  0  0
  2  8  1  0  0  0
  3  9  1  0  0  0
  4  6  1  0  0  0
  4 10  1  0  0  0
  4 25  1  0  0  0
  5  6  1  0  0  0
  5 15  1  0  0  0
  5  7  1  0  0  0
 15 16  1  0  0  0
  7  8  1  0  0  0
  7 35  1  0  0  0
  8  9  1  0  0  0
  9 10  1  0  0  0
 10 42  1  0  0  0
 25 26  1  0  0  0
 16 17  2  0  0  0
 16 21  1  0  0  0
 17 18  1  0  0  0
 18 19  2  0  0  0
 19 20  1  0  0  0
 19 22  1  0  0  0
 20 21  2  0  0  0
 35 36  1  0  0  0
 36 37  2  0  0  0
 36 41  1  0  0  0
 37 38  1  0  0  0
 38 39  2  0  0  0
 39 40  1  0  0  0
 40 41  2  0  0  0
 42 43  1  0  0  0
 43 44  2  0  0  0
 43 48  1  0  0  0
 44 45  1  0  0  0
 45 46  2  0  0  0
 46 47  1  0  0  0
 47 48  2  0  0  0
 26 27  2  0  0  0
 26 31  1  0  0  0
 27 28  1  0  0  0
 28 29  2  0  0  0
 29 30  1  0  0  0
 29 32  1  0  0  0
 30 31  2  0  0  0
 13 14  3  0  0  0
 32 33  1  0  0  0
 22 23  1  0  0  0
  2 11  1  0  0  0
  3 12  1  0  0  0
 33 34  1  0  0  0
 23 24  1  0  0  0
M  END
> <minimizedAffinity>
-8.42874

$$$$
1HVH_Q82_B_265


 48 52  0  0  0  0  0  0  0  0999 V2000
  -10.5766   13.9143   27.4648 N   0  0  0  0  0  0  0  0  0  0  0  0
   -9.1583   19.0483   25.5851 O   0  0  0  0  0  0  0  0  0  0  0  0
  -10.4249   19.3143   27.9912 O   0  0  0  0  0  0  0  0  0  0  0  0
   -9.6003   15.7978   28.3286 N   0  0  0  0  0  0  0  0  0  0  0  0
   -9.6564   15.3955   26.0314 N   0  0  0  0  0  0  0  0  0  0  0  0
   -9.9569   15.0250   27.2893 C   0  0  0  0  0  0  0  0  0  0  0  0
   -8.9876   16.6637   25.7413 C   0  0  0  0  0  0  0  0  0  0  0  0
   -9.7201   17.9243   26.2176 C   0  0  0  0  0  0  0  0  0  0  0  0
   -9.6582   18.1694   27.7153 C   0  0  0  0  0  0  0  0  0  0  0  0
  -10.2939   17.0572   28.5212 C   0  0  0  0  0  0  0  0  0  0  0  0
   -9.1822   18.9239   24.6235 H   0  0  0  0  0  0  0  0  0  0  0  0
  -10.0658   20.0699   27.5003 H   0  0  0  0  0  0  0  0  0  0  0  0
  -10.5873   13.3211   28.6145 C   0  0  0  0  0  0  0  0  0  0  0  0
  -10.5878   12.7698   29.6455 N   0  0  0  0  0  0  0  0  0  0  0  0
   -9.8291   14.4485   24.9199 C   0  0  0  0  0  0  0  0  0  0  0  0
   -9.4338   14.9877   23.5605 C   0  0  0  0  0  0  0  0  0  0  0  0
   -8.1991   14.6563   23.0120 C   0  0  0  0  0  0  0  0  0  0  0  0
   -7.7552   15.2959   21.8587 C   0  0  0  0  0  0  0  0  0  0  0  0
   -8.6018   16.3372   21.2328 C   0  0  0  0  0  0  0  0  0  0  0  0
   -9.8286   16.6350   21.8132 C   0  0  0  0  0  0  0  0  0  0  0  0
  -10.2195   15.9774   22.9677 C   0  0  0  0  0  0  0  0  0  0  0  0
   -8.1544   17.0498   19.9884 C   0  0  0  0  0  0  0  0  0  0  0  0
   -7.9546   18.4457   20.1808 O   0  0  0  0  0  0  0  0  0  0  0  0
   -8.7927   18.8595   20.4404 H   0  0  0  0  0  0  0  0  0  0  0  0
   -8.5758   15.4218   29.3151 C   0  0  0  0  0  0  0  0  0  0  0  0
   -8.8686   15.7797   30.7740 C   0  0  0  0  0  0  0  0  0  0  0  0
   -9.3538   14.9484   31.6496 C   0  0  0  0  0  0  0  0  0  0  0  0
   -9.6191   15.2620   32.9806 C   0  0  0  0  0  0  0  0  0  0  0  0
   -9.3316   16.6262   33.4597 C   0  0  0  0  0  0  0  0  0  0  0  0
   -8.8179   17.5010   32.5127 C   0  0  0  0  0  0  0  0  0  0  0  0
   -8.5843   17.0835   31.1996 C   0  0  0  0  0  0  0  0  0  0  0  0
   -9.5908   17.0537   34.8744 C   0  0  0  0  0  0  0  0  0  0  0  0
  -10.9716   17.1745   35.1813 O   0  0  0  0  0  0  0  0  0  0  0  0
  -11.3694   17.8572   34.6185 H   0  0  0  0  0  0  0  0  0  0  0  0
   -7.5424   16.4818   26.2320 C   0  0  0  0  0  0  0  0  0  0  0  0
   -6.5297   16.9416   25.2021 C   0  0  0  0  0  0  0  0  0  0  0  0
   -6.8164   17.8236   24.1638 C   0  0  0  0  0  0  0  0  0  0  0  0
   -5.9440   18.2043   23.1511 C   0  0  0  0  0  0  0  0  0  0  0  0
   -4.6715   17.6604   23.1508 C   0  0  0  0  0  0  0  0  0  0  0  0
   -4.3370   16.7711   24.1678 C   0  0  0  0  0  0  0  0  0  0  0  0
   -5.2362   16.4117   25.1790 C   0  0  0  0  0  0  0  0  0  0  0  0
  -11.7566   16.8131   28.1390 C   0  0  0  0  0  0  0  0  0  0  0  0
  -12.4584   15.9251   29.1379 C   0  0  0  0  0  0  0  0  0  0  0  0
  -13.6364   15.2851   28.7730 C   0  0  0  0  0  0  0  0  0  0  0  0
  -14.4970   14.8015   29.7544 C   0  0  0  0  0  0  0  0  0  0  0  0
  -14.1710   14.9487   31.0984 C   0  0  0  0  0  0  0  0  0  0  0  0
  -12.9943   15.5891   31.4698 C   0  0  0  0  0  0  0  0  0  0  0  0
  -12.1359   16.0740   30.4872 C   0  0  0  0  0  0  0  0  0  0  0  0
  1  6  2  0  0  0
  1 13  1  0  0  0
  2  8  1  0  0  0
  3  9  1  0  0  0
  4  6  1  0  0  0
  4 10  1  0  0  0
  4 25  1  0  0  0
  5  6  1  0  0  0
  5 15  1  0  0  0
  5  7  1  0  0  0
 15 16  1  0  0  0
  7  8  1  0  0  0
  7 35  1  0  0  0
  8  9  1  0  0  0
  9 10  1  0  0  0
 10 42  1  0  0  0
 25 26  1  0  0  0
 16 17  2  0  0  0
 16 21  1  0  0  0
 17 18  1  0  0  0
 18 19  2  0  0  0
 19 20  1  0  0  0
 19 22  1  0  0  0
 20 21  2  0  0  0
 35 36  1  0  0  0
 36 37  2  0  0  0
 36 41  1  0  0  0
 37 38  1  0  0  0
 38 39  2  0  0  0
 39 40  1  0  0  0
 40 41  2  0  0  0
 42 43  1  0  0  0
 43 44  2  0  0  0
 43 48  1  0  0  0
 44 45  1  0  0  0
 45 46  2  0  0  0
 46 47  1  0  0  0
 47 48  2  0  0  0
 26 27  2  0  0  0
 26 31  1  0  0  0
 27 28  1  0  0  0
 28 29  2  0  0  0
 29 30  1  0  0  0
 29 32  1  0  0  0
 30 31  2  0  0  0
 13 14  3  0  0  0
 32 33  1  0  0  0
 22 23  1  0  0  0
  2 11  1  0  0  0
  3 12  1  0  0  0
 33 34  1  0  0  0
 23 24  1  0  0  0
M  END
> <minimizedAffinity>
-8.39279

$$$$
1HVH_Q82_B_265


 48 52  0  0  0  0  0  0  0  0999 V2000
   -9.3593   14.1943   30.0632 N   0  0  0  0  0  0  0  0  0  0  0  0
  -11.1165   17.3163   25.6965 O   0  0  0  0  0  0  0  0  0  0  0  0
  -10.3875   18.9866   27.7319 O   0  0  0  0  0  0  0  0  0  0  0  0
   -8.6301   16.0512   28.9377 N   0  0  0  0  0  0  0  0  0  0  0  0
  -10.1353   14.5520   27.9739 N   0  0  0  0  0  0  0  0  0  0  0  0
   -9.3704   14.9328   29.0130 C   0  0  0  0  0  0  0  0  0  0  0  0
  -10.2357   15.3564   26.7562 C   0  0  0  0  0  0  0  0  0  0  0  0
  -10.7488   16.7891   26.9479 C   0  0  0  0  0  0  0  0  0  0  0  0
   -9.7457   17.7476   27.5660 C   0  0  0  0  0  0  0  0  0  0  0  0
   -9.3117   17.3316   28.9550 C   0  0  0  0  0  0  0  0  0  0  0  0
  -11.7592   16.7258   25.2731 H   0  0  0  0  0  0  0  0  0  0  0  0
  -10.6924   19.3108   26.8700 H   0  0  0  0  0  0  0  0  0  0  0  0
   -8.4125   14.2817   30.9405 C   0  0  0  0  0  0  0  0  0  0  0  0
   -7.5673   14.3495   31.7454 N   0  0  0  0  0  0  0  0  0  0  0  0
  -10.7536   13.2179   27.9600 C   0  0  0  0  0  0  0  0  0  0  0  0
  -11.8593   13.0212   28.9766 C   0  0  0  0  0  0  0  0  0  0  0  0
  -12.7068   14.0769   29.2969 C   0  0  0  0  0  0  0  0  0  0  0  0
  -13.5964   13.9577   30.3602 C   0  0  0  0  0  0  0  0  0  0  0  0
  -13.6213   12.7059   31.1509 C   0  0  0  0  0  0  0  0  0  0  0  0
  -12.7589   11.6764   30.7945 C   0  0  0  0  0  0  0  0  0  0  0  0
  -11.8846   11.8494   29.7345 C   0  0  0  0  0  0  0  0  0  0  0  0
  -14.5672   12.5422   32.3064 C   0  0  0  0  0  0  0  0  0  0  0  0
  -14.3897   13.5238   33.3216 O   0  0  0  0  0  0  0  0  0  0  0  0
  -13.4968   13.4474   33.6928 H   0  0  0  0  0  0  0  0  0  0  0  0
   -7.1600   16.0581   28.8850 C   0  0  0  0  0  0  0  0  0  0  0  0
   -6.5237   16.7117   27.6561 C   0  0  0  0  0  0  0  0  0  0  0  0
   -6.6095   17.9789   27.3727 C   0  0  0  0  0  0  0  0  0  0  0  0
   -6.0302   18.5849   26.2603 C   0  0  0  0  0  0  0  0  0  0  0  0
   -5.2519   17.7540   25.3237 C   0  0  0  0  0  0  0  0  0  0  0  0
   -5.1731   16.4048   25.6387 C   0  0  0  0  0  0  0  0  0  0  0  0
   -5.7898   15.8965   26.7852 C   0  0  0  0  0  0  0  0  0  0  0  0
   -4.5982   18.3205   24.0978 C   0  0  0  0  0  0  0  0  0  0  0  0
   -5.4909   19.0532   23.2721 O   0  0  0  0  0  0  0  0  0  0  0  0
   -6.1930   18.4647   22.9531 H   0  0  0  0  0  0  0  0  0  0  0  0
   -8.8772   15.2010   26.0541 C   0  0  0  0  0  0  0  0  0  0  0  0
   -8.9676   15.4923   24.5694 C   0  0  0  0  0  0  0  0  0  0  0  0
   -8.3417   16.5675   23.9444 C   0  0  0  0  0  0  0  0  0  0  0  0
   -8.4664   16.9195   22.6058 C   0  0  0  0  0  0  0  0  0  0  0  0
   -9.2917   16.1494   21.8052 C   0  0  0  0  0  0  0  0  0  0  0  0
   -9.9419   15.0637   22.3845 C   0  0  0  0  0  0  0  0  0  0  0  0
   -9.7910   14.7298   23.7357 C   0  0  0  0  0  0  0  0  0  0  0  0
  -10.4897   17.1863   29.9227 C   0  0  0  0  0  0  0  0  0  0  0  0
  -10.0506   17.2914   31.3631 C   0  0  0  0  0  0  0  0  0  0  0  0
   -8.7887   17.7932   31.6572 C   0  0  0  0  0  0  0  0  0  0  0  0
   -8.2113   17.5376   32.8978 C   0  0  0  0  0  0  0  0  0  0  0  0
   -8.9030   16.7908   33.8456 C   0  0  0  0  0  0  0  0  0  0  0  0
  -10.1653   16.2851   33.5568 C   0  0  0  0  0  0  0  0  0  0  0  0
  -10.7403   16.5398   32.3150 C   0  0  0  0  0  0  0  0  0  0  0  0
  1  6  2  0  0  0
  1 13  1  0  0  0
  2  8  1  0  0  0
  3  9  1  0  0  0
  4  6  1  0  0  0
  4 10  1  0  0  0
  4 25  1  0  0  0
  5  6  1  0  0  0
  5 15  1  0  0  0
  5  7  1  0  0  0
 15 16  1  0  0  0
  7  8  1  0  0  0
  7 35  1  0  0  0
  8  9  1  0  0  0
  9 10  1  0  0  0
 10 42  1  0  0  0
 25 26  1  0  0  0
 16 17  2  0  0  0
 16 21  1  0  0  0
 17 18  1  0  0  0
 18 19  2  0  0  0
 19 20  1  0  0  0
 19 22  1  0  0  0
 20 21  2  0  0  0
 35 36  1  0  0  0
 36 37  2  0  0  0
 36 41  1  0  0  0
 37 38  1  0  0  0
 38 39  2  0  0  0
 39 40  1  0  0  0
 40 41  2  0  0  0
 42 43  1  0  0  0
 43 44  2  0  0  0
 43 48  1  0  0  0
 44 45  1  0  0  0
 45 46  2  0  0  0
 46 47  1  0  0  0
 47 48  2  0  0  0
 26 27  2  0  0  0
 26 31  1  0  0  0
 27 28  1  0  0  0
 28 29  2  0  0  0
 29 30  1  0  0  0
 29 32  1  0  0  0
 30 31  2  0  0  0
 13 14  3  0  0  0
 32 33  1  0  0  0
 22 23  1  0  0  0
  2 11  1  0  0  0
  3 12  1  0  0  0
 33 34  1  0  0  0
 23 24  1  0  0  0
M  END
> <minimizedAffinity>
-8.24236

$$$$
1HVH_Q82_B_265


 48 52  0  0  0  0  0  0  0  0999 V2000
   -8.1714   15.0998   30.7154 N   0  0  0  0  0  0  0  0  0  0  0  0
  -12.6477   14.4347   27.3357 O   0  0  0  0  0  0  0  0  0  0  0  0
  -13.5125   15.3125   29.7741 O   0  0  0  0  0  0  0  0  0  0  0  0
  -10.0444   16.3000   30.1696 N   0  0  0  0  0  0  0  0  0  0  0  0
   -9.2333   14.6064   28.7855 N   0  0  0  0  0  0  0  0  0  0  0  0
   -9.1433   15.3379   29.9109 C   0  0  0  0  0  0  0  0  0  0  0  0
  -10.3313   14.7864   27.8359 C   0  0  0  0  0  0  0  0  0  0  0  0
  -11.7403   14.5700   28.4021 C   0  0  0  0  0  0  0  0  0  0  0  0
  -12.2492   15.6924   29.2900 C   0  0  0  0  0  0  0  0  0  0  0  0
  -11.3947   15.9033   30.5213 C   0  0  0  0  0  0  0  0  0  0  0  0
  -12.3511   13.7231   26.7470 H   0  0  0  0  0  0  0  0  0  0  0  0
  -14.1127   15.1608   29.0273 H   0  0  0  0  0  0  0  0  0  0  0  0
   -7.8079   15.9614   31.6094 C   0  0  0  0  0  0  0  0  0  0  0  0
   -7.4737   16.7521   32.4031 N   0  0  0  0  0  0  0  0  0  0  0  0
   -8.1258   13.7259   28.3849 C   0  0  0  0  0  0  0  0  0  0  0  0
   -7.0605   14.3923   27.5386 C   0  0  0  0  0  0  0  0  0  0  0  0
   -6.0158   15.0794   28.1482 C   0  0  0  0  0  0  0  0  0  0  0  0
   -5.1462   15.8480   27.3804 C   0  0  0  0  0  0  0  0  0  0  0  0
   -5.3526   15.9363   25.9168 C   0  0  0  0  0  0  0  0  0  0  0  0
   -6.4077   15.2320   25.3498 C   0  0  0  0  0  0  0  0  0  0  0  0
   -7.2515   14.4902   26.1594 C   0  0  0  0  0  0  0  0  0  0  0  0
   -4.4349   16.7576   25.0566 C   0  0  0  0  0  0  0  0  0  0  0  0
   -4.8828   16.8771   23.7110 O   0  0  0  0  0  0  0  0  0  0  0  0
   -4.9180   15.9980   23.3027 H   0  0  0  0  0  0  0  0  0  0  0  0
   -9.7322   17.7376   30.1631 C   0  0  0  0  0  0  0  0  0  0  0  0
   -8.8314   18.2357   29.0307 C   0  0  0  0  0  0  0  0  0  0  0  0
   -9.2689   18.7455   27.9162 C   0  0  0  0  0  0  0  0  0  0  0  0
   -8.4583   19.2065   26.8815 C   0  0  0  0  0  0  0  0  0  0  0  0
   -6.9944   19.1294   27.0380 C   0  0  0  0  0  0  0  0  0  0  0  0
   -6.5446   18.5803   28.2305 C   0  0  0  0  0  0  0  0  0  0  0  0
   -7.4448   18.1500   29.2090 C   0  0  0  0  0  0  0  0  0  0  0  0
   -6.0456   19.5970   25.9739 C   0  0  0  0  0  0  0  0  0  0  0  0
   -6.5654   19.4646   24.6594 O   0  0  0  0  0  0  0  0  0  0  0  0
   -6.7367   18.5284   24.4722 H   0  0  0  0  0  0  0  0  0  0  0  0
  -10.0634   16.1393   27.1576 C   0  0  0  0  0  0  0  0  0  0  0  0
   -9.9884   16.0143   25.6488 C   0  0  0  0  0  0  0  0  0  0  0  0
  -10.2299   14.8351   24.9494 C   0  0  0  0  0  0  0  0  0  0  0  0
  -10.0898   14.6553   23.5784 C   0  0  0  0  0  0  0  0  0  0  0  0
   -9.6624   15.7324   22.8219 C   0  0  0  0  0  0  0  0  0  0  0  0
   -9.4057   16.9338   23.4759 C   0  0  0  0  0  0  0  0  0  0  0  0
   -9.5626   17.0862   24.8587 C   0  0  0  0  0  0  0  0  0  0  0  0
  -11.2698   14.6392   31.3767 C   0  0  0  0  0  0  0  0  0  0  0  0
  -11.6529   14.8930   32.8146 C   0  0  0  0  0  0  0  0  0  0  0  0
  -11.1563   16.0156   33.4654 C   0  0  0  0  0  0  0  0  0  0  0  0
  -11.1563   16.0690   34.8564 C   0  0  0  0  0  0  0  0  0  0  0  0
  -11.6643   15.0039   35.5927 C   0  0  0  0  0  0  0  0  0  0  0  0
  -12.1614   13.8775   34.9472 C   0  0  0  0  0  0  0  0  0  0  0  0
  -12.1588   13.8249   33.5563 C   0  0  0  0  0  0  0  0  0  0  0  0
  1  6  2  0  0  0
  1 13  1  0  0  0
  2  8  1  0  0  0
  3  9  1  0  0  0
  4  6  1  0  0  0
  4 10  1  0  0  0
  4 25  1  0  0  0
  5  6  1  0  0  0
  5 15  1  0  0  0
  5  7  1  0  0  0
 15 16  1  0  0  0
  7  8  1  0  0  0
  7 35  1  0  0  0
  8  9  1  0  0  0
  9 10  1  0  0  0
 10 42  1  0  0  0
 25 26  1  0  0  0
 16 17  2  0  0  0
 16 21  1  0  0  0
 17 18  1  0  0  0
 18 19  2  0  0  0
 19 20  1  0  0  0
 19 22  1  0  0  0
 20 21  2  0  0  0
 35 36  1  0  0  0
 36 37  2  0  0  0
 36 41  1  0  0  0
 37 38  1  0  0  0
 38 39  2  0  0  0
 39 40  1  0  0  0
 40 41  2  0  0  0
 42 43  1  0  0  0
 43 44  2  0  0  0
 43 48  1  0  0  0
 44 45  1  0  0  0
 45 46  2  0  0  0
 46 47  1  0  0  0
 47 48  2  0  0  0
 26 27  2  0  0  0
 26 31  1  0  0  0
 27 28  1  0  0  0
 28 29  2  0  0  0
 29 30  1  0  0  0
 29 32  1  0  0  0
 30 31  2  0  0  0
 13 14  3  0  0  0
 32 33  1  0  0  0
 22 23  1  0  0  0
  2 11  1  0  0  0
  3 12  1  0  0  0
 33 34  1  0  0  0
 23 24  1  0  0  0
M  END
> <minimizedAffinity>
-7.76259

$$$$
1HVH_Q82_B_265


 48 52  0  0  0  0  0  0  0  0999 V2000
   -8.1530   14.1063   29.0855 N   0  0  0  0  0  0  0  0  0  0  0  0
  -11.3660   16.9704   25.4282 O   0  0  0  0  0  0  0  0  0  0  0  0
  -12.8701   16.3595   27.6256 O   0  0  0  0  0  0  0  0  0  0  0  0
   -9.6280   15.8564   29.1734 N   0  0  0  0  0  0  0  0  0  0  0  0
   -8.5897   15.2338   27.1794 N   0  0  0  0  0  0  0  0  0  0  0  0
   -8.7905   15.0528   28.4972 C   0  0  0  0  0  0  0  0  0  0  0  0
   -9.3058   16.2628   26.4256 C   0  0  0  0  0  0  0  0  0  0  0  0
  -10.8357   16.1554   26.4449 C   0  0  0  0  0  0  0  0  0  0  0  0
  -11.4875   16.5779   27.7501 C   0  0  0  0  0  0  0  0  0  0  0  0
  -11.0522   15.7319   28.9272 C   0  0  0  0  0  0  0  0  0  0  0  0
  -10.9691   16.7258   24.5776 H   0  0  0  0  0  0  0  0  0  0  0  0
  -13.2137   16.8784   26.8817 H   0  0  0  0  0  0  0  0  0  0  0  0
   -8.0096   14.0856   30.3711 C   0  0  0  0  0  0  0  0  0  0  0  0
   -7.8628   14.0580   31.5306 N   0  0  0  0  0  0  0  0  0  0  0  0
   -7.5045   14.5189   26.4913 C   0  0  0  0  0  0  0  0  0  0  0  0
   -6.2062   15.2919   26.3812 C   0  0  0  0  0  0  0  0  0  0  0  0
   -5.6195   15.8335   27.5204 C   0  0  0  0  0  0  0  0  0  0  0  0
   -4.5364   16.6989   27.4015 C   0  0  0  0  0  0  0  0  0  0  0  0
   -4.0266   17.0452   26.0550 C   0  0  0  0  0  0  0  0  0  0  0  0
   -4.6416   16.4796   24.9448 C   0  0  0  0  0  0  0  0  0  0  0  0
   -5.7237   15.6326   25.1166 C   0  0  0  0  0  0  0  0  0  0  0  0
   -2.8604   17.9772   25.8881 C   0  0  0  0  0  0  0  0  0  0  0  0
   -2.7896   18.5629   24.5929 O   0  0  0  0  0  0  0  0  0  0  0  0
   -2.6732   17.8657   23.9287 H   0  0  0  0  0  0  0  0  0  0  0  0
   -9.1903   16.8282   30.1874 C   0  0  0  0  0  0  0  0  0  0  0  0
   -9.6799   16.5902   31.6177 C   0  0  0  0  0  0  0  0  0  0  0  0
  -10.8160   16.0324   31.9203 C   0  0  0  0  0  0  0  0  0  0  0  0
  -11.2691   15.8063   33.2180 C   0  0  0  0  0  0  0  0  0  0  0  0
  -10.4153   16.2126   34.3491 C   0  0  0  0  0  0  0  0  0  0  0  0
   -9.2092   16.8087   34.0092 C   0  0  0  0  0  0  0  0  0  0  0  0
   -8.8464   16.9863   32.6713 C   0  0  0  0  0  0  0  0  0  0  0  0
  -10.8248   16.0129   35.7787 C   0  0  0  0  0  0  0  0  0  0  0  0
  -12.2322   16.0071   35.9649 O   0  0  0  0  0  0  0  0  0  0  0  0
  -12.5970   16.8658   35.6997 H   0  0  0  0  0  0  0  0  0  0  0  0
   -8.7046   17.5987   26.8908 C   0  0  0  0  0  0  0  0  0  0  0  0
   -7.9128   18.2795   25.7922 C   0  0  0  0  0  0  0  0  0  0  0  0
   -8.0941   18.0374   24.4332 C   0  0  0  0  0  0  0  0  0  0  0  0
   -7.3354   18.5737   23.3997 C   0  0  0  0  0  0  0  0  0  0  0  0
   -6.2925   19.4210   23.7308 C   0  0  0  0  0  0  0  0  0  0  0  0
   -6.0694   19.6929   25.0774 C   0  0  0  0  0  0  0  0  0  0  0  0
   -6.8557   19.1423   26.0965 C   0  0  0  0  0  0  0  0  0  0  0  0
  -11.3304   14.2407   28.7172 C   0  0  0  0  0  0  0  0  0  0  0  0
  -12.1280   13.6516   29.8555 C   0  0  0  0  0  0  0  0  0  0  0  0
  -11.8987   12.3365   30.2407 C   0  0  0  0  0  0  0  0  0  0  0  0
  -12.8563   11.6538   30.9856 C   0  0  0  0  0  0  0  0  0  0  0  0
  -14.0357   12.2927   31.3534 C   0  0  0  0  0  0  0  0  0  0  0  0
  -14.2713   13.6080   30.9699 C   0  0  0  0  0  0  0  0  0  0  0  0
  -13.3136   14.2884   30.2234 C   0  0  0  0  0  0  0  0  0  0  0  0
  1  6  2  0  0  0
  1 13  1  0  0  0
  2  8  1  0  0  0
  3  9  1  0  0  0
  4  6  1  0  0  0
  4 10  1  0  0  0
  4 25  1  0  0  0
  5  6  1  0  0  0
  5 15  1  0  0  0
  5  7  1  0  0  0
 15 16  1  0  0  0
  7  8  1  0  0  0
  7 35  1  0  0  0
  8  9  1  0  0  0
  9 10  1  0  0  0
 10 42  1  0  0  0
 25 26  1  0  0  0
 16 17  2  0  0  0
 16 21  1  0  0  0
 17 18  1  0  0  0
 18 19  2  0  0  0
 19 20  1  0  0  0
 19 22  1  0  0  0
 20 21  2  0  0  0
 35 36  1  0  0  0
 36 37  2  0  0  0
 36 41  1  0  0  0
 37 38  1  0  0  0
 38 39  2  0  0  0
 39 40  1  0  0  0
 40 41  2  0  0  0
 42 43  1  0  0  0
 43 44  2  0  0  0
 43 48  1  0  0  0
 44 45  1  0  0  0
 45 46  2  0  0  0
 46 47  1  0  0  0
 47 48  2  0  0  0
 26 27  2  0  0  0
 26 31  1  0  0  0
 27 28  1  0  0  0
 28 29  2  0  0  0
 29 30  1  0  0  0
 29 32  1  0  0  0
 30 31  2  0  0  0
 13 14  3  0  0  0
 32 33  1  0  0  0
 22 23  1  0  0  0
  2 11  1  0  0  0
  3 12  1  0  0  0
 33 34  1  0  0  0
 23 24  1  0  0  0
M  END
> <minimizedAffinity>
-7.44319

$$$$
