4NJ9_2M9_H_501


 33 36  0  0  0  0  0  0  0  0999 V2000
    5.0944   20.6671   55.2381 C   0  0  0  0  0  0  0  0  0  0  0  0
    4.0031   20.3312   54.3783 C   0  0  0  0  0  0  0  0  0  0  0  0
    3.0993   19.2323   54.5807 C   0  0  0  0  0  0  0  0  0  0  0  0
    3.3099   18.4408   55.7225 C   0  0  0  0  0  0  0  0  0  0  0  0
    2.5009   17.3233   56.0063 C   0  0  0  0  0  0  0  0  0  0  0  0
    2.6930   16.5212   57.1289 C   0  0  0  0  0  0  0  0  0  0  0  0
    5.2706   19.8425   56.4002 C   0  0  0  0  0  0  0  0  0  0  0  0
    4.4023   18.7241   56.6276 C   0  0  0  0  0  0  0  0  0  0  0  0
    4.5861   17.8782   57.7679 C   0  0  0  0  0  0  0  0  0  0  0  0
    3.7490   16.7872   58.0388 C   0  0  0  0  0  0  0  0  0  0  0  0
    6.3428   20.0618   57.3057 C   0  0  0  0  0  0  0  0  0  0  0  0
    6.4987   19.2448   58.4072 C   0  0  0  0  0  0  0  0  0  0  0  0
    5.6324   18.1709   58.6504 C   0  0  0  0  0  0  0  0  0  0  0  0
    5.8636   17.3863   59.7714 C   0  0  0  0  0  0  0  0  0  0  0  0
    5.0295   16.2850   60.0509 C   0  0  0  0  0  0  0  0  0  0  0  0
    3.9280   15.9883   59.2137 C   0  0  0  0  0  0  0  0  0  0  0  0
    5.5083   23.1298   55.6209 O   0  0  0  0  0  0  0  0  0  0  0  0
    6.0088   21.9685   54.8548 S   0  0  0  0  0  0  0  0  0  0  0  0
    7.4541   21.6680   55.0067 O   0  0  0  0  0  0  0  0  0  0  0  0
    5.8252   22.4198   53.4486 O   0  0  0  0  0  0  0  0  0  0  0  0
    6.0396   23.9123   55.4059 H   0  0  0  0  0  0  0  0  0  0  0  0
    1.8424   18.9350   53.4908 S   0  0  0  0  0  0  0  0  0  0  0  0
    2.2825   17.8427   52.6462 O   0  0  0  0  0  0  0  0  0  0  0  0
    0.6352   18.6990   54.2418 O   0  0  0  0  0  0  0  0  0  0  0  0
    1.6602   20.1306   52.6588 O   0  0  0  0  0  0  0  0  0  0  0  0
    0.9412   19.9776   52.0260 H   0  0  0  0  0  0  0  0  0  0  0  0
    2.9864   14.6902   59.6059 S   0  0  0  0  0  0  0  0  0  0  0  0
    2.7847   13.6669   58.5846 O   0  0  0  0  0  0  0  0  0  0  0  0
    3.6213   14.0252   60.8024 O   0  0  0  0  0  0  0  0  0  0  0  0
    1.6938   15.1648   60.1227 O   0  0  0  0  0  0  0  0  0  0  0  0
    1.8454   15.8432   60.7992 H   0  0  0  0  0  0  0  0  0  0  0  0
    6.9409   17.7612   60.5740 O   0  0  0  0  0  0  0  0  0  0  0  0
    7.6051   16.8131   61.4221 C   0  0  0  0  0  0  0  0  0  0  0  0
 23 22  2  0  0  0
 20 18  2  0  0  0
 24 22  2  0  0  0
 22 25  1  0  0  0
 22  3  1  0  0  0
  2  3  2  0  0  0
  2  1  1  0  0  0
 19 18  2  0  0  0
 18  1  1  0  0  0
 18 17  1  0  0  0
  3  4  1  0  0  0
  1  7  2  0  0  0
  4  5  2  0  0  0
  4  8  1  0  0  0
  5  6  1  0  0  0
  7  8  1  0  0  0
  7 11  1  0  0  0
  8  9  2  0  0  0
 11 12  2  0  0  0
  6 10  2  0  0  0
  9 10  1  0  0  0
  9 13  1  0  0  0
 12 13  1  0  0  0
 10 16  1  0  0  0
 13 14  2  0  0  0
 29 27  2  0  0  0
 16 27  1  0  0  0
 16 15  2  0  0  0
 14 15  1  0  0  0
 14 32  1  0  0  0
 27 28  2  0  0  0
 27 30  1  0  0  0
 32 33  1  0  0  0
 17 21  1  0  0  0
 25 26  1  0  0  0
 30 31  1  0  0  0
M  END
> <minimizedAffinity>
-8.72279

$$$$
4NJ9_2M9_H_501


 33 36  0  0  0  0  0  0  0  0999 V2000
    3.1047   19.1121   54.5353 C   0  0  0  0  0  0  0  0  0  0  0  0
    3.9882   20.2166   54.3286 C   0  0  0  0  0  0  0  0  0  0  0  0
    5.0656   20.5883   55.2041 C   0  0  0  0  0  0  0  0  0  0  0  0
    5.2611   19.7886   56.3430 C   0  0  0  0  0  0  0  0  0  0  0  0
    6.2705   20.0754   57.2826 C   0  0  0  0  0  0  0  0  0  0  0  0
    6.4805   19.3005   58.4210 C   0  0  0  0  0  0  0  0  0  0  0  0
    3.3430   18.3120   55.7034 C   0  0  0  0  0  0  0  0  0  0  0  0
    4.3955   18.6615   56.6127 C   0  0  0  0  0  0  0  0  0  0  0  0
    4.6242   17.8876   57.7953 C   0  0  0  0  0  0  0  0  0  0  0  0
    5.6535   18.1817   58.7001 C   0  0  0  0  0  0  0  0  0  0  0  0
    2.5063   17.2111   56.0277 C   0  0  0  0  0  0  0  0  0  0  0  0
    2.7480   16.4674   57.1651 C   0  0  0  0  0  0  0  0  0  0  0  0
    3.7958   16.7859   58.0389 C   0  0  0  0  0  0  0  0  0  0  0  0
    3.9655   15.9993   59.1694 C   0  0  0  0  0  0  0  0  0  0  0  0
    4.9954   16.2886   60.0871 C   0  0  0  0  0  0  0  0  0  0  0  0
    5.8885   17.3601   59.8492 C   0  0  0  0  0  0  0  0  0  0  0  0
    1.6351   20.1076   52.7376 O   0  0  0  0  0  0  0  0  0  0  0  0
    1.9429   18.8316   53.4181 S   0  0  0  0  0  0  0  0  0  0  0  0
    2.3161   17.7005   52.5331 O   0  0  0  0  0  0  0  0  0  0  0  0
    0.6287   18.4726   54.0171 O   0  0  0  0  0  0  0  0  0  0  0  0
    0.9467   19.9604   52.0703 H   0  0  0  0  0  0  0  0  0  0  0  0
    6.0454   21.9194   54.8520 S   0  0  0  0  0  0  0  0  0  0  0  0
    5.6167   22.9878   55.7322 O   0  0  0  0  0  0  0  0  0  0  0  0
    7.4233   21.5168   54.9804 O   0  0  0  0  0  0  0  0  0  0  0  0
    5.7943   22.3231   53.4632 O   0  0  0  0  0  0  0  0  0  0  0  0
    6.3494   23.0875   53.2432 H   0  0  0  0  0  0  0  0  0  0  0  0
    7.0781   17.6362   60.9601 S   0  0  0  0  0  0  0  0  0  0  0  0
    7.8287   18.8836   60.8524 O   0  0  0  0  0  0  0  0  0  0  0  0
    6.4302   17.6069   62.3226 O   0  0  0  0  0  0  0  0  0  0  0  0
    7.9929   16.4849   60.9901 O   0  0  0  0  0  0  0  0  0  0  0  0
    7.4790   15.6654   61.0618 H   0  0  0  0  0  0  0  0  0  0  0  0
    3.0756   14.9357   59.3188 O   0  0  0  0  0  0  0  0  0  0  0  0
    2.8128   14.3578   60.6057 C   0  0  0  0  0  0  0  0  0  0  0  0
 23 22  2  0  0  0
 20 18  2  0  0  0
 24 22  2  0  0  0
 22 25  1  0  0  0
 22  3  1  0  0  0
  2  3  2  0  0  0
  2  1  1  0  0  0
 19 18  2  0  0  0
 18  1  1  0  0  0
 18 17  1  0  0  0
  3  4  1  0  0  0
  1  7  2  0  0  0
  4  5  2  0  0  0
  4  8  1  0  0  0
  5  6  1  0  0  0
  7  8  1  0  0  0
  7 11  1  0  0  0
  8  9  2  0  0  0
 11 12  2  0  0  0
  6 10  2  0  0  0
  9 10  1  0  0  0
  9 13  1  0  0  0
 12 13  1  0  0  0
 10 16  1  0  0  0
 13 14  2  0  0  0
 29 27  2  0  0  0
 16 27  1  0  0  0
 16 15  2  0  0  0
 14 15  1  0  0  0
 14 32  1  0  0  0
 27 28  2  0  0  0
 27 30  1  0  0  0
 32 33  1  0  0  0
 17 21  1  0  0  0
 25 26  1  0  0  0
 30 31  1  0  0  0
M  END
> <minimizedAffinity>
-8.61162

$$$$
4NJ9_2M9_H_501


 33 36  0  0  0  0  0  0  0  0999 V2000
    5.4522   16.4235   60.2040 C   0  0  0  0  0  0  0  0  0  0  0  0
    4.3708   15.4911   60.1393 C   0  0  0  0  0  0  0  0  0  0  0  0
    3.3771   15.4485   59.1019 C   0  0  0  0  0  0  0  0  0  0  0  0
    3.4960   16.3965   58.0714 C   0  0  0  0  0  0  0  0  0  0  0  0
    2.5638   16.4630   57.0176 C   0  0  0  0  0  0  0  0  0  0  0  0
    2.6579   17.3963   55.9879 C   0  0  0  0  0  0  0  0  0  0  0  0
    5.5471   17.3689   59.1277 C   0  0  0  0  0  0  0  0  0  0  0  0
    4.5637   17.3724   58.0839 C   0  0  0  0  0  0  0  0  0  0  0  0
    4.6323   18.3287   57.0206 C   0  0  0  0  0  0  0  0  0  0  0  0
    3.7043   18.3548   55.9706 C   0  0  0  0  0  0  0  0  0  0  0  0
    6.5603   18.3641   59.1060 C   0  0  0  0  0  0  0  0  0  0  0  0
    6.6200   19.2709   58.0672 C   0  0  0  0  0  0  0  0  0  0  0  0
    5.6803   19.2566   57.0282 C   0  0  0  0  0  0  0  0  0  0  0  0
    5.7986   20.2104   56.0273 C   0  0  0  0  0  0  0  0  0  0  0  0
    4.8687   20.2472   54.9687 C   0  0  0  0  0  0  0  0  0  0  0  0
    3.8269   19.2924   54.8951 C   0  0  0  0  0  0  0  0  0  0  0  0
    7.8023   15.8480   60.9310 O   0  0  0  0  0  0  0  0  0  0  0  0
    6.4989   16.3081   61.4561 S   0  0  0  0  0  0  0  0  0  0  0  0
    6.5270   17.5646   62.2452 O   0  0  0  0  0  0  0  0  0  0  0  0
    6.1487   15.2249   62.4145 O   0  0  0  0  0  0  0  0  0  0  0  0
    8.4368   15.7736   61.6609 H   0  0  0  0  0  0  0  0  0  0  0  0
    2.1424   14.2951   59.1346 S   0  0  0  0  0  0  0  0  0  0  0  0
    2.2699   13.5944   60.3966 O   0  0  0  0  0  0  0  0  0  0  0  0
    0.8863   14.9668   58.9151 O   0  0  0  0  0  0  0  0  0  0  0  0
    2.3711   13.3427   58.0412 O   0  0  0  0  0  0  0  0  0  0  0  0
    1.6704   12.6720   58.0447 H   0  0  0  0  0  0  0  0  0  0  0  0
    2.7795   19.3876   53.6225 S   0  0  0  0  0  0  0  0  0  0  0  0
    2.4834   18.1564   52.8961 O   0  0  0  0  0  0  0  0  0  0  0  0
    1.4768   19.9289   54.1579 O   0  0  0  0  0  0  0  0  0  0  0  0
    3.2325   20.4364   52.6965 O   0  0  0  0  0  0  0  0  0  0  0  0
    3.4248   21.2464   53.1944 H   0  0  0  0  0  0  0  0  0  0  0  0
    6.8725   21.0930   56.1415 O   0  0  0  0  0  0  0  0  0  0  0  0
    6.7077   22.5013   55.9210 C   0  0  0  0  0  0  0  0  0  0  0  0
 23 22  2  0  0  0
 20 18  2  0  0  0
 24 22  2  0  0  0
 22 25  1  0  0  0
 22  3  1  0  0  0
  2  3  2  0  0  0
  2  1  1  0  0  0
 19 18  2  0  0  0
 18  1  1  0  0  0
 18 17  1  0  0  0
  3  4  1  0  0  0
  1  7  2  0  0  0
  4  5  2  0  0  0
  4  8  1  0  0  0
  5  6  1  0  0  0
  7  8  1  0  0  0
  7 11  1  0  0  0
  8  9  2  0  0  0
 11 12  2  0  0  0
  6 10  2  0  0  0
  9 10  1  0  0  0
  9 13  1  0  0  0
 12 13  1  0  0  0
 10 16  1  0  0  0
 13 14  2  0  0  0
 29 27  2  0  0  0
 16 27  1  0  0  0
 16 15  2  0  0  0
 14 15  1  0  0  0
 14 32  1  0  0  0
 27 28  2  0  0  0
 27 30  1  0  0  0
 32 33  1  0  0  0
 17 21  1  0  0  0
 25 26  1  0  0  0
 30 31  1  0  0  0
M  END
> <minimizedAffinity>
-8.22050

$$$$
4NJ9_2M9_H_501


 33 36  0  0  0  0  0  0  0  0999 V2000
    2.4659   18.7199   54.5714 C   0  0  0  0  0  0  0  0  0  0  0  0
    1.9216   17.9749   55.6631 C   0  0  0  0  0  0  0  0  0  0  0  0
    2.3678   18.0611   57.0266 C   0  0  0  0  0  0  0  0  0  0  0  0
    3.4144   18.9596   57.2951 C   0  0  0  0  0  0  0  0  0  0  0  0
    3.9478   19.1065   58.5903 C   0  0  0  0  0  0  0  0  0  0  0  0
    4.9878   19.9867   58.8801 C   0  0  0  0  0  0  0  0  0  0  0  0
    3.5257   19.6356   54.8869 C   0  0  0  0  0  0  0  0  0  0  0  0
    4.0132   19.7365   56.2319 C   0  0  0  0  0  0  0  0  0  0  0  0
    5.0885   20.6255   56.5529 C   0  0  0  0  0  0  0  0  0  0  0  0
    5.5822   20.7698   57.8567 C   0  0  0  0  0  0  0  0  0  0  0  0
    4.1650   20.4019   53.8762 C   0  0  0  0  0  0  0  0  0  0  0  0
    5.1920   21.2637   54.2043 C   0  0  0  0  0  0  0  0  0  0  0  0
    5.6491   21.3894   55.5226 C   0  0  0  0  0  0  0  0  0  0  0  0
    6.6958   22.2662   55.7703 C   0  0  0  0  0  0  0  0  0  0  0  0
    7.2016   22.4163   57.0773 C   0  0  0  0  0  0  0  0  0  0  0  0
    6.6264   21.7032   58.1556 C   0  0  0  0  0  0  0  0  0  0  0  0
    1.4000   19.8206   52.5627 O   0  0  0  0  0  0  0  0  0  0  0  0
    1.8159   18.5017   53.0859 S   0  0  0  0  0  0  0  0  0  0  0  0
    2.7271   17.7186   52.2150 O   0  0  0  0  0  0  0  0  0  0  0  0
    0.5278   17.7569   53.1138 O   0  0  0  0  0  0  0  0  0  0  0  0
    1.0115   19.7106   51.6807 H   0  0  0  0  0  0  0  0  0  0  0  0
    1.6431   17.1266   58.2338 S   0  0  0  0  0  0  0  0  0  0  0  0
    2.6705   16.2353   58.7338 O   0  0  0  0  0  0  0  0  0  0  0  0
    1.0566   18.0143   59.2059 O   0  0  0  0  0  0  0  0  0  0  0  0
    0.5795   16.3227   57.6195 O   0  0  0  0  0  0  0  0  0  0  0  0
    0.1517   15.7788   58.2993 H   0  0  0  0  0  0  0  0  0  0  0  0
    7.2614   21.9346   59.6619 S   0  0  0  0  0  0  0  0  0  0  0  0
    7.9461   20.8077   60.2883 O   0  0  0  0  0  0  0  0  0  0  0  0
    8.2485   23.0713   59.5588 O   0  0  0  0  0  0  0  0  0  0  0  0
    6.2190   22.4649   60.5535 O   0  0  0  0  0  0  0  0  0  0  0  0
    5.7745   23.2118   60.1229 H   0  0  0  0  0  0  0  0  0  0  0  0
    7.1863   22.9665   54.6683 O   0  0  0  0  0  0  0  0  0  0  0  0
    7.2153   24.4010   54.6484 C   0  0  0  0  0  0  0  0  0  0  0  0
 23 22  2  0  0  0
 20 18  2  0  0  0
 24 22  2  0  0  0
 22 25  1  0  0  0
 22  3  1  0  0  0
  2  3  2  0  0  0
  2  1  1  0  0  0
 19 18  2  0  0  0
 18  1  1  0  0  0
 18 17  1  0  0  0
  3  4  1  0  0  0
  1  7  2  0  0  0
  4  5  2  0  0  0
  4  8  1  0  0  0
  5  6  1  0  0  0
  7  8  1  0  0  0
  7 11  1  0  0  0
  8  9  2  0  0  0
 11 12  2  0  0  0
  6 10  2  0  0  0
  9 10  1  0  0  0
  9 13  1  0  0  0
 12 13  1  0  0  0
 10 16  1  0  0  0
 13 14  2  0  0  0
 29 27  2  0  0  0
 16 27  1  0  0  0
 16 15  2  0  0  0
 14 15  1  0  0  0
 14 32  1  0  0  0
 27 28  2  0  0  0
 27 30  1  0  0  0
 32 33  1  0  0  0
 17 21  1  0  0  0
 25 26  1  0  0  0
 30 31  1  0  0  0
M  END
> <minimizedAffinity>
-7.50528

$$$$
4NJ9_2M9_H_501


 33 36  0  0  0  0  0  0  0  0999 V2000
    3.2190   15.8825   59.3043 C   0  0  0  0  0  0  0  0  0  0  0  0
    4.4033   16.0058   60.0951 C   0  0  0  0  0  0  0  0  0  0  0  0
    5.4802   16.9210   59.8338 C   0  0  0  0  0  0  0  0  0  0  0  0
    5.3400   17.7618   58.7166 C   0  0  0  0  0  0  0  0  0  0  0  0
    6.3446   18.6791   58.3517 C   0  0  0  0  0  0  0  0  0  0  0  0
    6.2306   19.5193   57.2466 C   0  0  0  0  0  0  0  0  0  0  0  0
    3.1068   16.7661   58.1781 C   0  0  0  0  0  0  0  0  0  0  0  0
    4.1686   17.6800   57.8718 C   0  0  0  0  0  0  0  0  0  0  0  0
    4.0801   18.5459   56.7350 C   0  0  0  0  0  0  0  0  0  0  0  0
    5.0850   19.4675   56.4106 C   0  0  0  0  0  0  0  0  0  0  0  0
    1.9901   16.7081   57.3024 C   0  0  0  0  0  0  0  0  0  0  0  0
    1.9141   17.5585   56.2179 C   0  0  0  0  0  0  0  0  0  0  0  0
    2.9343   18.4757   55.9340 C   0  0  0  0  0  0  0  0  0  0  0  0
    2.7916   19.2865   54.8170 C   0  0  0  0  0  0  0  0  0  0  0  0
    3.7978   20.2143   54.4803 C   0  0  0  0  0  0  0  0  0  0  0  0
    4.9462   20.3546   55.2950 C   0  0  0  0  0  0  0  0  0  0  0  0
    2.7087   13.8675   60.7402 O   0  0  0  0  0  0  0  0  0  0  0  0
    2.0898   14.7930   59.7673 S   0  0  0  0  0  0  0  0  0  0  0  0
    0.8488   15.4702   60.2184 O   0  0  0  0  0  0  0  0  0  0  0  0
    1.6834   13.8695   58.6733 O   0  0  0  0  0  0  0  0  0  0  0  0
    2.0525   13.2130   61.0265 H   0  0  0  0  0  0  0  0  0  0  0  0
    6.8335   16.9743   60.8445 S   0  0  0  0  0  0  0  0  0  0  0  0
    7.3166   18.3401   60.8103 O   0  0  0  0  0  0  0  0  0  0  0  0
    6.4521   16.4770   62.1423 O   0  0  0  0  0  0  0  0  0  0  0  0
    7.8653   16.0949   60.2814 O   0  0  0  0  0  0  0  0  0  0  0  0
    8.6511   16.1132   60.8498 H   0  0  0  0  0  0  0  0  0  0  0  0
    6.0802   21.4679   54.8476 S   0  0  0  0  0  0  0  0  0  0  0  0
    6.4363   22.4990   55.8178 O   0  0  0  0  0  0  0  0  0  0  0  0
    7.3377   20.7084   54.5030 O   0  0  0  0  0  0  0  0  0  0  0  0
    5.6859   22.0775   53.5686 O   0  0  0  0  0  0  0  0  0  0  0  0
    5.4528   21.3799   52.9362 H   0  0  0  0  0  0  0  0  0  0  0  0
    1.6163   19.1235   54.0839 O   0  0  0  0  0  0  0  0  0  0  0  0
    1.6138   18.4467   52.8185 C   0  0  0  0  0  0  0  0  0  0  0  0
 23 22  2  0  0  0
 20 18  2  0  0  0
 24 22  2  0  0  0
 22 25  1  0  0  0
 22  3  1  0  0  0
  2  3  2  0  0  0
  2  1  1  0  0  0
 19 18  2  0  0  0
 18  1  1  0  0  0
 18 17  1  0  0  0
  3  4  1  0  0  0
  1  7  2  0  0  0
  4  5  2  0  0  0
  4  8  1  0  0  0
  5  6  1  0  0  0
  7  8  1  0  0  0
  7 11  1  0  0  0
  8  9  2  0  0  0
 11 12  2  0  0  0
  6 10  2  0  0  0
  9 10  1  0  0  0
  9 13  1  0  0  0
 12 13  1  0  0  0
 10 16  1  0  0  0
 13 14  2  0  0  0
 29 27  2  0  0  0
 16 27  1  0  0  0
 16 15  2  0  0  0
 14 15  1  0  0  0
 14 32  1  0  0  0
 27 28  2  0  0  0
 27 30  1  0  0  0
 32 33  1  0  0  0
 17 21  1  0  0  0
 25 26  1  0  0  0
 30 31  1  0  0  0
M  END
> <minimizedAffinity>
-7.08641

$$$$
4NJ9_2M9_H_501


 33 36  0  0  0  0  0  0  0  0999 V2000
    6.7295   22.6583   56.0025 C   0  0  0  0  0  0  0  0  0  0  0  0
    7.1325   22.6223   57.3734 C   0  0  0  0  0  0  0  0  0  0  0  0
    6.6580   21.6806   58.3500 C   0  0  0  0  0  0  0  0  0  0  0  0
    5.7342   20.7191   57.9064 C   0  0  0  0  0  0  0  0  0  0  0  0
    5.1838   19.7639   58.7830 C   0  0  0  0  0  0  0  0  0  0  0  0
    4.2633   18.8043   58.3679 C   0  0  0  0  0  0  0  0  0  0  0  0
    5.7933   21.6533   55.5842 C   0  0  0  0  0  0  0  0  0  0  0  0
    5.2806   20.7078   56.5328 C   0  0  0  0  0  0  0  0  0  0  0  0
    4.3253   19.7191   56.1333 C   0  0  0  0  0  0  0  0  0  0  0  0
    3.8136   18.7641   57.0225 C   0  0  0  0  0  0  0  0  0  0  0  0
    5.2965   21.6146   54.2541 C   0  0  0  0  0  0  0  0  0  0  0  0
    4.3852   20.6471   53.8818 C   0  0  0  0  0  0  0  0  0  0  0  0
    3.9068   19.7011   54.7977 C   0  0  0  0  0  0  0  0  0  0  0  0
    2.9806   18.7695   54.3507 C   0  0  0  0  0  0  0  0  0  0  0  0
    2.4575   17.8070   55.2377 C   0  0  0  0  0  0  0  0  0  0  0  0
    2.8959   17.7568   56.5821 C   0  0  0  0  0  0  0  0  0  0  0  0
    6.4981   24.9738   55.0190 O   0  0  0  0  0  0  0  0  0  0  0  0
    7.3919   23.7961   55.0313 S   0  0  0  0  0  0  0  0  0  0  0  0
    8.8037   24.0597   55.4049 O   0  0  0  0  0  0  0  0  0  0  0  0
    7.4098   23.4030   53.5961 O   0  0  0  0  0  0  0  0  0  0  0  0
    6.8756   25.6602   54.4470 H   0  0  0  0  0  0  0  0  0  0  0  0
    7.2103   21.7385   59.9461 S   0  0  0  0  0  0  0  0  0  0  0  0
    6.0590   22.0571   60.7665 O   0  0  0  0  0  0  0  0  0  0  0  0
    7.8672   20.4912   60.2458 O   0  0  0  0  0  0  0  0  0  0  0  0
    8.1856   22.8299   60.0579 O   0  0  0  0  0  0  0  0  0  0  0  0
    8.5139   22.8780   60.9694 H   0  0  0  0  0  0  0  0  0  0  0  0
    2.2494   16.5972   57.5634 S   0  0  0  0  0  0  0  0  0  0  0  0
    2.9200   15.3015   57.6129 O   0  0  0  0  0  0  0  0  0  0  0  0
    2.2319   17.1585   58.9639 O   0  0  0  0  0  0  0  0  0  0  0  0
    0.8239   16.4281   57.2434 O   0  0  0  0  0  0  0  0  0  0  0  0
    0.3937   17.2970   57.2144 H   0  0  0  0  0  0  0  0  0  0  0  0
    2.6251   18.8515   53.0045 O   0  0  0  0  0  0  0  0  0  0  0  0
    1.9577   17.7679   52.3416 C   0  0  0  0  0  0  0  0  0  0  0  0
 23 22  2  0  0  0
 20 18  2  0  0  0
 24 22  2  0  0  0
 22 25  1  0  0  0
 22  3  1  0  0  0
  2  3  2  0  0  0
  2  1  1  0  0  0
 19 18  2  0  0  0
 18  1  1  0  0  0
 18 17  1  0  0  0
  3  4  1  0  0  0
  1  7  2  0  0  0
  4  5  2  0  0  0
  4  8  1  0  0  0
  5  6  1  0  0  0
  7  8  1  0  0  0
  7 11  1  0  0  0
  8  9  2  0  0  0
 11 12  2  0  0  0
  6 10  2  0  0  0
  9 10  1  0  0  0
  9 13  1  0  0  0
 12 13  1  0  0  0
 10 16  1  0  0  0
 13 14  2  0  0  0
 29 27  2  0  0  0
 16 27  1  0  0  0
 16 15  2  0  0  0
 14 15  1  0  0  0
 14 32  1  0  0  0
 27 28  2  0  0  0
 27 30  1  0  0  0
 32 33  1  0  0  0
 17 21  1  0  0  0
 25 26  1  0  0  0
 30 31  1  0  0  0
M  END
> <minimizedAffinity>
-6.62801

$$$$
4NJ9_2M9_H_501


 33 36  0  0  0  0  0  0  0  0999 V2000
    5.4927   19.5926   60.2528 C   0  0  0  0  0  0  0  0  0  0  0  0
    4.3912   18.8831   60.8242 C   0  0  0  0  0  0  0  0  0  0  0  0
    3.2500   18.4020   60.0948 C   0  0  0  0  0  0  0  0  0  0  0  0
    3.2340   18.6458   58.7109 C   0  0  0  0  0  0  0  0  0  0  0  0
    2.1539   18.2418   57.9022 C   0  0  0  0  0  0  0  0  0  0  0  0
    2.1130   18.4761   56.5297 C   0  0  0  0  0  0  0  0  0  0  0  0
    5.4458   19.8124   58.8348 C   0  0  0  0  0  0  0  0  0  0  0  0
    4.3151   19.3657   58.0742 C   0  0  0  0  0  0  0  0  0  0  0  0
    4.2444   19.6044   56.6643 C   0  0  0  0  0  0  0  0  0  0  0  0
    3.1680   19.1679   55.8798 C   0  0  0  0  0  0  0  0  0  0  0  0
    6.4683   20.5362   58.1655 C   0  0  0  0  0  0  0  0  0  0  0  0
    6.3913   20.7469   56.8036 C   0  0  0  0  0  0  0  0  0  0  0  0
    5.3041   20.2833   56.0515 C   0  0  0  0  0  0  0  0  0  0  0  0
    5.2920   20.5476   54.6893 C   0  0  0  0  0  0  0  0  0  0  0  0
    4.2127   20.1157   53.8922 C   0  0  0  0  0  0  0  0  0  0  0  0
    3.1485   19.3787   54.4635 C   0  0  0  0  0  0  0  0  0  0  0  0
    7.9167   19.2640   60.8841 O   0  0  0  0  0  0  0  0  0  0  0  0
    6.7149   20.0482   61.2403 S   0  0  0  0  0  0  0  0  0  0  0  0
    6.8810   21.5228   61.2378 O   0  0  0  0  0  0  0  0  0  0  0  0
    6.4975   19.6583   62.6599 O   0  0  0  0  0  0  0  0  0  0  0  0
    8.6532   19.5213   61.4605 H   0  0  0  0  0  0  0  0  0  0  0  0
    2.0065   17.5733   60.8839 S   0  0  0  0  0  0  0  0  0  0  0  0
    0.8232   18.4016   60.7660 O   0  0  0  0  0  0  0  0  0  0  0  0
    1.9064   16.2533   60.3143 O   0  0  0  0  0  0  0  0  0  0  0  0
    2.3593   17.4543   62.3038 O   0  0  0  0  0  0  0  0  0  0  0  0
    1.6552   16.9802   62.7733 H   0  0  0  0  0  0  0  0  0  0  0  0
    1.9219   18.8953   53.4699 S   0  0  0  0  0  0  0  0  0  0  0  0
    0.7205   18.3492   54.0939 O   0  0  0  0  0  0  0  0  0  0  0  0
    1.5099   20.0963   52.6547 O   0  0  0  0  0  0  0  0  0  0  0  0
    2.4499   17.9619   52.4634 O   0  0  0  0  0  0  0  0  0  0  0  0
    3.2467   18.3392   52.0590 H   0  0  0  0  0  0  0  0  0  0  0  0
    6.3924   21.2419   54.1869 O   0  0  0  0  0  0  0  0  0  0  0  0
    6.2934   22.6215   53.8048 C   0  0  0  0  0  0  0  0  0  0  0  0
 23 22  2  0  0  0
 20 18  2  0  0  0
 24 22  2  0  0  0
 22 25  1  0  0  0
 22  3  1  0  0  0
  2  3  2  0  0  0
  2  1  1  0  0  0
 19 18  2  0  0  0
 18  1  1  0  0  0
 18 17  1  0  0  0
  3  4  1  0  0  0
  1  7  2  0  0  0
  4  5  2  0  0  0
  4  8  1  0  0  0
  5  6  1  0  0  0
  7  8  1  0  0  0
  7 11  1  0  0  0
  8  9  2  0  0  0
 11 12  2  0  0  0
  6 10  2  0  0  0
  9 10  1  0  0  0
  9 13  1  0  0  0
 12 13  1  0  0  0
 10 16  1  0  0  0
 13 14  2  0  0  0
 29 27  2  0  0  0
 16 27  1  0  0  0
 16 15  2  0  0  0
 14 15  1  0  0  0
 14 32  1  0  0  0
 27 28  2  0  0  0
 27 30  1  0  0  0
 32 33  1  0  0  0
 17 21  1  0  0  0
 25 26  1  0  0  0
 30 31  1  0  0  0
M  END
> <minimizedAffinity>
-6.55852

$$$$
4NJ9_2M9_H_501


 33 36  0  0  0  0  0  0  0  0999 V2000
    5.8229   21.5773   57.1625 C   0  0  0  0  0  0  0  0  0  0  0  0
    6.0017   21.4284   58.5728 C   0  0  0  0  0  0  0  0  0  0  0  0
    5.1569   20.6486   59.4353 C   0  0  0  0  0  0  0  0  0  0  0  0
    4.0811   19.9770   58.8300 C   0  0  0  0  0  0  0  0  0  0  0  0
    3.1745   19.2052   59.5826 C   0  0  0  0  0  0  0  0  0  0  0  0
    2.0984   18.5344   59.0061 C   0  0  0  0  0  0  0  0  0  0  0  0
    4.7201   20.8670   56.5788 C   0  0  0  0  0  0  0  0  0  0  0  0
    3.8418   20.0942   57.4082 C   0  0  0  0  0  0  0  0  0  0  0  0
    2.7225   19.4047   56.8412 C   0  0  0  0  0  0  0  0  0  0  0  0
    1.8511   18.6226   57.6116 C   0  0  0  0  0  0  0  0  0  0  0  0
    4.4261   20.9696   55.1930 C   0  0  0  0  0  0  0  0  0  0  0  0
    3.3505   20.2885   54.6598 C   0  0  0  0  0  0  0  0  0  0  0  0
    2.5094   19.5059   55.4615 C   0  0  0  0  0  0  0  0  0  0  0  0
    1.4399   18.8636   54.8538 C   0  0  0  0  0  0  0  0  0  0  0  0
    0.5560   18.0773   55.6201 C   0  0  0  0  0  0  0  0  0  0  0  0
    0.7683   17.9052   57.0084 C   0  0  0  0  0  0  0  0  0  0  0  0
    7.7314   23.2254   57.3184 O   0  0  0  0  0  0  0  0  0  0  0  0
    6.8989   22.4944   56.3392 S   0  0  0  0  0  0  0  0  0  0  0  0
    7.6378   21.6825   55.3408 O   0  0  0  0  0  0  0  0  0  0  0  0
    6.2622   23.6051   55.5803 O   0  0  0  0  0  0  0  0  0  0  0  0
    8.3765   23.7756   56.8474 H   0  0  0  0  0  0  0  0  0  0  0  0
    5.4710   20.5486   61.0928 S   0  0  0  0  0  0  0  0  0  0  0  0
    4.3541   21.1864   61.7605 O   0  0  0  0  0  0  0  0  0  0  0  0
    5.6961   19.1657   61.4306 O   0  0  0  0  0  0  0  0  0  0  0  0
    6.6907   21.3138   61.3786 O   0  0  0  0  0  0  0  0  0  0  0  0
    6.8866   21.2673   62.3275 H   0  0  0  0  0  0  0  0  0  0  0  0
   -0.2997   16.9627   57.8429 S   0  0  0  0  0  0  0  0  0  0  0  0
   -1.0380   17.5836   58.9385 O   0  0  0  0  0  0  0  0  0  0  0  0
   -1.3074   16.4434   56.8470 O   0  0  0  0  0  0  0  0  0  0  0  0
    0.3837   15.7456   58.3062 O   0  0  0  0  0  0  0  0  0  0  0  0
    0.8688   15.3460   57.5673 H   0  0  0  0  0  0  0  0  0  0  0  0
    1.3154   19.0437   53.4763 O   0  0  0  0  0  0  0  0  0  0  0  0
    1.4770   17.9488   52.5629 C   0  0  0  0  0  0  0  0  0  0  0  0
 23 22  2  0  0  0
 20 18  2  0  0  0
 24 22  2  0  0  0
 22 25  1  0  0  0
 22  3  1  0  0  0
  2  3  2  0  0  0
  2  1  1  0  0  0
 19 18  2  0  0  0
 18  1  1  0  0  0
 18 17  1  0  0  0
  3  4  1  0  0  0
  1  7  2  0  0  0
  4  5  2  0  0  0
  4  8  1  0  0  0
  5  6  1  0  0  0
  7  8  1  0  0  0
  7 11  1  0  0  0
  8  9  2  0  0  0
 11 12  2  0  0  0
  6 10  2  0  0  0
  9 10  1  0  0  0
  9 13  1  0  0  0
 12 13  1  0  0  0
 10 16  1  0  0  0
 13 14  2  0  0  0
 29 27  2  0  0  0
 16 27  1  0  0  0
 16 15  2  0  0  0
 14 15  1  0  0  0
 14 32  1  0  0  0
 27 28  2  0  0  0
 27 30  1  0  0  0
 32 33  1  0  0  0
 17 21  1  0  0  0
 25 26  1  0  0  0
 30 31  1  0  0  0
M  END
> <minimizedAffinity>
-6.31315

$$$$
4NJ9_2M9_H_501


 33 36  0  0  0  0  0  0  0  0999 V2000
    6.6747   23.0383   55.8844 C   0  0  0  0  0  0  0  0  0  0  0  0
    7.2379   23.9901   56.7899 C   0  0  0  0  0  0  0  0  0  0  0  0
    7.5622   23.7306   58.1658 C   0  0  0  0  0  0  0  0  0  0  0  0
    7.3106   22.4326   58.6420 C   0  0  0  0  0  0  0  0  0  0  0  0
    7.5660   22.0742   59.9799 C   0  0  0  0  0  0  0  0  0  0  0  0
    7.3207   20.7960   60.4762 C   0  0  0  0  0  0  0  0  0  0  0  0
    6.4427   21.7202   56.4042 C   0  0  0  0  0  0  0  0  0  0  0  0
    6.7341   21.4264   57.7773 C   0  0  0  0  0  0  0  0  0  0  0  0
    6.4804   20.1236   58.3139 C   0  0  0  0  0  0  0  0  0  0  0  0
    6.7686   19.7879   59.6438 C   0  0  0  0  0  0  0  0  0  0  0  0
    5.8545   20.7041   55.6048 C   0  0  0  0  0  0  0  0  0  0  0  0
    5.6280   19.4495   56.1337 C   0  0  0  0  0  0  0  0  0  0  0  0
    5.9418   19.1490   57.4656 C   0  0  0  0  0  0  0  0  0  0  0  0
    5.6706   17.8690   57.9278 C   0  0  0  0  0  0  0  0  0  0  0  0
    5.9537   17.5224   59.2644 C   0  0  0  0  0  0  0  0  0  0  0  0
    6.5490   18.4622   60.1388 C   0  0  0  0  0  0  0  0  0  0  0  0
    7.6386   24.0718   53.7902 O   0  0  0  0  0  0  0  0  0  0  0  0
    6.3877   23.5115   54.3448 S   0  0  0  0  0  0  0  0  0  0  0  0
    5.7646   22.4182   53.5583 O   0  0  0  0  0  0  0  0  0  0  0  0
    5.4586   24.6703   54.2516 O   0  0  0  0  0  0  0  0  0  0  0  0
    7.4871   24.3583   52.8760 H   0  0  0  0  0  0  0  0  0  0  0  0
    8.2263   24.9409   59.1404 S   0  0  0  0  0  0  0  0  0  0  0  0
    7.1622   25.3932   60.0140 O   0  0  0  0  0  0  0  0  0  0  0  0
    9.3923   24.4070   59.7980 O   0  0  0  0  0  0  0  0  0  0  0  0
    8.6344   26.0564   58.2778 O   0  0  0  0  0  0  0  0  0  0  0  0
    9.0186   26.7618   58.8215 H   0  0  0  0  0  0  0  0  0  0  0  0
    6.8631   17.9858   61.6880 S   0  0  0  0  0  0  0  0  0  0  0  0
    6.2169   18.7257   62.7678 O   0  0  0  0  0  0  0  0  0  0  0  0
    6.4401   16.5421   61.8040 O   0  0  0  0  0  0  0  0  0  0  0  0
    8.3181   17.9351   61.8963 O   0  0  0  0  0  0  0  0  0  0  0  0
    8.7315   17.4409   61.1712 H   0  0  0  0  0  0  0  0  0  0  0  0
    5.1227   16.9827   57.0006 O   0  0  0  0  0  0  0  0  0  0  0  0
    3.8054   16.4407   57.1745 C   0  0  0  0  0  0  0  0  0  0  0  0
 23 22  2  0  0  0
 20 18  2  0  0  0
 24 22  2  0  0  0
 22 25  1  0  0  0
 22  3  1  0  0  0
  2  3  2  0  0  0
  2  1  1  0  0  0
 19 18  2  0  0  0
 18  1  1  0  0  0
 18 17  1  0  0  0
  3  4  1  0  0  0
  1  7  2  0  0  0
  4  5  2  0  0  0
  4  8  1  0  0  0
  5  6  1  0  0  0
  7  8  1  0  0  0
  7 11  1  0  0  0
  8  9  2  0  0  0
 11 12  2  0  0  0
  6 10  2  0  0  0
  9 10  1  0  0  0
  9 13  1  0  0  0
 12 13  1  0  0  0
 10 16  1  0  0  0
 13 14  2  0  0  0
 29 27  2  0  0  0
 16 27  1  0  0  0
 16 15  2  0  0  0
 14 15  1  0  0  0
 14 32  1  0  0  0
 27 28  2  0  0  0
 27 30  1  0  0  0
 32 33  1  0  0  0
 17 21  1  0  0  0
 25 26  1  0  0  0
 30 31  1  0  0  0
M  END
> <minimizedAffinity>
-6.22700

$$$$
4NJ9_2M9_H_501


 33 36  0  0  0  0  0  0  0  0999 V2000
    4.6465   21.0074   55.3971 C   0  0  0  0  0  0  0  0  0  0  0  0
    3.8098   20.4199   54.3982 C   0  0  0  0  0  0  0  0  0  0  0  0
    2.6543   19.6068   54.6615 C   0  0  0  0  0  0  0  0  0  0  0  0
    2.3270   19.3891   56.0106 C   0  0  0  0  0  0  0  0  0  0  0  0
    1.2310   18.5874   56.3848 C   0  0  0  0  0  0  0  0  0  0  0  0
    0.8896   18.3533   57.7149 C   0  0  0  0  0  0  0  0  0  0  0  0
    4.2735   20.7721   56.7634 C   0  0  0  0  0  0  0  0  0  0  0  0
    3.1390   19.9496   57.0684 C   0  0  0  0  0  0  0  0  0  0  0  0
    2.7745   19.6850   58.4274 C   0  0  0  0  0  0  0  0  0  0  0  0
    1.6625   18.9037   58.7702 C   0  0  0  0  0  0  0  0  0  0  0  0
    5.0516   21.2775   57.8389 C   0  0  0  0  0  0  0  0  0  0  0  0
    4.6794   21.0238   59.1436 C   0  0  0  0  0  0  0  0  0  0  0  0
    3.5527   20.2480   59.4457 C   0  0  0  0  0  0  0  0  0  0  0  0
    3.2521   20.0253   60.7820 C   0  0  0  0  0  0  0  0  0  0  0  0
    2.1380   19.2384   61.1371 C   0  0  0  0  0  0  0  0  0  0  0  0
    1.2944   18.6968   60.1385 C   0  0  0  0  0  0  0  0  0  0  0  0
    5.8023   22.1204   53.4457 O   0  0  0  0  0  0  0  0  0  0  0  0
    5.9127   21.9199   54.9064 S   0  0  0  0  0  0  0  0  0  0  0  0
    6.0277   23.1546   55.7216 O   0  0  0  0  0  0  0  0  0  0  0  0
    7.2206   21.2204   55.0274 O   0  0  0  0  0  0  0  0  0  0  0  0
    6.5462   22.6605   53.1363 H   0  0  0  0  0  0  0  0  0  0  0  0
    1.7411   18.9658   53.3922 S   0  0  0  0  0  0  0  0  0  0  0  0
    2.6139   18.0551   52.6789 O   0  0  0  0  0  0  0  0  0  0  0  0
    0.5431   18.3835   53.9424 O   0  0  0  0  0  0  0  0  0  0  0  0
    1.3675   20.0635   52.4919 O   0  0  0  0  0  0  0  0  0  0  0  0
    0.8417   19.7132   51.7559 H   0  0  0  0  0  0  0  0  0  0  0  0
    0.0011   17.7934   60.6255 S   0  0  0  0  0  0  0  0  0  0  0  0
   -1.3114   18.1493   60.0948 O   0  0  0  0  0  0  0  0  0  0  0  0
    0.2830   16.3643   60.2317 O   0  0  0  0  0  0  0  0  0  0  0  0
   -0.0328   17.7444   62.0950 O   0  0  0  0  0  0  0  0  0  0  0  0
    0.8457   17.5069   62.4309 H   0  0  0  0  0  0  0  0  0  0  0  0
    4.1019   20.6235   61.7123 O   0  0  0  0  0  0  0  0  0  0  0  0
    3.5892   21.4452   62.7711 C   0  0  0  0  0  0  0  0  0  0  0  0
 23 22  2  0  0  0
 20 18  2  0  0  0
 24 22  2  0  0  0
 22 25  1  0  0  0
 22  3  1  0  0  0
  2  3  2  0  0  0
  2  1  1  0  0  0
 19 18  2  0  0  0
 18  1  1  0  0  0
 18 17  1  0  0  0
  3  4  1  0  0  0
  1  7  2  0  0  0
  4  5  2  0  0  0
  4  8  1  0  0  0
  5  6  1  0  0  0
  7  8  1  0  0  0
  7 11  1  0  0  0
  8  9  2  0  0  0
 11 12  2  0  0  0
  6 10  2  0  0  0
  9 10  1  0  0  0
  9 13  1  0  0  0
 12 13  1  0  0  0
 10 16  1  0  0  0
 13 14  2  0  0  0
 29 27  2  0  0  0
 16 27  1  0  0  0
 16 15  2  0  0  0
 14 15  1  0  0  0
 14 32  1  0  0  0
 27 28  2  0  0  0
 27 30  1  0  0  0
 32 33  1  0  0  0
 17 21  1  0  0  0
 25 26  1  0  0  0
 30 31  1  0  0  0
M  END
> <minimizedAffinity>
-6.10596

$$$$
