4NJ9_2M9_H_501
  RCSB PDB12061713543D
Coordinates from PDB:4NJ9:H:501 Model:1 without hydrogens
 30 33  0  0  0  0            999 V2000
    5.7690   22.6200   55.5280   O 0  0  0  0  0  0  0  0  0  0  0  0
    5.9200   21.4590   54.6250   S 0  0  0  0  0  0  0  0  0  0  0  0
    7.3070   20.9700   54.4270   O 0  0  0  0  0  0  0  0  0  0  0  0
    5.4890   22.0230   53.3170   O 0  0  0  0  0  0  0  0  0  0  0  0
    4.9450   20.2600   55.1620   C 0  0  0  0  0  0  0  0  0  0  0  0
    3.7580   19.9710   54.4200   C 0  0  0  0  0  0  0  0  0  0  0  0
    2.7930   18.9630   54.7640   C 0  0  0  0  0  0  0  0  0  0  0  0
    1.4240   18.7140   53.8050   S 0  0  0  0  0  0  0  0  0  0  0  0
    1.4520   19.7360   52.7780   O 0  0  0  0  0  0  0  0  0  0  0  0
    1.4400   17.3520   53.3340   O 0  0  0  0  0  0  0  0  0  0  0  0
    0.2330   18.9160   54.6390   O 0  0  0  0  0  0  0  0  0  0  0  0
    3.0430   18.2180   55.9290   C 0  0  0  0  0  0  0  0  0  0  0  0
    2.1780   17.1880   56.3470   C 0  0  0  0  0  0  0  0  0  0  0  0
    2.4070   16.4330   57.4950   C 0  0  0  0  0  0  0  0  0  0  0  0
    5.1600   19.4860   56.3520   C 0  0  0  0  0  0  0  0  0  0  0  0
    4.2310   18.4570   56.7190   C 0  0  0  0  0  0  0  0  0  0  0  0
    4.4500   17.6600   57.8880   C 0  0  0  0  0  0  0  0  0  0  0  0
    3.5580   16.6580   58.2940   C 0  0  0  0  0  0  0  0  0  0  0  0
    6.3230   19.6630   57.1480   C 0  0  0  0  0  0  0  0  0  0  0  0
    6.5130   18.8950   58.2790   C 0  0  0  0  0  0  0  0  0  0  0  0
    5.5910   17.9110   58.6590   C 0  0  0  0  0  0  0  0  0  0  0  0
    5.8600   17.1700   59.8010   C 0  0  0  0  0  0  0  0  0  0  0  0
    7.0310   17.4960   60.4850   O 0  0  0  0  0  0  0  0  0  0  0  0
    7.7110   16.5320   61.3020   C 0  0  0  0  0  0  0  0  0  0  0  0
    4.9710   16.1580   60.2160   C 0  0  0  0  0  0  0  0  0  0  0  0
    3.7790   15.9100   59.4950   C 0  0  0  0  0  0  0  0  0  0  0  0
    2.7780   14.7170   60.0430   S 0  0  0  0  0  0  0  0  0  0  0  0
    1.3810   15.0640   60.2860   O 0  0  0  0  0  0  0  0  0  0  0  0
    2.8040   13.6090   59.0190   O 0  0  0  0  0  0  0  0  0  0  0  0
    3.3700   14.0950   61.2370   O 0  0  0  0  0  0  0  0  0  0  0  0
  9  8  2  0  0  0  0
  4  2  2  0  0  0  0
 10  8  2  0  0  0  0
  8 11  1  0  0  0  0
  8  7  1  0  0  0  0
  6  7  2  0  0  0  0
  6  5  1  0  0  0  0
  3  2  2  0  0  0  0
  2  5  1  0  0  0  0
  2  1  1  0  0  0  0
  7 12  1  0  0  0  0
  5 15  2  0  0  0  0
 12 13  2  0  0  0  0
 12 16  1  0  0  0  0
 13 14  1  0  0  0  0
 15 16  1  0  0  0  0
 15 19  1  0  0  0  0
 16 17  2  0  0  0  0
 19 20  2  0  0  0  0
 14 18  2  0  0  0  0
 17 18  1  0  0  0  0
 17 21  1  0  0  0  0
 20 21  1  0  0  0  0
 18 26  1  0  0  0  0
 21 22  2  0  0  0  0
 29 27  2  0  0  0  0
 26 27  1  0  0  0  0
 26 25  2  0  0  0  0
 22 25  1  0  0  0  0
 22 23  1  0  0  0  0
 27 28  2  0  0  0  0
 27 30  1  0  0  0  0
 23 24  1  0  0  0  0
A    1
OAJ
A    2
SBD
A    3
OAC
A    4
OAD
A    5
CAT
A    6
CAM
A    7
CAS
A    8
SBC
A    9
OAA
A   10
OAB
A   11
OAI
A   12
CAW
A   13
CAO
A   14
CAP
A   15
CAX
A   16
CBA
A   17
CBB
A   18
CAY
A   19
CAQ
A   20
CAR
A   21
CAZ
A   22
CAV
A   23
OBF
A   24
CAG
A   25
CAN
A   26
CAU
A   27
SBE
A   28
OAK
A   29
OAE
A   30
OAF
M  END
>  <InstanceId>
4NJ9_2M9_H_501

>  <ChemCompId>
2M9

>  <PdbId>
4NJ9

>  <ChainId>
H

>  <ResidueNumber>
501

>  <InsertionCode>


>  <Model>
1

>  <AltIds>


>  <MissingHeavyAtoms>
0

>  <ObservedFormula>
C17 O10 S3

>  <Name>
8-methoxypyrene-1,3,6-trisulfonic acid

>  <SystematicName>
8-methoxypyrene-1,3,6-trisulfonic acid

>  <Synonyms>


>  <Type>
NON-POLYMER

>  <Formula>
C17 H12 O10 S3

>  <MolecularWeight>
472.466

>  <ModifiedDate>
2014-11-07

>  <Parent>


>  <OneLetterCode>


>  <SubcomponentList>


>  <AmbiguousFlag>
N

>  <InChI>
InChI=1S/C17H12O10S3/c1-27-12-6-13(28(18,19)20)9-4-5-11-15(30(24,25)26)7-14(29(21,22)23)10-3-2-8(12)16(9)17(10)11/h2-7H,1H3,(H,18,19,20)(H,21,22,23)(H,24,25,26)

>  <InChIKey>
CTERCLHSWSQHSD-UHFFFAOYSA-N

>  <SMILES>
COc1cc(c2ccc3c(cc(c4c3c2c1cc4)S(=O)(=O)O)S(=O)(=O)O)S(=O)(=O)O

$$$$
