5FTO_YMX_A_2402


 44 49  0  0  0  0  0  0  0  0999 V2000
    2.4739   17.9919    8.4551 N   0  0  0  0  0  0  0  0  0  0  0  0
    2.8034   18.3966    7.2320 C   0  0  0  0  0  0  0  0  0  0  0  0
    3.2945   17.6783    6.4073 O   0  0  0  0  0  0  0  0  0  0  0  0
    1.9199   18.5994    8.9966 H   0  0  0  0  0  0  0  0  0  0  0  0
    4.6375   14.1389   10.1011 C   0  0  0  0  0  0  0  0  0  0  0  0
    3.7185   15.0608    9.8571 C   0  0  0  0  0  0  0  0  0  0  0  0
    2.4976   15.1571   10.2202 N   0  0  0  0  0  0  0  0  0  0  0  0
    1.9631   16.2359    9.7378 N   0  0  0  0  0  0  0  0  0  0  0  0
    2.8308   16.8313    9.0109 C   0  0  0  0  0  0  0  0  0  0  0  0
    3.9665   16.1123    9.0975 C   0  0  0  0  0  0  0  0  0  0  0  0
    5.1697   16.2494    8.5785 C   0  0  0  0  0  0  0  0  0  0  0  0
    6.1823   15.3465    8.8035 C   0  0  0  0  0  0  0  0  0  0  0  0
    5.9071   14.2558    9.5959 C   0  0  0  0  0  0  0  0  0  0  0  0
    2.0278   14.5035   10.7871 H   0  0  0  0  0  0  0  0  0  0  0  0
    7.4501   15.5296    8.2876 C   0  0  0  0  0  0  0  0  0  0  0  0
    8.0552   16.6709    8.8415 C   0  0  0  0  0  0  0  0  0  0  0  0
    8.1247   17.8524    8.1284 C   0  0  0  0  0  0  0  0  0  0  0  0
    8.7229   18.9712    8.6899 C   0  0  0  0  0  0  0  0  0  0  0  0
    8.7558   19.8604    8.1252 F   0  0  0  0  0  0  0  0  0  0  0  0
    9.2568   18.9084    9.9713 C   0  0  0  0  0  0  0  0  0  0  0  0
    9.2134   17.7465   10.7158 C   0  0  0  0  0  0  0  0  0  0  0  0
    9.6088   17.6797   11.6642 F   0  0  0  0  0  0  0  0  0  0  0  0
    8.5995   16.6693   10.1277 C   0  0  0  0  0  0  0  0  0  0  0  0
    2.4265   19.7201    6.9074 C   0  0  0  0  0  0  0  0  0  0  0  0
    1.1489   20.1452    7.1080 C   0  0  0  0  0  0  0  0  0  0  0  0
    0.6971   21.3858    6.8319 C   0  0  0  0  0  0  0  0  0  0  0  0
    1.5440   22.3174    6.3026 C   0  0  0  0  0  0  0  0  0  0  0  0
    2.8209   21.9553    6.0371 C   0  0  0  0  0  0  0  0  0  0  0  0
    3.2583   20.6904    6.3433 C   0  0  0  0  0  0  0  0  0  0  0  0
    1.0691   23.4930    6.0100 N   0  0  0  0  0  0  0  0  0  0  0  0
    1.9706   24.3083    5.2494 C   0  0  0  0  0  0  0  0  0  0  0  0
    1.3336   25.6001    4.8503 C   0  0  0  0  0  0  0  0  0  0  0  0
    0.9048   26.3041    6.0114 N   0  0  0  0  0  0  0  0  0  0  0  0
    0.1509   27.4670    5.7216 C   0  0  0  0  0  0  0  0  0  0  0  0
   -0.0176   25.4246    6.6236 C   0  0  0  0  0  0  0  0  0  0  0  0
    0.7328   24.2745    7.1435 C   0  0  0  0  0  0  0  0  0  0  0  0
    4.4914   20.3623    6.0911 N   0  0  0  0  0  0  0  0  0  0  0  0
    4.8304   19.5130    6.4557 H   0  0  0  0  0  0  0  0  0  0  0  0
    5.3755   21.1611    5.3192 C   0  0  0  0  0  0  0  0  0  0  0  0
    6.6201   21.2233    6.0348 C   0  0  0  0  0  0  0  0  0  0  0  0
    7.5801   21.9768    5.2187 C   0  0  0  0  0  0  0  0  0  0  0  0
    7.9806   21.2085    4.2310 O   0  0  0  0  0  0  0  0  0  0  0  0
    6.8684   21.0924    3.4094 C   0  0  0  0  0  0  0  0  0  0  0  0
    5.6799   20.4399    4.1086 C   0  0  0  0  0  0  0  0  0  0  0  0
  5  6  2  0  0  0
  5 13  1  0  0  0
  6  7  1  0  0  0
  6 10  1  0  0  0
  7  8  1  0  0  0
  8  9  2  0  0  0
  9  1  1  0  0  0
  9 10  1  0  0  0
  1  2  1  0  0  0
  2  3  2  0  0  0
  2 24  1  0  0  0
 24 25  2  0  0  0
 24 29  1  0  0  0
 25 26  1  0  0  0
 26 27  2  0  0  0
 27 30  1  0  0  0
 27 28  1  0  0  0
 30 31  1  0  0  0
 30 36  1  0  0  0
 31 32  1  0  0  0
 32 33  1  0  0  0
 33 34  1  0  0  0
 33 35  1  0  0  0
 35 36  1  0  0  0
 28 29  2  0  0  0
 29 37  1  0  0  0
 37 39  1  0  0  0
 39 40  1  0  0  0
 39 44  1  0  0  0
 40 41  1  0  0  0
 41 42  1  0  0  0
 42 43  1  0  0  0
 43 44  1  0  0  0
 10 11  2  0  0  0
 11 12  1  0  0  0
 12 15  1  0  0  0
 12 13  2  0  0  0
 15 16  1  0  0  0
 16 17  2  0  0  0
 16 23  1  0  0  0
 17 18  1  0  0  0
 18 19  1  0  0  0
 18 20  2  0  0  0
 20 21  1  0  0  0
 21 22  1  0  0  0
 21 23  2  0  0  0
  7 14  1  0  0  0
  1  4  1  0  0  0
 37 38  1  0  0  0
M  END
> <minimizedAffinity>
-12.51411

$$$$
5FTO_YMX_A_2402


 44 49  0  0  0  0  0  0  0  0999 V2000
    2.2202   17.7858    7.8134 N   0  0  0  0  0  0  0  0  0  0  0  0
    2.7449   19.0074    7.8382 C   0  0  0  0  0  0  0  0  0  0  0  0
    3.7273   19.2929    8.4630 O   0  0  0  0  0  0  0  0  0  0  0  0
    1.5249   17.6077    7.1395 H   0  0  0  0  0  0  0  0  0  0  0  0
    4.3194   14.3996   10.3359 C   0  0  0  0  0  0  0  0  0  0  0  0
    3.4128   15.2448    9.8694 C   0  0  0  0  0  0  0  0  0  0  0  0
    2.1853   15.4241   10.1742 N   0  0  0  0  0  0  0  0  0  0  0  0
    1.6693   16.3671    9.4485 N   0  0  0  0  0  0  0  0  0  0  0  0
    2.5565   16.7802    8.6251 C   0  0  0  0  0  0  0  0  0  0  0  0
    3.6847   16.0964    8.8972 C   0  0  0  0  0  0  0  0  0  0  0  0
    4.8994   16.1092    8.3875 C   0  0  0  0  0  0  0  0  0  0  0  0
    5.9002   15.2779    8.8332 C   0  0  0  0  0  0  0  0  0  0  0  0
    5.6002   14.3956    9.8456 C   0  0  0  0  0  0  0  0  0  0  0  0
    1.6988   14.9171   10.8638 H   0  0  0  0  0  0  0  0  0  0  0  0
    7.1799   15.3361    8.3174 C   0  0  0  0  0  0  0  0  0  0  0  0
    7.8102   16.5393    8.6785 C   0  0  0  0  0  0  0  0  0  0  0  0
    8.5263   16.6380    9.8561 C   0  0  0  0  0  0  0  0  0  0  0  0
    9.1450   17.8319   10.1975 C   0  0  0  0  0  0  0  0  0  0  0  0
    9.6899   17.8760   11.0986 F   0  0  0  0  0  0  0  0  0  0  0  0
    9.0457   18.9349    9.3580 C   0  0  0  0  0  0  0  0  0  0  0  0
    8.3354   18.8807    8.1753 C   0  0  0  0  0  0  0  0  0  0  0  0
    8.2462   19.6891    7.5438 F   0  0  0  0  0  0  0  0  0  0  0  0
    7.7527   17.6765    7.8698 C   0  0  0  0  0  0  0  0  0  0  0  0
    2.1378   19.9475    6.9741 C   0  0  0  0  0  0  0  0  0  0  0  0
    0.8915   20.4272    7.2385 C   0  0  0  0  0  0  0  0  0  0  0  0
    0.2334   21.3248    6.4765 C   0  0  0  0  0  0  0  0  0  0  0  0
    0.8154   21.8116    5.3409 C   0  0  0  0  0  0  0  0  0  0  0  0
    2.0386   21.3496    4.9908 C   0  0  0  0  0  0  0  0  0  0  0  0
    2.6925   20.4481    5.7937 C   0  0  0  0  0  0  0  0  0  0  0  0
    0.1397   22.6459    4.6056 N   0  0  0  0  0  0  0  0  0  0  0  0
   -1.2756   22.6000    4.8302 C   0  0  0  0  0  0  0  0  0  0  0  0
   -1.9877   23.6509    4.0412 C   0  0  0  0  0  0  0  0  0  0  0  0
   -1.7107   23.4820    2.6548 N   0  0  0  0  0  0  0  0  0  0  0  0
   -2.2184   24.5266    1.8451 C   0  0  0  0  0  0  0  0  0  0  0  0
   -0.3057   23.6143    2.5679 C   0  0  0  0  0  0  0  0  0  0  0  0
    0.2984   22.4413    3.2121 C   0  0  0  0  0  0  0  0  0  0  0  0
    3.8718   20.0225    5.4476 N   0  0  0  0  0  0  0  0  0  0  0  0
    4.0708   19.0645    5.5567 H   0  0  0  0  0  0  0  0  0  0  0  0
    4.8880   20.8627    4.9214 C   0  0  0  0  0  0  0  0  0  0  0  0
    5.7250   21.2517    6.0229 C   0  0  0  0  0  0  0  0  0  0  0  0
    6.8332   22.0562    5.4938 C   0  0  0  0  0  0  0  0  0  0  0  0
    7.6846   21.2521    4.8983 O   0  0  0  0  0  0  0  0  0  0  0  0
    7.0168   20.8213    3.7608 C   0  0  0  0  0  0  0  0  0  0  0  0
    5.7357   20.0567    4.0788 C   0  0  0  0  0  0  0  0  0  0  0  0
  5  6  2  0  0  0
  5 13  1  0  0  0
  6  7  1  0  0  0
  6 10  1  0  0  0
  7  8  1  0  0  0
  8  9  2  0  0  0
  9  1  1  0  0  0
  9 10  1  0  0  0
  1  2  1  0  0  0
  2  3  2  0  0  0
  2 24  1  0  0  0
 24 25  2  0  0  0
 24 29  1  0  0  0
 25 26  1  0  0  0
 26 27  2  0  0  0
 27 30  1  0  0  0
 27 28  1  0  0  0
 30 31  1  0  0  0
 30 36  1  0  0  0
 31 32  1  0  0  0
 32 33  1  0  0  0
 33 34  1  0  0  0
 33 35  1  0  0  0
 35 36  1  0  0  0
 28 29  2  0  0  0
 29 37  1  0  0  0
 37 39  1  0  0  0
 39 40  1  0  0  0
 39 44  1  0  0  0
 40 41  1  0  0  0
 41 42  1  0  0  0
 42 43  1  0  0  0
 43 44  1  0  0  0
 10 11  2  0  0  0
 11 12  1  0  0  0
 12 15  1  0  0  0
 12 13  2  0  0  0
 15 16  1  0  0  0
 16 17  2  0  0  0
 16 23  1  0  0  0
 17 18  1  0  0  0
 18 19  1  0  0  0
 18 20  2  0  0  0
 20 21  1  0  0  0
 21 22  1  0  0  0
 21 23  2  0  0  0
  7 14  1  0  0  0
  1  4  1  0  0  0
 37 38  1  0  0  0
M  END
> <minimizedAffinity>
-12.23304

$$$$
5FTO_YMX_A_2402


 44 49  0  0  0  0  0  0  0  0999 V2000
    7.7240   20.2969    6.7980 N   0  0  0  0  0  0  0  0  0  0  0  0
    6.4848   20.7784    6.8241 C   0  0  0  0  0  0  0  0  0  0  0  0
    5.7872   20.7573    7.7988 O   0  0  0  0  0  0  0  0  0  0  0  0
    8.2761   20.5162    6.0129 H   0  0  0  0  0  0  0  0  0  0  0  0
    9.1182   16.9183    9.7775 C   0  0  0  0  0  0  0  0  0  0  0  0
    9.0389   18.0665    9.1223 C   0  0  0  0  0  0  0  0  0  0  0  0
    9.7135   19.1468    9.2211 N   0  0  0  0  0  0  0  0  0  0  0  0
    9.2828   20.0311    8.3757 N   0  0  0  0  0  0  0  0  0  0  0  0
    8.2830   19.5411    7.7465 C   0  0  0  0  0  0  0  0  0  0  0  0
    8.1296   18.2779    8.1882 C   0  0  0  0  0  0  0  0  0  0  0  0
    7.2856   17.3097    7.8950 C   0  0  0  0  0  0  0  0  0  0  0  0
    7.3186   16.0830    8.5157 C   0  0  0  0  0  0  0  0  0  0  0  0
    8.2711   15.8795    9.4877 C   0  0  0  0  0  0  0  0  0  0  0  0
   10.4567   19.2884    9.8511 H   0  0  0  0  0  0  0  0  0  0  0  0
    6.4545   15.0648    8.1642 C   0  0  0  0  0  0  0  0  0  0  0  0
    5.2940   15.0982    8.9566 C   0  0  0  0  0  0  0  0  0  0  0  0
    5.1185   14.2021    9.9936 C   0  0  0  0  0  0  0  0  0  0  0  0
    3.9686   14.2494   10.7684 C   0  0  0  0  0  0  0  0  0  0  0  0
    3.8648   13.5577   11.5567 F   0  0  0  0  0  0  0  0  0  0  0  0
    2.9870   15.1968   10.5040 C   0  0  0  0  0  0  0  0  0  0  0  0
    3.1200   16.1068    9.4742 C   0  0  0  0  0  0  0  0  0  0  0  0
    2.4009   16.8118    9.2599 F   0  0  0  0  0  0  0  0  0  0  0  0
    4.2793   16.0338    8.7435 C   0  0  0  0  0  0  0  0  0  0  0  0
    6.0646   21.4397    5.6472 C   0  0  0  0  0  0  0  0  0  0  0  0
    6.8517   22.3864    5.0661 C   0  0  0  0  0  0  0  0  0  0  0  0
    6.5380   23.0674    3.9449 C   0  0  0  0  0  0  0  0  0  0  0  0
    5.3498   22.8313    3.3141 C   0  0  0  0  0  0  0  0  0  0  0  0
    4.4959   21.9320    3.8566 C   0  0  0  0  0  0  0  0  0  0  0  0
    4.8480   21.2413    4.9897 C   0  0  0  0  0  0  0  0  0  0  0  0
    5.0579   23.5323    2.2573 N   0  0  0  0  0  0  0  0  0  0  0  0
    5.8977   24.6799    2.0742 C   0  0  0  0  0  0  0  0  0  0  0  0
    5.5888   25.3831    0.7920 C   0  0  0  0  0  0  0  0  0  0  0  0
    4.2202   25.7758    0.7761 N   0  0  0  0  0  0  0  0  0  0  0  0
    3.7997   26.3113   -0.4652 C   0  0  0  0  0  0  0  0  0  0  0  0
    3.5132   24.5573    0.8966 C   0  0  0  0  0  0  0  0  0  0  0  0
    3.7346   24.0396    2.2527 C   0  0  0  0  0  0  0  0  0  0  0  0
    4.0198   20.3732    5.4919 N   0  0  0  0  0  0  0  0  0  0  0  0
    4.3771   19.5020    5.7793 H   0  0  0  0  0  0  0  0  0  0  0  0
    2.6292   20.6123    5.6485 C   0  0  0  0  0  0  0  0  0  0  0  0
    2.1819   19.7942    6.7420 C   0  0  0  0  0  0  0  0  0  0  0  0
    0.7621   20.0831    6.9789 C   0  0  0  0  0  0  0  0  0  0  0  0
    0.6684   21.2485    7.5782 O   0  0  0  0  0  0  0  0  0  0  0  0
    1.0349   22.1685    6.6062 C   0  0  0  0  0  0  0  0  0  0  0  0
    2.4629   21.9685    6.1085 C   0  0  0  0  0  0  0  0  0  0  0  0
  5  6  2  0  0  0
  5 13  1  0  0  0
  6  7  1  0  0  0
  6 10  1  0  0  0
  7  8  1  0  0  0
  8  9  2  0  0  0
  9  1  1  0  0  0
  9 10  1  0  0  0
  1  2  1  0  0  0
  2  3  2  0  0  0
  2 24  1  0  0  0
 24 25  2  0  0  0
 24 29  1  0  0  0
 25 26  1  0  0  0
 26 27  2  0  0  0
 27 30  1  0  0  0
 27 28  1  0  0  0
 30 31  1  0  0  0
 30 36  1  0  0  0
 31 32  1  0  0  0
 32 33  1  0  0  0
 33 34  1  0  0  0
 33 35  1  0  0  0
 35 36  1  0  0  0
 28 29  2  0  0  0
 29 37  1  0  0  0
 37 39  1  0  0  0
 39 40  1  0  0  0
 39 44  1  0  0  0
 40 41  1  0  0  0
 41 42  1  0  0  0
 42 43  1  0  0  0
 43 44  1  0  0  0
 10 11  2  0  0  0
 11 12  1  0  0  0
 12 15  1  0  0  0
 12 13  2  0  0  0
 15 16  1  0  0  0
 16 17  2  0  0  0
 16 23  1  0  0  0
 17 18  1  0  0  0
 18 19  1  0  0  0
 18 20  2  0  0  0
 20 21  1  0  0  0
 21 22  1  0  0  0
 21 23  2  0  0  0
  7 14  1  0  0  0
  1  4  1  0  0  0
 37 38  1  0  0  0
M  END
> <minimizedAffinity>
-11.36958

$$$$
5FTO_YMX_A_2402


 44 49  0  0  0  0  0  0  0  0999 V2000
    2.8779   18.2666    8.1415 N   0  0  0  0  0  0  0  0  0  0  0  0
    3.1558   18.4417    6.8530 C   0  0  0  0  0  0  0  0  0  0  0  0
    3.3389   17.5381    6.0869 O   0  0  0  0  0  0  0  0  0  0  0  0
    2.5717   19.0537    8.6475 H   0  0  0  0  0  0  0  0  0  0  0  0
    4.1900   14.2573   10.2487 C   0  0  0  0  0  0  0  0  0  0  0  0
    3.4699   15.2965    9.8545 C   0  0  0  0  0  0  0  0  0  0  0  0
    2.2586   15.6264   10.0904 N   0  0  0  0  0  0  0  0  0  0  0  0
    1.9630   16.7352    9.4859 N   0  0  0  0  0  0  0  0  0  0  0  0
    2.9788   17.1134    8.8073 C   0  0  0  0  0  0  0  0  0  0  0  0
    3.9603   16.2239    9.0523 C   0  0  0  0  0  0  0  0  0  0  0  0
    5.2080   16.1132    8.6439 C   0  0  0  0  0  0  0  0  0  0  0  0
    6.0249   15.0753    9.0270 C   0  0  0  0  0  0  0  0  0  0  0  0
    5.4982   14.1167    9.8619 C   0  0  0  0  0  0  0  0  0  0  0  0
    1.6362   15.1109   10.6527 H   0  0  0  0  0  0  0  0  0  0  0  0
    7.3438   14.9992    8.6247 C   0  0  0  0  0  0  0  0  0  0  0  0
    7.9843   16.2414    8.7737 C   0  0  0  0  0  0  0  0  0  0  0  0
    8.9600   16.4244    9.7348 C   0  0  0  0  0  0  0  0  0  0  0  0
    9.5850   17.6558    9.8678 C   0  0  0  0  0  0  0  0  0  0  0  0
   10.3300   17.7644   10.6053 F   0  0  0  0  0  0  0  0  0  0  0  0
    9.2312   18.7118    9.0366 C   0  0  0  0  0  0  0  0  0  0  0  0
    8.2577   18.5733    8.0673 C   0  0  0  0  0  0  0  0  0  0  0  0
    7.9786   19.3458    7.4466 F   0  0  0  0  0  0  0  0  0  0  0  0
    7.6769   17.3346    7.9608 C   0  0  0  0  0  0  0  0  0  0  0  0
    3.1058   19.7790    6.3966 C   0  0  0  0  0  0  0  0  0  0  0  0
    4.1666   20.3278    5.7432 C   0  0  0  0  0  0  0  0  0  0  0  0
    4.2114   21.5902    5.2703 C   0  0  0  0  0  0  0  0  0  0  0  0
    3.1411   22.4210    5.4428 C   0  0  0  0  0  0  0  0  0  0  0  0
    2.0644   21.9580    6.1200 C   0  0  0  0  0  0  0  0  0  0  0  0
    2.0394   20.6634    6.5763 C   0  0  0  0  0  0  0  0  0  0  0  0
    3.2294   23.6452    5.0108 N   0  0  0  0  0  0  0  0  0  0  0  0
    2.7772   23.8165    3.6610 C   0  0  0  0  0  0  0  0  0  0  0  0
    2.7993   25.2552    3.2565 C   0  0  0  0  0  0  0  0  0  0  0  0
    4.1180   25.7740    3.3959 N   0  0  0  0  0  0  0  0  0  0  0  0
    4.2016   27.1712    3.1830 C   0  0  0  0  0  0  0  0  0  0  0  0
    4.4090   25.6045    4.7691 C   0  0  0  0  0  0  0  0  0  0  0  0
    4.5477   24.1655    5.0265 C   0  0  0  0  0  0  0  0  0  0  0  0
    0.9925   20.2316    7.2160 N   0  0  0  0  0  0  0  0  0  0  0  0
    1.0893   20.0106    8.1705 H   0  0  0  0  0  0  0  0  0  0  0  0
   -0.2820   20.0614    6.6143 C   0  0  0  0  0  0  0  0  0  0  0  0
   -1.0392   19.1908    7.4709 C   0  0  0  0  0  0  0  0  0  0  0  0
   -2.3913   19.0628    6.9135 C   0  0  0  0  0  0  0  0  0  0  0  0
   -3.0503   20.1724    7.1598 O   0  0  0  0  0  0  0  0  0  0  0  0
   -2.4466   21.1216    6.3473 C   0  0  0  0  0  0  0  0  0  0  0  0
   -0.9701   21.3270    6.6710 C   0  0  0  0  0  0  0  0  0  0  0  0
  5  6  2  0  0  0
  5 13  1  0  0  0
  6  7  1  0  0  0
  6 10  1  0  0  0
  7  8  1  0  0  0
  8  9  2  0  0  0
  9  1  1  0  0  0
  9 10  1  0  0  0
  1  2  1  0  0  0
  2  3  2  0  0  0
  2 24  1  0  0  0
 24 25  2  0  0  0
 24 29  1  0  0  0
 25 26  1  0  0  0
 26 27  2  0  0  0
 27 30  1  0  0  0
 27 28  1  0  0  0
 30 31  1  0  0  0
 30 36  1  0  0  0
 31 32  1  0  0  0
 32 33  1  0  0  0
 33 34  1  0  0  0
 33 35  1  0  0  0
 35 36  1  0  0  0
 28 29  2  0  0  0
 29 37  1  0  0  0
 37 39  1  0  0  0
 39 40  1  0  0  0
 39 44  1  0  0  0
 40 41  1  0  0  0
 41 42  1  0  0  0
 42 43  1  0  0  0
 43 44  1  0  0  0
 10 11  2  0  0  0
 11 12  1  0  0  0
 12 15  1  0  0  0
 12 13  2  0  0  0
 15 16  1  0  0  0
 16 17  2  0  0  0
 16 23  1  0  0  0
 17 18  1  0  0  0
 18 19  1  0  0  0
 18 20  2  0  0  0
 20 21  1  0  0  0
 21 22  1  0  0  0
 21 23  2  0  0  0
  7 14  1  0  0  0
  1  4  1  0  0  0
 37 38  1  0  0  0
M  END
> <minimizedAffinity>
-10.62191

$$$$
5FTO_YMX_A_2402


 44 49  0  0  0  0  0  0  0  0999 V2000
    3.7346   19.9776    6.5833 N   0  0  0  0  0  0  0  0  0  0  0  0
    4.3348   19.9934    5.3969 C   0  0  0  0  0  0  0  0  0  0  0  0
    4.4282   19.0299    4.6897 O   0  0  0  0  0  0  0  0  0  0  0  0
    3.5529   20.8470    7.0080 H   0  0  0  0  0  0  0  0  0  0  0  0
    3.3725   15.9271    8.9704 C   0  0  0  0  0  0  0  0  0  0  0  0
    3.0713   17.0776    8.3878 C   0  0  0  0  0  0  0  0  0  0  0  0
    1.9629   17.7008    8.2656 N   0  0  0  0  0  0  0  0  0  0  0  0
    2.1316   18.8036    7.6040 N   0  0  0  0  0  0  0  0  0  0  0  0
    3.3572   18.8822    7.2475 C   0  0  0  0  0  0  0  0  0  0  0  0
    3.9797   17.8045    7.7628 C   0  0  0  0  0  0  0  0  0  0  0  0
    5.2240   17.3730    7.7308 C   0  0  0  0  0  0  0  0  0  0  0  0
    5.6185   16.2001    8.3306 C   0  0  0  0  0  0  0  0  0  0  0  0
    4.6597   15.4538    8.9763 C   0  0  0  0  0  0  0  0  0  0  0  0
    1.1009   17.3878    8.6237 H   0  0  0  0  0  0  0  0  0  0  0  0
    6.9359   15.7857    8.3250 C   0  0  0  0  0  0  0  0  0  0  0  0
    7.7764   16.7849    8.8453 C   0  0  0  0  0  0  0  0  0  0  0  0
    8.3559   16.6445   10.0918 C   0  0  0  0  0  0  0  0  0  0  0  0
    9.1854   17.6385   10.5905 C   0  0  0  0  0  0  0  0  0  0  0  0
    9.6187   17.5014   11.5414 F   0  0  0  0  0  0  0  0  0  0  0  0
    9.4356   18.7809    9.8399 C   0  0  0  0  0  0  0  0  0  0  0  0
    8.8724   18.9634    8.5926 C   0  0  0  0  0  0  0  0  0  0  0  0
    9.0418   19.8055    8.0249 F   0  0  0  0  0  0  0  0  0  0  0  0
    8.0713   17.9489    8.1322 C   0  0  0  0  0  0  0  0  0  0  0  0
    4.7635   21.2643    4.9493 C   0  0  0  0  0  0  0  0  0  0  0  0
    6.0001   21.7319    5.2739 C   0  0  0  0  0  0  0  0  0  0  0  0
    6.4967   22.9267    4.8929 C   0  0  0  0  0  0  0  0  0  0  0  0
    5.7375   23.7689    4.1316 C   0  0  0  0  0  0  0  0  0  0  0  0
    4.4804   23.3894    3.8034 C   0  0  0  0  0  0  0  0  0  0  0  0
    4.0062   22.1606    4.1910 C   0  0  0  0  0  0  0  0  0  0  0  0
    6.2290   24.9310    3.8134 N   0  0  0  0  0  0  0  0  0  0  0  0
    7.6422   25.0404    4.0294 C   0  0  0  0  0  0  0  0  0  0  0  0
    8.1680   26.3535    3.5464 C   0  0  0  0  0  0  0  0  0  0  0  0
    7.4919   27.4162    4.2105 N   0  0  0  0  0  0  0  0  0  0  0  0
    7.8162   28.6976    3.7030 C   0  0  0  0  0  0  0  0  0  0  0  0
    6.1344   27.2282    3.8631 C   0  0  0  0  0  0  0  0  0  0  0  0
    5.6613   26.0111    4.5345 C   0  0  0  0  0  0  0  0  0  0  0  0
    2.7995   21.8074    3.8582 N   0  0  0  0  0  0  0  0  0  0  0  0
    2.6807   20.9601    3.3712 H   0  0  0  0  0  0  0  0  0  0  0  0
    1.6443   22.5761    4.1583 C   0  0  0  0  0  0  0  0  0  0  0  0
    0.6962   22.3403    3.1044 C   0  0  0  0  0  0  0  0  0  0  0  0
   -0.5406   23.0604    3.4319 C   0  0  0  0  0  0  0  0  0  0  0  0
   -1.1652   22.4043    4.3835 O   0  0  0  0  0  0  0  0  0  0  0  0
   -0.3710   22.5842    5.5071 C   0  0  0  0  0  0  0  0  0  0  0  0
    1.0341   22.0150    5.3377 C   0  0  0  0  0  0  0  0  0  0  0  0
  5  6  2  0  0  0
  5 13  1  0  0  0
  6  7  1  0  0  0
  6 10  1  0  0  0
  7  8  1  0  0  0
  8  9  2  0  0  0
  9  1  1  0  0  0
  9 10  1  0  0  0
  1  2  1  0  0  0
  2  3  2  0  0  0
  2 24  1  0  0  0
 24 25  2  0  0  0
 24 29  1  0  0  0
 25 26  1  0  0  0
 26 27  2  0  0  0
 27 30  1  0  0  0
 27 28  1  0  0  0
 30 31  1  0  0  0
 30 36  1  0  0  0
 31 32  1  0  0  0
 32 33  1  0  0  0
 33 34  1  0  0  0
 33 35  1  0  0  0
 35 36  1  0  0  0
 28 29  2  0  0  0
 29 37  1  0  0  0
 37 39  1  0  0  0
 39 40  1  0  0  0
 39 44  1  0  0  0
 40 41  1  0  0  0
 41 42  1  0  0  0
 42 43  1  0  0  0
 43 44  1  0  0  0
 10 11  2  0  0  0
 11 12  1  0  0  0
 12 15  1  0  0  0
 12 13  2  0  0  0
 15 16  1  0  0  0
 16 17  2  0  0  0
 16 23  1  0  0  0
 17 18  1  0  0  0
 18 19  1  0  0  0
 18 20  2  0  0  0
 20 21  1  0  0  0
 21 22  1  0  0  0
 21 23  2  0  0  0
  7 14  1  0  0  0
  1  4  1  0  0  0
 37 38  1  0  0  0
M  END
> <minimizedAffinity>
-10.60869

$$$$
5FTO_YMX_A_2402


 44 49  0  0  0  0  0  0  0  0999 V2000
    7.4036   20.1594    7.7667 N   0  0  0  0  0  0  0  0  0  0  0  0
    6.8428   20.0384    6.5671 C   0  0  0  0  0  0  0  0  0  0  0  0
    6.7677   18.9995    5.9736 O   0  0  0  0  0  0  0  0  0  0  0  0
    7.2619   21.0071    8.2468 H   0  0  0  0  0  0  0  0  0  0  0  0
    9.3386   16.2479    9.5533 C   0  0  0  0  0  0  0  0  0  0  0  0
    9.1483   17.5076    9.1916 C   0  0  0  0  0  0  0  0  0  0  0  0
    9.8649   18.5528    9.3520 N   0  0  0  0  0  0  0  0  0  0  0  0
    9.2791   19.5895    8.8378 N   0  0  0  0  0  0  0  0  0  0  0  0
    8.1428   19.2285    8.3752 C   0  0  0  0  0  0  0  0  0  0  0  0
    8.0529   17.8980    8.5655 C   0  0  0  0  0  0  0  0  0  0  0  0
    7.1299   17.0009    8.2844 C   0  0  0  0  0  0  0  0  0  0  0  0
    7.2645   15.6711    8.6079 C   0  0  0  0  0  0  0  0  0  0  0  0
    8.4109   15.2810    9.2613 C   0  0  0  0  0  0  0  0  0  0  0  0
   10.7399   18.5692    9.8030 H   0  0  0  0  0  0  0  0  0  0  0  0
    6.3065   14.7371    8.2658 C   0  0  0  0  0  0  0  0  0  0  0  0
    5.1958   14.8235    9.1228 C   0  0  0  0  0  0  0  0  0  0  0  0
    4.1672   15.7085    8.8620 C   0  0  0  0  0  0  0  0  0  0  0  0
    3.0762   15.7803    9.7161 C   0  0  0  0  0  0  0  0  0  0  0  0
    2.3036   16.4600    9.4886 F   0  0  0  0  0  0  0  0  0  0  0  0
    3.0137   14.9640   10.8390 C   0  0  0  0  0  0  0  0  0  0  0  0
    4.0221   14.0701   11.1393 C   0  0  0  0  0  0  0  0  0  0  0  0
    3.9957   13.4618   11.9696 F   0  0  0  0  0  0  0  0  0  0  0  0
    5.0743   14.0216   10.2598 C   0  0  0  0  0  0  0  0  0  0  0  0
    6.2187   21.2045    6.0673 C   0  0  0  0  0  0  0  0  0  0  0  0
    4.9984   21.5900    6.5315 C   0  0  0  0  0  0  0  0  0  0  0  0
    4.3272   22.6846    6.1183 C   0  0  0  0  0  0  0  0  0  0  0  0
    4.8667   23.4930    5.1586 C   0  0  0  0  0  0  0  0  0  0  0  0
    6.0604   23.1510    4.6198 C   0  0  0  0  0  0  0  0  0  0  0  0
    6.7292   22.0400    5.0708 C   0  0  0  0  0  0  0  0  0  0  0  0
    4.1776   24.5193    4.7522 N   0  0  0  0  0  0  0  0  0  0  0  0
    3.3097   25.0667    5.7536 C   0  0  0  0  0  0  0  0  0  0  0  0
    2.6274   26.3043    5.2670 C   0  0  0  0  0  0  0  0  0  0  0  0
    1.8845   26.0123    4.0880 N   0  0  0  0  0  0  0  0  0  0  0  0
    1.3311   27.1593    3.4694 C   0  0  0  0  0  0  0  0  0  0  0  0
    2.8598   25.5502    3.1746 C   0  0  0  0  0  0  0  0  0  0  0  0
    3.3359   24.2435    3.6458 C   0  0  0  0  0  0  0  0  0  0  0  0
    7.8801   21.7317    4.5493 N   0  0  0  0  0  0  0  0  0  0  0  0
    7.9609   20.8721    4.0763 H   0  0  0  0  0  0  0  0  0  0  0  0
    9.0263   22.5661    4.6242 C   0  0  0  0  0  0  0  0  0  0  0  0
    9.6836   22.2680    5.8669 C   0  0  0  0  0  0  0  0  0  0  0  0
   10.9183   23.0595    5.9329 C   0  0  0  0  0  0  0  0  0  0  0  0
   11.8042   22.5175    5.1282 O   0  0  0  0  0  0  0  0  0  0  0  0
   11.3166   22.7719    3.8542 C   0  0  0  0  0  0  0  0  0  0  0  0
    9.9513   22.1391    3.6042 C   0  0  0  0  0  0  0  0  0  0  0  0
  5  6  2  0  0  0
  5 13  1  0  0  0
  6  7  1  0  0  0
  6 10  1  0  0  0
  7  8  1  0  0  0
  8  9  2  0  0  0
  9  1  1  0  0  0
  9 10  1  0  0  0
  1  2  1  0  0  0
  2  3  2  0  0  0
  2 24  1  0  0  0
 24 25  2  0  0  0
 24 29  1  0  0  0
 25 26  1  0  0  0
 26 27  2  0  0  0
 27 30  1  0  0  0
 27 28  1  0  0  0
 30 31  1  0  0  0
 30 36  1  0  0  0
 31 32  1  0  0  0
 32 33  1  0  0  0
 33 34  1  0  0  0
 33 35  1  0  0  0
 35 36  1  0  0  0
 28 29  2  0  0  0
 29 37  1  0  0  0
 37 39  1  0  0  0
 39 40  1  0  0  0
 39 44  1  0  0  0
 40 41  1  0  0  0
 41 42  1  0  0  0
 42 43  1  0  0  0
 43 44  1  0  0  0
 10 11  2  0  0  0
 11 12  1  0  0  0
 12 15  1  0  0  0
 12 13  2  0  0  0
 15 16  1  0  0  0
 16 17  2  0  0  0
 16 23  1  0  0  0
 17 18  1  0  0  0
 18 19  1  0  0  0
 18 20  2  0  0  0
 20 21  1  0  0  0
 21 22  1  0  0  0
 21 23  2  0  0  0
  7 14  1  0  0  0
  1  4  1  0  0  0
 37 38  1  0  0  0
M  END
> <minimizedAffinity>
-10.45050

$$$$
5FTO_YMX_A_2402


 44 49  0  0  0  0  0  0  0  0999 V2000
    3.9239   20.2221    5.8631 N   0  0  0  0  0  0  0  0  0  0  0  0
    4.8321   21.1324    6.2019 C   0  0  0  0  0  0  0  0  0  0  0  0
    5.3896   21.1478    7.2631 O   0  0  0  0  0  0  0  0  0  0  0  0
    3.6540   20.1853    4.9171 H   0  0  0  0  0  0  0  0  0  0  0  0
    2.7996   16.7855    8.8899 C   0  0  0  0  0  0  0  0  0  0  0  0
    2.7261   17.8610    8.1207 C   0  0  0  0  0  0  0  0  0  0  0  0
    1.7666   18.6710    7.8861 N   0  0  0  0  0  0  0  0  0  0  0  0
    2.1410   19.5902    7.0511 N   0  0  0  0  0  0  0  0  0  0  0  0
    3.3470   19.3537    6.6975 C   0  0  0  0  0  0  0  0  0  0  0  0
    3.7479   18.2708    7.3912 C   0  0  0  0  0  0  0  0  0  0  0  0
    4.8759   17.5921    7.4428 C   0  0  0  0  0  0  0  0  0  0  0  0
    5.0364   16.4785    8.2337 C   0  0  0  0  0  0  0  0  0  0  0  0
    3.9618   16.0638    8.9864 C   0  0  0  0  0  0  0  0  0  0  0  0
    0.8683   18.6066    8.2837 H   0  0  0  0  0  0  0  0  0  0  0  0
    6.2400   15.8055    8.3092 C   0  0  0  0  0  0  0  0  0  0  0  0
    7.2738   16.6728    8.7022 C   0  0  0  0  0  0  0  0  0  0  0  0
    8.0378   16.4026    9.8214 C   0  0  0  0  0  0  0  0  0  0  0  0
    9.0566   17.2671   10.1951 C   0  0  0  0  0  0  0  0  0  0  0  0
    9.6271   17.0322   11.0495 F   0  0  0  0  0  0  0  0  0  0  0  0
    9.3120   18.4100    9.4469 C   0  0  0  0  0  0  0  0  0  0  0  0
    8.5690   18.7202    8.3254 C   0  0  0  0  0  0  0  0  0  0  0  0
    8.7401   19.5651    7.7624 F   0  0  0  0  0  0  0  0  0  0  0  0
    7.5821   17.8301    7.9838 C   0  0  0  0  0  0  0  0  0  0  0  0
    5.2018   22.0332    5.1767 C   0  0  0  0  0  0  0  0  0  0  0  0
    5.7515   21.5759    4.0182 C   0  0  0  0  0  0  0  0  0  0  0  0
    6.1329   22.3557    2.9857 C   0  0  0  0  0  0  0  0  0  0  0  0
    5.9849   23.7111    3.0643 C   0  0  0  0  0  0  0  0  0  0  0  0
    5.4826   24.2429    4.2032 C   0  0  0  0  0  0  0  0  0  0  0  0
    5.0874   23.4244    5.2323 C   0  0  0  0  0  0  0  0  0  0  0  0
    6.3987   24.4396    2.0687 N   0  0  0  0  0  0  0  0  0  0  0  0
    7.5290   23.8891    1.3795 C   0  0  0  0  0  0  0  0  0  0  0  0
    7.8915   24.7090    0.1836 C   0  0  0  0  0  0  0  0  0  0  0  0
    8.1716   26.0464    0.5841 N   0  0  0  0  0  0  0  0  0  0  0  0
    8.3730   26.9318   -0.5022 C   0  0  0  0  0  0  0  0  0  0  0  0
    6.9674   26.4839    1.1821 C   0  0  0  0  0  0  0  0  0  0  0  0
    6.7958   25.7481    2.4412 C   0  0  0  0  0  0  0  0  0  0  0  0
    4.5971   23.9515    6.3155 N   0  0  0  0  0  0  0  0  0  0  0  0
    5.0220   23.7276    7.1750 H   0  0  0  0  0  0  0  0  0  0  0  0
    3.4833   24.8316    6.3273 C   0  0  0  0  0  0  0  0  0  0  0  0
    2.3027   24.0158    6.4038 C   0  0  0  0  0  0  0  0  0  0  0  0
    1.1379   24.9042    6.4999 C   0  0  0  0  0  0  0  0  0  0  0  0
    1.0910   25.3998    7.7157 O   0  0  0  0  0  0  0  0  0  0  0  0
    2.1731   26.2662    7.7787 C   0  0  0  0  0  0  0  0  0  0  0  0
    3.5100   25.5617    7.5702 C   0  0  0  0  0  0  0  0  0  0  0  0
  5  6  2  0  0  0
  5 13  1  0  0  0
  6  7  1  0  0  0
  6 10  1  0  0  0
  7  8  1  0  0  0
  8  9  2  0  0  0
  9  1  1  0  0  0
  9 10  1  0  0  0
  1  2  1  0  0  0
  2  3  2  0  0  0
  2 24  1  0  0  0
 24 25  2  0  0  0
 24 29  1  0  0  0
 25 26  1  0  0  0
 26 27  2  0  0  0
 27 30  1  0  0  0
 27 28  1  0  0  0
 30 31  1  0  0  0
 30 36  1  0  0  0
 31 32  1  0  0  0
 32 33  1  0  0  0
 33 34  1  0  0  0
 33 35  1  0  0  0
 35 36  1  0  0  0
 28 29  2  0  0  0
 29 37  1  0  0  0
 37 39  1  0  0  0
 39 40  1  0  0  0
 39 44  1  0  0  0
 40 41  1  0  0  0
 41 42  1  0  0  0
 42 43  1  0  0  0
 43 44  1  0  0  0
 10 11  2  0  0  0
 11 12  1  0  0  0
 12 15  1  0  0  0
 12 13  2  0  0  0
 15 16  1  0  0  0
 16 17  2  0  0  0
 16 23  1  0  0  0
 17 18  1  0  0  0
 18 19  1  0  0  0
 18 20  2  0  0  0
 20 21  1  0  0  0
 21 22  1  0  0  0
 21 23  2  0  0  0
  7 14  1  0  0  0
  1  4  1  0  0  0
 37 38  1  0  0  0
M  END
> <minimizedAffinity>
-10.44488

$$$$
5FTO_YMX_A_2402


 44 49  0  0  0  0  0  0  0  0999 V2000
    8.5699   20.4693    7.0634 N   0  0  0  0  0  0  0  0  0  0  0  0
    7.3799   20.9818    6.7647 C   0  0  0  0  0  0  0  0  0  0  0  0
    6.4136   20.8627    7.4642 O   0  0  0  0  0  0  0  0  0  0  0  0
    9.3370   20.7662    6.5225 H   0  0  0  0  0  0  0  0  0  0  0  0
    8.7711   16.7923   10.0088 C   0  0  0  0  0  0  0  0  0  0  0  0
    9.0318   17.9472    9.4154 C   0  0  0  0  0  0  0  0  0  0  0  0
    9.8967   18.8529    9.6672 N   0  0  0  0  0  0  0  0  0  0  0  0
    9.7900   19.8313    8.8224 N   0  0  0  0  0  0  0  0  0  0  0  0
    8.8125   19.5859    8.0351 C   0  0  0  0  0  0  0  0  0  0  0  0
    8.3339   18.3746    8.3789 C   0  0  0  0  0  0  0  0  0  0  0  0
    7.3573   17.6200    7.9180 C   0  0  0  0  0  0  0  0  0  0  0  0
    7.0404   16.3994    8.4665 C   0  0  0  0  0  0  0  0  0  0  0  0
    7.7761   15.9693    9.5468 C   0  0  0  0  0  0  0  0  0  0  0  0
   10.5527   18.8138   10.4002 H   0  0  0  0  0  0  0  0  0  0  0  0
    6.0423   15.6018    7.9424 C   0  0  0  0  0  0  0  0  0  0  0  0
    4.7739   16.0759    8.3193 C   0  0  0  0  0  0  0  0  0  0  0  0
    4.1013   15.5232    9.3923 C   0  0  0  0  0  0  0  0  0  0  0  0
    2.8510   16.0039    9.7536 C   0  0  0  0  0  0  0  0  0  0  0  0
    2.3643   15.5675   10.5802 F   0  0  0  0  0  0  0  0  0  0  0  0
    2.2682   17.0420    9.0368 C   0  0  0  0  0  0  0  0  0  0  0  0
    2.9034   17.6186    7.9550 C   0  0  0  0  0  0  0  0  0  0  0  0
    2.4846   18.3844    7.4088 F   0  0  0  0  0  0  0  0  0  0  0  0
    4.1441   17.1227    7.6424 C   0  0  0  0  0  0  0  0  0  0  0  0
    7.3411   21.7953    5.6089 C   0  0  0  0  0  0  0  0  0  0  0  0
    8.4399   22.4985    5.2198 C   0  0  0  0  0  0  0  0  0  0  0  0
    8.4994   23.2969    4.1342 C   0  0  0  0  0  0  0  0  0  0  0  0
    7.3991   23.4503    3.3398 C   0  0  0  0  0  0  0  0  0  0  0  0
    6.2560   22.8137    3.6867 C   0  0  0  0  0  0  0  0  0  0  0  0
    6.2283   21.9943    4.7880 C   0  0  0  0  0  0  0  0  0  0  0  0
    7.4755   24.2580    2.3225 N   0  0  0  0  0  0  0  0  0  0  0  0
    7.6111   25.6378    2.6881 C   0  0  0  0  0  0  0  0  0  0  0  0
    7.8033   26.5045    1.4858 C   0  0  0  0  0  0  0  0  0  0  0  0
    6.7032   26.3442    0.5962 N   0  0  0  0  0  0  0  0  0  0  0  0
    6.8750   27.0096   -0.6417 C   0  0  0  0  0  0  0  0  0  0  0  0
    6.7261   24.9692    0.2680 C   0  0  0  0  0  0  0  0  0  0  0  0
    6.3460   24.2127    1.4677 C   0  0  0  0  0  0  0  0  0  0  0  0
    5.1244   21.3820    5.1010 N   0  0  0  0  0  0  0  0  0  0  0  0
    5.1858   20.4682    5.4622 H   0  0  0  0  0  0  0  0  0  0  0  0
    3.8356   21.9583    4.9508 C   0  0  0  0  0  0  0  0  0  0  0  0
    2.8794   20.8959    5.0989 C   0  0  0  0  0  0  0  0  0  0  0  0
    1.5336   21.4784    5.0291 C   0  0  0  0  0  0  0  0  0  0  0  0
    1.2885   22.0979    6.1615 O   0  0  0  0  0  0  0  0  0  0  0  0
    2.1279   23.2026    6.1409 C   0  0  0  0  0  0  0  0  0  0  0  0
    3.6045   22.8246    6.0798 C   0  0  0  0  0  0  0  0  0  0  0  0
  5  6  2  0  0  0
  5 13  1  0  0  0
  6  7  1  0  0  0
  6 10  1  0  0  0
  7  8  1  0  0  0
  8  9  2  0  0  0
  9  1  1  0  0  0
  9 10  1  0  0  0
  1  2  1  0  0  0
  2  3  2  0  0  0
  2 24  1  0  0  0
 24 25  2  0  0  0
 24 29  1  0  0  0
 25 26  1  0  0  0
 26 27  2  0  0  0
 27 30  1  0  0  0
 27 28  1  0  0  0
 30 31  1  0  0  0
 30 36  1  0  0  0
 31 32  1  0  0  0
 32 33  1  0  0  0
 33 34  1  0  0  0
 33 35  1  0  0  0
 35 36  1  0  0  0
 28 29  2  0  0  0
 29 37  1  0  0  0
 37 39  1  0  0  0
 39 40  1  0  0  0
 39 44  1  0  0  0
 40 41  1  0  0  0
 41 42  1  0  0  0
 42 43  1  0  0  0
 43 44  1  0  0  0
 10 11  2  0  0  0
 11 12  1  0  0  0
 12 15  1  0  0  0
 12 13  2  0  0  0
 15 16  1  0  0  0
 16 17  2  0  0  0
 16 23  1  0  0  0
 17 18  1  0  0  0
 18 19  1  0  0  0
 18 20  2  0  0  0
 20 21  1  0  0  0
 21 22  1  0  0  0
 21 23  2  0  0  0
  7 14  1  0  0  0
  1  4  1  0  0  0
 37 38  1  0  0  0
M  END
> <minimizedAffinity>
-9.99680

$$$$
5FTO_YMX_A_2402


 44 49  0  0  0  0  0  0  0  0999 V2000
    5.8145   20.0868    6.3027 N   0  0  0  0  0  0  0  0  0  0  0  0
    5.2088   21.2553    6.4925 C   0  0  0  0  0  0  0  0  0  0  0  0
    5.6061   22.0903    7.2554 O   0  0  0  0  0  0  0  0  0  0  0  0
    5.5186   19.5452    5.5357 H   0  0  0  0  0  0  0  0  0  0  0  0
    8.7877   17.4611    8.8526 C   0  0  0  0  0  0  0  0  0  0  0  0
    8.2463   18.4806    8.2035 C   0  0  0  0  0  0  0  0  0  0  0  0
    8.6379   19.6855    8.0406 N   0  0  0  0  0  0  0  0  0  0  0  0
    7.7797   20.3509    7.3313 N   0  0  0  0  0  0  0  0  0  0  0  0
    6.7902   19.5858    7.0646 C   0  0  0  0  0  0  0  0  0  0  0  0
    7.0822   18.3795    7.5879 C   0  0  0  0  0  0  0  0  0  0  0  0
    6.4502   17.2238    7.6136 C   0  0  0  0  0  0  0  0  0  0  0  0
    6.9579   16.1142    8.2477 C   0  0  0  0  0  0  0  0  0  0  0  0
    8.1709   16.2366    8.8855 C   0  0  0  0  0  0  0  0  0  0  0  0
    9.4744   20.0573    8.4029 H   0  0  0  0  0  0  0  0  0  0  0  0
    6.3024   14.8988    8.2265 C   0  0  0  0  0  0  0  0  0  0  0  0
    5.2039   14.9080    9.1033 C   0  0  0  0  0  0  0  0  0  0  0  0
    5.1708   14.0756   10.2058 C   0  0  0  0  0  0  0  0  0  0  0  0
    4.0805   14.0982   11.0634 C   0  0  0  0  0  0  0  0  0  0  0  0
    4.0856   13.4569   11.8998 F   0  0  0  0  0  0  0  0  0  0  0  0
    3.0157   14.9562   10.8167 C   0  0  0  0  0  0  0  0  0  0  0  0
    3.0061   15.8000    9.7239 C   0  0  0  0  0  0  0  0  0  0  0  0
    2.2236   16.4381    9.5221 F   0  0  0  0  0  0  0  0  0  0  0  0
    4.1108   15.7557    8.9111 C   0  0  0  0  0  0  0  0  0  0  0  0
    4.1115   21.5167    5.6400 C   0  0  0  0  0  0  0  0  0  0  0  0
    2.9045   20.9283    5.8645 C   0  0  0  0  0  0  0  0  0  0  0  0
    1.8027   21.1173    5.1097 C   0  0  0  0  0  0  0  0  0  0  0  0
    1.8539   21.9444    4.0241 C   0  0  0  0  0  0  0  0  0  0  0  0
    3.0323   22.5336    3.7137 C   0  0  0  0  0  0  0  0  0  0  0  0
    4.1340   22.3364    4.5089 C   0  0  0  0  0  0  0  0  0  0  0  0
    0.7858   22.0754    3.2925 N   0  0  0  0  0  0  0  0  0  0  0  0
    0.9683   22.9196    2.1481 C   0  0  0  0  0  0  0  0  0  0  0  0
   -0.2544   22.9460    1.2889 C   0  0  0  0  0  0  0  0  0  0  0  0
   -1.3689   23.3971    2.0517 N   0  0  0  0  0  0  0  0  0  0  0  0
   -2.6013   23.3061    1.3608 C   0  0  0  0  0  0  0  0  0  0  0  0
   -1.4747   22.4498    3.0960 C   0  0  0  0  0  0  0  0  0  0  0  0
   -0.3201   22.6282    3.9855 C   0  0  0  0  0  0  0  0  0  0  0  0
    5.2558   22.9186    4.2020 N   0  0  0  0  0  0  0  0  0  0  0  0
    5.6506   23.5408    4.8549 H   0  0  0  0  0  0  0  0  0  0  0  0
    5.9426   22.7066    2.9777 C   0  0  0  0  0  0  0  0  0  0  0  0
    6.7627   23.8643    2.7490 C   0  0  0  0  0  0  0  0  0  0  0  0
    7.5469   23.6360    1.5291 C   0  0  0  0  0  0  0  0  0  0  0  0
    8.5105   22.7869    1.8059 O   0  0  0  0  0  0  0  0  0  0  0  0
    7.8594   21.5787    2.0110 C   0  0  0  0  0  0  0  0  0  0  0  0
    6.8754   21.6253    3.1757 C   0  0  0  0  0  0  0  0  0  0  0  0
  5  6  2  0  0  0
  5 13  1  0  0  0
  6  7  1  0  0  0
  6 10  1  0  0  0
  7  8  1  0  0  0
  8  9  2  0  0  0
  9  1  1  0  0  0
  9 10  1  0  0  0
  1  2  1  0  0  0
  2  3  2  0  0  0
  2 24  1  0  0  0
 24 25  2  0  0  0
 24 29  1  0  0  0
 25 26  1  0  0  0
 26 27  2  0  0  0
 27 30  1  0  0  0
 27 28  1  0  0  0
 30 31  1  0  0  0
 30 36  1  0  0  0
 31 32  1  0  0  0
 32 33  1  0  0  0
 33 34  1  0  0  0
 33 35  1  0  0  0
 35 36  1  0  0  0
 28 29  2  0  0  0
 29 37  1  0  0  0
 37 39  1  0  0  0
 39 40  1  0  0  0
 39 44  1  0  0  0
 40 41  1  0  0  0
 41 42  1  0  0  0
 42 43  1  0  0  0
 43 44  1  0  0  0
 10 11  2  0  0  0
 11 12  1  0  0  0
 12 15  1  0  0  0
 12 13  2  0  0  0
 15 16  1  0  0  0
 16 17  2  0  0  0
 16 23  1  0  0  0
 17 18  1  0  0  0
 18 19  1  0  0  0
 18 20  2  0  0  0
 20 21  1  0  0  0
 21 22  1  0  0  0
 21 23  2  0  0  0
  7 14  1  0  0  0
  1  4  1  0  0  0
 37 38  1  0  0  0
M  END
> <minimizedAffinity>
-9.97195

$$$$
5FTO_YMX_A_2402


 44 49  0  0  0  0  0  0  0  0999 V2000
    5.7535   20.0789    6.3266 N   0  0  0  0  0  0  0  0  0  0  0  0
    5.1612   21.2558    6.5061 C   0  0  0  0  0  0  0  0  0  0  0  0
    5.5843   22.1044    7.2396 O   0  0  0  0  0  0  0  0  0  0  0  0
    5.4337   19.5227    5.5798 H   0  0  0  0  0  0  0  0  0  0  0  0
    8.7910   17.4818    8.8297 C   0  0  0  0  0  0  0  0  0  0  0  0
    8.2293   18.4963    8.1900 C   0  0  0  0  0  0  0  0  0  0  0  0
    8.6056   19.7056    8.0232 N   0  0  0  0  0  0  0  0  0  0  0  0
    7.7303   20.3627    7.3273 N   0  0  0  0  0  0  0  0  0  0  0  0
    6.7453   19.5874    7.0737 C   0  0  0  0  0  0  0  0  0  0  0  0
    7.0577   18.3835    7.5910 C   0  0  0  0  0  0  0  0  0  0  0  0
    6.4386   17.2211    7.6240 C   0  0  0  0  0  0  0  0  0  0  0  0
    6.9672   16.1161    8.2491 C   0  0  0  0  0  0  0  0  0  0  0  0
    8.1879   16.2508    8.8697 C   0  0  0  0  0  0  0  0  0  0  0  0
    9.4433   20.0858    8.3740 H   0  0  0  0  0  0  0  0  0  0  0  0
    6.3246   14.8938    8.2355 C   0  0  0  0  0  0  0  0  0  0  0  0
    5.2439   14.8873    9.1342 C   0  0  0  0  0  0  0  0  0  0  0  0
    4.1591   15.7216    8.9435 C   0  0  0  0  0  0  0  0  0  0  0  0
    3.0988   15.7016    9.8380 C   0  0  0  0  0  0  0  0  0  0  0  0
    2.2819   16.3443    9.6638 F   0  0  0  0  0  0  0  0  0  0  0  0
    3.1237   14.8441   10.9313 C   0  0  0  0  0  0  0  0  0  0  0  0
    4.1904   13.9985   11.1619 C   0  0  0  0  0  0  0  0  0  0  0  0
    4.2288   13.3608   11.9694 F   0  0  0  0  0  0  0  0  0  0  0  0
    5.2098   14.0403   10.2441 C   0  0  0  0  0  0  0  0  0  0  0  0
    4.0438   21.5067    5.6770 C   0  0  0  0  0  0  0  0  0  0  0  0
    2.8354   20.9442    5.9543 C   0  0  0  0  0  0  0  0  0  0  0  0
    1.7152   21.1259    5.2253 C   0  0  0  0  0  0  0  0  0  0  0  0
    1.7470   21.9172    4.1126 C   0  0  0  0  0  0  0  0  0  0  0  0
    2.9243   22.4784    3.7503 C   0  0  0  0  0  0  0  0  0  0  0  0
    4.0455   22.2897    4.5200 C   0  0  0  0  0  0  0  0  0  0  0  0
    0.6603   22.0412    3.4077 N   0  0  0  0  0  0  0  0  0  0  0  0
    0.8730   22.6214    2.1138 C   0  0  0  0  0  0  0  0  0  0  0  0
   -0.3868   22.6389    1.3099 C   0  0  0  0  0  0  0  0  0  0  0  0
   -1.3930   23.3654    2.0079 N   0  0  0  0  0  0  0  0  0  0  0  0
   -2.6665   23.3019    1.3923 C   0  0  0  0  0  0  0  0  0  0  0  0
   -1.5478   22.6560    3.2211 C   0  0  0  0  0  0  0  0  0  0  0  0
   -0.3295   22.8523    4.0169 C   0  0  0  0  0  0  0  0  0  0  0  0
    5.1663   22.8447    4.1630 N   0  0  0  0  0  0  0  0  0  0  0  0
    5.9737   22.2825    4.1299 H   0  0  0  0  0  0  0  0  0  0  0  0
    5.2898   24.2164    3.8184 C   0  0  0  0  0  0  0  0  0  0  0  0
    5.3397   24.9568    5.0490 C   0  0  0  0  0  0  0  0  0  0  0  0
    5.5496   26.3728    4.7230 C   0  0  0  0  0  0  0  0  0  0  0  0
    6.8031   26.5367    4.3655 O   0  0  0  0  0  0  0  0  0  0  0  0
    6.8997   25.8974    3.1377 C   0  0  0  0  0  0  0  0  0  0  0  0
    6.5871   24.4065    3.2190 C   0  0  0  0  0  0  0  0  0  0  0  0
  5  6  2  0  0  0
  5 13  1  0  0  0
  6  7  1  0  0  0
  6 10  1  0  0  0
  7  8  1  0  0  0
  8  9  2  0  0  0
  9  1  1  0  0  0
  9 10  1  0  0  0
  1  2  1  0  0  0
  2  3  2  0  0  0
  2 24  1  0  0  0
 24 25  2  0  0  0
 24 29  1  0  0  0
 25 26  1  0  0  0
 26 27  2  0  0  0
 27 30  1  0  0  0
 27 28  1  0  0  0
 30 31  1  0  0  0
 30 36  1  0  0  0
 31 32  1  0  0  0
 32 33  1  0  0  0
 33 34  1  0  0  0
 33 35  1  0  0  0
 35 36  1  0  0  0
 28 29  2  0  0  0
 29 37  1  0  0  0
 37 39  1  0  0  0
 39 40  1  0  0  0
 39 44  1  0  0  0
 40 41  1  0  0  0
 41 42  1  0  0  0
 42 43  1  0  0  0
 43 44  1  0  0  0
 10 11  2  0  0  0
 11 12  1  0  0  0
 12 15  1  0  0  0
 12 13  2  0  0  0
 15 16  1  0  0  0
 16 17  2  0  0  0
 16 23  1  0  0  0
 17 18  1  0  0  0
 18 19  1  0  0  0
 18 20  2  0  0  0
 20 21  1  0  0  0
 21 22  1  0  0  0
 21 23  2  0  0  0
  7 14  1  0  0  0
  1  4  1  0  0  0
 37 38  1  0  0  0
M  END
> <minimizedAffinity>
-9.82268

$$$$
