4AFG_QMR_A_1214
  RCSB PDB12061711403D
Coordinates from PDB:4AFG:A:1214 Model:1 without hydrogens
 16 19  0  0  0  0            999 V2000
   46.4010   -4.1070   13.8550   C 0  0  0  0  0  0  0  0  0  0  0  0
   44.9110   -4.2010   13.9650   N 0  0  0  0  0  0  0  0  0  0  0  0
   44.1410   -3.2140   13.0450   C 0  0  0  0  0  0  0  0  0  0  0  0
   44.8150   -1.9330   12.9480   C 0  0  0  0  0  0  0  0  0  0  0  0
   46.2280   -2.1000   12.5880   C 0  0  0  0  0  0  0  0  0  0  0  0
   46.8960   -2.7320   13.7010   C 0  0  0  0  0  0  0  0  0  0  0  0
   46.2420   -1.9610   14.6730   C 0  0  0  0  0  0  0  0  0  0  0  0
   46.6940   -1.6410   15.9850   C 0  0  0  0  0  0  0  0  0  0  0  0
   45.8900   -0.8330   16.8420   C 0  0  0  0  0  0  0  0  0  0  0  0
   46.3530   -0.5080   18.1260   N 0  0  0  0  0  0  0  0  0  0  0  0
   45.5860    0.2470   18.9370   C 0  0  0  0  0  0  0  0  0  0  0  0
   44.3510    0.7350   18.5270   C 0  0  0  0  0  0  0  0  0  0  0  0
   43.9070    0.4430   17.2880   N 0  0  0  0  0  0  0  0  0  0  0  0
   44.6970   -0.3640   16.4370   C 0  0  0  0  0  0  0  0  0  0  0  0
   44.2240   -0.6500   15.1330   C 0  0  0  0  0  0  0  0  0  0  0  0
   45.0140   -1.4680   14.2640   C 0  0  0  0  0  0  0  0  0  0  0  0
  1  2  1  0  0  0  0
  1  6  1  0  0  0  0
  2  3  1  0  0  0  0
  3  4  1  0  0  0  0
  4  5  1  0  0  0  0
  4 16  1  0  0  0  0
  5  6  1  0  0  0  0
  6  7  1  0  0  0  0
  7  8  2  0  0  0  0
  7 16  1  0  0  0  0
  8  9  1  0  0  0  0
  9 10  2  0  0  0  0
  9 14  1  0  0  0  0
 10 11  1  0  0  0  0
 11 12  2  0  0  0  0
 12 13  1  0  0  0  0
 13 14  2  0  0  0  0
 14 15  1  0  0  0  0
 15 16  2  0  0  0  0
A    1
C01
A    2
N02
A    3
C03
A    4
C04
A    5
C05
A    6
C06
A    7
C07
A    8
C08
A    9
C09
A   10
N10
A   11
C11
A   12
C12
A   13
N13
A   14
C14
A   15
C15
A   16
C16
M  END
>  <InstanceId>
4AFG_QMR_A_1214

>  <ChemCompId>
QMR

>  <PdbId>
4AFG

>  <ChainId>
A

>  <ResidueNumber>
1214

>  <InsertionCode>


>  <Model>
1

>  <AltIds>


>  <MissingHeavyAtoms>
0

>  <ObservedFormula>
C13 N3

>  <Name>
VARENICLINE

>  <SystematicName>


>  <Synonyms>


>  <Type>
non-polymer

>  <Formula>
C13 H13 N3

>  <MolecularWeight>
211.262

>  <ModifiedDate>
2014-04-28

>  <Parent>


>  <OneLetterCode>


>  <SubcomponentList>


>  <AmbiguousFlag>
N

>  <InChI>
InChI=1S/C13H13N3/c1-2-16-13-5-11-9-3-8(6-14-7-9)10(11)4-12(13)15-1/h1-2,4-5,8-9,14H,3,6-7H2/t8-,9+

>  <InChIKey>
JQSHBVHOMNKWFT-DTORHVGOSA-N

>  <SMILES>
c1cnc2cc3c(cc2n1)[C@@H]4C[C@H]3CNC4

$$$$
