3R17_5UM_B_1


 23 24  0  0  0  0  0  0  0  0999 V2000
   15.5817    2.2999   16.0725 C   0  0  0  0  0  0  0  0  0  0  0  0
   14.4609    5.2790   14.3970 F   0  0  0  0  0  0  0  0  0  0  0  0
   14.7534    3.3266   15.6515 C   0  0  0  0  0  0  0  0  0  0  0  0
   15.2504    4.2833   14.7880 C   0  0  0  0  0  0  0  0  0  0  0  0
   16.5544    4.2163   14.3397 C   0  0  0  0  0  0  0  0  0  0  0  0
   17.3892    3.1875   14.7525 C   0  0  0  0  0  0  0  0  0  0  0  0
   16.8973    2.2344   15.6323 C   0  0  0  0  0  0  0  0  0  0  0  0
   15.7405   -0.2927   17.0522 N   0  0  0  0  0  0  0  0  0  0  0  0
   15.0778    1.5857   18.5318 O   0  0  0  0  0  0  0  0  0  0  0  0
   14.9094    1.0990   17.1891 S   0  0  0  0  0  0  0  0  0  0  0  0
   13.5075    0.9097   16.9342 O   0  0  0  0  0  0  0  0  0  0  0  0
   16.7280   -0.1189   17.2395 H   0  0  0  0  0  0  0  0  0  0  0  0
   15.6334   -0.6611   16.1071 H   0  0  0  0  0  0  0  0  0  0  0  0
   16.9959    5.2308   13.4385 N   0  0  0  0  0  0  0  0  0  0  0  0
   16.8926    5.1427   12.0183 C   0  0  0  0  0  0  0  0  0  0  0  0
   16.4070    4.1722   11.4646 O   0  0  0  0  0  0  0  0  0  0  0  0
   17.3978    6.0439   13.8214 H   0  0  0  0  0  0  0  0  0  0  0  0
   17.4098    6.2833   11.2226 C   0  0  0  0  0  0  0  0  0  0  0  0
   16.4012    7.3277   10.9812 C   0  0  0  0  0  0  0  0  0  0  0  0
   15.0472    7.2756   11.2562 C   0  0  0  0  0  0  0  0  0  0  0  0
   14.3379    8.4140   10.9024 C   0  0  0  0  0  0  0  0  0  0  0  0
   15.0786    9.4313   10.3267 C   0  0  0  0  0  0  0  0  0  0  0  0
   16.6874    8.8528   10.2603 S   0  0  0  0  0  0  0  0  0  0  0  0
  3  1  2  0  0  0
  7  1  1  0  0  0
  1 10  1  0  0  0
  2  4  1  0  0  0
  8 10  1  0  0  0
 10  9  2  0  0  0
 11 10  2  0  0  0
  4  3  1  0  0  0
  5  4  2  0  0  0
 14  5  1  0  0  0
  5  6  1  0  0  0
  6  7  2  0  0  0
 15 14  1  0  0  0
 18 15  1  0  0  0
 15 16  2  0  0  0
 18 19  1  0  0  0
 20 19  2  0  0  0
 19 23  1  0  0  0
 20 21  1  0  0  0
 21 22  2  0  0  0
 23 22  1  0  0  0
  8 12  1  0  0  0
  8 13  1  0  0  0
 14 17  1  0  0  0
M  END
> <minimizedAffinity>
-7.47317

$$$$
3R17_5UM_B_1


 23 24  0  0  0  0  0  0  0  0999 V2000
   15.5323    1.9013   15.7729 C   0  0  0  0  0  0  0  0  0  0  0  0
   17.8749    1.1889   13.1380 F   0  0  0  0  0  0  0  0  0  0  0  0
   16.4458    1.2164   14.9894 C   0  0  0  0  0  0  0  0  0  0  0  0
   17.0109    1.8515   13.9008 C   0  0  0  0  0  0  0  0  0  0  0  0
   16.6794    3.1572   13.5985 C   0  0  0  0  0  0  0  0  0  0  0  0
   15.7691    3.8523   14.3819 C   0  0  0  0  0  0  0  0  0  0  0  0
   15.1879    3.2114   15.4663 C   0  0  0  0  0  0  0  0  0  0  0  0
   15.5978   -0.3650   17.3748 N   0  0  0  0  0  0  0  0  0  0  0  0
   15.0168    1.8497   18.3310 O   0  0  0  0  0  0  0  0  0  0  0  0
   14.8215    1.0473   17.1536 S   0  0  0  0  0  0  0  0  0  0  0  0
   13.4117    0.8542   16.9496 O   0  0  0  0  0  0  0  0  0  0  0  0
   16.5923   -0.1879   17.5158 H   0  0  0  0  0  0  0  0  0  0  0  0
   15.4707   -0.9552   16.5527 H   0  0  0  0  0  0  0  0  0  0  0  0
   17.3125    3.7544   12.4676 N   0  0  0  0  0  0  0  0  0  0  0  0
   16.8956    3.5567   11.1175 C   0  0  0  0  0  0  0  0  0  0  0  0
   15.9467    2.8484   10.8312 O   0  0  0  0  0  0  0  0  0  0  0  0
   18.0867    4.3406   12.6294 H   0  0  0  0  0  0  0  0  0  0  0  0
   17.6700    4.2441   10.0548 C   0  0  0  0  0  0  0  0  0  0  0  0
   19.1234    4.0435   10.1733 C   0  0  0  0  0  0  0  0  0  0  0  0
   19.8243    2.8560   10.0719 C   0  0  0  0  0  0  0  0  0  0  0  0
   21.1956    2.9739   10.2448 C   0  0  0  0  0  0  0  0  0  0  0  0
   21.6642    4.2518   10.4949 C   0  0  0  0  0  0  0  0  0  0  0  0
   20.2813    5.2590   10.5040 S   0  0  0  0  0  0  0  0  0  0  0  0
  3  1  2  0  0  0
  7  1  1  0  0  0
  1 10  1  0  0  0
  2  4  1  0  0  0
  8 10  1  0  0  0
 10  9  2  0  0  0
 11 10  2  0  0  0
  4  3  1  0  0  0
  5  4  2  0  0  0
 14  5  1  0  0  0
  5  6  1  0  0  0
  6  7  2  0  0  0
 15 14  1  0  0  0
 18 15  1  0  0  0
 15 16  2  0  0  0
 18 19  1  0  0  0
 20 19  2  0  0  0
 19 23  1  0  0  0
 20 21  1  0  0  0
 21 22  2  0  0  0
 23 22  1  0  0  0
  8 12  1  0  0  0
  8 13  1  0  0  0
 14 17  1  0  0  0
M  END
> <minimizedAffinity>
-7.28329

$$$$
3R17_5UM_B_1


 23 24  0  0  0  0  0  0  0  0999 V2000
   15.6073    1.7290   15.7850 C   0  0  0  0  0  0  0  0  0  0  0  0
   15.1238    4.9350   14.2272 F   0  0  0  0  0  0  0  0  0  0  0  0
   15.1106    2.9979   15.5381 C   0  0  0  0  0  0  0  0  0  0  0  0
   15.5875    3.7099   14.4549 C   0  0  0  0  0  0  0  0  0  0  0  0
   16.5414    3.1640   13.6194 C   0  0  0  0  0  0  0  0  0  0  0  0
   17.0401    1.8910   13.8567 C   0  0  0  0  0  0  0  0  0  0  0  0
   16.5747    1.1801   14.9533 C   0  0  0  0  0  0  0  0  0  0  0  0
   15.1508    1.7709   18.5230 N   0  0  0  0  0  0  0  0  0  0  0  0
   13.5724    0.6243   16.9896 O   0  0  0  0  0  0  0  0  0  0  0  0
   14.9779    0.8529   17.1911 S   0  0  0  0  0  0  0  0  0  0  0  0
   15.6416   -0.4148   17.3279 O   0  0  0  0  0  0  0  0  0  0  0  0
   14.6682    2.6593   18.3886 H   0  0  0  0  0  0  0  0  0  0  0  0
   16.1420    1.9443   18.6900 H   0  0  0  0  0  0  0  0  0  0  0  0
   16.9778    3.9511   12.5120 N   0  0  0  0  0  0  0  0  0  0  0  0
   18.0882    4.8460   12.5518 C   0  0  0  0  0  0  0  0  0  0  0  0
   18.7568    5.0020   13.5582 O   0  0  0  0  0  0  0  0  0  0  0  0
   16.4806    3.8714   11.6660 H   0  0  0  0  0  0  0  0  0  0  0  0
   18.4044    5.5994   11.3132 C   0  0  0  0  0  0  0  0  0  0  0  0
   17.2555    6.3495   10.7805 C   0  0  0  0  0  0  0  0  0  0  0  0
   16.4751    7.2815   11.4392 C   0  0  0  0  0  0  0  0  0  0  0  0
   15.4440    7.8164   10.6808 C   0  0  0  0  0  0  0  0  0  0  0  0
   15.3412    7.3438    9.3843 C   0  0  0  0  0  0  0  0  0  0  0  0
   16.6018    6.2008    9.2063 S   0  0  0  0  0  0  0  0  0  0  0  0
  3  1  2  0  0  0
  7  1  1  0  0  0
  1 10  1  0  0  0
  2  4  1  0  0  0
  8 10  1  0  0  0
 10  9  2  0  0  0
 11 10  2  0  0  0
  4  3  1  0  0  0
  5  4  2  0  0  0
 14  5  1  0  0  0
  5  6  1  0  0  0
  6  7  2  0  0  0
 15 14  1  0  0  0
 18 15  1  0  0  0
 15 16  2  0  0  0
 18 19  1  0  0  0
 20 19  2  0  0  0
 19 23  1  0  0  0
 20 21  1  0  0  0
 21 22  2  0  0  0
 23 22  1  0  0  0
  8 12  1  0  0  0
  8 13  1  0  0  0
 14 17  1  0  0  0
M  END
> <minimizedAffinity>
-6.48268

$$$$
3R17_5UM_B_1


 23 24  0  0  0  0  0  0  0  0999 V2000
   18.4142    1.3931   11.3024 C   0  0  0  0  0  0  0  0  0  0  0  0
   18.2745    4.3737   13.3112 F   0  0  0  0  0  0  0  0  0  0  0  0
   17.9169    2.3893   12.1257 C   0  0  0  0  0  0  0  0  0  0  0  0
   18.7462    3.4261   12.5068 C   0  0  0  0  0  0  0  0  0  0  0  0
   20.0539    3.4782   12.0674 C   0  0  0  0  0  0  0  0  0  0  0  0
   20.5583    2.4869   11.2376 C   0  0  0  0  0  0  0  0  0  0  0  0
   19.7322    1.4360   10.8665 C   0  0  0  0  0  0  0  0  0  0  0  0
   15.8902    0.6935   10.3825 N   0  0  0  0  0  0  0  0  0  0  0  0
   17.8914   -0.6153    9.7197 O   0  0  0  0  0  0  0  0  0  0  0  0
   17.3216    0.0747   10.8455 S   0  0  0  0  0  0  0  0  0  0  0  0
   17.1743   -0.8521   11.9345 O   0  0  0  0  0  0  0  0  0  0  0  0
   16.0348    1.3444    9.6106 H   0  0  0  0  0  0  0  0  0  0  0  0
   15.4629    1.1859   11.1669 H   0  0  0  0  0  0  0  0  0  0  0  0
   20.8489    4.5855   12.4896 N   0  0  0  0  0  0  0  0  0  0  0  0
   20.8460    5.8634   11.8552 C   0  0  0  0  0  0  0  0  0  0  0  0
   20.1464    6.1027   10.8870 O   0  0  0  0  0  0  0  0  0  0  0  0
   21.4372    4.4595   13.2689 H   0  0  0  0  0  0  0  0  0  0  0  0
   21.7411    6.9066   12.4140 C   0  0  0  0  0  0  0  0  0  0  0  0
   21.0764    7.7752   13.3990 C   0  0  0  0  0  0  0  0  0  0  0  0
   19.8981    7.5335   14.0808 C   0  0  0  0  0  0  0  0  0  0  0  0
   19.5054    8.5486   14.9408 C   0  0  0  0  0  0  0  0  0  0  0  0
   20.3396    9.6515   14.9924 C   0  0  0  0  0  0  0  0  0  0  0  0
   21.6127    9.3214   13.8982 S   0  0  0  0  0  0  0  0  0  0  0  0
  3  1  2  0  0  0
  7  1  1  0  0  0
  1 10  1  0  0  0
  2  4  1  0  0  0
  8 10  1  0  0  0
 10  9  2  0  0  0
 11 10  2  0  0  0
  4  3  1  0  0  0
  5  4  2  0  0  0
 14  5  1  0  0  0
  5  6  1  0  0  0
  6  7  2  0  0  0
 15 14  1  0  0  0
 18 15  1  0  0  0
 15 16  2  0  0  0
 18 19  1  0  0  0
 20 19  2  0  0  0
 19 23  1  0  0  0
 20 21  1  0  0  0
 21 22  2  0  0  0
 23 22  1  0  0  0
  8 12  1  0  0  0
  8 13  1  0  0  0
 14 17  1  0  0  0
M  END
> <minimizedAffinity>
-6.26880

$$$$
3R17_5UM_B_1


 23 24  0  0  0  0  0  0  0  0999 V2000
   15.6235    1.8520   15.8300 C   0  0  0  0  0  0  0  0  0  0  0  0
   15.8137    5.1890   14.5007 F   0  0  0  0  0  0  0  0  0  0  0  0
   15.3813    3.2050   15.6616 C   0  0  0  0  0  0  0  0  0  0  0  0
   16.0326    3.8864   14.6521 C   0  0  0  0  0  0  0  0  0  0  0  0
   16.9090    3.2291   13.8119 C   0  0  0  0  0  0  0  0  0  0  0  0
   17.1530    1.8722   13.9705 C   0  0  0  0  0  0  0  0  0  0  0  0
   16.5124    1.1889   14.9938 C   0  0  0  0  0  0  0  0  0  0  0  0
   15.4985   -0.4126   17.4308 N   0  0  0  0  0  0  0  0  0  0  0  0
   14.8877    1.8164   18.3339 O   0  0  0  0  0  0  0  0  0  0  0  0
   14.7767    1.0166   17.1437 S   0  0  0  0  0  0  0  0  0  0  0  0
   13.3858    0.8553   16.8185 O   0  0  0  0  0  0  0  0  0  0  0  0
   16.4809   -0.2580   17.6573 H   0  0  0  0  0  0  0  0  0  0  0  0
   15.4297   -1.0011   16.6005 H   0  0  0  0  0  0  0  0  0  0  0  0
   17.5356    3.9932   12.7824 N   0  0  0  0  0  0  0  0  0  0  0  0
   18.9310    4.2874   12.7380 C   0  0  0  0  0  0  0  0  0  0  0  0
   19.7018    3.8953   13.5962 O   0  0  0  0  0  0  0  0  0  0  0  0
   16.9686    4.3397   12.0561 H   0  0  0  0  0  0  0  0  0  0  0  0
   19.4220    5.1051   11.6014 C   0  0  0  0  0  0  0  0  0  0  0  0
   19.9426    6.4187   12.0133 C   0  0  0  0  0  0  0  0  0  0  0  0
   21.2608    6.7764   12.2284 C   0  0  0  0  0  0  0  0  0  0  0  0
   21.4484    8.0914   12.6284 C   0  0  0  0  0  0  0  0  0  0  0  0
   20.2997    8.8522   12.7574 C   0  0  0  0  0  0  0  0  0  0  0  0
   19.0049    7.8082   12.3563 S   0  0  0  0  0  0  0  0  0  0  0  0
  3  1  2  0  0  0
  7  1  1  0  0  0
  1 10  1  0  0  0
  2  4  1  0  0  0
  8 10  1  0  0  0
 10  9  2  0  0  0
 11 10  2  0  0  0
  4  3  1  0  0  0
  5  4  2  0  0  0
 14  5  1  0  0  0
  5  6  1  0  0  0
  6  7  2  0  0  0
 15 14  1  0  0  0
 18 15  1  0  0  0
 15 16  2  0  0  0
 18 19  1  0  0  0
 20 19  2  0  0  0
 19 23  1  0  0  0
 20 21  1  0  0  0
 21 22  2  0  0  0
 23 22  1  0  0  0
  8 12  1  0  0  0
  8 13  1  0  0  0
 14 17  1  0  0  0
M  END
> <minimizedAffinity>
-6.24503

$$$$
3R17_5UM_B_1


 23 24  0  0  0  0  0  0  0  0999 V2000
   18.2277    2.4408   12.0171 C   0  0  0  0  0  0  0  0  0  0  0  0
   20.5119    5.0625   12.9377 F   0  0  0  0  0  0  0  0  0  0  0  0
   18.7141    3.6105   12.5764 C   0  0  0  0  0  0  0  0  0  0  0  0
   20.0399    3.9485   12.3867 C   0  0  0  0  0  0  0  0  0  0  0  0
   20.8724    3.1378   11.6412 C   0  0  0  0  0  0  0  0  0  0  0  0
   20.3913    1.9669   11.0727 C   0  0  0  0  0  0  0  0  0  0  0  0
   19.0643    1.6169   11.2752 C   0  0  0  0  0  0  0  0  0  0  0  0
   15.7487    1.9562   10.8655 N   0  0  0  0  0  0  0  0  0  0  0  0
   16.4610    0.7379   12.9065 O   0  0  0  0  0  0  0  0  0  0  0  0
   16.5243    2.0372   12.2932 S   0  0  0  0  0  0  0  0  0  0  0  0
   15.9196    2.9986   13.1743 O   0  0  0  0  0  0  0  0  0  0  0  0
   16.2051    1.2658   10.2693 H   0  0  0  0  0  0  0  0  0  0  0  0
   15.7762    2.8691   10.4113 H   0  0  0  0  0  0  0  0  0  0  0  0
   22.2265    3.5564   11.4752 N   0  0  0  0  0  0  0  0  0  0  0  0
   22.6898    4.3640   10.3942 C   0  0  0  0  0  0  0  0  0  0  0  0
   21.9424    4.7625    9.5186 O   0  0  0  0  0  0  0  0  0  0  0  0
   22.8833    3.2693   12.1501 H   0  0  0  0  0  0  0  0  0  0  0  0
   24.1341    4.7029   10.3634 C   0  0  0  0  0  0  0  0  0  0  0  0
   24.5664    5.5077   11.5176 C   0  0  0  0  0  0  0  0  0  0  0  0
   25.3414    5.1023   12.5885 C   0  0  0  0  0  0  0  0  0  0  0  0
   25.5756    6.0835   13.5408 C   0  0  0  0  0  0  0  0  0  0  0  0
   25.0033    7.3178   13.2882 C   0  0  0  0  0  0  0  0  0  0  0  0
   24.1651    7.1456   11.8067 S   0  0  0  0  0  0  0  0  0  0  0  0
  3  1  2  0  0  0
  7  1  1  0  0  0
  1 10  1  0  0  0
  2  4  1  0  0  0
  8 10  1  0  0  0
 10  9  2  0  0  0
 11 10  2  0  0  0
  4  3  1  0  0  0
  5  4  2  0  0  0
 14  5  1  0  0  0
  5  6  1  0  0  0
  6  7  2  0  0  0
 15 14  1  0  0  0
 18 15  1  0  0  0
 15 16  2  0  0  0
 18 19  1  0  0  0
 20 19  2  0  0  0
 19 23  1  0  0  0
 20 21  1  0  0  0
 21 22  2  0  0  0
 23 22  1  0  0  0
  8 12  1  0  0  0
  8 13  1  0  0  0
 14 17  1  0  0  0
M  END
> <minimizedAffinity>
-6.23013

$$$$
3R17_5UM_B_1


 23 24  0  0  0  0  0  0  0  0999 V2000
   16.7176    1.7365   14.2574 C   0  0  0  0  0  0  0  0  0  0  0  0
   16.4078    5.3002   13.8797 F   0  0  0  0  0  0  0  0  0  0  0  0
   16.5369    3.0715   14.5778 C   0  0  0  0  0  0  0  0  0  0  0  0
   16.5639    4.0165   13.5708 C   0  0  0  0  0  0  0  0  0  0  0  0
   16.7591    3.6390   12.2573 C   0  0  0  0  0  0  0  0  0  0  0  0
   16.9353    2.3027   11.9273 C   0  0  0  0  0  0  0  0  0  0  0  0
   16.9248    1.3532   12.9387 C   0  0  0  0  0  0  0  0  0  0  0  0
   15.2897    0.6978   16.3995 N   0  0  0  0  0  0  0  0  0  0  0  0
   16.7356   -0.7628   15.0092 O   0  0  0  0  0  0  0  0  0  0  0  0
   16.6874    0.5566   15.5794 S   0  0  0  0  0  0  0  0  0  0  0  0
   17.8281    0.7363   16.4355 O   0  0  0  0  0  0  0  0  0  0  0  0
   14.5057    0.5645   15.7608 H   0  0  0  0  0  0  0  0  0  0  0  0
   15.2332    1.6263   16.8179 H   0  0  0  0  0  0  0  0  0  0  0  0
   16.7614    4.6673   11.2679 N   0  0  0  0  0  0  0  0  0  0  0  0
   17.9327    5.3488   10.8219 C   0  0  0  0  0  0  0  0  0  0  0  0
   19.0381    5.0921   11.2651 O   0  0  0  0  0  0  0  0  0  0  0  0
   15.8992    4.9228   10.8672 H   0  0  0  0  0  0  0  0  0  0  0  0
   17.7606    6.4024    9.7914 C   0  0  0  0  0  0  0  0  0  0  0  0
   16.4679    7.0999    9.8843 C   0  0  0  0  0  0  0  0  0  0  0  0
   16.0741    8.0288   10.8298 C   0  0  0  0  0  0  0  0  0  0  0  0
   14.7818    8.5077   10.6712 C   0  0  0  0  0  0  0  0  0  0  0  0
   14.0744    7.9906    9.6002 C   0  0  0  0  0  0  0  0  0  0  0  0
   15.1311    6.8810    8.8391 S   0  0  0  0  0  0  0  0  0  0  0  0
  3  1  2  0  0  0
  7  1  1  0  0  0
  1 10  1  0  0  0
  2  4  1  0  0  0
  8 10  1  0  0  0
 10  9  2  0  0  0
 11 10  2  0  0  0
  4  3  1  0  0  0
  5  4  2  0  0  0
 14  5  1  0  0  0
  5  6  1  0  0  0
  6  7  2  0  0  0
 15 14  1  0  0  0
 18 15  1  0  0  0
 15 16  2  0  0  0
 18 19  1  0  0  0
 20 19  2  0  0  0
 19 23  1  0  0  0
 20 21  1  0  0  0
 21 22  2  0  0  0
 23 22  1  0  0  0
  8 12  1  0  0  0
  8 13  1  0  0  0
 14 17  1  0  0  0
M  END
> <minimizedAffinity>
-6.17072

$$$$
3R17_5UM_B_1


 23 24  0  0  0  0  0  0  0  0999 V2000
   18.1650    1.6984   11.5601 C   0  0  0  0  0  0  0  0  0  0  0  0
   21.5377    2.5557   10.6500 F   0  0  0  0  0  0  0  0  0  0  0  0
   19.4019    1.6472   10.9396 C   0  0  0  0  0  0  0  0  0  0  0  0
   20.3560    2.5938   11.2580 C   0  0  0  0  0  0  0  0  0  0  0  0
   20.0880    3.5762   12.1903 C   0  0  0  0  0  0  0  0  0  0  0  0
   18.8530    3.6310   12.8206 C   0  0  0  0  0  0  0  0  0  0  0  0
   17.8874    2.6912   12.4908 C   0  0  0  0  0  0  0  0  0  0  0  0
   15.5291    1.1912   10.8518 N   0  0  0  0  0  0  0  0  0  0  0  0
   17.3834   -0.1457    9.8866 O   0  0  0  0  0  0  0  0  0  0  0  0
   16.9646    0.4727   11.1156 S   0  0  0  0  0  0  0  0  0  0  0  0
   16.8766   -0.5341   12.1378 O   0  0  0  0  0  0  0  0  0  0  0  0
   15.6312    1.8971   10.1226 H   0  0  0  0  0  0  0  0  0  0  0  0
   15.2079    1.6351   11.7121 H   0  0  0  0  0  0  0  0  0  0  0  0
   21.1253    4.5125   12.4799 N   0  0  0  0  0  0  0  0  0  0  0  0
   21.2791    5.7686   11.8212 C   0  0  0  0  0  0  0  0  0  0  0  0
   20.5157    6.1374   10.9463 O   0  0  0  0  0  0  0  0  0  0  0  0
   21.7768    4.2763   13.1792 H   0  0  0  0  0  0  0  0  0  0  0  0
   22.4197    6.6229   12.2347 C   0  0  0  0  0  0  0  0  0  0  0  0
   23.7298    6.0556   11.8763 C   0  0  0  0  0  0  0  0  0  0  0  0
   24.8137    5.8395   12.7071 C   0  0  0  0  0  0  0  0  0  0  0  0
   25.9284    5.3022   12.0802 C   0  0  0  0  0  0  0  0  0  0  0  0
   25.8005    5.0630   10.7233 C   0  0  0  0  0  0  0  0  0  0  0  0
   24.2166    5.5625   10.3119 S   0  0  0  0  0  0  0  0  0  0  0  0
  3  1  2  0  0  0
  7  1  1  0  0  0
  1 10  1  0  0  0
  2  4  1  0  0  0
  8 10  1  0  0  0
 10  9  2  0  0  0
 11 10  2  0  0  0
  4  3  1  0  0  0
  5  4  2  0  0  0
 14  5  1  0  0  0
  5  6  1  0  0  0
  6  7  2  0  0  0
 15 14  1  0  0  0
 18 15  1  0  0  0
 15 16  2  0  0  0
 18 19  1  0  0  0
 20 19  2  0  0  0
 19 23  1  0  0  0
 20 21  1  0  0  0
 21 22  2  0  0  0
 23 22  1  0  0  0
  8 12  1  0  0  0
  8 13  1  0  0  0
 14 17  1  0  0  0
M  END
> <minimizedAffinity>
-6.14566

$$$$
3R17_5UM_B_1


 23 24  0  0  0  0  0  0  0  0999 V2000
   16.9119    1.9929   14.3276 C   0  0  0  0  0  0  0  0  0  0  0  0
   16.1343    2.1793   10.8205 F   0  0  0  0  0  0  0  0  0  0  0  0
   16.4890    1.6180   13.0633 C   0  0  0  0  0  0  0  0  0  0  0  0
   16.5563    2.5329   12.0307 C   0  0  0  0  0  0  0  0  0  0  0  0
   17.0472    3.8046   12.2489 C   0  0  0  0  0  0  0  0  0  0  0  0
   17.4782    4.1863   13.5116 C   0  0  0  0  0  0  0  0  0  0  0  0
   17.3967    3.2745   14.5540 C   0  0  0  0  0  0  0  0  0  0  0  0
   15.4710    1.0868   16.5206 N   0  0  0  0  0  0  0  0  0  0  0  0
   16.6542   -0.5071   15.0317 O   0  0  0  0  0  0  0  0  0  0  0  0
   16.7988    0.7938   15.6276 S   0  0  0  0  0  0  0  0  0  0  0  0
   17.9931    0.8100   16.4274 O   0  0  0  0  0  0  0  0  0  0  0  0
   14.6465    1.0672   15.9204 H   0  0  0  0  0  0  0  0  0  0  0  0
   15.5513    2.0046   16.9582 H   0  0  0  0  0  0  0  0  0  0  0  0
   17.1004    4.6925   11.1330 N   0  0  0  0  0  0  0  0  0  0  0  0
   16.2722    5.8446   10.9843 C   0  0  0  0  0  0  0  0  0  0  0  0
   15.4438    6.1575   11.8211 O   0  0  0  0  0  0  0  0  0  0  0  0
   17.7505    4.4975   10.4199 H   0  0  0  0  0  0  0  0  0  0  0  0
   16.4470    6.6591    9.7564 C   0  0  0  0  0  0  0  0  0  0  0  0
   16.2202    8.0967    9.9759 C   0  0  0  0  0  0  0  0  0  0  0  0
   15.0277    8.7894    9.8778 C   0  0  0  0  0  0  0  0  0  0  0  0
   15.1238   10.1506   10.1275 C   0  0  0  0  0  0  0  0  0  0  0  0
   16.3892   10.6194   10.4341 C   0  0  0  0  0  0  0  0  0  0  0  0
   17.4168    9.2528   10.3749 S   0  0  0  0  0  0  0  0  0  0  0  0
  3  1  2  0  0  0
  7  1  1  0  0  0
  1 10  1  0  0  0
  2  4  1  0  0  0
  8 10  1  0  0  0
 10  9  2  0  0  0
 11 10  2  0  0  0
  4  3  1  0  0  0
  5  4  2  0  0  0
 14  5  1  0  0  0
  5  6  1  0  0  0
  6  7  2  0  0  0
 15 14  1  0  0  0
 18 15  1  0  0  0
 15 16  2  0  0  0
 18 19  1  0  0  0
 20 19  2  0  0  0
 19 23  1  0  0  0
 20 21  1  0  0  0
 21 22  2  0  0  0
 23 22  1  0  0  0
  8 12  1  0  0  0
  8 13  1  0  0  0
 14 17  1  0  0  0
M  END
> <minimizedAffinity>
-6.10076

$$$$
3R17_5UM_B_1


 23 24  0  0  0  0  0  0  0  0999 V2000
   16.5771    1.8622   15.1117 C   0  0  0  0  0  0  0  0  0  0  0  0
   18.5725    4.8051   14.5669 F   0  0  0  0  0  0  0  0  0  0  0  0
   17.2076    3.0727   15.3459 C   0  0  0  0  0  0  0  0  0  0  0  0
   17.9528    3.6515   14.3372 C   0  0  0  0  0  0  0  0  0  0  0  0
   18.0636    3.0390   13.1049 C   0  0  0  0  0  0  0  0  0  0  0  0
   17.4303    1.8287   12.8604 C   0  0  0  0  0  0  0  0  0  0  0  0
   16.6945    1.2374   13.8769 C   0  0  0  0  0  0  0  0  0  0  0  0
   15.8423   -0.4668   16.4315 N   0  0  0  0  0  0  0  0  0  0  0  0
   16.1531    1.6557   17.6787 O   0  0  0  0  0  0  0  0  0  0  0  0
   15.6400    1.1473   16.4351 S   0  0  0  0  0  0  0  0  0  0  0  0
   14.2541    1.5109   16.3191 O   0  0  0  0  0  0  0  0  0  0  0  0
   16.8351   -0.6852   16.5152 H   0  0  0  0  0  0  0  0  0  0  0  0
   15.4816   -0.8528   15.5590 H   0  0  0  0  0  0  0  0  0  0  0  0
   18.8381    3.7009   12.1057 N   0  0  0  0  0  0  0  0  0  0  0  0
   20.0421    3.1779   11.5468 C   0  0  0  0  0  0  0  0  0  0  0  0
   20.5015    2.1037   11.8919 O   0  0  0  0  0  0  0  0  0  0  0  0
   18.5212    4.5746   11.7810 H   0  0  0  0  0  0  0  0  0  0  0  0
   20.7336    3.9985   10.5221 C   0  0  0  0  0  0  0  0  0  0  0  0
   21.9809    4.6082   11.0111 C   0  0  0  0  0  0  0  0  0  0  0  0
   23.2679    4.1193   10.8836 C   0  0  0  0  0  0  0  0  0  0  0  0
   24.2499    4.9096   11.4627 C   0  0  0  0  0  0  0  0  0  0  0  0
   23.8065    6.0642   12.0833 C   0  0  0  0  0  0  0  0  0  0  0  0
   22.1062    6.0690   11.8930 S   0  0  0  0  0  0  0  0  0  0  0  0
  3  1  2  0  0  0
  7  1  1  0  0  0
  1 10  1  0  0  0
  2  4  1  0  0  0
  8 10  1  0  0  0
 10  9  2  0  0  0
 11 10  2  0  0  0
  4  3  1  0  0  0
  5  4  2  0  0  0
 14  5  1  0  0  0
  5  6  1  0  0  0
  6  7  2  0  0  0
 15 14  1  0  0  0
 18 15  1  0  0  0
 15 16  2  0  0  0
 18 19  1  0  0  0
 20 19  2  0  0  0
 19 23  1  0  0  0
 20 21  1  0  0  0
 21 22  2  0  0  0
 23 22  1  0  0  0
  8 12  1  0  0  0
  8 13  1  0  0  0
 14 17  1  0  0  0
M  END
> <minimizedAffinity>
-6.07778

$$$$
