3R17_5UM_B_1
  RCSB PDB12061710303D
Coordinates from PDB:3R17:B:1 Model:1 without hydrogens
 20 21  0  0  0  0            999 V2000
   16.0140    2.0450   15.7920   C 0  0  0  0  0  0  0  0  0  0  0  0
   14.8980    5.1530   14.3660   F 0  0  0  0  0  0  0  0  0  0  0  0
   15.8390   -0.7040   16.1370   N 0  0  0  0  0  0  0  0  0  0  0  0
   15.7850    0.8270   18.0890   O 0  0  0  0  0  0  0  0  0  0  0  0
   15.3160    0.7160   16.7340   S 0  0  0  0  0  0  0  0  0  0  0  0
   15.1790    3.0880   15.4280   C 0  0  0  0  0  0  0  0  0  0  0  0
   13.8810    0.8000   16.7290   O 0  0  0  0  0  0  0  0  0  0  0  0
   15.6950    4.1430   14.7010   C 0  0  0  0  0  0  0  0  0  0  0  0
   17.0250    4.1580   14.3310   C 0  0  0  0  0  0  0  0  0  0  0  0
   17.8670    3.1140   14.6870   C 0  0  0  0  0  0  0  0  0  0  0  0
   17.3550    2.0610   15.4310   C 0  0  0  0  0  0  0  0  0  0  0  0
   17.4860    5.2730   13.5690   N 0  0  0  0  0  0  0  0  0  0  0  0
   18.8510    5.6800   13.4880   C 0  0  0  0  0  0  0  0  0  0  0  0
   19.7380    5.0880   14.0770   O 0  0  0  0  0  0  0  0  0  0  0  0
   19.1620    6.8700   12.6580   C 0  0  0  0  0  0  0  0  0  0  0  0
   20.0610    7.8250   13.3260   C 0  0  0  0  0  0  0  0  0  0  0  0
   21.2760    8.3030   12.8710   C 0  0  0  0  0  0  0  0  0  0  0  0
   21.9110    9.1880   13.7300   C 0  0  0  0  0  0  0  0  0  0  0  0
   21.2460    9.4630   14.9120   C 0  0  0  0  0  0  0  0  0  0  0  0
   19.8070    8.5390   14.8600   S 0  0  0  0  0  0  0  0  0  0  0  0
  6  1  2  0  0  0  0
 11  1  1  0  0  0  0
  1  5  1  0  0  0  0
  2  8  1  0  0  0  0
  3  5  1  0  0  0  0
  5  4  2  0  0  0  0
  7  5  2  0  0  0  0
  8  6  1  0  0  0  0
  9  8  2  0  0  0  0
 12  9  1  0  0  0  0
  9 10  1  0  0  0  0
 10 11  2  0  0  0  0
 13 12  1  0  0  0  0
 15 13  1  0  0  0  0
 13 14  2  0  0  0  0
 15 16  1  0  0  0  0
 17 16  2  0  0  0  0
 16 20  1  0  0  0  0
 17 18  1  0  0  0  0
 18 19  2  0  0  0  0
 20 19  1  0  0  0  0
A    1
C01
A    2
F01
A    3
N01
A    4
O01
A    5
S01
A    6
C02
A    7
O02
A    8
C03
A    9
C04
A   10
C05
A   11
C06
A   12
N07
A   13
C08
A   14
O08
A   15
C09
A   16
C10
A   17
C11
A   18
C12
A   19
C13
A   20
S14
M  END
>  <InstanceId>
3R17_5UM_B_1

>  <ChemCompId>
5UM

>  <PdbId>
3R17

>  <ChainId>
B

>  <ResidueNumber>
1

>  <InsertionCode>


>  <Model>
1

>  <AltIds>


>  <MissingHeavyAtoms>
0

>  <ObservedFormula>
C12 N2 O3 S2 F

>  <Name>
N-(2-fluoro-4-sulfamoylphenyl)-2-(thiophen-2-yl)acetamide

>  <SystematicName>
N-(2-fluoro-4-sulfamoyl-phenyl)-2-thiophen-2-yl-ethanamide

>  <Synonyms>


>  <Type>
NON-POLYMER

>  <Formula>
C12 H11 F N2 O3 S2

>  <MolecularWeight>
314.356

>  <ModifiedDate>
2011-06-04

>  <Parent>


>  <OneLetterCode>


>  <SubcomponentList>


>  <AmbiguousFlag>
N

>  <InChI>
InChI=1S/C12H11FN2O3S2/c13-10-7-9(20(14,17)18)3-4-11(10)15-12(16)6-8-2-1-5-19-8/h1-5,7H,6H2,(H,15,16)(H2,14,17,18)

>  <InChIKey>
XAKMDYVUOKFDSL-UHFFFAOYSA-N

>  <SMILES>
c1cc(sc1)CC(=O)Nc2ccc(cc2F)S(=O)(=O)N

$$$$
