1C5N_ESI_H_522


 17 18  0  0  0  0  0  0  0  0999 V2000
   11.7792  -12.3885   22.7253 C   0  0  0  0  0  0  0  0  0  0  0  0
   12.5780  -11.1854   21.6918 S   0  0  0  0  0  0  0  0  0  0  0  0
   13.1351  -12.4763   20.6167 C   0  0  0  0  0  0  0  0  0  0  0  0
   12.6930  -13.7132   21.0881 C   0  0  0  0  0  0  0  0  0  0  0  0
   11.9543  -13.6429   22.2392 C   0  0  0  0  0  0  0  0  0  0  0  0
   13.8943  -12.3420   19.4759 C   0  0  0  0  0  0  0  0  0  0  0  0
   14.2309  -13.4855   18.7655 C   0  0  0  0  0  0  0  0  0  0  0  0
   13.8018  -14.7468   19.2085 C   0  0  0  0  0  0  0  0  0  0  0  0
   13.0213  -14.8822   20.3776 C   0  0  0  0  0  0  0  0  0  0  0  0
   12.3246  -16.7228   21.0645 I   0  0  0  0  0  0  0  0  0  0  0  0
   11.1355  -11.9723   23.8114 C   0  0  0  0  0  0  0  0  0  0  0  0
   11.6138  -10.9409   24.4483 N   0  0  0  0  0  0  0  0  0  0  0  0
   10.0602  -12.6549   24.1140 N   0  0  0  0  0  0  0  0  0  0  0  0
   12.4355  -10.5027   24.1287 H   0  0  0  0  0  0  0  0  0  0  0  0
   11.1536  -10.5999   25.2489 H   0  0  0  0  0  0  0  0  0  0  0  0
    9.7912  -13.4215   23.5580 H   0  0  0  0  0  0  0  0  0  0  0  0
    9.5206  -12.4015   24.8975 H   0  0  0  0  0  0  0  0  0  0  0  0
 11  1  1  0  0  0
 11 12  1  0  0  0
 11 13  2  0  0  0
  1  2  1  0  0  0
  1  5  2  0  0  0
  2  3  1  0  0  0
  3  4  2  0  0  0
  3  6  1  0  0  0
  4  5  1  0  0  0
  4  9  1  0  0  0
  6  7  2  0  0  0
  7  8  1  0  0  0
  8  9  2  0  0  0
  9 10  1  0  0  0
 12 14  1  0  0  0
 12 15  1  0  0  0
 13 16  1  0  0  0
 13 17  1  0  0  0
M  CHG 1  13   1
M  END
> <minimizedAffinity>
-6.16719

$$$$
1C5N_ESI_H_522


 17 18  0  0  0  0  0  0  0  0999 V2000
   11.7388  -12.1876   23.2360 C   0  0  0  0  0  0  0  0  0  0  0  0
   12.7425  -10.8240   22.7006 S   0  0  0  0  0  0  0  0  0  0  0  0
   13.8393  -11.9489   21.8856 C   0  0  0  0  0  0  0  0  0  0  0  0
   13.3923  -13.2596   22.0585 C   0  0  0  0  0  0  0  0  0  0  0  0
   12.2445  -13.3676   22.7976 C   0  0  0  0  0  0  0  0  0  0  0  0
   14.9773  -11.6374   21.1760 C   0  0  0  0  0  0  0  0  0  0  0  0
   15.7078  -12.6715   20.6079 C   0  0  0  0  0  0  0  0  0  0  0  0
   15.2872  -14.0024   20.7591 C   0  0  0  0  0  0  0  0  0  0  0  0
   14.1184  -14.3197   21.4854 C   0  0  0  0  0  0  0  0  0  0  0  0
   13.4244  -16.2720   21.7133 I   0  0  0  0  0  0  0  0  0  0  0  0
   10.6625  -11.9382   23.9754 C   0  0  0  0  0  0  0  0  0  0  0  0
    9.8236  -12.9137   24.1829 N   0  0  0  0  0  0  0  0  0  0  0  0
   10.5760  -10.7149   24.4332 N   0  0  0  0  0  0  0  0  0  0  0  0
    9.9903  -13.7991   23.7859 H   0  0  0  0  0  0  0  0  0  0  0  0
    9.0232  -12.7652   24.7365 H   0  0  0  0  0  0  0  0  0  0  0  0
   11.2727  -10.0558   24.2112 H   0  0  0  0  0  0  0  0  0  0  0  0
    9.8141  -10.4541   24.9996 H   0  0  0  0  0  0  0  0  0  0  0  0
 11  1  1  0  0  0
 11 12  1  0  0  0
 11 13  2  0  0  0
  1  2  1  0  0  0
  1  5  2  0  0  0
  2  3  1  0  0  0
  3  4  2  0  0  0
  3  6  1  0  0  0
  4  5  1  0  0  0
  4  9  1  0  0  0
  6  7  2  0  0  0
  7  8  1  0  0  0
  8  9  2  0  0  0
  9 10  1  0  0  0
 12 14  1  0  0  0
 12 15  1  0  0  0
 13 16  1  0  0  0
 13 17  1  0  0  0
M  CHG 1  13   1
M  END
> <minimizedAffinity>
-6.10888

$$$$
1C5N_ESI_H_522


 17 18  0  0  0  0  0  0  0  0999 V2000
   12.1387  -12.3038   22.9848 C   0  0  0  0  0  0  0  0  0  0  0  0
   13.1575  -11.0100   22.3206 S   0  0  0  0  0  0  0  0  0  0  0  0
   14.2263  -12.2208   21.5965 C   0  0  0  0  0  0  0  0  0  0  0  0
   13.7605  -13.5034   21.8892 C   0  0  0  0  0  0  0  0  0  0  0  0
   12.6200  -13.5263   22.6470 C   0  0  0  0  0  0  0  0  0  0  0  0
   15.3606  -11.9925   20.8503 C   0  0  0  0  0  0  0  0  0  0  0  0
   16.0675  -13.0848   20.3680 C   0  0  0  0  0  0  0  0  0  0  0  0
   15.6275  -14.3900   20.6405 C   0  0  0  0  0  0  0  0  0  0  0  0
   14.4625  -14.6221   21.4043 C   0  0  0  0  0  0  0  0  0  0  0  0
   13.7401  -16.5346   21.8109 I   0  0  0  0  0  0  0  0  0  0  0  0
   11.0754  -11.9720   23.7106 C   0  0  0  0  0  0  0  0  0  0  0  0
   11.0732  -10.8071   24.2948 N   0  0  0  0  0  0  0  0  0  0  0  0
   10.1239  -12.8703   23.7425 N   0  0  0  0  0  0  0  0  0  0  0  0
   11.8491  -10.2083   24.2019 H   0  0  0  0  0  0  0  0  0  0  0  0
   10.2956  -10.5258   24.8291 H   0  0  0  0  0  0  0  0  0  0  0  0
   10.2342  -13.7216   23.2605 H   0  0  0  0  0  0  0  0  0  0  0  0
    9.2978  -12.6946   24.2485 H   0  0  0  0  0  0  0  0  0  0  0  0
 11  1  1  0  0  0
 11 12  1  0  0  0
 11 13  2  0  0  0
  1  2  1  0  0  0
  1  5  2  0  0  0
  2  3  1  0  0  0
  3  4  2  0  0  0
  3  6  1  0  0  0
  4  5  1  0  0  0
  4  9  1  0  0  0
  6  7  2  0  0  0
  7  8  1  0  0  0
  8  9  2  0  0  0
  9 10  1  0  0  0
 12 14  1  0  0  0
 12 15  1  0  0  0
 13 16  1  0  0  0
 13 17  1  0  0  0
M  CHG 1  13   1
M  END
> <minimizedAffinity>
-5.68409

$$$$
1C5N_ESI_H_522


 17 18  0  0  0  0  0  0  0  0999 V2000
   13.3428  -12.0082   21.5252 C   0  0  0  0  0  0  0  0  0  0  0  0
   12.2457  -13.1619   22.3119 S   0  0  0  0  0  0  0  0  0  0  0  0
   12.6836  -14.3942   21.1192 C   0  0  0  0  0  0  0  0  0  0  0  0
   13.6145  -13.8756   20.2180 C   0  0  0  0  0  0  0  0  0  0  0  0
   13.9611  -12.5726   20.4578 C   0  0  0  0  0  0  0  0  0  0  0  0
   12.2091  -15.6842   21.0402 C   0  0  0  0  0  0  0  0  0  0  0  0
   12.6791  -16.5021   20.0224 C   0  0  0  0  0  0  0  0  0  0  0  0
   13.6178  -16.0152   19.0987 C   0  0  0  0  0  0  0  0  0  0  0  0
   14.1049  -14.6923   19.1828 C   0  0  0  0  0  0  0  0  0  0  0  0
   15.5249  -13.9249   17.8638 I   0  0  0  0  0  0  0  0  0  0  0  0
   13.4398  -10.7782   22.0204 C   0  0  0  0  0  0  0  0  0  0  0  0
   12.6817  -10.4651   23.0331 N   0  0  0  0  0  0  0  0  0  0  0  0
   14.3186  -10.0100   21.4279 N   0  0  0  0  0  0  0  0  0  0  0  0
   12.0522  -11.1272   23.4000 H   0  0  0  0  0  0  0  0  0  0  0  0
   12.7384   -9.5665   23.4312 H   0  0  0  0  0  0  0  0  0  0  0  0
   14.8391  -10.3540   20.6663 H   0  0  0  0  0  0  0  0  0  0  0  0
   14.4590   -9.0882   21.7438 H   0  0  0  0  0  0  0  0  0  0  0  0
 11  1  1  0  0  0
 11 12  1  0  0  0
 11 13  2  0  0  0
  1  2  1  0  0  0
  1  5  2  0  0  0
  2  3  1  0  0  0
  3  4  2  0  0  0
  3  6  1  0  0  0
  4  5  1  0  0  0
  4  9  1  0  0  0
  6  7  2  0  0  0
  7  8  1  0  0  0
  8  9  2  0  0  0
  9 10  1  0  0  0
 12 14  1  0  0  0
 12 15  1  0  0  0
 13 16  1  0  0  0
 13 17  1  0  0  0
M  CHG 1  13   1
M  END
> <minimizedAffinity>
-5.33786

$$$$
1C5N_ESI_H_522


 17 18  0  0  0  0  0  0  0  0999 V2000
   13.7023  -12.1907   22.0435 C   0  0  0  0  0  0  0  0  0  0  0  0
   12.2839  -13.2263   22.3067 S   0  0  0  0  0  0  0  0  0  0  0  0
   13.2802  -14.6634   22.0334 C   0  0  0  0  0  0  0  0  0  0  0  0
   14.5976  -14.2866   21.7682 C   0  0  0  0  0  0  0  0  0  0  0  0
   14.8065  -12.9332   21.7792 C   0  0  0  0  0  0  0  0  0  0  0  0
   12.8731  -15.9783   22.0622 C   0  0  0  0  0  0  0  0  0  0  0  0
   13.8140  -16.9689   21.8192 C   0  0  0  0  0  0  0  0  0  0  0  0
   15.1491  -16.6274   21.5510 C   0  0  0  0  0  0  0  0  0  0  0  0
   15.5653  -15.2781   21.5242 C   0  0  0  0  0  0  0  0  0  0  0  0
   17.5393  -14.7112   21.1681 I   0  0  0  0  0  0  0  0  0  0  0  0
   13.5538  -10.8717   22.1169 C   0  0  0  0  0  0  0  0  0  0  0  0
   14.3145  -10.1278   21.3643 N   0  0  0  0  0  0  0  0  0  0  0  0
   12.6269  -10.4636   22.9463 N   0  0  0  0  0  0  0  0  0  0  0  0
   14.9829  -10.5457   20.7745 H   0  0  0  0  0  0  0  0  0  0  0  0
   14.2208   -9.1480   21.3857 H   0  0  0  0  0  0  0  0  0  0  0  0
   12.1098  -11.1192   23.4678 H   0  0  0  0  0  0  0  0  0  0  0  0
   12.4469   -9.5011   23.0485 H   0  0  0  0  0  0  0  0  0  0  0  0
 11  1  1  0  0  0
 11 12  1  0  0  0
 11 13  2  0  0  0
  1  2  1  0  0  0
  1  5  2  0  0  0
  2  3  1  0  0  0
  3  4  2  0  0  0
  3  6  1  0  0  0
  4  5  1  0  0  0
  4  9  1  0  0  0
  6  7  2  0  0  0
  7  8  1  0  0  0
  8  9  2  0  0  0
  9 10  1  0  0  0
 12 14  1  0  0  0
 12 15  1  0  0  0
 13 16  1  0  0  0
 13 17  1  0  0  0
M  CHG 1  13   1
M  END
> <minimizedAffinity>
-5.21457

$$$$
1C5N_ESI_H_522


 17 18  0  0  0  0  0  0  0  0999 V2000
   14.0211  -13.3972   21.6793 C   0  0  0  0  0  0  0  0  0  0  0  0
   13.8760  -12.8137   20.0084 S   0  0  0  0  0  0  0  0  0  0  0  0
   15.6014  -13.1134   19.7520 C   0  0  0  0  0  0  0  0  0  0  0  0
   16.1738  -13.6282   20.9160 C   0  0  0  0  0  0  0  0  0  0  0  0
   15.2942  -13.7759   21.9553 C   0  0  0  0  0  0  0  0  0  0  0  0
   16.3249  -12.8898   18.6021 C   0  0  0  0  0  0  0  0  0  0  0  0
   17.6794  -13.1917   18.6021 C   0  0  0  0  0  0  0  0  0  0  0  0
   18.2890  -13.7133   19.7543 C   0  0  0  0  0  0  0  0  0  0  0  0
   17.5446  -13.9441   20.9321 C   0  0  0  0  0  0  0  0  0  0  0  0
   18.3856  -14.7500   22.6608 I   0  0  0  0  0  0  0  0  0  0  0  0
   12.9398  -13.3983   22.4527 C   0  0  0  0  0  0  0  0  0  0  0  0
   12.3788  -12.2530   22.7211 N   0  0  0  0  0  0  0  0  0  0  0  0
   12.5455  -14.5807   22.8524 N   0  0  0  0  0  0  0  0  0  0  0  0
   12.7645  -11.4204   22.3646 H   0  0  0  0  0  0  0  0  0  0  0  0
   11.5693  -12.2205   23.2805 H   0  0  0  0  0  0  0  0  0  0  0  0
   13.0498  -15.3835   22.5870 H   0  0  0  0  0  0  0  0  0  0  0  0
   11.7446  -14.6673   23.4184 H   0  0  0  0  0  0  0  0  0  0  0  0
 11  1  1  0  0  0
 11 12  1  0  0  0
 11 13  2  0  0  0
  1  2  1  0  0  0
  1  5  2  0  0  0
  2  3  1  0  0  0
  3  4  2  0  0  0
  3  6  1  0  0  0
  4  5  1  0  0  0
  4  9  1  0  0  0
  6  7  2  0  0  0
  7  8  1  0  0  0
  8  9  2  0  0  0
  9 10  1  0  0  0
 12 14  1  0  0  0
 12 15  1  0  0  0
 13 16  1  0  0  0
 13 17  1  0  0  0
M  CHG 1  13   1
M  END
> <minimizedAffinity>
-5.03198

$$$$
1C5N_ESI_H_522


 17 18  0  0  0  0  0  0  0  0999 V2000
   13.2385  -12.6115   20.3803 C   0  0  0  0  0  0  0  0  0  0  0  0
   12.7048  -14.2255   20.8938 S   0  0  0  0  0  0  0  0  0  0  0  0
   13.7532  -14.9625   19.6730 C   0  0  0  0  0  0  0  0  0  0  0  0
   14.4328  -13.9695   18.9662 C   0  0  0  0  0  0  0  0  0  0  0  0
   14.1382  -12.6939   19.3683 C   0  0  0  0  0  0  0  0  0  0  0  0
   13.9135  -16.3048   19.4120 C   0  0  0  0  0  0  0  0  0  0  0  0
   14.7897  -16.6841   18.4049 C   0  0  0  0  0  0  0  0  0  0  0  0
   15.4924  -15.7127   17.6742 C   0  0  0  0  0  0  0  0  0  0  0  0
   15.3283  -14.3364   17.9450 C   0  0  0  0  0  0  0  0  0  0  0  0
   16.3703  -12.8507   16.9196 I   0  0  0  0  0  0  0  0  0  0  0  0
   12.7310  -11.5454   20.9912 C   0  0  0  0  0  0  0  0  0  0  0  0
   12.7765  -10.4029   20.3661 N   0  0  0  0  0  0  0  0  0  0  0  0
   12.2181  -11.7759   22.1733 N   0  0  0  0  0  0  0  0  0  0  0  0
   13.1893  -10.3459   19.4741 H   0  0  0  0  0  0  0  0  0  0  0  0
   12.3979   -9.5968   20.7857 H   0  0  0  0  0  0  0  0  0  0  0  0
   12.2394  -12.6851   22.5504 H   0  0  0  0  0  0  0  0  0  0  0  0
   11.8111  -11.0401   22.6853 H   0  0  0  0  0  0  0  0  0  0  0  0
 11  1  1  0  0  0
 11 12  1  0  0  0
 11 13  2  0  0  0
  1  2  1  0  0  0
  1  5  2  0  0  0
  2  3  1  0  0  0
  3  4  2  0  0  0
  3  6  1  0  0  0
  4  5  1  0  0  0
  4  9  1  0  0  0
  6  7  2  0  0  0
  7  8  1  0  0  0
  8  9  2  0  0  0
  9 10  1  0  0  0
 12 14  1  0  0  0
 12 15  1  0  0  0
 13 16  1  0  0  0
 13 17  1  0  0  0
M  CHG 1  13   1
M  END
> <minimizedAffinity>
-5.01144

$$$$
1C5N_ESI_H_522


 17 18  0  0  0  0  0  0  0  0999 V2000
   13.0813  -13.0973   21.9143 C   0  0  0  0  0  0  0  0  0  0  0  0
   12.2922  -14.3267   20.9046 S   0  0  0  0  0  0  0  0  0  0  0  0
   13.8432  -14.6918   20.1341 C   0  0  0  0  0  0  0  0  0  0  0  0
   14.8454  -13.8845   20.6741 C   0  0  0  0  0  0  0  0  0  0  0  0
   14.4086  -13.0223   21.6443 C   0  0  0  0  0  0  0  0  0  0  0  0
   14.0854  -15.6186   19.1451 C   0  0  0  0  0  0  0  0  0  0  0  0
   15.3813  -15.7555   18.6682 C   0  0  0  0  0  0  0  0  0  0  0  0
   16.4156  -14.9618   19.1893 C   0  0  0  0  0  0  0  0  0  0  0  0
   16.1656  -14.0134   20.2054 C   0  0  0  0  0  0  0  0  0  0  0  0
   17.6653  -12.8330   21.0435 I   0  0  0  0  0  0  0  0  0  0  0  0
   12.3416  -12.4063   22.7762 C   0  0  0  0  0  0  0  0  0  0  0  0
   12.6021  -11.1383   22.9264 N   0  0  0  0  0  0  0  0  0  0  0  0
   11.4041  -13.0939   23.3777 N   0  0  0  0  0  0  0  0  0  0  0  0
   13.3364  -10.7231   22.4189 H   0  0  0  0  0  0  0  0  0  0  0  0
   12.0645  -10.5956   23.5475 H   0  0  0  0  0  0  0  0  0  0  0  0
   11.2977  -14.0537   23.1861 H   0  0  0  0  0  0  0  0  0  0  0  0
   10.8053  -12.6512   24.0217 H   0  0  0  0  0  0  0  0  0  0  0  0
 11  1  1  0  0  0
 11 12  1  0  0  0
 11 13  2  0  0  0
  1  2  1  0  0  0
  1  5  2  0  0  0
  2  3  1  0  0  0
  3  4  2  0  0  0
  3  6  1  0  0  0
  4  5  1  0  0  0
  4  9  1  0  0  0
  6  7  2  0  0  0
  7  8  1  0  0  0
  8  9  2  0  0  0
  9 10  1  0  0  0
 12 14  1  0  0  0
 12 15  1  0  0  0
 13 16  1  0  0  0
 13 17  1  0  0  0
M  CHG 1  13   1
M  END
> <minimizedAffinity>
-4.78596

$$$$
1C5N_ESI_H_522


 17 18  0  0  0  0  0  0  0  0999 V2000
   13.2115  -13.8970   20.9585 C   0  0  0  0  0  0  0  0  0  0  0  0
   13.5141  -12.4145   20.0289 S   0  0  0  0  0  0  0  0  0  0  0  0
   14.3758  -13.3569   18.8032 C   0  0  0  0  0  0  0  0  0  0  0  0
   14.3822  -14.7067   19.1575 C   0  0  0  0  0  0  0  0  0  0  0  0
   13.7411  -14.9799   20.3363 C   0  0  0  0  0  0  0  0  0  0  0  0
   14.9722  -12.8851   17.6555 C   0  0  0  0  0  0  0  0  0  0  0  0
   15.6038  -13.7918   16.8161 C   0  0  0  0  0  0  0  0  0  0  0  0
   15.6284  -15.1580   17.1390 C   0  0  0  0  0  0  0  0  0  0  0  0
   15.0141  -15.6402   18.3156 C   0  0  0  0  0  0  0  0  0  0  0  0
   14.9861  -17.6600   18.8297 I   0  0  0  0  0  0  0  0  0  0  0  0
   12.5460  -13.8079   22.1058 C   0  0  0  0  0  0  0  0  0  0  0  0
   11.9619  -12.6776   22.3879 N   0  0  0  0  0  0  0  0  0  0  0  0
   12.5418  -14.8982   22.8302 N   0  0  0  0  0  0  0  0  0  0  0  0
   12.0322  -11.9183   21.7651 H   0  0  0  0  0  0  0  0  0  0  0  0
   11.4504  -12.5829   23.2237 H   0  0  0  0  0  0  0  0  0  0  0  0
   13.0204  -15.6993   22.5167 H   0  0  0  0  0  0  0  0  0  0  0  0
   12.0600  -14.9171   23.6885 H   0  0  0  0  0  0  0  0  0  0  0  0
 11  1  1  0  0  0
 11 12  1  0  0  0
 11 13  2  0  0  0
  1  2  1  0  0  0
  1  5  2  0  0  0
  2  3  1  0  0  0
  3  4  2  0  0  0
  3  6  1  0  0  0
  4  5  1  0  0  0
  4  9  1  0  0  0
  6  7  2  0  0  0
  7  8  1  0  0  0
  8  9  2  0  0  0
  9 10  1  0  0  0
 12 14  1  0  0  0
 12 15  1  0  0  0
 13 16  1  0  0  0
 13 17  1  0  0  0
M  CHG 1  13   1
M  END
> <minimizedAffinity>
-4.72045

$$$$
1C5N_ESI_H_522


 17 18  0  0  0  0  0  0  0  0999 V2000
   14.3743  -12.2881   21.4537 C   0  0  0  0  0  0  0  0  0  0  0  0
   16.0756  -12.3011   20.9448 S   0  0  0  0  0  0  0  0  0  0  0  0
   15.9791  -14.0453   20.6607 C   0  0  0  0  0  0  0  0  0  0  0  0
   14.6955  -14.5061   20.9569 C   0  0  0  0  0  0  0  0  0  0  0  0
   13.8353  -13.5312   21.3871 C   0  0  0  0  0  0  0  0  0  0  0  0
   16.9846  -14.8751   20.2178 C   0  0  0  0  0  0  0  0  0  0  0  0
   16.7074  -16.2253   20.0579 C   0  0  0  0  0  0  0  0  0  0  0  0
   15.4267  -16.7244   20.3440 C   0  0  0  0  0  0  0  0  0  0  0  0
   14.3960  -15.8713   20.7960 C   0  0  0  0  0  0  0  0  0  0  0  0
   12.4662  -16.5469   21.2018 I   0  0  0  0  0  0  0  0  0  0  0  0
   13.8295  -11.1370   21.8353 C   0  0  0  0  0  0  0  0  0  0  0  0
   12.8139  -11.1817   22.6508 N   0  0  0  0  0  0  0  0  0  0  0  0
   14.4004  -10.0649   21.3473 N   0  0  0  0  0  0  0  0  0  0  0  0
   12.4649  -12.0505   22.9551 H   0  0  0  0  0  0  0  0  0  0  0  0
   12.3957  -10.3467   22.9624 H   0  0  0  0  0  0  0  0  0  0  0  0
   15.1668  -10.1506   20.7353 H   0  0  0  0  0  0  0  0  0  0  0  0
   14.0634   -9.1729   21.5923 H   0  0  0  0  0  0  0  0  0  0  0  0
 11  1  1  0  0  0
 11 12  1  0  0  0
 11 13  2  0  0  0
  1  2  1  0  0  0
  1  5  2  0  0  0
  2  3  1  0  0  0
  3  4  2  0  0  0
  3  6  1  0  0  0
  4  5  1  0  0  0
  4  9  1  0  0  0
  6  7  2  0  0  0
  7  8  1  0  0  0
  8  9  2  0  0  0
  9 10  1  0  0  0
 12 14  1  0  0  0
 12 15  1  0  0  0
 13 16  1  0  0  0
 13 17  1  0  0  0
M  CHG 1  13   1
M  END
> <minimizedAffinity>
-4.70477

$$$$
