4GHI_0X3_A_401


 22 24  0  0  0  0  0  0  0  0999 V2000
   12.2981  -41.8312   10.4175 C   0  0  0  0  0  0  0  0  0  0  0  0
   11.0111  -41.5034   10.7387 C   0  0  0  0  0  0  0  0  0  0  0  0
   12.6687  -41.8471    9.0108 C   0  0  0  0  0  0  0  0  0  0  0  0
   11.8162  -41.5377    8.0101 C   0  0  0  0  0  0  0  0  0  0  0  0
   10.4680  -41.2101    8.3238 C   0  0  0  0  0  0  0  0  0  0  0  0
   10.0681  -41.1879    9.7178 C   0  0  0  0  0  0  0  0  0  0  0  0
    9.4010  -40.8677    7.5888 N   0  0  0  0  0  0  0  0  0  0  0  0
    8.4182  -40.6498    8.4589 O   0  0  0  0  0  0  0  0  0  0  0  0
    8.7660  -40.8196    9.7297 N   0  0  0  0  0  0  0  0  0  0  0  0
   10.5591  -41.4783   12.0836 N   0  0  0  0  0  0  0  0  0  0  0  0
   11.3374  -41.0523   12.9367 O   0  0  0  0  0  0  0  0  0  0  0  0
    9.4551  -41.8678   12.3733 O   0  0  0  0  0  0  0  0  0  0  0  0
   13.2659  -42.1787   11.3137 N   0  0  0  0  0  0  0  0  0  0  0  0
   12.9763  -42.4044   12.2272 H   0  0  0  0  0  0  0  0  0  0  0  0
   17.5232  -39.7844    9.7929 Cl  0  0  0  0  0  0  0  0  0  0  0  0
   16.6793  -41.2119   10.3329 C   0  0  0  0  0  0  0  0  0  0  0  0
   15.3500  -41.1225   10.5922 C   0  0  0  0  0  0  0  0  0  0  0  0
   17.4282  -42.3372   10.5419 C   0  0  0  0  0  0  0  0  0  0  0  0
   16.7287  -43.4290   11.0219 C   0  0  0  0  0  0  0  0  0  0  0  0
   17.3969  -44.5707   11.2425 F   0  0  0  0  0  0  0  0  0  0  0  0
   15.3621  -43.4011   11.2542 C   0  0  0  0  0  0  0  0  0  0  0  0
   14.6676  -42.2419   11.0339 C   0  0  0  0  0  0  0  0  0  0  0  0
  7  5  2  0  0  0
  7  8  1  0  0  0
  4  5  1  0  0  0
  4  3  2  0  0  0
  5  6  1  0  0  0
  8  9  1  0  0  0
  3  1  1  0  0  0
  6  9  2  0  0  0
  6  2  1  0  0  0
 15 16  1  0  0  0
 16 18  2  0  0  0
 16 17  1  0  0  0
  1  2  2  0  0  0
  1 13  1  0  0  0
 18 19  1  0  0  0
 17 22  2  0  0  0
  2 10  1  0  0  0
 22 21  1  0  0  0
 22 13  1  0  0  0
 19 21  2  0  0  0
 19 20  1  0  0  0
 10 12  2  0  0  0
 10 11  1  0  0  0
 13 14  1  0  0  0
M  CHG 1  10   1
M  CHG 1  11  -1
M  END
> <minimizedAffinity>
-10.10096

$$$$
4GHI_0X3_A_401


 22 24  0  0  0  0  0  0  0  0999 V2000
   12.2818  -41.9102   10.2371 C   0  0  0  0  0  0  0  0  0  0  0  0
   11.0276  -41.5220   10.6159 C   0  0  0  0  0  0  0  0  0  0  0  0
   12.6051  -41.8878    8.8188 C   0  0  0  0  0  0  0  0  0  0  0  0
   11.7407  -41.4870    7.8618 C   0  0  0  0  0  0  0  0  0  0  0  0
   10.4252  -41.0950    8.2352 C   0  0  0  0  0  0  0  0  0  0  0  0
   10.0727  -41.1089    9.6420 C   0  0  0  0  0  0  0  0  0  0  0  0
    9.3574  -40.6600    7.5523 N   0  0  0  0  0  0  0  0  0  0  0  0
    8.4179  -40.4225    8.4640 O   0  0  0  0  0  0  0  0  0  0  0  0
    8.7959  -40.6662    9.7141 N   0  0  0  0  0  0  0  0  0  0  0  0
   10.6216  -41.5279   11.9756 N   0  0  0  0  0  0  0  0  0  0  0  0
   11.4349  -41.1379   12.8130 O   0  0  0  0  0  0  0  0  0  0  0  0
    9.5218  -41.9086   12.2918 O   0  0  0  0  0  0  0  0  0  0  0  0
   13.2555  -42.3513   11.0843 N   0  0  0  0  0  0  0  0  0  0  0  0
   12.9746  -42.9110   11.8439 H   0  0  0  0  0  0  0  0  0  0  0  0
   18.0813  -44.0450   11.2042 Cl  0  0  0  0  0  0  0  0  0  0  0  0
   16.9119  -42.7668   11.0038 C   0  0  0  0  0  0  0  0  0  0  0  0
   15.5937  -43.0659   11.1272 C   0  0  0  0  0  0  0  0  0  0  0  0
   17.3897  -41.5342   10.6527 C   0  0  0  0  0  0  0  0  0  0  0  0
   16.4249  -40.5645   10.4506 C   0  0  0  0  0  0  0  0  0  0  0  0
   16.8206  -39.3287   10.1121 F   0  0  0  0  0  0  0  0  0  0  0  0
   15.0700  -40.8092   10.6138 C   0  0  0  0  0  0  0  0  0  0  0  0
   14.6520  -42.0667   10.9585 C   0  0  0  0  0  0  0  0  0  0  0  0
  7  5  2  0  0  0
  7  8  1  0  0  0
  4  5  1  0  0  0
  4  3  2  0  0  0
  5  6  1  0  0  0
  8  9  1  0  0  0
  3  1  1  0  0  0
  6  9  2  0  0  0
  6  2  1  0  0  0
 15 16  1  0  0  0
 16 18  2  0  0  0
 16 17  1  0  0  0
  1  2  2  0  0  0
  1 13  1  0  0  0
 18 19  1  0  0  0
 17 22  2  0  0  0
  2 10  1  0  0  0
 22 21  1  0  0  0
 22 13  1  0  0  0
 19 21  2  0  0  0
 19 20  1  0  0  0
 10 12  2  0  0  0
 10 11  1  0  0  0
 13 14  1  0  0  0
M  CHG 1  10   1
M  CHG 1  11  -1
M  END
> <minimizedAffinity>
-9.25537

$$$$
4GHI_0X3_A_401


 22 24  0  0  0  0  0  0  0  0999 V2000
   12.3813  -41.9887   10.3377 C   0  0  0  0  0  0  0  0  0  0  0  0
   11.1565  -41.7465    9.7824 C   0  0  0  0  0  0  0  0  0  0  0  0
   12.5276  -41.8121   11.7743 C   0  0  0  0  0  0  0  0  0  0  0  0
   11.5159  -41.4411   12.5882 C   0  0  0  0  0  0  0  0  0  0  0  0
   10.2378  -41.1686   12.0262 C   0  0  0  0  0  0  0  0  0  0  0  0
   10.0617  -41.3339   10.5961 C   0  0  0  0  0  0  0  0  0  0  0  0
    9.0597  -40.7894   12.5403 N   0  0  0  0  0  0  0  0  0  0  0  0
    8.2200  -40.7258   11.5101 O   0  0  0  0  0  0  0  0  0  0  0  0
    8.7644  -41.0456   10.3411 N   0  0  0  0  0  0  0  0  0  0  0  0
   10.9281  -41.8784    8.3881 N   0  0  0  0  0  0  0  0  0  0  0  0
   11.7069  -41.3036    7.6279 O   0  0  0  0  0  0  0  0  0  0  0  0
    9.9996  -42.5253    7.9712 O   0  0  0  0  0  0  0  0  0  0  0  0
   13.4976  -42.3558    9.6450 N   0  0  0  0  0  0  0  0  0  0  0  0
   13.3738  -42.6648    8.7185 H   0  0  0  0  0  0  0  0  0  0  0  0
   17.7659  -39.6870   10.5560 Cl  0  0  0  0  0  0  0  0  0  0  0  0
   16.8470  -41.1686   10.6040 C   0  0  0  0  0  0  0  0  0  0  0  0
   15.5814  -41.1652   10.1137 C   0  0  0  0  0  0  0  0  0  0  0  0
   17.4322  -42.2457   11.2108 C   0  0  0  0  0  0  0  0  0  0  0  0
   16.6482  -43.3828   11.2754 C   0  0  0  0  0  0  0  0  0  0  0  0
   17.1601  -44.4813   11.8496 F   0  0  0  0  0  0  0  0  0  0  0  0
   15.3690  -43.4428   10.7441 C   0  0  0  0  0  0  0  0  0  0  0  0
   14.8338  -42.3283   10.1558 C   0  0  0  0  0  0  0  0  0  0  0  0
  7  5  2  0  0  0
  7  8  1  0  0  0
  4  5  1  0  0  0
  4  3  2  0  0  0
  5  6  1  0  0  0
  8  9  1  0  0  0
  3  1  1  0  0  0
  6  9  2  0  0  0
  6  2  1  0  0  0
 15 16  1  0  0  0
 16 18  2  0  0  0
 16 17  1  0  0  0
  1  2  2  0  0  0
  1 13  1  0  0  0
 18 19  1  0  0  0
 17 22  2  0  0  0
  2 10  1  0  0  0
 22 21  1  0  0  0
 22 13  1  0  0  0
 19 21  2  0  0  0
 19 20  1  0  0  0
 10 12  2  0  0  0
 10 11  1  0  0  0
 13 14  1  0  0  0
M  CHG 1  10   1
M  CHG 1  11  -1
M  END
> <minimizedAffinity>
-8.41319

$$$$
4GHI_0X3_A_401


 22 24  0  0  0  0  0  0  0  0999 V2000
   12.3682  -41.9338   10.3850 C   0  0  0  0  0  0  0  0  0  0  0  0
   11.1398  -41.7114    9.8292 C   0  0  0  0  0  0  0  0  0  0  0  0
   12.5102  -41.7582   11.8221 C   0  0  0  0  0  0  0  0  0  0  0  0
   11.4916  -41.4066   12.6360 C   0  0  0  0  0  0  0  0  0  0  0  0
   10.2094  -41.1548   12.0736 C   0  0  0  0  0  0  0  0  0  0  0  0
   10.0374  -41.3197   10.6430 C   0  0  0  0  0  0  0  0  0  0  0  0
    9.0246  -40.7972   12.5876 N   0  0  0  0  0  0  0  0  0  0  0  0
    8.1848  -40.7455   11.5568 O   0  0  0  0  0  0  0  0  0  0  0  0
    8.7355  -41.0531   10.3876 N   0  0  0  0  0  0  0  0  0  0  0  0
   10.9148  -41.8438    8.4344 N   0  0  0  0  0  0  0  0  0  0  0  0
   11.6693  -41.2341    7.6769 O   0  0  0  0  0  0  0  0  0  0  0  0
   10.0120  -42.5244    8.0146 O   0  0  0  0  0  0  0  0  0  0  0  0
   13.4911  -42.2800    9.6924 N   0  0  0  0  0  0  0  0  0  0  0  0
   13.3672  -42.7278    8.8245 H   0  0  0  0  0  0  0  0  0  0  0  0
   17.8570  -44.1594   11.5840 Cl  0  0  0  0  0  0  0  0  0  0  0  0
   16.8854  -42.8320   11.0048 C   0  0  0  0  0  0  0  0  0  0  0  0
   15.6148  -43.0842   10.5995 C   0  0  0  0  0  0  0  0  0  0  0  0
   17.4903  -41.6083   10.9174 C   0  0  0  0  0  0  0  0  0  0  0  0
   16.7009  -40.5969   10.4020 C   0  0  0  0  0  0  0  0  0  0  0  0
   17.2253  -39.3672   10.2948 F   0  0  0  0  0  0  0  0  0  0  0  0
   15.3824  -40.7946   10.0217 C   0  0  0  0  0  0  0  0  0  0  0  0
   14.8345  -42.0451   10.1250 C   0  0  0  0  0  0  0  0  0  0  0  0
  7  5  2  0  0  0
  7  8  1  0  0  0
  4  5  1  0  0  0
  4  3  2  0  0  0
  5  6  1  0  0  0
  8  9  1  0  0  0
  3  1  1  0  0  0
  6  9  2  0  0  0
  6  2  1  0  0  0
 15 16  1  0  0  0
 16 18  2  0  0  0
 16 17  1  0  0  0
  1  2  2  0  0  0
  1 13  1  0  0  0
 18 19  1  0  0  0
 17 22  2  0  0  0
  2 10  1  0  0  0
 22 21  1  0  0  0
 22 13  1  0  0  0
 19 21  2  0  0  0
 19 20  1  0  0  0
 10 12  2  0  0  0
 10 11  1  0  0  0
 13 14  1  0  0  0
M  CHG 1  10   1
M  CHG 1  11  -1
M  END
> <minimizedAffinity>
-7.87784

$$$$
4GHI_0X3_A_401


 22 24  0  0  0  0  0  0  0  0999 V2000
   12.2153  -41.3238   11.3853 C   0  0  0  0  0  0  0  0  0  0  0  0
   11.8418  -41.7486   10.1414 C   0  0  0  0  0  0  0  0  0  0  0  0
   11.2064  -41.3064   12.4333 C   0  0  0  0  0  0  0  0  0  0  0  0
    9.9293  -41.7044   12.2475 C   0  0  0  0  0  0  0  0  0  0  0  0
    9.5177  -42.1341   10.9554 C   0  0  0  0  0  0  0  0  0  0  0  0
   10.5009  -42.1605    9.8896 C   0  0  0  0  0  0  0  0  0  0  0  0
    8.3580  -42.5771   10.4505 N   0  0  0  0  0  0  0  0  0  0  0  0
    8.6038  -42.8565    9.1730 O   0  0  0  0  0  0  0  0  0  0  0  0
    9.8581  -42.6332    8.7966 N   0  0  0  0  0  0  0  0  0  0  0  0
   12.7563  -41.7831    9.0569 N   0  0  0  0  0  0  0  0  0  0  0  0
   13.4940  -42.7642    8.9669 O   0  0  0  0  0  0  0  0  0  0  0  0
   12.8078  -40.8781    8.2614 O   0  0  0  0  0  0  0  0  0  0  0  0
   13.4607  -40.8806   11.7214 N   0  0  0  0  0  0  0  0  0  0  0  0
   13.5176  -40.1261   12.3513 H   0  0  0  0  0  0  0  0  0  0  0  0
   17.7675  -40.2071    9.0440 Cl  0  0  0  0  0  0  0  0  0  0  0  0
   16.7019  -41.1973   10.0061 C   0  0  0  0  0  0  0  0  0  0  0  0
   15.5420  -40.6560   10.4574 C   0  0  0  0  0  0  0  0  0  0  0  0
   17.1355  -42.4557   10.3213 C   0  0  0  0  0  0  0  0  0  0  0  0
   16.2848  -43.1859   11.1306 C   0  0  0  0  0  0  0  0  0  0  0  0
   16.6410  -44.4324   11.4738 F   0  0  0  0  0  0  0  0  0  0  0  0
   15.0669  -42.6945   11.5750 C   0  0  0  0  0  0  0  0  0  0  0  0
   14.6911  -41.4232   11.2328 C   0  0  0  0  0  0  0  0  0  0  0  0
  7  5  2  0  0  0
  7  8  1  0  0  0
  4  5  1  0  0  0
  4  3  2  0  0  0
  5  6  1  0  0  0
  8  9  1  0  0  0
  3  1  1  0  0  0
  6  9  2  0  0  0
  6  2  1  0  0  0
 15 16  1  0  0  0
 16 18  2  0  0  0
 16 17  1  0  0  0
  1  2  2  0  0  0
  1 13  1  0  0  0
 18 19  1  0  0  0
 17 22  2  0  0  0
  2 10  1  0  0  0
 22 21  1  0  0  0
 22 13  1  0  0  0
 19 21  2  0  0  0
 19 20  1  0  0  0
 10 12  2  0  0  0
 10 11  1  0  0  0
 13 14  1  0  0  0
M  CHG 1  10   1
M  CHG 1  11  -1
M  END
> <minimizedAffinity>
-7.42648

$$$$
