3UEV_MYR_A_5412
  RCSB PDB12061711023D
Coordinates from PDB:3UEV:A:5412 Model:1 without hydrogens
 16 15  0  0  0  0            999 V2000
   -0.9490    3.8100   19.6390   C 0  0  0  0  0  0  0  0  0  0  0  0
   -1.0150    3.6800   18.3990   O 0  0  0  0  0  0  0  0  0  0  0  0
   -0.8410    2.8340   20.4250   O 0  0  0  0  0  0  0  0  0  0  0  0
   -0.9880    5.2160   20.1900   C 0  0  0  0  0  0  0  0  0  0  0  0
   -2.2750    5.4710   20.9810   C 0  0  0  0  0  0  0  0  0  0  0  0
   -3.3110    6.2640   20.1940   C 0  0  0  0  0  0  0  0  0  0  0  0
   -2.6460    7.2620   19.2500   C 0  0  0  0  0  0  0  0  0  0  0  0
   -3.4440    8.5590   19.1860   C 0  0  0  0  0  0  0  0  0  0  0  0
   -2.5390    9.7660   18.9520   C 0  0  0  0  0  0  0  0  0  0  0  0
   -3.3500   10.9000   18.3560   C 0  0  0  0  0  0  0  0  0  0  0  0
   -2.8620   12.2730   18.8230   C 0  0  0  0  0  0  0  0  0  0  0  0
   -3.4780   13.3380   17.9350   C 0  0  0  0  0  0  0  0  0  0  0  0
   -2.9400   14.7450   18.2220   C 0  0  0  0  0  0  0  0  0  0  0  0
   -3.5540   15.6340   17.1770   C 0  0  0  0  0  0  0  0  0  0  0  0
   -3.7400   17.0450   17.6610   C 0  0  0  0  0  0  0  0  0  0  0  0
   -4.1920   17.9000   16.5090   C 0  0  0  0  0  0  0  0  0  0  0  0
  1  2  2  0  0  0  0
  1  3  1  0  0  0  0
  1  4  1  0  0  0  0
  4  5  1  0  0  0  0
  5  6  1  0  0  0  0
  6  7  1  0  0  0  0
  7  8  1  0  0  0  0
  8  9  1  0  0  0  0
  9 10  1  0  0  0  0
 10 11  1  0  0  0  0
 11 12  1  0  0  0  0
 12 13  1  0  0  0  0
 13 14  1  0  0  0  0
 14 15  1  0  0  0  0
 15 16  1  0  0  0  0
A    1
C1
A    2
O1
A    3
O2
A    4
C2
A    5
C3
A    6
C4
A    7
C5
A    8
C6
A    9
C7
A   10
C8
A   11
C9
A   12
C10
A   13
C11
A   14
C12
A   15
C13
A   16
C14
M  END
>  <InstanceId>
3UEV_MYR_A_5412

>  <ChemCompId>
MYR

>  <PdbId>
3UEV

>  <ChainId>
A

>  <ResidueNumber>
5412

>  <InsertionCode>


>  <Model>
1

>  <AltIds>


>  <MissingHeavyAtoms>
0

>  <ObservedFormula>
C14 O2

>  <Name>
MYRISTIC ACID

>  <SystematicName>
tetradecanoic acid

>  <Synonyms>


>  <Type>
NON-POLYMER

>  <Formula>
C14 H28 O2

>  <MolecularWeight>
228.371

>  <ModifiedDate>
2014-04-23

>  <Parent>


>  <OneLetterCode>


>  <SubcomponentList>


>  <AmbiguousFlag>
N

>  <InChI>
InChI=1S/C14H28O2/c1-2-3-4-5-6-7-8-9-10-11-12-13-14(15)16/h2-13H2,1H3,(H,15,16)

>  <InChIKey>
TUNFSRHWOTWDNC-UHFFFAOYSA-N

>  <SMILES>
CCCCCCCCCCCCCC(=O)O

$$$$
