4F7V_J1D_A_201


 54 58  0  0  0  0  0  0  0  0999 V2000
    2.8653   22.0452   11.5273 N   0  0  0  0  0  0  0  0  0  0  0  0
    2.3713   23.0390   10.7096 C   0  0  0  0  0  0  0  0  0  0  0  0
    1.7324   22.7810    9.6961 O   0  0  0  0  0  0  0  0  0  0  0  0
    3.3676   22.2707   12.3435 H   0  0  0  0  0  0  0  0  0  0  0  0
    2.6295   20.6506   11.1598 C   0  0  0  0  0  0  0  0  0  0  0  0
    1.8434   19.9989   12.2928 C   0  0  0  0  0  0  0  0  0  0  0  0
    2.7648   19.7454   13.6757 S   0  0  0  0  0  0  0  0  0  0  0  0
    1.9826   18.9823   14.5709 O   0  0  0  0  0  0  0  0  0  0  0  0
    3.4444   20.9526   14.0340 O   0  0  0  0  0  0  0  0  0  0  0  0
    4.0805   18.6855   13.1471 C   0  0  0  0  0  0  0  0  0  0  0  0
    4.6957   17.8980   14.3066 C   0  0  0  0  0  0  0  0  0  0  0  0
    4.1804   16.5271   14.4559 O   0  0  0  0  0  0  0  0  0  0  0  0
    6.2221   17.7338   14.1547 C   0  0  0  0  0  0  0  0  0  0  0  0
    6.8476   18.8740   14.6218 O   0  0  0  0  0  0  0  0  0  0  0  0
    6.4926   16.4755   15.0812 C   0  0  0  0  0  0  0  0  0  0  0  0
    6.5224   16.7011   16.4429 O   0  0  0  0  0  0  0  0  0  0  0  0
    5.2408   15.5974   14.7366 C   0  0  0  0  0  0  0  0  0  0  0  0
    6.5607   19.0506   15.5314 H   0  0  0  0  0  0  0  0  0  0  0  0
    5.6746   17.0772   16.7270 H   0  0  0  0  0  0  0  0  0  0  0  0
    5.4388   14.8399   13.4932 N   0  0  0  0  0  0  0  0  0  0  0  0
    6.6001   14.6307   12.6841 C   0  0  0  0  0  0  0  0  0  0  0  0
    6.3315   13.8960   11.6030 N   0  0  0  0  0  0  0  0  0  0  0  0
    4.9631   13.6417   11.6819 C   0  0  0  0  0  0  0  0  0  0  0  0
    4.1123   12.9575   10.8490 C   0  0  0  0  0  0  0  0  0  0  0  0
    4.6100   12.4016    9.6838 N   0  0  0  0  0  0  0  0  0  0  0  0
    2.7808   12.8345   11.1907 N   0  0  0  0  0  0  0  0  0  0  0  0
    2.3430   13.4460   12.3382 C   0  0  0  0  0  0  0  0  0  0  0  0
    3.0643   14.1241   13.2114 N   0  0  0  0  0  0  0  0  0  0  0  0
    4.3887   14.2131   12.8412 C   0  0  0  0  0  0  0  0  0  0  0  0
    4.0104   11.9087    9.0783 H   0  0  0  0  0  0  0  0  0  0  0  0
    5.5639   12.4989    9.4603 H   0  0  0  0  0  0  0  0  0  0  0  0
    2.6519   24.4421   11.1773 C   0  0  0  0  0  0  0  0  0  0  0  0
    3.4783   25.1163   10.1942 N   0  0  0  0  0  0  0  0  0  0  0  0
    4.8441   24.9102   10.0547 C   0  0  0  0  0  0  0  0  0  0  0  0
    5.4954   24.1485   10.7638 O   0  0  0  0  0  0  0  0  0  0  0  0
    3.0440   25.7597    9.5887 H   0  0  0  0  0  0  0  0  0  0  0  0
    7.1763   27.7845    5.8121 N   0  0  0  0  0  0  0  0  0  0  0  0
    8.3262   27.2789    5.4112 C   0  0  0  0  0  0  0  0  0  0  0  0
    9.0441   27.8291    4.3496 N   0  0  0  0  0  0  0  0  0  0  0  0
    8.9279   26.1964    5.9187 N   0  0  0  0  0  0  0  0  0  0  0  0
    8.4231   25.4694    7.0093 C   0  0  0  0  0  0  0  0  0  0  0  0
    9.0717   24.5165    7.3834 O   0  0  0  0  0  0  0  0  0  0  0  0
    6.6009   25.3170    8.5327 N   0  0  0  0  0  0  0  0  0  0  0  0
    5.4443   25.7293    8.9539 C   0  0  0  0  0  0  0  0  0  0  0  0
    4.7030   26.9570    8.4904 C   0  0  0  0  0  0  0  0  0  0  0  0
    4.6330   27.9944    9.6224 C   0  0  0  0  0  0  0  0  0  0  0  0
    3.3558   26.5275    7.9221 C   0  0  0  0  0  0  0  0  0  0  0  0
    5.4257   27.6006    7.3605 N   0  0  0  0  0  0  0  0  0  0  0  0
    6.5854   27.1016    6.8897 C   0  0  0  0  0  0  0  0  0  0  0  0
    7.1682   25.9886    7.4884 C   0  0  0  0  0  0  0  0  0  0  0  0
    9.9001   27.4283    4.0740 H   0  0  0  0  0  0  0  0  0  0  0  0
    8.6949   28.6183    3.8758 H   0  0  0  0  0  0  0  0  0  0  0  0
    9.7687   25.8937    5.5058 H   0  0  0  0  0  0  0  0  0  0  0  0
    5.0477   28.4102    6.9470 H   0  0  0  0  0  0  0  0  0  0  0  0
 39 38  1  0  0  0
 38 40  1  0  0  0
 38 37  2  0  0  0
 40 41  1  0  0  0
 37 49  1  0  0  0
 41 42  2  0  0  0
 41 50  1  0  0  0
 49 48  1  0  0  0
 49 50  2  0  0  0
 48 45  1  0  0  0
 50 43  1  0  0  0
 47 45  1  0  0  0
 43 44  2  0  0  0
 45 44  1  0  0  0
 45 46  1  0  0  0
 44 34  1  0  0  0
  3  2  2  0  0  0
 34 33  1  0  0  0
 34 35  2  0  0  0
 33 32  1  0  0  0
 25 24  1  0  0  0
  2 32  1  0  0  0
  2  1  1  0  0  0
 24 26  2  0  0  0
 24 23  1  0  0  0
 26 27  1  0  0  0
 22 23  1  0  0  0
 22 21  2  0  0  0
  6  5  1  0  0  0
  6  7  1  0  0  0
 23 29  2  0  0  0
  1  5  1  0  0  0
 27 28  2  0  0  0
 21 20  1  0  0  0
  8  7  2  0  0  0
 10  7  1  0  0  0
 10 11  1  0  0  0
 29 28  1  0  0  0
 29 20  1  0  0  0
  7  9  2  0  0  0
 20 17  1  0  0  0
 13 11  1  0  0  0
 13 14  1  0  0  0
 13 15  1  0  0  0
 11 12  1  0  0  0
 12 17  1  0  0  0
 17 15  1  0  0  0
 15 16  1  0  0  0
 14 18  1  0  0  0
 16 19  1  0  0  0
 25 30  1  0  0  0
 25 31  1  0  0  0
  1  4  1  0  0  0
 33 36  1  0  0  0
 39 51  1  0  0  0
 39 52  1  0  0  0
 40 53  1  0  0  0
 48 54  1  0  0  0
M  END
> <minimizedAffinity>
-13.47151

$$$$
4F7V_J1D_A_201


 54 58  0  0  0  0  0  0  0  0999 V2000
    1.0135   22.4094   13.2630 N   0  0  0  0  0  0  0  0  0  0  0  0
    1.1439   23.7806   13.3176 C   0  0  0  0  0  0  0  0  0  0  0  0
    1.5165   24.3523   14.3356 O   0  0  0  0  0  0  0  0  0  0  0  0
    0.7230   21.9659   12.4335 H   0  0  0  0  0  0  0  0  0  0  0  0
    1.3146   21.6266   14.4597 C   0  0  0  0  0  0  0  0  0  0  0  0
    1.9537   20.3171   14.0088 C   0  0  0  0  0  0  0  0  0  0  0  0
    3.5835   20.4741   13.6286 S   0  0  0  0  0  0  0  0  0  0  0  0
    4.2727   20.7540   14.8295 O   0  0  0  0  0  0  0  0  0  0  0  0
    3.7302   21.2336   12.4248 O   0  0  0  0  0  0  0  0  0  0  0  0
    4.0866   18.8482   13.1414 C   0  0  0  0  0  0  0  0  0  0  0  0
    4.6434   18.0353   14.3128 C   0  0  0  0  0  0  0  0  0  0  0  0
    4.0903   16.6760   14.4312 O   0  0  0  0  0  0  0  0  0  0  0  0
    6.1696   17.8350   14.2102 C   0  0  0  0  0  0  0  0  0  0  0  0
    6.8066   18.9551   14.7092 O   0  0  0  0  0  0  0  0  0  0  0  0
    6.3784   16.5619   15.1325 C   0  0  0  0  0  0  0  0  0  0  0  0
    6.3680   16.7743   16.4967 O   0  0  0  0  0  0  0  0  0  0  0  0
    5.1179   15.7181   14.7378 C   0  0  0  0  0  0  0  0  0  0  0  0
    6.4937   19.1304   15.6104 H   0  0  0  0  0  0  0  0  0  0  0  0
    5.5205   17.1684   16.7561 H   0  0  0  0  0  0  0  0  0  0  0  0
    5.3389   14.9674   13.4941 N   0  0  0  0  0  0  0  0  0  0  0  0
    6.5128   14.7713   12.6998 C   0  0  0  0  0  0  0  0  0  0  0  0
    6.2650   14.0388   11.6124 N   0  0  0  0  0  0  0  0  0  0  0  0
    4.8979   13.7727   11.6718 C   0  0  0  0  0  0  0  0  0  0  0  0
    4.0642   13.0847   10.8248 C   0  0  0  0  0  0  0  0  0  0  0  0
    4.5822   12.5378    9.6642 N   0  0  0  0  0  0  0  0  0  0  0  0
    2.7293   12.9490   11.1481 N   0  0  0  0  0  0  0  0  0  0  0  0
    2.2710   13.5521   12.2920 C   0  0  0  0  0  0  0  0  0  0  0  0
    2.9746   14.2326   13.1775 N   0  0  0  0  0  0  0  0  0  0  0  0
    4.3031   14.3344   12.8255 C   0  0  0  0  0  0  0  0  0  0  0  0
    3.9950   12.0423    9.0487 H   0  0  0  0  0  0  0  0  0  0  0  0
    5.5381   12.6441    9.4539 H   0  0  0  0  0  0  0  0  0  0  0  0
    0.8257   24.4990   12.0335 C   0  0  0  0  0  0  0  0  0  0  0  0
    2.0395   24.6399   11.2521 N   0  0  0  0  0  0  0  0  0  0  0  0
    2.1045   24.4553    9.8777 C   0  0  0  0  0  0  0  0  0  0  0  0
    1.1425   24.1346    9.1858 O   0  0  0  0  0  0  0  0  0  0  0  0
    2.8683   24.8814   11.7255 H   0  0  0  0  0  0  0  0  0  0  0  0
    7.2978   25.0400    7.7828 N   0  0  0  0  0  0  0  0  0  0  0  0
    8.1280   24.0952    8.1787 C   0  0  0  0  0  0  0  0  0  0  0  0
    9.4518   24.0460    7.7428 N   0  0  0  0  0  0  0  0  0  0  0  0
    7.8273   23.0756    8.9921 N   0  0  0  0  0  0  0  0  0  0  0  0
    6.5666   22.9054    9.5872 C   0  0  0  0  0  0  0  0  0  0  0  0
    6.4270   21.9479   10.3170 O   0  0  0  0  0  0  0  0  0  0  0  0
    4.3667   23.8055    9.7078 N   0  0  0  0  0  0  0  0  0  0  0  0
    3.4804   24.6745    9.3280 C   0  0  0  0  0  0  0  0  0  0  0  0
    3.7191   25.8828    8.4593 C   0  0  0  0  0  0  0  0  0  0  0  0
    3.5208   27.1708    9.2744 C   0  0  0  0  0  0  0  0  0  0  0  0
    2.8507   25.7660    7.2124 C   0  0  0  0  0  0  0  0  0  0  0  0
    5.1232   25.8960    7.9678 N   0  0  0  0  0  0  0  0  0  0  0  0
    6.0003   24.9335    8.3137 C   0  0  0  0  0  0  0  0  0  0  0  0
    5.6245   23.9193    9.1897 C   0  0  0  0  0  0  0  0  0  0  0  0
   10.0471   23.3274    8.0567 H   0  0  0  0  0  0  0  0  0  0  0  0
    9.7911   24.7298    7.1211 H   0  0  0  0  0  0  0  0  0  0  0  0
    8.5268   22.4098    9.1833 H   0  0  0  0  0  0  0  0  0  0  0  0
    5.4184   26.6252    7.3759 H   0  0  0  0  0  0  0  0  0  0  0  0
 39 38  1  0  0  0
 38 40  1  0  0  0
 38 37  2  0  0  0
 40 41  1  0  0  0
 37 49  1  0  0  0
 41 42  2  0  0  0
 41 50  1  0  0  0
 49 48  1  0  0  0
 49 50  2  0  0  0
 48 45  1  0  0  0
 50 43  1  0  0  0
 47 45  1  0  0  0
 43 44  2  0  0  0
 45 44  1  0  0  0
 45 46  1  0  0  0
 44 34  1  0  0  0
  3  2  2  0  0  0
 34 33  1  0  0  0
 34 35  2  0  0  0
 33 32  1  0  0  0
 25 24  1  0  0  0
  2 32  1  0  0  0
  2  1  1  0  0  0
 24 26  2  0  0  0
 24 23  1  0  0  0
 26 27  1  0  0  0
 22 23  1  0  0  0
 22 21  2  0  0  0
  6  5  1  0  0  0
  6  7  1  0  0  0
 23 29  2  0  0  0
  1  5  1  0  0  0
 27 28  2  0  0  0
 21 20  1  0  0  0
  8  7  2  0  0  0
 10  7  1  0  0  0
 10 11  1  0  0  0
 29 28  1  0  0  0
 29 20  1  0  0  0
  7  9  2  0  0  0
 20 17  1  0  0  0
 13 11  1  0  0  0
 13 14  1  0  0  0
 13 15  1  0  0  0
 11 12  1  0  0  0
 12 17  1  0  0  0
 17 15  1  0  0  0
 15 16  1  0  0  0
 14 18  1  0  0  0
 16 19  1  0  0  0
 25 30  1  0  0  0
 25 31  1  0  0  0
  1  4  1  0  0  0
 33 36  1  0  0  0
 39 51  1  0  0  0
 39 52  1  0  0  0
 40 53  1  0  0  0
 48 54  1  0  0  0
M  END
> <minimizedAffinity>
-12.64134

$$$$
4F7V_J1D_A_201


 54 58  0  0  0  0  0  0  0  0999 V2000
    1.8698   21.2716   15.2196 N   0  0  0  0  0  0  0  0  0  0  0  0
    3.0167   20.5069   15.2335 C   0  0  0  0  0  0  0  0  0  0  0  0
    4.0623   20.9048   14.7333 O   0  0  0  0  0  0  0  0  0  0  0  0
    1.0412   20.9405   15.6355 H   0  0  0  0  0  0  0  0  0  0  0  0
    1.9072   22.5830   14.5758 C   0  0  0  0  0  0  0  0  0  0  0  0
    0.5441   22.8245   13.9355 C   0  0  0  0  0  0  0  0  0  0  0  0
    0.6281   23.0665   12.2742 S   0  0  0  0  0  0  0  0  0  0  0  0
    0.1370   24.3646   12.0107 O   0  0  0  0  0  0  0  0  0  0  0  0
    0.1891   21.8894   11.5894 O   0  0  0  0  0  0  0  0  0  0  0  0
    2.3614   23.1157   11.9176 C   0  0  0  0  0  0  0  0  0  0  0  0
    2.7559   24.3576   11.1144 C   0  0  0  0  0  0  0  0  0  0  0  0
    4.1422   24.8065   11.3243 O   0  0  0  0  0  0  0  0  0  0  0  0
    2.6388   24.1294    9.5931 C   0  0  0  0  0  0  0  0  0  0  0  0
    1.3255   24.3202    9.2078 O   0  0  0  0  0  0  0  0  0  0  0  0
    3.6010   25.2595    9.0348 C   0  0  0  0  0  0  0  0  0  0  0  0
    3.1005   26.5460    9.0107 O   0  0  0  0  0  0  0  0  0  0  0  0
    4.7634   25.1836   10.0835 C   0  0  0  0  0  0  0  0  0  0  0  0
    1.0278   25.1969    9.4970 H   0  0  0  0  0  0  0  0  0  0  0  0
    2.8518   26.8130    9.9095 H   0  0  0  0  0  0  0  0  0  0  0  0
    5.7037   24.0991    9.7693 N   0  0  0  0  0  0  0  0  0  0  0  0
    5.7987   22.7557   10.2523 C   0  0  0  0  0  0  0  0  0  0  0  0
    6.8385   22.1064    9.7252 N   0  0  0  0  0  0  0  0  0  0  0  0
    7.4602   23.0459    8.9042 C   0  0  0  0  0  0  0  0  0  0  0  0
    8.5858   22.9712    8.1212 C   0  0  0  0  0  0  0  0  0  0  0  0
    9.3131   21.7945    8.0945 N   0  0  0  0  0  0  0  0  0  0  0  0
    8.9675   24.0674    7.3745 N   0  0  0  0  0  0  0  0  0  0  0  0
    8.2268   25.2176    7.4793 C   0  0  0  0  0  0  0  0  0  0  0  0
    7.1325   25.4049    8.1933 N   0  0  0  0  0  0  0  0  0  0  0  0
    6.7777   24.2847    8.9132 C   0  0  0  0  0  0  0  0  0  0  0  0
   10.1219   21.7282    7.5372 H   0  0  0  0  0  0  0  0  0  0  0  0
    9.0217   21.0234    8.6328 H   0  0  0  0  0  0  0  0  0  0  0  0
    2.8845   19.1792   15.9307 C   0  0  0  0  0  0  0  0  0  0  0  0
    3.4735   18.1445   15.1023 N   0  0  0  0  0  0  0  0  0  0  0  0
    4.3953   17.2131   15.5607 C   0  0  0  0  0  0  0  0  0  0  0  0
    4.8204   17.1830   16.7121 O   0  0  0  0  0  0  0  0  0  0  0  0
    3.2030   18.1000   14.1567 H   0  0  0  0  0  0  0  0  0  0  0  0
    5.8180   13.6494   11.4405 N   0  0  0  0  0  0  0  0  0  0  0  0
    4.8065   12.9212   11.0100 C   0  0  0  0  0  0  0  0  0  0  0  0
    4.9485   12.0024    9.9706 N   0  0  0  0  0  0  0  0  0  0  0  0
    3.5486   12.9780   11.4639 N   0  0  0  0  0  0  0  0  0  0  0  0
    3.1439   13.8069   12.5230 C   0  0  0  0  0  0  0  0  0  0  0  0
    1.9779   13.7538   12.8491 O   0  0  0  0  0  0  0  0  0  0  0  0
    3.8952   15.4720   14.0486 N   0  0  0  0  0  0  0  0  0  0  0  0
    4.8296   16.2546   14.4950 C   0  0  0  0  0  0  0  0  0  0  0  0
    6.2821   16.2428   14.0927 C   0  0  0  0  0  0  0  0  0  0  0  0
    7.1562   15.7857   15.2715 C   0  0  0  0  0  0  0  0  0  0  0  0
    6.6386   17.6065   13.5134 C   0  0  0  0  0  0  0  0  0  0  0  0
    6.5042   15.2701   12.9892 N   0  0  0  0  0  0  0  0  0  0  0  0
    5.4962   14.5288   12.4892 C   0  0  0  0  0  0  0  0  0  0  0  0
    4.2182   14.6192   13.0328 C   0  0  0  0  0  0  0  0  0  0  0  0
    4.1738   11.4734    9.6718 H   0  0  0  0  0  0  0  0  0  0  0  0
    5.8235   11.8826    9.5355 H   0  0  0  0  0  0  0  0  0  0  0  0
    2.8712   12.4086   11.0325 H   0  0  0  0  0  0  0  0  0  0  0  0
    7.4090   15.1655   12.6155 H   0  0  0  0  0  0  0  0  0  0  0  0
 39 38  1  0  0  0
 38 40  1  0  0  0
 38 37  2  0  0  0
 40 41  1  0  0  0
 37 49  1  0  0  0
 41 42  2  0  0  0
 41 50  1  0  0  0
 49 48  1  0  0  0
 49 50  2  0  0  0
 48 45  1  0  0  0
 50 43  1  0  0  0
 47 45  1  0  0  0
 43 44  2  0  0  0
 45 44  1  0  0  0
 45 46  1  0  0  0
 44 34  1  0  0  0
  3  2  2  0  0  0
 34 33  1  0  0  0
 34 35  2  0  0  0
 33 32  1  0  0  0
 25 24  1  0  0  0
  2 32  1  0  0  0
  2  1  1  0  0  0
 24 26  2  0  0  0
 24 23  1  0  0  0
 26 27  1  0  0  0
 22 23  1  0  0  0
 22 21  2  0  0  0
  6  5  1  0  0  0
  6  7  1  0  0  0
 23 29  2  0  0  0
  1  5  1  0  0  0
 27 28  2  0  0  0
 21 20  1  0  0  0
  8  7  2  0  0  0
 10  7  1  0  0  0
 10 11  1  0  0  0
 29 28  1  0  0  0
 29 20  1  0  0  0
  7  9  2  0  0  0
 20 17  1  0  0  0
 13 11  1  0  0  0
 13 14  1  0  0  0
 13 15  1  0  0  0
 11 12  1  0  0  0
 12 17  1  0  0  0
 17 15  1  0  0  0
 15 16  1  0  0  0
 14 18  1  0  0  0
 16 19  1  0  0  0
 25 30  1  0  0  0
 25 31  1  0  0  0
  1  4  1  0  0  0
 33 36  1  0  0  0
 39 51  1  0  0  0
 39 52  1  0  0  0
 40 53  1  0  0  0
 48 54  1  0  0  0
M  END
> <minimizedAffinity>
-11.76651

$$$$
4F7V_J1D_A_201


 54 58  0  0  0  0  0  0  0  0999 V2000
    3.4279   21.3710   11.6009 N   0  0  0  0  0  0  0  0  0  0  0  0
    2.9428   22.3632   10.7761 C   0  0  0  0  0  0  0  0  0  0  0  0
    2.3790   22.1039    9.7193 O   0  0  0  0  0  0  0  0  0  0  0  0
    3.8689   21.5970   12.4516 H   0  0  0  0  0  0  0  0  0  0  0  0
    3.2752   19.9772   11.1889 C   0  0  0  0  0  0  0  0  0  0  0  0
    1.9665   19.4602   11.7775 C   0  0  0  0  0  0  0  0  0  0  0  0
    1.9818   17.8049   12.0693 S   0  0  0  0  0  0  0  0  0  0  0  0
    2.1603   17.6221   13.4587 O   0  0  0  0  0  0  0  0  0  0  0  0
    2.7599   17.1426   11.0675 O   0  0  0  0  0  0  0  0  0  0  0  0
    0.3314   17.2736   11.7123 C   0  0  0  0  0  0  0  0  0  0  0  0
   -0.0087   15.9395   12.3814 C   0  0  0  0  0  0  0  0  0  0  0  0
    0.8387   14.8113   11.9613 O   0  0  0  0  0  0  0  0  0  0  0  0
    0.1443   16.0009   13.9153 C   0  0  0  0  0  0  0  0  0  0  0  0
   -1.0019   16.5459   14.4619 O   0  0  0  0  0  0  0  0  0  0  0  0
    0.3108   14.4649   14.2724 C   0  0  0  0  0  0  0  0  0  0  0  0
   -0.8400   13.7021   14.2884 O   0  0  0  0  0  0  0  0  0  0  0  0
    1.2176   13.9956   13.0832 C   0  0  0  0  0  0  0  0  0  0  0  0
   -1.7741   16.0397   14.1647 H   0  0  0  0  0  0  0  0  0  0  0  0
   -1.2648   13.7395   13.4172 H   0  0  0  0  0  0  0  0  0  0  0  0
    2.6333   14.3012   13.3309 N   0  0  0  0  0  0  0  0  0  0  0  0
    3.2991   14.8574   14.4687 C   0  0  0  0  0  0  0  0  0  0  0  0
    4.6090   15.0035   14.2605 N   0  0  0  0  0  0  0  0  0  0  0  0
    4.8079   14.5662   12.9518 C   0  0  0  0  0  0  0  0  0  0  0  0
    5.9373   14.4989   12.1736 C   0  0  0  0  0  0  0  0  0  0  0  0
    7.1413   14.9430   12.6907 N   0  0  0  0  0  0  0  0  0  0  0  0
    5.8511   13.9874   10.8946 N   0  0  0  0  0  0  0  0  0  0  0  0
    4.6193   13.6043   10.4273 C   0  0  0  0  0  0  0  0  0  0  0  0
    3.4724   13.6215   11.0806 N   0  0  0  0  0  0  0  0  0  0  0  0
    3.6029   14.1261   12.3562 C   0  0  0  0  0  0  0  0  0  0  0  0
    7.9582   14.9001   12.1429 H   0  0  0  0  0  0  0  0  0  0  0  0
    7.1812   15.3020   13.6066 H   0  0  0  0  0  0  0  0  0  0  0  0
    3.1336   23.7648   11.2910 C   0  0  0  0  0  0  0  0  0  0  0  0
    3.8398   24.5472   10.2945 N   0  0  0  0  0  0  0  0  0  0  0  0
    5.2180   24.5306   10.1273 C   0  0  0  0  0  0  0  0  0  0  0  0
    5.9817   23.8647   10.8204 O   0  0  0  0  0  0  0  0  0  0  0  0
    3.3093   25.1255    9.7001 H   0  0  0  0  0  0  0  0  0  0  0  0
    7.0413   27.7012    5.8467 N   0  0  0  0  0  0  0  0  0  0  0  0
    8.2239   27.3336    5.3938 C   0  0  0  0  0  0  0  0  0  0  0  0
    8.8325   27.9742    4.3148 N   0  0  0  0  0  0  0  0  0  0  0  0
    8.9631   26.3200    5.8601 N   0  0  0  0  0  0  0  0  0  0  0  0
    8.5872   25.5275    6.9570 C   0  0  0  0  0  0  0  0  0  0  0  0
    9.3532   24.6495    7.2901 O   0  0  0  0  0  0  0  0  0  0  0  0
    6.8558   25.1517    8.5462 N   0  0  0  0  0  0  0  0  0  0  0  0
    5.6779   25.4256    9.0180 C   0  0  0  0  0  0  0  0  0  0  0  0
    4.7854   26.5671    8.6035 C   0  0  0  0  0  0  0  0  0  0  0  0
    4.6444   27.5762    9.7543 C   0  0  0  0  0  0  0  0  0  0  0  0
    3.4734   25.9951    8.0802 C   0  0  0  0  0  0  0  0  0  0  0  0
    5.3855   27.3019    7.4576 N   0  0  0  0  0  0  0  0  0  0  0  0
    6.5743   26.9429    6.9347 C   0  0  0  0  0  0  0  0  0  0  0  0
    7.3020   25.8957    7.4922 C   0  0  0  0  0  0  0  0  0  0  0  0
    9.7164   27.6761    4.0001 H   0  0  0  0  0  0  0  0  0  0  0  0
    8.3781   28.7246    3.8678 H   0  0  0  0  0  0  0  0  0  0  0  0
    9.8156   26.1192    5.4103 H   0  0  0  0  0  0  0  0  0  0  0  0
    4.9027   28.0685    7.0723 H   0  0  0  0  0  0  0  0  0  0  0  0
 39 38  1  0  0  0
 38 40  1  0  0  0
 38 37  2  0  0  0
 40 41  1  0  0  0
 37 49  1  0  0  0
 41 42  2  0  0  0
 41 50  1  0  0  0
 49 48  1  0  0  0
 49 50  2  0  0  0
 48 45  1  0  0  0
 50 43  1  0  0  0
 47 45  1  0  0  0
 43 44  2  0  0  0
 45 44  1  0  0  0
 45 46  1  0  0  0
 44 34  1  0  0  0
  3  2  2  0  0  0
 34 33  1  0  0  0
 34 35  2  0  0  0
 33 32  1  0  0  0
 25 24  1  0  0  0
  2 32  1  0  0  0
  2  1  1  0  0  0
 24 26  2  0  0  0
 24 23  1  0  0  0
 26 27  1  0  0  0
 22 23  1  0  0  0
 22 21  2  0  0  0
  6  5  1  0  0  0
  6  7  1  0  0  0
 23 29  2  0  0  0
  1  5  1  0  0  0
 27 28  2  0  0  0
 21 20  1  0  0  0
  8  7  2  0  0  0
 10  7  1  0  0  0
 10 11  1  0  0  0
 29 28  1  0  0  0
 29 20  1  0  0  0
  7  9  2  0  0  0
 20 17  1  0  0  0
 13 11  1  0  0  0
 13 14  1  0  0  0
 13 15  1  0  0  0
 11 12  1  0  0  0
 12 17  1  0  0  0
 17 15  1  0  0  0
 15 16  1  0  0  0
 14 18  1  0  0  0
 16 19  1  0  0  0
 25 30  1  0  0  0
 25 31  1  0  0  0
  1  4  1  0  0  0
 33 36  1  0  0  0
 39 51  1  0  0  0
 39 52  1  0  0  0
 40 53  1  0  0  0
 48 54  1  0  0  0
M  END
> <minimizedAffinity>
-11.56389

$$$$
4F7V_J1D_A_201


 54 58  0  0  0  0  0  0  0  0999 V2000
    1.0409   21.8629   14.6301 N   0  0  0  0  0  0  0  0  0  0  0  0
    2.1352   22.1797   15.4063 C   0  0  0  0  0  0  0  0  0  0  0  0
    2.4668   23.3420   15.6086 O   0  0  0  0  0  0  0  0  0  0  0  0
    0.7827   20.9238   14.4867 H   0  0  0  0  0  0  0  0  0  0  0  0
    0.2715   22.9475   14.0241 C   0  0  0  0  0  0  0  0  0  0  0  0
    0.5390   22.9232   12.5226 C   0  0  0  0  0  0  0  0  0  0  0  0
    1.9852   23.6670   12.0972 S   0  0  0  0  0  0  0  0  0  0  0  0
    3.0136   22.7107   12.2509 O   0  0  0  0  0  0  0  0  0  0  0  0
    2.0310   24.9881   12.6450 O   0  0  0  0  0  0  0  0  0  0  0  0
    1.8420   23.9585   10.3570 C   0  0  0  0  0  0  0  0  0  0  0  0
    2.7273   25.1146    9.8852 C   0  0  0  0  0  0  0  0  0  0  0  0
    4.0189   25.2201   10.5839 O   0  0  0  0  0  0  0  0  0  0  0  0
    3.0930   24.9968    8.3911 C   0  0  0  0  0  0  0  0  0  0  0  0
    2.0567   25.5049    7.6312 O   0  0  0  0  0  0  0  0  0  0  0  0
    4.3938   25.9008    8.3176 C   0  0  0  0  0  0  0  0  0  0  0  0
    4.2003   27.2677    8.2952 O   0  0  0  0  0  0  0  0  0  0  0  0
    5.0883   25.5057    9.6660 C   0  0  0  0  0  0  0  0  0  0  0  0
    1.8604   26.4109    7.9167 H   0  0  0  0  0  0  0  0  0  0  0  0
    3.7189   27.5392    9.0924 H   0  0  0  0  0  0  0  0  0  0  0  0
    5.8416   24.2507    9.5375 N   0  0  0  0  0  0  0  0  0  0  0  0
    5.6297   22.9543   10.1048 C   0  0  0  0  0  0  0  0  0  0  0  0
    6.5853   22.0917    9.7535 N   0  0  0  0  0  0  0  0  0  0  0  0
    7.4608   22.8384    8.9666 C   0  0  0  0  0  0  0  0  0  0  0  0
    8.6361   22.5039    8.3399 C   0  0  0  0  0  0  0  0  0  0  0  0
    9.1311   21.2189    8.4741 N   0  0  0  0  0  0  0  0  0  0  0  0
    9.2979   23.4526    7.5869 N   0  0  0  0  0  0  0  0  0  0  0  0
    8.7758   24.7201    7.5298 C   0  0  0  0  0  0  0  0  0  0  0  0
    7.6600   25.1540    8.0858 N   0  0  0  0  0  0  0  0  0  0  0  0
    7.0231   24.1749    8.8170 C   0  0  0  0  0  0  0  0  0  0  0  0
    9.9727   20.9667    8.0298 H   0  0  0  0  0  0  0  0  0  0  0  0
    8.6418   20.5567    9.0138 H   0  0  0  0  0  0  0  0  0  0  0  0
    2.8553   20.9978   15.9987 C   0  0  0  0  0  0  0  0  0  0  0  0
    2.9026   19.9283   15.0200 N   0  0  0  0  0  0  0  0  0  0  0  0
    3.9488   19.7377   14.1275 C   0  0  0  0  0  0  0  0  0  0  0  0
    4.9333   20.4684   14.0637 O   0  0  0  0  0  0  0  0  0  0  0  0
    2.1463   19.2989   14.9865 H   0  0  0  0  0  0  0  0  0  0  0  0
    3.1165   15.1467   10.9763 N   0  0  0  0  0  0  0  0  0  0  0  0
    3.5501   14.0392   11.5457 C   0  0  0  0  0  0  0  0  0  0  0  0
    3.4060   12.7921   10.9383 N   0  0  0  0  0  0  0  0  0  0  0  0
    4.1346   13.9502   12.7465 N   0  0  0  0  0  0  0  0  0  0  0  0
    4.4166   15.0634   13.5551 C   0  0  0  0  0  0  0  0  0  0  0  0
    4.9633   14.8494   14.6153 O   0  0  0  0  0  0  0  0  0  0  0  0
    4.1825   17.4266   13.7125 N   0  0  0  0  0  0  0  0  0  0  0  0
    3.7421   18.5513   13.2371 C   0  0  0  0  0  0  0  0  0  0  0  0
    3.1163   18.7731   11.8841 C   0  0  0  0  0  0  0  0  0  0  0  0
    4.0361   19.6393   11.0087 C   0  0  0  0  0  0  0  0  0  0  0  0
    1.7079   19.3206   12.0822 C   0  0  0  0  0  0  0  0  0  0  0  0
    2.9441   17.4762   11.1760 N   0  0  0  0  0  0  0  0  0  0  0  0
    3.3371   16.3127   11.7304 C   0  0  0  0  0  0  0  0  0  0  0  0
    3.9667   16.3006   12.9715 C   0  0  0  0  0  0  0  0  0  0  0  0
    3.7405   11.9833   11.3893 H   0  0  0  0  0  0  0  0  0  0  0  0
    2.9698   12.7204   10.0586 H   0  0  0  0  0  0  0  0  0  0  0  0
    4.3798   13.0572   13.0805 H   0  0  0  0  0  0  0  0  0  0  0  0
    2.5335   17.4678   10.2813 H   0  0  0  0  0  0  0  0  0  0  0  0
 39 38  1  0  0  0
 38 40  1  0  0  0
 38 37  2  0  0  0
 40 41  1  0  0  0
 37 49  1  0  0  0
 41 42  2  0  0  0
 41 50  1  0  0  0
 49 48  1  0  0  0
 49 50  2  0  0  0
 48 45  1  0  0  0
 50 43  1  0  0  0
 47 45  1  0  0  0
 43 44  2  0  0  0
 45 44  1  0  0  0
 45 46  1  0  0  0
 44 34  1  0  0  0
  3  2  2  0  0  0
 34 33  1  0  0  0
 34 35  2  0  0  0
 33 32  1  0  0  0
 25 24  1  0  0  0
  2 32  1  0  0  0
  2  1  1  0  0  0
 24 26  2  0  0  0
 24 23  1  0  0  0
 26 27  1  0  0  0
 22 23  1  0  0  0
 22 21  2  0  0  0
  6  5  1  0  0  0
  6  7  1  0  0  0
 23 29  2  0  0  0
  1  5  1  0  0  0
 27 28  2  0  0  0
 21 20  1  0  0  0
  8  7  2  0  0  0
 10  7  1  0  0  0
 10 11  1  0  0  0
 29 28  1  0  0  0
 29 20  1  0  0  0
  7  9  2  0  0  0
 20 17  1  0  0  0
 13 11  1  0  0  0
 13 14  1  0  0  0
 13 15  1  0  0  0
 11 12  1  0  0  0
 12 17  1  0  0  0
 17 15  1  0  0  0
 15 16  1  0  0  0
 14 18  1  0  0  0
 16 19  1  0  0  0
 25 30  1  0  0  0
 25 31  1  0  0  0
  1  4  1  0  0  0
 33 36  1  0  0  0
 39 51  1  0  0  0
 39 52  1  0  0  0
 40 53  1  0  0  0
 48 54  1  0  0  0
M  END
> <minimizedAffinity>
-11.54887

$$$$
4F7V_J1D_A_201


 54 58  0  0  0  0  0  0  0  0999 V2000
    1.5488   20.5621   16.4834 N   0  0  0  0  0  0  0  0  0  0  0  0
    2.8349   20.0916   16.3264 C   0  0  0  0  0  0  0  0  0  0  0  0
    3.7099   20.7711   15.8024 O   0  0  0  0  0  0  0  0  0  0  0  0
    0.8608   20.0065   16.9161 H   0  0  0  0  0  0  0  0  0  0  0  0
    1.2257   21.9012   15.9953 C   0  0  0  0  0  0  0  0  0  0  0  0
   -0.0815   21.8076   15.2150 C   0  0  0  0  0  0  0  0  0  0  0  0
    0.1034   21.1075   13.6980 S   0  0  0  0  0  0  0  0  0  0  0  0
   -0.9947   21.5146   12.9078 O   0  0  0  0  0  0  0  0  0  0  0  0
    0.5290   19.7487   13.8391 O   0  0  0  0  0  0  0  0  0  0  0  0
    1.5260   21.9046   13.0091 C   0  0  0  0  0  0  0  0  0  0  0  0
    2.1849   21.0704   11.9077 C   0  0  0  0  0  0  0  0  0  0  0  0
    2.2394   21.7288   10.5920 O   0  0  0  0  0  0  0  0  0  0  0  0
    3.6511   20.7225   12.2382 C   0  0  0  0  0  0  0  0  0  0  0  0
    3.6771   19.6162   13.0658 O   0  0  0  0  0  0  0  0  0  0  0  0
    4.2287   20.4092   10.7950 C   0  0  0  0  0  0  0  0  0  0  0  0
    3.9218   19.1752   10.2571 O   0  0  0  0  0  0  0  0  0  0  0  0
    3.5130   21.5236    9.9568 C   0  0  0  0  0  0  0  0  0  0  0  0
    3.1857   18.8902   12.6506 H   0  0  0  0  0  0  0  0  0  0  0  0
    2.9585   19.0793   10.1967 H   0  0  0  0  0  0  0  0  0  0  0  0
    4.2150   22.8103   10.0590 N   0  0  0  0  0  0  0  0  0  0  0  0
    5.4707   23.1621   10.6478 C   0  0  0  0  0  0  0  0  0  0  0  0
    5.7210   24.4692   10.5499 N   0  0  0  0  0  0  0  0  0  0  0  0
    4.5976   24.9955    9.9140 C   0  0  0  0  0  0  0  0  0  0  0  0
    4.2674   26.2807    9.5601 C   0  0  0  0  0  0  0  0  0  0  0  0
    5.1379   27.3110    9.8684 N   0  0  0  0  0  0  0  0  0  0  0  0
    3.0779   26.5193    8.9019 N   0  0  0  0  0  0  0  0  0  0  0  0
    2.2400   25.4591    8.6646 C   0  0  0  0  0  0  0  0  0  0  0  0
    2.4510   24.1889    8.9555 N   0  0  0  0  0  0  0  0  0  0  0  0
    3.6532   23.9909    9.5993 C   0  0  0  0  0  0  0  0  0  0  0  0
    4.9126   28.2366    9.6201 H   0  0  0  0  0  0  0  0  0  0  0  0
    5.9825   27.1184   10.3361 H   0  0  0  0  0  0  0  0  0  0  0  0
    3.0750   18.7094   16.8723 C   0  0  0  0  0  0  0  0  0  0  0  0
    3.5819   17.8591   15.8122 N   0  0  0  0  0  0  0  0  0  0  0  0
    4.6648   17.0019   15.9545 C   0  0  0  0  0  0  0  0  0  0  0  0
    5.3160   16.8909   16.9892 O   0  0  0  0  0  0  0  0  0  0  0  0
    3.1304   17.8918   14.9379 H   0  0  0  0  0  0  0  0  0  0  0  0
    5.5728   14.1747   11.1709 N   0  0  0  0  0  0  0  0  0  0  0  0
    4.5126   13.5148   10.7473 C   0  0  0  0  0  0  0  0  0  0  0  0
    4.5261   12.7795    9.5623 N   0  0  0  0  0  0  0  0  0  0  0  0
    3.3164   13.4823   11.3468 N   0  0  0  0  0  0  0  0  0  0  0  0
    3.0436   14.1226   12.5667 C   0  0  0  0  0  0  0  0  0  0  0  0
    1.9230   14.0036   13.0124 O   0  0  0  0  0  0  0  0  0  0  0  0
    3.9794   15.5251   14.2464 N   0  0  0  0  0  0  0  0  0  0  0  0
    4.9652   16.2352   14.7035 C   0  0  0  0  0  0  0  0  0  0  0  0
    6.3610   16.3060   14.1393 C   0  0  0  0  0  0  0  0  0  0  0  0
    7.3626   15.6728   15.1184 C   0  0  0  0  0  0  0  0  0  0  0  0
    6.6582   17.7499   13.7532 C   0  0  0  0  0  0  0  0  0  0  0  0
    6.4462   15.5289   12.8736 N   0  0  0  0  0  0  0  0  0  0  0  0
    5.3814   14.8675   12.3793 C   0  0  0  0  0  0  0  0  0  0  0  0
    4.1759   14.8532   13.0745 C   0  0  0  0  0  0  0  0  0  0  0  0
    3.7180   12.2975    9.2729 H   0  0  0  0  0  0  0  0  0  0  0  0
    5.3438   12.7425    9.0152 H   0  0  0  0  0  0  0  0  0  0  0  0
    2.5892   12.9830   10.9095 H   0  0  0  0  0  0  0  0  0  0  0  0
    7.3007   15.4972   12.3857 H   0  0  0  0  0  0  0  0  0  0  0  0
 39 38  1  0  0  0
 38 40  1  0  0  0
 38 37  2  0  0  0
 40 41  1  0  0  0
 37 49  1  0  0  0
 41 42  2  0  0  0
 41 50  1  0  0  0
 49 48  1  0  0  0
 49 50  2  0  0  0
 48 45  1  0  0  0
 50 43  1  0  0  0
 47 45  1  0  0  0
 43 44  2  0  0  0
 45 44  1  0  0  0
 45 46  1  0  0  0
 44 34  1  0  0  0
  3  2  2  0  0  0
 34 33  1  0  0  0
 34 35  2  0  0  0
 33 32  1  0  0  0
 25 24  1  0  0  0
  2 32  1  0  0  0
  2  1  1  0  0  0
 24 26  2  0  0  0
 24 23  1  0  0  0
 26 27  1  0  0  0
 22 23  1  0  0  0
 22 21  2  0  0  0
  6  5  1  0  0  0
  6  7  1  0  0  0
 23 29  2  0  0  0
  1  5  1  0  0  0
 27 28  2  0  0  0
 21 20  1  0  0  0
  8  7  2  0  0  0
 10  7  1  0  0  0
 10 11  1  0  0  0
 29 28  1  0  0  0
 29 20  1  0  0  0
  7  9  2  0  0  0
 20 17  1  0  0  0
 13 11  1  0  0  0
 13 14  1  0  0  0
 13 15  1  0  0  0
 11 12  1  0  0  0
 12 17  1  0  0  0
 17 15  1  0  0  0
 15 16  1  0  0  0
 14 18  1  0  0  0
 16 19  1  0  0  0
 25 30  1  0  0  0
 25 31  1  0  0  0
  1  4  1  0  0  0
 33 36  1  0  0  0
 39 51  1  0  0  0
 39 52  1  0  0  0
 40 53  1  0  0  0
 48 54  1  0  0  0
M  END
> <minimizedAffinity>
-11.38329

$$$$
4F7V_J1D_A_201


 54 58  0  0  0  0  0  0  0  0999 V2000
   -0.0582   23.5462   14.0315 N   0  0  0  0  0  0  0  0  0  0  0  0
    0.7516   24.2132   13.1374 C   0  0  0  0  0  0  0  0  0  0  0  0
    1.5530   25.0645   13.5050 O   0  0  0  0  0  0  0  0  0  0  0  0
   -0.6890   22.8577   13.7198 H   0  0  0  0  0  0  0  0  0  0  0  0
    0.0374   23.8805   15.4510 C   0  0  0  0  0  0  0  0  0  0  0  0
    0.2864   22.5851   16.2168 C   0  0  0  0  0  0  0  0  0  0  0  0
    1.9054   22.1338   16.2428 S   0  0  0  0  0  0  0  0  0  0  0  0
    2.1364   21.4583   17.4618 O   0  0  0  0  0  0  0  0  0  0  0  0
    2.7163   23.2072   15.7553 O   0  0  0  0  0  0  0  0  0  0  0  0
    2.0486   20.9121   14.9698 C   0  0  0  0  0  0  0  0  0  0  0  0
    3.5017   20.6742   14.5515 C   0  0  0  0  0  0  0  0  0  0  0  0
    4.1287   19.4919   15.1650 O   0  0  0  0  0  0  0  0  0  0  0  0
    3.6421   20.4537   13.0311 C   0  0  0  0  0  0  0  0  0  0  0  0
    3.6806   21.6816   12.3984 O   0  0  0  0  0  0  0  0  0  0  0  0
    5.0312   19.6925   12.9548 C   0  0  0  0  0  0  0  0  0  0  0  0
    6.1699   20.4633   13.0786 O   0  0  0  0  0  0  0  0  0  0  0  0
    4.9094   18.7573   14.2066 C   0  0  0  0  0  0  0  0  0  0  0  0
    4.3884   22.2216   12.7834 H   0  0  0  0  0  0  0  0  0  0  0  0
    6.1550   20.9278   13.9300 H   0  0  0  0  0  0  0  0  0  0  0  0
    4.1271   17.5507   13.9047 N   0  0  0  0  0  0  0  0  0  0  0  0
    2.7298   17.2695   14.0302 C   0  0  0  0  0  0  0  0  0  0  0  0
    2.4368   16.0177   13.6728 N   0  0  0  0  0  0  0  0  0  0  0  0
    3.6653   15.4517   13.3356 C   0  0  0  0  0  0  0  0  0  0  0  0
    4.0040   14.1891   12.9151 C   0  0  0  0  0  0  0  0  0  0  0  0
    3.0145   13.2296   12.7938 N   0  0  0  0  0  0  0  0  0  0  0  0
    5.3212   13.9026   12.6185 N   0  0  0  0  0  0  0  0  0  0  0  0
    6.2595   14.8869   12.8011 C   0  0  0  0  0  0  0  0  0  0  0  0
    6.0526   16.1293   13.1961 N   0  0  0  0  0  0  0  0  0  0  0  0
    4.7251   16.3787   13.4693 C   0  0  0  0  0  0  0  0  0  0  0  0
    3.2444   12.3207   12.4933 H   0  0  0  0  0  0  0  0  0  0  0  0
    2.0806   13.4557   13.0080 H   0  0  0  0  0  0  0  0  0  0  0  0
    0.5920   23.7912   11.7012 C   0  0  0  0  0  0  0  0  0  0  0  0
    1.8496   23.9837   11.0047 N   0  0  0  0  0  0  0  0  0  0  0  0
    1.9627   24.5783    9.7552 C   0  0  0  0  0  0  0  0  0  0  0  0
    1.0050   24.9851    9.1037 O   0  0  0  0  0  0  0  0  0  0  0  0
    2.6738   23.6737   11.4450 H   0  0  0  0  0  0  0  0  0  0  0  0
    7.2925   24.6359    7.9412 N   0  0  0  0  0  0  0  0  0  0  0  0
    8.0161   23.6435    8.4210 C   0  0  0  0  0  0  0  0  0  0  0  0
    9.3525   23.4651    8.0642 N   0  0  0  0  0  0  0  0  0  0  0  0
    7.5857   22.6893    9.2551 N   0  0  0  0  0  0  0  0  0  0  0  0
    6.2848   22.6509    9.7829 C   0  0  0  0  0  0  0  0  0  0  0  0
    6.0246   21.7415   10.5405 O   0  0  0  0  0  0  0  0  0  0  0  0
    4.1667   23.7356    9.7414 N   0  0  0  0  0  0  0  0  0  0  0  0
    3.3799   24.6578    9.2774 C   0  0  0  0  0  0  0  0  0  0  0  0
    3.7677   25.8027    8.3771 C   0  0  0  0  0  0  0  0  0  0  0  0
    3.6367   27.1373    9.1283 C   0  0  0  0  0  0  0  0  0  0  0  0
    2.9612   25.7040    7.0879 C   0  0  0  0  0  0  0  0  0  0  0  0
    5.1923   25.6773    7.9671 N   0  0  0  0  0  0  0  0  0  0  0  0
    5.9638   24.6612    8.4004 C   0  0  0  0  0  0  0  0  0  0  0  0
    5.4558   23.7214    9.2924 C   0  0  0  0  0  0  0  0  0  0  0  0
    9.8662   22.7140    8.4398 H   0  0  0  0  0  0  0  0  0  0  0  0
    9.7821   24.0904    7.4367 H   0  0  0  0  0  0  0  0  0  0  0  0
    8.2144   21.9766    9.5122 H   0  0  0  0  0  0  0  0  0  0  0  0
    5.5804   26.3527    7.3650 H   0  0  0  0  0  0  0  0  0  0  0  0
 39 38  1  0  0  0
 38 40  1  0  0  0
 38 37  2  0  0  0
 40 41  1  0  0  0
 37 49  1  0  0  0
 41 42  2  0  0  0
 41 50  1  0  0  0
 49 48  1  0  0  0
 49 50  2  0  0  0
 48 45  1  0  0  0
 50 43  1  0  0  0
 47 45  1  0  0  0
 43 44  2  0  0  0
 45 44  1  0  0  0
 45 46  1  0  0  0
 44 34  1  0  0  0
  3  2  2  0  0  0
 34 33  1  0  0  0
 34 35  2  0  0  0
 33 32  1  0  0  0
 25 24  1  0  0  0
  2 32  1  0  0  0
  2  1  1  0  0  0
 24 26  2  0  0  0
 24 23  1  0  0  0
 26 27  1  0  0  0
 22 23  1  0  0  0
 22 21  2  0  0  0
  6  5  1  0  0  0
  6  7  1  0  0  0
 23 29  2  0  0  0
  1  5  1  0  0  0
 27 28  2  0  0  0
 21 20  1  0  0  0
  8  7  2  0  0  0
 10  7  1  0  0  0
 10 11  1  0  0  0
 29 28  1  0  0  0
 29 20  1  0  0  0
  7  9  2  0  0  0
 20 17  1  0  0  0
 13 11  1  0  0  0
 13 14  1  0  0  0
 13 15  1  0  0  0
 11 12  1  0  0  0
 12 17  1  0  0  0
 17 15  1  0  0  0
 15 16  1  0  0  0
 14 18  1  0  0  0
 16 19  1  0  0  0
 25 30  1  0  0  0
 25 31  1  0  0  0
  1  4  1  0  0  0
 33 36  1  0  0  0
 39 51  1  0  0  0
 39 52  1  0  0  0
 40 53  1  0  0  0
 48 54  1  0  0  0
M  END
> <minimizedAffinity>
-11.33216

$$$$
4F7V_J1D_A_201


 54 58  0  0  0  0  0  0  0  0999 V2000
    0.0838   21.6070   13.6910 N   0  0  0  0  0  0  0  0  0  0  0  0
   -0.0126   21.4873   12.3211 C   0  0  0  0  0  0  0  0  0  0  0  0
   -0.2990   20.4226   11.7861 O   0  0  0  0  0  0  0  0  0  0  0  0
    0.3046   22.4728   14.1045 H   0  0  0  0  0  0  0  0  0  0  0  0
   -0.1478   20.4246   14.5179 C   0  0  0  0  0  0  0  0  0  0  0  0
    1.2103   19.9147   14.9890 C   0  0  0  0  0  0  0  0  0  0  0  0
    1.4128   18.2624   14.7555 S   0  0  0  0  0  0  0  0  0  0  0  0
    0.4562   17.8499   13.8014 O   0  0  0  0  0  0  0  0  0  0  0  0
    1.6185   17.6158   16.0153 O   0  0  0  0  0  0  0  0  0  0  0  0
    2.9900   18.1135   13.9654 C   0  0  0  0  0  0  0  0  0  0  0  0
    4.0264   17.4269   14.8584 C   0  0  0  0  0  0  0  0  0  0  0  0
    3.9335   15.9579   14.8847 O   0  0  0  0  0  0  0  0  0  0  0  0
    5.4719   17.7251   14.4093 C   0  0  0  0  0  0  0  0  0  0  0  0
    5.8625   18.9457   14.9261 O   0  0  0  0  0  0  0  0  0  0  0  0
    6.2570   16.5136   15.0656 C   0  0  0  0  0  0  0  0  0  0  0  0
    6.5213   16.6038   16.4177 O   0  0  0  0  0  0  0  0  0  0  0  0
    5.2353   15.3503   14.8217 C   0  0  0  0  0  0  0  0  0  0  0  0
    5.7437   18.9421   15.8888 H   0  0  0  0  0  0  0  0  0  0  0  0
    5.6871   16.6898   16.9051 H   0  0  0  0  0  0  0  0  0  0  0  0
    5.3502   14.8076   13.4610 N   0  0  0  0  0  0  0  0  0  0  0  0
    6.4612   14.7240   12.5634 C   0  0  0  0  0  0  0  0  0  0  0  0
    6.1197   14.1815   11.3931 N   0  0  0  0  0  0  0  0  0  0  0  0
    4.7531   13.9312   11.5071 C   0  0  0  0  0  0  0  0  0  0  0  0
    3.8449   13.4031   10.6227 C   0  0  0  0  0  0  0  0  0  0  0  0
    4.2673   13.0431    9.3552 N   0  0  0  0  0  0  0  0  0  0  0  0
    2.5320   13.2382   11.0150 N   0  0  0  0  0  0  0  0  0  0  0  0
    2.1696   13.6552   12.2709 C   0  0  0  0  0  0  0  0  0  0  0  0
    2.9505   14.1720   13.2012 N   0  0  0  0  0  0  0  0  0  0  0  0
    4.2541   14.3080   12.7756 C   0  0  0  0  0  0  0  0  0  0  0  0
    3.6260   12.6634    8.7120 H   0  0  0  0  0  0  0  0  0  0  0  0
    5.2091   13.1668    9.0966 H   0  0  0  0  0  0  0  0  0  0  0  0
    0.2286   22.7607   11.5553 C   0  0  0  0  0  0  0  0  0  0  0  0
    1.5740   22.7442   11.0136 N   0  0  0  0  0  0  0  0  0  0  0  0
    2.7239   22.8317   11.7866 C   0  0  0  0  0  0  0  0  0  0  0  0
    2.7176   22.9514   13.0084 O   0  0  0  0  0  0  0  0  0  0  0  0
    1.6782   22.6660   10.0377 H   0  0  0  0  0  0  0  0  0  0  0  0
    7.5121   22.8366    8.8245 N   0  0  0  0  0  0  0  0  0  0  0  0
    7.9069   24.0454    8.4758 C   0  0  0  0  0  0  0  0  0  0  0  0
    9.0878   24.2595    7.7654 N   0  0  0  0  0  0  0  0  0  0  0  0
    7.2791   25.1911    8.7665 N   0  0  0  0  0  0  0  0  0  0  0  0
    6.0566   25.2513    9.4554 C   0  0  0  0  0  0  0  0  0  0  0  0
    5.5838   26.3514    9.6427 O   0  0  0  0  0  0  0  0  0  0  0  0
    4.4071   23.9313   10.5515 N   0  0  0  0  0  0  0  0  0  0  0  0
    3.9774   22.7797   10.9686 C   0  0  0  0  0  0  0  0  0  0  0  0
    4.5748   21.4307   10.6607 C   0  0  0  0  0  0  0  0  0  0  0  0
    3.6163   20.6137    9.7797 C   0  0  0  0  0  0  0  0  0  0  0  0
    4.9758   20.7644   11.9713 C   0  0  0  0  0  0  0  0  0  0  0  0
    5.8380   21.5890    9.8909 N   0  0  0  0  0  0  0  0  0  0  0  0
    6.3033   22.8045    9.5420 C   0  0  0  0  0  0  0  0  0  0  0  0
    5.5797   23.9519    9.8527 C   0  0  0  0  0  0  0  0  0  0  0  0
    9.3554   25.1745    7.5197 H   0  0  0  0  0  0  0  0  0  0  0  0
    9.6539   23.4957    7.5097 H   0  0  0  0  0  0  0  0  0  0  0  0
    7.6963   26.0364    8.4826 H   0  0  0  0  0  0  0  0  0  0  0  0
    6.3458   20.7869    9.6303 H   0  0  0  0  0  0  0  0  0  0  0  0
 39 38  1  0  0  0
 38 40  1  0  0  0
 38 37  2  0  0  0
 40 41  1  0  0  0
 37 49  1  0  0  0
 41 42  2  0  0  0
 41 50  1  0  0  0
 49 48  1  0  0  0
 49 50  2  0  0  0
 48 45  1  0  0  0
 50 43  1  0  0  0
 47 45  1  0  0  0
 43 44  2  0  0  0
 45 44  1  0  0  0
 45 46  1  0  0  0
 44 34  1  0  0  0
  3  2  2  0  0  0
 34 33  1  0  0  0
 34 35  2  0  0  0
 33 32  1  0  0  0
 25 24  1  0  0  0
  2 32  1  0  0  0
  2  1  1  0  0  0
 24 26  2  0  0  0
 24 23  1  0  0  0
 26 27  1  0  0  0
 22 23  1  0  0  0
 22 21  2  0  0  0
  6  5  1  0  0  0
  6  7  1  0  0  0
 23 29  2  0  0  0
  1  5  1  0  0  0
 27 28  2  0  0  0
 21 20  1  0  0  0
  8  7  2  0  0  0
 10  7  1  0  0  0
 10 11  1  0  0  0
 29 28  1  0  0  0
 29 20  1  0  0  0
  7  9  2  0  0  0
 20 17  1  0  0  0
 13 11  1  0  0  0
 13 14  1  0  0  0
 13 15  1  0  0  0
 11 12  1  0  0  0
 12 17  1  0  0  0
 17 15  1  0  0  0
 15 16  1  0  0  0
 14 18  1  0  0  0
 16 19  1  0  0  0
 25 30  1  0  0  0
 25 31  1  0  0  0
  1  4  1  0  0  0
 33 36  1  0  0  0
 39 51  1  0  0  0
 39 52  1  0  0  0
 40 53  1  0  0  0
 48 54  1  0  0  0
M  END
> <minimizedAffinity>
-11.24699

$$$$
4F7V_J1D_A_201


 54 58  0  0  0  0  0  0  0  0999 V2000
    0.8819   22.6650   14.2562 N   0  0  0  0  0  0  0  0  0  0  0  0
    1.1329   23.9656   13.8748 C   0  0  0  0  0  0  0  0  0  0  0  0
    1.4507   24.8255   14.6881 O   0  0  0  0  0  0  0  0  0  0  0  0
    0.6379   21.9845   13.5878 H   0  0  0  0  0  0  0  0  0  0  0  0
    0.9848   22.3151   15.6713 C   0  0  0  0  0  0  0  0  0  0  0  0
    1.4283   20.8583   15.7579 C   0  0  0  0  0  0  0  0  0  0  0  0
    3.0844   20.6844   15.9874 S   0  0  0  0  0  0  0  0  0  0  0  0
    3.2701   19.8208   17.0899 O   0  0  0  0  0  0  0  0  0  0  0  0
    3.7298   21.9537   15.8461 O   0  0  0  0  0  0  0  0  0  0  0  0
    3.6406   19.7904   14.5644 C   0  0  0  0  0  0  0  0  0  0  0  0
    4.6315   18.6806   14.9243 C   0  0  0  0  0  0  0  0  0  0  0  0
    4.0332   17.3403   15.0388 O   0  0  0  0  0  0  0  0  0  0  0  0
    5.7457   18.5288   13.8680 C   0  0  0  0  0  0  0  0  0  0  0  0
    6.7324   19.4642   14.1149 O   0  0  0  0  0  0  0  0  0  0  0  0
    6.2370   17.0468   14.1459 C   0  0  0  0  0  0  0  0  0  0  0  0
    7.0656   16.8606   15.2345 O   0  0  0  0  0  0  0  0  0  0  0  0
    4.8647   16.3420   14.4226 C   0  0  0  0  0  0  0  0  0  0  0  0
    7.0434   19.3725   15.0291 H   0  0  0  0  0  0  0  0  0  0  0  0
    6.6136   17.1581   16.0395 H   0  0  0  0  0  0  0  0  0  0  0  0
    4.1826   15.9795   13.1726 N   0  0  0  0  0  0  0  0  0  0  0  0
    3.0469   16.5465   12.5123 C   0  0  0  0  0  0  0  0  0  0  0  0
    2.7302   15.8805   11.4002 N   0  0  0  0  0  0  0  0  0  0  0  0
    3.6521   14.8366   11.3410 C   0  0  0  0  0  0  0  0  0  0  0  0
    3.8145   13.8122   10.4409 C   0  0  0  0  0  0  0  0  0  0  0  0
    2.9374   13.7030    9.3764 N   0  0  0  0  0  0  0  0  0  0  0  0
    4.8493   12.9151   10.6126 N   0  0  0  0  0  0  0  0  0  0  0  0
    5.6571   13.0545   11.7129 C   0  0  0  0  0  0  0  0  0  0  0  0
    5.5978   13.9942   12.6379 N   0  0  0  0  0  0  0  0  0  0  0  0
    4.5610   14.8763   12.4238 C   0  0  0  0  0  0  0  0  0  0  0  0
    3.0432   12.9731    8.7243 H   0  0  0  0  0  0  0  0  0  0  0  0
    2.2076   14.3553    9.2711 H   0  0  0  0  0  0  0  0  0  0  0  0
    1.0159   24.2263   12.3967 C   0  0  0  0  0  0  0  0  0  0  0  0
    2.2654   23.8743   11.7498 N   0  0  0  0  0  0  0  0  0  0  0  0
    2.3508   23.2506   10.5123 C   0  0  0  0  0  0  0  0  0  0  0  0
    1.3744   22.9162    9.8476 O   0  0  0  0  0  0  0  0  0  0  0  0
    3.1045   24.0909   12.2168 H   0  0  0  0  0  0  0  0  0  0  0  0
    7.7207   22.5869    8.9552 N   0  0  0  0  0  0  0  0  0  0  0  0
    8.2434   23.6701    8.4147 C   0  0  0  0  0  0  0  0  0  0  0  0
    9.5722   23.7171    7.9941 N   0  0  0  0  0  0  0  0  0  0  0  0
    7.6148   24.8371    8.2295 N   0  0  0  0  0  0  0  0  0  0  0  0
    6.2633   25.0481    8.5482 C   0  0  0  0  0  0  0  0  0  0  0  0
    5.8083   26.1474    8.3174 O   0  0  0  0  0  0  0  0  0  0  0  0
    4.3358   24.0252    9.4984 N   0  0  0  0  0  0  0  0  0  0  0  0
    3.7648   23.0143   10.0789 C   0  0  0  0  0  0  0  0  0  0  0  0
    4.3593   21.6460   10.2935 C   0  0  0  0  0  0  0  0  0  0  0  0
    3.6146   20.6040    9.4437 C   0  0  0  0  0  0  0  0  0  0  0  0
    4.3914   21.3575   11.7895 C   0  0  0  0  0  0  0  0  0  0  0  0
    5.7800   21.6255    9.8526 N   0  0  0  0  0  0  0  0  0  0  0  0
    6.3712   22.7167    9.3281 C   0  0  0  0  0  0  0  0  0  0  0  0
    5.6450   23.8884    9.1368 C   0  0  0  0  0  0  0  0  0  0  0  0
    9.9331   24.5412    7.5941 H   0  0  0  0  0  0  0  0  0  0  0  0
   10.1494   22.9263    8.0971 H   0  0  0  0  0  0  0  0  0  0  0  0
    8.1268   25.5873    7.8497 H   0  0  0  0  0  0  0  0  0  0  0  0
    6.3004   20.7950    9.9464 H   0  0  0  0  0  0  0  0  0  0  0  0
 39 38  1  0  0  0
 38 40  1  0  0  0
 38 37  2  0  0  0
 40 41  1  0  0  0
 37 49  1  0  0  0
 41 42  2  0  0  0
 41 50  1  0  0  0
 49 48  1  0  0  0
 49 50  2  0  0  0
 48 45  1  0  0  0
 50 43  1  0  0  0
 47 45  1  0  0  0
 43 44  2  0  0  0
 45 44  1  0  0  0
 45 46  1  0  0  0
 44 34  1  0  0  0
  3  2  2  0  0  0
 34 33  1  0  0  0
 34 35  2  0  0  0
 33 32  1  0  0  0
 25 24  1  0  0  0
  2 32  1  0  0  0
  2  1  1  0  0  0
 24 26  2  0  0  0
 24 23  1  0  0  0
 26 27  1  0  0  0
 22 23  1  0  0  0
 22 21  2  0  0  0
  6  5  1  0  0  0
  6  7  1  0  0  0
 23 29  2  0  0  0
  1  5  1  0  0  0
 27 28  2  0  0  0
 21 20  1  0  0  0
  8  7  2  0  0  0
 10  7  1  0  0  0
 10 11  1  0  0  0
 29 28  1  0  0  0
 29 20  1  0  0  0
  7  9  2  0  0  0
 20 17  1  0  0  0
 13 11  1  0  0  0
 13 14  1  0  0  0
 13 15  1  0  0  0
 11 12  1  0  0  0
 12 17  1  0  0  0
 17 15  1  0  0  0
 15 16  1  0  0  0
 14 18  1  0  0  0
 16 19  1  0  0  0
 25 30  1  0  0  0
 25 31  1  0  0  0
  1  4  1  0  0  0
 33 36  1  0  0  0
 39 51  1  0  0  0
 39 52  1  0  0  0
 40 53  1  0  0  0
 48 54  1  0  0  0
M  END
> <minimizedAffinity>
-11.20668

$$$$
4F7V_J1D_A_201


 54 58  0  0  0  0  0  0  0  0999 V2000
    4.5692   17.2226   15.0747 N   0  0  0  0  0  0  0  0  0  0  0  0
    5.7665   17.8617   14.8335 C   0  0  0  0  0  0  0  0  0  0  0  0
    6.4382   18.3357   15.7424 O   0  0  0  0  0  0  0  0  0  0  0  0
    4.0476   16.8383   14.3334 H   0  0  0  0  0  0  0  0  0  0  0  0
    4.0887   17.1262   16.4514 C   0  0  0  0  0  0  0  0  0  0  0  0
    2.6170   16.7286   16.4023 C   0  0  0  0  0  0  0  0  0  0  0  0
    2.3815   15.0643   16.4181 S   0  0  0  0  0  0  0  0  0  0  0  0
    1.8121   14.7297   17.6669 O   0  0  0  0  0  0  0  0  0  0  0  0
    3.5214   14.4075   15.8554 O   0  0  0  0  0  0  0  0  0  0  0  0
    1.1181   14.7809   15.2109 C   0  0  0  0  0  0  0  0  0  0  0  0
    0.9855   15.9425   14.2228 C   0  0  0  0  0  0  0  0  0  0  0  0
    2.2077   16.2354   13.4561 O   0  0  0  0  0  0  0  0  0  0  0  0
   -0.0983   15.6801   13.1567 C   0  0  0  0  0  0  0  0  0  0  0  0
   -1.3346   16.0081   13.6795 O   0  0  0  0  0  0  0  0  0  0  0  0
    0.3520   16.6732   12.0053 C   0  0  0  0  0  0  0  0  0  0  0  0
    0.0416   18.0073   12.1786 O   0  0  0  0  0  0  0  0  0  0  0  0
    1.9080   16.4981   12.0745 C   0  0  0  0  0  0  0  0  0  0  0  0
   -1.3164   16.9222   14.0036 H   0  0  0  0  0  0  0  0  0  0  0  0
    0.4485   18.3302   12.9978 H   0  0  0  0  0  0  0  0  0  0  0  0
    2.3496   15.3030   11.3425 N   0  0  0  0  0  0  0  0  0  0  0  0
    1.6693   14.4540   10.4132 C   0  0  0  0  0  0  0  0  0  0  0  0
    2.4373   13.4422   10.0044 N   0  0  0  0  0  0  0  0  0  0  0  0
    3.6346   13.6067   10.6991 C   0  0  0  0  0  0  0  0  0  0  0  0
    4.7918   12.8674   10.7113 C   0  0  0  0  0  0  0  0  0  0  0  0
    4.8691   11.7212    9.9402 N   0  0  0  0  0  0  0  0  0  0  0  0
    5.8547   13.2826   11.4877 N   0  0  0  0  0  0  0  0  0  0  0  0
    5.6975   14.4044   12.2619 C   0  0  0  0  0  0  0  0  0  0  0  0
    4.6393   15.1906   12.3298 N   0  0  0  0  0  0  0  0  0  0  0  0
    3.6062   14.7498   11.5315 C   0  0  0  0  0  0  0  0  0  0  0  0
    5.6932   11.1825    9.9403 H   0  0  0  0  0  0  0  0  0  0  0  0
    4.1001   11.4442    9.3915 H   0  0  0  0  0  0  0  0  0  0  0  0
    6.1852   17.8985   13.3879 C   0  0  0  0  0  0  0  0  0  0  0  0
    5.3888   18.8867   12.6856 N   0  0  0  0  0  0  0  0  0  0  0  0
    5.5521   20.2582   12.8258 C   0  0  0  0  0  0  0  0  0  0  0  0
    6.3765   20.7745   13.5747 O   0  0  0  0  0  0  0  0  0  0  0  0
    4.6896   18.5650   12.0718 H   0  0  0  0  0  0  0  0  0  0  0  0
    2.1711   23.2838    9.4918 N   0  0  0  0  0  0  0  0  0  0  0  0
    2.7084   24.4232    9.1023 C   0  0  0  0  0  0  0  0  0  0  0  0
    2.0415   25.2987    8.2457 N   0  0  0  0  0  0  0  0  0  0  0  0
    3.9269   24.8697    9.4301 N   0  0  0  0  0  0  0  0  0  0  0  0
    4.7944   24.1868   10.2982 C   0  0  0  0  0  0  0  0  0  0  0  0
    5.8656   24.7056   10.5267 O   0  0  0  0  0  0  0  0  0  0  0  0
    5.0459   22.2009   11.5857 N   0  0  0  0  0  0  0  0  0  0  0  0
    4.6028   21.0447   11.9753 C   0  0  0  0  0  0  0  0  0  0  0  0
    3.2365   20.4675   11.7074 C   0  0  0  0  0  0  0  0  0  0  0  0
    2.4382   20.3623   13.0167 C   0  0  0  0  0  0  0  0  0  0  0  0
    3.4011   19.1595   10.9430 C   0  0  0  0  0  0  0  0  0  0  0  0
    2.4657   21.3634   10.8038 N   0  0  0  0  0  0  0  0  0  0  0  0
    2.9840   22.5208   10.3485 C   0  0  0  0  0  0  0  0  0  0  0  0
    4.2480   22.9360   10.7571 C   0  0  0  0  0  0  0  0  0  0  0  0
    2.4697   26.1423    7.9731 H   0  0  0  0  0  0  0  0  0  0  0  0
    1.1425   25.0732    7.9138 H   0  0  0  0  0  0  0  0  0  0  0  0
    4.2311   25.7219    9.0422 H   0  0  0  0  0  0  0  0  0  0  0  0
    1.5556   21.1045   10.5321 H   0  0  0  0  0  0  0  0  0  0  0  0
 39 38  1  0  0  0
 38 40  1  0  0  0
 38 37  2  0  0  0
 40 41  1  0  0  0
 37 49  1  0  0  0
 41 42  2  0  0  0
 41 50  1  0  0  0
 49 48  1  0  0  0
 49 50  2  0  0  0
 48 45  1  0  0  0
 50 43  1  0  0  0
 47 45  1  0  0  0
 43 44  2  0  0  0
 45 44  1  0  0  0
 45 46  1  0  0  0
 44 34  1  0  0  0
  3  2  2  0  0  0
 34 33  1  0  0  0
 34 35  2  0  0  0
 33 32  1  0  0  0
 25 24  1  0  0  0
  2 32  1  0  0  0
  2  1  1  0  0  0
 24 26  2  0  0  0
 24 23  1  0  0  0
 26 27  1  0  0  0
 22 23  1  0  0  0
 22 21  2  0  0  0
  6  5  1  0  0  0
  6  7  1  0  0  0
 23 29  2  0  0  0
  1  5  1  0  0  0
 27 28  2  0  0  0
 21 20  1  0  0  0
  8  7  2  0  0  0
 10  7  1  0  0  0
 10 11  1  0  0  0
 29 28  1  0  0  0
 29 20  1  0  0  0
  7  9  2  0  0  0
 20 17  1  0  0  0
 13 11  1  0  0  0
 13 14  1  0  0  0
 13 15  1  0  0  0
 11 12  1  0  0  0
 12 17  1  0  0  0
 17 15  1  0  0  0
 15 16  1  0  0  0
 14 18  1  0  0  0
 16 19  1  0  0  0
 25 30  1  0  0  0
 25 31  1  0  0  0
  1  4  1  0  0  0
 33 36  1  0  0  0
 39 51  1  0  0  0
 39 52  1  0  0  0
 40 53  1  0  0  0
 48 54  1  0  0  0
M  END
> <minimizedAffinity>
-10.76771

$$$$
