2NN7_M29_A_311


 19 19  0  0  0  0  0  0  0  0999 V2000
  -17.6473    0.2250  -19.5460 C   0  0  0  0  0  0  0  0  0  0  0  0
  -18.4177    1.3368  -20.0361 C   0  0  0  0  0  0  0  0  0  0  0  0
  -19.2747    2.0462  -19.1625 C   0  0  0  0  0  0  0  0  0  0  0  0
  -19.3834    1.6736  -17.8021 C   0  0  0  0  0  0  0  0  0  0  0  0
  -18.6323    0.5958  -17.3092 C   0  0  0  0  0  0  0  0  0  0  0  0
  -17.7586   -0.1349  -18.1817 C   0  0  0  0  0  0  0  0  0  0  0  0
  -16.5922   -0.6793  -20.6272 S   0  0  0  0  0  0  0  0  0  0  0  0
  -15.9722    0.3040  -21.4824 O   0  0  0  0  0  0  0  0  0  0  0  0
  -17.4916   -1.6252  -21.2777 O   0  0  0  0  0  0  0  0  0  0  0  0
  -15.5144   -1.4707  -19.7399 N   0  0  0  0  0  0  0  0  0  0  0  0
  -14.8894   -0.8028  -19.2885 H   0  0  0  0  0  0  0  0  0  0  0  0
  -14.9718   -2.0928  -20.3390 H   0  0  0  0  0  0  0  0  0  0  0  0
  -20.3140    2.4048  -16.8788 C   0  0  0  0  0  0  0  0  0  0  0  0
  -21.7798    2.0611  -17.0387 C   0  0  0  0  0  0  0  0  0  0  0  0
  -22.5205    1.6187  -15.7942 C   0  0  0  0  0  0  0  0  0  0  0  0
  -22.9813    2.4246  -15.0312 O   0  0  0  0  0  0  0  0  0  0  0  0
  -22.5682    0.2568  -15.6333 O   0  0  0  0  0  0  0  0  0  0  0  0
  -22.1928   -0.2700  -14.3318 C   0  0  0  0  0  0  0  0  0  0  0  0
  -20.6841   -0.4582  -14.3851 C   0  0  0  0  0  0  0  0  0  0  0  0
  1  7  1  0  0  0
  1  2  2  0  0  0
  1  6  1  0  0  0
  2  3  1  0  0  0
  3  4  2  0  0  0
  4  5  1  0  0  0
  4 13  1  0  0  0
  5  6  2  0  0  0
  7  8  2  0  0  0
  7  9  2  0  0  0
  7 10  1  0  0  0
 13 14  1  0  0  0
 14 15  1  0  0  0
 15 17  1  0  0  0
 15 16  2  0  0  0
 17 18  1  0  0  0
 18 19  1  0  0  0
 10 11  1  0  0  0
 10 12  1  0  0  0
M  END
> <minimizedAffinity>
-6.77425

$$$$
2NN7_M29_A_311


 19 19  0  0  0  0  0  0  0  0999 V2000
  -17.6649    0.1840  -19.5198 C   0  0  0  0  0  0  0  0  0  0  0  0
  -17.8192   -0.2168  -18.1467 C   0  0  0  0  0  0  0  0  0  0  0  0
  -18.6848    0.5032  -17.2904 C   0  0  0  0  0  0  0  0  0  0  0  0
  -19.4071    1.6204  -17.7719 C   0  0  0  0  0  0  0  0  0  0  0  0
  -19.2714    2.0177  -19.1107 C   0  0  0  0  0  0  0  0  0  0  0  0
  -18.3973    1.2989  -19.9927 C   0  0  0  0  0  0  0  0  0  0  0  0
  -16.5753   -0.6909  -20.5910 S   0  0  0  0  0  0  0  0  0  0  0  0
  -15.9742    0.3091  -21.4402 O   0  0  0  0  0  0  0  0  0  0  0  0
  -17.4424   -1.6608  -21.2500 O   0  0  0  0  0  0  0  0  0  0  0  0
  -15.4848   -1.4529  -19.6935 N   0  0  0  0  0  0  0  0  0  0  0  0
  -14.8826   -0.7684  -19.2362 H   0  0  0  0  0  0  0  0  0  0  0  0
  -14.9198   -2.0599  -20.2874 H   0  0  0  0  0  0  0  0  0  0  0  0
  -20.3038    2.4051  -16.8590 C   0  0  0  0  0  0  0  0  0  0  0  0
  -21.7825    2.1144  -17.0044 C   0  0  0  0  0  0  0  0  0  0  0  0
  -22.5185    1.6623  -15.7606 C   0  0  0  0  0  0  0  0  0  0  0  0
  -22.9419    2.4615  -14.9694 O   0  0  0  0  0  0  0  0  0  0  0  0
  -22.6074    0.2988  -15.6352 O   0  0  0  0  0  0  0  0  0  0  0  0
  -22.2619   -0.2715  -14.3438 C   0  0  0  0  0  0  0  0  0  0  0  0
  -20.7509   -0.4485  -14.3646 C   0  0  0  0  0  0  0  0  0  0  0  0
  1  7  1  0  0  0
  1  2  2  0  0  0
  1  6  1  0  0  0
  2  3  1  0  0  0
  3  4  2  0  0  0
  4  5  1  0  0  0
  4 13  1  0  0  0
  5  6  2  0  0  0
  7  8  2  0  0  0
  7  9  2  0  0  0
  7 10  1  0  0  0
 13 14  1  0  0  0
 14 15  1  0  0  0
 15 17  1  0  0  0
 15 16  2  0  0  0
 17 18  1  0  0  0
 18 19  1  0  0  0
 10 11  1  0  0  0
 10 12  1  0  0  0
M  END
> <minimizedAffinity>
-6.77319

$$$$
2NN7_M29_A_311


 19 19  0  0  0  0  0  0  0  0999 V2000
  -17.5085   -0.3748  -18.7035 C   0  0  0  0  0  0  0  0  0  0  0  0
  -18.1529   -0.5568  -17.4301 C   0  0  0  0  0  0  0  0  0  0  0  0
  -19.1409    0.3586  -16.9977 C   0  0  0  0  0  0  0  0  0  0  0  0
  -19.5066    1.4585  -17.8088 C   0  0  0  0  0  0  0  0  0  0  0  0
  -18.8912    1.6437  -19.0562 C   0  0  0  0  0  0  0  0  0  0  0  0
  -17.8868    0.7250  -19.5099 C   0  0  0  0  0  0  0  0  0  0  0  0
  -16.2629   -1.4953  -19.2449 S   0  0  0  0  0  0  0  0  0  0  0  0
  -16.6548   -2.7897  -18.7415 O   0  0  0  0  0  0  0  0  0  0  0  0
  -15.0322   -0.9356  -18.6978 O   0  0  0  0  0  0  0  0  0  0  0  0
  -16.2133   -1.4628  -20.8485 N   0  0  0  0  0  0  0  0  0  0  0  0
  -17.0767   -1.8555  -21.2234 H   0  0  0  0  0  0  0  0  0  0  0  0
  -15.4193   -2.0133  -21.1754 H   0  0  0  0  0  0  0  0  0  0  0  0
  -20.5329    2.4488  -17.3407 C   0  0  0  0  0  0  0  0  0  0  0  0
  -21.7751    1.8434  -16.7221 C   0  0  0  0  0  0  0  0  0  0  0  0
  -22.0202    2.1291  -15.2553 C   0  0  0  0  0  0  0  0  0  0  0  0
  -23.1137    2.4326  -14.8601 O   0  0  0  0  0  0  0  0  0  0  0  0
  -20.8930    2.0388  -14.4781 O   0  0  0  0  0  0  0  0  0  0  0  0
  -20.6598    3.1090  -13.5226 C   0  0  0  0  0  0  0  0  0  0  0  0
  -19.7175    4.0808  -14.2172 C   0  0  0  0  0  0  0  0  0  0  0  0
  1  7  1  0  0  0
  1  2  2  0  0  0
  1  6  1  0  0  0
  2  3  1  0  0  0
  3  4  2  0  0  0
  4  5  1  0  0  0
  4 13  1  0  0  0
  5  6  2  0  0  0
  7  8  2  0  0  0
  7  9  2  0  0  0
  7 10  1  0  0  0
 13 14  1  0  0  0
 14 15  1  0  0  0
 15 17  1  0  0  0
 15 16  2  0  0  0
 17 18  1  0  0  0
 18 19  1  0  0  0
 10 11  1  0  0  0
 10 12  1  0  0  0
M  END
> <minimizedAffinity>
-6.42999

$$$$
2NN7_M29_A_311


 19 19  0  0  0  0  0  0  0  0999 V2000
  -17.4984    0.4804  -19.4893 C   0  0  0  0  0  0  0  0  0  0  0  0
  -17.5063   -0.0752  -18.1622 C   0  0  0  0  0  0  0  0  0  0  0  0
  -17.8522    0.7354  -17.0557 C   0  0  0  0  0  0  0  0  0  0  0  0
  -18.1943    2.0957  -17.2398 C   0  0  0  0  0  0  0  0  0  0  0  0
  -18.1976    2.6485  -18.5294 C   0  0  0  0  0  0  0  0  0  0  0  0
  -17.8488    1.8406  -19.6627 C   0  0  0  0  0  0  0  0  0  0  0  0
  -17.0502   -0.5120  -20.8729 S   0  0  0  0  0  0  0  0  0  0  0  0
  -16.0115    0.2184  -21.5586 O   0  0  0  0  0  0  0  0  0  0  0  0
  -18.3045   -0.6834  -21.5970 O   0  0  0  0  0  0  0  0  0  0  0  0
  -16.5319   -1.9314  -20.3327 N   0  0  0  0  0  0  0  0  0  0  0  0
  -15.6549   -1.8034  -19.8277 H   0  0  0  0  0  0  0  0  0  0  0  0
  -16.3815   -2.5609  -21.1210 H   0  0  0  0  0  0  0  0  0  0  0  0
  -18.5330    2.9669  -16.0652 C   0  0  0  0  0  0  0  0  0  0  0  0
  -18.8036    2.2266  -14.7726 C   0  0  0  0  0  0  0  0  0  0  0  0
  -20.2375    1.8227  -14.5004 C   0  0  0  0  0  0  0  0  0  0  0  0
  -20.4933    0.7752  -13.9700 O   0  0  0  0  0  0  0  0  0  0  0  0
  -21.1626    2.7346  -14.9423 O   0  0  0  0  0  0  0  0  0  0  0  0
  -22.3520    2.2097  -15.5922 C   0  0  0  0  0  0  0  0  0  0  0  0
  -21.9615    1.9892  -17.0460 C   0  0  0  0  0  0  0  0  0  0  0  0
  1  7  1  0  0  0
  1  2  2  0  0  0
  1  6  1  0  0  0
  2  3  1  0  0  0
  3  4  2  0  0  0
  4  5  1  0  0  0
  4 13  1  0  0  0
  5  6  2  0  0  0
  7  8  2  0  0  0
  7  9  2  0  0  0
  7 10  1  0  0  0
 13 14  1  0  0  0
 14 15  1  0  0  0
 15 17  1  0  0  0
 15 16  2  0  0  0
 17 18  1  0  0  0
 18 19  1  0  0  0
 10 11  1  0  0  0
 10 12  1  0  0  0
M  END
> <minimizedAffinity>
-6.23691

$$$$
2NN7_M29_A_311


 19 19  0  0  0  0  0  0  0  0999 V2000
  -21.0422    0.7876  -15.3337 C   0  0  0  0  0  0  0  0  0  0  0  0
  -20.0868   -0.2516  -15.0558 C   0  0  0  0  0  0  0  0  0  0  0  0
  -18.9754   -0.4406  -15.9101 C   0  0  0  0  0  0  0  0  0  0  0  0
  -18.7898    0.3870  -17.0424 C   0  0  0  0  0  0  0  0  0  0  0  0
  -19.7099    1.4090  -17.3211 C   0  0  0  0  0  0  0  0  0  0  0  0
  -20.8431    1.6140  -16.4652 C   0  0  0  0  0  0  0  0  0  0  0  0
  -22.4409    1.0206  -14.2899 S   0  0  0  0  0  0  0  0  0  0  0  0
  -21.9247    1.0425  -12.9424 O   0  0  0  0  0  0  0  0  0  0  0  0
  -23.3152   -0.0966  -14.6281 O   0  0  0  0  0  0  0  0  0  0  0  0
  -23.1454    2.4066  -14.6872 N   0  0  0  0  0  0  0  0  0  0  0  0
  -22.5282    3.1826  -14.4478 H   0  0  0  0  0  0  0  0  0  0  0  0
  -24.0234    2.5003  -14.1766 H   0  0  0  0  0  0  0  0  0  0  0  0
  -17.6281    0.1707  -17.9681 C   0  0  0  0  0  0  0  0  0  0  0  0
  -17.4432   -1.2541  -18.4457 C   0  0  0  0  0  0  0  0  0  0  0  0
  -16.2855   -1.5180  -19.3855 C   0  0  0  0  0  0  0  0  0  0  0  0
  -15.1493   -1.4402  -19.0019 O   0  0  0  0  0  0  0  0  0  0  0  0
  -16.6706   -1.8068  -20.6704 O   0  0  0  0  0  0  0  0  0  0  0  0
  -17.5668   -0.8653  -21.3207 C   0  0  0  0  0  0  0  0  0  0  0  0
  -16.7206    0.3610  -21.6284 C   0  0  0  0  0  0  0  0  0  0  0  0
  1  7  1  0  0  0
  1  2  2  0  0  0
  1  6  1  0  0  0
  2  3  1  0  0  0
  3  4  2  0  0  0
  4  5  1  0  0  0
  4 13  1  0  0  0
  5  6  2  0  0  0
  7  8  2  0  0  0
  7  9  2  0  0  0
  7 10  1  0  0  0
 13 14  1  0  0  0
 14 15  1  0  0  0
 15 17  1  0  0  0
 15 16  2  0  0  0
 17 18  1  0  0  0
 18 19  1  0  0  0
 10 11  1  0  0  0
 10 12  1  0  0  0
M  END
> <minimizedAffinity>
-6.19051

$$$$
2NN7_M29_A_311


 19 19  0  0  0  0  0  0  0  0999 V2000
  -17.6187    0.1484  -19.5177 C   0  0  0  0  0  0  0  0  0  0  0  0
  -18.3132    1.3199  -19.9815 C   0  0  0  0  0  0  0  0  0  0  0  0
  -19.1992    2.0073  -19.1192 C   0  0  0  0  0  0  0  0  0  0  0  0
  -19.4112    1.5541  -17.7959 C   0  0  0  0  0  0  0  0  0  0  0  0
  -18.7347    0.4172  -17.3284 C   0  0  0  0  0  0  0  0  0  0  0  0
  -17.8330   -0.2923  -18.1900 C   0  0  0  0  0  0  0  0  0  0  0  0
  -16.5287   -0.7283  -20.5871 S   0  0  0  0  0  0  0  0  0  0  0  0
  -15.9402    0.2682  -21.4492 O   0  0  0  0  0  0  0  0  0  0  0  0
  -17.3923   -1.7109  -21.2319 O   0  0  0  0  0  0  0  0  0  0  0  0
  -15.4273   -1.4736  -19.6890 N   0  0  0  0  0  0  0  0  0  0  0  0
  -14.8276   -0.7803  -19.2416 H   0  0  0  0  0  0  0  0  0  0  0  0
  -14.8612   -2.0818  -20.2805 H   0  0  0  0  0  0  0  0  0  0  0  0
  -20.3729    2.2632  -16.8874 C   0  0  0  0  0  0  0  0  0  0  0  0
  -21.0061    1.3969  -15.8193 C   0  0  0  0  0  0  0  0  0  0  0  0
  -20.9969    1.9356  -14.4041 C   0  0  0  0  0  0  0  0  0  0  0  0
  -21.7654    2.7954  -14.0662 O   0  0  0  0  0  0  0  0  0  0  0  0
  -20.0306    1.3772  -13.6057 O   0  0  0  0  0  0  0  0  0  0  0  0
  -18.7012    1.9613  -13.6678 C   0  0  0  0  0  0  0  0  0  0  0  0
  -17.7473    0.7908  -13.8539 C   0  0  0  0  0  0  0  0  0  0  0  0
  1  7  1  0  0  0
  1  2  2  0  0  0
  1  6  1  0  0  0
  2  3  1  0  0  0
  3  4  2  0  0  0
  4  5  1  0  0  0
  4 13  1  0  0  0
  5  6  2  0  0  0
  7  8  2  0  0  0
  7  9  2  0  0  0
  7 10  1  0  0  0
 13 14  1  0  0  0
 14 15  1  0  0  0
 15 17  1  0  0  0
 15 16  2  0  0  0
 17 18  1  0  0  0
 18 19  1  0  0  0
 10 11  1  0  0  0
 10 12  1  0  0  0
M  END
> <minimizedAffinity>
-6.09992

$$$$
2NN7_M29_A_311


 19 19  0  0  0  0  0  0  0  0999 V2000
  -19.7979    2.7649  -15.7283 C   0  0  0  0  0  0  0  0  0  0  0  0
  -20.8879    2.2465  -16.5112 C   0  0  0  0  0  0  0  0  0  0  0  0
  -20.6929    1.9277  -17.8755 C   0  0  0  0  0  0  0  0  0  0  0  0
  -19.4290    2.1127  -18.4837 C   0  0  0  0  0  0  0  0  0  0  0  0
  -18.3555    2.6107  -17.7299 C   0  0  0  0  0  0  0  0  0  0  0  0
  -18.5361    2.9397  -16.3451 C   0  0  0  0  0  0  0  0  0  0  0  0
  -20.0323    3.1849  -14.0346 S   0  0  0  0  0  0  0  0  0  0  0  0
  -19.1458    2.3224  -13.2909 O   0  0  0  0  0  0  0  0  0  0  0  0
  -21.4605    2.9805  -13.8216 O   0  0  0  0  0  0  0  0  0  0  0  0
  -19.6664    4.7353  -13.8408 N   0  0  0  0  0  0  0  0  0  0  0  0
  -18.6667    4.8701  -13.9913 H   0  0  0  0  0  0  0  0  0  0  0  0
  -19.9101    5.0264  -12.8941 H   0  0  0  0  0  0  0  0  0  0  0  0
  -19.2257    1.8038  -19.9385 C   0  0  0  0  0  0  0  0  0  0  0  0
  -17.7849    1.8179  -20.4035 C   0  0  0  0  0  0  0  0  0  0  0  0
  -17.1973    0.4980  -20.8570 C   0  0  0  0  0  0  0  0  0  0  0  0
  -16.2910    0.4645  -21.6454 O   0  0  0  0  0  0  0  0  0  0  0  0
  -17.8167   -0.5993  -20.3138 O   0  0  0  0  0  0  0  0  0  0  0  0
  -17.0641   -1.3690  -19.3373 C   0  0  0  0  0  0  0  0  0  0  0  0
  -17.7467   -1.1161  -18.0014 C   0  0  0  0  0  0  0  0  0  0  0  0
  1  7  1  0  0  0
  1  2  2  0  0  0
  1  6  1  0  0  0
  2  3  1  0  0  0
  3  4  2  0  0  0
  4  5  1  0  0  0
  4 13  1  0  0  0
  5  6  2  0  0  0
  7  8  2  0  0  0
  7  9  2  0  0  0
  7 10  1  0  0  0
 13 14  1  0  0  0
 14 15  1  0  0  0
 15 17  1  0  0  0
 15 16  2  0  0  0
 17 18  1  0  0  0
 18 19  1  0  0  0
 10 11  1  0  0  0
 10 12  1  0  0  0
M  END
> <minimizedAffinity>
-6.09546

$$$$
2NN7_M29_A_311


 19 19  0  0  0  0  0  0  0  0999 V2000
  -18.6431    2.8122  -14.6726 C   0  0  0  0  0  0  0  0  0  0  0  0
  -18.8184    3.0445  -16.0816 C   0  0  0  0  0  0  0  0  0  0  0  0
  -18.6459    1.9845  -17.0022 C   0  0  0  0  0  0  0  0  0  0  0  0
  -18.3018    0.6886  -16.5508 C   0  0  0  0  0  0  0  0  0  0  0  0
  -18.1349    0.4466  -15.1788 C   0  0  0  0  0  0  0  0  0  0  0  0
  -18.3055    1.5106  -14.2314 C   0  0  0  0  0  0  0  0  0  0  0  0
  -18.8348    4.1273  -13.5176 S   0  0  0  0  0  0  0  0  0  0  0  0
  -19.1263    5.3009  -14.3053 O   0  0  0  0  0  0  0  0  0  0  0  0
  -17.5710    4.1360  -12.7898 O   0  0  0  0  0  0  0  0  0  0  0  0
  -20.0372    3.7568  -12.5217 N   0  0  0  0  0  0  0  0  0  0  0  0
  -20.9171    3.7528  -13.0376 H   0  0  0  0  0  0  0  0  0  0  0  0
  -20.0848    4.4488  -11.7738 H   0  0  0  0  0  0  0  0  0  0  0  0
  -18.0887   -0.4318  -17.5266 C   0  0  0  0  0  0  0  0  0  0  0  0
  -16.8422   -0.3147  -18.3779 C   0  0  0  0  0  0  0  0  0  0  0  0
  -16.4774   -1.5129  -19.2290 C   0  0  0  0  0  0  0  0  0  0  0  0
  -16.6914   -2.6311  -18.8443 O   0  0  0  0  0  0  0  0  0  0  0  0
  -15.8716   -1.1850  -20.4157 O   0  0  0  0  0  0  0  0  0  0  0  0
  -16.5230   -0.1769  -21.2354 C   0  0  0  0  0  0  0  0  0  0  0  0
  -17.8944   -0.7440  -21.5702 C   0  0  0  0  0  0  0  0  0  0  0  0
  1  7  1  0  0  0
  1  2  2  0  0  0
  1  6  1  0  0  0
  2  3  1  0  0  0
  3  4  2  0  0  0
  4  5  1  0  0  0
  4 13  1  0  0  0
  5  6  2  0  0  0
  7  8  2  0  0  0
  7  9  2  0  0  0
  7 10  1  0  0  0
 13 14  1  0  0  0
 14 15  1  0  0  0
 15 17  1  0  0  0
 15 16  2  0  0  0
 17 18  1  0  0  0
 18 19  1  0  0  0
 10 11  1  0  0  0
 10 12  1  0  0  0
M  END
> <minimizedAffinity>
-5.83236

$$$$
2NN7_M29_A_311


 19 19  0  0  0  0  0  0  0  0999 V2000
  -21.6946    0.9252  -15.5659 C   0  0  0  0  0  0  0  0  0  0  0  0
  -22.2954    1.7707  -16.5630 C   0  0  0  0  0  0  0  0  0  0  0  0
  -21.5418    2.1921  -17.6835 C   0  0  0  0  0  0  0  0  0  0  0  0
  -20.1947    1.7881  -17.8374 C   0  0  0  0  0  0  0  0  0  0  0  0
  -19.5987    0.9577  -16.8762 C   0  0  0  0  0  0  0  0  0  0  0  0
  -20.3485    0.5216  -15.7333 C   0  0  0  0  0  0  0  0  0  0  0  0
  -22.6150    0.4101  -14.1561 S   0  0  0  0  0  0  0  0  0  0  0  0
  -23.4729   -0.6552  -14.6162 O   0  0  0  0  0  0  0  0  0  0  0  0
  -23.2811    1.6296  -13.7130 O   0  0  0  0  0  0  0  0  0  0  0  0
  -21.5845   -0.0897  -13.0322 N   0  0  0  0  0  0  0  0  0  0  0  0
  -21.1229   -0.9423  -13.3491 H   0  0  0  0  0  0  0  0  0  0  0  0
  -22.0904   -0.2786  -12.1668 H   0  0  0  0  0  0  0  0  0  0  0  0
  -19.3827    2.2572  -19.0094 C   0  0  0  0  0  0  0  0  0  0  0  0
  -17.9721    1.7110  -19.0741 C   0  0  0  0  0  0  0  0  0  0  0  0
  -17.5055    1.1723  -20.4102 C   0  0  0  0  0  0  0  0  0  0  0  0
  -16.8798    1.8625  -21.1693 O   0  0  0  0  0  0  0  0  0  0  0  0
  -17.8943   -0.1212  -20.6516 O   0  0  0  0  0  0  0  0  0  0  0  0
  -16.8419   -1.1131  -20.7970 C   0  0  0  0  0  0  0  0  0  0  0  0
  -16.3658   -1.4160  -19.3842 C   0  0  0  0  0  0  0  0  0  0  0  0
  1  7  1  0  0  0
  1  2  2  0  0  0
  1  6  1  0  0  0
  2  3  1  0  0  0
  3  4  2  0  0  0
  4  5  1  0  0  0
  4 13  1  0  0  0
  5  6  2  0  0  0
  7  8  2  0  0  0
  7  9  2  0  0  0
  7 10  1  0  0  0
 13 14  1  0  0  0
 14 15  1  0  0  0
 15 17  1  0  0  0
 15 16  2  0  0  0
 17 18  1  0  0  0
 18 19  1  0  0  0
 10 11  1  0  0  0
 10 12  1  0  0  0
M  END
> <minimizedAffinity>
-5.77995

$$$$
2NN7_M29_A_311


 19 19  0  0  0  0  0  0  0  0999 V2000
  -17.4098    0.3612  -19.5360 C   0  0  0  0  0  0  0  0  0  0  0  0
  -17.2143   -0.2938  -18.2701 C   0  0  0  0  0  0  0  0  0  0  0  0
  -17.4486    0.4080  -17.0645 C   0  0  0  0  0  0  0  0  0  0  0  0
  -17.8774    1.7560  -17.0886 C   0  0  0  0  0  0  0  0  0  0  0  0
  -18.0789    2.4046  -18.3164 C   0  0  0  0  0  0  0  0  0  0  0  0
  -17.8453    1.7078  -19.5487 C   0  0  0  0  0  0  0  0  0  0  0  0
  -17.1022   -0.4943  -21.0439 S   0  0  0  0  0  0  0  0  0  0  0  0
  -16.5144   -1.7567  -20.6650 O   0  0  0  0  0  0  0  0  0  0  0  0
  -16.2448    0.4185  -21.7913 O   0  0  0  0  0  0  0  0  0  0  0  0
  -18.4980   -0.6866  -21.8121 N   0  0  0  0  0  0  0  0  0  0  0  0
  -19.0917   -1.3258  -21.2836 H   0  0  0  0  0  0  0  0  0  0  0  0
  -18.3248   -1.0723  -22.7403 H   0  0  0  0  0  0  0  0  0  0  0  0
  -18.0984    2.5133  -15.8116 C   0  0  0  0  0  0  0  0  0  0  0  0
  -19.4762    3.1211  -15.6548 C   0  0  0  0  0  0  0  0  0  0  0  0
  -19.7753    3.8136  -14.3418 C   0  0  0  0  0  0  0  0  0  0  0  0
  -20.7618    3.5419  -13.7117 O   0  0  0  0  0  0  0  0  0  0  0  0
  -18.8497    4.7651  -13.9946 O   0  0  0  0  0  0  0  0  0  0  0  0
  -19.2551    5.7559  -13.0115 C   0  0  0  0  0  0  0  0  0  0  0  0
  -19.3713    7.0670  -13.7744 C   0  0  0  0  0  0  0  0  0  0  0  0
  1  7  1  0  0  0
  1  2  2  0  0  0
  1  6  1  0  0  0
  2  3  1  0  0  0
  3  4  2  0  0  0
  4  5  1  0  0  0
  4 13  1  0  0  0
  5  6  2  0  0  0
  7  8  2  0  0  0
  7  9  2  0  0  0
  7 10  1  0  0  0
 13 14  1  0  0  0
 14 15  1  0  0  0
 15 17  1  0  0  0
 15 16  2  0  0  0
 17 18  1  0  0  0
 18 19  1  0  0  0
 10 11  1  0  0  0
 10 12  1  0  0  0
M  END
> <minimizedAffinity>
-5.75617

$$$$
