5TBE_78L_A_401
  RCSB PDB12061719383D
Coordinates from PDB:5TBE:A:401 Model:1 without hydrogens
 44 49  0  0  0  0            999 V2000
   20.4440   11.5210  -27.9970   C 0  0  0  0  0  0  0  0  0  0  0  0
   21.7350   11.9300  -28.7300   C 0  0  0  0  0  0  0  0  0  0  0  0
   22.7530   12.3640  -27.7900   O 0  0  0  0  0  0  0  0  0  0  0  0
   22.9920   11.4490  -26.7190   C 0  0  0  0  0  0  0  0  0  0  0  0
   21.6930   11.1080  -26.0030   C 0  0  0  0  0  0  0  0  0  0  0  0
   20.7080   10.5130  -26.9460   N 0  0  0  0  0  0  0  0  0  0  0  0
   19.4600   10.1220  -26.2250   C 0  0  0  0  0  0  0  0  0  0  0  0
   19.1350    9.0430  -26.1910   C 0  0  0  0  0  0  0  0  0  0  0  0
   19.7730    8.1280  -27.2080   N 0  0  0  0  0  0  0  0  0  0  0  0
   19.6310    6.7790  -27.4150   C 0  0  0  0  0  0  0  0  0  0  0  0
   20.3770    6.2650  -28.2570   O 0  0  0  0  0  0  0  0  0  0  0  0
   18.8140    5.9240  -26.5930   C 0  0  0  0  0  0  0  0  0  0  0  0
   19.1130    4.5120  -26.5340   C 0  0  0  0  0  0  0  0  0  0  0  0
   18.4070    3.5630  -25.7560   C 0  0  0  0  0  0  0  0  0  0  0  0
   18.8090    2.1910  -25.7990   C 0  0  0  0  0  0  0  0  0  0  0  0
   19.1320    1.7010  -26.8980   O 0  0  0  0  0  0  0  0  0  0  0  0
   17.7250    6.3230  -25.8060   C 0  0  0  0  0  0  0  0  0  0  0  0
   17.0170    5.3960  -25.0310   C 0  0  0  0  0  0  0  0  0  0  0  0
   17.3480    4.0290  -25.0180   C 0  0  0  0  0  0  0  0  0  0  0  0
   16.6040    3.1950  -24.1380   C 0  0  0  0  0  0  0  0  0  0  0  0
   17.6060    2.7310  -22.9870   C 0  0  0  0  0  0  0  0  0  0  0  0
   18.3400    1.5900  -23.4050   C 0  0  0  0  0  0  0  0  0  0  0  0
   18.5310    0.6330  -22.3850   C 0  0  0  0  0  0  0  0  0  0  0  0
   18.8610    1.3470  -24.6710   C 0  0  0  0  0  0  0  0  0  0  0  0
   19.5310    0.1300  -24.9050   C 0  0  0  0  0  0  0  0  0  0  0  0
   19.6840   -0.8340  -23.8950   C 0  0  0  0  0  0  0  0  0  0  0  0
   19.2010   -0.5920  -22.6030   C 0  0  0  0  0  0  0  0  0  0  0  0
   19.3190   -1.4270  -21.5400   N 0  0  0  0  0  0  0  0  0  0  0  0
   20.0820   -2.5500  -21.4100   C 0  0  0  0  0  0  0  0  0  0  0  0
   19.4840   -3.6200  -20.7600   C 0  0  0  0  0  0  0  0  0  0  0  0
   21.4350   -2.6440  -21.8170   C 0  0  0  0  0  0  0  0  0  0  0  0
   22.0590   -1.7650  -22.3870   F 0  0  0  0  0  0  0  0  0  0  0  0
   22.1100   -3.8250  -21.6190   C 0  0  0  0  0  0  0  0  0  0  0  0
   21.4800   -4.9070  -21.0000   C 0  0  0  0  0  0  0  0  0  0  0  0
   22.2260   -6.1070  -20.8230   F 0  0  0  0  0  0  0  0  0  0  0  0
   20.1480   -4.8270  -20.5690   C 0  0  0  0  0  0  0  0  0  0  0  0
   19.6350   -5.9430  -19.9450   N 0  0  0  0  0  0  0  0  0  0  0  0
   18.3200   -6.3300  -20.0640   C 0  0  0  0  0  0  0  0  0  0  0  0
   17.4520   -5.7080  -20.6990   O 0  0  0  0  0  0  0  0  0  0  0  0
   17.9100   -7.4440  -19.3840   C 0  0  0  0  0  0  0  0  0  0  0  0
   16.6530   -8.4590  -19.9240   S 0  0  0  0  0  0  0  0  0  0  0  0
   16.7900   -9.4910  -18.5400   C 0  0  0  0  0  0  0  0  0  0  0  0
   17.7580   -9.0190  -17.7390   C 0  0  0  0  0  0  0  0  0  0  0  0
   18.3520   -7.9140  -18.1920   C 0  0  0  0  0  0  0  0  0  0  0  0
  1  6  1  0  0  0  0
  1  2  1  0  0  0  0
  6  7  1  0  0  0  0
  6  5  1  0  0  0  0
  7  8  1  0  0  0  0
  5  4  1  0  0  0  0
  2  3  1  0  0  0  0
  4  3  1  0  0  0  0
  8  9  1  0  0  0  0
 11 10  2  0  0  0  0
 10  9  1  0  0  0  0
 10 12  1  0  0  0  0
 16 15  2  0  0  0  0
 12 13  2  0  0  0  0
 12 17  1  0  0  0  0
 13 14  1  0  0  0  0
 17 18  2  0  0  0  0
 15 14  1  0  0  0  0
 15 24  1  0  0  0  0
 14 19  2  0  0  0  0
 18 19  1  0  0  0  0
 19 20  1  0  0  0  0
 25 24  2  0  0  0  0
 25 26  1  0  0  0  0
 24 22  1  0  0  0  0
 20 21  1  0  0  0  0
 26 27  2  0  0  0  0
 22 21  1  0  0  0  0
 22 23  2  0  0  0  0
 27 23  1  0  0  0  0
 27 28  1  0  0  0  0
 32 31  1  0  0  0  0
 31 33  2  0  0  0  0
 31 29  1  0  0  0  0
 33 34  1  0  0  0  0
 28 29  1  0  0  0  0
 29 30  2  0  0  0  0
 34 35  1  0  0  0  0
 34 36  2  0  0  0  0
 39 38  2  0  0  0  0
 30 36  1  0  0  0  0
 36 37  1  0  0  0  0
 38 37  1  0  0  0  0
 38 40  1  0  0  0  0
 41 40  1  0  0  0  0
 41 42  1  0  0  0  0
 40 44  2  0  0  0  0
 42 43  2  0  0  0  0
 44 43  1  0  0  0  0
A    1
CAW
A    2
CAX
A    3
OAY
A    4
CAZ
A    5
CBA
A    6
NAV
A    7
CAU
A    8
CAT
A    9
NAR
A   10
CAQ
A   11
OAS
A   12
CAM
A   13
CAL
A   14
CAA
A   15
CAG
A   16
OAP
A   17
CAN
A   18
CAO
A   19
CAB
A   20
CAC
A   21
CAD
A   22
CAE
A   23
CAH
A   24
CAF
A   25
CAK
A   26
CAJ
A   27
CAI
A   28
NBB
A   29
CBC
A   30
CBD
A   31
CBH
A   32
FBI
A   33
CBG
A   34
CBF
A   35
FBJ
A   36
CBE
A   37
NBK
A   38
CBL
A   39
OBN
A   40
CBM
A   41
SBR
A   42
CBQ
A   43
CBP
A   44
CBO
M  END
>  <InstanceId>
5TBE_78L_A_401

>  <ChemCompId>
78L

>  <PdbId>
5TBE

>  <ChainId>
A

>  <ResidueNumber>
401

>  <InsertionCode>


>  <Model>
1

>  <AltIds>


>  <MissingHeavyAtoms>
0

>  <ObservedFormula>
C33 N4 O4 S F2

>  <Name>
~{N}-[2,4-bis(fluoranyl)-5-[[9-(2-morpholin-4-ylethylcarbamoyl)-11-oxidanylidene-5,6-dihydrodibenzo[1,2-~{d}:1',2'-~{f}][7]annulen-3-yl]amino]phenyl]thiophene-2-carboxamide

>  <SystematicName>
~{N}-[2,4-bis(fluoranyl)-5-[[9-(2-morpholin-4-ylethylcarbamoyl)-11-oxidanylidene-5,6-dihydrodibenzo[1,2-~{d}:1',2'-~{f}][7]annulen-3-yl]amino]phenyl]thiophene-2-carboxamide

>  <Synonyms>


>  <Type>
NON-POLYMER

>  <Formula>
C33 H30 F2 N4 O4 S

>  <MolecularWeight>
616.678

>  <ModifiedDate>
2017-04-14

>  <Parent>


>  <OneLetterCode>


>  <SubcomponentList>


>  <AmbiguousFlag>
N

>  <InChI>
InChI=1S/C33H30F2N4O4S/c34-26-18-27(35)29(38-33(42)30-2-1-15-44-30)19-28(26)37-23-7-8-24-21(16-23)5-3-20-4-6-22(17-25(20)31(24)40)32(41)36-9-10-39-11-13-43-14-12-39/h1-2,4,6-8,15-19,37H,3,5,9-14H2,(H,36,41)(H,38,42)

>  <InChIKey>
KAMAPKIQUKEGQC-UHFFFAOYSA-N

>  <SMILES>
c1cc(sc1)C(=O)Nc2cc(c(cc2F)F)Nc3ccc4c(c3)CCc5ccc(cc5C4=O)C(=O)NCCN6CCOCC6

$$$$
