5TBE_78L_A_401


 47 52  0  0  0  0  0  0  0  0999 V2000
   15.4348    6.2279  -16.4304 C   0  0  0  0  0  0  0  0  0  0  0  0
   15.3080    5.9374  -17.8397 C   0  0  0  0  0  0  0  0  0  0  0  0
   15.7222    4.7355  -18.4628 C   0  0  0  0  0  0  0  0  0  0  0  0
   15.5284    4.5796  -19.8713 C   0  0  0  0  0  0  0  0  0  0  0  0
   14.4630    4.9867  -20.3728 O   0  0  0  0  0  0  0  0  0  0  0  0
   16.0104    5.1991  -15.6722 C   0  0  0  0  0  0  0  0  0  0  0  0
   16.4253    4.0047  -16.2744 C   0  0  0  0  0  0  0  0  0  0  0  0
   16.2697    3.7724  -17.6529 C   0  0  0  0  0  0  0  0  0  0  0  0
   16.7934    2.5522  -18.1631 C   0  0  0  0  0  0  0  0  0  0  0  0
   18.0412    2.9348  -19.0799 C   0  0  0  0  0  0  0  0  0  0  0  0
   17.6054    3.2647  -20.3901 C   0  0  0  0  0  0  0  0  0  0  0  0
   18.4548    2.7821  -21.4091 C   0  0  0  0  0  0  0  0  0  0  0  0
   16.4694    3.9872  -20.7378 C   0  0  0  0  0  0  0  0  0  0  0  0
   16.1816    4.1801  -22.1033 C   0  0  0  0  0  0  0  0  0  0  0  0
   17.0115    3.6641  -23.1122 C   0  0  0  0  0  0  0  0  0  0  0  0
   18.1809    2.9674  -22.7831 C   0  0  0  0  0  0  0  0  0  0  0  0
   15.3015    8.7036  -16.5229 N   0  0  0  0  0  0  0  0  0  0  0  0
   14.9871    7.5041  -15.9354 C   0  0  0  0  0  0  0  0  0  0  0  0
   14.1442    7.5331  -15.0308 O   0  0  0  0  0  0  0  0  0  0  0  0
   14.8906    9.4894  -16.0952 H   0  0  0  0  0  0  0  0  0  0  0  0
   16.1716    9.0207  -17.7150 C   0  0  0  0  0  0  0  0  0  0  0  0
   15.7916    9.8293  -18.4026 C   0  0  0  0  0  0  0  0  0  0  0  0
   16.2710    8.3062  -20.2776 C   0  0  0  0  0  0  0  0  0  0  0  0
   16.0557    8.0196  -21.7752 C   0  0  0  0  0  0  0  0  0  0  0  0
   14.6425    8.0226  -22.1087 O   0  0  0  0  0  0  0  0  0  0  0  0
   13.9358    9.1807  -21.6607 C   0  0  0  0  0  0  0  0  0  0  0  0
   14.1485    9.3971  -20.1693 C   0  0  0  0  0  0  0  0  0  0  0  0
   15.5947    9.5537  -19.8570 N   0  0  0  0  0  0  0  0  0  0  0  0
   19.0764    2.4548  -23.6641 N   0  0  0  0  0  0  0  0  0  0  0  0
   19.8075    3.0602  -23.9254 H   0  0  0  0  0  0  0  0  0  0  0  0
   19.1053    1.2180  -24.2384 C   0  0  0  0  0  0  0  0  0  0  0  0
   19.3317    0.1530  -23.3785 C   0  0  0  0  0  0  0  0  0  0  0  0
   19.0032    0.9852  -25.6314 C   0  0  0  0  0  0  0  0  0  0  0  0
   18.8131    1.8454  -26.4746 F   0  0  0  0  0  0  0  0  0  0  0  0
   19.0629   -0.3067  -26.0973 C   0  0  0  0  0  0  0  0  0  0  0  0
   19.2499   -1.3717  -25.2133 C   0  0  0  0  0  0  0  0  0  0  0  0
   19.3012   -2.6894  -25.7506 F   0  0  0  0  0  0  0  0  0  0  0  0
   19.3761   -1.1607  -23.8327 C   0  0  0  0  0  0  0  0  0  0  0  0
   19.5862   -2.2790  -23.0560 N   0  0  0  0  0  0  0  0  0  0  0  0
   20.6935   -2.4376  -22.2548 C   0  0  0  0  0  0  0  0  0  0  0  0
   21.6324   -1.6279  -22.1737 O   0  0  0  0  0  0  0  0  0  0  0  0
   18.9133   -2.9974  -23.0749 H   0  0  0  0  0  0  0  0  0  0  0  0
   20.8134   -3.5979  -21.5401 C   0  0  0  0  0  0  0  0  0  0  0  0
   19.4807   -4.4414  -20.8965 S   0  0  0  0  0  0  0  0  0  0  0  0
   20.4945   -5.6511  -20.1839 C   0  0  0  0  0  0  0  0  0  0  0  0
   21.7766   -5.3576  -20.4515 C   0  0  0  0  0  0  0  0  0  0  0  0
   21.9444   -4.2489  -21.1736 C   0  0  0  0  0  0  0  0  0  0  0  0
 23 28  1  0  0  0
 23 24  1  0  0  0
 28 22  1  0  0  0
 28 27  1  0  0  0
 22 21  1  0  0  0
 27 26  1  0  0  0
 24 25  1  0  0  0
 26 25  1  0  0  0
 21 17  1  0  0  0
 19 18  2  0  0  0
 18 17  1  0  0  0
 18  1  1  0  0  0
  5  4  2  0  0  0
  1  2  2  0  0  0
  1  6  1  0  0  0
  2  3  1  0  0  0
  6  7  2  0  0  0
  4  3  1  0  0  0
  4 13  1  0  0  0
  3  8  2  0  0  0
  7  8  1  0  0  0
  8  9  1  0  0  0
 14 13  2  0  0  0
 14 15  1  0  0  0
 13 11  1  0  0  0
  9 10  1  0  0  0
 15 16  2  0  0  0
 11 10  1  0  0  0
 11 12  2  0  0  0
 16 12  1  0  0  0
 16 29  1  0  0  0
 34 33  1  0  0  0
 33 35  2  0  0  0
 33 31  1  0  0  0
 35 36  1  0  0  0
 29 31  1  0  0  0
 31 32  2  0  0  0
 36 37  1  0  0  0
 36 38  2  0  0  0
 41 40  2  0  0  0
 32 38  1  0  0  0
 38 39  1  0  0  0
 40 39  1  0  0  0
 40 43  1  0  0  0
 44 43  1  0  0  0
 44 45  1  0  0  0
 43 47  2  0  0  0
 45 46  2  0  0  0
 47 46  1  0  0  0
 17 20  1  0  0  0
 29 30  1  0  0  0
 39 42  1  0  0  0
M  END
> <minimizedAffinity>
-10.06345

$$$$
5TBE_78L_A_401


 47 52  0  0  0  0  0  0  0  0999 V2000
   19.5201   -0.8363  -22.2951 C   0  0  0  0  0  0  0  0  0  0  0  0
   18.8307    0.4318  -22.3534 C   0  0  0  0  0  0  0  0  0  0  0  0
   18.4021    1.0706  -23.5419 C   0  0  0  0  0  0  0  0  0  0  0  0
   17.7220    2.3255  -23.4507 C   0  0  0  0  0  0  0  0  0  0  0  0
   16.8816    2.4810  -22.5441 O   0  0  0  0  0  0  0  0  0  0  0  0
   19.7445   -1.4360  -23.5419 C   0  0  0  0  0  0  0  0  0  0  0  0
   19.3267   -0.8163  -24.7262 C   0  0  0  0  0  0  0  0  0  0  0  0
   18.6512    0.4175  -24.7228 C   0  0  0  0  0  0  0  0  0  0  0  0
   18.3396    0.9840  -25.9899 C   0  0  0  0  0  0  0  0  0  0  0  0
   19.2545    2.2805  -26.1517 C   0  0  0  0  0  0  0  0  0  0  0  0
   18.6377    3.3979  -25.5301 C   0  0  0  0  0  0  0  0  0  0  0  0
   18.7822    4.6013  -26.2537 C   0  0  0  0  0  0  0  0  0  0  0  0
   17.9380    3.4072  -24.3286 C   0  0  0  0  0  0  0  0  0  0  0  0
   17.3600    4.6153  -23.8913 C   0  0  0  0  0  0  0  0  0  0  0  0
   17.4759    5.8006  -24.6360 C   0  0  0  0  0  0  0  0  0  0  0  0
   18.2094    5.8213  -25.8288 C   0  0  0  0  0  0  0  0  0  0  0  0
   19.1730   -1.2174  -19.8682 N   0  0  0  0  0  0  0  0  0  0  0  0
   19.9158   -1.3599  -21.0131 C   0  0  0  0  0  0  0  0  0  0  0  0
   20.8916   -2.1173  -20.9512 O   0  0  0  0  0  0  0  0  0  0  0  0
   19.5518   -1.6629  -19.0762 H   0  0  0  0  0  0  0  0  0  0  0  0
   17.8727   -0.4924  -19.6192 C   0  0  0  0  0  0  0  0  0  0  0  0
   17.8955    0.3019  -18.8194 C   0  0  0  0  0  0  0  0  0  0  0  0
   16.1887    1.5673  -17.5740 C   0  0  0  0  0  0  0  0  0  0  0  0
   15.1962    2.7442  -17.6077 C   0  0  0  0  0  0  0  0  0  0  0  0
   15.8609    3.9759  -17.9938 O   0  0  0  0  0  0  0  0  0  0  0  0
   16.6382    3.8744  -19.1884 C   0  0  0  0  0  0  0  0  0  0  0  0
   17.6290    2.7235  -19.0891 C   0  0  0  0  0  0  0  0  0  0  0  0
   16.9236    1.4352  -18.8519 N   0  0  0  0  0  0  0  0  0  0  0  0
   18.4213    6.9075  -26.6138 N   0  0  0  0  0  0  0  0  0  0  0  0
   18.7643    6.7169  -27.5168 H   0  0  0  0  0  0  0  0  0  0  0  0
   18.2257    8.2264  -26.3269 C   0  0  0  0  0  0  0  0  0  0  0  0
   19.0818    8.7776  -25.3845 C   0  0  0  0  0  0  0  0  0  0  0  0
   17.1749    9.0098  -26.8630 C   0  0  0  0  0  0  0  0  0  0  0  0
   16.3636    8.6253  -27.6881 F   0  0  0  0  0  0  0  0  0  0  0  0
   17.0671   10.3275  -26.4865 C   0  0  0  0  0  0  0  0  0  0  0  0
   17.9630   10.8783  -25.5675 C   0  0  0  0  0  0  0  0  0  0  0  0
   17.8063   12.2492  -25.2157 F   0  0  0  0  0  0  0  0  0  0  0  0
   18.9966   10.1136  -25.0076 C   0  0  0  0  0  0  0  0  0  0  0  0
   19.8046   10.7488  -24.0902 N   0  0  0  0  0  0  0  0  0  0  0  0
   19.5684   10.7171  -22.7351 C   0  0  0  0  0  0  0  0  0  0  0  0
   18.5969   10.1602  -22.1970 O   0  0  0  0  0  0  0  0  0  0  0  0
   20.5866   11.2483  -24.4192 H   0  0  0  0  0  0  0  0  0  0  0  0
   20.4227   11.4007  -21.9139 C   0  0  0  0  0  0  0  0  0  0  0  0
   21.2499   12.8113  -22.3914 S   0  0  0  0  0  0  0  0  0  0  0  0
   22.0562   12.9459  -20.8646 C   0  0  0  0  0  0  0  0  0  0  0  0
   21.6771   11.9248  -20.0804 C   0  0  0  0  0  0  0  0  0  0  0  0
   20.8054   11.0918  -20.6508 C   0  0  0  0  0  0  0  0  0  0  0  0
 23 28  1  0  0  0
 23 24  1  0  0  0
 28 22  1  0  0  0
 28 27  1  0  0  0
 22 21  1  0  0  0
 27 26  1  0  0  0
 24 25  1  0  0  0
 26 25  1  0  0  0
 21 17  1  0  0  0
 19 18  2  0  0  0
 18 17  1  0  0  0
 18  1  1  0  0  0
  5  4  2  0  0  0
  1  2  2  0  0  0
  1  6  1  0  0  0
  2  3  1  0  0  0
  6  7  2  0  0  0
  4  3  1  0  0  0
  4 13  1  0  0  0
  3  8  2  0  0  0
  7  8  1  0  0  0
  8  9  1  0  0  0
 14 13  2  0  0  0
 14 15  1  0  0  0
 13 11  1  0  0  0
  9 10  1  0  0  0
 15 16  2  0  0  0
 11 10  1  0  0  0
 11 12  2  0  0  0
 16 12  1  0  0  0
 16 29  1  0  0  0
 34 33  1  0  0  0
 33 35  2  0  0  0
 33 31  1  0  0  0
 35 36  1  0  0  0
 29 31  1  0  0  0
 31 32  2  0  0  0
 36 37  1  0  0  0
 36 38  2  0  0  0
 41 40  2  0  0  0
 32 38  1  0  0  0
 38 39  1  0  0  0
 40 39  1  0  0  0
 40 43  1  0  0  0
 44 43  1  0  0  0
 44 45  1  0  0  0
 43 47  2  0  0  0
 45 46  2  0  0  0
 47 46  1  0  0  0
 17 20  1  0  0  0
 29 30  1  0  0  0
 39 42  1  0  0  0
M  END
> <minimizedAffinity>
-9.89741

$$$$
5TBE_78L_A_401


 47 52  0  0  0  0  0  0  0  0999 V2000
   19.6116   -0.7056  -22.8545 C   0  0  0  0  0  0  0  0  0  0  0  0
   18.8870    0.5286  -22.6588 C   0  0  0  0  0  0  0  0  0  0  0  0
   18.2269    1.2547  -23.6793 C   0  0  0  0  0  0  0  0  0  0  0  0
   17.5396    2.4624  -23.3404 C   0  0  0  0  0  0  0  0  0  0  0  0
   16.8781    2.4931  -22.2850 O   0  0  0  0  0  0  0  0  0  0  0  0
   19.6178   -1.1753  -24.1750 C   0  0  0  0  0  0  0  0  0  0  0  0
   18.9695   -0.4681  -25.1952 C   0  0  0  0  0  0  0  0  0  0  0  0
   18.2710    0.7269  -24.9453 C   0  0  0  0  0  0  0  0  0  0  0  0
   17.7132    1.3939  -26.0712 C   0  0  0  0  0  0  0  0  0  0  0  0
   18.5444    2.7412  -26.2659 C   0  0  0  0  0  0  0  0  0  0  0  0
   18.0218    3.7657  -25.4336 C   0  0  0  0  0  0  0  0  0  0  0  0
   17.9945    5.0367  -26.0470 C   0  0  0  0  0  0  0  0  0  0  0  0
   17.5575    3.6302  -24.1300 C   0  0  0  0  0  0  0  0  0  0  0  0
   17.0361    4.7638  -23.4760 C   0  0  0  0  0  0  0  0  0  0  0  0
   16.9773    6.0175  -24.1066 C   0  0  0  0  0  0  0  0  0  0  0  0
   17.4756    6.1836  -25.4048 C   0  0  0  0  0  0  0  0  0  0  0  0
   19.6339   -1.5470  -20.5206 N   0  0  0  0  0  0  0  0  0  0  0  0
   20.2534   -1.3273  -21.7250 C   0  0  0  0  0  0  0  0  0  0  0  0
   21.3677   -1.8419  -21.8782 O   0  0  0  0  0  0  0  0  0  0  0  0
   20.1866   -2.0175  -19.8555 H   0  0  0  0  0  0  0  0  0  0  0  0
   18.2472   -1.1883  -20.0441 C   0  0  0  0  0  0  0  0  0  0  0  0
   18.1883   -0.6552  -19.0524 C   0  0  0  0  0  0  0  0  0  0  0  0
   16.2905    0.9089  -18.9210 C   0  0  0  0  0  0  0  0  0  0  0  0
   15.8566    2.3843  -18.8422 C   0  0  0  0  0  0  0  0  0  0  0  0
   16.5244    3.0663  -17.7480 O   0  0  0  0  0  0  0  0  0  0  0  0
   17.9441    2.9065  -17.7354 C   0  0  0  0  0  0  0  0  0  0  0  0
   18.3198    1.4321  -17.7744 C   0  0  0  0  0  0  0  0  0  0  0  0
   17.7629    0.7748  -18.9873 N   0  0  0  0  0  0  0  0  0  0  0  0
   17.5066    7.3470  -26.1024 N   0  0  0  0  0  0  0  0  0  0  0  0
   16.6621    7.6009  -26.5401 H   0  0  0  0  0  0  0  0  0  0  0  0
   18.5442    8.2139  -26.2820 C   0  0  0  0  0  0  0  0  0  0  0  0
   19.3460    7.9818  -27.3902 C   0  0  0  0  0  0  0  0  0  0  0  0
   18.8801    9.2507  -25.3779 C   0  0  0  0  0  0  0  0  0  0  0  0
   18.2520    9.5358  -24.3724 F   0  0  0  0  0  0  0  0  0  0  0  0
   19.9610   10.0532  -25.6561 C   0  0  0  0  0  0  0  0  0  0  0  0
   20.7336    9.8318  -26.7983 C   0  0  0  0  0  0  0  0  0  0  0  0
   21.8401   10.6954  -27.0384 F   0  0  0  0  0  0  0  0  0  0  0  0
   20.4315    8.7963  -27.6944 C   0  0  0  0  0  0  0  0  0  0  0  0
   21.2763    8.6495  -28.7727 N   0  0  0  0  0  0  0  0  0  0  0  0
   21.9271    7.4718  -29.0599 C   0  0  0  0  0  0  0  0  0  0  0  0
   21.8634    6.4397  -28.3711 O   0  0  0  0  0  0  0  0  0  0  0  0
   21.4210    9.4227  -29.3648 H   0  0  0  0  0  0  0  0  0  0  0  0
   22.7606    7.4416  -30.1442 C   0  0  0  0  0  0  0  0  0  0  0  0
   22.2054    7.2719  -31.7457 S   0  0  0  0  0  0  0  0  0  0  0  0
   23.8145    7.2939  -32.3858 C   0  0  0  0  0  0  0  0  0  0  0  0
   24.6850    7.4140  -31.3713 C   0  0  0  0  0  0  0  0  0  0  0  0
   24.1152    7.4848  -30.1674 C   0  0  0  0  0  0  0  0  0  0  0  0
 23 28  1  0  0  0
 23 24  1  0  0  0
 28 22  1  0  0  0
 28 27  1  0  0  0
 22 21  1  0  0  0
 27 26  1  0  0  0
 24 25  1  0  0  0
 26 25  1  0  0  0
 21 17  1  0  0  0
 19 18  2  0  0  0
 18 17  1  0  0  0
 18  1  1  0  0  0
  5  4  2  0  0  0
  1  2  2  0  0  0
  1  6  1  0  0  0
  2  3  1  0  0  0
  6  7  2  0  0  0
  4  3  1  0  0  0
  4 13  1  0  0  0
  3  8  2  0  0  0
  7  8  1  0  0  0
  8  9  1  0  0  0
 14 13  2  0  0  0
 14 15  1  0  0  0
 13 11  1  0  0  0
  9 10  1  0  0  0
 15 16  2  0  0  0
 11 10  1  0  0  0
 11 12  2  0  0  0
 16 12  1  0  0  0
 16 29  1  0  0  0
 34 33  1  0  0  0
 33 35  2  0  0  0
 33 31  1  0  0  0
 35 36  1  0  0  0
 29 31  1  0  0  0
 31 32  2  0  0  0
 36 37  1  0  0  0
 36 38  2  0  0  0
 41 40  2  0  0  0
 32 38  1  0  0  0
 38 39  1  0  0  0
 40 39  1  0  0  0
 40 43  1  0  0  0
 44 43  1  0  0  0
 44 45  1  0  0  0
 43 47  2  0  0  0
 45 46  2  0  0  0
 47 46  1  0  0  0
 17 20  1  0  0  0
 29 30  1  0  0  0
 39 42  1  0  0  0
M  END
> <minimizedAffinity>
-9.88159

$$$$
5TBE_78L_A_401


 47 52  0  0  0  0  0  0  0  0999 V2000
   15.5191    5.9602  -16.1770 C   0  0  0  0  0  0  0  0  0  0  0  0
   15.3836    5.7569  -17.6007 C   0  0  0  0  0  0  0  0  0  0  0  0
   15.7535    4.5785  -18.2928 C   0  0  0  0  0  0  0  0  0  0  0  0
   15.5561    4.5119  -19.7079 C   0  0  0  0  0  0  0  0  0  0  0  0
   14.5074    4.9870  -20.1842 O   0  0  0  0  0  0  0  0  0  0  0  0
   16.0546    4.8683  -15.4803 C   0  0  0  0  0  0  0  0  0  0  0  0
   16.4254    3.6962  -16.1509 C   0  0  0  0  0  0  0  0  0  0  0  0
   16.2633    3.5503  -17.5405 C   0  0  0  0  0  0  0  0  0  0  0  0
   16.7418    2.3429  -18.1209 C   0  0  0  0  0  0  0  0  0  0  0  0
   18.0044    2.7311  -19.0149 C   0  0  0  0  0  0  0  0  0  0  0  0
   17.5833    3.1525  -20.3035 C   0  0  0  0  0  0  0  0  0  0  0  0
   18.4156    2.6983  -21.3493 C   0  0  0  0  0  0  0  0  0  0  0  0
   16.4757    3.9359  -20.6079 C   0  0  0  0  0  0  0  0  0  0  0  0
   16.1974    4.2183  -21.9597 C   0  0  0  0  0  0  0  0  0  0  0  0
   17.0089    3.7310  -22.9974 C   0  0  0  0  0  0  0  0  0  0  0  0
   18.1509    2.9732  -22.7100 C   0  0  0  0  0  0  0  0  0  0  0  0
   15.8772    8.3630  -15.6734 N   0  0  0  0  0  0  0  0  0  0  0  0
   15.1186    7.2214  -15.6086 C   0  0  0  0  0  0  0  0  0  0  0  0
   13.9664    7.3443  -15.1763 O   0  0  0  0  0  0  0  0  0  0  0  0
   15.4555    9.1582  -15.2744 H   0  0  0  0  0  0  0  0  0  0  0  0
   17.2496    8.6045  -16.2535 C   0  0  0  0  0  0  0  0  0  0  0  0
   17.9039    9.3287  -15.6892 C   0  0  0  0  0  0  0  0  0  0  0  0
   19.2856    7.3953  -15.0423 C   0  0  0  0  0  0  0  0  0  0  0  0
   20.6189    6.9283  -14.4295 C   0  0  0  0  0  0  0  0  0  0  0  0
   21.7474    7.5359  -15.1118 O   0  0  0  0  0  0  0  0  0  0  0  0
   21.6636    8.9569  -15.2350 C   0  0  0  0  0  0  0  0  0  0  0  0
   20.3472    9.3640  -15.8812 C   0  0  0  0  0  0  0  0  0  0  0  0
   19.1909    8.8716  -15.0850 N   0  0  0  0  0  0  0  0  0  0  0  0
   19.0279    2.4793  -23.6199 N   0  0  0  0  0  0  0  0  0  0  0  0
   19.7310    3.1034  -23.9124 H   0  0  0  0  0  0  0  0  0  0  0  0
   19.0718    1.2392  -24.1860 C   0  0  0  0  0  0  0  0  0  0  0  0
   19.2765    0.1794  -23.3143 C   0  0  0  0  0  0  0  0  0  0  0  0
   19.0051    0.9982  -25.5798 C   0  0  0  0  0  0  0  0  0  0  0  0
   18.8362    1.8533  -26.4325 F   0  0  0  0  0  0  0  0  0  0  0  0
   19.0769   -0.2964  -26.0364 C   0  0  0  0  0  0  0  0  0  0  0  0
   19.2416   -1.3561  -25.1416 C   0  0  0  0  0  0  0  0  0  0  0  0
   19.3069   -2.6770  -25.6697 F   0  0  0  0  0  0  0  0  0  0  0  0
   19.3327   -1.1370  -23.7596 C   0  0  0  0  0  0  0  0  0  0  0  0
   19.5232   -2.2506  -22.9711 N   0  0  0  0  0  0  0  0  0  0  0  0
   20.7064   -2.5141  -22.3201 C   0  0  0  0  0  0  0  0  0  0  0  0
   21.7311   -1.8164  -22.4004 O   0  0  0  0  0  0  0  0  0  0  0  0
   18.7789   -2.8868  -22.8689 H   0  0  0  0  0  0  0  0  0  0  0  0
   20.7949   -3.6608  -21.5792 C   0  0  0  0  0  0  0  0  0  0  0  0
   19.4344   -4.5187  -21.0182 S   0  0  0  0  0  0  0  0  0  0  0  0
   20.4154   -5.6982  -20.2148 C   0  0  0  0  0  0  0  0  0  0  0  0
   21.7081   -5.3852  -20.3951 C   0  0  0  0  0  0  0  0  0  0  0  0
   21.9078   -4.2849  -21.1220 C   0  0  0  0  0  0  0  0  0  0  0  0
 23 28  1  0  0  0
 23 24  1  0  0  0
 28 22  1  0  0  0
 28 27  1  0  0  0
 22 21  1  0  0  0
 27 26  1  0  0  0
 24 25  1  0  0  0
 26 25  1  0  0  0
 21 17  1  0  0  0
 19 18  2  0  0  0
 18 17  1  0  0  0
 18  1  1  0  0  0
  5  4  2  0  0  0
  1  2  2  0  0  0
  1  6  1  0  0  0
  2  3  1  0  0  0
  6  7  2  0  0  0
  4  3  1  0  0  0
  4 13  1  0  0  0
  3  8  2  0  0  0
  7  8  1  0  0  0
  8  9  1  0  0  0
 14 13  2  0  0  0
 14 15  1  0  0  0
 13 11  1  0  0  0
  9 10  1  0  0  0
 15 16  2  0  0  0
 11 10  1  0  0  0
 11 12  2  0  0  0
 16 12  1  0  0  0
 16 29  1  0  0  0
 34 33  1  0  0  0
 33 35  2  0  0  0
 33 31  1  0  0  0
 35 36  1  0  0  0
 29 31  1  0  0  0
 31 32  2  0  0  0
 36 37  1  0  0  0
 36 38  2  0  0  0
 41 40  2  0  0  0
 32 38  1  0  0  0
 38 39  1  0  0  0
 40 39  1  0  0  0
 40 43  1  0  0  0
 44 43  1  0  0  0
 44 45  1  0  0  0
 43 47  2  0  0  0
 45 46  2  0  0  0
 47 46  1  0  0  0
 17 20  1  0  0  0
 29 30  1  0  0  0
 39 42  1  0  0  0
M  END
> <minimizedAffinity>
-9.87060

$$$$
5TBE_78L_A_401


 47 52  0  0  0  0  0  0  0  0999 V2000
   18.4811    0.5189  -21.9637 C   0  0  0  0  0  0  0  0  0  0  0  0
   17.7746    1.6920  -22.4232 C   0  0  0  0  0  0  0  0  0  0  0  0
   17.8180    2.2025  -23.7430 C   0  0  0  0  0  0  0  0  0  0  0  0
   17.0599    3.3729  -24.0614 C   0  0  0  0  0  0  0  0  0  0  0  0
   15.9132    3.4848  -23.5874 O   0  0  0  0  0  0  0  0  0  0  0  0
   19.2429   -0.1260  -22.9476 C   0  0  0  0  0  0  0  0  0  0  0  0
   19.2958    0.3670  -24.2574 C   0  0  0  0  0  0  0  0  0  0  0  0
   18.5797    1.5116  -24.6517 C   0  0  0  0  0  0  0  0  0  0  0  0
   18.7673    1.9592  -25.9889 C   0  0  0  0  0  0  0  0  0  0  0  0
   19.5595    3.3410  -25.9045 C   0  0  0  0  0  0  0  0  0  0  0  0
   18.6539    4.4150  -25.7003 C   0  0  0  0  0  0  0  0  0  0  0  0
   18.9825    5.5803  -26.4260 C   0  0  0  0  0  0  0  0  0  0  0  0
   17.5265    4.4165  -24.8864 C   0  0  0  0  0  0  0  0  0  0  0  0
   16.7240    5.5736  -24.8439 C   0  0  0  0  0  0  0  0  0  0  0  0
   17.0367    6.7164  -25.5984 C   0  0  0  0  0  0  0  0  0  0  0  0
   18.1887    6.7491  -26.3939 C   0  0  0  0  0  0  0  0  0  0  0  0
   18.4034   -1.1785  -20.1557 N   0  0  0  0  0  0  0  0  0  0  0  0
   18.3603    0.1245  -20.5838 C   0  0  0  0  0  0  0  0  0  0  0  0
   18.3791    0.9975  -19.7079 O   0  0  0  0  0  0  0  0  0  0  0  0
   18.3473   -1.2909  -19.1793 H   0  0  0  0  0  0  0  0  0  0  0  0
   18.5224   -2.4684  -20.9306 C   0  0  0  0  0  0  0  0  0  0  0  0
   19.3428   -3.1682  -20.6015 C   0  0  0  0  0  0  0  0  0  0  0  0
   21.4767   -2.2444  -21.4130 C   0  0  0  0  0  0  0  0  0  0  0  0
   22.7152   -2.4811  -22.2969 C   0  0  0  0  0  0  0  0  0  0  0  0
   23.3594   -3.7394  -21.9654 O   0  0  0  0  0  0  0  0  0  0  0  0
   22.4765   -4.8624  -21.9393 C   0  0  0  0  0  0  0  0  0  0  0  0
   21.2917   -4.5938  -21.0225 C   0  0  0  0  0  0  0  0  0  0  0  0
   20.5400   -3.3890  -21.4664 N   0  0  0  0  0  0  0  0  0  0  0  0
   18.6133    7.8024  -27.1365 N   0  0  0  0  0  0  0  0  0  0  0  0
   18.2471    7.8522  -28.0489 H   0  0  0  0  0  0  0  0  0  0  0  0
   19.4766    8.8017  -26.7955 C   0  0  0  0  0  0  0  0  0  0  0  0
   20.5116    9.0424  -27.6875 C   0  0  0  0  0  0  0  0  0  0  0  0
   19.4181    9.5226  -25.5781 C   0  0  0  0  0  0  0  0  0  0  0  0
   18.5600    9.3864  -24.7225 F   0  0  0  0  0  0  0  0  0  0  0  0
   20.3550   10.4988  -25.3359 C   0  0  0  0  0  0  0  0  0  0  0  0
   21.3667   10.7569  -26.2637 C   0  0  0  0  0  0  0  0  0  0  0  0
   22.3088   11.7814  -25.9625 F   0  0  0  0  0  0  0  0  0  0  0  0
   21.4559   10.0389  -27.4649 C   0  0  0  0  0  0  0  0  0  0  0  0
   22.5096   10.3552  -28.2942 N   0  0  0  0  0  0  0  0  0  0  0  0
   23.7489    9.7668  -28.1886 C   0  0  0  0  0  0  0  0  0  0  0  0
   24.0667    8.9320  -27.3252 O   0  0  0  0  0  0  0  0  0  0  0  0
   22.3695   11.0331  -28.9942 H   0  0  0  0  0  0  0  0  0  0  0  0
   24.7316   10.1705  -29.0504 C   0  0  0  0  0  0  0  0  0  0  0  0
   25.9978    9.1545  -29.5664 S   0  0  0  0  0  0  0  0  0  0  0  0
   26.7173   10.4091  -30.5192 C   0  0  0  0  0  0  0  0  0  0  0  0
   25.9834   11.5259  -30.3942 C   0  0  0  0  0  0  0  0  0  0  0  0
   24.9217   11.3960  -29.5974 C   0  0  0  0  0  0  0  0  0  0  0  0
 23 28  1  0  0  0
 23 24  1  0  0  0
 28 22  1  0  0  0
 28 27  1  0  0  0
 22 21  1  0  0  0
 27 26  1  0  0  0
 24 25  1  0  0  0
 26 25  1  0  0  0
 21 17  1  0  0  0
 19 18  2  0  0  0
 18 17  1  0  0  0
 18  1  1  0  0  0
  5  4  2  0  0  0
  1  2  2  0  0  0
  1  6  1  0  0  0
  2  3  1  0  0  0
  6  7  2  0  0  0
  4  3  1  0  0  0
  4 13  1  0  0  0
  3  8  2  0  0  0
  7  8  1  0  0  0
  8  9  1  0  0  0
 14 13  2  0  0  0
 14 15  1  0  0  0
 13 11  1  0  0  0
  9 10  1  0  0  0
 15 16  2  0  0  0
 11 10  1  0  0  0
 11 12  2  0  0  0
 16 12  1  0  0  0
 16 29  1  0  0  0
 34 33  1  0  0  0
 33 35  2  0  0  0
 33 31  1  0  0  0
 35 36  1  0  0  0
 29 31  1  0  0  0
 31 32  2  0  0  0
 36 37  1  0  0  0
 36 38  2  0  0  0
 41 40  2  0  0  0
 32 38  1  0  0  0
 38 39  1  0  0  0
 40 39  1  0  0  0
 40 43  1  0  0  0
 44 43  1  0  0  0
 44 45  1  0  0  0
 43 47  2  0  0  0
 45 46  2  0  0  0
 47 46  1  0  0  0
 17 20  1  0  0  0
 29 30  1  0  0  0
 39 42  1  0  0  0
M  END
> <minimizedAffinity>
-9.62966

$$$$
5TBE_78L_A_401


 47 52  0  0  0  0  0  0  0  0999 V2000
   19.2930   -0.8914  -22.2451 C   0  0  0  0  0  0  0  0  0  0  0  0
   18.6304    0.3888  -22.3383 C   0  0  0  0  0  0  0  0  0  0  0  0
   18.2999    1.0474  -23.5472 C   0  0  0  0  0  0  0  0  0  0  0  0
   17.6354    2.3127  -23.4908 C   0  0  0  0  0  0  0  0  0  0  0  0
   16.7340    2.4729  -22.6458 O   0  0  0  0  0  0  0  0  0  0  0  0
   19.5978   -1.4817  -23.4793 C   0  0  0  0  0  0  0  0  0  0  0  0
   19.2774   -0.8424  -24.6834 C   0  0  0  0  0  0  0  0  0  0  0  0
   18.6236    0.4026  -24.7146 C   0  0  0  0  0  0  0  0  0  0  0  0
   18.4143    0.9877  -25.9941 C   0  0  0  0  0  0  0  0  0  0  0  0
   19.3595    2.2700  -26.0738 C   0  0  0  0  0  0  0  0  0  0  0  0
   18.7174    3.3911  -25.4855 C   0  0  0  0  0  0  0  0  0  0  0  0
   18.9337    4.5995  -26.1825 C   0  0  0  0  0  0  0  0  0  0  0  0
   17.9324    3.3998  -24.3379 C   0  0  0  0  0  0  0  0  0  0  0  0
   17.3438    4.6129  -23.9296 C   0  0  0  0  0  0  0  0  0  0  0  0
   17.5328    5.8038  -24.6499 C   0  0  0  0  0  0  0  0  0  0  0  0
   18.3514    5.8245  -25.7859 C   0  0  0  0  0  0  0  0  0  0  0  0
   18.9966   -0.9989  -19.7842 N   0  0  0  0  0  0  0  0  0  0  0  0
   19.5858   -1.4352  -20.9441 C   0  0  0  0  0  0  0  0  0  0  0  0
   20.2805   -2.4554  -20.8642 O   0  0  0  0  0  0  0  0  0  0  0  0
   19.2671   -1.4926  -18.9765 H   0  0  0  0  0  0  0  0  0  0  0  0
   18.0033    0.1109  -19.5387 C   0  0  0  0  0  0  0  0  0  0  0  0
   18.0104    0.5601  -18.5047 C   0  0  0  0  0  0  0  0  0  0  0  0
   16.4594    2.2626  -19.3772 C   0  0  0  0  0  0  0  0  0  0  0  0
   15.5213    3.4326  -19.0273 C   0  0  0  0  0  0  0  0  0  0  0  0
   14.5596    3.0437  -18.0114 O   0  0  0  0  0  0  0  0  0  0  0  0
   15.1393    2.4357  -16.8557 C   0  0  0  0  0  0  0  0  0  0  0  0
   16.0242    1.2625  -17.2519 C   0  0  0  0  0  0  0  0  0  0  0  0
   17.1084    1.7025  -18.1708 N   0  0  0  0  0  0  0  0  0  0  0  0
   18.6375    6.9152  -26.5407 N   0  0  0  0  0  0  0  0  0  0  0  0
   19.3699    6.8014  -27.1887 H   0  0  0  0  0  0  0  0  0  0  0  0
   18.0525    8.1472  -26.5270 C   0  0  0  0  0  0  0  0  0  0  0  0
   17.1253    8.3916  -27.5298 C   0  0  0  0  0  0  0  0  0  0  0  0
   18.3954    9.1807  -25.6218 C   0  0  0  0  0  0  0  0  0  0  0  0
   19.1998    9.0777  -24.7112 F   0  0  0  0  0  0  0  0  0  0  0  0
   17.7482   10.3899  -25.7147 C   0  0  0  0  0  0  0  0  0  0  0  0
   16.7871   10.6059  -26.7049 C   0  0  0  0  0  0  0  0  0  0  0  0
   16.1462   11.8766  -26.7529 F   0  0  0  0  0  0  0  0  0  0  0  0
   16.4493    9.6033  -27.6252 C   0  0  0  0  0  0  0  0  0  0  0  0
   15.5098    9.9331  -28.5773 N   0  0  0  0  0  0  0  0  0  0  0  0
   15.8426   10.3427  -29.8480 C   0  0  0  0  0  0  0  0  0  0  0  0
   17.0036   10.5004  -30.2614 O   0  0  0  0  0  0  0  0  0  0  0  0
   14.5568    9.8729  -28.3376 H   0  0  0  0  0  0  0  0  0  0  0  0
   14.8299   10.6667  -30.7087 C   0  0  0  0  0  0  0  0  0  0  0  0
   14.9997   11.8025  -31.9669 S   0  0  0  0  0  0  0  0  0  0  0  0
   13.3510   11.6134  -32.4619 C   0  0  0  0  0  0  0  0  0  0  0  0
   12.7538   10.7218  -31.6557 C   0  0  0  0  0  0  0  0  0  0  0  0
   13.5497   10.2214  -30.7095 C   0  0  0  0  0  0  0  0  0  0  0  0
 23 28  1  0  0  0
 23 24  1  0  0  0
 28 22  1  0  0  0
 28 27  1  0  0  0
 22 21  1  0  0  0
 27 26  1  0  0  0
 24 25  1  0  0  0
 26 25  1  0  0  0
 21 17  1  0  0  0
 19 18  2  0  0  0
 18 17  1  0  0  0
 18  1  1  0  0  0
  5  4  2  0  0  0
  1  2  2  0  0  0
  1  6  1  0  0  0
  2  3  1  0  0  0
  6  7  2  0  0  0
  4  3  1  0  0  0
  4 13  1  0  0  0
  3  8  2  0  0  0
  7  8  1  0  0  0
  8  9  1  0  0  0
 14 13  2  0  0  0
 14 15  1  0  0  0
 13 11  1  0  0  0
  9 10  1  0  0  0
 15 16  2  0  0  0
 11 10  1  0  0  0
 11 12  2  0  0  0
 16 12  1  0  0  0
 16 29  1  0  0  0
 34 33  1  0  0  0
 33 35  2  0  0  0
 33 31  1  0  0  0
 35 36  1  0  0  0
 29 31  1  0  0  0
 31 32  2  0  0  0
 36 37  1  0  0  0
 36 38  2  0  0  0
 41 40  2  0  0  0
 32 38  1  0  0  0
 38 39  1  0  0  0
 40 39  1  0  0  0
 40 43  1  0  0  0
 44 43  1  0  0  0
 44 45  1  0  0  0
 43 47  2  0  0  0
 45 46  2  0  0  0
 47 46  1  0  0  0
 17 20  1  0  0  0
 29 30  1  0  0  0
 39 42  1  0  0  0
M  END
> <minimizedAffinity>
-9.50351

$$$$
5TBE_78L_A_401


 47 52  0  0  0  0  0  0  0  0999 V2000
   18.9302   -0.0039  -22.5089 C   0  0  0  0  0  0  0  0  0  0  0  0
   18.1667    1.2222  -22.5216 C   0  0  0  0  0  0  0  0  0  0  0  0
   17.8281    1.9576  -23.6830 C   0  0  0  0  0  0  0  0  0  0  0  0
   17.0582    3.1554  -23.5481 C   0  0  0  0  0  0  0  0  0  0  0  0
   16.1152    3.1667  -22.7340 O   0  0  0  0  0  0  0  0  0  0  0  0
   19.3300   -0.4552  -23.7743 C   0  0  0  0  0  0  0  0  0  0  0  0
   19.0029    0.2613  -24.9322 C   0  0  0  0  0  0  0  0  0  0  0  0
   18.2487    1.4477  -24.8857 C   0  0  0  0  0  0  0  0  0  0  0  0
   18.0396    2.1262  -26.1184 C   0  0  0  0  0  0  0  0  0  0  0  0
   18.8764    3.4821  -26.0449 C   0  0  0  0  0  0  0  0  0  0  0  0
   18.1207    4.4910  -25.3919 C   0  0  0  0  0  0  0  0  0  0  0  0
   18.2612    5.7703  -25.9720 C   0  0  0  0  0  0  0  0  0  0  0  0
   17.2949    4.3341  -24.2844 C   0  0  0  0  0  0  0  0  0  0  0  0
   16.5916    5.4548  -23.8003 C   0  0  0  0  0  0  0  0  0  0  0  0
   16.7073    6.7166  -24.4063 C   0  0  0  0  0  0  0  0  0  0  0  0
   17.5636    6.9043  -25.4983 C   0  0  0  0  0  0  0  0  0  0  0  0
   20.3629   -1.3497  -20.9950 N   0  0  0  0  0  0  0  0  0  0  0  0
   19.2181   -0.6366  -21.2476 C   0  0  0  0  0  0  0  0  0  0  0  0
   18.4847   -0.4029  -20.2795 O   0  0  0  0  0  0  0  0  0  0  0  0
   20.4385   -1.6905  -20.0745 H   0  0  0  0  0  0  0  0  0  0  0  0
   21.5259   -1.6993  -21.8915 C   0  0  0  0  0  0  0  0  0  0  0  0
   21.7782   -2.7954  -21.9683 C   0  0  0  0  0  0  0  0  0  0  0  0
   19.8279   -4.2528  -21.5970 C   0  0  0  0  0  0  0  0  0  0  0  0
   19.1644   -5.2829  -20.6643 C   0  0  0  0  0  0  0  0  0  0  0  0
   20.0692   -6.3803  -20.3722 O   0  0  0  0  0  0  0  0  0  0  0  0
   21.3598   -5.9718  -19.9151 C   0  0  0  0  0  0  0  0  0  0  0  0
   21.9885   -4.9864  -20.8899 C   0  0  0  0  0  0  0  0  0  0  0  0
   21.1261   -3.7862  -21.0609 N   0  0  0  0  0  0  0  0  0  0  0  0
   17.7857    8.0775  -26.1429 N   0  0  0  0  0  0  0  0  0  0  0  0
   17.0301    8.4186  -26.6738 H   0  0  0  0  0  0  0  0  0  0  0  0
   18.9095    8.8503  -26.1580 C   0  0  0  0  0  0  0  0  0  0  0  0
   19.2081    9.5130  -24.9762 C   0  0  0  0  0  0  0  0  0  0  0  0
   19.7102    9.0674  -27.3055 C   0  0  0  0  0  0  0  0  0  0  0  0
   19.5344    8.5447  -28.3931 F   0  0  0  0  0  0  0  0  0  0  0  0
   20.8127    9.8823  -27.2044 C   0  0  0  0  0  0  0  0  0  0  0  0
   21.1228   10.5094  -25.9955 C   0  0  0  0  0  0  0  0  0  0  0  0
   22.2782   11.3404  -25.9471 F   0  0  0  0  0  0  0  0  0  0  0  0
   20.3300   10.3257  -24.8536 C   0  0  0  0  0  0  0  0  0  0  0  0
   20.7107   11.0145  -23.7228 N   0  0  0  0  0  0  0  0  0  0  0  0
   20.2215   12.2604  -23.4041 C   0  0  0  0  0  0  0  0  0  0  0  0
   19.4300   12.9125  -24.1054 O   0  0  0  0  0  0  0  0  0  0  0  0
   21.3625   10.5962  -23.1150 H   0  0  0  0  0  0  0  0  0  0  0  0
   20.6832   12.8647  -22.2670 C   0  0  0  0  0  0  0  0  0  0  0  0
   20.1909   14.4171  -21.7674 S   0  0  0  0  0  0  0  0  0  0  0  0
   21.2245   14.3803  -20.3783 C   0  0  0  0  0  0  0  0  0  0  0  0
   21.8939   13.2170  -20.3644 C   0  0  0  0  0  0  0  0  0  0  0  0
   21.6064   12.4086  -21.3856 C   0  0  0  0  0  0  0  0  0  0  0  0
 23 28  1  0  0  0
 23 24  1  0  0  0
 28 22  1  0  0  0
 28 27  1  0  0  0
 22 21  1  0  0  0
 27 26  1  0  0  0
 24 25  1  0  0  0
 26 25  1  0  0  0
 21 17  1  0  0  0
 19 18  2  0  0  0
 18 17  1  0  0  0
 18  1  1  0  0  0
  5  4  2  0  0  0
  1  2  2  0  0  0
  1  6  1  0  0  0
  2  3  1  0  0  0
  6  7  2  0  0  0
  4  3  1  0  0  0
  4 13  1  0  0  0
  3  8  2  0  0  0
  7  8  1  0  0  0
  8  9  1  0  0  0
 14 13  2  0  0  0
 14 15  1  0  0  0
 13 11  1  0  0  0
  9 10  1  0  0  0
 15 16  2  0  0  0
 11 10  1  0  0  0
 11 12  2  0  0  0
 16 12  1  0  0  0
 16 29  1  0  0  0
 34 33  1  0  0  0
 33 35  2  0  0  0
 33 31  1  0  0  0
 35 36  1  0  0  0
 29 31  1  0  0  0
 31 32  2  0  0  0
 36 37  1  0  0  0
 36 38  2  0  0  0
 41 40  2  0  0  0
 32 38  1  0  0  0
 38 39  1  0  0  0
 40 39  1  0  0  0
 40 43  1  0  0  0
 44 43  1  0  0  0
 44 45  1  0  0  0
 43 47  2  0  0  0
 45 46  2  0  0  0
 47 46  1  0  0  0
 17 20  1  0  0  0
 29 30  1  0  0  0
 39 42  1  0  0  0
M  END
> <minimizedAffinity>
-9.43234

$$$$
5TBE_78L_A_401


 47 52  0  0  0  0  0  0  0  0999 V2000
   19.0941   -0.3174  -22.1196 C   0  0  0  0  0  0  0  0  0  0  0  0
   18.3527    0.9108  -22.2883 C   0  0  0  0  0  0  0  0  0  0  0  0
   18.0684    1.5249  -23.5319 C   0  0  0  0  0  0  0  0  0  0  0  0
   17.3150    2.7405  -23.5512 C   0  0  0  0  0  0  0  0  0  0  0  0
   16.3439    2.8496  -22.7784 O   0  0  0  0  0  0  0  0  0  0  0  0
   19.5308   -0.9040  -23.3153 C   0  0  0  0  0  0  0  0  0  0  0  0
   19.2576   -0.3084  -24.5529 C   0  0  0  0  0  0  0  0  0  0  0  0
   18.5227    0.8863  -24.6584 C   0  0  0  0  0  0  0  0  0  0  0  0
   18.3694    1.4346  -25.9620 C   0  0  0  0  0  0  0  0  0  0  0  0
   19.2262    2.7794  -25.9990 C   0  0  0  0  0  0  0  0  0  0  0  0
   18.4653    3.8613  -25.4834 C   0  0  0  0  0  0  0  0  0  0  0  0
   18.6483    5.0707  -26.1880 C   0  0  0  0  0  0  0  0  0  0  0  0
   17.5979    3.8323  -24.3970 C   0  0  0  0  0  0  0  0  0  0  0  0
   16.8973    5.0068  -24.0588 C   0  0  0  0  0  0  0  0  0  0  0  0
   17.0561    6.1965  -24.7883 C   0  0  0  0  0  0  0  0  0  0  0  0
   17.9539    6.2574  -25.8613 C   0  0  0  0  0  0  0  0  0  0  0  0
   18.5900   -0.4433  -19.6936 N   0  0  0  0  0  0  0  0  0  0  0  0
   19.3259   -0.8183  -20.7893 C   0  0  0  0  0  0  0  0  0  0  0  0
   20.1183   -1.7548  -20.6319 O   0  0  0  0  0  0  0  0  0  0  0  0
   18.8389   -0.8996  -18.8574 H   0  0  0  0  0  0  0  0  0  0  0  0
   17.4629    0.5511  -19.5549 C   0  0  0  0  0  0  0  0  0  0  0  0
   17.7079    1.5007  -18.9987 C   0  0  0  0  0  0  0  0  0  0  0  0
   16.2486    3.4755  -18.8086 C   0  0  0  0  0  0  0  0  0  0  0  0
   15.1608    4.1825  -17.9792 C   0  0  0  0  0  0  0  0  0  0  0  0
   14.0353    3.2985  -17.7340 O   0  0  0  0  0  0  0  0  0  0  0  0
   14.3955    2.0232  -17.2001 C   0  0  0  0  0  0  0  0  0  0  0  0
   15.4422    1.3496  -18.0759 C   0  0  0  0  0  0  0  0  0  0  0  0
   16.6609    2.1951  -18.1913 N   0  0  0  0  0  0  0  0  0  0  0  0
   18.2190    7.3535  -26.6159 N   0  0  0  0  0  0  0  0  0  0  0  0
   17.7579    7.3910  -27.4849 H   0  0  0  0  0  0  0  0  0  0  0  0
   19.0350    8.4107  -26.3387 C   0  0  0  0  0  0  0  0  0  0  0  0
   19.9375    8.7597  -27.3329 C   0  0  0  0  0  0  0  0  0  0  0  0
   19.0617    9.0908  -25.0970 C   0  0  0  0  0  0  0  0  0  0  0  0
   18.3219    8.8614  -24.1552 F   0  0  0  0  0  0  0  0  0  0  0  0
   19.9409   10.1337  -24.9271 C   0  0  0  0  0  0  0  0  0  0  0  0
   20.8148   10.4992  -25.9536 C   0  0  0  0  0  0  0  0  0  0  0  0
   21.7022   11.5889  -25.7239 F   0  0  0  0  0  0  0  0  0  0  0  0
   20.8201    9.8240  -27.1826 C   0  0  0  0  0  0  0  0  0  0  0  0
   21.7425   10.2482  -28.1138 N   0  0  0  0  0  0  0  0  0  0  0  0
   23.0538    9.8313  -28.1134 C   0  0  0  0  0  0  0  0  0  0  0  0
   23.5574    9.0744  -27.2666 O   0  0  0  0  0  0  0  0  0  0  0  0
   21.4501   10.8783  -28.8114 H   0  0  0  0  0  0  0  0  0  0  0  0
   23.8915   10.3317  -29.0722 C   0  0  0  0  0  0  0  0  0  0  0  0
   25.4531    9.7164  -29.3628 S   0  0  0  0  0  0  0  0  0  0  0  0
   25.7624   10.8810  -30.6067 C   0  0  0  0  0  0  0  0  0  0  0  0
   24.6899   11.6778  -30.7336 C   0  0  0  0  0  0  0  0  0  0  0  0
   23.6896   11.3847  -29.9014 C   0  0  0  0  0  0  0  0  0  0  0  0
 23 28  1  0  0  0
 23 24  1  0  0  0
 28 22  1  0  0  0
 28 27  1  0  0  0
 22 21  1  0  0  0
 27 26  1  0  0  0
 24 25  1  0  0  0
 26 25  1  0  0  0
 21 17  1  0  0  0
 19 18  2  0  0  0
 18 17  1  0  0  0
 18  1  1  0  0  0
  5  4  2  0  0  0
  1  2  2  0  0  0
  1  6  1  0  0  0
  2  3  1  0  0  0
  6  7  2  0  0  0
  4  3  1  0  0  0
  4 13  1  0  0  0
  3  8  2  0  0  0
  7  8  1  0  0  0
  8  9  1  0  0  0
 14 13  2  0  0  0
 14 15  1  0  0  0
 13 11  1  0  0  0
  9 10  1  0  0  0
 15 16  2  0  0  0
 11 10  1  0  0  0
 11 12  2  0  0  0
 16 12  1  0  0  0
 16 29  1  0  0  0
 34 33  1  0  0  0
 33 35  2  0  0  0
 33 31  1  0  0  0
 35 36  1  0  0  0
 29 31  1  0  0  0
 31 32  2  0  0  0
 36 37  1  0  0  0
 36 38  2  0  0  0
 41 40  2  0  0  0
 32 38  1  0  0  0
 38 39  1  0  0  0
 40 39  1  0  0  0
 40 43  1  0  0  0
 44 43  1  0  0  0
 44 45  1  0  0  0
 43 47  2  0  0  0
 45 46  2  0  0  0
 47 46  1  0  0  0
 17 20  1  0  0  0
 29 30  1  0  0  0
 39 42  1  0  0  0
M  END
> <minimizedAffinity>
-9.37234

$$$$
5TBE_78L_A_401


 47 52  0  0  0  0  0  0  0  0999 V2000
   19.1484   -0.6543  -21.9843 C   0  0  0  0  0  0  0  0  0  0  0  0
   18.3542    0.5304  -22.2126 C   0  0  0  0  0  0  0  0  0  0  0  0
   18.1217    1.1225  -23.4774 C   0  0  0  0  0  0  0  0  0  0  0  0
   17.3060    2.2947  -23.5574 C   0  0  0  0  0  0  0  0  0  0  0  0
   16.2803    2.3536  -22.8526 O   0  0  0  0  0  0  0  0  0  0  0  0
   19.6966   -1.2213  -23.1430 C   0  0  0  0  0  0  0  0  0  0  0  0
   19.4757   -0.6471  -24.4010 C   0  0  0  0  0  0  0  0  0  0  0  0
   18.6855    0.5049  -24.5655 C   0  0  0  0  0  0  0  0  0  0  0  0
   18.5911    1.0382  -25.8809 C   0  0  0  0  0  0  0  0  0  0  0  0
   19.3738    2.4280  -25.8710 C   0  0  0  0  0  0  0  0  0  0  0  0
   18.5216    3.4686  -25.4166 C   0  0  0  0  0  0  0  0  0  0  0  0
   18.6857    4.6831  -26.1170 C   0  0  0  0  0  0  0  0  0  0  0  0
   17.5856    3.3967  -24.3910 C   0  0  0  0  0  0  0  0  0  0  0  0
   16.8005    4.5323  -24.1103 C   0  0  0  0  0  0  0  0  0  0  0  0
   16.9432    5.7258  -24.8370 C   0  0  0  0  0  0  0  0  0  0  0  0
   17.9070    5.8312  -25.8476 C   0  0  0  0  0  0  0  0  0  0  0  0
   18.5932   -0.6752  -19.5663 N   0  0  0  0  0  0  0  0  0  0  0  0
   19.3166   -1.1358  -20.6374 C   0  0  0  0  0  0  0  0  0  0  0  0
   20.0300   -2.1268  -20.4406 O   0  0  0  0  0  0  0  0  0  0  0  0
   18.7906   -1.1268  -18.7140 H   0  0  0  0  0  0  0  0  0  0  0  0
   17.5454    0.4076  -19.4752 C   0  0  0  0  0  0  0  0  0  0  0  0
   17.8101    1.2984  -18.8368 C   0  0  0  0  0  0  0  0  0  0  0  0
   16.9750    3.2355  -17.5658 C   0  0  0  0  0  0  0  0  0  0  0  0
   16.1089    4.5082  -17.6030 C   0  0  0  0  0  0  0  0  0  0  0  0
   16.4948    5.3693  -18.7066 O   0  0  0  0  0  0  0  0  0  0  0  0
   16.5607    4.7087  -19.9718 C   0  0  0  0  0  0  0  0  0  0  0  0
   17.4587    3.4825  -19.8921 C   0  0  0  0  0  0  0  0  0  0  0  0
   16.9621    2.5273  -18.8653 N   0  0  0  0  0  0  0  0  0  0  0  0
   18.1623    6.9369  -26.5914 N   0  0  0  0  0  0  0  0  0  0  0  0
   18.3446    6.7730  -27.5449 H   0  0  0  0  0  0  0  0  0  0  0  0
   18.2017    8.2437  -26.2028 C   0  0  0  0  0  0  0  0  0  0  0  0
   18.4618    8.4713  -24.8591 C   0  0  0  0  0  0  0  0  0  0  0  0
   17.9167    9.3366  -27.0569 C   0  0  0  0  0  0  0  0  0  0  0  0
   17.6680    9.2504  -28.2475 F   0  0  0  0  0  0  0  0  0  0  0  0
   17.9714   10.6123  -26.5477 C   0  0  0  0  0  0  0  0  0  0  0  0
   18.2755   10.8263  -25.2015 C   0  0  0  0  0  0  0  0  0  0  0  0
   18.3212   12.1687  -24.7285 F   0  0  0  0  0  0  0  0  0  0  0  0
   18.5385    9.7567  -24.3336 C   0  0  0  0  0  0  0  0  0  0  0  0
   18.7988   10.0798  -23.0199 N   0  0  0  0  0  0  0  0  0  0  0  0
   17.8258   10.1045  -22.0474 C   0  0  0  0  0  0  0  0  0  0  0  0
   16.6191    9.8851  -22.2454 O   0  0  0  0  0  0  0  0  0  0  0  0
   19.7233   10.3032  -22.7653 H   0  0  0  0  0  0  0  0  0  0  0  0
   18.1899   10.4599  -20.7776 C   0  0  0  0  0  0  0  0  0  0  0  0
   19.6622   11.2336  -20.4092 S   0  0  0  0  0  0  0  0  0  0  0  0
   19.3132   11.2554  -18.7130 C   0  0  0  0  0  0  0  0  0  0  0  0
   18.1218   10.6732  -18.5061 C   0  0  0  0  0  0  0  0  0  0  0  0
   17.5249   10.2395  -19.6173 C   0  0  0  0  0  0  0  0  0  0  0  0
 23 28  1  0  0  0
 23 24  1  0  0  0
 28 22  1  0  0  0
 28 27  1  0  0  0
 22 21  1  0  0  0
 27 26  1  0  0  0
 24 25  1  0  0  0
 26 25  1  0  0  0
 21 17  1  0  0  0
 19 18  2  0  0  0
 18 17  1  0  0  0
 18  1  1  0  0  0
  5  4  2  0  0  0
  1  2  2  0  0  0
  1  6  1  0  0  0
  2  3  1  0  0  0
  6  7  2  0  0  0
  4  3  1  0  0  0
  4 13  1  0  0  0
  3  8  2  0  0  0
  7  8  1  0  0  0
  8  9  1  0  0  0
 14 13  2  0  0  0
 14 15  1  0  0  0
 13 11  1  0  0  0
  9 10  1  0  0  0
 15 16  2  0  0  0
 11 10  1  0  0  0
 11 12  2  0  0  0
 16 12  1  0  0  0
 16 29  1  0  0  0
 34 33  1  0  0  0
 33 35  2  0  0  0
 33 31  1  0  0  0
 35 36  1  0  0  0
 29 31  1  0  0  0
 31 32  2  0  0  0
 36 37  1  0  0  0
 36 38  2  0  0  0
 41 40  2  0  0  0
 32 38  1  0  0  0
 38 39  1  0  0  0
 40 39  1  0  0  0
 40 43  1  0  0  0
 44 43  1  0  0  0
 44 45  1  0  0  0
 43 47  2  0  0  0
 45 46  2  0  0  0
 47 46  1  0  0  0
 17 20  1  0  0  0
 29 30  1  0  0  0
 39 42  1  0  0  0
M  END
> <minimizedAffinity>
-9.06625

$$$$
5TBE_78L_A_401


 47 52  0  0  0  0  0  0  0  0999 V2000
   19.1978   -0.4662  -22.9787 C   0  0  0  0  0  0  0  0  0  0  0  0
   18.3946    0.7127  -22.7515 C   0  0  0  0  0  0  0  0  0  0  0  0
   17.9234    1.5833  -23.7636 C   0  0  0  0  0  0  0  0  0  0  0  0
   17.1287    2.7137  -23.3943 C   0  0  0  0  0  0  0  0  0  0  0  0
   16.2664    2.5689  -22.5068 O   0  0  0  0  0  0  0  0  0  0  0  0
   19.4924   -0.7207  -24.3252 C   0  0  0  0  0  0  0  0  0  0  0  0
   19.0336    0.1314  -25.3375 C   0  0  0  0  0  0  0  0  0  0  0  0
   18.2466    1.2632  -25.0584 C   0  0  0  0  0  0  0  0  0  0  0  0
   17.8995    2.0934  -26.1602 C   0  0  0  0  0  0  0  0  0  0  0  0
   18.6922    3.4645  -25.9707 C   0  0  0  0  0  0  0  0  0  0  0  0
   17.9667    4.3378  -25.1184 C   0  0  0  0  0  0  0  0  0  0  0  0
   18.0080    5.6896  -25.5230 C   0  0  0  0  0  0  0  0  0  0  0  0
   17.2544    3.9919  -23.9755 C   0  0  0  0  0  0  0  0  0  0  0  0
   16.5614    5.0013  -23.2786 C   0  0  0  0  0  0  0  0  0  0  0  0
   16.5761    6.3382  -23.7090 C   0  0  0  0  0  0  0  0  0  0  0  0
   17.3192    6.7139  -24.8349 C   0  0  0  0  0  0  0  0  0  0  0  0
   19.0888   -1.1329  -20.5914 N   0  0  0  0  0  0  0  0  0  0  0  0
   19.6244   -1.2512  -21.8492 C   0  0  0  0  0  0  0  0  0  0  0  0
   20.3991   -2.1971  -22.0359 O   0  0  0  0  0  0  0  0  0  0  0  0
   19.4538   -1.7638  -19.9298 H   0  0  0  0  0  0  0  0  0  0  0  0
   18.0338   -0.1976  -20.0520 C   0  0  0  0  0  0  0  0  0  0  0  0
   18.0894    0.0254  -18.9483 C   0  0  0  0  0  0  0  0  0  0  0  0
   17.5706    2.4152  -19.2397 C   0  0  0  0  0  0  0  0  0  0  0  0
   16.8443    3.6428  -18.6594 C   0  0  0  0  0  0  0  0  0  0  0  0
   15.4465    3.3472  -18.4003 O   0  0  0  0  0  0  0  0  0  0  0  0
   15.2293    2.1624  -17.6318 C   0  0  0  0  0  0  0  0  0  0  0  0
   15.9335    0.9724  -18.2676 C   0  0  0  0  0  0  0  0  0  0  0  0
   17.3958    1.2211  -18.3830 N   0  0  0  0  0  0  0  0  0  0  0  0
   17.4392    7.9734  -25.3251 N   0  0  0  0  0  0  0  0  0  0  0  0
   17.2728    8.0696  -26.2907 H   0  0  0  0  0  0  0  0  0  0  0  0
   17.7582    9.1248  -24.6672 C   0  0  0  0  0  0  0  0  0  0  0  0
   19.0584    9.5798  -24.8325 C   0  0  0  0  0  0  0  0  0  0  0  0
   16.8827    9.8073  -23.7882 C   0  0  0  0  0  0  0  0  0  0  0  0
   15.7266    9.4911  -23.5636 F   0  0  0  0  0  0  0  0  0  0  0  0
   17.3215   10.9521  -23.1664 C   0  0  0  0  0  0  0  0  0  0  0  0
   18.6209   11.4197  -23.3760 C   0  0  0  0  0  0  0  0  0  0  0  0
   19.0213   12.6121  -22.7085 F   0  0  0  0  0  0  0  0  0  0  0  0
   19.5109   10.7460  -24.2247 C   0  0  0  0  0  0  0  0  0  0  0  0
   20.7767   11.2783  -24.3366 N   0  0  0  0  0  0  0  0  0  0  0  0
   21.1012   12.2536  -25.2512 C   0  0  0  0  0  0  0  0  0  0  0  0
   20.3185   12.7263  -26.0923 O   0  0  0  0  0  0  0  0  0  0  0  0
   21.4811   10.9456  -23.7346 H   0  0  0  0  0  0  0  0  0  0  0  0
   22.3948   12.6971  -25.2916 C   0  0  0  0  0  0  0  0  0  0  0  0
   23.1837   13.1484  -26.7324 S   0  0  0  0  0  0  0  0  0  0  0  0
   24.6612   13.5023  -25.9013 C   0  0  0  0  0  0  0  0  0  0  0  0
   24.4951   13.2539  -24.5928 C   0  0  0  0  0  0  0  0  0  0  0  0
   23.2781   12.8134  -24.2702 C   0  0  0  0  0  0  0  0  0  0  0  0
 23 28  1  0  0  0
 23 24  1  0  0  0
 28 22  1  0  0  0
 28 27  1  0  0  0
 22 21  1  0  0  0
 27 26  1  0  0  0
 24 25  1  0  0  0
 26 25  1  0  0  0
 21 17  1  0  0  0
 19 18  2  0  0  0
 18 17  1  0  0  0
 18  1  1  0  0  0
  5  4  2  0  0  0
  1  2  2  0  0  0
  1  6  1  0  0  0
  2  3  1  0  0  0
  6  7  2  0  0  0
  4  3  1  0  0  0
  4 13  1  0  0  0
  3  8  2  0  0  0
  7  8  1  0  0  0
  8  9  1  0  0  0
 14 13  2  0  0  0
 14 15  1  0  0  0
 13 11  1  0  0  0
  9 10  1  0  0  0
 15 16  2  0  0  0
 11 10  1  0  0  0
 11 12  2  0  0  0
 16 12  1  0  0  0
 16 29  1  0  0  0
 34 33  1  0  0  0
 33 35  2  0  0  0
 33 31  1  0  0  0
 35 36  1  0  0  0
 29 31  1  0  0  0
 31 32  2  0  0  0
 36 37  1  0  0  0
 36 38  2  0  0  0
 41 40  2  0  0  0
 32 38  1  0  0  0
 38 39  1  0  0  0
 40 39  1  0  0  0
 40 43  1  0  0  0
 44 43  1  0  0  0
 44 45  1  0  0  0
 43 47  2  0  0  0
 45 46  2  0  0  0
 47 46  1  0  0  0
 17 20  1  0  0  0
 29 30  1  0  0  0
 39 42  1  0  0  0
M  END
> <minimizedAffinity>
-8.76939

$$$$
