1QBN_688_A_300


 38 41  0  0  0  0  0  0  0  0999 V2000
    8.8740   24.2915   18.8530 C   0  0  0  0  0  0  0  0  0  0  0  0
    9.7579   25.1208   18.0924 C   0  0  0  0  0  0  0  0  0  0  0  0
   11.0079   25.4197   18.6864 C   0  0  0  0  0  0  0  0  0  0  0  0
   11.4149   24.6495   19.8150 C   0  0  0  0  0  0  0  0  0  0  0  0
   10.6017   23.8000   20.4540 N   0  0  0  0  0  0  0  0  0  0  0  0
    9.3858   23.5354   19.9121 C   0  0  0  0  0  0  0  0  0  0  0  0
    9.2596   25.8830   17.0634 C   0  0  0  0  0  0  0  0  0  0  0  0
    9.3091   27.1020   17.0715 O   0  0  0  0  0  0  0  0  0  0  0  0
    8.6835   25.2823   16.0142 O   0  0  0  0  0  0  0  0  0  0  0  0
    8.6309   24.3474   15.9803 H   0  0  0  0  0  0  0  0  0  0  0  0
   12.7077   24.6853   20.2230 O   0  0  0  0  0  0  0  0  0  0  0  0
   13.7668   25.3417   19.6959 C   0  0  0  0  0  0  0  0  0  0  0  0
   14.1434   26.5571   20.3032 C   0  0  0  0  0  0  0  0  0  0  0  0
   15.2549   27.2686   19.8010 C   0  0  0  0  0  0  0  0  0  0  0  0
   15.9136   26.7525   18.6750 C   0  0  0  0  0  0  0  0  0  0  0  0
   15.5258   25.5617   18.0437 C   0  0  0  0  0  0  0  0  0  0  0  0
   14.4160   24.8363   18.5440 C   0  0  0  0  0  0  0  0  0  0  0  0
   16.1541   24.9931   16.9142 C   0  0  0  0  0  0  0  0  0  0  0  0
   15.8919   25.2195   15.6273 N   0  0  0  0  0  0  0  0  0  0  0  0
   17.3786   24.4193   17.0101 N   0  0  0  0  0  0  0  0  0  0  0  0
   17.9280   24.1682   15.7288 C   0  0  0  0  0  0  0  0  0  0  0  0
   16.7752   24.5291   14.7705 C   0  0  0  0  0  0  0  0  0  0  0  0
   15.1645   25.8024   15.3104 H   0  0  0  0  0  0  0  0  0  0  0  0
    8.5856   22.7155   20.6533 O   0  0  0  0  0  0  0  0  0  0  0  0
    9.0327   21.4748   21.0516 C   0  0  0  0  0  0  0  0  0  0  0  0
    8.7758   20.4974   20.0713 C   0  0  0  0  0  0  0  0  0  0  0  0
    9.0984   19.1592   20.2733 C   0  0  0  0  0  0  0  0  0  0  0  0
    9.7276   18.7706   21.4949 C   0  0  0  0  0  0  0  0  0  0  0  0
   10.0110   19.7515   22.4756 C   0  0  0  0  0  0  0  0  0  0  0  0
    9.6496   21.1063   22.2484 C   0  0  0  0  0  0  0  0  0  0  0  0
    9.9747   22.0089   23.2253 O   0  0  0  0  0  0  0  0  0  0  0  0
    9.7560   22.9137   23.1187 H   0  0  0  0  0  0  0  0  0  0  0  0
    8.8276   18.2033   19.2521 C   0  0  0  0  0  0  0  0  0  0  0  0
    8.1193   18.4137   18.1688 N   0  0  0  0  0  0  0  0  0  0  0  0
    9.2949   16.9589   19.3168 N   0  0  0  0  0  0  0  0  0  0  0  0
    7.7189   19.2984   18.0066 H   0  0  0  0  0  0  0  0  0  0  0  0
    9.8427   16.6781   20.0851 H   0  0  0  0  0  0  0  0  0  0  0  0
    9.0927   16.3191   18.5963 H   0  0  0  0  0  0  0  0  0  0  0  0
  1  2  2  0  0  0
  1  6  1  0  0  0
  2  3  1  0  0  0
  2  7  1  0  0  0
  3  4  2  0  0  0
  4  5  1  0  0  0
  4 11  1  0  0  0
  5  6  2  0  0  0
  6 24  1  0  0  0
 11 12  1  0  0  0
 24 25  1  0  0  0
  7  8  2  0  0  0
  7  9  1  0  0  0
 25 26  2  0  0  0
 25 30  1  0  0  0
 26 27  1  0  0  0
 27 28  2  0  0  0
 27 33  1  0  0  0
 28 29  1  0  0  0
 29 30  2  0  0  0
 30 31  1  0  0  0
 33 34  2  0  0  0
 33 35  1  0  0  0
 12 13  2  0  0  0
 12 17  1  0  0  0
 13 14  1  0  0  0
 14 15  2  0  0  0
 15 16  1  0  0  0
 16 17  2  0  0  0
 16 18  1  0  0  0
 18 19  1  0  0  0
 18 20  2  0  0  0
 19 22  1  0  0  0
 20 21  1  0  0  0
 21 22  2  0  0  0
  9 10  1  0  0  0
 34 36  1  0  0  0
 35 37  1  0  0  0
 35 38  1  0  0  0
 31 32  1  0  0  0
 19 23  1  0  0  0
M  END
> <minimizedAffinity>
-9.20017

$$$$
1QBN_688_A_300


 38 41  0  0  0  0  0  0  0  0999 V2000
    8.6687   24.6008   19.1053 C   0  0  0  0  0  0  0  0  0  0  0  0
    9.4216   25.4803   18.2643 C   0  0  0  0  0  0  0  0  0  0  0  0
   10.8184   25.5261   18.4913 C   0  0  0  0  0  0  0  0  0  0  0  0
   11.4008   24.5019   19.2941 C   0  0  0  0  0  0  0  0  0  0  0  0
   10.6778   23.6212   19.9962 N   0  0  0  0  0  0  0  0  0  0  0  0
    9.3331   23.5947   19.8135 C   0  0  0  0  0  0  0  0  0  0  0  0
    8.7793   26.4847   17.5813 C   0  0  0  0  0  0  0  0  0  0  0  0
    9.2268   27.6177   17.5145 O   0  0  0  0  0  0  0  0  0  0  0  0
    7.6128   26.2308   16.9741 O   0  0  0  0  0  0  0  0  0  0  0  0
    7.2445   25.3699   17.0083 H   0  0  0  0  0  0  0  0  0  0  0  0
   12.7455   24.3261   19.2890 O   0  0  0  0  0  0  0  0  0  0  0  0
   13.7383   25.2150   19.5227 C   0  0  0  0  0  0  0  0  0  0  0  0
   14.5853   25.5389   18.4430 C   0  0  0  0  0  0  0  0  0  0  0  0
   15.6236   26.4768   18.6328 C   0  0  0  0  0  0  0  0  0  0  0  0
   15.7990   27.0150   19.9164 C   0  0  0  0  0  0  0  0  0  0  0  0
   14.9827   26.6737   21.0045 C   0  0  0  0  0  0  0  0  0  0  0  0
   13.9333   25.7387   20.8232 C   0  0  0  0  0  0  0  0  0  0  0  0
   15.1087   27.1873   22.3138 C   0  0  0  0  0  0  0  0  0  0  0  0
   14.3756   26.8910   23.3867 N   0  0  0  0  0  0  0  0  0  0  0  0
   16.2581   27.7758   22.7264 N   0  0  0  0  0  0  0  0  0  0  0  0
   16.2617   27.9637   24.1304 C   0  0  0  0  0  0  0  0  0  0  0  0
   14.8387   27.5428   24.5492 C   0  0  0  0  0  0  0  0  0  0  0  0
   13.5991   26.2861   23.3699 H   0  0  0  0  0  0  0  0  0  0  0  0
    8.6557   22.7202   20.6124 O   0  0  0  0  0  0  0  0  0  0  0  0
    9.2132   21.5073   20.9525 C   0  0  0  0  0  0  0  0  0  0  0  0
    8.8462   20.4996   20.0403 C   0  0  0  0  0  0  0  0  0  0  0  0
    9.2539   19.1801   20.2080 C   0  0  0  0  0  0  0  0  0  0  0  0
   10.0852   18.8432   21.3192 C   0  0  0  0  0  0  0  0  0  0  0  0
   10.4783   19.8554   22.2275 C   0  0  0  0  0  0  0  0  0  0  0  0
   10.0275   21.1895   22.0410 C   0  0  0  0  0  0  0  0  0  0  0  0
   10.4645   22.1251   22.9400 O   0  0  0  0  0  0  0  0  0  0  0  0
   10.1929   23.0179   22.8564 H   0  0  0  0  0  0  0  0  0  0  0  0
    8.8658   18.1924   19.2572 C   0  0  0  0  0  0  0  0  0  0  0  0
    8.1082   18.3917   18.2057 N   0  0  0  0  0  0  0  0  0  0  0  0
    9.2602   16.9258   19.3634 N   0  0  0  0  0  0  0  0  0  0  0  0
    7.7529   19.2906   18.0182 H   0  0  0  0  0  0  0  0  0  0  0  0
    9.8348   16.6504   20.1138 H   0  0  0  0  0  0  0  0  0  0  0  0
    8.9774   16.2642   18.6914 H   0  0  0  0  0  0  0  0  0  0  0  0
  1  2  2  0  0  0
  1  6  1  0  0  0
  2  3  1  0  0  0
  2  7  1  0  0  0
  3  4  2  0  0  0
  4  5  1  0  0  0
  4 11  1  0  0  0
  5  6  2  0  0  0
  6 24  1  0  0  0
 11 12  1  0  0  0
 24 25  1  0  0  0
  7  8  2  0  0  0
  7  9  1  0  0  0
 25 26  2  0  0  0
 25 30  1  0  0  0
 26 27  1  0  0  0
 27 28  2  0  0  0
 27 33  1  0  0  0
 28 29  1  0  0  0
 29 30  2  0  0  0
 30 31  1  0  0  0
 33 34  2  0  0  0
 33 35  1  0  0  0
 12 13  2  0  0  0
 12 17  1  0  0  0
 13 14  1  0  0  0
 14 15  2  0  0  0
 15 16  1  0  0  0
 16 17  2  0  0  0
 16 18  1  0  0  0
 18 19  1  0  0  0
 18 20  2  0  0  0
 19 22  1  0  0  0
 20 21  1  0  0  0
 21 22  2  0  0  0
  9 10  1  0  0  0
 34 36  1  0  0  0
 35 37  1  0  0  0
 35 38  1  0  0  0
 31 32  1  0  0  0
 19 23  1  0  0  0
M  END
> <minimizedAffinity>
-8.58813

$$$$
1QBN_688_A_300


 38 41  0  0  0  0  0  0  0  0999 V2000
    9.5589   25.0473   20.9408 C   0  0  0  0  0  0  0  0  0  0  0  0
   10.4600   26.1552   20.8513 C   0  0  0  0  0  0  0  0  0  0  0  0
   11.7760   25.8631   20.4184 C   0  0  0  0  0  0  0  0  0  0  0  0
   12.0184   24.5911   19.8216 C   0  0  0  0  0  0  0  0  0  0  0  0
   11.1223   23.5970   19.8261 N   0  0  0  0  0  0  0  0  0  0  0  0
    9.8679   23.8574   20.2745 C   0  0  0  0  0  0  0  0  0  0  0  0
   10.1742   27.3210   21.5200 C   0  0  0  0  0  0  0  0  0  0  0  0
   10.9588   28.2539   21.5692 O   0  0  0  0  0  0  0  0  0  0  0  0
    9.0031   27.4479   22.1574 O   0  0  0  0  0  0  0  0  0  0  0  0
    8.3805   26.7479   22.1372 H   0  0  0  0  0  0  0  0  0  0  0  0
   13.1631   24.3819   19.1252 O   0  0  0  0  0  0  0  0  0  0  0  0
   13.5360   24.8425   17.9089 C   0  0  0  0  0  0  0  0  0  0  0  0
   12.5201   25.3297   17.0613 C   0  0  0  0  0  0  0  0  0  0  0  0
   12.8625   25.8394   15.7898 C   0  0  0  0  0  0  0  0  0  0  0  0
   14.2100   25.7928   15.4022 C   0  0  0  0  0  0  0  0  0  0  0  0
   15.2229   25.2794   16.2251 C   0  0  0  0  0  0  0  0  0  0  0  0
   14.8911   24.7718   17.5059 C   0  0  0  0  0  0  0  0  0  0  0  0
   16.5931   25.2133   15.8904 C   0  0  0  0  0  0  0  0  0  0  0  0
   17.3117   24.1351   15.5787 N   0  0  0  0  0  0  0  0  0  0  0  0
   17.2647   26.3143   15.4723 N   0  0  0  0  0  0  0  0  0  0  0  0
   18.5291   25.9693   14.9350 C   0  0  0  0  0  0  0  0  0  0  0  0
   18.6386   24.4588   15.2246 C   0  0  0  0  0  0  0  0  0  0  0  0
   16.9570   23.2168   15.5939 H   0  0  0  0  0  0  0  0  0  0  0  0
    9.0304   22.7808   20.3145 O   0  0  0  0  0  0  0  0  0  0  0  0
    9.4820   21.5592   20.7633 C   0  0  0  0  0  0  0  0  0  0  0  0
    9.0590   20.5141   19.9201 C   0  0  0  0  0  0  0  0  0  0  0  0
    9.3572   19.1844   20.2006 C   0  0  0  0  0  0  0  0  0  0  0  0
   10.1320   18.8732   21.3591 C   0  0  0  0  0  0  0  0  0  0  0  0
   10.5815   19.9206   22.1988 C   0  0  0  0  0  0  0  0  0  0  0  0
   10.2421   21.2665   21.8971 C   0  0  0  0  0  0  0  0  0  0  0  0
   10.7295   22.2336   22.7348 O   0  0  0  0  0  0  0  0  0  0  0  0
   10.5313   23.1353   22.5748 H   0  0  0  0  0  0  0  0  0  0  0  0
    8.9156   18.1578   19.3169 C   0  0  0  0  0  0  0  0  0  0  0  0
    9.3015   16.9048   19.3384 N   0  0  0  0  0  0  0  0  0  0  0  0
    8.0318   18.3980   18.3513 N   0  0  0  0  0  0  0  0  0  0  0  0
    9.9554   16.6026   20.0095 H   0  0  0  0  0  0  0  0  0  0  0  0
    7.6661   19.3044   18.2330 H   0  0  0  0  0  0  0  0  0  0  0  0
    7.7437   17.6693   17.7552 H   0  0  0  0  0  0  0  0  0  0  0  0
  1  2  2  0  0  0
  1  6  1  0  0  0
  2  3  1  0  0  0
  2  7  1  0  0  0
  3  4  2  0  0  0
  4  5  1  0  0  0
  4 11  1  0  0  0
  5  6  2  0  0  0
  6 24  1  0  0  0
 11 12  1  0  0  0
 24 25  1  0  0  0
  7  8  2  0  0  0
  7  9  1  0  0  0
 25 26  2  0  0  0
 25 30  1  0  0  0
 26 27  1  0  0  0
 27 28  2  0  0  0
 27 33  1  0  0  0
 28 29  1  0  0  0
 29 30  2  0  0  0
 30 31  1  0  0  0
 33 34  2  0  0  0
 33 35  1  0  0  0
 12 13  2  0  0  0
 12 17  1  0  0  0
 13 14  1  0  0  0
 14 15  2  0  0  0
 15 16  1  0  0  0
 16 17  2  0  0  0
 16 18  1  0  0  0
 18 19  1  0  0  0
 18 20  2  0  0  0
 19 22  1  0  0  0
 20 21  1  0  0  0
 21 22  2  0  0  0
  9 10  1  0  0  0
 34 36  1  0  0  0
 35 37  1  0  0  0
 35 38  1  0  0  0
 31 32  1  0  0  0
 19 23  1  0  0  0
M  END
> <minimizedAffinity>
-8.49066

$$$$
1QBN_688_A_300


 38 41  0  0  0  0  0  0  0  0999 V2000
    8.9486   24.5685   19.0604 C   0  0  0  0  0  0  0  0  0  0  0  0
    9.7989   25.4678   18.3421 C   0  0  0  0  0  0  0  0  0  0  0  0
   11.1311   25.5821   18.8079 C   0  0  0  0  0  0  0  0  0  0  0  0
   11.6071   24.5995   19.7248 C   0  0  0  0  0  0  0  0  0  0  0  0
   10.8105   23.6980   20.3115 N   0  0  0  0  0  0  0  0  0  0  0  0
    9.5210   23.6062   19.8979 C   0  0  0  0  0  0  0  0  0  0  0  0
    9.2439   26.4299   17.5332 C   0  0  0  0  0  0  0  0  0  0  0  0
    8.9955   26.2284   16.3559 O   0  0  0  0  0  0  0  0  0  0  0  0
    8.9734   27.6413   18.0362 O   0  0  0  0  0  0  0  0  0  0  0  0
    9.1534   27.8254   18.9371 H   0  0  0  0  0  0  0  0  0  0  0  0
   12.9381   24.4861   19.9584 O   0  0  0  0  0  0  0  0  0  0  0  0
   13.7808   25.3244   20.6046 C   0  0  0  0  0  0  0  0  0  0  0  0
   13.9038   25.1701   22.0007 C   0  0  0  0  0  0  0  0  0  0  0  0
   14.7862   26.0085   22.7163 C   0  0  0  0  0  0  0  0  0  0  0  0
   15.4735   27.0028   22.0042 C   0  0  0  0  0  0  0  0  0  0  0  0
   15.3324   27.1857   20.6209 C   0  0  0  0  0  0  0  0  0  0  0  0
   14.4546   26.3451   19.8920 C   0  0  0  0  0  0  0  0  0  0  0  0
   16.0020   28.1634   19.8531 C   0  0  0  0  0  0  0  0  0  0  0  0
   17.1514   28.7792   20.1285 N   0  0  0  0  0  0  0  0  0  0  0  0
   15.7352   28.3192   18.5331 N   0  0  0  0  0  0  0  0  0  0  0  0
   16.6999   29.1488   17.9103 C   0  0  0  0  0  0  0  0  0  0  0  0
   17.5578   29.6452   19.0914 C   0  0  0  0  0  0  0  0  0  0  0  0
   17.6592   28.6450   20.9612 H   0  0  0  0  0  0  0  0  0  0  0  0
    8.7521   22.7147   20.5877 O   0  0  0  0  0  0  0  0  0  0  0  0
    9.2598   21.4867   20.9507 C   0  0  0  0  0  0  0  0  0  0  0  0
    8.8973   20.4878   20.0271 C   0  0  0  0  0  0  0  0  0  0  0  0
    9.2588   19.1571   20.2122 C   0  0  0  0  0  0  0  0  0  0  0  0
   10.0373   18.7988   21.3545 C   0  0  0  0  0  0  0  0  0  0  0  0
   10.4261   19.8014   22.2752 C   0  0  0  0  0  0  0  0  0  0  0  0
   10.0229   21.1478   22.0695 C   0  0  0  0  0  0  0  0  0  0  0  0
   10.4536   22.0725   22.9828 O   0  0  0  0  0  0  0  0  0  0  0  0
   10.2122   22.9728   22.8874 H   0  0  0  0  0  0  0  0  0  0  0  0
    8.8772   18.1788   19.2493 C   0  0  0  0  0  0  0  0  0  0  0  0
    8.1313   18.3895   18.1917 N   0  0  0  0  0  0  0  0  0  0  0  0
    9.2664   16.9100   19.3488 N   0  0  0  0  0  0  0  0  0  0  0  0
    7.7809   19.2911   18.0081 H   0  0  0  0  0  0  0  0  0  0  0  0
    9.8323   16.6264   20.1028 H   0  0  0  0  0  0  0  0  0  0  0  0
    8.9883   16.2550   18.6684 H   0  0  0  0  0  0  0  0  0  0  0  0
  1  2  2  0  0  0
  1  6  1  0  0  0
  2  3  1  0  0  0
  2  7  1  0  0  0
  3  4  2  0  0  0
  4  5  1  0  0  0
  4 11  1  0  0  0
  5  6  2  0  0  0
  6 24  1  0  0  0
 11 12  1  0  0  0
 24 25  1  0  0  0
  7  8  2  0  0  0
  7  9  1  0  0  0
 25 26  2  0  0  0
 25 30  1  0  0  0
 26 27  1  0  0  0
 27 28  2  0  0  0
 27 33  1  0  0  0
 28 29  1  0  0  0
 29 30  2  0  0  0
 30 31  1  0  0  0
 33 34  2  0  0  0
 33 35  1  0  0  0
 12 13  2  0  0  0
 12 17  1  0  0  0
 13 14  1  0  0  0
 14 15  2  0  0  0
 15 16  1  0  0  0
 16 17  2  0  0  0
 16 18  1  0  0  0
 18 19  1  0  0  0
 18 20  2  0  0  0
 19 22  1  0  0  0
 20 21  1  0  0  0
 21 22  2  0  0  0
  9 10  1  0  0  0
 34 36  1  0  0  0
 35 37  1  0  0  0
 35 38  1  0  0  0
 31 32  1  0  0  0
 19 23  1  0  0  0
M  END
> <minimizedAffinity>
-8.48977

$$$$
1QBN_688_A_300


 38 41  0  0  0  0  0  0  0  0999 V2000
    7.8186   24.0962   18.3618 C   0  0  0  0  0  0  0  0  0  0  0  0
    8.5033   25.0108   17.5003 C   0  0  0  0  0  0  0  0  0  0  0  0
    9.7486   25.5000   17.9637 C   0  0  0  0  0  0  0  0  0  0  0  0
   10.3622   24.8345   19.0652 C   0  0  0  0  0  0  0  0  0  0  0  0
    9.7387   23.9051   19.7993 N   0  0  0  0  0  0  0  0  0  0  0  0
    8.5270   23.4565   19.3837 C   0  0  0  0  0  0  0  0  0  0  0  0
    7.8101   25.6594   16.5070 C   0  0  0  0  0  0  0  0  0  0  0  0
    6.5916   25.7173   16.4929 O   0  0  0  0  0  0  0  0  0  0  0  0
    8.4805   26.2415   15.5043 O   0  0  0  0  0  0  0  0  0  0  0  0
    9.4170   26.2134   15.4883 H   0  0  0  0  0  0  0  0  0  0  0  0
   11.6693   25.0624   19.3455 O   0  0  0  0  0  0  0  0  0  0  0  0
   12.2761   25.2886   20.5333 C   0  0  0  0  0  0  0  0  0  0  0  0
   13.6301   25.6811   20.5048 C   0  0  0  0  0  0  0  0  0  0  0  0
   14.3007   25.9480   21.7184 C   0  0  0  0  0  0  0  0  0  0  0  0
   13.5950   25.7611   22.9163 C   0  0  0  0  0  0  0  0  0  0  0  0
   12.2583   25.3388   22.9560 C   0  0  0  0  0  0  0  0  0  0  0  0
   11.5737   25.0749   21.7435 C   0  0  0  0  0  0  0  0  0  0  0  0
   11.4981   25.1404   24.1293 C   0  0  0  0  0  0  0  0  0  0  0  0
   11.1744   23.9871   24.7134 N   0  0  0  0  0  0  0  0  0  0  0  0
   11.3217   26.1419   25.0258 N   0  0  0  0  0  0  0  0  0  0  0  0
   10.7729   25.6539   26.2371 C   0  0  0  0  0  0  0  0  0  0  0  0
   10.4661   24.1767   25.9189 C   0  0  0  0  0  0  0  0  0  0  0  0
   11.4034   23.1031   24.3455 H   0  0  0  0  0  0  0  0  0  0  0  0
    7.9218   22.5619   20.2175 O   0  0  0  0  0  0  0  0  0  0  0  0
    8.6293   21.5003   20.7372 C   0  0  0  0  0  0  0  0  0  0  0  0
    8.5838   20.3842   19.8802 C   0  0  0  0  0  0  0  0  0  0  0  0
    9.1897   19.1786   20.2196 C   0  0  0  0  0  0  0  0  0  0  0  0
    9.8960   19.0775   21.4567 C   0  0  0  0  0  0  0  0  0  0  0  0
    9.9667   20.2027   22.3128 C   0  0  0  0  0  0  0  0  0  0  0  0
    9.3191   21.4132   21.9477 C   0  0  0  0  0  0  0  0  0  0  0  0
    9.4474   22.4710   22.8075 O   0  0  0  0  0  0  0  0  0  0  0  0
    9.0373   23.2894   22.6078 H   0  0  0  0  0  0  0  0  0  0  0  0
    9.1256   18.0756   19.3201 C   0  0  0  0  0  0  0  0  0  0  0  0
    9.8241   16.9693   19.4075 N   0  0  0  0  0  0  0  0  0  0  0  0
    8.3116   18.0777   18.2672 N   0  0  0  0  0  0  0  0  0  0  0  0
   10.4635   16.8479   20.1461 H   0  0  0  0  0  0  0  0  0  0  0  0
    7.7337   18.8556   18.0933 H   0  0  0  0  0  0  0  0  0  0  0  0
    8.2873   17.3014   17.6622 H   0  0  0  0  0  0  0  0  0  0  0  0
  1  2  2  0  0  0
  1  6  1  0  0  0
  2  3  1  0  0  0
  2  7  1  0  0  0
  3  4  2  0  0  0
  4  5  1  0  0  0
  4 11  1  0  0  0
  5  6  2  0  0  0
  6 24  1  0  0  0
 11 12  1  0  0  0
 24 25  1  0  0  0
  7  8  2  0  0  0
  7  9  1  0  0  0
 25 26  2  0  0  0
 25 30  1  0  0  0
 26 27  1  0  0  0
 27 28  2  0  0  0
 27 33  1  0  0  0
 28 29  1  0  0  0
 29 30  2  0  0  0
 30 31  1  0  0  0
 33 34  2  0  0  0
 33 35  1  0  0  0
 12 13  2  0  0  0
 12 17  1  0  0  0
 13 14  1  0  0  0
 14 15  2  0  0  0
 15 16  1  0  0  0
 16 17  2  0  0  0
 16 18  1  0  0  0
 18 19  1  0  0  0
 18 20  2  0  0  0
 19 22  1  0  0  0
 20 21  1  0  0  0
 21 22  2  0  0  0
  9 10  1  0  0  0
 34 36  1  0  0  0
 35 37  1  0  0  0
 35 38  1  0  0  0
 31 32  1  0  0  0
 19 23  1  0  0  0
M  END
> <minimizedAffinity>
-8.46498

$$$$
1QBN_688_A_300


 38 41  0  0  0  0  0  0  0  0999 V2000
   10.8559   24.0917   23.9960 C   0  0  0  0  0  0  0  0  0  0  0  0
   11.3903   25.4184   23.9562 C   0  0  0  0  0  0  0  0  0  0  0  0
   12.5294   25.6141   23.1384 C   0  0  0  0  0  0  0  0  0  0  0  0
   12.8645   24.5937   22.2007 C   0  0  0  0  0  0  0  0  0  0  0  0
   12.2804   23.3895   22.1884 N   0  0  0  0  0  0  0  0  0  0  0  0
   11.2104   23.1800   22.9968 C   0  0  0  0  0  0  0  0  0  0  0  0
   11.0637   26.3140   24.9457 C   0  0  0  0  0  0  0  0  0  0  0  0
   11.3473   26.1242   26.1170 O   0  0  0  0  0  0  0  0  0  0  0  0
   10.3978   27.4328   24.6317 O   0  0  0  0  0  0  0  0  0  0  0  0
   10.1662   27.6057   23.7404 H   0  0  0  0  0  0  0  0  0  0  0  0
   13.7427   24.8597   21.2021 O   0  0  0  0  0  0  0  0  0  0  0  0
   13.5250   25.0363   19.8785 C   0  0  0  0  0  0  0  0  0  0  0  0
   12.1955   25.2571   19.4643 C   0  0  0  0  0  0  0  0  0  0  0  0
   11.9210   25.4666   18.0952 C   0  0  0  0  0  0  0  0  0  0  0  0
   12.9907   25.3963   17.1903 C   0  0  0  0  0  0  0  0  0  0  0  0
   14.3114   25.1441   17.5890 C   0  0  0  0  0  0  0  0  0  0  0  0
   14.5989   24.9393   18.9614 C   0  0  0  0  0  0  0  0  0  0  0  0
   15.4258   25.0687   16.7251 C   0  0  0  0  0  0  0  0  0  0  0  0
   16.6095   24.5024   16.9585 N   0  0  0  0  0  0  0  0  0  0  0  0
   15.2866   25.2406   15.3876 N   0  0  0  0  0  0  0  0  0  0  0  0
   16.4615   24.8547   14.6968 C   0  0  0  0  0  0  0  0  0  0  0  0
   17.4590   24.5522   15.8330 C   0  0  0  0  0  0  0  0  0  0  0  0
   16.8624   24.0956   17.8185 H   0  0  0  0  0  0  0  0  0  0  0  0
   10.7111   21.9103   22.9817 O   0  0  0  0  0  0  0  0  0  0  0  0
    9.8994   21.4897   21.9512 C   0  0  0  0  0  0  0  0  0  0  0  0
   10.1498   20.1454   21.6163 C   0  0  0  0  0  0  0  0  0  0  0  0
    9.4801   19.5170   20.5711 C   0  0  0  0  0  0  0  0  0  0  0  0
    8.4971   20.2458   19.8350 C   0  0  0  0  0  0  0  0  0  0  0  0
    8.2224   21.5907   20.1814 C   0  0  0  0  0  0  0  0  0  0  0  0
    8.9387   22.2107   21.2398 C   0  0  0  0  0  0  0  0  0  0  0  0
    8.6073   23.5046   21.5408 O   0  0  0  0  0  0  0  0  0  0  0  0
    9.0533   23.9539   22.2316 H   0  0  0  0  0  0  0  0  0  0  0  0
    9.7587   18.1526   20.2698 C   0  0  0  0  0  0  0  0  0  0  0  0
    9.0641   17.3844   19.4656 N   0  0  0  0  0  0  0  0  0  0  0  0
   10.7976   17.5159   20.8051 N   0  0  0  0  0  0  0  0  0  0  0  0
    8.2694   17.7421   19.0077 H   0  0  0  0  0  0  0  0  0  0  0  0
   11.3968   17.9879   21.4275 H   0  0  0  0  0  0  0  0  0  0  0  0
   10.9669   16.5729   20.5786 H   0  0  0  0  0  0  0  0  0  0  0  0
  1  2  2  0  0  0
  1  6  1  0  0  0
  2  3  1  0  0  0
  2  7  1  0  0  0
  3  4  2  0  0  0
  4  5  1  0  0  0
  4 11  1  0  0  0
  5  6  2  0  0  0
  6 24  1  0  0  0
 11 12  1  0  0  0
 24 25  1  0  0  0
  7  8  2  0  0  0
  7  9  1  0  0  0
 25 26  2  0  0  0
 25 30  1  0  0  0
 26 27  1  0  0  0
 27 28  2  0  0  0
 27 33  1  0  0  0
 28 29  1  0  0  0
 29 30  2  0  0  0
 30 31  1  0  0  0
 33 34  2  0  0  0
 33 35  1  0  0  0
 12 13  2  0  0  0
 12 17  1  0  0  0
 13 14  1  0  0  0
 14 15  2  0  0  0
 15 16  1  0  0  0
 16 17  2  0  0  0
 16 18  1  0  0  0
 18 19  1  0  0  0
 18 20  2  0  0  0
 19 22  1  0  0  0
 20 21  1  0  0  0
 21 22  2  0  0  0
  9 10  1  0  0  0
 34 36  1  0  0  0
 35 37  1  0  0  0
 35 38  1  0  0  0
 31 32  1  0  0  0
 19 23  1  0  0  0
M  END
> <minimizedAffinity>
-8.35677

$$$$
1QBN_688_A_300


 38 41  0  0  0  0  0  0  0  0999 V2000
   11.3288   23.6797   21.4490 C   0  0  0  0  0  0  0  0  0  0  0  0
   12.4166   24.5992   21.3122 C   0  0  0  0  0  0  0  0  0  0  0  0
   12.6051   25.1649   20.0281 C   0  0  0  0  0  0  0  0  0  0  0  0
   11.5522   25.0318   19.0760 C   0  0  0  0  0  0  0  0  0  0  0  0
   10.4884   24.2421   19.2656 N   0  0  0  0  0  0  0  0  0  0  0  0
   10.3187   23.6647   20.4822 C   0  0  0  0  0  0  0  0  0  0  0  0
   13.4240   24.6059   22.2466 C   0  0  0  0  0  0  0  0  0  0  0  0
   13.7398   25.6133   22.8580 O   0  0  0  0  0  0  0  0  0  0  0  0
   14.1023   23.4784   22.4961 O   0  0  0  0  0  0  0  0  0  0  0  0
   13.8822   22.6890   22.0418 H   0  0  0  0  0  0  0  0  0  0  0  0
   11.5528   25.8027   17.9602 O   0  0  0  0  0  0  0  0  0  0  0  0
   12.1969   25.6267   16.7835 C   0  0  0  0  0  0  0  0  0  0  0  0
   11.4371   25.7581   15.6031 C   0  0  0  0  0  0  0  0  0  0  0  0
   12.0694   25.6030   14.3502 C   0  0  0  0  0  0  0  0  0  0  0  0
   13.4328   25.2727   14.3364 C   0  0  0  0  0  0  0  0  0  0  0  0
   14.1891   25.1069   15.5057 C   0  0  0  0  0  0  0  0  0  0  0  0
   13.5659   25.2672   16.7683 C   0  0  0  0  0  0  0  0  0  0  0  0
   15.5624   24.7815   15.5518 C   0  0  0  0  0  0  0  0  0  0  0  0
   16.4359   24.7599   14.5455 N   0  0  0  0  0  0  0  0  0  0  0  0
   16.2507   24.8175   16.7192 N   0  0  0  0  0  0  0  0  0  0  0  0
   17.6463   24.7281   16.4935 C   0  0  0  0  0  0  0  0  0  0  0  0
   17.7452   24.4611   14.9781 C   0  0  0  0  0  0  0  0  0  0  0  0
   16.1949   24.9328   13.6067 H   0  0  0  0  0  0  0  0  0  0  0  0
    9.2519   22.8196   20.5802 O   0  0  0  0  0  0  0  0  0  0  0  0
    9.4164   21.5372   21.0557 C   0  0  0  0  0  0  0  0  0  0  0  0
    9.2001   20.5826   20.0437 C   0  0  0  0  0  0  0  0  0  0  0  0
    9.2659   19.2173   20.3026 C   0  0  0  0  0  0  0  0  0  0  0  0
    9.5844   18.7725   21.6217 C   0  0  0  0  0  0  0  0  0  0  0  0
    9.8269   19.7264   22.6391 C   0  0  0  0  0  0  0  0  0  0  0  0
    9.7309   21.1135   22.3481 C   0  0  0  0  0  0  0  0  0  0  0  0
   10.0024   21.9836   23.3698 O   0  0  0  0  0  0  0  0  0  0  0  0
    9.9516   22.9078   23.2240 H   0  0  0  0  0  0  0  0  0  0  0  0
    9.0471   18.2848   19.2477 C   0  0  0  0  0  0  0  0  0  0  0  0
    8.1766   18.4125   18.2755 N   0  0  0  0  0  0  0  0  0  0  0  0
    9.7428   17.1538   19.1580 N   0  0  0  0  0  0  0  0  0  0  0  0
    7.6004   19.2097   18.2322 H   0  0  0  0  0  0  0  0  0  0  0  0
   10.4290   16.9433   19.8318 H   0  0  0  0  0  0  0  0  0  0  0  0
    9.5712   16.5277   18.4179 H   0  0  0  0  0  0  0  0  0  0  0  0
  1  2  2  0  0  0
  1  6  1  0  0  0
  2  3  1  0  0  0
  2  7  1  0  0  0
  3  4  2  0  0  0
  4  5  1  0  0  0
  4 11  1  0  0  0
  5  6  2  0  0  0
  6 24  1  0  0  0
 11 12  1  0  0  0
 24 25  1  0  0  0
  7  8  2  0  0  0
  7  9  1  0  0  0
 25 26  2  0  0  0
 25 30  1  0  0  0
 26 27  1  0  0  0
 27 28  2  0  0  0
 27 33  1  0  0  0
 28 29  1  0  0  0
 29 30  2  0  0  0
 30 31  1  0  0  0
 33 34  2  0  0  0
 33 35  1  0  0  0
 12 13  2  0  0  0
 12 17  1  0  0  0
 13 14  1  0  0  0
 14 15  2  0  0  0
 15 16  1  0  0  0
 16 17  2  0  0  0
 16 18  1  0  0  0
 18 19  1  0  0  0
 18 20  2  0  0  0
 19 22  1  0  0  0
 20 21  1  0  0  0
 21 22  2  0  0  0
  9 10  1  0  0  0
 34 36  1  0  0  0
 35 37  1  0  0  0
 35 38  1  0  0  0
 31 32  1  0  0  0
 19 23  1  0  0  0
M  END
> <minimizedAffinity>
-8.30067

$$$$
1QBN_688_A_300


 38 41  0  0  0  0  0  0  0  0999 V2000
    9.4771   25.1288   20.8141 C   0  0  0  0  0  0  0  0  0  0  0  0
   10.3739   26.2437   20.8085 C   0  0  0  0  0  0  0  0  0  0  0  0
   11.7271   25.9617   20.5019 C   0  0  0  0  0  0  0  0  0  0  0  0
   12.0346   24.6914   19.9322 C   0  0  0  0  0  0  0  0  0  0  0  0
   11.1497   23.6903   19.8536 N   0  0  0  0  0  0  0  0  0  0  0  0
    9.8567   23.9410   20.1815 C   0  0  0  0  0  0  0  0  0  0  0  0
   10.0174   27.4076   21.4459 C   0  0  0  0  0  0  0  0  0  0  0  0
   10.8261   28.2835   21.7051 O   0  0  0  0  0  0  0  0  0  0  0  0
    8.7438   27.5962   21.8149 O   0  0  0  0  0  0  0  0  0  0  0  0
    8.1003   26.9409   21.6292 H   0  0  0  0  0  0  0  0  0  0  0  0
   13.2414   24.4909   19.3470 O   0  0  0  0  0  0  0  0  0  0  0  0
   13.6671   24.8105   18.1032 C   0  0  0  0  0  0  0  0  0  0  0  0
   15.0565   24.7778   17.8656 C   0  0  0  0  0  0  0  0  0  0  0  0
   15.5475   25.0842   16.5777 C   0  0  0  0  0  0  0  0  0  0  0  0
   14.6227   25.4598   15.5919 C   0  0  0  0  0  0  0  0  0  0  0  0
   13.2419   25.5276   15.8279 C   0  0  0  0  0  0  0  0  0  0  0  0
   12.7379   25.2153   17.1150 C   0  0  0  0  0  0  0  0  0  0  0  0
   12.2666   25.8923   14.8742 C   0  0  0  0  0  0  0  0  0  0  0  0
   12.4496   26.2163   13.5944 N   0  0  0  0  0  0  0  0  0  0  0  0
   10.9593   25.5839   15.0579 N   0  0  0  0  0  0  0  0  0  0  0  0
   10.2125   25.7932   13.8726 C   0  0  0  0  0  0  0  0  0  0  0  0
   11.2320   26.4513   12.9213 C   0  0  0  0  0  0  0  0  0  0  0  0
   13.3340   26.2840   13.1672 H   0  0  0  0  0  0  0  0  0  0  0  0
    9.0276   22.8580   20.1437 O   0  0  0  0  0  0  0  0  0  0  0  0
    9.4376   21.6448   20.6514 C   0  0  0  0  0  0  0  0  0  0  0  0
    9.0428   20.5800   19.8192 C   0  0  0  0  0  0  0  0  0  0  0  0
    9.3066   19.2557   20.1542 C   0  0  0  0  0  0  0  0  0  0  0  0
   10.0166   18.9699   21.3598 C   0  0  0  0  0  0  0  0  0  0  0  0
   10.4380   20.0364   22.1899 C   0  0  0  0  0  0  0  0  0  0  0  0
   10.1344   21.3768   21.8310 C   0  0  0  0  0  0  0  0  0  0  0  0
   10.5926   22.3625   22.6635 O   0  0  0  0  0  0  0  0  0  0  0  0
   10.4162   23.2615   22.4667 H   0  0  0  0  0  0  0  0  0  0  0  0
    8.8955   18.2084   19.2800 C   0  0  0  0  0  0  0  0  0  0  0  0
    8.0732   18.3303   18.2659 N   0  0  0  0  0  0  0  0  0  0  0  0
    9.3346   16.9608   19.4277 N   0  0  0  0  0  0  0  0  0  0  0  0
    7.6800   19.2076   18.0537 H   0  0  0  0  0  0  0  0  0  0  0  0
    9.9595   16.7419   20.1563 H   0  0  0  0  0  0  0  0  0  0  0  0
    9.0344   16.2568   18.8085 H   0  0  0  0  0  0  0  0  0  0  0  0
  1  2  2  0  0  0
  1  6  1  0  0  0
  2  3  1  0  0  0
  2  7  1  0  0  0
  3  4  2  0  0  0
  4  5  1  0  0  0
  4 11  1  0  0  0
  5  6  2  0  0  0
  6 24  1  0  0  0
 11 12  1  0  0  0
 24 25  1  0  0  0
  7  8  2  0  0  0
  7  9  1  0  0  0
 25 26  2  0  0  0
 25 30  1  0  0  0
 26 27  1  0  0  0
 27 28  2  0  0  0
 27 33  1  0  0  0
 28 29  1  0  0  0
 29 30  2  0  0  0
 30 31  1  0  0  0
 33 34  2  0  0  0
 33 35  1  0  0  0
 12 13  2  0  0  0
 12 17  1  0  0  0
 13 14  1  0  0  0
 14 15  2  0  0  0
 15 16  1  0  0  0
 16 17  2  0  0  0
 16 18  1  0  0  0
 18 19  1  0  0  0
 18 20  2  0  0  0
 19 22  1  0  0  0
 20 21  1  0  0  0
 21 22  2  0  0  0
  9 10  1  0  0  0
 34 36  1  0  0  0
 35 37  1  0  0  0
 35 38  1  0  0  0
 31 32  1  0  0  0
 19 23  1  0  0  0
M  END
> <minimizedAffinity>
-8.24264

$$$$
1QBN_688_A_300


 38 41  0  0  0  0  0  0  0  0999 V2000
   15.1465   27.4198   21.0712 C   0  0  0  0  0  0  0  0  0  0  0  0
   15.5770   26.9157   22.3393 C   0  0  0  0  0  0  0  0  0  0  0  0
   14.7947   25.8792   22.9033 C   0  0  0  0  0  0  0  0  0  0  0  0
   13.8543   25.2155   22.0618 C   0  0  0  0  0  0  0  0  0  0  0  0
   13.5382   25.6457   20.8345 N   0  0  0  0  0  0  0  0  0  0  0  0
   14.2582   26.6644   20.2995 C   0  0  0  0  0  0  0  0  0  0  0  0
   16.4333   27.6613   23.1132 C   0  0  0  0  0  0  0  0  0  0  0  0
   16.1730   27.9662   24.2654 O   0  0  0  0  0  0  0  0  0  0  0  0
   17.5920   28.0879   22.5945 O   0  0  0  0  0  0  0  0  0  0  0  0
   17.8190   27.8693   21.7121 H   0  0  0  0  0  0  0  0  0  0  0  0
   13.3116   24.0374   22.4576 O   0  0  0  0  0  0  0  0  0  0  0  0
   12.0154   23.6982   22.6456 C   0  0  0  0  0  0  0  0  0  0  0  0
   11.2588   24.4950   23.5290 C   0  0  0  0  0  0  0  0  0  0  0  0
    9.8962   24.1924   23.7423 C   0  0  0  0  0  0  0  0  0  0  0  0
    9.3616   23.0685   23.0948 C   0  0  0  0  0  0  0  0  0  0  0  0
   10.1149   22.2504   22.2404 C   0  0  0  0  0  0  0  0  0  0  0  0
   11.4816   22.5493   22.0140 C   0  0  0  0  0  0  0  0  0  0  0  0
    9.6289   21.1133   21.5588 C   0  0  0  0  0  0  0  0  0  0  0  0
    9.1408   21.0439   20.3206 N   0  0  0  0  0  0  0  0  0  0  0  0
    9.9586   19.8620   21.9628 N   0  0  0  0  0  0  0  0  0  0  0  0
    9.5965   18.8979   20.9901 C   0  0  0  0  0  0  0  0  0  0  0  0
    8.8200   19.7225   19.9439 C   0  0  0  0  0  0  0  0  0  0  0  0
    9.0181   21.8258   19.7351 H   0  0  0  0  0  0  0  0  0  0  0  0
   13.8349   27.0945   19.0756 O   0  0  0  0  0  0  0  0  0  0  0  0
   14.0838   26.3460   17.9463 C   0  0  0  0  0  0  0  0  0  0  0  0
   15.4522   26.0377   17.8259 C   0  0  0  0  0  0  0  0  0  0  0  0
   15.9470   25.3277   16.7365 C   0  0  0  0  0  0  0  0  0  0  0  0
   15.0416   24.8795   15.7272 C   0  0  0  0  0  0  0  0  0  0  0  0
   13.6607   25.1648   15.8533 C   0  0  0  0  0  0  0  0  0  0  0  0
   13.1896   25.9105   16.9667 C   0  0  0  0  0  0  0  0  0  0  0  0
   11.8402   26.1301   17.0422 O   0  0  0  0  0  0  0  0  0  0  0  0
   11.4842   26.6171   17.7591 H   0  0  0  0  0  0  0  0  0  0  0  0
   17.3382   25.0308   16.6571 C   0  0  0  0  0  0  0  0  0  0  0  0
   17.8844   23.8506   16.8254 N   0  0  0  0  0  0  0  0  0  0  0  0
   18.2407   25.9723   16.3920 N   0  0  0  0  0  0  0  0  0  0  0  0
   17.3186   23.0707   17.0272 H   0  0  0  0  0  0  0  0  0  0  0  0
   17.9532   26.9024   16.2454 H   0  0  0  0  0  0  0  0  0  0  0  0
   19.1958   25.7387   16.3424 H   0  0  0  0  0  0  0  0  0  0  0  0
  1  2  2  0  0  0
  1  6  1  0  0  0
  2  3  1  0  0  0
  2  7  1  0  0  0
  3  4  2  0  0  0
  4  5  1  0  0  0
  4 11  1  0  0  0
  5  6  2  0  0  0
  6 24  1  0  0  0
 11 12  1  0  0  0
 24 25  1  0  0  0
  7  8  2  0  0  0
  7  9  1  0  0  0
 25 26  2  0  0  0
 25 30  1  0  0  0
 26 27  1  0  0  0
 27 28  2  0  0  0
 27 33  1  0  0  0
 28 29  1  0  0  0
 29 30  2  0  0  0
 30 31  1  0  0  0
 33 34  2  0  0  0
 33 35  1  0  0  0
 12 13  2  0  0  0
 12 17  1  0  0  0
 13 14  1  0  0  0
 14 15  2  0  0  0
 15 16  1  0  0  0
 16 17  2  0  0  0
 16 18  1  0  0  0
 18 19  1  0  0  0
 18 20  2  0  0  0
 19 22  1  0  0  0
 20 21  1  0  0  0
 21 22  2  0  0  0
  9 10  1  0  0  0
 34 36  1  0  0  0
 35 37  1  0  0  0
 35 38  1  0  0  0
 31 32  1  0  0  0
 19 23  1  0  0  0
M  END
> <minimizedAffinity>
-8.23606

$$$$
1QBN_688_A_300


 38 41  0  0  0  0  0  0  0  0999 V2000
    9.7744   24.1301   24.0277 C   0  0  0  0  0  0  0  0  0  0  0  0
   10.4649   25.3793   24.1285 C   0  0  0  0  0  0  0  0  0  0  0  0
   11.8405   25.3672   23.7934 C   0  0  0  0  0  0  0  0  0  0  0  0
   12.3520   24.2296   23.1026 C   0  0  0  0  0  0  0  0  0  0  0  0
   11.6521   23.1021   22.9289 N   0  0  0  0  0  0  0  0  0  0  0  0
   10.3416   23.0921   23.2820 C   0  0  0  0  0  0  0  0  0  0  0  0
    9.9247   26.3975   24.8764 C   0  0  0  0  0  0  0  0  0  0  0  0
   10.2898   26.6343   26.0162 O   0  0  0  0  0  0  0  0  0  0  0  0
    8.9522   27.1568   24.3554 O   0  0  0  0  0  0  0  0  0  0  0  0
    8.6511   26.9985   23.4823 H   0  0  0  0  0  0  0  0  0  0  0  0
   13.5642   24.2984   22.4984 O   0  0  0  0  0  0  0  0  0  0  0  0
   14.0764   25.2510   21.6855 C   0  0  0  0  0  0  0  0  0  0  0  0
   14.8679   26.2541   22.2815 C   0  0  0  0  0  0  0  0  0  0  0  0
   15.4409   27.2585   21.4713 C   0  0  0  0  0  0  0  0  0  0  0  0
   15.1533   27.2414   20.0983 C   0  0  0  0  0  0  0  0  0  0  0  0
   14.3400   26.2672   19.5016 C   0  0  0  0  0  0  0  0  0  0  0  0
   13.7656   25.2505   20.3046 C   0  0  0  0  0  0  0  0  0  0  0  0
   14.0223   26.1972   18.1275 C   0  0  0  0  0  0  0  0  0  0  0  0
   14.5534   26.8964   17.1248 N   0  0  0  0  0  0  0  0  0  0  0  0
   13.3880   25.1164   17.6106 N   0  0  0  0  0  0  0  0  0  0  0  0
   13.4176   25.1341   16.1945 C   0  0  0  0  0  0  0  0  0  0  0  0
   14.0426   26.5056   15.8690 C   0  0  0  0  0  0  0  0  0  0  0  0
   15.2258   27.6051   17.2466 H   0  0  0  0  0  0  0  0  0  0  0  0
    9.7114   21.8900   23.1410 O   0  0  0  0  0  0  0  0  0  0  0  0
    9.2990   21.4575   21.8998 C   0  0  0  0  0  0  0  0  0  0  0  0
    9.6589   20.1145   21.6784 C   0  0  0  0  0  0  0  0  0  0  0  0
    9.3868   19.4757   20.4728 C   0  0  0  0  0  0  0  0  0  0  0  0
    8.7043   20.1918   19.4429 C   0  0  0  0  0  0  0  0  0  0  0  0
    8.3177   21.5351   19.6669 C   0  0  0  0  0  0  0  0  0  0  0  0
    8.6292   22.1662   20.9008 C   0  0  0  0  0  0  0  0  0  0  0  0
    8.2049   23.4578   21.0633 O   0  0  0  0  0  0  0  0  0  0  0  0
    8.3877   23.9141   21.8610 H   0  0  0  0  0  0  0  0  0  0  0  0
    9.7621   18.1130   20.2927 C   0  0  0  0  0  0  0  0  0  0  0  0
    9.1720   17.2501   19.5011 N   0  0  0  0  0  0  0  0  0  0  0  0
   10.7927   17.5791   20.9438 N   0  0  0  0  0  0  0  0  0  0  0  0
    8.3943   17.5264   18.9644 H   0  0  0  0  0  0  0  0  0  0  0  0
   11.3176   18.1286   21.5698 H   0  0  0  0  0  0  0  0  0  0  0  0
   11.0302   16.6347   20.7996 H   0  0  0  0  0  0  0  0  0  0  0  0
  1  2  2  0  0  0
  1  6  1  0  0  0
  2  3  1  0  0  0
  2  7  1  0  0  0
  3  4  2  0  0  0
  4  5  1  0  0  0
  4 11  1  0  0  0
  5  6  2  0  0  0
  6 24  1  0  0  0
 11 12  1  0  0  0
 24 25  1  0  0  0
  7  8  2  0  0  0
  7  9  1  0  0  0
 25 26  2  0  0  0
 25 30  1  0  0  0
 26 27  1  0  0  0
 27 28  2  0  0  0
 27 33  1  0  0  0
 28 29  1  0  0  0
 29 30  2  0  0  0
 30 31  1  0  0  0
 33 34  2  0  0  0
 33 35  1  0  0  0
 12 13  2  0  0  0
 12 17  1  0  0  0
 13 14  1  0  0  0
 14 15  2  0  0  0
 15 16  1  0  0  0
 16 17  2  0  0  0
 16 18  1  0  0  0
 18 19  1  0  0  0
 18 20  2  0  0  0
 19 22  1  0  0  0
 20 21  1  0  0  0
 21 22  2  0  0  0
  9 10  1  0  0  0
 34 36  1  0  0  0
 35 37  1  0  0  0
 35 38  1  0  0  0
 31 32  1  0  0  0
 19 23  1  0  0  0
M  END
> <minimizedAffinity>
-8.06501

$$$$
