4FM8_0UQ_A_501


 32 35  0  0  0  0  0  0  0  0999 V2000
   22.1487   34.7381   42.6065 C   0  0  0  0  0  0  0  0  0  0  0  0
   23.1617   34.9560   41.4943 C   0  0  0  0  0  0  0  0  0  0  0  0
   23.0233   36.3037   40.8467 N   0  0  0  0  0  0  0  0  0  0  0  0
   22.8723   37.4778   41.7908 C   0  0  0  0  0  0  0  0  0  0  0  0
   21.8136   37.2310   42.8567 C   0  0  0  0  0  0  0  0  0  0  0  0
   21.9763   35.8996   43.5790 C   0  0  0  0  0  0  0  0  0  0  0  0
   22.5361   38.7357   41.0368 C   0  0  0  0  0  0  0  0  0  0  0  0
   22.9791   36.0018   44.6845 N   0  0  0  0  0  0  0  0  0  0  0  0
   20.6738   35.6762   44.3319 C   0  0  0  0  0  0  0  0  0  0  0  0
   22.5501   35.0833   46.0592 S   0  0  0  0  0  0  0  0  0  0  0  0
   20.9741   34.7977   45.4805 N   0  0  0  0  0  0  0  0  0  0  0  0
   22.5616   36.0590   47.1351 O   0  0  0  0  0  0  0  0  0  0  0  0
   19.8872   34.8108   46.4812 C   0  0  0  0  0  0  0  0  0  0  0  0
   23.2695   33.8363   46.1679 O   0  0  0  0  0  0  0  0  0  0  0  0
   24.3969   36.2620   44.6055 C   0  0  0  0  0  0  0  0  0  0  0  0
   25.4251   35.3702   44.3599 C   0  0  0  0  0  0  0  0  0  0  0  0
   26.7359   35.8204   44.3541 C   0  0  0  0  0  0  0  0  0  0  0  0
   27.0230   37.1538   44.6180 C   0  0  0  0  0  0  0  0  0  0  0  0
   25.9823   38.0268   44.8684 C   0  0  0  0  0  0  0  0  0  0  0  0
   24.6822   37.5854   44.8637 C   0  0  0  0  0  0  0  0  0  0  0  0
   26.1634   39.3274   45.1261 F   0  0  0  0  0  0  0  0  0  0  0  0
   24.0527   36.5060   39.7609 C   0  0  0  0  0  0  0  0  0  0  0  0
   25.4759   36.6157   40.2072 C   0  0  0  0  0  0  0  0  0  0  0  0
   26.2515   35.4792   40.2583 C   0  0  0  0  0  0  0  0  0  0  0  0
   27.5705   35.5459   40.6674 C   0  0  0  0  0  0  0  0  0  0  0  0
   28.1272   36.7618   41.0222 C   0  0  0  0  0  0  0  0  0  0  0  0
   27.3585   37.9060   40.9569 C   0  0  0  0  0  0  0  0  0  0  0  0
   26.0473   37.8302   40.5438 C   0  0  0  0  0  0  0  0  0  0  0  0
   28.4109   34.4299   40.7524 O   0  0  0  0  0  0  0  0  0  0  0  0
   28.3149   33.4978   39.6860 C   0  0  0  0  0  0  0  0  0  0  0  0
   28.6671   34.1416   38.3506 C   0  0  0  0  0  0  0  0  0  0  0  0
   29.3245   32.4019   40.0104 C   0  0  0  0  0  0  0  0  0  0  0  0
 31 30  1  0  0  0
 22 23  1  0  0  0
 22  3  1  0  0  0
 30 32  1  0  0  0
 30 29  1  0  0  0
 23 24  2  0  0  0
 23 28  1  0  0  0
 24 25  1  0  0  0
 28 27  2  0  0  0
 25 29  1  0  0  0
 25 26  2  0  0  0
  3  2  1  0  0  0
  3  4  1  0  0  0
  7  4  1  0  0  0
 27 26  1  0  0  0
  2  1  1  0  0  0
  4  5  1  0  0  0
  1  6  1  0  0  0
  5  6  1  0  0  0
  6  9  1  0  0  0
  6  8  1  0  0  0
  9 11  1  0  0  0
 16 17  2  0  0  0
 16 15  1  0  0  0
 17 18  1  0  0  0
 15  8  1  0  0  0
 15 20  2  0  0  0
  8 10  1  0  0  0
 18 19  2  0  0  0
 20 19  1  0  0  0
 19 21  1  0  0  0
 11 10  1  0  0  0
 11 13  1  0  0  0
 10 14  2  0  0  0
 10 12  2  0  0  0
M  END
> <minimizedAffinity>
-9.61430

$$$$
4FM8_0UQ_A_501


 32 35  0  0  0  0  0  0  0  0999 V2000
   22.0775   35.3572   40.2511 C   0  0  0  0  0  0  0  0  0  0  0  0
   23.4797   35.8058   39.8724 C   0  0  0  0  0  0  0  0  0  0  0  0
   23.6474   37.2959   39.9509 N   0  0  0  0  0  0  0  0  0  0  0  0
   23.0966   37.9578   41.1964 C   0  0  0  0  0  0  0  0  0  0  0  0
   21.6739   37.5134   41.5071 C   0  0  0  0  0  0  0  0  0  0  0  0
   21.4949   36.0006   41.5046 C   0  0  0  0  0  0  0  0  0  0  0  0
   23.1340   39.4567   41.0713 C   0  0  0  0  0  0  0  0  0  0  0  0
   21.9029   35.4044   42.8147 N   0  0  0  0  0  0  0  0  0  0  0  0
   19.9928   35.7624   41.4850 C   0  0  0  0  0  0  0  0  0  0  0  0
   20.9052   34.1032   43.2933 S   0  0  0  0  0  0  0  0  0  0  0  0
   19.7492   34.4364   42.0880 N   0  0  0  0  0  0  0  0  0  0  0  0
   20.4409   34.4997   44.6111 O   0  0  0  0  0  0  0  0  0  0  0  0
   18.3310   34.2543   42.4603 C   0  0  0  0  0  0  0  0  0  0  0  0
   21.4977   32.8067   43.0639 O   0  0  0  0  0  0  0  0  0  0  0  0
   23.2092   35.3631   43.4279 C   0  0  0  0  0  0  0  0  0  0  0  0
   24.2546   34.4942   43.1728 C   0  0  0  0  0  0  0  0  0  0  0  0
   25.4299   34.6043   43.8990 C   0  0  0  0  0  0  0  0  0  0  0  0
   25.5534   35.5636   44.8964 C   0  0  0  0  0  0  0  0  0  0  0  0
   24.4949   36.4166   45.1408 C   0  0  0  0  0  0  0  0  0  0  0  0
   23.3336   36.3167   44.4150 C   0  0  0  0  0  0  0  0  0  0  0  0
   24.5262   37.3732   46.0760 F   0  0  0  0  0  0  0  0  0  0  0  0
   25.0525   37.7159   39.5920 C   0  0  0  0  0  0  0  0  0  0  0  0
   26.1585   37.0435   40.3412 C   0  0  0  0  0  0  0  0  0  0  0  0
   26.4402   35.7221   40.0768 C   0  0  0  0  0  0  0  0  0  0  0  0
   27.4555   35.0707   40.7525 C   0  0  0  0  0  0  0  0  0  0  0  0
   28.2059   35.7467   41.6981 C   0  0  0  0  0  0  0  0  0  0  0  0
   27.9379   37.0759   41.9548 C   0  0  0  0  0  0  0  0  0  0  0  0
   26.9279   37.7172   41.2734 C   0  0  0  0  0  0  0  0  0  0  0  0
   27.7876   33.7277   40.5407 O   0  0  0  0  0  0  0  0  0  0  0  0
   28.8521   33.4871   39.6330 C   0  0  0  0  0  0  0  0  0  0  0  0
   29.0248   31.9979   39.3598 C   0  0  0  0  0  0  0  0  0  0  0  0
   28.4599   34.2037   38.3454 C   0  0  0  0  0  0  0  0  0  0  0  0
 31 30  1  0  0  0
 22 23  1  0  0  0
 22  3  1  0  0  0
 30 32  1  0  0  0
 30 29  1  0  0  0
 23 24  2  0  0  0
 23 28  1  0  0  0
 24 25  1  0  0  0
 28 27  2  0  0  0
 25 29  1  0  0  0
 25 26  2  0  0  0
  3  2  1  0  0  0
  3  4  1  0  0  0
  7  4  1  0  0  0
 27 26  1  0  0  0
  2  1  1  0  0  0
  4  5  1  0  0  0
  1  6  1  0  0  0
  5  6  1  0  0  0
  6  9  1  0  0  0
  6  8  1  0  0  0
  9 11  1  0  0  0
 16 17  2  0  0  0
 16 15  1  0  0  0
 17 18  1  0  0  0
 15  8  1  0  0  0
 15 20  2  0  0  0
  8 10  1  0  0  0
 18 19  2  0  0  0
 20 19  1  0  0  0
 19 21  1  0  0  0
 11 10  1  0  0  0
 11 13  1  0  0  0
 10 14  2  0  0  0
 10 12  2  0  0  0
M  END
> <minimizedAffinity>
-8.43925

$$$$
4FM8_0UQ_A_501


 32 35  0  0  0  0  0  0  0  0999 V2000
   21.7077   35.1691   46.9826 C   0  0  0  0  0  0  0  0  0  0  0  0
   21.3432   36.1643   45.8930 C   0  0  0  0  0  0  0  0  0  0  0  0
   21.7221   35.6810   44.5227 N   0  0  0  0  0  0  0  0  0  0  0  0
   21.3567   34.2466   44.2039 C   0  0  0  0  0  0  0  0  0  0  0  0
   21.7846   33.2826   45.3019 C   0  0  0  0  0  0  0  0  0  0  0  0
   21.3480   33.7154   46.6957 C   0  0  0  0  0  0  0  0  0  0  0  0
   21.9636   33.8139   42.8969 C   0  0  0  0  0  0  0  0  0  0  0  0
   19.9352   33.3082   46.9719 N   0  0  0  0  0  0  0  0  0  0  0  0
   22.1386   32.8490   47.6639 C   0  0  0  0  0  0  0  0  0  0  0  0
   19.6891   32.8133   48.5881 S   0  0  0  0  0  0  0  0  0  0  0  0
   21.3595   32.7638   48.9157 N   0  0  0  0  0  0  0  0  0  0  0  0
   19.1259   31.4815   48.4523 O   0  0  0  0  0  0  0  0  0  0  0  0
   21.8333   31.6664   49.7842 C   0  0  0  0  0  0  0  0  0  0  0  0
   19.0547   33.8174   49.4091 O   0  0  0  0  0  0  0  0  0  0  0  0
   18.7194   33.7488   46.3302 C   0  0  0  0  0  0  0  0  0  0  0  0
   17.8782   34.7843   46.6947 C   0  0  0  0  0  0  0  0  0  0  0  0
   16.7324   35.0292   45.9545 C   0  0  0  0  0  0  0  0  0  0  0  0
   16.4123   34.2262   44.8669 C   0  0  0  0  0  0  0  0  0  0  0  0
   17.2616   33.1924   44.5240 C   0  0  0  0  0  0  0  0  0  0  0  0
   18.4031   32.9547   45.2491 C   0  0  0  0  0  0  0  0  0  0  0  0
   17.0375   32.3727   43.4902 F   0  0  0  0  0  0  0  0  0  0  0  0
   21.3312   36.6752   43.4558 C   0  0  0  0  0  0  0  0  0  0  0  0
   22.4535   37.3480   42.7318 C   0  0  0  0  0  0  0  0  0  0  0  0
   23.7482   37.1146   43.1378 C   0  0  0  0  0  0  0  0  0  0  0  0
   24.8085   37.7217   42.4905 C   0  0  0  0  0  0  0  0  0  0  0  0
   24.5769   38.5658   41.4191 C   0  0  0  0  0  0  0  0  0  0  0  0
   23.2819   38.7900   40.9981 C   0  0  0  0  0  0  0  0  0  0  0  0
   22.2329   38.1771   41.6460 C   0  0  0  0  0  0  0  0  0  0  0  0
   26.1464   37.5369   42.8575 O   0  0  0  0  0  0  0  0  0  0  0  0
   26.3808   37.2549   44.2288 C   0  0  0  0  0  0  0  0  0  0  0  0
   27.6791   36.4812   44.4239 C   0  0  0  0  0  0  0  0  0  0  0  0
   26.4847   38.6140   44.9126 C   0  0  0  0  0  0  0  0  0  0  0  0
 31 30  1  0  0  0
 22 23  1  0  0  0
 22  3  1  0  0  0
 30 32  1  0  0  0
 30 29  1  0  0  0
 23 24  2  0  0  0
 23 28  1  0  0  0
 24 25  1  0  0  0
 28 27  2  0  0  0
 25 29  1  0  0  0
 25 26  2  0  0  0
  3  2  1  0  0  0
  3  4  1  0  0  0
  7  4  1  0  0  0
 27 26  1  0  0  0
  2  1  1  0  0  0
  4  5  1  0  0  0
  1  6  1  0  0  0
  5  6  1  0  0  0
  6  9  1  0  0  0
  6  8  1  0  0  0
  9 11  1  0  0  0
 16 17  2  0  0  0
 16 15  1  0  0  0
 17 18  1  0  0  0
 15  8  1  0  0  0
 15 20  2  0  0  0
  8 10  1  0  0  0
 18 19  2  0  0  0
 20 19  1  0  0  0
 19 21  1  0  0  0
 11 10  1  0  0  0
 11 13  1  0  0  0
 10 14  2  0  0  0
 10 12  2  0  0  0
M  END
> <minimizedAffinity>
-8.26356

$$$$
4FM8_0UQ_A_501


 32 35  0  0  0  0  0  0  0  0999 V2000
   25.6322   33.9199   44.4684 C   0  0  0  0  0  0  0  0  0  0  0  0
   24.2296   34.5043   44.5101 C   0  0  0  0  0  0  0  0  0  0  0  0
   24.1962   35.8758   45.1206 N   0  0  0  0  0  0  0  0  0  0  0  0
   25.2588   36.8401   44.6370 C   0  0  0  0  0  0  0  0  0  0  0  0
   26.6514   36.2252   44.6589 C   0  0  0  0  0  0  0  0  0  0  0  0
   26.7259   34.8634   43.9802 C   0  0  0  0  0  0  0  0  0  0  0  0
   25.2577   38.0998   45.4597 C   0  0  0  0  0  0  0  0  0  0  0  0
   26.8768   35.0038   42.4984 N   0  0  0  0  0  0  0  0  0  0  0  0
   28.0625   34.2677   44.3950 C   0  0  0  0  0  0  0  0  0  0  0  0
   27.9072   33.8228   41.8195 S   0  0  0  0  0  0  0  0  0  0  0  0
   28.4621   33.3088   43.3452 N   0  0  0  0  0  0  0  0  0  0  0  0
   28.9071   34.6089   41.1181 O   0  0  0  0  0  0  0  0  0  0  0  0
   29.8918   32.9492   43.4449 C   0  0  0  0  0  0  0  0  0  0  0  0
   27.2004   32.7482   41.1637 O   0  0  0  0  0  0  0  0  0  0  0  0
   25.9524   35.5586   41.5384 C   0  0  0  0  0  0  0  0  0  0  0  0
   24.7675   35.0197   41.0710 C   0  0  0  0  0  0  0  0  0  0  0  0
   24.0320   35.7054   40.1173 C   0  0  0  0  0  0  0  0  0  0  0  0
   24.4904   36.9154   39.6113 C   0  0  0  0  0  0  0  0  0  0  0  0
   25.6799   37.4328   40.0857 C   0  0  0  0  0  0  0  0  0  0  0  0
   26.4048   36.7607   41.0386 C   0  0  0  0  0  0  0  0  0  0  0  0
   26.1949   38.5927   39.6614 F   0  0  0  0  0  0  0  0  0  0  0  0
   22.7977   36.4445   45.1315 C   0  0  0  0  0  0  0  0  0  0  0  0
   22.1038   36.5265   43.8092 C   0  0  0  0  0  0  0  0  0  0  0  0
   21.1969   35.5488   43.4667 C   0  0  0  0  0  0  0  0  0  0  0  0
   20.5390   35.5945   42.2514 C   0  0  0  0  0  0  0  0  0  0  0  0
   20.7810   36.6324   41.3692 C   0  0  0  0  0  0  0  0  0  0  0  0
   21.6769   37.6234   41.7150 C   0  0  0  0  0  0  0  0  0  0  0  0
   22.3237   37.5717   42.9294 C   0  0  0  0  0  0  0  0  0  0  0  0
   19.6143   34.6295   41.8362 O   0  0  0  0  0  0  0  0  0  0  0  0
   18.8107   34.0594   42.8581 C   0  0  0  0  0  0  0  0  0  0  0  0
   17.3986   34.6318   42.8404 C   0  0  0  0  0  0  0  0  0  0  0  0
   18.7637   32.5657   42.5541 C   0  0  0  0  0  0  0  0  0  0  0  0
 31 30  1  0  0  0
 22 23  1  0  0  0
 22  3  1  0  0  0
 30 32  1  0  0  0
 30 29  1  0  0  0
 23 24  2  0  0  0
 23 28  1  0  0  0
 24 25  1  0  0  0
 28 27  2  0  0  0
 25 29  1  0  0  0
 25 26  2  0  0  0
  3  2  1  0  0  0
  3  4  1  0  0  0
  7  4  1  0  0  0
 27 26  1  0  0  0
  2  1  1  0  0  0
  4  5  1  0  0  0
  1  6  1  0  0  0
  5  6  1  0  0  0
  6  9  1  0  0  0
  6  8  1  0  0  0
  9 11  1  0  0  0
 16 17  2  0  0  0
 16 15  1  0  0  0
 17 18  1  0  0  0
 15  8  1  0  0  0
 15 20  2  0  0  0
  8 10  1  0  0  0
 18 19  2  0  0  0
 20 19  1  0  0  0
 19 21  1  0  0  0
 11 10  1  0  0  0
 11 13  1  0  0  0
 10 14  2  0  0  0
 10 12  2  0  0  0
M  END
> <minimizedAffinity>
-8.20173

$$$$
4FM8_0UQ_A_501


 32 35  0  0  0  0  0  0  0  0999 V2000
   21.6523   34.0958   45.1086 C   0  0  0  0  0  0  0  0  0  0  0  0
   23.0169   34.6763   45.4426 C   0  0  0  0  0  0  0  0  0  0  0  0
   24.1432   33.8575   44.8807 N   0  0  0  0  0  0  0  0  0  0  0  0
   23.9876   33.4216   43.4390 C   0  0  0  0  0  0  0  0  0  0  0  0
   22.6235   32.8034   43.1653 C   0  0  0  0  0  0  0  0  0  0  0  0
   21.4601   33.6519   43.6626 C   0  0  0  0  0  0  0  0  0  0  0  0
   25.0640   32.4440   43.0526 C   0  0  0  0  0  0  0  0  0  0  0  0
   21.1073   34.7195   42.6757 N   0  0  0  0  0  0  0  0  0  0  0  0
   20.2398   32.7450   43.6210 C   0  0  0  0  0  0  0  0  0  0  0  0
   19.4259   35.0027   42.5743 S   0  0  0  0  0  0  0  0  0  0  0  0
   19.0518   33.6112   43.4820 N   0  0  0  0  0  0  0  0  0  0  0  0
   19.1365   34.8204   41.1627 O   0  0  0  0  0  0  0  0  0  0  0  0
   17.8597   32.8457   43.0623 C   0  0  0  0  0  0  0  0  0  0  0  0
   18.9957   36.1846   43.2831 O   0  0  0  0  0  0  0  0  0  0  0  0
   21.8925   35.8490   42.2378 C   0  0  0  0  0  0  0  0  0  0  0  0
   22.0552   37.0769   42.8532 C   0  0  0  0  0  0  0  0  0  0  0  0
   22.8368   38.0483   42.2482 C   0  0  0  0  0  0  0  0  0  0  0  0
   23.4351   37.8047   41.0182 C   0  0  0  0  0  0  0  0  0  0  0  0
   23.2539   36.5746   40.4166 C   0  0  0  0  0  0  0  0  0  0  0  0
   22.4891   35.6067   41.0193 C   0  0  0  0  0  0  0  0  0  0  0  0
   23.7958   36.2495   39.2370 F   0  0  0  0  0  0  0  0  0  0  0  0
   25.4867   34.4645   45.2063 C   0  0  0  0  0  0  0  0  0  0  0  0
   25.6874   35.8898   44.8004 C   0  0  0  0  0  0  0  0  0  0  0  0
   26.4698   36.1700   43.7026 C   0  0  0  0  0  0  0  0  0  0  0  0
   26.6763   37.4770   43.3014 C   0  0  0  0  0  0  0  0  0  0  0  0
   26.0888   38.5184   43.9975 C   0  0  0  0  0  0  0  0  0  0  0  0
   25.2906   38.2416   45.0887 C   0  0  0  0  0  0  0  0  0  0  0  0
   25.0870   36.9366   45.4777 C   0  0  0  0  0  0  0  0  0  0  0  0
   27.4672   37.8326   42.2029 O   0  0  0  0  0  0  0  0  0  0  0  0
   27.1472   37.1957   40.9753 C   0  0  0  0  0  0  0  0  0  0  0  0
   26.8750   38.2136   39.8745 C   0  0  0  0  0  0  0  0  0  0  0  0
   28.3742   36.3649   40.6151 C   0  0  0  0  0  0  0  0  0  0  0  0
 31 30  1  0  0  0
 22 23  1  0  0  0
 22  3  1  0  0  0
 30 32  1  0  0  0
 30 29  1  0  0  0
 23 24  2  0  0  0
 23 28  1  0  0  0
 24 25  1  0  0  0
 28 27  2  0  0  0
 25 29  1  0  0  0
 25 26  2  0  0  0
  3  2  1  0  0  0
  3  4  1  0  0  0
  7  4  1  0  0  0
 27 26  1  0  0  0
  2  1  1  0  0  0
  4  5  1  0  0  0
  1  6  1  0  0  0
  5  6  1  0  0  0
  6  9  1  0  0  0
  6  8  1  0  0  0
  9 11  1  0  0  0
 16 17  2  0  0  0
 16 15  1  0  0  0
 17 18  1  0  0  0
 15  8  1  0  0  0
 15 20  2  0  0  0
  8 10  1  0  0  0
 18 19  2  0  0  0
 20 19  1  0  0  0
 19 21  1  0  0  0
 11 10  1  0  0  0
 11 13  1  0  0  0
 10 14  2  0  0  0
 10 12  2  0  0  0
M  END
> <minimizedAffinity>
-8.20150

$$$$
4FM8_0UQ_A_501


 32 35  0  0  0  0  0  0  0  0999 V2000
   23.7653   36.8415   40.9870 C   0  0  0  0  0  0  0  0  0  0  0  0
   25.1905   36.6494   40.4945 C   0  0  0  0  0  0  0  0  0  0  0  0
   26.1970   37.3535   41.3583 N   0  0  0  0  0  0  0  0  0  0  0  0
   26.0247   37.1758   42.8521 C   0  0  0  0  0  0  0  0  0  0  0  0
   24.5922   37.4253   43.3033 C   0  0  0  0  0  0  0  0  0  0  0  0
   23.5558   36.6638   42.4868 C   0  0  0  0  0  0  0  0  0  0  0  0
   26.9519   38.0840   43.6131 C   0  0  0  0  0  0  0  0  0  0  0  0
   23.4026   35.2596   42.9798 N   0  0  0  0  0  0  0  0  0  0  0  0
   22.2137   37.2872   42.8381 C   0  0  0  0  0  0  0  0  0  0  0  0
   21.7882   34.7050   42.9180 S   0  0  0  0  0  0  0  0  0  0  0  0
   21.1767   36.2626   42.6018 N   0  0  0  0  0  0  0  0  0  0  0  0
   21.5215   34.2872   44.2832 O   0  0  0  0  0  0  0  0  0  0  0  0
   19.8966   36.6169   43.2489 C   0  0  0  0  0  0  0  0  0  0  0  0
   21.5199   33.8329   41.7991 O   0  0  0  0  0  0  0  0  0  0  0  0
   24.3648   34.1834   42.9740 C   0  0  0  0  0  0  0  0  0  0  0  0
   24.7233   33.3526   41.9279 C   0  0  0  0  0  0  0  0  0  0  0  0
   25.6570   32.3502   42.1381 C   0  0  0  0  0  0  0  0  0  0  0  0
   26.2138   32.1600   43.3966 C   0  0  0  0  0  0  0  0  0  0  0  0
   25.8367   32.9955   44.4297 C   0  0  0  0  0  0  0  0  0  0  0  0
   24.9202   33.9963   44.2213 C   0  0  0  0  0  0  0  0  0  0  0  0
   26.3243   32.8906   45.6715 F   0  0  0  0  0  0  0  0  0  0  0  0
   27.6057   37.1308   40.8630 C   0  0  0  0  0  0  0  0  0  0  0  0
   28.0268   35.7080   40.6759 C   0  0  0  0  0  0  0  0  0  0  0  0
   28.5520   35.0186   41.7458 C   0  0  0  0  0  0  0  0  0  0  0  0
   28.9520   33.7024   41.6062 C   0  0  0  0  0  0  0  0  0  0  0  0
   28.8192   33.0616   40.3873 C   0  0  0  0  0  0  0  0  0  0  0  0
   28.2782   33.7434   39.3164 C   0  0  0  0  0  0  0  0  0  0  0  0
   27.8785   35.0524   39.4664 C   0  0  0  0  0  0  0  0  0  0  0  0
   29.5026   32.9473   42.6480 O   0  0  0  0  0  0  0  0  0  0  0  0
   30.1540   33.6839   43.6718 C   0  0  0  0  0  0  0  0  0  0  0  0
   29.6301   33.3028   45.0510 C   0  0  0  0  0  0  0  0  0  0  0  0
   31.6299   33.3159   43.5629 C   0  0  0  0  0  0  0  0  0  0  0  0
 31 30  1  0  0  0
 22 23  1  0  0  0
 22  3  1  0  0  0
 30 32  1  0  0  0
 30 29  1  0  0  0
 23 24  2  0  0  0
 23 28  1  0  0  0
 24 25  1  0  0  0
 28 27  2  0  0  0
 25 29  1  0  0  0
 25 26  2  0  0  0
  3  2  1  0  0  0
  3  4  1  0  0  0
  7  4  1  0  0  0
 27 26  1  0  0  0
  2  1  1  0  0  0
  4  5  1  0  0  0
  1  6  1  0  0  0
  5  6  1  0  0  0
  6  9  1  0  0  0
  6  8  1  0  0  0
  9 11  1  0  0  0
 16 17  2  0  0  0
 16 15  1  0  0  0
 17 18  1  0  0  0
 15  8  1  0  0  0
 15 20  2  0  0  0
  8 10  1  0  0  0
 18 19  2  0  0  0
 20 19  1  0  0  0
 19 21  1  0  0  0
 11 10  1  0  0  0
 11 13  1  0  0  0
 10 14  2  0  0  0
 10 12  2  0  0  0
M  END
> <minimizedAffinity>
-7.99838

$$$$
4FM8_0UQ_A_501


 32 35  0  0  0  0  0  0  0  0999 V2000
   22.0238   36.3945   42.5115 C   0  0  0  0  0  0  0  0  0  0  0  0
   23.2957   36.8186   41.7953 C   0  0  0  0  0  0  0  0  0  0  0  0
   24.1864   37.6652   42.6583 N   0  0  0  0  0  0  0  0  0  0  0  0
   24.4037   37.1674   44.0717 C   0  0  0  0  0  0  0  0  0  0  0  0
   23.0979   36.8008   44.7634 C   0  0  0  0  0  0  0  0  0  0  0  0
   22.2080   35.8822   43.9357 C   0  0  0  0  0  0  0  0  0  0  0  0
   25.1341   38.1914   44.8972 C   0  0  0  0  0  0  0  0  0  0  0  0
   22.6186   34.4514   44.0848 N   0  0  0  0  0  0  0  0  0  0  0  0
   20.8454   35.9086   44.6110 C   0  0  0  0  0  0  0  0  0  0  0  0
   21.2907   33.3773   44.1118 S   0  0  0  0  0  0  0  0  0  0  0  0
   20.1629   34.6427   44.2754 N   0  0  0  0  0  0  0  0  0  0  0  0
   21.4696   32.6493   45.3558 O   0  0  0  0  0  0  0  0  0  0  0  0
   19.0064   34.3907   45.1599 C   0  0  0  0  0  0  0  0  0  0  0  0
   21.0806   32.6876   42.8610 O   0  0  0  0  0  0  0  0  0  0  0  0
   23.8482   33.8111   43.6822 C   0  0  0  0  0  0  0  0  0  0  0  0
   24.2422   33.4195   42.4156 C   0  0  0  0  0  0  0  0  0  0  0  0
   25.4633   32.7873   42.2426 C   0  0  0  0  0  0  0  0  0  0  0  0
   26.2797   32.5228   43.3352 C   0  0  0  0  0  0  0  0  0  0  0  0
   25.8644   32.9151   44.5928 C   0  0  0  0  0  0  0  0  0  0  0  0
   24.6601   33.5516   44.7652 C   0  0  0  0  0  0  0  0  0  0  0  0
   26.5865   32.7078   45.7002 F   0  0  0  0  0  0  0  0  0  0  0  0
   25.4522   38.0560   41.9341 C   0  0  0  0  0  0  0  0  0  0  0  0
   26.3744   36.9399   41.5592 C   0  0  0  0  0  0  0  0  0  0  0  0
   27.2540   36.4529   42.4998 C   0  0  0  0  0  0  0  0  0  0  0  0
   28.1206   35.4225   42.1853 C   0  0  0  0  0  0  0  0  0  0  0  0
   28.1050   34.8637   40.9197 C   0  0  0  0  0  0  0  0  0  0  0  0
   27.2139   35.3373   39.9786 C   0  0  0  0  0  0  0  0  0  0  0  0
   26.3516   36.3607   40.3027 C   0  0  0  0  0  0  0  0  0  0  0  0
   29.0460   34.8877   43.0888 O   0  0  0  0  0  0  0  0  0  0  0  0
   29.3915   35.7172   44.1877 C   0  0  0  0  0  0  0  0  0  0  0  0
   28.8828   35.1395   45.5028 C   0  0  0  0  0  0  0  0  0  0  0  0
   30.9158   35.7618   44.2014 C   0  0  0  0  0  0  0  0  0  0  0  0
 31 30  1  0  0  0
 22 23  1  0  0  0
 22  3  1  0  0  0
 30 32  1  0  0  0
 30 29  1  0  0  0
 23 24  2  0  0  0
 23 28  1  0  0  0
 24 25  1  0  0  0
 28 27  2  0  0  0
 25 29  1  0  0  0
 25 26  2  0  0  0
  3  2  1  0  0  0
  3  4  1  0  0  0
  7  4  1  0  0  0
 27 26  1  0  0  0
  2  1  1  0  0  0
  4  5  1  0  0  0
  1  6  1  0  0  0
  5  6  1  0  0  0
  6  9  1  0  0  0
  6  8  1  0  0  0
  9 11  1  0  0  0
 16 17  2  0  0  0
 16 15  1  0  0  0
 17 18  1  0  0  0
 15  8  1  0  0  0
 15 20  2  0  0  0
  8 10  1  0  0  0
 18 19  2  0  0  0
 20 19  1  0  0  0
 19 21  1  0  0  0
 11 10  1  0  0  0
 11 13  1  0  0  0
 10 14  2  0  0  0
 10 12  2  0  0  0
M  END
> <minimizedAffinity>
-7.95884

$$$$
4FM8_0UQ_A_501


 32 35  0  0  0  0  0  0  0  0999 V2000
   29.3001   33.6970   42.8096 C   0  0  0  0  0  0  0  0  0  0  0  0
   28.9931   35.1856   42.8317 C   0  0  0  0  0  0  0  0  0  0  0  0
   28.5475   35.7006   41.4934 N   0  0  0  0  0  0  0  0  0  0  0  0
   27.5124   34.8616   40.7742 C   0  0  0  0  0  0  0  0  0  0  0  0
   27.8874   33.3866   40.7366 C   0  0  0  0  0  0  0  0  0  0  0  0
   28.2741   32.8222   42.0977 C   0  0  0  0  0  0  0  0  0  0  0  0
   27.2986   35.3571   39.3697 C   0  0  0  0  0  0  0  0  0  0  0  0
   27.0640   32.4325   42.8864 N   0  0  0  0  0  0  0  0  0  0  0  0
   28.9333   31.4807   41.8166 C   0  0  0  0  0  0  0  0  0  0  0  0
   27.2989   31.0136   43.8080 S   0  0  0  0  0  0  0  0  0  0  0  0
   28.7646   30.6456   43.0229 N   0  0  0  0  0  0  0  0  0  0  0  0
   26.2199   30.1445   43.3722 O   0  0  0  0  0  0  0  0  0  0  0  0
   29.0283   29.2187   42.7447 C   0  0  0  0  0  0  0  0  0  0  0  0
   27.5397   31.2683   45.2086 O   0  0  0  0  0  0  0  0  0  0  0  0
   26.0086   33.2691   43.4062 C   0  0  0  0  0  0  0  0  0  0  0  0
   26.0145   34.0599   44.5408 C   0  0  0  0  0  0  0  0  0  0  0  0
   24.8766   34.7720   44.8857 C   0  0  0  0  0  0  0  0  0  0  0  0
   23.7255   34.6758   44.1138 C   0  0  0  0  0  0  0  0  0  0  0  0
   23.7378   33.8745   42.9888 C   0  0  0  0  0  0  0  0  0  0  0  0
   24.8674   33.1768   42.6390 C   0  0  0  0  0  0  0  0  0  0  0  0
   22.6792   33.7261   42.1838 F   0  0  0  0  0  0  0  0  0  0  0  0
   28.2277   37.1752   41.5447 C   0  0  0  0  0  0  0  0  0  0  0  0
   27.1823   37.5942   42.5286 C   0  0  0  0  0  0  0  0  0  0  0  0
   25.8621   37.6089   42.1380 C   0  0  0  0  0  0  0  0  0  0  0  0
   24.8712   37.9922   43.0229 C   0  0  0  0  0  0  0  0  0  0  0  0
   25.1984   38.3574   44.3165 C   0  0  0  0  0  0  0  0  0  0  0  0
   26.5185   38.3285   44.7176 C   0  0  0  0  0  0  0  0  0  0  0  0
   27.4977   37.9409   43.8306 C   0  0  0  0  0  0  0  0  0  0  0  0
   23.5129   38.0398   42.6890 O   0  0  0  0  0  0  0  0  0  0  0  0
   23.2015   37.8205   41.3215 C   0  0  0  0  0  0  0  0  0  0  0  0
   22.0607   36.8227   41.1634 C   0  0  0  0  0  0  0  0  0  0  0  0
   22.7748   39.1797   40.7774 C   0  0  0  0  0  0  0  0  0  0  0  0
 31 30  1  0  0  0
 22 23  1  0  0  0
 22  3  1  0  0  0
 30 32  1  0  0  0
 30 29  1  0  0  0
 23 24  2  0  0  0
 23 28  1  0  0  0
 24 25  1  0  0  0
 28 27  2  0  0  0
 25 29  1  0  0  0
 25 26  2  0  0  0
  3  2  1  0  0  0
  3  4  1  0  0  0
  7  4  1  0  0  0
 27 26  1  0  0  0
  2  1  1  0  0  0
  4  5  1  0  0  0
  1  6  1  0  0  0
  5  6  1  0  0  0
  6  9  1  0  0  0
  6  8  1  0  0  0
  9 11  1  0  0  0
 16 17  2  0  0  0
 16 15  1  0  0  0
 17 18  1  0  0  0
 15  8  1  0  0  0
 15 20  2  0  0  0
  8 10  1  0  0  0
 18 19  2  0  0  0
 20 19  1  0  0  0
 19 21  1  0  0  0
 11 10  1  0  0  0
 11 13  1  0  0  0
 10 14  2  0  0  0
 10 12  2  0  0  0
M  END
> <minimizedAffinity>
-7.93866

$$$$
4FM8_0UQ_A_501


 32 35  0  0  0  0  0  0  0  0999 V2000
   22.1647   35.3205   45.0054 C   0  0  0  0  0  0  0  0  0  0  0  0
   23.6443   35.6677   44.9748 C   0  0  0  0  0  0  0  0  0  0  0  0
   24.5108   34.4688   44.7167 N   0  0  0  0  0  0  0  0  0  0  0  0
   24.0611   33.5583   43.5935 C   0  0  0  0  0  0  0  0  0  0  0  0
   22.5848   33.2005   43.6944 C   0  0  0  0  0  0  0  0  0  0  0  0
   21.6774   34.4094   43.8842 C   0  0  0  0  0  0  0  0  0  0  0  0
   24.8787   32.2956   43.5636 C   0  0  0  0  0  0  0  0  0  0  0  0
   21.3672   35.0650   42.5757 N   0  0  0  0  0  0  0  0  0  0  0  0
   20.3266   33.8502   44.3038 C   0  0  0  0  0  0  0  0  0  0  0  0
   19.7653   35.6515   42.4884 S   0  0  0  0  0  0  0  0  0  0  0  0
   19.3000   34.8358   43.9090 N   0  0  0  0  0  0  0  0  0  0  0  0
   19.2343   35.0095   41.2986 O   0  0  0  0  0  0  0  0  0  0  0  0
   17.9429   34.2519   43.9247 C   0  0  0  0  0  0  0  0  0  0  0  0
   19.6617   37.0784   42.6821 O   0  0  0  0  0  0  0  0  0  0  0  0
   22.2594   35.7354   41.6600 C   0  0  0  0  0  0  0  0  0  0  0  0
   22.8236   35.2498   40.4943 C   0  0  0  0  0  0  0  0  0  0  0  0
   23.6870   36.0519   39.7650 C   0  0  0  0  0  0  0  0  0  0  0  0
   24.0076   37.3280   40.2110 C   0  0  0  0  0  0  0  0  0  0  0  0
   23.4394   37.7914   41.3816 C   0  0  0  0  0  0  0  0  0  0  0  0
   22.5751   37.0028   42.1000 C   0  0  0  0  0  0  0  0  0  0  0  0
   23.6850   39.0074   41.8835 F   0  0  0  0  0  0  0  0  0  0  0  0
   25.9732   34.8410   44.6691 C   0  0  0  0  0  0  0  0  0  0  0  0
   26.4156   35.6457   43.4887 C   0  0  0  0  0  0  0  0  0  0  0  0
   26.5678   35.0212   42.2712 C   0  0  0  0  0  0  0  0  0  0  0  0
   26.9763   35.7360   41.1604 C   0  0  0  0  0  0  0  0  0  0  0  0
   27.2284   37.0926   41.2615 C   0  0  0  0  0  0  0  0  0  0  0  0
   27.0615   37.7262   42.4760 C   0  0  0  0  0  0  0  0  0  0  0  0
   26.6497   37.0068   43.5754 C   0  0  0  0  0  0  0  0  0  0  0  0
   27.1609   35.1627   39.8971 O   0  0  0  0  0  0  0  0  0  0  0  0
   28.3459   34.3996   39.7286 C   0  0  0  0  0  0  0  0  0  0  0  0
   28.1321   32.9443   40.1264 C   0  0  0  0  0  0  0  0  0  0  0  0
   28.6766   34.4829   38.2423 C   0  0  0  0  0  0  0  0  0  0  0  0
 31 30  1  0  0  0
 22 23  1  0  0  0
 22  3  1  0  0  0
 30 32  1  0  0  0
 30 29  1  0  0  0
 23 24  2  0  0  0
 23 28  1  0  0  0
 24 25  1  0  0  0
 28 27  2  0  0  0
 25 29  1  0  0  0
 25 26  2  0  0  0
  3  2  1  0  0  0
  3  4  1  0  0  0
  7  4  1  0  0  0
 27 26  1  0  0  0
  2  1  1  0  0  0
  4  5  1  0  0  0
  1  6  1  0  0  0
  5  6  1  0  0  0
  6  9  1  0  0  0
  6  8  1  0  0  0
  9 11  1  0  0  0
 16 17  2  0  0  0
 16 15  1  0  0  0
 17 18  1  0  0  0
 15  8  1  0  0  0
 15 20  2  0  0  0
  8 10  1  0  0  0
 18 19  2  0  0  0
 20 19  1  0  0  0
 19 21  1  0  0  0
 11 10  1  0  0  0
 11 13  1  0  0  0
 10 14  2  0  0  0
 10 12  2  0  0  0
M  END
> <minimizedAffinity>
-7.93630

$$$$
4FM8_0UQ_A_501


 32 35  0  0  0  0  0  0  0  0999 V2000
   22.0505   36.5604   42.6054 C   0  0  0  0  0  0  0  0  0  0  0  0
   23.4195   36.9085   42.0437 C   0  0  0  0  0  0  0  0  0  0  0  0
   24.3007   37.5843   43.0545 N   0  0  0  0  0  0  0  0  0  0  0  0
   24.3340   36.9515   44.4297 C   0  0  0  0  0  0  0  0  0  0  0  0
   22.9393   36.6660   44.9694 C   0  0  0  0  0  0  0  0  0  0  0  0
   22.0486   35.9159   43.9872 C   0  0  0  0  0  0  0  0  0  0  0  0
   25.0769   37.8228   45.4058 C   0  0  0  0  0  0  0  0  0  0  0  0
   22.3048   34.4429   44.0393 N   0  0  0  0  0  0  0  0  0  0  0  0
   20.6367   36.0272   44.5418 C   0  0  0  0  0  0  0  0  0  0  0  0
   20.8839   33.5133   43.8528 S   0  0  0  0  0  0  0  0  0  0  0  0
   19.8715   34.8707   44.0337 N   0  0  0  0  0  0  0  0  0  0  0  0
   20.8733   32.6704   45.0356 O   0  0  0  0  0  0  0  0  0  0  0  0
   18.6175   34.6674   44.7881 C   0  0  0  0  0  0  0  0  0  0  0  0
   20.7289   32.9548   42.5305 O   0  0  0  0  0  0  0  0  0  0  0  0
   23.5004   33.7144   43.6874 C   0  0  0  0  0  0  0  0  0  0  0  0
   23.9258   33.3080   42.4358 C   0  0  0  0  0  0  0  0  0  0  0  0
   25.1021   32.5856   42.3130 C   0  0  0  0  0  0  0  0  0  0  0  0
   25.8405   32.2466   43.4399 C   0  0  0  0  0  0  0  0  0  0  0  0
   25.3944   32.6555   44.6815 C   0  0  0  0  0  0  0  0  0  0  0  0
   24.2352   33.3808   44.8047 C   0  0  0  0  0  0  0  0  0  0  0  0
   26.0427   32.3806   45.8195 F   0  0  0  0  0  0  0  0  0  0  0  0
   25.6612   37.9006   42.4814 C   0  0  0  0  0  0  0  0  0  0  0  0
   26.6278   36.7624   42.3985 C   0  0  0  0  0  0  0  0  0  0  0  0
   26.5550   35.8980   41.3294 C   0  0  0  0  0  0  0  0  0  0  0  0
   27.4330   34.8352   41.2233 C   0  0  0  0  0  0  0  0  0  0  0  0
   28.4021   34.6356   42.1903 C   0  0  0  0  0  0  0  0  0  0  0  0
   28.4895   35.5089   43.2553 C   0  0  0  0  0  0  0  0  0  0  0  0
   27.6136   36.5671   43.3498 C   0  0  0  0  0  0  0  0  0  0  0  0
   27.4080   33.9140   40.1700 O   0  0  0  0  0  0  0  0  0  0  0  0
   28.6602   33.6272   39.5660 C   0  0  0  0  0  0  0  0  0  0  0  0
   28.7951   32.1445   39.2415 C   0  0  0  0  0  0  0  0  0  0  0  0
   28.6863   34.4401   38.2760 C   0  0  0  0  0  0  0  0  0  0  0  0
 31 30  1  0  0  0
 22 23  1  0  0  0
 22  3  1  0  0  0
 30 32  1  0  0  0
 30 29  1  0  0  0
 23 24  2  0  0  0
 23 28  1  0  0  0
 24 25  1  0  0  0
 28 27  2  0  0  0
 25 29  1  0  0  0
 25 26  2  0  0  0
  3  2  1  0  0  0
  3  4  1  0  0  0
  7  4  1  0  0  0
 27 26  1  0  0  0
  2  1  1  0  0  0
  4  5  1  0  0  0
  1  6  1  0  0  0
  5  6  1  0  0  0
  6  9  1  0  0  0
  6  8  1  0  0  0
  9 11  1  0  0  0
 16 17  2  0  0  0
 16 15  1  0  0  0
 17 18  1  0  0  0
 15  8  1  0  0  0
 15 20  2  0  0  0
  8 10  1  0  0  0
 18 19  2  0  0  0
 20 19  1  0  0  0
 19 21  1  0  0  0
 11 10  1  0  0  0
 11 13  1  0  0  0
 10 14  2  0  0  0
 10 12  2  0  0  0
M  END
> <minimizedAffinity>
-7.91478

$$$$
