5NXG_RA1_A_302
  RCSB PDB01131817373D
Coordinates from PDB:5NXG:A:302 Model:1 without hydrogens
 23 24  0  0  0  0            999 V2000
   -1.9090    9.6500   14.4050  Cl 0  0  0  0  0  0  0  0  0  0  0  0
   -2.1970    9.6290   12.6930   C 0  0  0  0  0  0  0  0  0  0  0  0
   -1.4020   10.5210   11.9450   C 0  0  0  0  0  0  0  0  0  0  0  0
   -1.5820   10.5720   10.5520   C 0  0  0  0  0  0  0  0  0  0  0  0
   -0.7450   11.4800    9.7440   N 0  3  0  0  0  0  0  0  0  0  0  0
   -0.3400   11.0910    8.6750   O 0  5  0  0  0  0  0  0  0  0  0  0
   -0.4750   12.5790   10.1520   O 0  0  0  0  0  0  0  0  0  0  0  0
   -2.5280    9.7940    9.8610   C 0  0  0  0  0  0  0  0  0  0  0  0
   -3.3210    8.9380   10.5930   C 0  0  0  0  0  0  0  0  0  0  0  0
   -3.1500    8.8580   11.9830   C 0  0  0  0  0  0  0  0  0  0  0  0
   -4.0770    7.9240   12.6670   C 0  0  0  0  0  0  0  0  0  0  0  0
   -5.3080    8.0890   12.6520   O 0  0  0  0  0  0  0  0  0  0  0  0
   -3.5290    6.9420   13.3900   N 0  0  0  0  0  0  0  0  0  0  0  0
   -4.1710    5.9860   14.1890   C 0  0  0  0  0  0  0  0  0  0  0  0
   -5.5350    5.9230   14.4990   C 0  0  0  0  0  0  0  0  0  0  0  0
   -6.0110    4.8970   15.2860   C 0  0  0  0  0  0  0  0  0  0  0  0
   -3.2940    4.9870   14.6750   C 0  0  0  0  0  0  0  0  0  0  0  0
   -3.8040    3.9430   15.4260   C 0  0  0  0  0  0  0  0  0  0  0  0
   -5.1940    3.8690   15.7630   C 0  0  0  0  0  0  0  0  0  0  0  0
   -5.8320    2.5820   16.6680   S 0  0  0  0  0  0  0  0  0  0  0  0
   -5.2980    2.6950   17.9980   O 0  0  0  0  0  0  0  0  0  0  0  0
   -7.2760    2.6840   16.5340   O 0  0  0  0  0  0  0  0  0  0  0  0
   -5.2680    1.2370   16.0270   N 0  0  0  0  0  0  0  0  0  0  0  0
  6  5  1  0  0  0  0
  5  7  2  0  0  0  0
  5  4  1  0  0  0  0
  8  4  2  0  0  0  0
  8  9  1  0  0  0  0
  4  3  1  0  0  0  0
  9 10  2  0  0  0  0
  3  2  2  0  0  0  0
 10 11  1  0  0  0  0
 10  2  1  0  0  0  0
 12 11  2  0  0  0  0
 11 13  1  0  0  0  0
  2  1  1  0  0  0  0
 13 14  1  0  0  0  0
 14 15  2  0  0  0  0
 14 17  1  0  0  0  0
 15 16  1  0  0  0  0
 17 18  2  0  0  0  0
 16 19  2  0  0  0  0
 18 19  1  0  0  0  0
 19 20  1  0  0  0  0
 23 20  1  0  0  0  0
 22 20  2  0  0  0  0
 20 21  2  0  0  0  0
M  CHG  2   5   1   6  -1
A    1
CL
A    2
C10
A    3
C9
A    4
C8
A    5
N2
A    6
O4
A    7
O3
A    8
C7
A    9
C6
A   10
C5
A   11
C4
A   12
O2
A   13
N1
A   14
C3
A   15
C2
A   16
C1
A   17
C11
A   18
C12
A   19
C
A   20
S
A   21
O
A   22
O1
A   23
N
M  END
>  <InstanceId>
5NXG_RA1_A_302

>  <ChemCompId>
RA1

>  <PdbId>
5NXG

>  <ChainId>
A

>  <ResidueNumber>
302

>  <InsertionCode>


>  <Model>
1

>  <AltIds>


>  <MissingHeavyAtoms>
0

>  <ObservedFormula>
C13 N3 O5 S Cl

>  <Name>
2-chloranyl-4-nitro-~{N}-(4-sulfamoylphenyl)benzamide

>  <SystematicName>
2-chloranyl-4-nitro-~{N}-(4-sulfamoylphenyl)benzamide

>  <Synonyms>


>  <Type>
NON-POLYMER

>  <Formula>
C13 H10 Cl N3 O5 S

>  <MolecularWeight>
355.754

>  <ModifiedDate>
2018-01-12

>  <Parent>


>  <OneLetterCode>


>  <SubcomponentList>


>  <AmbiguousFlag>
N

>  <InChI>
InChI=1S/C13H10ClN3O5S/c14-12-7-9(17(19)20)3-6-11(12)13(18)16-8-1-4-10(5-2-8)23(15,21)22/h1-7H,(H,16,18)(H2,15,21,22)

>  <InChIKey>
RYNWTIXQTVFOEO-UHFFFAOYSA-N

>  <SMILES>
c1cc(ccc1NC(=O)c2ccc(cc2Cl)[N+](=O)[O-])S(=O)(=O)N

$$$$
