1BGQ_RDC_A_300


 27 29  0  0  0  0  0  0  0  0999 V2000
   18.4970   -2.1996   -6.0110 C   0  0  0  0  0  0  0  0  0  0  0  0
   18.6745   -3.1150   -4.8368 C   0  0  0  0  0  0  0  0  0  0  0  0
   19.7207   -4.1217   -4.9377 C   0  0  0  0  0  0  0  0  0  0  0  0
   19.9700   -5.0350   -3.9165 C   0  0  0  0  0  0  0  0  0  0  0  0
   19.2103   -4.9916   -2.7546 C   0  0  0  0  0  0  0  0  0  0  0  0
   18.1676   -4.0147   -2.5960 C   0  0  0  0  0  0  0  0  0  0  0  0
   17.8801   -3.0695   -3.6102 C   0  0  0  0  0  0  0  0  0  0  0  0
   16.7392   -2.0216   -3.4007 C   0  0  0  0  0  0  0  0  0  0  0  0
   15.2603   -2.4913   -3.3029 C   0  0  0  0  0  0  0  0  0  0  0  0
   14.7869   -3.6484   -4.0819 C   0  0  0  0  0  0  0  0  0  0  0  0
   14.8072   -3.7320   -5.4086 C   0  0  0  0  0  0  0  0  0  0  0  0
   14.3420   -4.8834   -6.1766 C   0  0  0  0  0  0  0  0  0  0  0  0
   14.3549   -4.9894   -7.5065 C   0  0  0  0  0  0  0  0  0  0  0  0
   14.8028   -4.0749   -8.6530 C   0  0  0  0  0  0  0  0  0  0  0  0
   14.9346   -2.6497   -8.5672 C   0  0  0  0  0  0  0  0  0  0  0  0
   16.3309   -2.0499   -8.7038 C   0  0  0  0  0  0  0  0  0  0  0  0
   16.8878   -1.2053   -7.5841 C   0  0  0  0  0  0  0  0  0  0  0  0
   16.0012   -0.1056   -7.0283 C   0  0  0  0  0  0  0  0  0  0  0  0
   17.2389   -2.0679   -6.4314 O   0  0  0  0  0  0  0  0  0  0  0  0
   19.4473   -1.6088   -6.5580 O   0  0  0  0  0  0  0  0  0  0  0  0
   20.5136   -4.2401   -6.0403 O   0  0  0  0  0  0  0  0  0  0  0  0
   19.4241   -5.8793   -1.7211 O   0  0  0  0  0  0  0  0  0  0  0  0
   17.3015   -4.0562   -1.1167 Cl  0  0  0  0  0  0  0  0  0  0  0  0
   14.4897   -1.9285   -2.5691 O   0  0  0  0  0  0  0  0  0  0  0  0
   14.0998   -3.2720   -9.5334 O   0  0  0  0  0  0  0  0  0  0  0  0
   20.3990   -3.6569   -6.7647 H   0  0  0  0  0  0  0  0  0  0  0  0
   20.0960   -6.5286   -1.7926 H   0  0  0  0  0  0  0  0  0  0  0  0
  1  2  1  0  0  0
  1 19  1  0  0  0
  1 20  2  0  0  0
  2  3  2  0  0  0
  2  7  1  0  0  0
  3  4  1  0  0  0
  3 21  1  0  0  0
  4  5  2  0  0  0
  5  6  1  0  0  0
  5 22  1  0  0  0
  6  7  2  0  0  0
  6 23  1  0  0  0
  7  8  1  0  0  0
  8  9  1  0  0  0
  9 10  1  0  0  0
  9 24  2  0  0  0
 10 11  2  0  0  0
 11 12  1  0  0  0
 12 13  2  0  0  0
 13 14  1  0  0  0
 14 15  1  0  0  0
 14 25  1  0  0  0
 15 16  1  0  0  0
 15 25  1  0  0  0
 16 17  1  0  0  0
 17 18  1  0  0  0
 17 19  1  0  0  0
 21 26  1  0  0  0
 22 27  1  0  0  0
M  END
> <minimizedAffinity>
-8.60467

$$$$
1BGQ_RDC_A_300


 27 29  0  0  0  0  0  0  0  0999 V2000
   12.8403   -1.1866   -4.9078 C   0  0  0  0  0  0  0  0  0  0  0  0
   12.5391   -2.2226   -3.8666 C   0  0  0  0  0  0  0  0  0  0  0  0
   12.6903   -1.8228   -2.4754 C   0  0  0  0  0  0  0  0  0  0  0  0
   12.4514   -2.7021   -1.4224 C   0  0  0  0  0  0  0  0  0  0  0  0
   12.0472   -4.0034   -1.6914 C   0  0  0  0  0  0  0  0  0  0  0  0
   11.8748   -4.4526   -3.0461 C   0  0  0  0  0  0  0  0  0  0  0  0
   12.1089   -3.5918   -4.1456 C   0  0  0  0  0  0  0  0  0  0  0  0
   11.9095   -4.1162   -5.6046 C   0  0  0  0  0  0  0  0  0  0  0  0
   12.8431   -5.2252   -6.1667 C   0  0  0  0  0  0  0  0  0  0  0  0
   14.2586   -5.2904   -5.7640 C   0  0  0  0  0  0  0  0  0  0  0  0
   15.1520   -4.3269   -5.9660 C   0  0  0  0  0  0  0  0  0  0  0  0
   16.5531   -4.3935   -5.5601 C   0  0  0  0  0  0  0  0  0  0  0  0
   17.4656   -3.4390   -5.7508 C   0  0  0  0  0  0  0  0  0  0  0  0
   17.4454   -2.0457   -6.3909 C   0  0  0  0  0  0  0  0  0  0  0  0
   16.4838   -1.5950   -7.3543 C   0  0  0  0  0  0  0  0  0  0  0  0
   15.5385   -0.4678   -6.9496 C   0  0  0  0  0  0  0  0  0  0  0  0
   14.0478   -0.6982   -6.9950 C   0  0  0  0  0  0  0  0  0  0  0  0
   13.4712   -1.3081   -8.2598 C   0  0  0  0  0  0  0  0  0  0  0  0
   13.6449   -1.5974   -5.8881 O   0  0  0  0  0  0  0  0  0  0  0  0
   12.3813   -0.0296   -4.8636 O   0  0  0  0  0  0  0  0  0  0  0  0
   13.0846   -0.5679   -2.1169 O   0  0  0  0  0  0  0  0  0  0  0  0
   11.8026   -4.9054   -0.6773 O   0  0  0  0  0  0  0  0  0  0  0  0
   11.3681   -6.0777   -3.2525 Cl  0  0  0  0  0  0  0  0  0  0  0  0
   12.4128   -6.0596   -6.9201 O   0  0  0  0  0  0  0  0  0  0  0  0
   17.8795   -1.5779   -7.6183 O   0  0  0  0  0  0  0  0  0  0  0  0
   13.2620    0.0737   -2.7764 H   0  0  0  0  0  0  0  0  0  0  0  0
   11.9056   -4.6445    0.2167 H   0  0  0  0  0  0  0  0  0  0  0  0
  1  2  1  0  0  0
  1 19  1  0  0  0
  1 20  2  0  0  0
  2  3  2  0  0  0
  2  7  1  0  0  0
  3  4  1  0  0  0
  3 21  1  0  0  0
  4  5  2  0  0  0
  5  6  1  0  0  0
  5 22  1  0  0  0
  6  7  2  0  0  0
  6 23  1  0  0  0
  7  8  1  0  0  0
  8  9  1  0  0  0
  9 10  1  0  0  0
  9 24  2  0  0  0
 10 11  2  0  0  0
 11 12  1  0  0  0
 12 13  2  0  0  0
 13 14  1  0  0  0
 14 15  1  0  0  0
 14 25  1  0  0  0
 15 16  1  0  0  0
 15 25  1  0  0  0
 16 17  1  0  0  0
 17 18  1  0  0  0
 17 19  1  0  0  0
 21 26  1  0  0  0
 22 27  1  0  0  0
M  END
> <minimizedAffinity>
-8.09534

$$$$
1BGQ_RDC_A_300


 27 29  0  0  0  0  0  0  0  0999 V2000
   18.1682   -2.4480   -6.7544 C   0  0  0  0  0  0  0  0  0  0  0  0
   16.8640   -2.0313   -7.3654 C   0  0  0  0  0  0  0  0  0  0  0  0
   16.7388   -0.6378   -7.7661 C   0  0  0  0  0  0  0  0  0  0  0  0
   15.5713   -0.1324   -8.3323 C   0  0  0  0  0  0  0  0  0  0  0  0
   14.4853   -0.9742   -8.5356 C   0  0  0  0  0  0  0  0  0  0  0  0
   14.5535   -2.3617   -8.1655 C   0  0  0  0  0  0  0  0  0  0  0  0
   15.7203   -2.9153   -7.5853 C   0  0  0  0  0  0  0  0  0  0  0  0
   15.7570   -4.4291   -7.1972 C   0  0  0  0  0  0  0  0  0  0  0  0
   14.8382   -4.9634   -6.0625 C   0  0  0  0  0  0  0  0  0  0  0  0
   14.5156   -4.1207   -4.8981 C   0  0  0  0  0  0  0  0  0  0  0  0
   15.4086   -3.6243   -4.0476 C   0  0  0  0  0  0  0  0  0  0  0  0
   15.0848   -2.7846   -2.8977 C   0  0  0  0  0  0  0  0  0  0  0  0
   15.9640   -2.2746   -2.0333 C   0  0  0  0  0  0  0  0  0  0  0  0
   17.4893   -2.3376   -1.8891 C   0  0  0  0  0  0  0  0  0  0  0  0
   18.3285   -3.3588   -2.4448 C   0  0  0  0  0  0  0  0  0  0  0  0
   19.3202   -2.9576   -3.5328 C   0  0  0  0  0  0  0  0  0  0  0  0
   19.2487   -3.6257   -4.8840 C   0  0  0  0  0  0  0  0  0  0  0  0
   19.1702   -5.1413   -4.9130 C   0  0  0  0  0  0  0  0  0  0  0  0
   18.0580   -3.1413   -5.6211 O   0  0  0  0  0  0  0  0  0  0  0  0
   19.2719   -2.1677   -7.2589 O   0  0  0  0  0  0  0  0  0  0  0  0
   17.7510    0.2607   -7.6029 O   0  0  0  0  0  0  0  0  0  0  0  0
   13.3107   -0.5125   -9.0913 O   0  0  0  0  0  0  0  0  0  0  0  0
   13.1523   -3.3022   -8.4694 Cl  0  0  0  0  0  0  0  0  0  0  0  0
   14.3592   -6.0654   -6.1346 O   0  0  0  0  0  0  0  0  0  0  0  0
   18.3169   -3.0673   -1.0546 O   0  0  0  0  0  0  0  0  0  0  0  0
   18.5647   -0.0132   -7.2275 H   0  0  0  0  0  0  0  0  0  0  0  0
   13.2334    0.3866   -9.3436 H   0  0  0  0  0  0  0  0  0  0  0  0
  1  2  1  0  0  0
  1 19  1  0  0  0
  1 20  2  0  0  0
  2  3  2  0  0  0
  2  7  1  0  0  0
  3  4  1  0  0  0
  3 21  1  0  0  0
  4  5  2  0  0  0
  5  6  1  0  0  0
  5 22  1  0  0  0
  6  7  2  0  0  0
  6 23  1  0  0  0
  7  8  1  0  0  0
  8  9  1  0  0  0
  9 10  1  0  0  0
  9 24  2  0  0  0
 10 11  2  0  0  0
 11 12  1  0  0  0
 12 13  2  0  0  0
 13 14  1  0  0  0
 14 15  1  0  0  0
 14 25  1  0  0  0
 15 16  1  0  0  0
 15 25  1  0  0  0
 16 17  1  0  0  0
 17 18  1  0  0  0
 17 19  1  0  0  0
 21 26  1  0  0  0
 22 27  1  0  0  0
M  END
> <minimizedAffinity>
-7.82318

$$$$
1BGQ_RDC_A_300


 27 29  0  0  0  0  0  0  0  0999 V2000
   12.4175   -3.8278   -2.0488 C   0  0  0  0  0  0  0  0  0  0  0  0
   11.7977   -4.7845   -3.0229 C   0  0  0  0  0  0  0  0  0  0  0  0
   11.6020   -6.1534   -2.5692 C   0  0  0  0  0  0  0  0  0  0  0  0
   11.0479   -7.1329   -3.3893 C   0  0  0  0  0  0  0  0  0  0  0  0
   10.6565   -6.8071   -4.6815 C   0  0  0  0  0  0  0  0  0  0  0  0
   10.8195   -5.4694   -5.1820 C   0  0  0  0  0  0  0  0  0  0  0  0
   11.3802   -4.4444   -4.3822 C   0  0  0  0  0  0  0  0  0  0  0  0
   11.5403   -3.0012   -4.9612 C   0  0  0  0  0  0  0  0  0  0  0  0
   12.5254   -2.7391   -6.1351 C   0  0  0  0  0  0  0  0  0  0  0  0
   13.7806   -3.5021   -6.2466 C   0  0  0  0  0  0  0  0  0  0  0  0
   14.7478   -3.5128   -5.3346 C   0  0  0  0  0  0  0  0  0  0  0  0
   15.9881   -4.2751   -5.4466 C   0  0  0  0  0  0  0  0  0  0  0  0
   16.9702   -4.3021   -4.5438 C   0  0  0  0  0  0  0  0  0  0  0  0
   17.1952   -3.6367   -3.1808 C   0  0  0  0  0  0  0  0  0  0  0  0
   16.5454   -2.4407   -2.7300 C   0  0  0  0  0  0  0  0  0  0  0  0
   15.5910   -2.5473   -1.5442 C   0  0  0  0  0  0  0  0  0  0  0  0
   14.1536   -2.1182   -1.7086 C   0  0  0  0  0  0  0  0  0  0  0  0
   13.8948   -0.7656   -2.3471 C   0  0  0  0  0  0  0  0  0  0  0  0
   13.4263   -3.1071   -2.5386 O   0  0  0  0  0  0  0  0  0  0  0  0
   12.0278   -3.7140   -0.8713 O   0  0  0  0  0  0  0  0  0  0  0  0
   11.9578   -6.5641   -1.3189 O   0  0  0  0  0  0  0  0  0  0  0  0
   10.1059   -7.7484   -5.5257 O   0  0  0  0  0  0  0  0  0  0  0  0
   10.2952   -5.1870   -6.7900 Cl  0  0  0  0  0  0  0  0  0  0  0  0
   12.2614   -1.9251   -6.9817 O   0  0  0  0  0  0  0  0  0  0  0  0
   17.9603   -2.5530   -2.7879 O   0  0  0  0  0  0  0  0  0  0  0  0
   12.3366   -5.9552   -0.7158 H   0  0  0  0  0  0  0  0  0  0  0  0
    9.9860   -8.6295   -5.2305 H   0  0  0  0  0  0  0  0  0  0  0  0
  1  2  1  0  0  0
  1 19  1  0  0  0
  1 20  2  0  0  0
  2  3  2  0  0  0
  2  7  1  0  0  0
  3  4  1  0  0  0
  3 21  1  0  0  0
  4  5  2  0  0  0
  5  6  1  0  0  0
  5 22  1  0  0  0
  6  7  2  0  0  0
  6 23  1  0  0  0
  7  8  1  0  0  0
  8  9  1  0  0  0
  9 10  1  0  0  0
  9 24  2  0  0  0
 10 11  2  0  0  0
 11 12  1  0  0  0
 12 13  2  0  0  0
 13 14  1  0  0  0
 14 15  1  0  0  0
 14 25  1  0  0  0
 15 16  1  0  0  0
 15 25  1  0  0  0
 16 17  1  0  0  0
 17 18  1  0  0  0
 17 19  1  0  0  0
 21 26  1  0  0  0
 22 27  1  0  0  0
M  END
> <minimizedAffinity>
-7.60700

$$$$
1BGQ_RDC_A_300


 27 29  0  0  0  0  0  0  0  0999 V2000
   15.9849   -1.1583   -6.3643 C   0  0  0  0  0  0  0  0  0  0  0  0
   16.8153   -1.8859   -5.3498 C   0  0  0  0  0  0  0  0  0  0  0  0
   18.0928   -2.4170   -5.8016 C   0  0  0  0  0  0  0  0  0  0  0  0
   18.9432   -3.1214   -4.9533 C   0  0  0  0  0  0  0  0  0  0  0  0
   18.5791   -3.3248   -3.6284 C   0  0  0  0  0  0  0  0  0  0  0  0
   17.3320   -2.8174   -3.1243 C   0  0  0  0  0  0  0  0  0  0  0  0
   16.4377   -2.0980   -3.9533 C   0  0  0  0  0  0  0  0  0  0  0  0
   15.0912   -1.5607   -3.3686 C   0  0  0  0  0  0  0  0  0  0  0  0
   13.9918   -2.5577   -2.9054 C   0  0  0  0  0  0  0  0  0  0  0  0
   13.7971   -3.8391   -3.6054 C   0  0  0  0  0  0  0  0  0  0  0  0
   13.4783   -3.9634   -4.8900 C   0  0  0  0  0  0  0  0  0  0  0  0
   13.2917   -5.2361   -5.5812 C   0  0  0  0  0  0  0  0  0  0  0  0
   12.9739   -5.3840   -6.8686 C   0  0  0  0  0  0  0  0  0  0  0  0
   12.7034   -4.4160   -8.0267 C   0  0  0  0  0  0  0  0  0  0  0  0
   12.3024   -3.0472   -7.8804 C   0  0  0  0  0  0  0  0  0  0  0  0
   13.2688   -1.9636   -8.3492 C   0  0  0  0  0  0  0  0  0  0  0  0
   13.7504   -0.9242   -7.3668 C   0  0  0  0  0  0  0  0  0  0  0  0
   12.7049   -0.2272   -6.5153 C   0  0  0  0  0  0  0  0  0  0  0  0
   14.7079   -1.5373   -6.4165 O   0  0  0  0  0  0  0  0  0  0  0  0
   16.4472   -0.2713   -7.1064 O   0  0  0  0  0  0  0  0  0  0  0  0
   18.5312   -2.2675   -7.0838 O   0  0  0  0  0  0  0  0  0  0  0  0
   19.3919   -4.0188   -2.7569 O   0  0  0  0  0  0  0  0  0  0  0  0
   16.9944   -3.1269   -1.4719 Cl  0  0  0  0  0  0  0  0  0  0  0  0
   13.3019   -2.3039   -1.9522 O   0  0  0  0  0  0  0  0  0  0  0  0
   11.5337   -3.9819   -8.6243 O   0  0  0  0  0  0  0  0  0  0  0  0
   18.0073   -1.8036   -7.7070 H   0  0  0  0  0  0  0  0  0  0  0  0
   20.2114   -4.3627   -3.0537 H   0  0  0  0  0  0  0  0  0  0  0  0
  1  2  1  0  0  0
  1 19  1  0  0  0
  1 20  2  0  0  0
  2  3  2  0  0  0
  2  7  1  0  0  0
  3  4  1  0  0  0
  3 21  1  0  0  0
  4  5  2  0  0  0
  5  6  1  0  0  0
  5 22  1  0  0  0
  6  7  2  0  0  0
  6 23  1  0  0  0
  7  8  1  0  0  0
  8  9  1  0  0  0
  9 10  1  0  0  0
  9 24  2  0  0  0
 10 11  2  0  0  0
 11 12  1  0  0  0
 12 13  2  0  0  0
 13 14  1  0  0  0
 14 15  1  0  0  0
 14 25  1  0  0  0
 15 16  1  0  0  0
 15 25  1  0  0  0
 16 17  1  0  0  0
 17 18  1  0  0  0
 17 19  1  0  0  0
 21 26  1  0  0  0
 22 27  1  0  0  0
M  END
> <minimizedAffinity>
-7.59045

$$$$
1BGQ_RDC_A_300


 27 29  0  0  0  0  0  0  0  0999 V2000
   13.4435   -3.1066   -3.6914 C   0  0  0  0  0  0  0  0  0  0  0  0
   13.1615   -3.6376   -5.0650 C   0  0  0  0  0  0  0  0  0  0  0  0
   12.5500   -4.9556   -5.1498 C   0  0  0  0  0  0  0  0  0  0  0  0
   12.2539   -5.5570   -6.3704 C   0  0  0  0  0  0  0  0  0  0  0  0
   12.5373   -4.8872   -7.5537 C   0  0  0  0  0  0  0  0  0  0  0  0
   13.1352   -3.5800   -7.5315 C   0  0  0  0  0  0  0  0  0  0  0  0
   13.4540   -2.9338   -6.3127 C   0  0  0  0  0  0  0  0  0  0  0  0
   14.1024   -1.5115   -6.3289 C   0  0  0  0  0  0  0  0  0  0  0  0
   15.5337   -1.3160   -6.9038 C   0  0  0  0  0  0  0  0  0  0  0  0
   16.5544   -2.3671   -6.7509 C   0  0  0  0  0  0  0  0  0  0  0  0
   17.0007   -2.8306   -5.5875 C   0  0  0  0  0  0  0  0  0  0  0  0
   18.0087   -3.8767   -5.4406 C   0  0  0  0  0  0  0  0  0  0  0  0
   18.4693   -4.3578   -4.2845 C   0  0  0  0  0  0  0  0  0  0  0  0
   18.1812   -4.0639   -2.8074 C   0  0  0  0  0  0  0  0  0  0  0  0
   17.6188   -2.8448   -2.3039 C   0  0  0  0  0  0  0  0  0  0  0  0
   16.2365   -2.9056   -1.6607 C   0  0  0  0  0  0  0  0  0  0  0  0
   15.1191   -2.0621   -2.2238 C   0  0  0  0  0  0  0  0  0  0  0  0
   15.4094   -0.5941   -2.4786 C   0  0  0  0  0  0  0  0  0  0  0  0
   14.6733   -2.6210   -3.5218 O   0  0  0  0  0  0  0  0  0  0  0  0
   12.6001   -3.1193   -2.7750 O   0  0  0  0  0  0  0  0  0  0  0  0
   12.2390   -5.6869   -4.0421 O   0  0  0  0  0  0  0  0  0  0  0  0
   12.2615   -5.4488   -8.7826 O   0  0  0  0  0  0  0  0  0  0  0  0
   13.4335   -2.8514   -9.0548 Cl  0  0  0  0  0  0  0  0  0  0  0  0
   15.8175   -0.3113   -7.5031 O   0  0  0  0  0  0  0  0  0  0  0  0
   18.8699   -3.3412   -1.8496 O   0  0  0  0  0  0  0  0  0  0  0  0
   12.4121   -5.3411   -3.1886 H   0  0  0  0  0  0  0  0  0  0  0  0
   11.8718   -6.2995   -8.8321 H   0  0  0  0  0  0  0  0  0  0  0  0
  1  2  1  0  0  0
  1 19  1  0  0  0
  1 20  2  0  0  0
  2  3  2  0  0  0
  2  7  1  0  0  0
  3  4  1  0  0  0
  3 21  1  0  0  0
  4  5  2  0  0  0
  5  6  1  0  0  0
  5 22  1  0  0  0
  6  7  2  0  0  0
  6 23  1  0  0  0
  7  8  1  0  0  0
  8  9  1  0  0  0
  9 10  1  0  0  0
  9 24  2  0  0  0
 10 11  2  0  0  0
 11 12  1  0  0  0
 12 13  2  0  0  0
 13 14  1  0  0  0
 14 15  1  0  0  0
 14 25  1  0  0  0
 15 16  1  0  0  0
 15 25  1  0  0  0
 16 17  1  0  0  0
 17 18  1  0  0  0
 17 19  1  0  0  0
 21 26  1  0  0  0
 22 27  1  0  0  0
M  END
> <minimizedAffinity>
-7.41850

$$$$
1BGQ_RDC_A_300


 27 29  0  0  0  0  0  0  0  0999 V2000
   11.8213   -3.1588   -3.1038 C   0  0  0  0  0  0  0  0  0  0  0  0
   11.4338   -4.5961   -3.2839 C   0  0  0  0  0  0  0  0  0  0  0  0
   11.5299   -5.4566   -2.1141 C   0  0  0  0  0  0  0  0  0  0  0  0
   11.2095   -6.8109   -2.1631 C   0  0  0  0  0  0  0  0  0  0  0  0
   10.7745   -7.3718   -3.3570 C   0  0  0  0  0  0  0  0  0  0  0  0
   10.6537   -6.5690   -4.5435 C   0  0  0  0  0  0  0  0  0  0  0  0
   10.9711   -5.1892   -4.5376 C   0  0  0  0  0  0  0  0  0  0  0  0
   10.8258   -4.3486   -5.8475 C   0  0  0  0  0  0  0  0  0  0  0  0
   11.7473   -4.6409   -7.0652 C   0  0  0  0  0  0  0  0  0  0  0  0
   13.1382   -5.0830   -6.8652 C   0  0  0  0  0  0  0  0  0  0  0  0
   14.0731   -4.3871   -6.2256 C   0  0  0  0  0  0  0  0  0  0  0  0
   15.4493   -4.8318   -6.0249 C   0  0  0  0  0  0  0  0  0  0  0  0
   16.4023   -4.1514   -5.3853 C   0  0  0  0  0  0  0  0  0  0  0  0
   16.4615   -2.7922   -4.6779 C   0  0  0  0  0  0  0  0  0  0  0  0
   15.5646   -1.6992   -4.9160 C   0  0  0  0  0  0  0  0  0  0  0  0
   14.6397   -1.2710   -3.7805 C   0  0  0  0  0  0  0  0  0  0  0  0
   13.1460   -1.2871   -3.9949 C   0  0  0  0  0  0  0  0  0  0  0  0
   12.6118   -0.6294   -5.2544 C   0  0  0  0  0  0  0  0  0  0  0  0
   12.6585   -2.6861   -4.0271 O   0  0  0  0  0  0  0  0  0  0  0  0
   11.4006   -2.4574   -2.1644 O   0  0  0  0  0  0  0  0  0  0  0  0
   11.9490   -4.9940   -0.9021 O   0  0  0  0  0  0  0  0  0  0  0  0
   10.4495   -8.7089   -3.4478 O   0  0  0  0  0  0  0  0  0  0  0  0
   10.1023   -7.3715   -5.9549 Cl  0  0  0  0  0  0  0  0  0  0  0  0
   11.3262   -4.5325   -8.1877 O   0  0  0  0  0  0  0  0  0  0  0  0
   16.9713   -1.5643   -5.0602 O   0  0  0  0  0  0  0  0  0  0  0  0
   12.1805   -4.0919   -0.7995 H   0  0  0  0  0  0  0  0  0  0  0  0
   10.5173   -9.2599   -2.6930 H   0  0  0  0  0  0  0  0  0  0  0  0
  1  2  1  0  0  0
  1 19  1  0  0  0
  1 20  2  0  0  0
  2  3  2  0  0  0
  2  7  1  0  0  0
  3  4  1  0  0  0
  3 21  1  0  0  0
  4  5  2  0  0  0
  5  6  1  0  0  0
  5 22  1  0  0  0
  6  7  2  0  0  0
  6 23  1  0  0  0
  7  8  1  0  0  0
  8  9  1  0  0  0
  9 10  1  0  0  0
  9 24  2  0  0  0
 10 11  2  0  0  0
 11 12  1  0  0  0
 12 13  2  0  0  0
 13 14  1  0  0  0
 14 15  1  0  0  0
 14 25  1  0  0  0
 15 16  1  0  0  0
 15 25  1  0  0  0
 16 17  1  0  0  0
 17 18  1  0  0  0
 17 19  1  0  0  0
 21 26  1  0  0  0
 22 27  1  0  0  0
M  END
> <minimizedAffinity>
-7.16537

$$$$
1BGQ_RDC_A_300


 27 29  0  0  0  0  0  0  0  0999 V2000
   15.1237   -3.5277   -3.7156 C   0  0  0  0  0  0  0  0  0  0  0  0
   15.4408   -3.4145   -5.1767 C   0  0  0  0  0  0  0  0  0  0  0  0
   16.5864   -2.5942   -5.5413 C   0  0  0  0  0  0  0  0  0  0  0  0
   16.9692   -2.4047   -6.8667 C   0  0  0  0  0  0  0  0  0  0  0  0
   16.2503   -3.0181   -7.8845 C   0  0  0  0  0  0  0  0  0  0  0  0
   15.1135   -3.8452   -7.5840 C   0  0  0  0  0  0  0  0  0  0  0  0
   14.6895   -4.0623   -6.2507 C   0  0  0  0  0  0  0  0  0  0  0  0
   13.4492   -4.9694   -5.9633 C   0  0  0  0  0  0  0  0  0  0  0  0
   12.0346   -4.5227   -6.4290 C   0  0  0  0  0  0  0  0  0  0  0  0
   11.6633   -3.0972   -6.4405 C   0  0  0  0  0  0  0  0  0  0  0  0
   11.6463   -2.3069   -5.3717 C   0  0  0  0  0  0  0  0  0  0  0  0
   11.2828   -0.8927   -5.3887 C   0  0  0  0  0  0  0  0  0  0  0  0
   11.2608   -0.0813   -4.3298 C   0  0  0  0  0  0  0  0  0  0  0  0
   11.5660   -0.2543   -2.8370 C   0  0  0  0  0  0  0  0  0  0  0  0
   11.5446   -1.5017   -2.1304 C   0  0  0  0  0  0  0  0  0  0  0  0
   12.8616   -2.0300   -1.5696 C   0  0  0  0  0  0  0  0  0  0  0  0
   13.3618   -3.3858   -2.0044 C   0  0  0  0  0  0  0  0  0  0  0  0
   12.3806   -4.5430   -1.9570 C   0  0  0  0  0  0  0  0  0  0  0  0
   13.8448   -3.3176   -3.4037 O   0  0  0  0  0  0  0  0  0  0  0  0
   15.9843   -3.7927   -2.8551 O   0  0  0  0  0  0  0  0  0  0  0  0
   17.3486   -1.9527   -4.6106 O   0  0  0  0  0  0  0  0  0  0  0  0
   16.5956   -2.8541   -9.2095 O   0  0  0  0  0  0  0  0  0  0  0  0
   14.3093   -4.5527   -8.9230 Cl  0  0  0  0  0  0  0  0  0  0  0  0
   11.2333   -5.3365   -6.8094 O   0  0  0  0  0  0  0  0  0  0  0  0
   10.7494   -0.3951   -1.7293 O   0  0  0  0  0  0  0  0  0  0  0  0
   17.1458   -2.0376   -3.6997 H   0  0  0  0  0  0  0  0  0  0  0  0
   17.3313   -2.3213   -9.4395 H   0  0  0  0  0  0  0  0  0  0  0  0
  1  2  1  0  0  0
  1 19  1  0  0  0
  1 20  2  0  0  0
  2  3  2  0  0  0
  2  7  1  0  0  0
  3  4  1  0  0  0
  3 21  1  0  0  0
  4  5  2  0  0  0
  5  6  1  0  0  0
  5 22  1  0  0  0
  6  7  2  0  0  0
  6 23  1  0  0  0
  7  8  1  0  0  0
  8  9  1  0  0  0
  9 10  1  0  0  0
  9 24  2  0  0  0
 10 11  2  0  0  0
 11 12  1  0  0  0
 12 13  2  0  0  0
 13 14  1  0  0  0
 14 15  1  0  0  0
 14 25  1  0  0  0
 15 16  1  0  0  0
 15 25  1  0  0  0
 16 17  1  0  0  0
 17 18  1  0  0  0
 17 19  1  0  0  0
 21 26  1  0  0  0
 22 27  1  0  0  0
M  END
> <minimizedAffinity>
-7.11110

$$$$
1BGQ_RDC_A_300


 27 29  0  0  0  0  0  0  0  0999 V2000
   16.1374   -2.1648   -7.7524 C   0  0  0  0  0  0  0  0  0  0  0  0
   15.5536   -0.8360   -8.1288 C   0  0  0  0  0  0  0  0  0  0  0  0
   16.4919    0.2343   -8.4325 C   0  0  0  0  0  0  0  0  0  0  0  0
   16.0675    1.5138   -8.7816 C   0  0  0  0  0  0  0  0  0  0  0  0
   14.7085    1.7913   -8.8550 C   0  0  0  0  0  0  0  0  0  0  0  0
   13.7353    0.7717   -8.5722 C   0  0  0  0  0  0  0  0  0  0  0  0
   14.1240   -0.5412   -8.2117 C   0  0  0  0  0  0  0  0  0  0  0  0
   13.0364   -1.6235   -7.9128 C   0  0  0  0  0  0  0  0  0  0  0  0
   12.1056   -1.4699   -6.6769 C   0  0  0  0  0  0  0  0  0  0  0  0
   12.6027   -0.8541   -5.4345 C   0  0  0  0  0  0  0  0  0  0  0  0
   13.6178   -1.3150   -4.7103 C   0  0  0  0  0  0  0  0  0  0  0  0
   14.1108   -0.6981   -3.4821 C   0  0  0  0  0  0  0  0  0  0  0  0
   15.1279   -1.1419   -2.7413 C   0  0  0  0  0  0  0  0  0  0  0  0
   16.0921   -2.3300   -2.8417 C   0  0  0  0  0  0  0  0  0  0  0  0
   15.8401   -3.5366   -3.5743 C   0  0  0  0  0  0  0  0  0  0  0  0
   16.7219   -3.8387   -4.7822 C   0  0  0  0  0  0  0  0  0  0  0  0
   16.0849   -4.0206   -6.1381 C   0  0  0  0  0  0  0  0  0  0  0  0
   14.8930   -4.9559   -6.2326 C   0  0  0  0  0  0  0  0  0  0  0  0
   15.6183   -2.7118   -6.6532 O   0  0  0  0  0  0  0  0  0  0  0  0
   17.0401   -2.7176   -8.4089 O   0  0  0  0  0  0  0  0  0  0  0  0
   17.8424    0.0545   -8.3842 O   0  0  0  0  0  0  0  0  0  0  0  0
   14.2473    3.0458   -9.1949 O   0  0  0  0  0  0  0  0  0  0  0  0
   12.0885    1.2320   -8.7004 Cl  0  0  0  0  0  0  0  0  0  0  0  0
   10.9585   -1.8311   -6.7297 O   0  0  0  0  0  0  0  0  0  0  0  0
   16.1423   -3.5472   -2.1863 O   0  0  0  0  0  0  0  0  0  0  0  0
   18.1957   -0.7828   -8.1558 H   0  0  0  0  0  0  0  0  0  0  0  0
   14.8554    3.7328   -9.3852 H   0  0  0  0  0  0  0  0  0  0  0  0
  1  2  1  0  0  0
  1 19  1  0  0  0
  1 20  2  0  0  0
  2  3  2  0  0  0
  2  7  1  0  0  0
  3  4  1  0  0  0
  3 21  1  0  0  0
  4  5  2  0  0  0
  5  6  1  0  0  0
  5 22  1  0  0  0
  6  7  2  0  0  0
  6 23  1  0  0  0
  7  8  1  0  0  0
  8  9  1  0  0  0
  9 10  1  0  0  0
  9 24  2  0  0  0
 10 11  2  0  0  0
 11 12  1  0  0  0
 12 13  2  0  0  0
 13 14  1  0  0  0
 14 15  1  0  0  0
 14 25  1  0  0  0
 15 16  1  0  0  0
 15 25  1  0  0  0
 16 17  1  0  0  0
 17 18  1  0  0  0
 17 19  1  0  0  0
 21 26  1  0  0  0
 22 27  1  0  0  0
M  END
> <minimizedAffinity>
-6.94105

$$$$
1BGQ_RDC_A_300


 27 29  0  0  0  0  0  0  0  0999 V2000
   13.2650   -1.0948   -4.3959 C   0  0  0  0  0  0  0  0  0  0  0  0
   13.7078   -1.0027   -5.8254 C   0  0  0  0  0  0  0  0  0  0  0  0
   12.8071   -0.3348   -6.7532 C   0  0  0  0  0  0  0  0  0  0  0  0
   13.1050   -0.2004   -8.1067 C   0  0  0  0  0  0  0  0  0  0  0  0
   14.3000   -0.7069   -8.6014 C   0  0  0  0  0  0  0  0  0  0  0  0
   15.2316   -1.3706   -7.7307 C   0  0  0  0  0  0  0  0  0  0  0  0
   14.9668   -1.5305   -6.3491 C   0  0  0  0  0  0  0  0  0  0  0  0
   16.0049   -2.2569   -5.4336 C   0  0  0  0  0  0  0  0  0  0  0  0
   16.2971   -3.7702   -5.6380 C   0  0  0  0  0  0  0  0  0  0  0  0
   15.2301   -4.6893   -6.0701 C   0  0  0  0  0  0  0  0  0  0  0  0
   14.1049   -4.9174   -5.3997 C   0  0  0  0  0  0  0  0  0  0  0  0
   13.0472   -5.8253   -5.8346 C   0  0  0  0  0  0  0  0  0  0  0  0
   11.9104   -6.0676   -5.1795 C   0  0  0  0  0  0  0  0  0  0  0  0
   11.3005   -5.5673   -3.8645 C   0  0  0  0  0  0  0  0  0  0  0  0
   12.0417   -5.0060   -2.7730 C   0  0  0  0  0  0  0  0  0  0  0  0
   11.8079   -3.5382   -2.4280 C   0  0  0  0  0  0  0  0  0  0  0  0
   12.9705   -2.5763   -2.4539 C   0  0  0  0  0  0  0  0  0  0  0  0
   14.2387   -2.9903   -1.7299 C   0  0  0  0  0  0  0  0  0  0  0  0
   13.3697   -2.3090   -3.8558 O   0  0  0  0  0  0  0  0  0  0  0  0
   12.8282   -0.1178   -3.7587 O   0  0  0  0  0  0  0  0  0  0  0  0
   11.6128    0.1906   -6.3579 O   0  0  0  0  0  0  0  0  0  0  0  0
   14.6314   -0.5961   -9.9355 O   0  0  0  0  0  0  0  0  0  0  0  0
   16.6741   -1.9492   -8.4553 Cl  0  0  0  0  0  0  0  0  0  0  0  0
   17.4069   -4.2047   -5.4688 O   0  0  0  0  0  0  0  0  0  0  0  0
   11.1989   -6.1375   -2.6082 O   0  0  0  0  0  0  0  0  0  0  0  0
   11.3504    0.1344   -5.4602 H   0  0  0  0  0  0  0  0  0  0  0  0
   14.0461   -0.1692  -10.5297 H   0  0  0  0  0  0  0  0  0  0  0  0
  1  2  1  0  0  0
  1 19  1  0  0  0
  1 20  2  0  0  0
  2  3  2  0  0  0
  2  7  1  0  0  0
  3  4  1  0  0  0
  3 21  1  0  0  0
  4  5  2  0  0  0
  5  6  1  0  0  0
  5 22  1  0  0  0
  6  7  2  0  0  0
  6 23  1  0  0  0
  7  8  1  0  0  0
  8  9  1  0  0  0
  9 10  1  0  0  0
  9 24  2  0  0  0
 10 11  2  0  0  0
 11 12  1  0  0  0
 12 13  2  0  0  0
 13 14  1  0  0  0
 14 15  1  0  0  0
 14 25  1  0  0  0
 15 16  1  0  0  0
 15 25  1  0  0  0
 16 17  1  0  0  0
 17 18  1  0  0  0
 17 19  1  0  0  0
 21 26  1  0  0  0
 22 27  1  0  0  0
M  END
> <minimizedAffinity>
-6.90802

$$$$
