4OC3_2QP_A_820


 37 38  0  0  0  0  0  0  0  0999 V2000
   20.0060   45.2903   44.4346 C   0  0  0  0  0  0  0  0  0  0  0  0
   19.0546   45.7149   43.3902 N   0  0  0  0  0  0  0  0  0  0  0  0
   18.0517   44.9817   42.9399 C   0  0  0  0  0  0  0  0  0  0  0  0
   17.8352   43.8639   43.3750 O   0  0  0  0  0  0  0  0  0  0  0  0
   17.2098   45.4922   42.0365 N   0  0  0  0  0  0  0  0  0  0  0  0
   19.1758   46.6105   42.9998 H   0  0  0  0  0  0  0  0  0  0  0  0
   17.2483   46.4461   41.7964 H   0  0  0  0  0  0  0  0  0  0  0  0
   16.2250   44.5999   41.4089 C   0  0  0  0  0  0  0  0  0  0  0  0
   16.7793   44.2512   39.9597 C   0  0  0  0  0  0  0  0  0  0  0  0
   15.9826   43.6708   39.1719 O   0  0  0  0  0  0  0  0  0  0  0  0
   17.9959   44.4975   39.6820 O   0  0  0  0  0  0  0  0  0  0  0  0
   18.5407   44.9322   40.3082 H   0  0  0  0  0  0  0  0  0  0  0  0
   14.8106   45.1803   41.3611 C   0  0  0  0  0  0  0  0  0  0  0  0
   14.6592   46.6133   40.8296 C   0  0  0  0  0  0  0  0  0  0  0  0
   13.5654   47.3297   40.7471 C   0  0  0  0  0  0  0  0  0  0  0  0
   13.8228   48.5250   40.2110 C   0  0  0  0  0  0  0  0  0  0  0  0
   15.0934   48.5988   39.8675 C   0  0  0  0  0  0  0  0  0  0  0  0
   15.6726   47.3716   40.2723 O   0  0  0  0  0  0  0  0  0  0  0  0
   20.0547   46.4155   45.4758 C   0  0  0  0  0  0  0  0  0  0  0  0
   19.2118   47.3487   45.3263 O   0  0  0  0  0  0  0  0  0  0  0  0
   20.9559   46.3408   46.3666 O   0  0  0  0  0  0  0  0  0  0  0  0
   18.5845   47.3065   44.6315 H   0  0  0  0  0  0  0  0  0  0  0  0
   21.3688   45.2621   43.7147 C   0  0  0  0  0  0  0  0  0  0  0  0
   21.6789   46.5635   42.9294 C   0  0  0  0  0  0  0  0  0  0  0  0
   23.1382   46.5226   42.3720 C   0  0  0  0  0  0  0  0  0  0  0  0
   24.0354   47.4207   43.2851 C   0  0  0  0  0  0  0  0  0  0  0  0
   23.1007   49.5690   44.3432 C   0  0  0  0  0  0  0  0  0  0  0  0
   22.3067   50.4131   43.9358 O   0  0  0  0  0  0  0  0  0  0  0  0
   23.2861   48.6291   43.4182 N   0  0  0  0  0  0  0  0  0  0  0  0
   22.7649   48.8190   42.6048 H   0  0  0  0  0  0  0  0  0  0  0  0
   23.5128   48.4669   46.7760 C   0  0  0  0  0  0  0  0  0  0  0  0
   23.5915   48.6292   48.2064 C   0  0  0  0  0  0  0  0  0  0  0  0
   23.4757   49.8480   48.9251 C   0  0  0  0  0  0  0  0  0  0  0  0
   23.5881   50.0201   51.1764 I   0  0  0  0  0  0  0  0  0  0  0  0
   23.2800   50.9202   48.0260 C   0  0  0  0  0  0  0  0  0  0  0  0
   23.1830   50.7896   46.6059 C   0  0  0  0  0  0  0  0  0  0  0  0
   23.3290   49.5557   45.9166 C   0  0  0  0  0  0  0  0  0  0  0  0
 10  9  2  0  0  0
 17 18  1  0  0  0
 17 16  2  0  0  0
 18 14  1  0  0  0
  9 11  1  0  0  0
  9  8  1  0  0  0
 16 15  1  0  0  0
 14 15  2  0  0  0
 14 13  1  0  0  0
 13  8  1  0  0  0
  8  5  1  0  0  0
  4  3  2  0  0  0
  5  3  1  0  0  0
 25 24  1  0  0  0
 25 26  1  0  0  0
  3  2  1  0  0  0
 23 24  1  0  0  0
 23  1  1  0  0  0
 26 29  1  0  0  0
 29 27  1  0  0  0
  2  1  1  0  0  0
 28 27  2  0  0  0
  1 19  1  0  0  0
 27 37  1  0  0  0
 19 21  2  0  0  0
 19 20  1  0  0  0
 37 36  2  0  0  0
 37 31  1  0  0  0
 36 35  1  0  0  0
 31 32  2  0  0  0
 35 33  2  0  0  0
 32 33  1  0  0  0
 33 34  1  0  0  0
 29 30  1  0  0  0
 20 22  1  0  0  0
  2  6  1  0  0  0
  5  7  1  0  0  0
 11 12  1  0  0  0
M  END
> <minimizedAffinity>
-11.41820

$$$$
4OC3_2QP_A_820


 37 38  0  0  0  0  0  0  0  0999 V2000
   19.4361   45.1908   45.0199 C   0  0  0  0  0  0  0  0  0  0  0  0
   18.7802   45.5447   43.7467 N   0  0  0  0  0  0  0  0  0  0  0  0
   17.7687   44.8852   43.2101 C   0  0  0  0  0  0  0  0  0  0  0  0
   17.2895   43.9043   43.7521 O   0  0  0  0  0  0  0  0  0  0  0  0
   17.2072   45.3335   42.0834 N   0  0  0  0  0  0  0  0  0  0  0  0
   19.1212   46.3303   43.2611 H   0  0  0  0  0  0  0  0  0  0  0  0
   17.4503   46.2142   41.7167 H   0  0  0  0  0  0  0  0  0  0  0  0
   16.2192   44.4845   41.4031 C   0  0  0  0  0  0  0  0  0  0  0  0
   16.7700   44.2259   39.9339 C   0  0  0  0  0  0  0  0  0  0  0  0
   16.0135   43.5923   39.1476 O   0  0  0  0  0  0  0  0  0  0  0  0
   17.9513   44.5933   39.6376 O   0  0  0  0  0  0  0  0  0  0  0  0
   18.4671   45.0620   40.2639 H   0  0  0  0  0  0  0  0  0  0  0  0
   14.8061   45.0700   41.3945 C   0  0  0  0  0  0  0  0  0  0  0  0
   14.6451   46.5034   40.8669 C   0  0  0  0  0  0  0  0  0  0  0  0
   13.5333   47.1401   40.5931 C   0  0  0  0  0  0  0  0  0  0  0  0
   13.7921   48.3666   40.1336 C   0  0  0  0  0  0  0  0  0  0  0  0
   15.0947   48.5434   40.0346 C   0  0  0  0  0  0  0  0  0  0  0  0
   15.6824   47.3502   40.5209 O   0  0  0  0  0  0  0  0  0  0  0  0
   19.8594   46.5074   45.6831 C   0  0  0  0  0  0  0  0  0  0  0  0
   19.2111   47.5385   45.3366 O   0  0  0  0  0  0  0  0  0  0  0  0
   20.8437   46.4617   46.4833 O   0  0  0  0  0  0  0  0  0  0  0  0
   18.4963   47.4625   44.7356 H   0  0  0  0  0  0  0  0  0  0  0  0
   20.7188   44.4514   44.5907 C   0  0  0  0  0  0  0  0  0  0  0  0
   21.1967   43.3956   45.6219 C   0  0  0  0  0  0  0  0  0  0  0  0
   22.5205   42.7244   45.1329 C   0  0  0  0  0  0  0  0  0  0  0  0
   23.6518   43.8037   45.1523 C   0  0  0  0  0  0  0  0  0  0  0  0
   23.7657   45.4693   43.1974 C   0  0  0  0  0  0  0  0  0  0  0  0
   23.7311   45.3172   41.9791 O   0  0  0  0  0  0  0  0  0  0  0  0
   23.6839   44.2895   43.8098 N   0  0  0  0  0  0  0  0  0  0  0  0
   23.6312   43.5516   43.1602 H   0  0  0  0  0  0  0  0  0  0  0  0
   23.0638   48.0694   42.9732 C   0  0  0  0  0  0  0  0  0  0  0  0
   22.9310   49.3683   43.5846 C   0  0  0  0  0  0  0  0  0  0  0  0
   23.1838   49.6912   44.9437 C   0  0  0  0  0  0  0  0  0  0  0  0
   22.9740   51.7620   45.8260 I   0  0  0  0  0  0  0  0  0  0  0  0
   23.5831   48.5329   45.6473 C   0  0  0  0  0  0  0  0  0  0  0  0
   23.7381   47.2359   45.0669 C   0  0  0  0  0  0  0  0  0  0  0  0
   23.4516   46.9425   43.7064 C   0  0  0  0  0  0  0  0  0  0  0  0
 10  9  2  0  0  0
 17 18  1  0  0  0
 17 16  2  0  0  0
 18 14  1  0  0  0
  9 11  1  0  0  0
  9  8  1  0  0  0
 16 15  1  0  0  0
 14 15  2  0  0  0
 14 13  1  0  0  0
 13  8  1  0  0  0
  8  5  1  0  0  0
  4  3  2  0  0  0
  5  3  1  0  0  0
 25 24  1  0  0  0
 25 26  1  0  0  0
  3  2  1  0  0  0
 23 24  1  0  0  0
 23  1  1  0  0  0
 26 29  1  0  0  0
 29 27  1  0  0  0
  2  1  1  0  0  0
 28 27  2  0  0  0
  1 19  1  0  0  0
 27 37  1  0  0  0
 19 21  2  0  0  0
 19 20  1  0  0  0
 37 36  2  0  0  0
 37 31  1  0  0  0
 36 35  1  0  0  0
 31 32  2  0  0  0
 35 33  2  0  0  0
 32 33  1  0  0  0
 33 34  1  0  0  0
 29 30  1  0  0  0
 20 22  1  0  0  0
  2  6  1  0  0  0
  5  7  1  0  0  0
 11 12  1  0  0  0
M  END
> <minimizedAffinity>
-10.69357

$$$$
4OC3_2QP_A_820


 37 38  0  0  0  0  0  0  0  0999 V2000
   20.2225   44.5769   44.0209 C   0  0  0  0  0  0  0  0  0  0  0  0
   19.1576   45.2425   43.2468 N   0  0  0  0  0  0  0  0  0  0  0  0
   18.1003   44.6335   42.7396 C   0  0  0  0  0  0  0  0  0  0  0  0
   17.9255   43.4359   42.8844 O   0  0  0  0  0  0  0  0  0  0  0  0
   17.1618   45.3469   42.1104 N   0  0  0  0  0  0  0  0  0  0  0  0
   19.2407   46.2120   43.0971 H   0  0  0  0  0  0  0  0  0  0  0  0
   17.1815   46.3310   42.1297 H   0  0  0  0  0  0  0  0  0  0  0  0
   16.0996   44.6319   41.3890 C   0  0  0  0  0  0  0  0  0  0  0  0
   16.6357   44.3805   39.9132 C   0  0  0  0  0  0  0  0  0  0  0  0
   15.8798   43.7334   39.1374 O   0  0  0  0  0  0  0  0  0  0  0  0
   17.8068   44.7670   39.6013 O   0  0  0  0  0  0  0  0  0  0  0  0
   18.3227   45.2451   40.2203 H   0  0  0  0  0  0  0  0  0  0  0  0
   14.7532   45.3576   41.3977 C   0  0  0  0  0  0  0  0  0  0  0  0
   14.7002   46.7432   40.7373 C   0  0  0  0  0  0  0  0  0  0  0  0
   13.6592   47.3508   40.2240 C   0  0  0  0  0  0  0  0  0  0  0  0
   14.0057   48.5375   39.7199 C   0  0  0  0  0  0  0  0  0  0  0  0
   15.3073   48.7117   39.8354 C   0  0  0  0  0  0  0  0  0  0  0  0
   15.7899   47.5641   40.5105 O   0  0  0  0  0  0  0  0  0  0  0  0
   19.7029   44.4293   45.4564 C   0  0  0  0  0  0  0  0  0  0  0  0
   19.0555   43.3704   45.7076 O   0  0  0  0  0  0  0  0  0  0  0  0
   19.9249   45.3917   46.2538 O   0  0  0  0  0  0  0  0  0  0  0  0
   18.9490   42.7178   45.0437 H   0  0  0  0  0  0  0  0  0  0  0  0
   21.3709   45.6051   44.0442 C   0  0  0  0  0  0  0  0  0  0  0  0
   21.9374   45.9293   42.6369 C   0  0  0  0  0  0  0  0  0  0  0  0
   23.3287   45.2442   42.4444 C   0  0  0  0  0  0  0  0  0  0  0  0
   23.7543   44.6104   43.8091 C   0  0  0  0  0  0  0  0  0  0  0  0
   25.1105   46.5789   44.7549 C   0  0  0  0  0  0  0  0  0  0  0  0
   26.3182   46.7704   44.8706 O   0  0  0  0  0  0  0  0  0  0  0  0
   24.8853   45.3856   44.2081 N   0  0  0  0  0  0  0  0  0  0  0  0
   25.7277   44.9080   44.0307 H   0  0  0  0  0  0  0  0  0  0  0  0
   23.8105   48.7584   43.8258 C   0  0  0  0  0  0  0  0  0  0  0  0
   23.0765   49.9681   44.1025 C   0  0  0  0  0  0  0  0  0  0  0  0
   22.6850   50.4437   45.3815 C   0  0  0  0  0  0  0  0  0  0  0  0
   21.5518   52.3670   45.7381 I   0  0  0  0  0  0  0  0  0  0  0  0
   23.1102   49.5409   46.3817 C   0  0  0  0  0  0  0  0  0  0  0  0
   23.8513   48.3426   46.1406 C   0  0  0  0  0  0  0  0  0  0  0  0
   24.2051   47.8828   44.8435 C   0  0  0  0  0  0  0  0  0  0  0  0
 10  9  2  0  0  0
 17 18  1  0  0  0
 17 16  2  0  0  0
 18 14  1  0  0  0
  9 11  1  0  0  0
  9  8  1  0  0  0
 16 15  1  0  0  0
 14 15  2  0  0  0
 14 13  1  0  0  0
 13  8  1  0  0  0
  8  5  1  0  0  0
  4  3  2  0  0  0
  5  3  1  0  0  0
 25 24  1  0  0  0
 25 26  1  0  0  0
  3  2  1  0  0  0
 23 24  1  0  0  0
 23  1  1  0  0  0
 26 29  1  0  0  0
 29 27  1  0  0  0
  2  1  1  0  0  0
 28 27  2  0  0  0
  1 19  1  0  0  0
 27 37  1  0  0  0
 19 21  2  0  0  0
 19 20  1  0  0  0
 37 36  2  0  0  0
 37 31  1  0  0  0
 36 35  1  0  0  0
 31 32  2  0  0  0
 35 33  2  0  0  0
 32 33  1  0  0  0
 33 34  1  0  0  0
 29 30  1  0  0  0
 20 22  1  0  0  0
  2  6  1  0  0  0
  5  7  1  0  0  0
 11 12  1  0  0  0
M  END
> <minimizedAffinity>
-10.28300

$$$$
4OC3_2QP_A_820


 37 38  0  0  0  0  0  0  0  0999 V2000
   23.1629   46.1332   44.7080 C   0  0  0  0  0  0  0  0  0  0  0  0
   23.7611   47.3035   45.3781 N   0  0  0  0  0  0  0  0  0  0  0  0
   23.0774   48.2495   45.9975 C   0  0  0  0  0  0  0  0  0  0  0  0
   21.8606   48.2169   46.0616 O   0  0  0  0  0  0  0  0  0  0  0  0
   23.7265   49.2323   46.6287 N   0  0  0  0  0  0  0  0  0  0  0  0
   24.7420   47.3857   45.3627 H   0  0  0  0  0  0  0  0  0  0  0  0
   24.7030   49.1938   46.7482 H   0  0  0  0  0  0  0  0  0  0  0  0
   22.9525   50.3718   47.1408 C   0  0  0  0  0  0  0  0  0  0  0  0
   22.8215   51.4123   45.9454 C   0  0  0  0  0  0  0  0  0  0  0  0
   23.7529   52.2544   45.8214 O   0  0  0  0  0  0  0  0  0  0  0  0
   21.7740   51.4037   45.2237 O   0  0  0  0  0  0  0  0  0  0  0  0
   21.1149   50.7523   45.3624 H   0  0  0  0  0  0  0  0  0  0  0  0
   23.5509   51.0082   48.3963 C   0  0  0  0  0  0  0  0  0  0  0  0
   23.2602   50.3187   49.7376 C   0  0  0  0  0  0  0  0  0  0  0  0
   23.6670   50.6754   50.9307 C   0  0  0  0  0  0  0  0  0  0  0  0
   23.2303   49.8169   51.8552 C   0  0  0  0  0  0  0  0  0  0  0  0
   22.5721   48.8314   51.2775 C   0  0  0  0  0  0  0  0  0  0  0  0
   22.5594   49.1368   49.8947 O   0  0  0  0  0  0  0  0  0  0  0  0
   24.2324   45.0339   44.6942 C   0  0  0  0  0  0  0  0  0  0  0  0
   25.4356   45.4284   44.6788 O   0  0  0  0  0  0  0  0  0  0  0  0
   23.8261   43.8320   44.6553 O   0  0  0  0  0  0  0  0  0  0  0  0
   25.6287   46.3448   44.7116 H   0  0  0  0  0  0  0  0  0  0  0  0
   22.9531   46.5978   43.2532 C   0  0  0  0  0  0  0  0  0  0  0  0
   21.7026   45.9733   42.5804 C   0  0  0  0  0  0  0  0  0  0  0  0
   20.7811   45.3168   43.6584 C   0  0  0  0  0  0  0  0  0  0  0  0
   19.3966   46.0431   43.6256 C   0  0  0  0  0  0  0  0  0  0  0  0
   17.4408   44.6234   42.7493 C   0  0  0  0  0  0  0  0  0  0  0  0
   16.9302   43.5816   43.1525 O   0  0  0  0  0  0  0  0  0  0  0  0
   18.4523   44.9752   43.5409 N   0  0  0  0  0  0  0  0  0  0  0  0
   18.5852   44.3211   44.2646 H   0  0  0  0  0  0  0  0  0  0  0  0
   16.9137   46.5442   40.9228 C   0  0  0  0  0  0  0  0  0  0  0  0
   15.9428   47.2801   40.1518 C   0  0  0  0  0  0  0  0  0  0  0  0
   14.5408   47.0588   40.1280 C   0  0  0  0  0  0  0  0  0  0  0  0
   13.0756   48.2725   38.9070 I   0  0  0  0  0  0  0  0  0  0  0  0
   14.2095   45.9785   40.9762 C   0  0  0  0  0  0  0  0  0  0  0  0
   15.1462   45.2396   41.7636 C   0  0  0  0  0  0  0  0  0  0  0  0
   16.5479   45.4719   41.7440 C   0  0  0  0  0  0  0  0  0  0  0  0
 10  9  2  0  0  0
 17 18  1  0  0  0
 17 16  2  0  0  0
 18 14  1  0  0  0
  9 11  1  0  0  0
  9  8  1  0  0  0
 16 15  1  0  0  0
 14 15  2  0  0  0
 14 13  1  0  0  0
 13  8  1  0  0  0
  8  5  1  0  0  0
  4  3  2  0  0  0
  5  3  1  0  0  0
 25 24  1  0  0  0
 25 26  1  0  0  0
  3  2  1  0  0  0
 23 24  1  0  0  0
 23  1  1  0  0  0
 26 29  1  0  0  0
 29 27  1  0  0  0
  2  1  1  0  0  0
 28 27  2  0  0  0
  1 19  1  0  0  0
 27 37  1  0  0  0
 19 21  2  0  0  0
 19 20  1  0  0  0
 37 36  2  0  0  0
 37 31  1  0  0  0
 36 35  1  0  0  0
 31 32  2  0  0  0
 35 33  2  0  0  0
 32 33  1  0  0  0
 33 34  1  0  0  0
 29 30  1  0  0  0
 20 22  1  0  0  0
  2  6  1  0  0  0
  5  7  1  0  0  0
 11 12  1  0  0  0
M  END
> <minimizedAffinity>
-9.75607

$$$$
4OC3_2QP_A_820


 37 38  0  0  0  0  0  0  0  0999 V2000
   24.9591   46.2033   44.5144 C   0  0  0  0  0  0  0  0  0  0  0  0
   24.7909   47.6596   44.6792 N   0  0  0  0  0  0  0  0  0  0  0  0
   23.9749   48.2316   45.5470 C   0  0  0  0  0  0  0  0  0  0  0  0
   23.2816   47.5699   46.3000 O   0  0  0  0  0  0  0  0  0  0  0  0
   23.9506   49.5631   45.6570 N   0  0  0  0  0  0  0  0  0  0  0  0
   25.3262   48.2489   44.0999 H   0  0  0  0  0  0  0  0  0  0  0  0
   24.6197   50.1178   45.1946 H   0  0  0  0  0  0  0  0  0  0  0  0
   22.9041   50.1822   46.4825 C   0  0  0  0  0  0  0  0  0  0  0  0
   22.0247   51.0823   45.5102 C   0  0  0  0  0  0  0  0  0  0  0  0
   21.6434   50.5482   44.4326 O   0  0  0  0  0  0  0  0  0  0  0  0
   21.8069   52.2983   45.8136 O   0  0  0  0  0  0  0  0  0  0  0  0
   22.1150   52.6399   46.6299 H   0  0  0  0  0  0  0  0  0  0  0  0
   23.4473   50.9776   47.6707 C   0  0  0  0  0  0  0  0  0  0  0  0
   23.2537   50.3696   49.0678 C   0  0  0  0  0  0  0  0  0  0  0  0
   23.7140   50.8154   50.2104 C   0  0  0  0  0  0  0  0  0  0  0  0
   23.3571   50.0072   51.2113 C   0  0  0  0  0  0  0  0  0  0  0  0
   22.7004   48.9674   50.7365 C   0  0  0  0  0  0  0  0  0  0  0  0
   22.6014   49.1808   49.3400 O   0  0  0  0  0  0  0  0  0  0  0  0
   26.4366   45.9611   44.1814 C   0  0  0  0  0  0  0  0  0  0  0  0
   26.9137   46.6518   43.2333 O   0  0  0  0  0  0  0  0  0  0  0  0
   27.0406   45.0658   44.8483 O   0  0  0  0  0  0  0  0  0  0  0  0
   26.3795   47.2911   42.8044 H   0  0  0  0  0  0  0  0  0  0  0  0
   24.1363   45.8686   43.2545 C   0  0  0  0  0  0  0  0  0  0  0  0
   23.1336   44.7036   43.4639 C   0  0  0  0  0  0  0  0  0  0  0  0
   23.5175   43.8837   44.7377 C   0  0  0  0  0  0  0  0  0  0  0  0
   22.2229   43.2004   45.2876 C   0  0  0  0  0  0  0  0  0  0  0  0
   20.3210   44.8518   45.8018 C   0  0  0  0  0  0  0  0  0  0  0  0
   20.2236   45.7759   46.6052 O   0  0  0  0  0  0  0  0  0  0  0  0
   21.5129   44.2687   45.9154 N   0  0  0  0  0  0  0  0  0  0  0  0
   22.0509   44.6880   46.6253 H   0  0  0  0  0  0  0  0  0  0  0  0
   18.2110   44.0071   44.3398 C   0  0  0  0  0  0  0  0  0  0  0  0
   17.4228   44.1112   43.1372 C   0  0  0  0  0  0  0  0  0  0  0  0
   17.6082   45.0459   42.0849 C   0  0  0  0  0  0  0  0  0  0  0  0
   16.3416   45.1330   40.2145 I   0  0  0  0  0  0  0  0  0  0  0  0
   18.6939   45.8990   42.3847 C   0  0  0  0  0  0  0  0  0  0  0  0
   19.5027   45.8115   43.5600 C   0  0  0  0  0  0  0  0  0  0  0  0
   19.2728   44.8785   44.6067 C   0  0  0  0  0  0  0  0  0  0  0  0
 10  9  2  0  0  0
 17 18  1  0  0  0
 17 16  2  0  0  0
 18 14  1  0  0  0
  9 11  1  0  0  0
  9  8  1  0  0  0
 16 15  1  0  0  0
 14 15  2  0  0  0
 14 13  1  0  0  0
 13  8  1  0  0  0
  8  5  1  0  0  0
  4  3  2  0  0  0
  5  3  1  0  0  0
 25 24  1  0  0  0
 25 26  1  0  0  0
  3  2  1  0  0  0
 23 24  1  0  0  0
 23  1  1  0  0  0
 26 29  1  0  0  0
 29 27  1  0  0  0
  2  1  1  0  0  0
 28 27  2  0  0  0
  1 19  1  0  0  0
 27 37  1  0  0  0
 19 21  2  0  0  0
 19 20  1  0  0  0
 37 36  2  0  0  0
 37 31  1  0  0  0
 36 35  1  0  0  0
 31 32  2  0  0  0
 35 33  2  0  0  0
 32 33  1  0  0  0
 33 34  1  0  0  0
 29 30  1  0  0  0
 20 22  1  0  0  0
  2  6  1  0  0  0
  5  7  1  0  0  0
 11 12  1  0  0  0
M  END
> <minimizedAffinity>
-9.70019

$$$$
4OC3_2QP_A_820


 37 38  0  0  0  0  0  0  0  0999 V2000
   22.2290   45.9314   44.8192 C   0  0  0  0  0  0  0  0  0  0  0  0
   23.0505   47.0620   45.2915 N   0  0  0  0  0  0  0  0  0  0  0  0
   22.5960   48.0814   45.9988 C   0  0  0  0  0  0  0  0  0  0  0  0
   21.4236   48.1583   46.3233 O   0  0  0  0  0  0  0  0  0  0  0  0
   23.4436   49.0197   46.4309 N   0  0  0  0  0  0  0  0  0  0  0  0
   24.0081   47.0567   45.0628 H   0  0  0  0  0  0  0  0  0  0  0  0
   24.4164   48.8983   46.3403 H   0  0  0  0  0  0  0  0  0  0  0  0
   22.8935   50.2368   47.0441 C   0  0  0  0  0  0  0  0  0  0  0  0
   22.7366   51.3074   45.8788 C   0  0  0  0  0  0  0  0  0  0  0  0
   23.6596   52.1598   45.7632 O   0  0  0  0  0  0  0  0  0  0  0  0
   21.6784   51.3096   45.1728 O   0  0  0  0  0  0  0  0  0  0  0  0
   21.0263   50.6496   45.3040 H   0  0  0  0  0  0  0  0  0  0  0  0
   23.7283   50.7707   48.2092 C   0  0  0  0  0  0  0  0  0  0  0  0
   23.3774   50.2594   49.6143 C   0  0  0  0  0  0  0  0  0  0  0  0
   23.6923   50.7951   50.7676 C   0  0  0  0  0  0  0  0  0  0  0  0
   23.2292   50.0525   51.7758 C   0  0  0  0  0  0  0  0  0  0  0  0
   22.6476   48.9676   51.3041 C   0  0  0  0  0  0  0  0  0  0  0  0
   22.7131   49.0790   49.8938 O   0  0  0  0  0  0  0  0  0  0  0  0
   23.1937   44.7807   44.5066 C   0  0  0  0  0  0  0  0  0  0  0  0
   23.7696   44.2514   45.5025 O   0  0  0  0  0  0  0  0  0  0  0  0
   23.3663   44.4865   43.2839 O   0  0  0  0  0  0  0  0  0  0  0  0
   23.5690   44.5440   46.3697 H   0  0  0  0  0  0  0  0  0  0  0  0
   21.6422   46.4241   43.4816 C   0  0  0  0  0  0  0  0  0  0  0  0
   20.0933   46.3587   43.4259 C   0  0  0  0  0  0  0  0  0  0  0  0
   19.5973   44.9407   43.8565 C   0  0  0  0  0  0  0  0  0  0  0  0
   18.0855   44.8156   43.4771 C   0  0  0  0  0  0  0  0  0  0  0  0
   17.5065   45.1475   40.9945 C   0  0  0  0  0  0  0  0  0  0  0  0
   17.8811   44.5744   39.9748 O   0  0  0  0  0  0  0  0  0  0  0  0
   18.1030   44.6210   42.0625 N   0  0  0  0  0  0  0  0  0  0  0  0
   18.7253   43.9021   41.8073 H   0  0  0  0  0  0  0  0  0  0  0  0
   14.8470   45.6093   41.1270 C   0  0  0  0  0  0  0  0  0  0  0  0
   13.7270   46.4648   40.8234 C   0  0  0  0  0  0  0  0  0  0  0  0
   13.7833   47.7411   40.2043 C   0  0  0  0  0  0  0  0  0  0  0  0
   11.9762   49.0171   39.7391 I   0  0  0  0  0  0  0  0  0  0  0  0
   15.1260   48.0825   39.9267 C   0  0  0  0  0  0  0  0  0  0  0  0
   16.2553   47.2506   40.2019 C   0  0  0  0  0  0  0  0  0  0  0  0
   16.1647   45.9876   40.8466 C   0  0  0  0  0  0  0  0  0  0  0  0
 10  9  2  0  0  0
 17 18  1  0  0  0
 17 16  2  0  0  0
 18 14  1  0  0  0
  9 11  1  0  0  0
  9  8  1  0  0  0
 16 15  1  0  0  0
 14 15  2  0  0  0
 14 13  1  0  0  0
 13  8  1  0  0  0
  8  5  1  0  0  0
  4  3  2  0  0  0
  5  3  1  0  0  0
 25 24  1  0  0  0
 25 26  1  0  0  0
  3  2  1  0  0  0
 23 24  1  0  0  0
 23  1  1  0  0  0
 26 29  1  0  0  0
 29 27  1  0  0  0
  2  1  1  0  0  0
 28 27  2  0  0  0
  1 19  1  0  0  0
 27 37  1  0  0  0
 19 21  2  0  0  0
 19 20  1  0  0  0
 37 36  2  0  0  0
 37 31  1  0  0  0
 36 35  1  0  0  0
 31 32  2  0  0  0
 35 33  2  0  0  0
 32 33  1  0  0  0
 33 34  1  0  0  0
 29 30  1  0  0  0
 20 22  1  0  0  0
  2  6  1  0  0  0
  5  7  1  0  0  0
 11 12  1  0  0  0
M  END
> <minimizedAffinity>
-9.47998

$$$$
4OC3_2QP_A_820


 37 38  0  0  0  0  0  0  0  0999 V2000
   19.8509   44.4529   44.1379 C   0  0  0  0  0  0  0  0  0  0  0  0
   18.4731   44.0468   43.8015 N   0  0  0  0  0  0  0  0  0  0  0  0
   17.7758   44.5159   42.7819 C   0  0  0  0  0  0  0  0  0  0  0  0
   18.2420   45.3454   42.0200 O   0  0  0  0  0  0  0  0  0  0  0  0
   16.5572   44.0284   42.5310 N   0  0  0  0  0  0  0  0  0  0  0  0
   18.0414   43.3769   44.3794 H   0  0  0  0  0  0  0  0  0  0  0  0
   16.2227   43.2386   43.0142 H   0  0  0  0  0  0  0  0  0  0  0  0
   15.7267   44.6958   41.5187 C   0  0  0  0  0  0  0  0  0  0  0  0
   16.0035   43.9571   40.1379 C   0  0  0  0  0  0  0  0  0  0  0  0
   16.9093   44.4429   39.4061 O   0  0  0  0  0  0  0  0  0  0  0  0
   15.2703   42.9744   39.7990 O   0  0  0  0  0  0  0  0  0  0  0  0
   14.6125   42.6565   40.3856 H   0  0  0  0  0  0  0  0  0  0  0  0
   15.9645   46.2038   41.4238 C   0  0  0  0  0  0  0  0  0  0  0  0
   14.9172   47.0315   40.6641 C   0  0  0  0  0  0  0  0  0  0  0  0
   13.6125   46.9638   40.7617 C   0  0  0  0  0  0  0  0  0  0  0  0
   13.0307   47.8273   39.9262 C   0  0  0  0  0  0  0  0  0  0  0  0
   13.9478   48.4442   39.2077 C   0  0  0  0  0  0  0  0  0  0  0  0
   15.1931   47.9588   39.6759 O   0  0  0  0  0  0  0  0  0  0  0  0
   20.0775   44.0817   45.6087 C   0  0  0  0  0  0  0  0  0  0  0  0
   20.5111   42.9121   45.8269 O   0  0  0  0  0  0  0  0  0  0  0  0
   19.7727   44.9540   46.4790 O   0  0  0  0  0  0  0  0  0  0  0  0
   20.7070   42.3435   45.1084 H   0  0  0  0  0  0  0  0  0  0  0  0
   19.8244   45.9914   44.0441 C   0  0  0  0  0  0  0  0  0  0  0  0
   21.1289   46.5966   43.4621 C   0  0  0  0  0  0  0  0  0  0  0  0
   21.3499   48.0395   44.0200 C   0  0  0  0  0  0  0  0  0  0  0  0
   22.5503   48.6822   43.2511 C   0  0  0  0  0  0  0  0  0  0  0  0
   24.1710   47.9104   45.0913 C   0  0  0  0  0  0  0  0  0  0  0  0
   25.2588   47.3415   45.0490 O   0  0  0  0  0  0  0  0  0  0  0  0
   23.7004   48.0930   43.8589 N   0  0  0  0  0  0  0  0  0  0  0  0
   24.3117   47.7204   43.1830 H   0  0  0  0  0  0  0  0  0  0  0  0
   23.3027   49.9186   46.6776 C   0  0  0  0  0  0  0  0  0  0  0  0
   23.1766   50.4796   47.9997 C   0  0  0  0  0  0  0  0  0  0  0  0
   23.5816   49.8713   49.2168 C   0  0  0  0  0  0  0  0  0  0  0  0
   23.3707   50.8259   51.2551 I   0  0  0  0  0  0  0  0  0  0  0  0
   24.1310   48.5956   48.9578 C   0  0  0  0  0  0  0  0  0  0  0  0
   24.2829   48.0187   47.6588 C   0  0  0  0  0  0  0  0  0  0  0  0
   23.8427   48.6458   46.4621 C   0  0  0  0  0  0  0  0  0  0  0  0
 10  9  2  0  0  0
 17 18  1  0  0  0
 17 16  2  0  0  0
 18 14  1  0  0  0
  9 11  1  0  0  0
  9  8  1  0  0  0
 16 15  1  0  0  0
 14 15  2  0  0  0
 14 13  1  0  0  0
 13  8  1  0  0  0
  8  5  1  0  0  0
  4  3  2  0  0  0
  5  3  1  0  0  0
 25 24  1  0  0  0
 25 26  1  0  0  0
  3  2  1  0  0  0
 23 24  1  0  0  0
 23  1  1  0  0  0
 26 29  1  0  0  0
 29 27  1  0  0  0
  2  1  1  0  0  0
 28 27  2  0  0  0
  1 19  1  0  0  0
 27 37  1  0  0  0
 19 21  2  0  0  0
 19 20  1  0  0  0
 37 36  2  0  0  0
 37 31  1  0  0  0
 36 35  1  0  0  0
 31 32  2  0  0  0
 35 33  2  0  0  0
 32 33  1  0  0  0
 33 34  1  0  0  0
 29 30  1  0  0  0
 20 22  1  0  0  0
  2  6  1  0  0  0
  5  7  1  0  0  0
 11 12  1  0  0  0
M  END
> <minimizedAffinity>
-8.76442

$$$$
4OC3_2QP_A_820


 37 38  0  0  0  0  0  0  0  0999 V2000
   22.2169   49.8340   44.4718 C   0  0  0  0  0  0  0  0  0  0  0  0
   22.9844   48.8659   45.2781 N   0  0  0  0  0  0  0  0  0  0  0  0
   23.6730   47.8515   44.7854 C   0  0  0  0  0  0  0  0  0  0  0  0
   23.7246   47.6402   43.5860 O   0  0  0  0  0  0  0  0  0  0  0  0
   24.3870   47.0738   45.6045 N   0  0  0  0  0  0  0  0  0  0  0  0
   22.9836   48.9845   46.2554 H   0  0  0  0  0  0  0  0  0  0  0  0
   24.5108   47.3197   46.5498 H   0  0  0  0  0  0  0  0  0  0  0  0
   24.9836   45.8438   45.0652 C   0  0  0  0  0  0  0  0  0  0  0  0
   26.2881   46.2782   44.2662 C   0  0  0  0  0  0  0  0  0  0  0  0
   27.3721   46.2877   44.9119 O   0  0  0  0  0  0  0  0  0  0  0  0
   26.1803   46.6608   43.0579 O   0  0  0  0  0  0  0  0  0  0  0  0
   25.3475   46.6308   42.6295 H   0  0  0  0  0  0  0  0  0  0  0  0
   24.0253   45.0219   44.2015 C   0  0  0  0  0  0  0  0  0  0  0  0
   22.9454   44.2100   44.9320 C   0  0  0  0  0  0  0  0  0  0  0  0
   22.8782   42.9101   45.0799 C   0  0  0  0  0  0  0  0  0  0  0  0
   21.7799   42.5678   45.7575 C   0  0  0  0  0  0  0  0  0  0  0  0
   21.0606   43.6412   46.0186 C   0  0  0  0  0  0  0  0  0  0  0  0
   21.8017   44.7340   45.5065 O   0  0  0  0  0  0  0  0  0  0  0  0
   22.3165   51.1868   45.1876 C   0  0  0  0  0  0  0  0  0  0  0  0
   21.2404   51.8481   45.2796 O   0  0  0  0  0  0  0  0  0  0  0  0
   23.4666   51.5474   45.5855 O   0  0  0  0  0  0  0  0  0  0  0  0
   20.4398   51.4881   44.9519 H   0  0  0  0  0  0  0  0  0  0  0  0
   20.7579   49.3504   44.5896 C   0  0  0  0  0  0  0  0  0  0  0  0
   20.6319   47.8243   44.8374 C   0  0  0  0  0  0  0  0  0  0  0  0
   19.5816   47.2040   43.8605 C   0  0  0  0  0  0  0  0  0  0  0  0
   20.2357   45.9685   43.1599 C   0  0  0  0  0  0  0  0  0  0  0  0
   18.1272   44.5606   42.7352 C   0  0  0  0  0  0  0  0  0  0  0  0
   17.6671   43.5708   43.2986 O   0  0  0  0  0  0  0  0  0  0  0  0
   19.2655   44.9326   43.3177 N   0  0  0  0  0  0  0  0  0  0  0  0
   19.5026   44.3294   44.0588 H   0  0  0  0  0  0  0  0  0  0  0  0
   17.3111   46.5028   41.0425 C   0  0  0  0  0  0  0  0  0  0  0  0
   16.2298   47.1767   40.3677 C   0  0  0  0  0  0  0  0  0  0  0  0
   14.8556   46.8239   40.4143 C   0  0  0  0  0  0  0  0  0  0  0  0
   13.2107   47.9461   39.3440 I   0  0  0  0  0  0  0  0  0  0  0  0
   14.6796   45.6797   41.2243 C   0  0  0  0  0  0  0  0  0  0  0  0
   15.7281   44.9988   41.9173 C   0  0  0  0  0  0  0  0  0  0  0  0
   17.0983   45.3645   41.8280 C   0  0  0  0  0  0  0  0  0  0  0  0
 10  9  2  0  0  0
 17 18  1  0  0  0
 17 16  2  0  0  0
 18 14  1  0  0  0
  9 11  1  0  0  0
  9  8  1  0  0  0
 16 15  1  0  0  0
 14 15  2  0  0  0
 14 13  1  0  0  0
 13  8  1  0  0  0
  8  5  1  0  0  0
  4  3  2  0  0  0
  5  3  1  0  0  0
 25 24  1  0  0  0
 25 26  1  0  0  0
  3  2  1  0  0  0
 23 24  1  0  0  0
 23  1  1  0  0  0
 26 29  1  0  0  0
 29 27  1  0  0  0
  2  1  1  0  0  0
 28 27  2  0  0  0
  1 19  1  0  0  0
 27 37  1  0  0  0
 19 21  2  0  0  0
 19 20  1  0  0  0
 37 36  2  0  0  0
 37 31  1  0  0  0
 36 35  1  0  0  0
 31 32  2  0  0  0
 35 33  2  0  0  0
 32 33  1  0  0  0
 33 34  1  0  0  0
 29 30  1  0  0  0
 20 22  1  0  0  0
  2  6  1  0  0  0
  5  7  1  0  0  0
 11 12  1  0  0  0
M  END
> <minimizedAffinity>
-8.46114

$$$$
