3T60_DUA_A_182
  RCSB PDB12061710503D
Coordinates from PDB:3T60:A:182 Model:1 without hydrogens
 35 39  0  0  0  0            999 V2000
   -5.6520   25.7220   -1.0160   N 0  0  0  0  0  0  0  0  0  0  0  0
   -9.0410   28.3750    0.5650   O 0  0  0  0  0  0  0  0  0  0  0  0
   -5.1560   24.5720   -1.6280   C 0  0  0  0  0  0  0  0  0  0  0  0
   -9.2460   26.9770   -3.9140   N 0  0  0  0  0  0  0  0  0  0  0  0
   -5.8610   23.5750   -1.6300   O 0  0  0  0  0  0  0  0  0  0  0  0
   -3.9330   24.5570   -2.1750   N 0  0  0  0  0  0  0  0  0  0  0  0
   -3.1820   25.6630   -2.1410   C 0  0  0  0  0  0  0  0  0  0  0  0
   -2.0680   25.6520   -2.6660   O 0  0  0  0  0  0  0  0  0  0  0  0
   -3.6510   26.8560   -1.5580   C 0  0  0  0  0  0  0  0  0  0  0  0
   -4.9260   26.8740   -0.9960   C 0  0  0  0  0  0  0  0  0  0  0  0
   -6.9960   25.7970   -0.5180   C 0  0  0  0  0  0  0  0  0  0  0  0
   -8.7140   27.4210   -5.1760   C 0  0  0  0  0  0  0  0  0  0  0  0
   -9.5340   26.4380   -6.0870   C 0  0  0  0  0  0  0  0  0  0  0  0
  -10.8330   26.0010   -5.7150   C 0  0  0  0  0  0  0  0  0  0  0  0
   -7.4030   26.5020    0.7230   C 0  0  0  0  0  0  0  0  0  0  0  0
  -11.6090   25.1370   -6.5420   C 0  0  0  0  0  0  0  0  0  0  0  0
  -11.1410   24.6460   -7.7600   C 0  0  0  0  0  0  0  0  0  0  0  0
   -9.8590   25.0720   -8.1510   C 0  0  0  0  0  0  0  0  0  0  0  0
   -9.1120   25.9460   -7.3370   C 0  0  0  0  0  0  0  0  0  0  0  0
   -7.2600   27.2370   -5.3730   C 0  0  0  0  0  0  0  0  0  0  0  0
   -6.2920   28.2180   -5.6750   C 0  0  0  0  0  0  0  0  0  0  0  0
   -4.9290   27.9200   -5.6980   C 0  0  0  0  0  0  0  0  0  0  0  0
   -4.5070   26.6340   -5.4300   C 0  0  0  0  0  0  0  0  0  0  0  0
   -5.4380   25.6500   -5.1130   C 0  0  0  0  0  0  0  0  0  0  0  0
   -6.7980   25.9400   -5.0600   C 0  0  0  0  0  0  0  0  0  0  0  0
   -8.1150   27.5720   -0.1510   C 0  0  0  0  0  0  0  0  0  0  0  0
   -9.1990   28.7660   -5.7100   C 0  0  0  0  0  0  0  0  0  0  0  0
   -9.3860   29.8140   -4.8000   C 0  0  0  0  0  0  0  0  0  0  0  0
   -9.8450   31.0780   -5.1940   C 0  0  0  0  0  0  0  0  0  0  0  0
  -10.1150   31.3640   -6.5390   C 0  0  0  0  0  0  0  0  0  0  0  0
   -9.9170   30.3790   -7.4980   C 0  0  0  0  0  0  0  0  0  0  0  0
   -9.4340   29.1210   -7.0620   C 0  0  0  0  0  0  0  0  0  0  0  0
   -8.8120   26.8910   -1.3450   C 0  0  0  0  0  0  0  0  0  0  0  0
   -8.0780   25.6840   -1.4460   O 0  0  0  0  0  0  0  0  0  0  0  0
   -8.7670   27.6680   -2.6810   C 0  0  0  0  0  0  0  0  0  0  0  0
  3  1  1  0  0  0  0
 10  1  1  0  0  0  0
  1 11  1  0  0  0  0
 26  2  1  0  0  0  0
  6  3  1  0  0  0  0
  3  5  2  0  0  0  0
 12  4  1  0  0  0  0
  4 35  1  0  0  0  0
  7  6  1  0  0  0  0
  8  7  2  0  0  0  0
  7  9  1  0  0  0  0
  9 10  2  0  0  0  0
 34 11  1  0  0  0  0
 11 15  1  0  0  0  0
 27 12  1  0  0  0  0
 13 12  1  0  0  0  0
 20 12  1  0  0  0  0
 19 13  2  0  0  0  0
 13 14  1  0  0  0  0
 16 14  2  0  0  0  0
 26 15  1  0  0  0  0
 17 16  1  0  0  0  0
 18 17  2  0  0  0  0
 18 19  1  0  0  0  0
 21 20  2  0  0  0  0
 20 25  1  0  0  0  0
 22 21  1  0  0  0  0
 22 23  2  0  0  0  0
 23 24  1  0  0  0  0
 24 25  2  0  0  0  0
 33 26  1  0  0  0  0
 32 27  2  0  0  0  0
 27 28  1  0  0  0  0
 29 28  2  0  0  0  0
 30 29  1  0  0  0  0
 31 30  2  0  0  0  0
 31 32  1  0  0  0  0
 35 33  1  0  0  0  0
 33 34  1  0  0  0  0
A    1
N1
A    2
O1
A    3
C2
A    4
N2
A    5
O2
A    6
N3
A    7
C4
A    8
O4
A    9
C5
A   10
C6
A   11
C1'
A   12
C17
A   13
C18
A   14
C19
A   15
C2'
A   16
C20
A   17
C21
A   18
C22
A   19
C23
A   20
C24
A   21
C25
A   22
C26
A   23
C27
A   24
C28
A   25
C29
A   26
C3'
A   27
C30
A   28
C31
A   29
C32
A   30
C33
A   31
C34
A   32
C35
A   33
C4'
A   34
O4'
A   35
C5'
M  END
>  <InstanceId>
3T60_DUA_A_182

>  <ChemCompId>
DUA

>  <PdbId>
3T60

>  <ChainId>
A

>  <ResidueNumber>
182

>  <InsertionCode>


>  <Model>
1

>  <AltIds>


>  <MissingHeavyAtoms>
0

>  <ObservedFormula>
C28 N3 O4

>  <Name>
2',5'-dideoxy-5'-(tritylamino)uridine

>  <SystematicName>
1-[(2R,4S,5R)-4-oxidanyl-5-[[(triphenylmethyl)amino]methyl]oxolan-2-yl]pyrimidine-2,4-dione

>  <Synonyms>


>  <Type>
NON-POLYMER

>  <Formula>
C28 H27 N3 O4

>  <MolecularWeight>
469.532

>  <ModifiedDate>
2012-08-24

>  <Parent>


>  <OneLetterCode>


>  <SubcomponentList>


>  <AmbiguousFlag>
N

>  <InChI>
InChI=1S/C28H27N3O4/c32-23-18-26(31-17-16-25(33)30-27(31)34)35-24(23)19-29-28(20-10-4-1-5-11-20,21-12-6-2-7-13-21)22-14-8-3-9-15-22/h1-17,23-24,26,29,32H,18-19H2,(H,30,33,34)/t23-,24+,26+/m0/s1

>  <InChIKey>
TUZNCXRMWDUVNX-BFLUCZKCSA-N

>  <SMILES>
c1ccc(cc1)C(c2ccccc2)(c3ccccc3)NC[C@@H]4[C@H](C[C@@H](O4)N5C=CC(=O)NC5=O)O

$$$$
