3T60_DUA_A_182


 38 42  0  0  0  0  0  0  0  0999 V2000
   -9.2463   27.3021   -4.1753 N   0  0  0  0  0  0  0  0  0  0  0  0
   -9.4472   26.3090   -4.0577 H   0  0  0  0  0  0  0  0  0  0  0  0
   -8.5822   27.4602   -5.4428 C   0  0  0  0  0  0  0  0  0  0  0  0
   -9.4241   26.3963   -6.2352 C   0  0  0  0  0  0  0  0  0  0  0  0
  -10.5213   25.7277   -5.6303 C   0  0  0  0  0  0  0  0  0  0  0  0
  -11.3205   24.7844   -6.3404 C   0  0  0  0  0  0  0  0  0  0  0  0
  -11.0697   24.4384   -7.6674 C   0  0  0  0  0  0  0  0  0  0  0  0
   -9.9914   25.0942   -8.2881 C   0  0  0  0  0  0  0  0  0  0  0  0
   -9.2247   26.0430   -7.5835 C   0  0  0  0  0  0  0  0  0  0  0  0
   -7.1423   27.1245   -5.4722 C   0  0  0  0  0  0  0  0  0  0  0  0
   -6.0588   27.9682   -5.7960 C   0  0  0  0  0  0  0  0  0  0  0  0
   -4.7355   27.5508   -5.6485 C   0  0  0  0  0  0  0  0  0  0  0  0
   -4.4686   26.2791   -5.1845 C   0  0  0  0  0  0  0  0  0  0  0  0
   -5.5171   25.4312   -4.8419 C   0  0  0  0  0  0  0  0  0  0  0  0
   -6.8408   25.8444   -4.9585 C   0  0  0  0  0  0  0  0  0  0  0  0
   -8.8938   28.7185   -6.2484 C   0  0  0  0  0  0  0  0  0  0  0  0
   -9.9893   29.5008   -5.8618 C   0  0  0  0  0  0  0  0  0  0  0  0
  -10.3630   30.6626   -6.5504 C   0  0  0  0  0  0  0  0  0  0  0  0
   -9.6311   31.1167   -7.6558 C   0  0  0  0  0  0  0  0  0  0  0  0
   -8.5121   30.4061   -8.0706 C   0  0  0  0  0  0  0  0  0  0  0  0
   -8.1563   29.2482   -7.3367 C   0  0  0  0  0  0  0  0  0  0  0  0
   -8.5207   27.7585   -2.9536 C   0  0  0  0  0  0  0  0  0  0  0  0
   -9.0959   28.4669    0.2524 O   0  0  0  0  0  0  0  0  0  0  0  0
   -7.0887   25.7865   -0.6349 C   0  0  0  0  0  0  0  0  0  0  0  0
   -7.5856   26.5077    0.5633 C   0  0  0  0  0  0  0  0  0  0  0  0
   -8.1439   27.6179   -0.3703 C   0  0  0  0  0  0  0  0  0  0  0  0
   -8.7470   26.9800   -1.6371 C   0  0  0  0  0  0  0  0  0  0  0  0
   -8.0718   25.7355   -1.6721 O   0  0  0  0  0  0  0  0  0  0  0  0
   -8.7054   28.8622    1.0475 H   0  0  0  0  0  0  0  0  0  0  0  0
   -5.7057   25.6410   -0.9903 N   0  0  0  0  0  0  0  0  0  0  0  0
   -5.1522   24.4009   -1.3046 C   0  0  0  0  0  0  0  0  0  0  0  0
   -5.8494   23.4091   -1.1586 O   0  0  0  0  0  0  0  0  0  0  0  0
   -3.8858   24.3011   -1.7305 N   0  0  0  0  0  0  0  0  0  0  0  0
   -3.1461   25.4072   -1.8641 C   0  0  0  0  0  0  0  0  0  0  0  0
   -1.9902   25.3134   -2.2786 O   0  0  0  0  0  0  0  0  0  0  0  0
   -3.6704   26.6840   -1.5847 C   0  0  0  0  0  0  0  0  0  0  0  0
   -4.9900   26.7886   -1.1492 C   0  0  0  0  0  0  0  0  0  0  0  0
   -3.5024   23.4197   -1.9436 H   0  0  0  0  0  0  0  0  0  0  0  0
 31 30  1  0  0  0
 37 30  1  0  0  0
 30 24  1  0  0  0
 26 23  1  0  0  0
 33 31  1  0  0  0
 31 32  2  0  0  0
  3  1  1  0  0  0
  1 22  1  0  0  0
 34 33  1  0  0  0
 35 34  2  0  0  0
 34 36  1  0  0  0
 36 37  2  0  0  0
 28 24  1  0  0  0
 24 25  1  0  0  0
 16  3  1  0  0  0
  4  3  1  0  0  0
 10  3  1  0  0  0
  9  4  2  0  0  0
  4  5  1  0  0  0
  6  5  2  0  0  0
 26 25  1  0  0  0
  7  6  1  0  0  0
  8  7  2  0  0  0
  8  9  1  0  0  0
 11 10  2  0  0  0
 10 15  1  0  0  0
 12 11  1  0  0  0
 12 13  2  0  0  0
 13 14  1  0  0  0
 14 15  2  0  0  0
 27 26  1  0  0  0
 21 16  2  0  0  0
 16 17  1  0  0  0
 18 17  2  0  0  0
 19 18  1  0  0  0
 20 19  2  0  0  0
 20 21  1  0  0  0
 22 27  1  0  0  0
 27 28  1  0  0  0
 23 29  1  0  0  0
  1  2  1  0  0  0
 33 38  1  0  0  0
M  END
> <minimizedAffinity>
-9.10051

$$$$
3T60_DUA_A_182


 38 42  0  0  0  0  0  0  0  0999 V2000
   -9.3338   28.2684   -3.7202 N   0  0  0  0  0  0  0  0  0  0  0  0
  -10.2512   28.0031   -3.3620 H   0  0  0  0  0  0  0  0  0  0  0  0
   -9.0205   27.3759   -4.8056 C   0  0  0  0  0  0  0  0  0  0  0  0
   -9.2003   28.4168   -5.9687 C   0  0  0  0  0  0  0  0  0  0  0  0
   -9.7719   29.6948   -5.7304 C   0  0  0  0  0  0  0  0  0  0  0  0
   -9.9132   30.6676   -6.7630 C   0  0  0  0  0  0  0  0  0  0  0  0
   -9.5201   30.4264   -8.0786 C   0  0  0  0  0  0  0  0  0  0  0  0
   -8.9448   29.1690   -8.3353 C   0  0  0  0  0  0  0  0  0  0  0  0
   -8.7876   28.2253   -7.3012 C   0  0  0  0  0  0  0  0  0  0  0  0
   -9.9266   26.2209   -4.9839 C   0  0  0  0  0  0  0  0  0  0  0  0
  -10.5601   25.4501   -3.9863 C   0  0  0  0  0  0  0  0  0  0  0  0
  -11.5014   24.4705   -4.3046 C   0  0  0  0  0  0  0  0  0  0  0  0
  -11.8206   24.2344   -5.6260 C   0  0  0  0  0  0  0  0  0  0  0  0
  -11.2238   24.9905   -6.6298 C   0  0  0  0  0  0  0  0  0  0  0  0
  -10.3037   25.9889   -6.3246 C   0  0  0  0  0  0  0  0  0  0  0  0
   -7.5564   26.9910   -4.9998 C   0  0  0  0  0  0  0  0  0  0  0  0
   -6.6758   27.9581   -5.5005 C   0  0  0  0  0  0  0  0  0  0  0  0
   -5.3190   27.6922   -5.7287 C   0  0  0  0  0  0  0  0  0  0  0  0
   -4.7672   26.4378   -5.4360 C   0  0  0  0  0  0  0  0  0  0  0  0
   -5.5786   25.4440   -4.9040 C   0  0  0  0  0  0  0  0  0  0  0  0
   -6.9397   25.7580   -4.6702 C   0  0  0  0  0  0  0  0  0  0  0  0
   -8.3945   28.3026   -2.5610 C   0  0  0  0  0  0  0  0  0  0  0  0
   -8.9021   28.5659    0.7230 O   0  0  0  0  0  0  0  0  0  0  0  0
   -7.0972   25.9122   -0.5814 C   0  0  0  0  0  0  0  0  0  0  0  0
   -7.5353   26.4808    0.7177 C   0  0  0  0  0  0  0  0  0  0  0  0
   -8.0167   27.7538   -0.0329 C   0  0  0  0  0  0  0  0  0  0  0  0
   -8.6701   27.3551   -1.3706 C   0  0  0  0  0  0  0  0  0  0  0  0
   -8.0863   26.0852   -1.5995 O   0  0  0  0  0  0  0  0  0  0  0  0
   -8.4804   28.8102    1.5617 H   0  0  0  0  0  0  0  0  0  0  0  0
   -5.7300   25.7240   -0.9755 N   0  0  0  0  0  0  0  0  0  0  0  0
   -5.2296   24.4707   -1.3247 C   0  0  0  0  0  0  0  0  0  0  0  0
   -5.9580   23.5019   -1.1767 O   0  0  0  0  0  0  0  0  0  0  0  0
   -3.9790   24.3336   -1.7855 N   0  0  0  0  0  0  0  0  0  0  0  0
   -3.2039   25.4149   -1.9205 C   0  0  0  0  0  0  0  0  0  0  0  0
   -2.0632   25.2874   -2.3669 O   0  0  0  0  0  0  0  0  0  0  0  0
   -3.6746   26.7044   -1.6063 C   0  0  0  0  0  0  0  0  0  0  0  0
   -4.9779   26.8481   -1.1345 C   0  0  0  0  0  0  0  0  0  0  0  0
   -3.6332   23.4430   -2.0231 H   0  0  0  0  0  0  0  0  0  0  0  0
 31 30  1  0  0  0
 37 30  1  0  0  0
 30 24  1  0  0  0
 26 23  1  0  0  0
 33 31  1  0  0  0
 31 32  2  0  0  0
  3  1  1  0  0  0
  1 22  1  0  0  0
 34 33  1  0  0  0
 35 34  2  0  0  0
 34 36  1  0  0  0
 36 37  2  0  0  0
 28 24  1  0  0  0
 24 25  1  0  0  0
 16  3  1  0  0  0
  4  3  1  0  0  0
 10  3  1  0  0  0
  9  4  2  0  0  0
  4  5  1  0  0  0
  6  5  2  0  0  0
 26 25  1  0  0  0
  7  6  1  0  0  0
  8  7  2  0  0  0
  8  9  1  0  0  0
 11 10  2  0  0  0
 10 15  1  0  0  0
 12 11  1  0  0  0
 12 13  2  0  0  0
 13 14  1  0  0  0
 14 15  2  0  0  0
 27 26  1  0  0  0
 21 16  2  0  0  0
 16 17  1  0  0  0
 18 17  2  0  0  0
 19 18  1  0  0  0
 20 19  2  0  0  0
 20 21  1  0  0  0
 22 27  1  0  0  0
 27 28  1  0  0  0
 23 29  1  0  0  0
  1  2  1  0  0  0
 33 38  1  0  0  0
M  END
> <minimizedAffinity>
-8.05184

$$$$
3T60_DUA_A_182


 38 42  0  0  0  0  0  0  0  0999 V2000
   -9.8233   29.9690   -0.1203 N   0  0  0  0  0  0  0  0  0  0  0  0
  -10.4161   30.6818    0.3049 H   0  0  0  0  0  0  0  0  0  0  0  0
   -8.8663   29.5560    0.8728 C   0  0  0  0  0  0  0  0  0  0  0  0
   -9.9011   29.1923    1.9977 C   0  0  0  0  0  0  0  0  0  0  0  0
  -11.2750   28.9944    1.6974 C   0  0  0  0  0  0  0  0  0  0  0  0
  -12.2254   28.6301    2.6958 C   0  0  0  0  0  0  0  0  0  0  0  0
  -11.8780   28.4629    4.0356 C   0  0  0  0  0  0  0  0  0  0  0  0
  -10.5206   28.6474    4.3538 C   0  0  0  0  0  0  0  0  0  0  0  0
   -9.5864   28.9826    3.3541 C   0  0  0  0  0  0  0  0  0  0  0  0
   -7.9200   30.5924    1.3389 C   0  0  0  0  0  0  0  0  0  0  0  0
   -6.5205   30.6338    1.1656 C   0  0  0  0  0  0  0  0  0  0  0  0
   -5.7680   31.7471    1.5417 C   0  0  0  0  0  0  0  0  0  0  0  0
   -6.3975   32.8366    2.1078 C   0  0  0  0  0  0  0  0  0  0  0  0
   -7.7785   32.8303    2.2757 C   0  0  0  0  0  0  0  0  0  0  0  0
   -8.5440   31.7376    1.8801 C   0  0  0  0  0  0  0  0  0  0  0  0
   -8.1844   28.2051    0.6741 C   0  0  0  0  0  0  0  0  0  0  0  0
   -8.2984   27.5804   -0.5742 C   0  0  0  0  0  0  0  0  0  0  0  0
   -7.7220   26.3321   -0.8448 C   0  0  0  0  0  0  0  0  0  0  0  0
   -6.9710   25.6551    0.1254 C   0  0  0  0  0  0  0  0  0  0  0  0
   -6.7896   26.2356    1.3741 C   0  0  0  0  0  0  0  0  0  0  0  0
   -7.3719   27.5064    1.6019 C   0  0  0  0  0  0  0  0  0  0  0  0
   -9.2944   30.5317   -1.3973 C   0  0  0  0  0  0  0  0  0  0  0  0
  -12.2486   29.2739   -2.2929 O   0  0  0  0  0  0  0  0  0  0  0  0
   -9.7372   29.7323   -4.6347 C   0  0  0  0  0  0  0  0  0  0  0  0
  -11.1177   29.2007   -4.5137 C   0  0  0  0  0  0  0  0  0  0  0  0
  -11.0016   29.3271   -2.9689 C   0  0  0  0  0  0  0  0  0  0  0  0
  -10.2538   30.6250   -2.6062 C   0  0  0  0  0  0  0  0  0  0  0  0
   -9.5303   30.8733   -3.7981 O   0  0  0  0  0  0  0  0  0  0  0  0
  -12.7095   28.4537   -2.5288 H   0  0  0  0  0  0  0  0  0  0  0  0
   -8.5961   28.9659   -5.0474 N   0  0  0  0  0  0  0  0  0  0  0  0
   -7.8523   29.3019   -6.1774 C   0  0  0  0  0  0  0  0  0  0  0  0
   -8.2642   30.2073   -6.8856 O   0  0  0  0  0  0  0  0  0  0  0  0
   -6.7331   28.6339   -6.4877 N   0  0  0  0  0  0  0  0  0  0  0  0
   -6.3196   27.6373   -5.6976 C   0  0  0  0  0  0  0  0  0  0  0  0
   -5.2776   27.0416   -5.9733 O   0  0  0  0  0  0  0  0  0  0  0  0
   -7.0230   27.2799   -4.5311 C   0  0  0  0  0  0  0  0  0  0  0  0
   -8.1827   27.9797   -4.2041 C   0  0  0  0  0  0  0  0  0  0  0  0
   -6.2187   28.8749   -7.2918 H   0  0  0  0  0  0  0  0  0  0  0  0
 31 30  1  0  0  0
 37 30  1  0  0  0
 30 24  1  0  0  0
 26 23  1  0  0  0
 33 31  1  0  0  0
 31 32  2  0  0  0
  3  1  1  0  0  0
  1 22  1  0  0  0
 34 33  1  0  0  0
 35 34  2  0  0  0
 34 36  1  0  0  0
 36 37  2  0  0  0
 28 24  1  0  0  0
 24 25  1  0  0  0
 16  3  1  0  0  0
  4  3  1  0  0  0
 10  3  1  0  0  0
  9  4  2  0  0  0
  4  5  1  0  0  0
  6  5  2  0  0  0
 26 25  1  0  0  0
  7  6  1  0  0  0
  8  7  2  0  0  0
  8  9  1  0  0  0
 11 10  2  0  0  0
 10 15  1  0  0  0
 12 11  1  0  0  0
 12 13  2  0  0  0
 13 14  1  0  0  0
 14 15  2  0  0  0
 27 26  1  0  0  0
 21 16  2  0  0  0
 16 17  1  0  0  0
 18 17  2  0  0  0
 19 18  1  0  0  0
 20 19  2  0  0  0
 20 21  1  0  0  0
 22 27  1  0  0  0
 27 28  1  0  0  0
 23 29  1  0  0  0
  1  2  1  0  0  0
 33 38  1  0  0  0
M  END
> <minimizedAffinity>
-7.99743

$$$$
3T60_DUA_A_182


 38 42  0  0  0  0  0  0  0  0999 V2000
   -9.0482   27.3180   -4.1249 N   0  0  0  0  0  0  0  0  0  0  0  0
   -8.9766   26.3275   -3.8918 H   0  0  0  0  0  0  0  0  0  0  0  0
   -8.4677   27.4963   -5.4303 C   0  0  0  0  0  0  0  0  0  0  0  0
   -9.3443   26.4281   -6.1782 C   0  0  0  0  0  0  0  0  0  0  0  0
  -10.4716   25.8329   -5.5524 C   0  0  0  0  0  0  0  0  0  0  0  0
  -11.3013   24.8876   -6.2235 C   0  0  0  0  0  0  0  0  0  0  0  0
  -11.0536   24.4674   -7.5296 C   0  0  0  0  0  0  0  0  0  0  0  0
   -9.9456   25.0497   -8.1707 C   0  0  0  0  0  0  0  0  0  0  0  0
   -9.1480   26.0016   -7.5057 C   0  0  0  0  0  0  0  0  0  0  0  0
   -7.0283   27.1804   -5.5538 C   0  0  0  0  0  0  0  0  0  0  0  0
   -5.9579   28.0723   -5.7757 C   0  0  0  0  0  0  0  0  0  0  0  0
   -4.6293   27.6476   -5.7336 C   0  0  0  0  0  0  0  0  0  0  0  0
   -4.3445   26.3217   -5.4794 C   0  0  0  0  0  0  0  0  0  0  0  0
   -5.3793   25.4230   -5.2406 C   0  0  0  0  0  0  0  0  0  0  0  0
   -6.7072   25.8388   -5.2528 C   0  0  0  0  0  0  0  0  0  0  0  0
   -8.8460   28.7573   -6.2023 C   0  0  0  0  0  0  0  0  0  0  0  0
   -9.9260   29.5202   -5.7409 C   0  0  0  0  0  0  0  0  0  0  0  0
  -10.3576   30.6828   -6.3933 C   0  0  0  0  0  0  0  0  0  0  0  0
   -9.7020   31.1575   -7.5373 C   0  0  0  0  0  0  0  0  0  0  0  0
   -8.6012   30.4669   -8.0276 C   0  0  0  0  0  0  0  0  0  0  0  0
   -8.1846   29.3076   -7.3288 C   0  0  0  0  0  0  0  0  0  0  0  0
   -8.4526   28.0873   -2.9932 C   0  0  0  0  0  0  0  0  0  0  0  0
   -7.6753   24.9525   -2.1684 O   0  0  0  0  0  0  0  0  0  0  0  0
   -7.5517   27.4857    0.1914 C   0  0  0  0  0  0  0  0  0  0  0  0
   -7.3640   26.0190    0.0636 C   0  0  0  0  0  0  0  0  0  0  0  0
   -7.9483   26.0971   -1.3745 C   0  0  0  0  0  0  0  0  0  0  0  0
   -7.4345   27.3684   -2.0782 C   0  0  0  0  0  0  0  0  0  0  0  0
   -7.0976   28.1843   -0.9707 O   0  0  0  0  0  0  0  0  0  0  0  0
   -8.0028   24.1595   -1.7158 H   0  0  0  0  0  0  0  0  0  0  0  0
   -8.5224   28.1180    1.0387 N   0  0  0  0  0  0  0  0  0  0  0  0
   -8.3053   28.2940    2.4043 C   0  0  0  0  0  0  0  0  0  0  0  0
   -7.3073   27.7898    2.8951 O   0  0  0  0  0  0  0  0  0  0  0  0
   -9.1792   28.9754    3.1574 N   0  0  0  0  0  0  0  0  0  0  0  0
  -10.2697   29.5010    2.5892 C   0  0  0  0  0  0  0  0  0  0  0  0
  -11.0582   30.1469    3.2804 O   0  0  0  0  0  0  0  0  0  0  0  0
  -10.5176   29.3725    1.2089 C   0  0  0  0  0  0  0  0  0  0  0  0
   -9.6047   28.6706    0.4242 C   0  0  0  0  0  0  0  0  0  0  0  0
   -9.0197   29.0882    4.1223 H   0  0  0  0  0  0  0  0  0  0  0  0
 31 30  1  0  0  0
 37 30  1  0  0  0
 30 24  1  0  0  0
 26 23  1  0  0  0
 33 31  1  0  0  0
 31 32  2  0  0  0
  3  1  1  0  0  0
  1 22  1  0  0  0
 34 33  1  0  0  0
 35 34  2  0  0  0
 34 36  1  0  0  0
 36 37  2  0  0  0
 28 24  1  0  0  0
 24 25  1  0  0  0
 16  3  1  0  0  0
  4  3  1  0  0  0
 10  3  1  0  0  0
  9  4  2  0  0  0
  4  5  1  0  0  0
  6  5  2  0  0  0
 26 25  1  0  0  0
  7  6  1  0  0  0
  8  7  2  0  0  0
  8  9  1  0  0  0
 11 10  2  0  0  0
 10 15  1  0  0  0
 12 11  1  0  0  0
 12 13  2  0  0  0
 13 14  1  0  0  0
 14 15  2  0  0  0
 27 26  1  0  0  0
 21 16  2  0  0  0
 16 17  1  0  0  0
 18 17  2  0  0  0
 19 18  1  0  0  0
 20 19  2  0  0  0
 20 21  1  0  0  0
 22 27  1  0  0  0
 27 28  1  0  0  0
 23 29  1  0  0  0
  1  2  1  0  0  0
 33 38  1  0  0  0
M  END
> <minimizedAffinity>
-7.90727

$$$$
3T60_DUA_A_182


 38 42  0  0  0  0  0  0  0  0999 V2000
   -9.7194   28.1858   -2.3380 N   0  0  0  0  0  0  0  0  0  0  0  0
  -10.6761   28.3385   -2.6574 H   0  0  0  0  0  0  0  0  0  0  0  0
   -9.6081   28.7581   -1.0217 C   0  0  0  0  0  0  0  0  0  0  0  0
  -11.0302   28.3331   -0.5062 C   0  0  0  0  0  0  0  0  0  0  0  0
  -11.9054   27.5609   -1.3151 C   0  0  0  0  0  0  0  0  0  0  0  0
  -13.1859   27.1347   -0.8554 C   0  0  0  0  0  0  0  0  0  0  0  0
  -13.6755   27.4619    0.4082 C   0  0  0  0  0  0  0  0  0  0  0  0
  -12.8216   28.2207    1.2287 C   0  0  0  0  0  0  0  0  0  0  0  0
  -11.5483   28.6145    0.7725 C   0  0  0  0  0  0  0  0  0  0  0  0
   -9.4393   30.2259   -0.9597 C   0  0  0  0  0  0  0  0  0  0  0  0
   -8.2876   30.9545   -0.5946 C   0  0  0  0  0  0  0  0  0  0  0  0
   -8.2308   32.3437   -0.7138 C   0  0  0  0  0  0  0  0  0  0  0  0
   -9.3269   33.0331   -1.1903 C   0  0  0  0  0  0  0  0  0  0  0  0
  -10.4703   32.3393   -1.5734 C   0  0  0  0  0  0  0  0  0  0  0  0
  -10.5305   30.9518   -1.4851 C   0  0  0  0  0  0  0  0  0  0  0  0
   -8.7188   28.0359   -0.0133 C   0  0  0  0  0  0  0  0  0  0  0  0
   -8.0098   26.9066   -0.4415 C   0  0  0  0  0  0  0  0  0  0  0  0
   -7.1830   26.1689    0.4163 C   0  0  0  0  0  0  0  0  0  0  0  0
   -7.0031   26.5487    1.7532 C   0  0  0  0  0  0  0  0  0  0  0  0
   -7.6503   27.6800    2.2330 C   0  0  0  0  0  0  0  0  0  0  0  0
   -8.4617   28.4092    1.3298 C   0  0  0  0  0  0  0  0  0  0  0  0
   -8.8065   28.7070   -3.3973 C   0  0  0  0  0  0  0  0  0  0  0  0
  -10.2963   26.0857   -4.8189 O   0  0  0  0  0  0  0  0  0  0  0  0
   -6.9070   26.6497   -5.2614 C   0  0  0  0  0  0  0  0  0  0  0  0
   -7.9684   25.6729   -5.6107 C   0  0  0  0  0  0  0  0  0  0  0  0
   -8.9260   26.4038   -4.6286 C   0  0  0  0  0  0  0  0  0  0  0  0
   -8.7136   27.9269   -4.7290 C   0  0  0  0  0  0  0  0  0  0  0  0
   -7.3997   27.9920   -5.2536 O   0  0  0  0  0  0  0  0  0  0  0  0
  -10.4175   25.1256   -4.7536 H   0  0  0  0  0  0  0  0  0  0  0  0
   -5.7296   26.3446   -4.4994 N   0  0  0  0  0  0  0  0  0  0  0  0
   -4.5998   25.7756   -5.0848 C   0  0  0  0  0  0  0  0  0  0  0  0
   -4.6730   25.4305   -6.2538 O   0  0  0  0  0  0  0  0  0  0  0  0
   -3.4771   25.5918   -4.3770 N   0  0  0  0  0  0  0  0  0  0  0  0
   -3.4376   25.9677   -3.0942 C   0  0  0  0  0  0  0  0  0  0  0  0
   -2.3961   25.8189   -2.4540 O   0  0  0  0  0  0  0  0  0  0  0  0
   -4.5448   26.5715   -2.4676 C   0  0  0  0  0  0  0  0  0  0  0  0
   -5.7099   26.7698   -3.2058 C   0  0  0  0  0  0  0  0  0  0  0  0
   -2.6869   25.1829   -4.7983 H   0  0  0  0  0  0  0  0  0  0  0  0
 31 30  1  0  0  0
 37 30  1  0  0  0
 30 24  1  0  0  0
 26 23  1  0  0  0
 33 31  1  0  0  0
 31 32  2  0  0  0
  3  1  1  0  0  0
  1 22  1  0  0  0
 34 33  1  0  0  0
 35 34  2  0  0  0
 34 36  1  0  0  0
 36 37  2  0  0  0
 28 24  1  0  0  0
 24 25  1  0  0  0
 16  3  1  0  0  0
  4  3  1  0  0  0
 10  3  1  0  0  0
  9  4  2  0  0  0
  4  5  1  0  0  0
  6  5  2  0  0  0
 26 25  1  0  0  0
  7  6  1  0  0  0
  8  7  2  0  0  0
  8  9  1  0  0  0
 11 10  2  0  0  0
 10 15  1  0  0  0
 12 11  1  0  0  0
 12 13  2  0  0  0
 13 14  1  0  0  0
 14 15  2  0  0  0
 27 26  1  0  0  0
 21 16  2  0  0  0
 16 17  1  0  0  0
 18 17  2  0  0  0
 19 18  1  0  0  0
 20 19  2  0  0  0
 20 21  1  0  0  0
 22 27  1  0  0  0
 27 28  1  0  0  0
 23 29  1  0  0  0
  1  2  1  0  0  0
 33 38  1  0  0  0
M  END
> <minimizedAffinity>
-7.88481

$$$$
3T60_DUA_A_182


 38 42  0  0  0  0  0  0  0  0999 V2000
   -7.2058   29.9470   -0.0414 N   0  0  0  0  0  0  0  0  0  0  0  0
   -7.9559   30.6245   -0.1778 H   0  0  0  0  0  0  0  0  0  0  0  0
   -7.8198   28.6727    0.2271 C   0  0  0  0  0  0  0  0  0  0  0  0
   -8.7597   28.6430   -1.0316 C   0  0  0  0  0  0  0  0  0  0  0  0
   -8.8033   29.7312   -1.9430 C   0  0  0  0  0  0  0  0  0  0  0  0
   -9.6224   29.7117   -3.1098 C   0  0  0  0  0  0  0  0  0  0  0  0
  -10.4503   28.6356   -3.4262 C   0  0  0  0  0  0  0  0  0  0  0  0
  -10.4173   27.5439   -2.5402 C   0  0  0  0  0  0  0  0  0  0  0  0
   -9.5849   27.5645   -1.4039 C   0  0  0  0  0  0  0  0  0  0  0  0
   -8.6048   28.5763    1.4766 C   0  0  0  0  0  0  0  0  0  0  0  0
   -8.1478   28.2353    2.7671 C   0  0  0  0  0  0  0  0  0  0  0  0
   -8.9792   28.3178    3.8846 C   0  0  0  0  0  0  0  0  0  0  0  0
  -10.2865   28.7325    3.7335 C   0  0  0  0  0  0  0  0  0  0  0  0
  -10.7598   29.0909    2.4753 C   0  0  0  0  0  0  0  0  0  0  0  0
   -9.9334   29.0391    1.3568 C   0  0  0  0  0  0  0  0  0  0  0  0
   -6.9818   27.4215   -0.0212 C   0  0  0  0  0  0  0  0  0  0  0  0
   -7.3108   26.2522    0.6759 C   0  0  0  0  0  0  0  0  0  0  0  0
   -6.5886   25.0606    0.5269 C   0  0  0  0  0  0  0  0  0  0  0  0
   -5.5066   24.9751   -0.3595 C   0  0  0  0  0  0  0  0  0  0  0  0
   -5.1493   26.0892   -1.1079 C   0  0  0  0  0  0  0  0  0  0  0  0
   -5.9158   27.2687   -0.9428 C   0  0  0  0  0  0  0  0  0  0  0  0
   -6.2853   30.5020    0.9939 C   0  0  0  0  0  0  0  0  0  0  0  0
   -5.8965   33.2047    2.9059 O   0  0  0  0  0  0  0  0  0  0  0  0
   -6.9475   33.4994   -0.3819 C   0  0  0  0  0  0  0  0  0  0  0  0
   -6.6833   34.3256    0.8224 C   0  0  0  0  0  0  0  0  0  0  0  0
   -6.5363   33.0197    1.6524 C   0  0  0  0  0  0  0  0  0  0  0  0
   -5.7887   31.9564    0.8243 C   0  0  0  0  0  0  0  0  0  0  0  0
   -6.0252   32.4126   -0.4955 O   0  0  0  0  0  0  0  0  0  0  0  0
   -6.3754   33.8754    3.4175 H   0  0  0  0  0  0  0  0  0  0  0  0
   -8.2167   33.3966   -1.0442 N   0  0  0  0  0  0  0  0  0  0  0  0
   -8.3260   33.4111   -2.4338 C   0  0  0  0  0  0  0  0  0  0  0  0
   -7.3171   33.6315   -3.0852 O   0  0  0  0  0  0  0  0  0  0  0  0
   -9.5081   33.2132   -3.0327 N   0  0  0  0  0  0  0  0  0  0  0  0
  -10.5957   32.9899   -2.2872 C   0  0  0  0  0  0  0  0  0  0  0  0
  -11.6757   32.7848   -2.8423 O   0  0  0  0  0  0  0  0  0  0  0  0
  -10.5292   32.9391   -0.8814 C   0  0  0  0  0  0  0  0  0  0  0  0
   -9.2985   33.1372   -0.2587 C   0  0  0  0  0  0  0  0  0  0  0  0
   -9.5756   33.2321   -4.0147 H   0  0  0  0  0  0  0  0  0  0  0  0
 31 30  1  0  0  0
 37 30  1  0  0  0
 30 24  1  0  0  0
 26 23  1  0  0  0
 33 31  1  0  0  0
 31 32  2  0  0  0
  3  1  1  0  0  0
  1 22  1  0  0  0
 34 33  1  0  0  0
 35 34  2  0  0  0
 34 36  1  0  0  0
 36 37  2  0  0  0
 28 24  1  0  0  0
 24 25  1  0  0  0
 16  3  1  0  0  0
  4  3  1  0  0  0
 10  3  1  0  0  0
  9  4  2  0  0  0
  4  5  1  0  0  0
  6  5  2  0  0  0
 26 25  1  0  0  0
  7  6  1  0  0  0
  8  7  2  0  0  0
  8  9  1  0  0  0
 11 10  2  0  0  0
 10 15  1  0  0  0
 12 11  1  0  0  0
 12 13  2  0  0  0
 13 14  1  0  0  0
 14 15  2  0  0  0
 27 26  1  0  0  0
 21 16  2  0  0  0
 16 17  1  0  0  0
 18 17  2  0  0  0
 19 18  1  0  0  0
 20 19  2  0  0  0
 20 21  1  0  0  0
 22 27  1  0  0  0
 27 28  1  0  0  0
 23 29  1  0  0  0
  1  2  1  0  0  0
 33 38  1  0  0  0
M  END
> <minimizedAffinity>
-7.74886

$$$$
3T60_DUA_A_182


 38 42  0  0  0  0  0  0  0  0999 V2000
   -7.4819   27.0604   -5.7071 N   0  0  0  0  0  0  0  0  0  0  0  0
   -7.4453   26.6883   -6.6561 H   0  0  0  0  0  0  0  0  0  0  0  0
   -8.8042   27.5923   -5.5037 C   0  0  0  0  0  0  0  0  0  0  0  0
   -9.1767   27.7671   -7.0200 C   0  0  0  0  0  0  0  0  0  0  0  0
   -9.1202   29.0388   -7.6496 C   0  0  0  0  0  0  0  0  0  0  0  0
   -9.4203   29.2154   -9.0321 C   0  0  0  0  0  0  0  0  0  0  0  0
   -9.8083   28.1594   -9.8555 C   0  0  0  0  0  0  0  0  0  0  0  0
   -9.8641   26.8895   -9.2537 C   0  0  0  0  0  0  0  0  0  0  0  0
   -9.5409   26.7237   -7.8926 C   0  0  0  0  0  0  0  0  0  0  0  0
   -8.8859   28.8828   -4.7862 C   0  0  0  0  0  0  0  0  0  0  0  0
   -9.0156   30.1763   -5.3345 C   0  0  0  0  0  0  0  0  0  0  0  0
   -9.2191   31.2970   -4.5284 C   0  0  0  0  0  0  0  0  0  0  0  0
   -9.2869   31.1489   -3.1583 C   0  0  0  0  0  0  0  0  0  0  0  0
   -9.1787   29.8832   -2.5909 C   0  0  0  0  0  0  0  0  0  0  0  0
   -9.0027   28.7541   -3.3850 C   0  0  0  0  0  0  0  0  0  0  0  0
   -9.8933   26.6197   -5.0595 C   0  0  0  0  0  0  0  0  0  0  0  0
  -11.2274   26.9447   -5.3352 C   0  0  0  0  0  0  0  0  0  0  0  0
  -12.2955   26.1231   -4.9509 C   0  0  0  0  0  0  0  0  0  0  0  0
  -12.0734   24.9083   -4.2886 C   0  0  0  0  0  0  0  0  0  0  0  0
  -10.7713   24.5094   -4.0154 C   0  0  0  0  0  0  0  0  0  0  0  0
   -9.7189   25.3582   -4.4370 C   0  0  0  0  0  0  0  0  0  0  0  0
   -6.3295   27.9953   -5.5493 C   0  0  0  0  0  0  0  0  0  0  0  0
   -4.6069   25.2267   -6.2411 O   0  0  0  0  0  0  0  0  0  0  0  0
   -4.4249   26.6866   -3.1048 C   0  0  0  0  0  0  0  0  0  0  0  0
   -3.9309   25.5069   -3.8577 C   0  0  0  0  0  0  0  0  0  0  0  0
   -4.9080   25.8681   -5.0111 C   0  0  0  0  0  0  0  0  0  0  0  0
   -4.9466   27.3968   -5.2029 C   0  0  0  0  0  0  0  0  0  0  0  0
   -4.5122   27.8490   -3.9330 O   0  0  0  0  0  0  0  0  0  0  0  0
   -4.5854   24.2661   -6.1080 H   0  0  0  0  0  0  0  0  0  0  0  0
   -5.2314   26.6246   -1.9192 N   0  0  0  0  0  0  0  0  0  0  0  0
   -4.8266   27.2110   -0.7211 C   0  0  0  0  0  0  0  0  0  0  0  0
   -3.7036   27.6874   -0.6675 O   0  0  0  0  0  0  0  0  0  0  0  0
   -5.6382   27.2283    0.3448 N   0  0  0  0  0  0  0  0  0  0  0  0
   -6.8562   26.6834    0.2549 C   0  0  0  0  0  0  0  0  0  0  0  0
   -7.6080   26.7226    1.2296 O   0  0  0  0  0  0  0  0  0  0  0  0
   -7.3190   26.1039   -0.9422 C   0  0  0  0  0  0  0  0  0  0  0  0
   -6.4779   26.0929   -2.0532 C   0  0  0  0  0  0  0  0  0  0  0  0
   -5.3401   27.6392    1.1883 H   0  0  0  0  0  0  0  0  0  0  0  0
 31 30  1  0  0  0
 37 30  1  0  0  0
 30 24  1  0  0  0
 26 23  1  0  0  0
 33 31  1  0  0  0
 31 32  2  0  0  0
  3  1  1  0  0  0
  1 22  1  0  0  0
 34 33  1  0  0  0
 35 34  2  0  0  0
 34 36  1  0  0  0
 36 37  2  0  0  0
 28 24  1  0  0  0
 24 25  1  0  0  0
 16  3  1  0  0  0
  4  3  1  0  0  0
 10  3  1  0  0  0
  9  4  2  0  0  0
  4  5  1  0  0  0
  6  5  2  0  0  0
 26 25  1  0  0  0
  7  6  1  0  0  0
  8  7  2  0  0  0
  8  9  1  0  0  0
 11 10  2  0  0  0
 10 15  1  0  0  0
 12 11  1  0  0  0
 12 13  2  0  0  0
 13 14  1  0  0  0
 14 15  2  0  0  0
 27 26  1  0  0  0
 21 16  2  0  0  0
 16 17  1  0  0  0
 18 17  2  0  0  0
 19 18  1  0  0  0
 20 19  2  0  0  0
 20 21  1  0  0  0
 22 27  1  0  0  0
 27 28  1  0  0  0
 23 29  1  0  0  0
  1  2  1  0  0  0
 33 38  1  0  0  0
M  END
> <minimizedAffinity>
-7.63402

$$$$
3T60_DUA_A_182


 38 42  0  0  0  0  0  0  0  0999 V2000
   -9.8332   29.2941   -0.5135 N   0  0  0  0  0  0  0  0  0  0  0  0
  -10.8370   29.1637   -0.3878 H   0  0  0  0  0  0  0  0  0  0  0  0
   -9.2249   29.2378    0.7902 C   0  0  0  0  0  0  0  0  0  0  0  0
   -8.3284   27.9740    0.5297 C   0  0  0  0  0  0  0  0  0  0  0  0
   -7.5664   27.3849    1.5733 C   0  0  0  0  0  0  0  0  0  0  0  0
   -6.7733   26.2180    1.3683 C   0  0  0  0  0  0  0  0  0  0  0  0
   -6.6743   25.5874    0.1289 C   0  0  0  0  0  0  0  0  0  0  0  0
   -7.4267   26.1506   -0.9173 C   0  0  0  0  0  0  0  0  0  0  0  0
   -8.2265   27.2890   -0.6963 C   0  0  0  0  0  0  0  0  0  0  0  0
  -10.1406   29.0118    1.9291 C   0  0  0  0  0  0  0  0  0  0  0  0
   -9.8249   28.9665    3.3034 C   0  0  0  0  0  0  0  0  0  0  0  0
  -10.8171   28.8806    4.2809 C   0  0  0  0  0  0  0  0  0  0  0  0
  -12.1433   28.8278    3.9042 C   0  0  0  0  0  0  0  0  0  0  0  0
  -12.4850   28.8872    2.5569 C   0  0  0  0  0  0  0  0  0  0  0  0
  -11.5070   29.0002    1.5734 C   0  0  0  0  0  0  0  0  0  0  0  0
   -8.1547   30.2770    1.1127 C   0  0  0  0  0  0  0  0  0  0  0  0
   -8.5384   31.4345    1.8015 C   0  0  0  0  0  0  0  0  0  0  0  0
   -7.6305   32.4514    2.1259 C   0  0  0  0  0  0  0  0  0  0  0  0
   -6.2728   32.3428    1.7962 C   0  0  0  0  0  0  0  0  0  0  0  0
   -5.8193   31.2040    1.1432 C   0  0  0  0  0  0  0  0  0  0  0  0
   -6.7645   30.1908    0.8500 C   0  0  0  0  0  0  0  0  0  0  0  0
   -9.6414   30.5403   -1.3120 C   0  0  0  0  0  0  0  0  0  0  0  0
  -12.5983   29.4708   -2.4185 O   0  0  0  0  0  0  0  0  0  0  0  0
   -9.9730   30.0006   -4.6157 C   0  0  0  0  0  0  0  0  0  0  0  0
  -11.3759   29.5170   -4.5909 C   0  0  0  0  0  0  0  0  0  0  0  0
  -11.3221   29.5241   -3.0376 C   0  0  0  0  0  0  0  0  0  0  0  0
  -10.5436   30.7609   -2.5481 C   0  0  0  0  0  0  0  0  0  0  0  0
   -9.7606   31.0675   -3.6877 O   0  0  0  0  0  0  0  0  0  0  0  0
  -13.0784   28.6893   -2.7340 H   0  0  0  0  0  0  0  0  0  0  0  0
   -8.8439   29.2219   -5.0387 N   0  0  0  0  0  0  0  0  0  0  0  0
   -8.1135   29.5436   -6.1815 C   0  0  0  0  0  0  0  0  0  0  0  0
   -8.5281   30.4472   -6.8905 O   0  0  0  0  0  0  0  0  0  0  0  0
   -7.0042   28.8643   -6.5026 N   0  0  0  0  0  0  0  0  0  0  0  0
   -6.5876   27.8702   -5.7109 C   0  0  0  0  0  0  0  0  0  0  0  0
   -5.5544   27.2640   -5.9969 O   0  0  0  0  0  0  0  0  0  0  0  0
   -7.2773   27.5270   -4.5321 C   0  0  0  0  0  0  0  0  0  0  0  0
   -8.4267   28.2386   -4.1940 C   0  0  0  0  0  0  0  0  0  0  0  0
   -6.4993   29.0953   -7.3156 H   0  0  0  0  0  0  0  0  0  0  0  0
 31 30  1  0  0  0
 37 30  1  0  0  0
 30 24  1  0  0  0
 26 23  1  0  0  0
 33 31  1  0  0  0
 31 32  2  0  0  0
  3  1  1  0  0  0
  1 22  1  0  0  0
 34 33  1  0  0  0
 35 34  2  0  0  0
 34 36  1  0  0  0
 36 37  2  0  0  0
 28 24  1  0  0  0
 24 25  1  0  0  0
 16  3  1  0  0  0
  4  3  1  0  0  0
 10  3  1  0  0  0
  9  4  2  0  0  0
  4  5  1  0  0  0
  6  5  2  0  0  0
 26 25  1  0  0  0
  7  6  1  0  0  0
  8  7  2  0  0  0
  8  9  1  0  0  0
 11 10  2  0  0  0
 10 15  1  0  0  0
 12 11  1  0  0  0
 12 13  2  0  0  0
 13 14  1  0  0  0
 14 15  2  0  0  0
 27 26  1  0  0  0
 21 16  2  0  0  0
 16 17  1  0  0  0
 18 17  2  0  0  0
 19 18  1  0  0  0
 20 19  2  0  0  0
 20 21  1  0  0  0
 22 27  1  0  0  0
 27 28  1  0  0  0
 23 29  1  0  0  0
  1  2  1  0  0  0
 33 38  1  0  0  0
M  END
> <minimizedAffinity>
-7.57560

$$$$
3T60_DUA_A_182


 38 42  0  0  0  0  0  0  0  0999 V2000
   -7.4029   26.5695   -5.6456 N   0  0  0  0  0  0  0  0  0  0  0  0
   -7.0661   26.0528   -6.4581 H   0  0  0  0  0  0  0  0  0  0  0  0
   -8.7496   26.9911   -5.9311 C   0  0  0  0  0  0  0  0  0  0  0  0
   -9.1268   27.4320   -4.4710 C   0  0  0  0  0  0  0  0  0  0  0  0
   -9.3123   26.4749   -3.4383 C   0  0  0  0  0  0  0  0  0  0  0  0
   -9.6209   26.8536   -2.0989 C   0  0  0  0  0  0  0  0  0  0  0  0
   -9.7815   28.1840   -1.7144 C   0  0  0  0  0  0  0  0  0  0  0  0
   -9.5952   29.1489   -2.7205 C   0  0  0  0  0  0  0  0  0  0  0  0
   -9.2658   28.7635   -4.0348 C   0  0  0  0  0  0  0  0  0  0  0  0
   -9.6713   25.9447   -6.4231 C   0  0  0  0  0  0  0  0  0  0  0  0
  -10.9031   25.5391   -5.8674 C   0  0  0  0  0  0  0  0  0  0  0  0
  -11.7363   24.6285   -6.5183 C   0  0  0  0  0  0  0  0  0  0  0  0
  -11.3507   24.0973   -7.7319 C   0  0  0  0  0  0  0  0  0  0  0  0
  -10.1489   24.4914   -8.3114 C   0  0  0  0  0  0  0  0  0  0  0  0
   -9.3214   25.4191   -7.6860 C   0  0  0  0  0  0  0  0  0  0  0  0
   -8.9306   28.3108   -6.6762 C   0  0  0  0  0  0  0  0  0  0  0  0
  -10.2164   28.8608   -6.7509 C   0  0  0  0  0  0  0  0  0  0  0  0
  -10.4830   30.0583   -7.4281 C   0  0  0  0  0  0  0  0  0  0  0  0
   -9.4567   30.7851   -8.0463 C   0  0  0  0  0  0  0  0  0  0  0  0
   -8.1521   30.3129   -7.9799 C   0  0  0  0  0  0  0  0  0  0  0  0
   -7.9212   29.1093   -7.2700 C   0  0  0  0  0  0  0  0  0  0  0  0
   -6.3970   27.6292   -5.3419 C   0  0  0  0  0  0  0  0  0  0  0  0
   -4.4120   25.0610   -6.1005 O   0  0  0  0  0  0  0  0  0  0  0  0
   -4.2356   26.5751   -2.9897 C   0  0  0  0  0  0  0  0  0  0  0  0
   -3.6513   25.4477   -3.7579 C   0  0  0  0  0  0  0  0  0  0  0  0
   -4.7202   25.6817   -4.8617 C   0  0  0  0  0  0  0  0  0  0  0  0
   -4.9398   27.1937   -5.0634 C   0  0  0  0  0  0  0  0  0  0  0  0
   -4.4949   27.7090   -3.8214 O   0  0  0  0  0  0  0  0  0  0  0  0
   -4.2761   24.1107   -5.9611 H   0  0  0  0  0  0  0  0  0  0  0  0
   -4.9687   26.4398   -1.7632 N   0  0  0  0  0  0  0  0  0  0  0  0
   -4.7209   27.2583   -0.6624 C   0  0  0  0  0  0  0  0  0  0  0  0
   -3.7756   28.0289   -0.7232 O   0  0  0  0  0  0  0  0  0  0  0  0
   -5.4834   27.1823    0.4366 N   0  0  0  0  0  0  0  0  0  0  0  0
   -6.5013   26.3157    0.4742 C   0  0  0  0  0  0  0  0  0  0  0  0
   -7.2144   26.2659    1.4771 O   0  0  0  0  0  0  0  0  0  0  0  0
   -6.8067   25.4879   -0.6233 C   0  0  0  0  0  0  0  0  0  0  0  0
   -6.0185   25.5724   -1.7694 C   0  0  0  0  0  0  0  0  0  0  0  0
   -5.2957   27.7603    1.2111 H   0  0  0  0  0  0  0  0  0  0  0  0
 31 30  1  0  0  0
 37 30  1  0  0  0
 30 24  1  0  0  0
 26 23  1  0  0  0
 33 31  1  0  0  0
 31 32  2  0  0  0
  3  1  1  0  0  0
  1 22  1  0  0  0
 34 33  1  0  0  0
 35 34  2  0  0  0
 34 36  1  0  0  0
 36 37  2  0  0  0
 28 24  1  0  0  0
 24 25  1  0  0  0
 16  3  1  0  0  0
  4  3  1  0  0  0
 10  3  1  0  0  0
  9  4  2  0  0  0
  4  5  1  0  0  0
  6  5  2  0  0  0
 26 25  1  0  0  0
  7  6  1  0  0  0
  8  7  2  0  0  0
  8  9  1  0  0  0
 11 10  2  0  0  0
 10 15  1  0  0  0
 12 11  1  0  0  0
 12 13  2  0  0  0
 13 14  1  0  0  0
 14 15  2  0  0  0
 27 26  1  0  0  0
 21 16  2  0  0  0
 16 17  1  0  0  0
 18 17  2  0  0  0
 19 18  1  0  0  0
 20 19  2  0  0  0
 20 21  1  0  0  0
 22 27  1  0  0  0
 27 28  1  0  0  0
 23 29  1  0  0  0
  1  2  1  0  0  0
 33 38  1  0  0  0
M  END
> <minimizedAffinity>
-7.54458

$$$$
3T60_DUA_A_182


 38 42  0  0  0  0  0  0  0  0999 V2000
   -7.6593   29.4494   -0.0021 N   0  0  0  0  0  0  0  0  0  0  0  0
   -7.1300   29.0072    0.7493 H   0  0  0  0  0  0  0  0  0  0  0  0
   -8.6582   30.2867    0.6095 C   0  0  0  0  0  0  0  0  0  0  0  0
   -7.6691   31.2441    1.3669 C   0  0  0  0  0  0  0  0  0  0  0  0
   -8.1046   32.4939    1.8817 C   0  0  0  0  0  0  0  0  0  0  0  0
   -7.2339   33.3631    2.6021 C   0  0  0  0  0  0  0  0  0  0  0  0
   -5.8934   33.0576    2.8335 C   0  0  0  0  0  0  0  0  0  0  0  0
   -5.4429   31.8209    2.3380 C   0  0  0  0  0  0  0  0  0  0  0  0
   -6.3195   30.9593    1.6496 C   0  0  0  0  0  0  0  0  0  0  0  0
   -9.5789   29.6204    1.5556 C   0  0  0  0  0  0  0  0  0  0  0  0
   -9.4140   29.4336    2.9443 C   0  0  0  0  0  0  0  0  0  0  0  0
  -10.4323   28.9053    3.7387 C   0  0  0  0  0  0  0  0  0  0  0  0
  -11.6314   28.5436    3.1598 C   0  0  0  0  0  0  0  0  0  0  0  0
  -11.8281   28.7318    1.7955 C   0  0  0  0  0  0  0  0  0  0  0  0
  -10.8308   29.2827    0.9965 C   0  0  0  0  0  0  0  0  0  0  0  0
   -9.3828   31.2870   -0.2870 C   0  0  0  0  0  0  0  0  0  0  0  0
   -8.8172   31.5964   -1.5303 C   0  0  0  0  0  0  0  0  0  0  0  0
   -9.4003   32.5155   -2.4129 C   0  0  0  0  0  0  0  0  0  0  0  0
  -10.6072   33.1552   -2.1000 C   0  0  0  0  0  0  0  0  0  0  0  0
  -11.2391   32.8669   -0.8972 C   0  0  0  0  0  0  0  0  0  0  0  0
  -10.6278   31.9184   -0.0413 C   0  0  0  0  0  0  0  0  0  0  0  0
   -8.1303   28.3659   -0.9140 C   0  0  0  0  0  0  0  0  0  0  0  0
   -7.2633   26.7721    1.8824 O   0  0  0  0  0  0  0  0  0  0  0  0
   -6.7458   25.3152   -1.2178 C   0  0  0  0  0  0  0  0  0  0  0  0
   -6.5108   25.0669    0.2265 C   0  0  0  0  0  0  0  0  0  0  0  0
   -6.9438   26.5303    0.5206 C   0  0  0  0  0  0  0  0  0  0  0  0
   -8.1327   26.9142   -0.3819 C   0  0  0  0  0  0  0  0  0  0  0  0
   -7.9838   25.9931   -1.4474 O   0  0  0  0  0  0  0  0  0  0  0  0
   -6.5084   26.5270    2.4400 H   0  0  0  0  0  0  0  0  0  0  0  0
   -5.7156   25.4087   -2.2127 N   0  0  0  0  0  0  0  0  0  0  0  0
   -5.9992   25.3416   -3.5758 C   0  0  0  0  0  0  0  0  0  0  0  0
   -7.1448   25.0831   -3.9102 O   0  0  0  0  0  0  0  0  0  0  0  0
   -5.0370   25.5315   -4.4886 N   0  0  0  0  0  0  0  0  0  0  0  0
   -3.7898   25.7977   -4.0862 C   0  0  0  0  0  0  0  0  0  0  0  0
   -2.9134   25.9951   -4.9286 O   0  0  0  0  0  0  0  0  0  0  0  0
   -3.4612   25.9022   -2.7208 C   0  0  0  0  0  0  0  0  0  0  0  0
   -4.4635   25.7125   -1.7715 C   0  0  0  0  0  0  0  0  0  0  0  0
   -5.2467   25.4754   -5.4489 H   0  0  0  0  0  0  0  0  0  0  0  0
 31 30  1  0  0  0
 37 30  1  0  0  0
 30 24  1  0  0  0
 26 23  1  0  0  0
 33 31  1  0  0  0
 31 32  2  0  0  0
  3  1  1  0  0  0
  1 22  1  0  0  0
 34 33  1  0  0  0
 35 34  2  0  0  0
 34 36  1  0  0  0
 36 37  2  0  0  0
 28 24  1  0  0  0
 24 25  1  0  0  0
 16  3  1  0  0  0
  4  3  1  0  0  0
 10  3  1  0  0  0
  9  4  2  0  0  0
  4  5  1  0  0  0
  6  5  2  0  0  0
 26 25  1  0  0  0
  7  6  1  0  0  0
  8  7  2  0  0  0
  8  9  1  0  0  0
 11 10  2  0  0  0
 10 15  1  0  0  0
 12 11  1  0  0  0
 12 13  2  0  0  0
 13 14  1  0  0  0
 14 15  2  0  0  0
 27 26  1  0  0  0
 21 16  2  0  0  0
 16 17  1  0  0  0
 18 17  2  0  0  0
 19 18  1  0  0  0
 20 19  2  0  0  0
 20 21  1  0  0  0
 22 27  1  0  0  0
 27 28  1  0  0  0
 23 29  1  0  0  0
  1  2  1  0  0  0
 33 38  1  0  0  0
M  END
> <minimizedAffinity>
-7.47729

$$$$
