6CDL_GR5_B_201


 52 58  0  0  0  0  0  0  0  0999 V2000
   15.5989   23.6740   17.9902 C   0  0  0  0  0  0  0  0  0  0  0  0
   14.4638   24.4017   18.4648 O   0  0  0  0  0  0  0  0  0  0  0  0
   14.0045   24.8098   17.7142 H   0  0  0  0  0  0  0  0  0  0  0  0
   16.5908   24.6316   17.3275 C   0  0  0  0  0  0  0  0  0  0  0  0
   17.9277   24.0851   17.3847 N   0  0  0  0  0  0  0  0  0  0  0  0
   18.6829   23.8994   15.9486 S   0  0  0  0  0  0  0  0  0  0  0  0
   17.6698   23.7021   14.9281 O   0  0  0  0  0  0  0  0  0  0  0  0
   19.6286   22.7649   16.1691 O   0  0  0  0  0  0  0  0  0  0  0  0
   23.3372   26.7917   15.7945 S   0  0  0  0  0  0  0  0  0  0  0  0
   21.9290   28.6559   15.0061 N   0  0  0  0  0  0  0  0  0  0  0  0
   23.1982   28.4464   15.3132 C   0  0  0  0  0  0  0  0  0  0  0  0
   21.0972   27.6018   15.1399 C   0  0  0  0  0  0  0  0  0  0  0  0
   21.6488   26.4546   15.5992 C   0  0  0  0  0  0  0  0  0  0  0  0
   20.9985   25.3225   15.8105 C   0  0  0  0  0  0  0  0  0  0  0  0
   19.6155   25.3290   15.6036 C   0  0  0  0  0  0  0  0  0  0  0  0
   19.0151   26.4402   15.0265 C   0  0  0  0  0  0  0  0  0  0  0  0
   19.7966   27.5555   14.7617 C   0  0  0  0  0  0  0  0  0  0  0  0
   24.0406   29.4276   15.2222 N   0  0  0  0  0  0  0  0  0  0  0  0
   23.6641   30.3253   15.0753 H   0  0  0  0  0  0  0  0  0  0  0  0
   25.4729   29.3305   15.3154 C   0  0  0  0  0  0  0  0  0  0  0  0
   26.2395   30.5705   15.7347 C   0  0  0  0  0  0  0  0  0  0  0  0
   25.9832   29.4338   16.7188 C   0  0  0  0  0  0  0  0  0  0  0  0
   18.7728   24.5835   18.4600 C   0  0  0  0  0  0  0  0  0  0  0  0
   19.0047   23.5168   19.5520 C   0  0  0  0  0  0  0  0  0  0  0  0
   20.4930   23.3761   19.8617 C   0  0  0  0  0  0  0  0  0  0  0  0
   18.3117   23.9922   20.8592 C   0  0  0  0  0  0  0  0  0  0  0  0
   15.1913   22.5015   17.0997 C   0  0  0  0  0  0  0  0  0  0  0  0
   14.3289   21.5848   17.8693 N   0  0  0  0  0  0  0  0  0  0  0  0
   14.6888   20.3099   18.0880 C   0  0  0  0  0  0  0  0  0  0  0  0
   15.8602   19.9324   17.9793 O   0  0  0  0  0  0  0  0  0  0  0  0
   13.4738   21.9139   18.2292 H   0  0  0  0  0  0  0  0  0  0  0  0
   13.6575   19.4958   18.4058 O   0  0  0  0  0  0  0  0  0  0  0  0
   13.9767   18.1020   18.2999 C   0  0  0  0  0  0  0  0  0  0  0  0
   12.7350   17.2948   18.0207 C   0  0  0  0  0  0  0  0  0  0  0  0
   12.1227   16.9081   19.3262 C   0  0  0  0  0  0  0  0  0  0  0  0
   10.8575   17.6740   19.6452 C   0  0  0  0  0  0  0  0  0  0  0  0
   11.0523   18.1181   20.9972 O   0  0  0  0  0  0  0  0  0  0  0  0
   12.4442   18.4779   21.0455 C   0  0  0  0  0  0  0  0  0  0  0  0
   13.1167   17.2619   20.4178 C   0  0  0  0  0  0  0  0  0  0  0  0
   14.3998   17.6045   19.6804 C   0  0  0  0  0  0  0  0  0  0  0  0
   11.8173   17.8608   17.0099 C   0  0  0  0  0  0  0  0  0  0  0  0
   10.7200   18.7210   17.5110 C   0  0  0  0  0  0  0  0  0  0  0  0
   10.7603   18.9005   18.9099 O   0  0  0  0  0  0  0  0  0  0  0  0
   14.4206   23.0391   15.8660 C   0  0  0  0  0  0  0  0  0  0  0  0
   12.4871   21.5857   15.1866 C   0  0  0  0  0  0  0  0  0  0  0  0
   11.9471   20.4996   14.5438 C   0  0  0  0  0  0  0  0  0  0  0  0
   12.7653   19.6404   13.8080 C   0  0  0  0  0  0  0  0  0  0  0  0
   14.1132   19.9142   13.7549 C   0  0  0  0  0  0  0  0  0  0  0  0
   14.7128   20.9957   14.3884 C   0  0  0  0  0  0  0  0  0  0  0  0
   13.8594   21.8347   15.1085 C   0  0  0  0  0  0  0  0  0  0  0  0
   10.6211   20.2349   14.5804 F   0  0  0  0  0  0  0  0  0  0  0  0
   14.8902   19.0663   13.0548 F   0  0  0  0  0  0  0  0  0  0  0  0
 52 48  1  0  0  0
 47 48  2  0  0  0
 47 46  1  0  0  0
 48 49  1  0  0  0
 51 46  1  0  0  0
 46 45  2  0  0  0
 49 50  2  0  0  0
 17 16  2  0  0  0
 17 12  1  0  0  0
 10 12  1  0  0  0
 10 11  2  0  0  0
 16 15  1  0  0  0
 45 50  1  0  0  0
 50 44  1  0  0  0
 12 13  2  0  0  0
  7  6  2  0  0  0
 18 11  1  0  0  0
 18 20  1  0  0  0
 11  9  1  0  0  0
 22 20  1  0  0  0
 22 21  1  0  0  0
 15 14  2  0  0  0
 15  6  1  0  0  0
 20 21  1  0  0  0
 13  9  1  0  0  0
 13 14  1  0  0  0
 44 27  1  0  0  0
  6  8  2  0  0  0
  6  5  1  0  0  0
 41 42  1  0  0  0
 41 34  1  0  0  0
 27 28  1  0  0  0
 27  1  1  0  0  0
 42 43  1  0  0  0
 30 29  2  0  0  0
  5  4  1  0  0  0
  5 23  1  0  0  0
  4  1  1  0  0  0
 34 33  1  0  0  0
 34 35  1  0  0  0
 29 28  1  0  0  0
 29 32  1  0  0  0
 33 32  1  0  0  0
 33 40  1  0  0  0
  1  2  1  0  0  0
 23 24  1  0  0  0
 43 36  1  0  0  0
 35 36  1  0  0  0
 35 39  1  0  0  0
 40 39  1  0  0  0
 36 37  1  0  0  0
 25 24  1  0  0  0
 24 26  1  0  0  0
 39 38  1  0  0  0
 37 38  1  0  0  0
 18 19  1  0  0  0
  2  3  1  0  0  0
 28 31  1  0  0  0
M  END
> <minimizedAffinity>
-10.88521

$$$$
6CDL_GR5_B_201


 52 58  0  0  0  0  0  0  0  0999 V2000
   15.3716   23.5281   18.3765 C   0  0  0  0  0  0  0  0  0  0  0  0
   14.3386   24.5161   18.3809 O   0  0  0  0  0  0  0  0  0  0  0  0
   14.3093   24.9571   17.5175 H   0  0  0  0  0  0  0  0  0  0  0  0
   16.7314   24.1982   18.1717 C   0  0  0  0  0  0  0  0  0  0  0  0
   17.4786   23.5092   17.1440 N   0  0  0  0  0  0  0  0  0  0  0  0
   17.7430   24.3517   15.7701 S   0  0  0  0  0  0  0  0  0  0  0  0
   16.7862   25.4418   15.7180 O   0  0  0  0  0  0  0  0  0  0  0  0
   17.6435   23.3324   14.6832 O   0  0  0  0  0  0  0  0  0  0  0  0
   21.8016   27.3900   17.8552 S   0  0  0  0  0  0  0  0  0  0  0  0
   23.0980   26.6669   15.8865 N   0  0  0  0  0  0  0  0  0  0  0  0
   23.2614   27.4605   16.9316 C   0  0  0  0  0  0  0  0  0  0  0  0
   21.9077   26.0385   15.7901 C   0  0  0  0  0  0  0  0  0  0  0  0
   21.0034   26.3109   16.7594 C   0  0  0  0  0  0  0  0  0  0  0  0
   19.7823   25.8081   16.8315 C   0  0  0  0  0  0  0  0  0  0  0  0
   19.3684   24.9765   15.7861 C   0  0  0  0  0  0  0  0  0  0  0  0
   20.2883   24.5729   14.8275 C   0  0  0  0  0  0  0  0  0  0  0  0
   21.5747   25.0898   14.8814 C   0  0  0  0  0  0  0  0  0  0  0  0
   24.3778   28.1056   17.0668 N   0  0  0  0  0  0  0  0  0  0  0  0
   24.5418   28.8474   16.4406 H   0  0  0  0  0  0  0  0  0  0  0  0
   25.3999   27.8415   18.0441 C   0  0  0  0  0  0  0  0  0  0  0  0
   25.2954   26.5586   18.8469 C   0  0  0  0  0  0  0  0  0  0  0  0
   26.2764   26.6824   17.6855 C   0  0  0  0  0  0  0  0  0  0  0  0
   18.6106   22.7178   17.6034 C   0  0  0  0  0  0  0  0  0  0  0  0
   18.7916   22.8056   19.1343 C   0  0  0  0  0  0  0  0  0  0  0  0
   18.6178   21.4322   19.7780 C   0  0  0  0  0  0  0  0  0  0  0  0
   20.2456   23.2661   19.4323 C   0  0  0  0  0  0  0  0  0  0  0  0
   15.0838   22.4085   17.3777 C   0  0  0  0  0  0  0  0  0  0  0  0
   14.2393   21.3865   18.0247 N   0  0  0  0  0  0  0  0  0  0  0  0
   14.5658   20.0849   17.9816 C   0  0  0  0  0  0  0  0  0  0  0  0
   15.7135   19.7059   17.7253 O   0  0  0  0  0  0  0  0  0  0  0  0
   13.4212   21.6640   18.4969 H   0  0  0  0  0  0  0  0  0  0  0  0
   13.5280   19.2511   18.2160 O   0  0  0  0  0  0  0  0  0  0  0  0
   13.9128   17.8732   18.3116 C   0  0  0  0  0  0  0  0  0  0  0  0
   12.7164   16.9758   18.1256 C   0  0  0  0  0  0  0  0  0  0  0  0
   12.0904   16.7447   19.4610 C   0  0  0  0  0  0  0  0  0  0  0  0
   10.7841   17.4851   19.6470 C   0  0  0  0  0  0  0  0  0  0  0  0
   10.9252   18.1214   20.9269 O   0  0  0  0  0  0  0  0  0  0  0  0
   12.2976   18.5515   20.9496 C   0  0  0  0  0  0  0  0  0  0  0  0
   13.0401   17.2943   20.5103 C   0  0  0  0  0  0  0  0  0  0  0  0
   14.3239   17.5932   19.7555 C   0  0  0  0  0  0  0  0  0  0  0  0
   11.7990   17.3509   17.0292 C   0  0  0  0  0  0  0  0  0  0  0  0
   10.6517   18.2181   17.3853 C   0  0  0  0  0  0  0  0  0  0  0  0
   10.6493   18.5916   18.7459 O   0  0  0  0  0  0  0  0  0  0  0  0
   14.3481   22.9976   16.1461 C   0  0  0  0  0  0  0  0  0  0  0  0
   12.4904   21.4998   15.3602 C   0  0  0  0  0  0  0  0  0  0  0  0
   12.0052   20.4381   14.6378 C   0  0  0  0  0  0  0  0  0  0  0  0
   12.8640   19.6808   13.8391 C   0  0  0  0  0  0  0  0  0  0  0  0
   14.1955   20.0282   13.8062 C   0  0  0  0  0  0  0  0  0  0  0  0
   14.7404   21.0890   14.5189 C   0  0  0  0  0  0  0  0  0  0  0  0
   13.8475   21.8256   15.3004 C   0  0  0  0  0  0  0  0  0  0  0  0
   10.6950   20.1022   14.6550 F   0  0  0  0  0  0  0  0  0  0  0  0
   15.0127   19.2771   13.0439 F   0  0  0  0  0  0  0  0  0  0  0  0
 52 48  1  0  0  0
 47 48  2  0  0  0
 47 46  1  0  0  0
 48 49  1  0  0  0
 51 46  1  0  0  0
 46 45  2  0  0  0
 49 50  2  0  0  0
 17 16  2  0  0  0
 17 12  1  0  0  0
 10 12  1  0  0  0
 10 11  2  0  0  0
 16 15  1  0  0  0
 45 50  1  0  0  0
 50 44  1  0  0  0
 12 13  2  0  0  0
  7  6  2  0  0  0
 18 11  1  0  0  0
 18 20  1  0  0  0
 11  9  1  0  0  0
 22 20  1  0  0  0
 22 21  1  0  0  0
 15 14  2  0  0  0
 15  6  1  0  0  0
 20 21  1  0  0  0
 13  9  1  0  0  0
 13 14  1  0  0  0
 44 27  1  0  0  0
  6  8  2  0  0  0
  6  5  1  0  0  0
 41 42  1  0  0  0
 41 34  1  0  0  0
 27 28  1  0  0  0
 27  1  1  0  0  0
 42 43  1  0  0  0
 30 29  2  0  0  0
  5  4  1  0  0  0
  5 23  1  0  0  0
  4  1  1  0  0  0
 34 33  1  0  0  0
 34 35  1  0  0  0
 29 28  1  0  0  0
 29 32  1  0  0  0
 33 32  1  0  0  0
 33 40  1  0  0  0
  1  2  1  0  0  0
 23 24  1  0  0  0
 43 36  1  0  0  0
 35 36  1  0  0  0
 35 39  1  0  0  0
 40 39  1  0  0  0
 36 37  1  0  0  0
 25 24  1  0  0  0
 24 26  1  0  0  0
 39 38  1  0  0  0
 37 38  1  0  0  0
 18 19  1  0  0  0
  2  3  1  0  0  0
 28 31  1  0  0  0
M  END
> <minimizedAffinity>
-10.49419

$$$$
6CDL_GR5_B_201


 52 58  0  0  0  0  0  0  0  0999 V2000
   20.1939   25.4735   18.9036 C   0  0  0  0  0  0  0  0  0  0  0  0
   20.2969   25.6286   20.3209 O   0  0  0  0  0  0  0  0  0  0  0  0
   20.9228   24.9765   20.6729 H   0  0  0  0  0  0  0  0  0  0  0  0
   19.6310   24.0905   18.5713 C   0  0  0  0  0  0  0  0  0  0  0  0
   18.3023   24.2120   18.0154 N   0  0  0  0  0  0  0  0  0  0  0  0
   17.0702   23.8991   19.0407 S   0  0  0  0  0  0  0  0  0  0  0  0
   16.0415   24.9009   18.8293 O   0  0  0  0  0  0  0  0  0  0  0  0
   17.7059   23.8795   20.3919 O   0  0  0  0  0  0  0  0  0  0  0  0
   13.0059   20.2742   18.4133 S   0  0  0  0  0  0  0  0  0  0  0  0
   14.7963   18.6054   18.1155 N   0  0  0  0  0  0  0  0  0  0  0  0
   13.4750   18.6287   18.1658 C   0  0  0  0  0  0  0  0  0  0  0  0
   15.4239   19.7903   18.2671 C   0  0  0  0  0  0  0  0  0  0  0  0
   14.6327   20.8672   18.4807 C   0  0  0  0  0  0  0  0  0  0  0  0
   15.0577   22.1057   18.6667 C   0  0  0  0  0  0  0  0  0  0  0  0
   16.4405   22.3096   18.7100 C   0  0  0  0  0  0  0  0  0  0  0  0
   17.2966   21.2655   18.3855 C   0  0  0  0  0  0  0  0  0  0  0  0
   16.7523   20.0168   18.1222 C   0  0  0  0  0  0  0  0  0  0  0  0
   12.8183   17.5174   18.0455 N   0  0  0  0  0  0  0  0  0  0  0  0
   12.6194   17.2150   17.1299 H   0  0  0  0  0  0  0  0  0  0  0  0
   12.3524   16.6839   19.1214 C   0  0  0  0  0  0  0  0  0  0  0  0
   12.5595   17.1797   20.5401 C   0  0  0  0  0  0  0  0  0  0  0  0
   11.1942   17.2709   19.8662 C   0  0  0  0  0  0  0  0  0  0  0  0
   18.0858   25.3447   17.1271 C   0  0  0  0  0  0  0  0  0  0  0  0
   17.5517   24.9014   15.7479 C   0  0  0  0  0  0  0  0  0  0  0  0
   18.0978   25.8021   14.6427 C   0  0  0  0  0  0  0  0  0  0  0  0
   18.0677   23.4643   15.4591 C   0  0  0  0  0  0  0  0  0  0  0  0
   21.5143   25.7826   18.2001 C   0  0  0  0  0  0  0  0  0  0  0  0
   22.5883   24.9733   18.8067 N   0  0  0  0  0  0  0  0  0  0  0  0
   23.5171   25.5314   19.5994 C   0  0  0  0  0  0  0  0  0  0  0  0
   23.3433   26.6292   20.1391 O   0  0  0  0  0  0  0  0  0  0  0  0
   22.6245   24.0060   18.6270 H   0  0  0  0  0  0  0  0  0  0  0  0
   24.6459   24.7980   19.7219 O   0  0  0  0  0  0  0  0  0  0  0  0
   25.3692   24.6533   18.4924 C   0  0  0  0  0  0  0  0  0  0  0  0
   26.5414   23.7237   18.6746 C   0  0  0  0  0  0  0  0  0  0  0  0
   27.7198   24.5326   19.1056 C   0  0  0  0  0  0  0  0  0  0  0  0
   28.0780   24.3407   20.5630 C   0  0  0  0  0  0  0  0  0  0  0  0
   28.2273   25.6789   21.0627 O   0  0  0  0  0  0  0  0  0  0  0  0
   27.1760   26.4113   20.4089 C   0  0  0  0  0  0  0  0  0  0  0  0
   27.3480   25.9965   18.9517 C   0  0  0  0  0  0  0  0  0  0  0  0
   26.0419   25.9874   18.1763 C   0  0  0  0  0  0  0  0  0  0  0  0
   26.2705   22.4966   19.4524 C   0  0  0  0  0  0  0  0  0  0  0  0
   26.5412   22.5548   20.9079 C   0  0  0  0  0  0  0  0  0  0  0  0
   26.9836   23.8256   21.3321 O   0  0  0  0  0  0  0  0  0  0  0  0
   21.3839   25.4408   16.6931 C   0  0  0  0  0  0  0  0  0  0  0  0
   22.9524   27.3946   16.5064 C   0  0  0  0  0  0  0  0  0  0  0  0
   23.4834   28.4704   15.8392 C   0  0  0  0  0  0  0  0  0  0  0  0
   23.0444   28.7851   14.5519 C   0  0  0  0  0  0  0  0  0  0  0  0
   22.0713   27.9932   13.9858 C   0  0  0  0  0  0  0  0  0  0  0  0
   21.4971   26.8962   14.6162 C   0  0  0  0  0  0  0  0  0  0  0  0
   21.9680   26.6107   15.8997 C   0  0  0  0  0  0  0  0  0  0  0  0
   24.4506   29.2424   16.3852 F   0  0  0  0  0  0  0  0  0  0  0  0
   21.6475   28.3206   12.7504 F   0  0  0  0  0  0  0  0  0  0  0  0
 52 48  1  0  0  0
 47 48  2  0  0  0
 47 46  1  0  0  0
 48 49  1  0  0  0
 51 46  1  0  0  0
 46 45  2  0  0  0
 49 50  2  0  0  0
 17 16  2  0  0  0
 17 12  1  0  0  0
 10 12  1  0  0  0
 10 11  2  0  0  0
 16 15  1  0  0  0
 45 50  1  0  0  0
 50 44  1  0  0  0
 12 13  2  0  0  0
  7  6  2  0  0  0
 18 11  1  0  0  0
 18 20  1  0  0  0
 11  9  1  0  0  0
 22 20  1  0  0  0
 22 21  1  0  0  0
 15 14  2  0  0  0
 15  6  1  0  0  0
 20 21  1  0  0  0
 13  9  1  0  0  0
 13 14  1  0  0  0
 44 27  1  0  0  0
  6  8  2  0  0  0
  6  5  1  0  0  0
 41 42  1  0  0  0
 41 34  1  0  0  0
 27 28  1  0  0  0
 27  1  1  0  0  0
 42 43  1  0  0  0
 30 29  2  0  0  0
  5  4  1  0  0  0
  5 23  1  0  0  0
  4  1  1  0  0  0
 34 33  1  0  0  0
 34 35  1  0  0  0
 29 28  1  0  0  0
 29 32  1  0  0  0
 33 32  1  0  0  0
 33 40  1  0  0  0
  1  2  1  0  0  0
 23 24  1  0  0  0
 43 36  1  0  0  0
 35 36  1  0  0  0
 35 39  1  0  0  0
 40 39  1  0  0  0
 36 37  1  0  0  0
 25 24  1  0  0  0
 24 26  1  0  0  0
 39 38  1  0  0  0
 37 38  1  0  0  0
 18 19  1  0  0  0
  2  3  1  0  0  0
 28 31  1  0  0  0
M  END
> <minimizedAffinity>
-9.88626

$$$$
6CDL_GR5_B_201


 52 58  0  0  0  0  0  0  0  0999 V2000
   15.3153   23.4995   17.9765 C   0  0  0  0  0  0  0  0  0  0  0  0
   14.1457   24.2108   18.3883 O   0  0  0  0  0  0  0  0  0  0  0  0
   13.7321   24.6274   17.6162 H   0  0  0  0  0  0  0  0  0  0  0  0
   16.3393   24.4754   17.3944 C   0  0  0  0  0  0  0  0  0  0  0  0
   17.6631   23.8967   17.4393 N   0  0  0  0  0  0  0  0  0  0  0  0
   18.4071   23.7083   15.9977 S   0  0  0  0  0  0  0  0  0  0  0  0
   17.3858   23.5164   14.9844 O   0  0  0  0  0  0  0  0  0  0  0  0
   19.3491   22.5692   16.2108 O   0  0  0  0  0  0  0  0  0  0  0  0
   23.0465   26.6280   15.9384 S   0  0  0  0  0  0  0  0  0  0  0  0
   21.6590   28.4580   15.0411 N   0  0  0  0  0  0  0  0  0  0  0  0
   22.9164   28.2667   15.4032 C   0  0  0  0  0  0  0  0  0  0  0  0
   20.8289   27.4025   15.1738 C   0  0  0  0  0  0  0  0  0  0  0  0
   21.3690   26.2732   15.6878 C   0  0  0  0  0  0  0  0  0  0  0  0
   20.7178   25.1432   15.9073 C   0  0  0  0  0  0  0  0  0  0  0  0
   19.3439   25.1337   15.6469 C   0  0  0  0  0  0  0  0  0  0  0  0
   18.7598   26.2232   15.0143 C   0  0  0  0  0  0  0  0  0  0  0  0
   19.5442   27.3358   14.7470 C   0  0  0  0  0  0  0  0  0  0  0  0
   23.7559   29.2509   15.3158 N   0  0  0  0  0  0  0  0  0  0  0  0
   23.5468   29.9576   14.6631 H   0  0  0  0  0  0  0  0  0  0  0  0
   24.9636   29.4092   16.0813 C   0  0  0  0  0  0  0  0  0  0  0  0
   26.2452   28.8368   15.5059 C   0  0  0  0  0  0  0  0  0  0  0  0
   25.9531   30.3325   15.4418 C   0  0  0  0  0  0  0  0  0  0  0  0
   18.5248   24.3633   18.5157 C   0  0  0  0  0  0  0  0  0  0  0  0
   18.2895   23.5775   19.8239 C   0  0  0  0  0  0  0  0  0  0  0  0
   18.8449   22.1600   19.7092 C   0  0  0  0  0  0  0  0  0  0  0  0
   19.0719   24.2807   20.9677 C   0  0  0  0  0  0  0  0  0  0  0  0
   14.9760   22.3385   17.0433 C   0  0  0  0  0  0  0  0  0  0  0  0
   14.1947   21.3315   17.7861 N   0  0  0  0  0  0  0  0  0  0  0  0
   14.6145   20.0602   17.8862 C   0  0  0  0  0  0  0  0  0  0  0  0
   15.7912   19.7414   17.6851 O   0  0  0  0  0  0  0  0  0  0  0  0
   13.3498   21.5966   18.2164 H   0  0  0  0  0  0  0  0  0  0  0  0
   13.6348   19.1819   18.1964 O   0  0  0  0  0  0  0  0  0  0  0  0
   12.4613   19.8031   18.7376 C   0  0  0  0  0  0  0  0  0  0  0  0
   11.9857   19.0605   19.9597 C   0  0  0  0  0  0  0  0  0  0  0  0
   11.0419   17.9901   19.5213 C   0  0  0  0  0  0  0  0  0  0  0  0
   11.6297   16.5988   19.6115 C   0  0  0  0  0  0  0  0  0  0  0  0
   11.3270   16.0110   18.3364 O   0  0  0  0  0  0  0  0  0  0  0  0
   11.5210   17.0891   17.4041 C   0  0  0  0  0  0  0  0  0  0  0  0
   10.7374   18.2251   18.0526 C   0  0  0  0  0  0  0  0  0  0  0  0
   11.3152   19.5968   17.7495 C   0  0  0  0  0  0  0  0  0  0  0  0
   13.0399   18.6533   20.9121 C   0  0  0  0  0  0  0  0  0  0  0  0
   13.6072   17.2955   20.7402 C   0  0  0  0  0  0  0  0  0  0  0  0
   13.0628   16.6107   19.6332 O   0  0  0  0  0  0  0  0  0  0  0  0
   14.1471   22.8700   15.8452 C   0  0  0  0  0  0  0  0  0  0  0  0
   12.3598   21.2987   15.0394 C   0  0  0  0  0  0  0  0  0  0  0  0
   11.9290   20.2062   14.3287 C   0  0  0  0  0  0  0  0  0  0  0  0
   12.8344   19.4564   13.5756 C   0  0  0  0  0  0  0  0  0  0  0  0
   14.1555   19.8430   13.5751 C   0  0  0  0  0  0  0  0  0  0  0  0
   14.6463   20.9362   14.2781 C   0  0  0  0  0  0  0  0  0  0  0  0
   13.7080   21.6639   15.0134 C   0  0  0  0  0  0  0  0  0  0  0  0
   10.6294   19.8314   14.3138 F   0  0  0  0  0  0  0  0  0  0  0  0
   15.0180   19.0991   12.8570 F   0  0  0  0  0  0  0  0  0  0  0  0
 52 48  1  0  0  0
 47 48  2  0  0  0
 47 46  1  0  0  0
 48 49  1  0  0  0
 51 46  1  0  0  0
 46 45  2  0  0  0
 49 50  2  0  0  0
 17 16  2  0  0  0
 17 12  1  0  0  0
 10 12  1  0  0  0
 10 11  2  0  0  0
 16 15  1  0  0  0
 45 50  1  0  0  0
 50 44  1  0  0  0
 12 13  2  0  0  0
  7  6  2  0  0  0
 18 11  1  0  0  0
 18 20  1  0  0  0
 11  9  1  0  0  0
 22 20  1  0  0  0
 22 21  1  0  0  0
 15 14  2  0  0  0
 15  6  1  0  0  0
 20 21  1  0  0  0
 13  9  1  0  0  0
 13 14  1  0  0  0
 44 27  1  0  0  0
  6  8  2  0  0  0
  6  5  1  0  0  0
 41 42  1  0  0  0
 41 34  1  0  0  0
 27 28  1  0  0  0
 27  1  1  0  0  0
 42 43  1  0  0  0
 30 29  2  0  0  0
  5  4  1  0  0  0
  5 23  1  0  0  0
  4  1  1  0  0  0
 34 33  1  0  0  0
 34 35  1  0  0  0
 29 28  1  0  0  0
 29 32  1  0  0  0
 33 32  1  0  0  0
 33 40  1  0  0  0
  1  2  1  0  0  0
 23 24  1  0  0  0
 43 36  1  0  0  0
 35 36  1  0  0  0
 35 39  1  0  0  0
 40 39  1  0  0  0
 36 37  1  0  0  0
 25 24  1  0  0  0
 24 26  1  0  0  0
 39 38  1  0  0  0
 37 38  1  0  0  0
 18 19  1  0  0  0
  2  3  1  0  0  0
 28 31  1  0  0  0
M  END
> <minimizedAffinity>
-9.85843

$$$$
6CDL_GR5_B_201


 52 58  0  0  0  0  0  0  0  0999 V2000
   20.2595   25.5222   18.9159 C   0  0  0  0  0  0  0  0  0  0  0  0
   20.3008   25.6714   20.3370 O   0  0  0  0  0  0  0  0  0  0  0  0
   20.9136   25.0200   20.7128 H   0  0  0  0  0  0  0  0  0  0  0  0
   19.7167   24.1387   18.5538 C   0  0  0  0  0  0  0  0  0  0  0  0
   18.3789   24.2509   18.0183 N   0  0  0  0  0  0  0  0  0  0  0  0
   17.1651   23.9183   19.0592 S   0  0  0  0  0  0  0  0  0  0  0  0
   16.1313   24.9216   18.8825 O   0  0  0  0  0  0  0  0  0  0  0  0
   17.8240   23.8770   20.3987 O   0  0  0  0  0  0  0  0  0  0  0  0
   13.0924   20.3171   18.3551 S   0  0  0  0  0  0  0  0  0  0  0  0
   14.8786   18.6402   18.0776 N   0  0  0  0  0  0  0  0  0  0  0  0
   13.5568   18.6702   18.1080 C   0  0  0  0  0  0  0  0  0  0  0  0
   15.5098   19.8213   18.2437 C   0  0  0  0  0  0  0  0  0  0  0  0
   14.7209   20.9013   18.4497 C   0  0  0  0  0  0  0  0  0  0  0  0
   15.1494   22.1369   18.6472 C   0  0  0  0  0  0  0  0  0  0  0  0
   16.5324   22.3334   18.7124 C   0  0  0  0  0  0  0  0  0  0  0  0
   17.3880   21.2863   18.3966 C   0  0  0  0  0  0  0  0  0  0  0  0
   16.8414   20.0415   18.1199 C   0  0  0  0  0  0  0  0  0  0  0  0
   12.8963   17.5628   17.9731 N   0  0  0  0  0  0  0  0  0  0  0  0
   12.6988   17.2716   17.0536 H   0  0  0  0  0  0  0  0  0  0  0  0
   12.4243   16.7187   19.0381 C   0  0  0  0  0  0  0  0  0  0  0  0
   12.5794   17.2225   20.4606 C   0  0  0  0  0  0  0  0  0  0  0  0
   11.2308   17.2752   19.7498 C   0  0  0  0  0  0  0  0  0  0  0  0
   18.1382   25.3878   17.1417 C   0  0  0  0  0  0  0  0  0  0  0  0
   17.6519   24.9454   15.7447 C   0  0  0  0  0  0  0  0  0  0  0  0
   18.2373   25.8456   14.6594 C   0  0  0  0  0  0  0  0  0  0  0  0
   18.1759   23.5077   15.4738 C   0  0  0  0  0  0  0  0  0  0  0  0
   21.6077   25.8393   18.2711 C   0  0  0  0  0  0  0  0  0  0  0  0
   22.6598   25.0421   18.9297 N   0  0  0  0  0  0  0  0  0  0  0  0
   23.5941   25.6231   19.6992 C   0  0  0  0  0  0  0  0  0  0  0  0
   23.4393   26.7518   20.1775 O   0  0  0  0  0  0  0  0  0  0  0  0
   22.6772   24.0660   18.8026 H   0  0  0  0  0  0  0  0  0  0  0  0
   24.7065   24.8745   19.8709 O   0  0  0  0  0  0  0  0  0  0  0  0
   24.4439   23.5824   20.4343 C   0  0  0  0  0  0  0  0  0  0  0  0
   25.0832   23.4583   21.7934 C   0  0  0  0  0  0  0  0  0  0  0  0
   26.4713   22.9390   21.6139 C   0  0  0  0  0  0  0  0  0  0  0  0
   27.5379   23.9873   21.8435 C   0  0  0  0  0  0  0  0  0  0  0  0
   28.4035   23.8566   20.7049 O   0  0  0  0  0  0  0  0  0  0  0  0
   27.5016   23.6113   19.6114 C   0  0  0  0  0  0  0  0  0  0  0  0
   26.6112   22.5047   20.1660 C   0  0  0  0  0  0  0  0  0  0  0  0
   25.1982   22.5415   19.6098 C   0  0  0  0  0  0  0  0  0  0  0  0
   24.9329   24.6304   22.6811 C   0  0  0  0  0  0  0  0  0  0  0  0
   26.0207   25.6359   22.6499 C   0  0  0  0  0  0  0  0  0  0  0  0
   27.0301   25.3216   21.7156 O   0  0  0  0  0  0  0  0  0  0  0  0
   21.5483   25.4893   16.7615 C   0  0  0  0  0  0  0  0  0  0  0  0
   21.5759   26.9162   14.6938 C   0  0  0  0  0  0  0  0  0  0  0  0
   22.0350   27.9758   13.9515 C   0  0  0  0  0  0  0  0  0  0  0  0
   22.9920   28.8428   14.4821 C   0  0  0  0  0  0  0  0  0  0  0  0
   23.4553   28.5983   15.7549 C   0  0  0  0  0  0  0  0  0  0  0  0
   23.0289   27.5403   16.5480 C   0  0  0  0  0  0  0  0  0  0  0  0
   22.0664   26.7001   15.9838 C   0  0  0  0  0  0  0  0  0  0  0  0
   21.5716   28.2291   12.7062 F   0  0  0  0  0  0  0  0  0  0  0  0
   24.3901   29.4345   16.2448 F   0  0  0  0  0  0  0  0  0  0  0  0
 52 48  1  0  0  0
 47 48  2  0  0  0
 47 46  1  0  0  0
 48 49  1  0  0  0
 51 46  1  0  0  0
 46 45  2  0  0  0
 49 50  2  0  0  0
 17 16  2  0  0  0
 17 12  1  0  0  0
 10 12  1  0  0  0
 10 11  2  0  0  0
 16 15  1  0  0  0
 45 50  1  0  0  0
 50 44  1  0  0  0
 12 13  2  0  0  0
  7  6  2  0  0  0
 18 11  1  0  0  0
 18 20  1  0  0  0
 11  9  1  0  0  0
 22 20  1  0  0  0
 22 21  1  0  0  0
 15 14  2  0  0  0
 15  6  1  0  0  0
 20 21  1  0  0  0
 13  9  1  0  0  0
 13 14  1  0  0  0
 44 27  1  0  0  0
  6  8  2  0  0  0
  6  5  1  0  0  0
 41 42  1  0  0  0
 41 34  1  0  0  0
 27 28  1  0  0  0
 27  1  1  0  0  0
 42 43  1  0  0  0
 30 29  2  0  0  0
  5  4  1  0  0  0
  5 23  1  0  0  0
  4  1  1  0  0  0
 34 33  1  0  0  0
 34 35  1  0  0  0
 29 28  1  0  0  0
 29 32  1  0  0  0
 33 32  1  0  0  0
 33 40  1  0  0  0
  1  2  1  0  0  0
 23 24  1  0  0  0
 43 36  1  0  0  0
 35 36  1  0  0  0
 35 39  1  0  0  0
 40 39  1  0  0  0
 36 37  1  0  0  0
 25 24  1  0  0  0
 24 26  1  0  0  0
 39 38  1  0  0  0
 37 38  1  0  0  0
 18 19  1  0  0  0
  2  3  1  0  0  0
 28 31  1  0  0  0
M  END
> <minimizedAffinity>
-9.85802

$$$$
6CDL_GR5_B_201


 52 58  0  0  0  0  0  0  0  0999 V2000
   15.4143   23.8792   17.8827 C   0  0  0  0  0  0  0  0  0  0  0  0
   14.8081   24.9024   18.6757 O   0  0  0  0  0  0  0  0  0  0  0  0
   14.9004   24.6805   19.6154 H   0  0  0  0  0  0  0  0  0  0  0  0
   14.6859   22.5519   18.1011 C   0  0  0  0  0  0  0  0  0  0  0  0
   15.3988   21.4771   17.4485 N   0  0  0  0  0  0  0  0  0  0  0  0
   15.7577   20.1886   18.3856 S   0  0  0  0  0  0  0  0  0  0  0  0
   16.4519   20.6687   19.5664 O   0  0  0  0  0  0  0  0  0  0  0  0
   16.5310   19.2793   17.4883 O   0  0  0  0  0  0  0  0  0  0  0  0
   11.4809   16.8957   17.4281 S   0  0  0  0  0  0  0  0  0  0  0  0
   10.7220   17.5415   19.6834 N   0  0  0  0  0  0  0  0  0  0  0  0
   10.2887   16.8015   18.6766 C   0  0  0  0  0  0  0  0  0  0  0  0
   11.9083   18.1599   19.5068 C   0  0  0  0  0  0  0  0  0  0  0  0
   12.5102   17.9760   18.3088 C   0  0  0  0  0  0  0  0  0  0  0  0
   13.6641   18.5076   17.9413 C   0  0  0  0  0  0  0  0  0  0  0  0
   14.2822   19.3829   18.8398 C   0  0  0  0  0  0  0  0  0  0  0  0
   13.7702   19.5202   20.1233 C   0  0  0  0  0  0  0  0  0  0  0  0
   12.5960   18.8550   20.4452 C   0  0  0  0  0  0  0  0  0  0  0  0
    9.1458   16.1985   18.7816 N   0  0  0  0  0  0  0  0  0  0  0  0
    8.5488   16.4990   19.5045 H   0  0  0  0  0  0  0  0  0  0  0  0
    8.6664   15.1324   17.9430 C   0  0  0  0  0  0  0  0  0  0  0  0
    9.1623   13.7283   18.2323 C   0  0  0  0  0  0  0  0  0  0  0  0
    7.7676   14.1739   18.6600 C   0  0  0  0  0  0  0  0  0  0  0  0
   14.9589   21.1490   16.1002 C   0  0  0  0  0  0  0  0  0  0  0  0
   13.5091   21.6112   15.8387 C   0  0  0  0  0  0  0  0  0  0  0  0
   13.4886   22.8277   14.9165 C   0  0  0  0  0  0  0  0  0  0  0  0
   12.7542   20.4700   15.1020 C   0  0  0  0  0  0  0  0  0  0  0  0
   16.9217   23.7964   18.1164 C   0  0  0  0  0  0  0  0  0  0  0  0
   17.6101   24.6859   17.1618 N   0  0  0  0  0  0  0  0  0  0  0  0
   18.7464   24.3088   16.5542 C   0  0  0  0  0  0  0  0  0  0  0  0
   19.0852   23.1231   16.4770 O   0  0  0  0  0  0  0  0  0  0  0  0
   17.2292   25.5725   16.9666 H   0  0  0  0  0  0  0  0  0  0  0  0
   19.4774   25.3378   16.0706 O   0  0  0  0  0  0  0  0  0  0  0  0
   20.6480   24.9204   15.3555 C   0  0  0  0  0  0  0  0  0  0  0  0
   21.8693   25.6311   15.8794 C   0  0  0  0  0  0  0  0  0  0  0  0
   22.0341   26.9049   15.1185 C   0  0  0  0  0  0  0  0  0  0  0  0
   21.6797   28.1350   15.9250 C   0  0  0  0  0  0  0  0  0  0  0  0
   20.8168   28.8837   15.0544 O   0  0  0  0  0  0  0  0  0  0  0  0
   20.0134   27.8767   14.4145 C   0  0  0  0  0  0  0  0  0  0  0  0
   21.0608   26.8688   13.9540 C   0  0  0  0  0  0  0  0  0  0  0  0
   20.5419   25.4415   13.9239 C   0  0  0  0  0  0  0  0  0  0  0  0
   21.9707   25.7300   17.3505 C   0  0  0  0  0  0  0  0  0  0  0  0
   21.4216   26.9552   17.9771 C   0  0  0  0  0  0  0  0  0  0  0  0
   20.8334   27.8322   17.0414 O   0  0  0  0  0  0  0  0  0  0  0  0
   17.2396   24.2355   19.5694 C   0  0  0  0  0  0  0  0  0  0  0  0
   18.7153   22.3012   20.1964 C   0  0  0  0  0  0  0  0  0  0  0  0
   19.9240   21.7578   20.5546 C   0  0  0  0  0  0  0  0  0  0  0  0
   21.0558   22.5685   20.6577 C   0  0  0  0  0  0  0  0  0  0  0  0
   20.9177   23.9128   20.3961 C   0  0  0  0  0  0  0  0  0  0  0  0
   19.7196   24.5157   20.0337 C   0  0  0  0  0  0  0  0  0  0  0  0
   18.6127   23.6696   19.9351 C   0  0  0  0  0  0  0  0  0  0  0  0
   20.0679   20.4350   20.7978 F   0  0  0  0  0  0  0  0  0  0  0  0
   22.0156   24.6830   20.5163 F   0  0  0  0  0  0  0  0  0  0  0  0
 52 48  1  0  0  0
 47 48  2  0  0  0
 47 46  1  0  0  0
 48 49  1  0  0  0
 51 46  1  0  0  0
 46 45  2  0  0  0
 49 50  2  0  0  0
 17 16  2  0  0  0
 17 12  1  0  0  0
 10 12  1  0  0  0
 10 11  2  0  0  0
 16 15  1  0  0  0
 45 50  1  0  0  0
 50 44  1  0  0  0
 12 13  2  0  0  0
  7  6  2  0  0  0
 18 11  1  0  0  0
 18 20  1  0  0  0
 11  9  1  0  0  0
 22 20  1  0  0  0
 22 21  1  0  0  0
 15 14  2  0  0  0
 15  6  1  0  0  0
 20 21  1  0  0  0
 13  9  1  0  0  0
 13 14  1  0  0  0
 44 27  1  0  0  0
  6  8  2  0  0  0
  6  5  1  0  0  0
 41 42  1  0  0  0
 41 34  1  0  0  0
 27 28  1  0  0  0
 27  1  1  0  0  0
 42 43  1  0  0  0
 30 29  2  0  0  0
  5  4  1  0  0  0
  5 23  1  0  0  0
  4  1  1  0  0  0
 34 33  1  0  0  0
 34 35  1  0  0  0
 29 28  1  0  0  0
 29 32  1  0  0  0
 33 32  1  0  0  0
 33 40  1  0  0  0
  1  2  1  0  0  0
 23 24  1  0  0  0
 43 36  1  0  0  0
 35 36  1  0  0  0
 35 39  1  0  0  0
 40 39  1  0  0  0
 36 37  1  0  0  0
 25 24  1  0  0  0
 24 26  1  0  0  0
 39 38  1  0  0  0
 37 38  1  0  0  0
 18 19  1  0  0  0
  2  3  1  0  0  0
 28 31  1  0  0  0
M  END
> <minimizedAffinity>
-9.76204

$$$$
6CDL_GR5_B_201


 52 58  0  0  0  0  0  0  0  0999 V2000
   18.1557   24.2420   18.8507 C   0  0  0  0  0  0  0  0  0  0  0  0
   18.0462   24.3278   20.2734 O   0  0  0  0  0  0  0  0  0  0  0  0
   18.7429   23.7923   20.6842 H   0  0  0  0  0  0  0  0  0  0  0  0
   17.9335   22.7979   18.3981 C   0  0  0  0  0  0  0  0  0  0  0  0
   16.5897   22.6338   17.8917 N   0  0  0  0  0  0  0  0  0  0  0  0
   15.4511   22.2614   19.0018 S   0  0  0  0  0  0  0  0  0  0  0  0
   14.3647   23.2151   18.8714 O   0  0  0  0  0  0  0  0  0  0  0  0
   16.1835   22.2680   20.3032 O   0  0  0  0  0  0  0  0  0  0  0  0
   11.5102   18.5549   18.1172 S   0  0  0  0  0  0  0  0  0  0  0  0
   13.3275   16.8895   18.1756 N   0  0  0  0  0  0  0  0  0  0  0  0
   12.0109   16.9014   18.0525 C   0  0  0  0  0  0  0  0  0  0  0  0
   13.9277   18.0894   18.3210 C   0  0  0  0  0  0  0  0  0  0  0  0
   13.1132   19.1696   18.3518 C   0  0  0  0  0  0  0  0  0  0  0  0
   13.5079   20.4231   18.5010 C   0  0  0  0  0  0  0  0  0  0  0  0
   14.8729   20.6453   18.7083 C   0  0  0  0  0  0  0  0  0  0  0  0
   15.7661   19.5905   18.5739 C   0  0  0  0  0  0  0  0  0  0  0  0
   15.2631   18.3201   18.3333 C   0  0  0  0  0  0  0  0  0  0  0  0
   11.3776   15.7769   17.9288 N   0  0  0  0  0  0  0  0  0  0  0  0
   11.3493   15.1926   18.7207 H   0  0  0  0  0  0  0  0  0  0  0  0
   10.7123   15.3010   16.7454 C   0  0  0  0  0  0  0  0  0  0  0  0
   10.1147   13.9072   16.7828 C   0  0  0  0  0  0  0  0  0  0  0  0
    9.2339   15.1449   16.9197 C   0  0  0  0  0  0  0  0  0  0  0  0
   16.1687   23.5948   16.8827 C   0  0  0  0  0  0  0  0  0  0  0  0
   15.9019   22.9198   15.5200 C   0  0  0  0  0  0  0  0  0  0  0  0
   16.4626   21.4998   15.5021 C   0  0  0  0  0  0  0  0  0  0  0  0
   14.3651   22.8037   15.3208 C   0  0  0  0  0  0  0  0  0  0  0  0
   19.4626   24.8489   18.3432 C   0  0  0  0  0  0  0  0  0  0  0  0
   20.5064   24.6829   19.3725 N   0  0  0  0  0  0  0  0  0  0  0  0
   21.3468   25.6841   19.6791 C   0  0  0  0  0  0  0  0  0  0  0  0
   21.0934   26.8606   19.3992 O   0  0  0  0  0  0  0  0  0  0  0  0
   20.5882   23.8222   19.8432 H   0  0  0  0  0  0  0  0  0  0  0  0
   22.4838   25.2788   20.2875 O   0  0  0  0  0  0  0  0  0  0  0  0
   23.4297   24.6814   19.3906 C   0  0  0  0  0  0  0  0  0  0  0  0
   24.6191   24.1537   20.1510 C   0  0  0  0  0  0  0  0  0  0  0  0
   25.6298   25.2470   20.2598 C   0  0  0  0  0  0  0  0  0  0  0  0
   25.7285   25.8359   21.6501 C   0  0  0  0  0  0  0  0  0  0  0  0
   25.6761   27.2543   21.4305 O   0  0  0  0  0  0  0  0  0  0  0  0
   24.7075   27.4055   20.3779 C   0  0  0  0  0  0  0  0  0  0  0  0
   25.1767   26.3778   19.3538 C   0  0  0  0  0  0  0  0  0  0  0  0
   24.0400   25.7899   18.5355 C   0  0  0  0  0  0  0  0  0  0  0  0
   24.3091   23.4229   21.3976 C   0  0  0  0  0  0  0  0  0  0  0  0
   24.3025   24.2128   22.6511 C   0  0  0  0  0  0  0  0  0  0  0  0
   24.5564   25.5838   22.4355 O   0  0  0  0  0  0  0  0  0  0  0  0
   19.8895   24.1275   17.0385 C   0  0  0  0  0  0  0  0  0  0  0  0
   21.2718   25.7362   15.6917 C   0  0  0  0  0  0  0  0  0  0  0  0
   21.4205   26.7088   14.7345 C   0  0  0  0  0  0  0  0  0  0  0  0
   20.3154   27.1517   14.0054 C   0  0  0  0  0  0  0  0  0  0  0  0
   19.0889   26.5902   14.2798 C   0  0  0  0  0  0  0  0  0  0  0  0
   18.8808   25.6068   15.2389 C   0  0  0  0  0  0  0  0  0  0  0  0
   20.0122   25.1864   15.9416 C   0  0  0  0  0  0  0  0  0  0  0  0
   22.6260   27.2528   14.4507 F   0  0  0  0  0  0  0  0  0  0  0  0
   18.0310   27.0405   13.5790 F   0  0  0  0  0  0  0  0  0  0  0  0
 52 48  1  0  0  0
 47 48  2  0  0  0
 47 46  1  0  0  0
 48 49  1  0  0  0
 51 46  1  0  0  0
 46 45  2  0  0  0
 49 50  2  0  0  0
 17 16  2  0  0  0
 17 12  1  0  0  0
 10 12  1  0  0  0
 10 11  2  0  0  0
 16 15  1  0  0  0
 45 50  1  0  0  0
 50 44  1  0  0  0
 12 13  2  0  0  0
  7  6  2  0  0  0
 18 11  1  0  0  0
 18 20  1  0  0  0
 11  9  1  0  0  0
 22 20  1  0  0  0
 22 21  1  0  0  0
 15 14  2  0  0  0
 15  6  1  0  0  0
 20 21  1  0  0  0
 13  9  1  0  0  0
 13 14  1  0  0  0
 44 27  1  0  0  0
  6  8  2  0  0  0
  6  5  1  0  0  0
 41 42  1  0  0  0
 41 34  1  0  0  0
 27 28  1  0  0  0
 27  1  1  0  0  0
 42 43  1  0  0  0
 30 29  2  0  0  0
  5  4  1  0  0  0
  5 23  1  0  0  0
  4  1  1  0  0  0
 34 33  1  0  0  0
 34 35  1  0  0  0
 29 28  1  0  0  0
 29 32  1  0  0  0
 33 32  1  0  0  0
 33 40  1  0  0  0
  1  2  1  0  0  0
 23 24  1  0  0  0
 43 36  1  0  0  0
 35 36  1  0  0  0
 35 39  1  0  0  0
 40 39  1  0  0  0
 36 37  1  0  0  0
 25 24  1  0  0  0
 24 26  1  0  0  0
 39 38  1  0  0  0
 37 38  1  0  0  0
 18 19  1  0  0  0
  2  3  1  0  0  0
 28 31  1  0  0  0
M  END
> <minimizedAffinity>
-9.71524

$$$$
6CDL_GR5_B_201


 52 58  0  0  0  0  0  0  0  0999 V2000
   21.0716   26.7317   18.1982 C   0  0  0  0  0  0  0  0  0  0  0  0
   20.6241   27.6775   19.1721 O   0  0  0  0  0  0  0  0  0  0  0  0
   19.7137   27.4673   19.4325 H   0  0  0  0  0  0  0  0  0  0  0  0
   20.2117   26.8370   16.9375 C   0  0  0  0  0  0  0  0  0  0  0  0
   20.7894   26.0506   15.8712 N   0  0  0  0  0  0  0  0  0  0  0  0
   19.7441   25.5091   14.7391 S   0  0  0  0  0  0  0  0  0  0  0  0
   20.5090   25.1153   13.5702 O   0  0  0  0  0  0  0  0  0  0  0  0
   18.7824   26.6359   14.5509 O   0  0  0  0  0  0  0  0  0  0  0  0
   15.2953   22.3452   15.2387 S   0  0  0  0  0  0  0  0  0  0  0  0
   16.6138   21.0818   16.8955 N   0  0  0  0  0  0  0  0  0  0  0  0
   15.3903   21.0624   16.3938 C   0  0  0  0  0  0  0  0  0  0  0  0
   17.4404   22.0390   16.4250 C   0  0  0  0  0  0  0  0  0  0  0  0
   16.9175   22.8897   15.5116 C   0  0  0  0  0  0  0  0  0  0  0  0
   17.5610   23.8975   14.9464 C   0  0  0  0  0  0  0  0  0  0  0  0
   18.8691   24.1443   15.3747 C   0  0  0  0  0  0  0  0  0  0  0  0
   19.4936   23.2392   16.2227 C   0  0  0  0  0  0  0  0  0  0  0  0
   18.7617   22.1618   16.7004 C   0  0  0  0  0  0  0  0  0  0  0  0
   14.5458   20.1767   16.8219 N   0  0  0  0  0  0  0  0  0  0  0  0
   14.4708   19.3448   16.3007 H   0  0  0  0  0  0  0  0  0  0  0  0
   13.7078   20.2931   17.9853 C   0  0  0  0  0  0  0  0  0  0  0  0
   13.2990   19.0147   18.6925 C   0  0  0  0  0  0  0  0  0  0  0  0
   14.4006   19.9073   19.2549 C   0  0  0  0  0  0  0  0  0  0  0  0
   22.0635   26.5242   15.3503 C   0  0  0  0  0  0  0  0  0  0  0  0
   22.0460   28.0442   15.0796 C   0  0  0  0  0  0  0  0  0  0  0  0
   23.3644   28.6839   15.5081 C   0  0  0  0  0  0  0  0  0  0  0  0
   21.9085   28.2697   13.5482 C   0  0  0  0  0  0  0  0  0  0  0  0
   21.1478   25.3176   18.7714 C   0  0  0  0  0  0  0  0  0  0  0  0
   22.5620   24.9569   18.9865 N   0  0  0  0  0  0  0  0  0  0  0  0
   23.4498   25.8589   19.4347 C   0  0  0  0  0  0  0  0  0  0  0  0
   23.0978   26.8945   20.0093 O   0  0  0  0  0  0  0  0  0  0  0  0
   22.8603   24.0379   18.7979 H   0  0  0  0  0  0  0  0  0  0  0  0
   24.7368   25.5374   19.1750 O   0  0  0  0  0  0  0  0  0  0  0  0
   25.5795   25.5730   20.3346 C   0  0  0  0  0  0  0  0  0  0  0  0
   26.9988   25.2234   19.9678 C   0  0  0  0  0  0  0  0  0  0  0  0
   27.1602   23.7430   20.0730 C   0  0  0  0  0  0  0  0  0  0  0  0
   27.2517   23.0530   18.7296 C   0  0  0  0  0  0  0  0  0  0  0  0
   26.3218   21.9635   18.8352 O   0  0  0  0  0  0  0  0  0  0  0  0
   25.2167   22.5221   19.5673 C   0  0  0  0  0  0  0  0  0  0  0  0
   25.9134   23.1957   20.7445 C   0  0  0  0  0  0  0  0  0  0  0  0
   25.1744   24.4217   21.2525 C   0  0  0  0  0  0  0  0  0  0  0  0
   27.5143   25.8516   18.7333 C   0  0  0  0  0  0  0  0  0  0  0  0
   27.3714   25.0758   17.4791 C   0  0  0  0  0  0  0  0  0  0  0  0
   26.7052   23.8467   17.6685 O   0  0  0  0  0  0  0  0  0  0  0  0
   20.3807   25.2691   20.1183 C   0  0  0  0  0  0  0  0  0  0  0  0
   18.2080   24.0435   19.8186 C   0  0  0  0  0  0  0  0  0  0  0  0
   17.4344   22.9100   19.8537 C   0  0  0  0  0  0  0  0  0  0  0  0
   17.9999   21.6843   20.2099 C   0  0  0  0  0  0  0  0  0  0  0  0
   19.3395   21.6542   20.5248 C   0  0  0  0  0  0  0  0  0  0  0  0
   20.1675   22.7698   20.5094 C   0  0  0  0  0  0  0  0  0  0  0  0
   19.5653   23.9752   20.1415 C   0  0  0  0  0  0  0  0  0  0  0  0
   16.1211   22.9318   19.5305 F   0  0  0  0  0  0  0  0  0  0  0  0
   19.8651   20.4672   20.8821 F   0  0  0  0  0  0  0  0  0  0  0  0
 52 48  1  0  0  0
 47 48  2  0  0  0
 47 46  1  0  0  0
 48 49  1  0  0  0
 51 46  1  0  0  0
 46 45  2  0  0  0
 49 50  2  0  0  0
 17 16  2  0  0  0
 17 12  1  0  0  0
 10 12  1  0  0  0
 10 11  2  0  0  0
 16 15  1  0  0  0
 45 50  1  0  0  0
 50 44  1  0  0  0
 12 13  2  0  0  0
  7  6  2  0  0  0
 18 11  1  0  0  0
 18 20  1  0  0  0
 11  9  1  0  0  0
 22 20  1  0  0  0
 22 21  1  0  0  0
 15 14  2  0  0  0
 15  6  1  0  0  0
 20 21  1  0  0  0
 13  9  1  0  0  0
 13 14  1  0  0  0
 44 27  1  0  0  0
  6  8  2  0  0  0
  6  5  1  0  0  0
 41 42  1  0  0  0
 41 34  1  0  0  0
 27 28  1  0  0  0
 27  1  1  0  0  0
 42 43  1  0  0  0
 30 29  2  0  0  0
  5  4  1  0  0  0
  5 23  1  0  0  0
  4  1  1  0  0  0
 34 33  1  0  0  0
 34 35  1  0  0  0
 29 28  1  0  0  0
 29 32  1  0  0  0
 33 32  1  0  0  0
 33 40  1  0  0  0
  1  2  1  0  0  0
 23 24  1  0  0  0
 43 36  1  0  0  0
 35 36  1  0  0  0
 35 39  1  0  0  0
 40 39  1  0  0  0
 36 37  1  0  0  0
 25 24  1  0  0  0
 24 26  1  0  0  0
 39 38  1  0  0  0
 37 38  1  0  0  0
 18 19  1  0  0  0
  2  3  1  0  0  0
 28 31  1  0  0  0
M  END
> <minimizedAffinity>
-9.60056

$$$$
6CDL_GR5_B_201


 52 58  0  0  0  0  0  0  0  0999 V2000
   21.1949   26.6817   18.2720 C   0  0  0  0  0  0  0  0  0  0  0  0
   20.7555   27.6263   19.2508 O   0  0  0  0  0  0  0  0  0  0  0  0
   19.8538   27.4051   19.5318 H   0  0  0  0  0  0  0  0  0  0  0  0
   20.3067   26.7689   17.0297 C   0  0  0  0  0  0  0  0  0  0  0  0
   20.9039   26.0368   15.9358 N   0  0  0  0  0  0  0  0  0  0  0  0
   19.8707   25.4988   14.7910 S   0  0  0  0  0  0  0  0  0  0  0  0
   20.6468   25.1219   13.6239 O   0  0  0  0  0  0  0  0  0  0  0  0
   18.9022   26.6205   14.6067 O   0  0  0  0  0  0  0  0  0  0  0  0
   15.4470   22.2890   15.2143 S   0  0  0  0  0  0  0  0  0  0  0  0
   16.7565   21.0280   16.8799 N   0  0  0  0  0  0  0  0  0  0  0  0
   15.5399   20.9999   16.3625 C   0  0  0  0  0  0  0  0  0  0  0  0
   17.5797   21.9961   16.4259 C   0  0  0  0  0  0  0  0  0  0  0  0
   17.0602   22.8474   15.5112 C   0  0  0  0  0  0  0  0  0  0  0  0
   17.7009   23.8649   14.9605 C   0  0  0  0  0  0  0  0  0  0  0  0
   19.0011   24.1216   15.4070 C   0  0  0  0  0  0  0  0  0  0  0  0
   19.6236   23.2174   16.2573 C   0  0  0  0  0  0  0  0  0  0  0  0
   18.8962   22.1299   16.7190 C   0  0  0  0  0  0  0  0  0  0  0  0
   14.6986   20.1034   16.7743 N   0  0  0  0  0  0  0  0  0  0  0  0
   13.9545   19.8802   16.1695 H   0  0  0  0  0  0  0  0  0  0  0  0
   14.7482   19.4036   18.0302 C   0  0  0  0  0  0  0  0  0  0  0  0
   14.2986   20.1489   19.2727 C   0  0  0  0  0  0  0  0  0  0  0  0
   13.3950   19.1186   18.6029 C   0  0  0  0  0  0  0  0  0  0  0  0
   22.1593   26.5681   15.4254 C   0  0  0  0  0  0  0  0  0  0  0  0
   22.0645   28.0791   15.1221 C   0  0  0  0  0  0  0  0  0  0  0  0
   23.3397   28.7977   15.5560 C   0  0  0  0  0  0  0  0  0  0  0  0
   21.9390   28.2654   13.5844 C   0  0  0  0  0  0  0  0  0  0  0  0
   21.3027   25.2718   18.8503 C   0  0  0  0  0  0  0  0  0  0  0  0
   22.7251   24.9408   19.0595 N   0  0  0  0  0  0  0  0  0  0  0  0
   23.5953   25.8607   19.5057 C   0  0  0  0  0  0  0  0  0  0  0  0
   23.2236   26.8878   20.0832 O   0  0  0  0  0  0  0  0  0  0  0  0
   23.0420   24.0286   18.8683 H   0  0  0  0  0  0  0  0  0  0  0  0
   24.8879   25.5670   19.2406 O   0  0  0  0  0  0  0  0  0  0  0  0
   25.2028   25.5870   17.8419 C   0  0  0  0  0  0  0  0  0  0  0  0
   26.4130   24.7343   17.5601 C   0  0  0  0  0  0  0  0  0  0  0  0
   27.6309   25.5863   17.6998 C   0  0  0  0  0  0  0  0  0  0  0  0
   28.4284   25.2916   18.9513 C   0  0  0  0  0  0  0  0  0  0  0  0
   28.6667   26.5870   19.5240 O   0  0  0  0  0  0  0  0  0  0  0  0
   27.4345   27.2951   19.3013 C   0  0  0  0  0  0  0  0  0  0  0  0
   27.1671   27.0265   17.8244 C   0  0  0  0  0  0  0  0  0  0  0  0
   25.6873   26.9903   17.4835 C   0  0  0  0  0  0  0  0  0  0  0  0
   26.4480   23.4257   18.2461 C   0  0  0  0  0  0  0  0  0  0  0  0
   27.1510   23.3731   19.5492 C   0  0  0  0  0  0  0  0  0  0  0  0
   27.6474   24.6300   19.9546 O   0  0  0  0  0  0  0  0  0  0  0  0
   20.5436   25.2130   20.2013 C   0  0  0  0  0  0  0  0  0  0  0  0
   18.3313   24.0935   19.7955 C   0  0  0  0  0  0  0  0  0  0  0  0
   17.5024   22.9993   19.7939 C   0  0  0  0  0  0  0  0  0  0  0  0
   17.9887   21.7490   20.1804 C   0  0  0  0  0  0  0  0  0  0  0  0
   19.3079   21.6550   20.5621 C   0  0  0  0  0  0  0  0  0  0  0  0
   20.1891   22.7288   20.5861 C   0  0  0  0  0  0  0  0  0  0  0  0
   19.6658   23.9605   20.1861 C   0  0  0  0  0  0  0  0  0  0  0  0
   16.2095   23.0836   19.4052 F   0  0  0  0  0  0  0  0  0  0  0  0
   19.7562   20.4453   20.9477 F   0  0  0  0  0  0  0  0  0  0  0  0
 52 48  1  0  0  0
 47 48  2  0  0  0
 47 46  1  0  0  0
 48 49  1  0  0  0
 51 46  1  0  0  0
 46 45  2  0  0  0
 49 50  2  0  0  0
 17 16  2  0  0  0
 17 12  1  0  0  0
 10 12  1  0  0  0
 10 11  2  0  0  0
 16 15  1  0  0  0
 45 50  1  0  0  0
 50 44  1  0  0  0
 12 13  2  0  0  0
  7  6  2  0  0  0
 18 11  1  0  0  0
 18 20  1  0  0  0
 11  9  1  0  0  0
 22 20  1  0  0  0
 22 21  1  0  0  0
 15 14  2  0  0  0
 15  6  1  0  0  0
 20 21  1  0  0  0
 13  9  1  0  0  0
 13 14  1  0  0  0
 44 27  1  0  0  0
  6  8  2  0  0  0
  6  5  1  0  0  0
 41 42  1  0  0  0
 41 34  1  0  0  0
 27 28  1  0  0  0
 27  1  1  0  0  0
 42 43  1  0  0  0
 30 29  2  0  0  0
  5  4  1  0  0  0
  5 23  1  0  0  0
  4  1  1  0  0  0
 34 33  1  0  0  0
 34 35  1  0  0  0
 29 28  1  0  0  0
 29 32  1  0  0  0
 33 32  1  0  0  0
 33 40  1  0  0  0
  1  2  1  0  0  0
 23 24  1  0  0  0
 43 36  1  0  0  0
 35 36  1  0  0  0
 35 39  1  0  0  0
 40 39  1  0  0  0
 36 37  1  0  0  0
 25 24  1  0  0  0
 24 26  1  0  0  0
 39 38  1  0  0  0
 37 38  1  0  0  0
 18 19  1  0  0  0
  2  3  1  0  0  0
 28 31  1  0  0  0
M  END
> <minimizedAffinity>
-9.53660

$$$$
6CDL_GR5_B_201


 52 58  0  0  0  0  0  0  0  0999 V2000
   21.0385   26.6621   17.4809 C   0  0  0  0  0  0  0  0  0  0  0  0
   20.5124   27.3159   18.6382 O   0  0  0  0  0  0  0  0  0  0  0  0
   20.9223   26.9431   19.4344 H   0  0  0  0  0  0  0  0  0  0  0  0
   20.6778   25.1760   17.5141 C   0  0  0  0  0  0  0  0  0  0  0  0
   19.3296   24.9995   18.0044 N   0  0  0  0  0  0  0  0  0  0  0  0
   18.2079   24.6160   16.8810 S   0  0  0  0  0  0  0  0  0  0  0  0
   18.8569   24.5987   15.5829 O   0  0  0  0  0  0  0  0  0  0  0  0
   17.1307   25.6333   17.0679 O   0  0  0  0  0  0  0  0  0  0  0  0
   14.4335   21.2699   19.0278 S   0  0  0  0  0  0  0  0  0  0  0  0
   15.9316   19.4413   18.3269 N   0  0  0  0  0  0  0  0  0  0  0  0
   14.7851   19.5781   18.9717 C   0  0  0  0  0  0  0  0  0  0  0  0
   16.5203   20.5785   17.9011 C   0  0  0  0  0  0  0  0  0  0  0  0
   15.8857   21.7345   18.2046 C   0  0  0  0  0  0  0  0  0  0  0  0
   16.3094   22.9470   17.8893 C   0  0  0  0  0  0  0  0  0  0  0  0
   17.5468   23.0468   17.2453 C   0  0  0  0  0  0  0  0  0  0  0  0
   18.1862   21.8938   16.8094 C   0  0  0  0  0  0  0  0  0  0  0  0
   17.6212   20.6641   17.1153 C   0  0  0  0  0  0  0  0  0  0  0  0
   14.1828   18.5217   19.4210 N   0  0  0  0  0  0  0  0  0  0  0  0
   14.2664   17.7000   18.8852 H   0  0  0  0  0  0  0  0  0  0  0  0
   13.4042   18.4349   20.6276 C   0  0  0  0  0  0  0  0  0  0  0  0
   11.8935   18.4009   20.4928 C   0  0  0  0  0  0  0  0  0  0  0  0
   12.6870   17.1296   20.7767 C   0  0  0  0  0  0  0  0  0  0  0  0
   19.2003   24.2853   19.2662 C   0  0  0  0  0  0  0  0  0  0  0  0
   20.3973   23.3438   19.5207 C   0  0  0  0  0  0  0  0  0  0  0  0
   21.3168   23.9183   20.5955 C   0  0  0  0  0  0  0  0  0  0  0  0
   19.8540   21.9926   20.0627 C   0  0  0  0  0  0  0  0  0  0  0  0
   22.5333   26.9260   17.3086 C   0  0  0  0  0  0  0  0  0  0  0  0
   23.2941   25.9449   18.1056 N   0  0  0  0  0  0  0  0  0  0  0  0
   23.8313   26.2773   19.2902 C   0  0  0  0  0  0  0  0  0  0  0  0
   23.4464   27.2613   19.9307 O   0  0  0  0  0  0  0  0  0  0  0  0
   23.4100   25.0295   17.7624 H   0  0  0  0  0  0  0  0  0  0  0  0
   24.8312   25.4592   19.6879 O   0  0  0  0  0  0  0  0  0  0  0  0
   26.1346   25.9289   19.3184 C   0  0  0  0  0  0  0  0  0  0  0  0
   27.0610   24.7688   19.0593 C   0  0  0  0  0  0  0  0  0  0  0  0
   27.7180   24.3957   20.3469 C   0  0  0  0  0  0  0  0  0  0  0  0
   27.1956   23.1028   20.9339 C   0  0  0  0  0  0  0  0  0  0  0  0
   26.9310   23.4276   22.3077 O   0  0  0  0  0  0  0  0  0  0  0  0
   26.3872   24.7580   22.2498 C   0  0  0  0  0  0  0  0  0  0  0  0
   27.3897   25.4807   21.3567 C   0  0  0  0  0  0  0  0  0  0  0  0
   26.7632   26.5972   20.5392 C   0  0  0  0  0  0  0  0  0  0  0  0
   26.4899   23.6573   18.2701 C   0  0  0  0  0  0  0  0  0  0  0  0
   25.8778   22.5431   19.0312 C   0  0  0  0  0  0  0  0  0  0  0  0
   25.9012   22.7549   20.4259 O   0  0  0  0  0  0  0  0  0  0  0  0
   22.9077   26.7914   15.8097 C   0  0  0  0  0  0  0  0  0  0  0  0
   24.5273   28.6755   15.4362 C   0  0  0  0  0  0  0  0  0  0  0  0
   25.7926   29.1753   15.2528 C   0  0  0  0  0  0  0  0  0  0  0  0
   26.8954   28.3195   15.2715 C   0  0  0  0  0  0  0  0  0  0  0  0
   26.6718   26.9763   15.4725 C   0  0  0  0  0  0  0  0  0  0  0  0
   25.4140   26.4166   15.6595 C   0  0  0  0  0  0  0  0  0  0  0  0
   24.3379   27.3067   15.6406 C   0  0  0  0  0  0  0  0  0  0  0  0
   26.0188   30.4963   15.0701 F   0  0  0  0  0  0  0  0  0  0  0  0
   27.7448   26.1629   15.4711 F   0  0  0  0  0  0  0  0  0  0  0  0
 52 48  1  0  0  0
 47 48  2  0  0  0
 47 46  1  0  0  0
 48 49  1  0  0  0
 51 46  1  0  0  0
 46 45  2  0  0  0
 49 50  2  0  0  0
 17 16  2  0  0  0
 17 12  1  0  0  0
 10 12  1  0  0  0
 10 11  2  0  0  0
 16 15  1  0  0  0
 45 50  1  0  0  0
 50 44  1  0  0  0
 12 13  2  0  0  0
  7  6  2  0  0  0
 18 11  1  0  0  0
 18 20  1  0  0  0
 11  9  1  0  0  0
 22 20  1  0  0  0
 22 21  1  0  0  0
 15 14  2  0  0  0
 15  6  1  0  0  0
 20 21  1  0  0  0
 13  9  1  0  0  0
 13 14  1  0  0  0
 44 27  1  0  0  0
  6  8  2  0  0  0
  6  5  1  0  0  0
 41 42  1  0  0  0
 41 34  1  0  0  0
 27 28  1  0  0  0
 27  1  1  0  0  0
 42 43  1  0  0  0
 30 29  2  0  0  0
  5  4  1  0  0  0
  5 23  1  0  0  0
  4  1  1  0  0  0
 34 33  1  0  0  0
 34 35  1  0  0  0
 29 28  1  0  0  0
 29 32  1  0  0  0
 33 32  1  0  0  0
 33 40  1  0  0  0
  1  2  1  0  0  0
 23 24  1  0  0  0
 43 36  1  0  0  0
 35 36  1  0  0  0
 35 39  1  0  0  0
 40 39  1  0  0  0
 36 37  1  0  0  0
 25 24  1  0  0  0
 24 26  1  0  0  0
 39 38  1  0  0  0
 37 38  1  0  0  0
 18 19  1  0  0  0
  2  3  1  0  0  0
 28 31  1  0  0  0
M  END
> <minimizedAffinity>
-9.36917

$$$$
