6CDL_GR5_B_201
  RCSB PDB05261800303D
Coordinates from PDB:6CDL:B:201 Model:1 without hydrogens
 49 55  0  0  0  0            999 V2000
   23.0430   26.7840   15.9070   S 0  0  0  0  0  0  0  0  0  0  0  0
   21.6600   28.5590   14.8990   N 0  0  0  0  0  0  0  0  0  0  0  0
   22.9130   28.3930   15.2880   C 0  0  0  0  0  0  0  0  0  0  0  0
   23.7490   29.3760   15.1630   N 0  0  0  0  0  0  0  0  0  0  0  0
   25.1030   29.4080   15.6480   C 0  0  0  0  0  0  0  0  0  0  0  0
   25.4300   28.5930   16.8850   C 0  0  0  0  0  0  0  0  0  0  0  0
   25.8180   28.1020   15.4940   C 0  0  0  0  0  0  0  0  0  0  0  0
   20.8330   27.5070   15.0730   C 0  0  0  0  0  0  0  0  0  0  0  0
   21.3710   26.4080   15.6510   C 0  0  0  0  0  0  0  0  0  0  0  0
   20.7220   25.2870   15.9180   C 0  0  0  0  0  0  0  0  0  0  0  0
   19.3520   25.2570   15.6390   C 0  0  0  0  0  0  0  0  0  0  0  0
   18.7720   26.3100   14.9440   C 0  0  0  0  0  0  0  0  0  0  0  0
   19.5550   27.4120   14.6320   C 0  0  0  0  0  0  0  0  0  0  0  0
   18.4170   23.8460   16.0480   S 0  0  0  0  0  0  0  0  0  0  0  0
   17.3280   23.6740   15.1040   O 0  0  0  0  0  0  0  0  0  0  0  0
   19.3520   22.6910   16.1960   O 0  0  0  0  0  0  0  0  0  0  0  0
   17.7730   24.0420   17.5360   N 0  0  0  0  0  0  0  0  0  0  0  0
   18.7400   24.3120   18.5900   C 0  0  0  0  0  0  0  0  0  0  0  0
   18.3720   23.5950   19.9070   C 0  0  0  0  0  0  0  0  0  0  0  0
   18.3560   22.0810   19.7110   C 0  0  0  0  0  0  0  0  0  0  0  0
   19.4720   23.9050   20.9600   C 0  0  0  0  0  0  0  0  0  0  0  0
   16.5450   24.8020   17.5960   C 0  0  0  0  0  0  0  0  0  0  0  0
   15.3970   23.9150   18.0810   C 0  0  0  0  0  0  0  0  0  0  0  0
   14.2520   24.7190   18.3740   O 0  0  0  0  0  0  0  0  0  0  0  0
   15.0600   22.7720   17.1250   C 0  0  0  0  0  0  0  0  0  0  0  0
   14.2590   21.7610   17.8410   N 0  0  0  0  0  0  0  0  0  0  0  0
   14.5840   20.4590   17.8000   C 0  0  0  0  0  0  0  0  0  0  0  0
   15.7140   20.0760   17.4790   O 0  0  0  0  0  0  0  0  0  0  0  0
   13.5640   19.6290   18.1130   O 0  0  0  0  0  0  0  0  0  0  0  0
   14.2530   23.3300   15.9240   C 0  0  0  0  0  0  0  0  0  0  0  0
   12.5910   21.7040   14.9720   C 0  0  0  0  0  0  0  0  0  0  0  0
   12.2490   20.6340   14.1830   C 0  0  0  0  0  0  0  0  0  0  0  0
   13.2190   19.9920   13.4110   C 0  0  0  0  0  0  0  0  0  0  0  0
   14.5120   20.4600   13.4720   C 0  0  0  0  0  0  0  0  0  0  0  0
   14.9140   21.5350   14.2550   C 0  0  0  0  0  0  0  0  0  0  0  0
   13.9130   22.1540   15.0070   C 0  0  0  0  0  0  0  0  0  0  0  0
   10.9770   20.1800   14.1080   F 0  0  0  0  0  0  0  0  0  0  0  0
   15.4380   19.8190   12.7340   F 0  0  0  0  0  0  0  0  0  0  0  0
   13.8900   18.2410   17.9610   C 0  0  0  0  0  0  0  0  0  0  0  0
   12.6460   17.4310   17.7010   C 0  0  0  0  0  0  0  0  0  0  0  0
   12.0790   17.0060   19.0150   C 0  0  0  0  0  0  0  0  0  0  0  0
   10.8190   17.7530   19.3940   C 0  0  0  0  0  0  0  0  0  0  0  0
   11.0540   18.1640   20.7500   O 0  0  0  0  0  0  0  0  0  0  0  0
   12.4440   18.5340   20.7630   C 0  0  0  0  0  0  0  0  0  0  0  0
   13.1050   17.3400   20.0830   C 0  0  0  0  0  0  0  0  0  0  0  0
   14.3610   17.7120   19.3140   C 0  0  0  0  0  0  0  0  0  0  0  0
   11.6920   18.0150   16.7350   C 0  0  0  0  0  0  0  0  0  0  0  0
   10.6050   18.8530   17.2930   C 0  0  0  0  0  0  0  0  0  0  0  0
   10.6890   18.9970   18.6940   O 0  0  0  0  0  0  0  0  0  0  0  0
 38 34  1  0  0  0  0
 33 34  2  0  0  0  0
 33 32  1  0  0  0  0
 34 35  1  0  0  0  0
 37 32  1  0  0  0  0
 32 31  2  0  0  0  0
 35 36  2  0  0  0  0
 13 12  2  0  0  0  0
 13  8  1  0  0  0  0
  2  8  1  0  0  0  0
  2  3  2  0  0  0  0
 12 11  1  0  0  0  0
 31 36  1  0  0  0  0
 36 30  1  0  0  0  0
  8  9  2  0  0  0  0
 15 14  2  0  0  0  0
  4  3  1  0  0  0  0
  4  5  1  0  0  0  0
  3  1  1  0  0  0  0
  7  5  1  0  0  0  0
  7  6  1  0  0  0  0
 11 10  2  0  0  0  0
 11 14  1  0  0  0  0
  5  6  1  0  0  0  0
  9  1  1  0  0  0  0
  9 10  1  0  0  0  0
 30 25  1  0  0  0  0
 14 16  2  0  0  0  0
 14 17  1  0  0  0  0
 47 48  1  0  0  0  0
 47 40  1  0  0  0  0
 25 26  1  0  0  0  0
 25 23  1  0  0  0  0
 48 49  1  0  0  0  0
 28 27  2  0  0  0  0
 17 22  1  0  0  0  0
 17 18  1  0  0  0  0
 22 23  1  0  0  0  0
 40 39  1  0  0  0  0
 40 41  1  0  0  0  0
 27 26  1  0  0  0  0
 27 29  1  0  0  0  0
 39 29  1  0  0  0  0
 39 46  1  0  0  0  0
 23 24  1  0  0  0  0
 18 19  1  0  0  0  0
 49 42  1  0  0  0  0
 41 42  1  0  0  0  0
 41 45  1  0  0  0  0
 46 45  1  0  0  0  0
 42 43  1  0  0  0  0
 20 19  1  0  0  0  0
 19 21  1  0  0  0  0
 45 44  1  0  0  0  0
 43 44  1  0  0  0  0
A    1
S51
A    2
N52
A    3
C53
A    4
N54
A    5
C55
A    6
C56
A    7
C57
A    8
C2
A    9
C3
A   10
C4
A   11
C5
A   12
C6
A   13
C7
A   14
S8
A   15
O9
A   16
O10
A   17
N11
A   18
C12
A   19
C13
A   20
C14
A   21
C15
A   22
C16
A   23
C17
A   24
O18
A   25
C19
A   26
N20
A   27
C21
A   28
O22
A   29
O23
A   30
C32
A   31
C33
A   32
C34
A   33
C35
A   34
C36
A   35
C37
A   36
C38
A   37
F61
A   38
F62
A   39
C24
A   40
C25
A   41
C26
A   42
C27
A   43
O28
A   44
C29
A   45
C30
A   46
C31
A   47
C41
A   48
C42
A   49
O43
M  END
>  <InstanceId>
6CDL_GR5_B_201

>  <ChemCompId>
GR5

>  <PdbId>
6CDL

>  <ChainId>
B

>  <ResidueNumber>
201

>  <InsertionCode>


>  <Model>
1

>  <AltIds>


>  <MissingHeavyAtoms>
0

>  <ObservedFormula>
C34 N4 O7 S2 F2

>  <Name>
(2aR,4S,4aR,7aR,7bR)-octahydro-2H-1,7-dioxacyclopenta[cd]inden-4-yl [(2S,3R)-4-[{[2-(cyclopropylamino)-1,3-benzothiazol-6-yl]sulfonyl}(2-methylpropyl)amino]-1-(3,5-difluorophenyl)-3-hydroxybutan-2-yl]carbamate

>  <SystematicName>
[(1~{R},4~{R},6~{S},7~{R},11~{R})-2,10-dioxatricyclo[5.3.1.0^{4,11}]undecan-6-yl] ~{N}-[(2~{S},3~{R})-1-[3,5-bis(fluoranyl)phenyl]-4-[[2-(cyclopropylamino)-1,3-benzothiazol-6-yl]sulfonyl-(2-methylpropyl)amino]-3-oxidanyl-butan-2-yl]carbamate

>  <Synonyms>


>  <Type>
NON-POLYMER

>  <Formula>
C34 H42 F2 N4 O7 S2

>  <MolecularWeight>
720.847

>  <ModifiedDate>
2018-05-25

>  <Parent>


>  <OneLetterCode>


>  <SubcomponentList>


>  <AmbiguousFlag>
N

>  <InChI>
InChI=1S/C34H42F2N4O7S2/c1-18(2)15-40(49(43,44)24-5-6-26-30(14-24)48-33(38-26)37-23-3-4-23)16-28(41)27(11-19-9-21(35)13-22(36)10-19)39-34(42)47-29-12-20-17-46-32-31(20)25(29)7-8-45-32/h5-6,9-10,13-14,18,20,23,25,27-29,31-32,41H,3-4,7-8,11-12,15-17H2,1-2H3,(H,37,38)(H,39,42)/t20-,25-,27-,28+,29-,31+,32+/m0/s1

>  <InChIKey>
NIZKZMLJMFCQSW-BIVIGLCRSA-N

>  <SMILES>
CC(C)CN(C[C@H]([C@H](Cc1cc(cc(c1)F)F)NC(=O)O[C@H]2C[C@H]3CO[C@@H]4[C@H]3[C@H]2CCO4)O)S(=O)(=O)c5ccc6c(c5)sc(n6)NC7CC7

$$$$
