3ARQ_DM5_A_606
  RCSB PDB12061707553D
Coordinates from PDB:3ARQ:A:606 Model:1 without hydrogens
 36 40  0  0  0  0            999 V2000
   13.6650   -8.1280   23.8360   C 0  0  0  0  0  0  0  0  0  0  0  0
   13.5570   -7.4830   25.0980   C 0  0  0  0  0  0  0  0  0  0  0  0
   14.6690   -7.1790   25.8780   C 0  0  0  0  0  0  0  0  0  0  0  0
   15.9360   -7.5620   25.4180   C 0  0  0  0  0  0  0  0  0  0  0  0
   16.0720   -8.2170   24.1610   C 0  0  0  0  0  0  0  0  0  0  0  0
   17.3320   -8.5790   23.6900   C 0  0  0  0  0  0  0  0  0  0  0  0
   18.3600   -8.3490   24.3480   O 0  0  0  0  0  0  0  0  0  0  0  0
   17.4560   -9.2270   22.4290   C 0  0  0  0  0  0  0  0  0  0  0  0
   18.7540   -9.6240   22.0200   C 0  0  0  0  0  0  0  0  0  0  0  0
   19.6710   -9.3510   22.8170   O 0  0  0  0  0  0  0  0  0  0  0  0
   18.8630  -10.2990   20.7810   C 0  0  0  0  0  0  0  0  0  0  0  0
   20.2630  -10.7800   20.3350   C 0  0  0  0  0  0  0  0  0  0  0  0
   20.4530  -11.9750   21.2510   O 0  0  0  0  0  0  0  0  0  0  0  0
   20.3860  -11.4810   18.9610   C 0  0  0  0  0  0  0  0  0  0  0  0
   19.1070  -12.2530   18.5360   C 0  0  0  0  0  0  0  0  0  0  0  0
   19.0600  -13.4020   19.5050   O 0  0  0  0  0  0  0  0  0  0  0  0
   19.1400  -12.7500   17.0730   C 0  0  0  0  0  0  0  0  0  0  0  0
   19.1010  -13.9690   16.8580   O 0  0  0  0  0  0  0  0  0  0  0  0
   19.2810  -11.7650   15.8590   C 0  0  0  0  0  0  0  0  0  0  0  0
   17.8910  -11.3320   18.6420   C 0  0  0  0  0  0  0  0  0  0  0  0
   17.7660  -10.5720   20.0090   C 0  0  0  0  0  0  0  0  0  0  0  0
   16.5080  -10.1970   20.4120   C 0  0  0  0  0  0  0  0  0  0  0  0
   15.4520  -10.5560   19.6330   O 0  0  0  0  0  0  0  0  0  0  0  0
   16.3650   -9.5290   21.6630   C 0  0  0  0  0  0  0  0  0  0  0  0
   15.1030   -9.1460   22.1430   C 0  0  0  0  0  0  0  0  0  0  0  0
   14.0650   -9.4200   21.5120   O 0  0  0  0  0  0  0  0  0  0  0  0
   14.9530   -8.4870   23.3780   C 0  0  0  0  0  0  0  0  0  0  0  0
   21.7050  -11.8310   22.0250   C 0  0  0  0  0  0  0  0  0  0  0  0
   21.6640  -12.8690   23.2270   C 0  0  0  0  0  0  0  0  0  0  0  0
   21.7720  -14.2990   22.6310   C 0  0  0  0  0  0  0  0  0  0  0  0
   21.7530  -15.3340   23.7150   N 0  0  0  0  0  0  0  0  0  0  0  0
   23.0380  -14.4680   21.7430   C 0  0  0  0  0  0  0  0  0  0  0  0
   24.2240  -14.3440   22.5750   O 0  0  0  0  0  0  0  0  0  0  0  0
   23.0240  -13.4230   20.5890   C 0  0  0  0  0  0  0  0  0  0  0  0
   22.7920  -12.0470   21.0520   O 0  0  0  0  0  0  0  0  0  0  0  0
   24.3110  -13.4290   19.7090   C 0  0  0  0  0  0  0  0  0  0  0  0
  1  2  2  0  0  0  0
  1 27  1  0  0  0  0
  2  3  1  0  0  0  0
  3  4  2  0  0  0  0
  4  5  1  0  0  0  0
  5  6  1  0  0  0  0
  5 27  2  0  0  0  0
  6  7  2  0  0  0  0
  6  8  1  0  0  0  0
  8  9  2  0  0  0  0
  8 24  1  0  0  0  0
  9 10  1  0  0  0  0
  9 11  1  0  0  0  0
 11 12  1  0  0  0  0
 11 21  2  0  0  0  0
 12 13  1  0  0  0  0
 12 14  1  0  0  0  0
 13 28  1  0  0  0  0
 14 15  1  0  0  0  0
 15 16  1  0  0  0  0
 15 17  1  0  0  0  0
 15 20  1  0  0  0  0
 17 18  2  0  0  0  0
 17 19  1  0  0  0  0
 20 21  1  0  0  0  0
 21 22  1  0  0  0  0
 22 23  1  0  0  0  0
 22 24  2  0  0  0  0
 24 25  1  0  0  0  0
 25 26  2  0  0  0  0
 25 27  1  0  0  0  0
 28 29  1  0  0  0  0
 28 35  1  0  0  0  0
 29 30  1  0  0  0  0
 30 31  1  0  0  0  0
 30 32  1  0  0  0  0
 32 33  1  0  0  0  0
 32 34  1  0  0  0  0
 34 35  1  0  0  0  0
 34 36  1  0  0  0  0
A    1
C1
A    2
C2
A    3
C3
A    4
C4
A    5
C5
A    6
C6
A    7
O6
A    8
C7
A    9
C8
A   10
O8
A   11
C9
A   12
C10
A   13
O10
A   14
C11
A   15
C12
A   16
O12
A   17
C13
A   18
O13
A   19
C14
A   20
C15
A   21
C16
A   22
C17
A   23
O17
A   24
C18
A   25
C19
A   26
O19
A   27
C20
A   28
C1'
A   29
C2'
A   30
C3'
A   31
N3'
A   32
C4'
A   33
O4'
A   34
C5'
A   35
O5'
A   36
C6'
M  END
>  <InstanceId>
3ARQ_DM5_A_606

>  <ChemCompId>
DM5

>  <PdbId>
3ARQ

>  <ChainId>
A

>  <ResidueNumber>
606

>  <InsertionCode>


>  <Model>
1

>  <AltIds>


>  <MissingHeavyAtoms>
0

>  <ObservedFormula>
C26 N O9

>  <Name>
IDARUBICIN

>  <SystematicName>
(7S,9S)-7-[(2R,4S,5S,6S)-4-amino-5-hydroxy-6-methyl-oxan-2-yl]oxy-9-ethanoyl-6,9,11-trihydroxy-8,10-dihydro-7H-tetracene-5,12-dione

>  <Synonyms>
4-DEMETHOXY-DAUNORUBICIN

>  <Type>
NON-POLYMER

>  <Formula>
C26 H27 N O9

>  <MolecularWeight>
497.494

>  <ModifiedDate>
2011-06-04

>  <Parent>


>  <OneLetterCode>


>  <SubcomponentList>


>  <AmbiguousFlag>
N

>  <InChI>
InChI=1S/C26H27NO9/c1-10-21(29)15(27)7-17(35-10)36-16-9-26(34,11(2)28)8-14-18(16)25(33)20-19(24(14)32)22(30)12-5-3-4-6-13(12)23(20)31/h3-6,10,15-17,21,29,32-34H,7-9,27H2,1-2H3/t10-,15-,16-,17-,21+,26-/m0/s1

>  <InChIKey>
XDXDZDZNSLXDNA-TZNDIEGXSA-N

>  <SMILES>
C[C@H]1[C@H]([C@H](C[C@@H](O1)O[C@H]2C[C@@](Cc3c2c(c4c(c3O)C(=O)c5ccccc5C4=O)O)(C(=O)C)O)N)O

$$$$
