2CLI_F9F_A_1269


 25 25  0  0  0  0  0  0  0  0999 V2000
   49.2440   26.9061   15.3492 S   0  0  0  0  0  0  0  0  0  0  0  0
   50.4337   27.7864   15.3073 O   0  0  0  0  0  0  0  0  0  0  0  0
   48.5266   26.9904   16.6491 O   0  0  0  0  0  0  0  0  0  0  0  0
   50.6881   22.4551   14.9816 C   0  0  0  0  0  0  0  0  0  0  0  0
   49.3202   22.7163   15.4514 C   0  0  0  0  0  0  0  0  0  0  0  0
   48.9810   24.1670   15.5122 C   0  0  0  0  0  0  0  0  0  0  0  0
   49.8337   25.2135   15.1874 C   0  0  0  0  0  0  0  0  0  0  0  0
   51.2421   24.8656   14.7025 C   0  0  0  0  0  0  0  0  0  0  0  0
   51.6305   23.4955   14.6248 C   0  0  0  0  0  0  0  0  0  0  0  0
   51.2836   21.1734   14.8404 O   0  0  0  0  0  0  0  0  0  0  0  0
   51.0153   20.2996   13.6749 C   0  0  0  0  0  0  0  0  0  0  0  0
   51.0187   19.0401   14.0968 F   0  0  0  0  0  0  0  0  0  0  0  0
   52.0200   20.3365   12.7616 F   0  0  0  0  0  0  0  0  0  0  0  0
   49.8405   20.5431   13.0359 F   0  0  0  0  0  0  0  0  0  0  0  0
   48.0771   27.2944   14.1414 N   0  0  0  0  0  0  0  0  0  0  0  0
   47.3398   27.8354   14.5933 H   0  0  0  0  0  0  0  0  0  0  0  0
   48.5341   28.0677   12.9639 C   0  0  0  0  0  0  0  0  0  0  0  0
   47.4243   28.3151   12.0970 C   0  0  0  0  0  0  0  0  0  0  0  0
   47.8414   28.1002   10.7599 O   0  0  0  0  0  0  0  0  0  0  0  0
   48.1260   29.4047    9.8276 P   0  0  0  0  0  0  0  0  0  0  0  0
   46.9788   30.3507    9.9011 O   0  0  0  0  0  0  0  0  0  0  0  0
   49.3603   30.0268   10.3256 O   0  0  0  0  0  0  0  0  0  0  0  0
   48.2984   28.8939    8.4488 O   0  0  0  0  0  0  0  0  0  0  0  0
   46.8834   30.6730   10.8110 H   0  0  0  0  0  0  0  0  0  0  0  0
   47.4695   28.4899    8.1477 H   0  0  0  0  0  0  0  0  0  0  0  0
  4  5  1  0  0  0
  4  9  2  0  0  0
  4 10  1  0  0  0
  5  6  2  0  0  0
  6  7  1  0  0  0
  7  8  2  0  0  0
  7  1  1  0  0  0
  8  9  1  0  0  0
 10 11  1  0  0  0
 11 12  1  0  0  0
 11 13  1  0  0  0
 11 14  1  0  0  0
  1 15  1  0  0  0
  1  2  2  0  0  0
  1  3  2  0  0  0
 15 17  1  0  0  0
 17 18  1  0  0  0
 18 19  1  0  0  0
 19 20  1  0  0  0
 20 21  1  0  0  0
 20 22  2  0  0  0
 20 23  1  0  0  0
 15 16  1  0  0  0
 21 24  1  0  0  0
 23 25  1  0  0  0
M  END
> <minimizedAffinity>
-9.86997

$$$$
2CLI_F9F_A_1269


 25 25  0  0  0  0  0  0  0  0999 V2000
   49.2168   27.0190   15.2121 S   0  0  0  0  0  0  0  0  0  0  0  0
   50.3959   27.9081   15.1064 O   0  0  0  0  0  0  0  0  0  0  0  0
   48.5013   27.1839   16.5053 O   0  0  0  0  0  0  0  0  0  0  0  0
   50.8986   22.6405   15.0325 C   0  0  0  0  0  0  0  0  0  0  0  0
   51.7697   23.7482   14.6153 C   0  0  0  0  0  0  0  0  0  0  0  0
   51.1230   25.0869   14.7306 C   0  0  0  0  0  0  0  0  0  0  0  0
   49.8262   25.3262   15.1650 C   0  0  0  0  0  0  0  0  0  0  0  0
   48.9788   24.1246   15.5865 C   0  0  0  0  0  0  0  0  0  0  0  0
   49.5378   22.8156   15.4968 C   0  0  0  0  0  0  0  0  0  0  0  0
   51.2453   21.2632   15.0134 O   0  0  0  0  0  0  0  0  0  0  0  0
   51.0722   20.4197   13.8083 C   0  0  0  0  0  0  0  0  0  0  0  0
   51.0004   19.1528   14.2008 F   0  0  0  0  0  0  0  0  0  0  0  0
   52.1640   20.4456   13.0005 F   0  0  0  0  0  0  0  0  0  0  0  0
   49.9741   20.7085   13.0610 F   0  0  0  0  0  0  0  0  0  0  0  0
   48.0428   27.3099   13.9840 N   0  0  0  0  0  0  0  0  0  0  0  0
   47.1400   27.4195   14.4458 H   0  0  0  0  0  0  0  0  0  0  0  0
   48.2375   28.4887   13.1088 C   0  0  0  0  0  0  0  0  0  0  0  0
   47.2047   28.5236   12.1206 C   0  0  0  0  0  0  0  0  0  0  0  0
   47.7719   28.1911   10.8654 O   0  0  0  0  0  0  0  0  0  0  0  0
   48.1138   29.4041    9.8341 P   0  0  0  0  0  0  0  0  0  0  0  0
   48.2978   28.8722    8.4559 O   0  0  0  0  0  0  0  0  0  0  0  0
   46.9891   30.3476    9.8937 O   0  0  0  0  0  0  0  0  0  0  0  0
   49.3637   30.0238   10.3295 O   0  0  0  0  0  0  0  0  0  0  0  0
   47.4689   28.4713    8.1507 H   0  0  0  0  0  0  0  0  0  0  0  0
   50.0866   29.3790   10.2783 H   0  0  0  0  0  0  0  0  0  0  0  0
  4  5  1  0  0  0
  4  9  2  0  0  0
  4 10  1  0  0  0
  5  6  2  0  0  0
  6  7  1  0  0  0
  7  8  2  0  0  0
  7  1  1  0  0  0
  8  9  1  0  0  0
 10 11  1  0  0  0
 11 12  1  0  0  0
 11 13  1  0  0  0
 11 14  1  0  0  0
  1 15  1  0  0  0
  1  2  2  0  0  0
  1  3  2  0  0  0
 15 17  1  0  0  0
 17 18  1  0  0  0
 18 19  1  0  0  0
 19 20  1  0  0  0
 20 21  1  0  0  0
 20 22  2  0  0  0
 20 23  1  0  0  0
 15 16  1  0  0  0
 21 24  1  0  0  0
 23 25  1  0  0  0
M  END
> <minimizedAffinity>
-9.86288

$$$$
2CLI_F9F_A_1269


 25 25  0  0  0  0  0  0  0  0999 V2000
   49.8051   27.0305   15.5576 S   0  0  0  0  0  0  0  0  0  0  0  0
   51.1347   27.5479   15.9531 O   0  0  0  0  0  0  0  0  0  0  0  0
   48.8299   27.0675   16.6798 O   0  0  0  0  0  0  0  0  0  0  0  0
   50.2762   22.4930   14.4521 C   0  0  0  0  0  0  0  0  0  0  0  0
   49.0132   22.9453   15.0524 C   0  0  0  0  0  0  0  0  0  0  0  0
   48.9856   24.4071   15.3450 C   0  0  0  0  0  0  0  0  0  0  0  0
   50.0230   25.3003   15.1126 C   0  0  0  0  0  0  0  0  0  0  0  0
   51.3069   24.7584   14.4821 C   0  0  0  0  0  0  0  0  0  0  0  0
   51.3986   23.3675   14.1808 C   0  0  0  0  0  0  0  0  0  0  0  0
   50.5860   21.1562   14.0859 O   0  0  0  0  0  0  0  0  0  0  0  0
   51.4764   20.2979   14.9011 C   0  0  0  0  0  0  0  0  0  0  0  0
   51.1927   19.0305   14.6225 F   0  0  0  0  0  0  0  0  0  0  0  0
   51.2163   20.4019   16.2302 F   0  0  0  0  0  0  0  0  0  0  0  0
   52.8057   20.5018   14.7030 F   0  0  0  0  0  0  0  0  0  0  0  0
   49.0851   27.9336   14.2781 N   0  0  0  0  0  0  0  0  0  0  0  0
   48.1347   28.1655   14.5666 H   0  0  0  0  0  0  0  0  0  0  0  0
   49.7433   29.1958   13.8694 C   0  0  0  0  0  0  0  0  0  0  0  0
   49.3266   29.5432   12.5465 C   0  0  0  0  0  0  0  0  0  0  0  0
   48.5147   28.4974   12.0415 O   0  0  0  0  0  0  0  0  0  0  0  0
   46.9069   28.7449   11.9654 P   0  0  0  0  0  0  0  0  0  0  0  0
   46.5674   29.5598   10.7666 O   0  0  0  0  0  0  0  0  0  0  0  0
   46.2716   27.4216   11.9055 O   0  0  0  0  0  0  0  0  0  0  0  0
   46.5428   29.4618   13.2084 O   0  0  0  0  0  0  0  0  0  0  0  0
   46.8134   29.0731    9.9645 H   0  0  0  0  0  0  0  0  0  0  0  0
   46.9758   30.3297   13.2199 H   0  0  0  0  0  0  0  0  0  0  0  0
  4  5  1  0  0  0
  4  9  2  0  0  0
  4 10  1  0  0  0
  5  6  2  0  0  0
  6  7  1  0  0  0
  7  8  2  0  0  0
  7  1  1  0  0  0
  8  9  1  0  0  0
 10 11  1  0  0  0
 11 12  1  0  0  0
 11 13  1  0  0  0
 11 14  1  0  0  0
  1 15  1  0  0  0
  1  2  2  0  0  0
  1  3  2  0  0  0
 15 17  1  0  0  0
 17 18  1  0  0  0
 18 19  1  0  0  0
 19 20  1  0  0  0
 20 21  1  0  0  0
 20 22  2  0  0  0
 20 23  1  0  0  0
 15 16  1  0  0  0
 21 24  1  0  0  0
 23 25  1  0  0  0
M  END
> <minimizedAffinity>
-8.26846

$$$$
2CLI_F9F_A_1269


 25 25  0  0  0  0  0  0  0  0999 V2000
   49.9785   27.1090   15.4715 S   0  0  0  0  0  0  0  0  0  0  0  0
   48.9112   27.2032   16.4933 O   0  0  0  0  0  0  0  0  0  0  0  0
   51.2469   27.7411   15.9223 O   0  0  0  0  0  0  0  0  0  0  0  0
   48.4445   29.4350   11.6941 C   0  0  0  0  0  0  0  0  0  0  0  0
   47.7680   28.1878   12.0773 C   0  0  0  0  0  0  0  0  0  0  0  0
   48.3413   27.5533   13.2988 C   0  0  0  0  0  0  0  0  0  0  0  0
   49.4163   28.0345   14.0340 C   0  0  0  0  0  0  0  0  0  0  0  0
   50.0689   29.3404   13.5776 C   0  0  0  0  0  0  0  0  0  0  0  0
   49.5695   29.9959   12.4136 C   0  0  0  0  0  0  0  0  0  0  0  0
   48.1210   30.2396   10.5693 O   0  0  0  0  0  0  0  0  0  0  0  0
   47.7145   29.6570    9.2696 C   0  0  0  0  0  0  0  0  0  0  0  0
   46.4453   29.2778    9.3687 F   0  0  0  0  0  0  0  0  0  0  0  0
   48.3752   28.5028    8.9935 F   0  0  0  0  0  0  0  0  0  0  0  0
   47.8390   30.4923    8.2044 F   0  0  0  0  0  0  0  0  0  0  0  0
   50.3808   25.4825   15.0670 N   0  0  0  0  0  0  0  0  0  0  0  0
   49.9500   25.2776   14.1655 H   0  0  0  0  0  0  0  0  0  0  0  0
   51.8161   25.1329   14.9606 C   0  0  0  0  0  0  0  0  0  0  0  0
   51.9621   23.9616   14.1536 C   0  0  0  0  0  0  0  0  0  0  0  0
   51.4792   22.8483   14.8851 O   0  0  0  0  0  0  0  0  0  0  0  0
   51.4356   21.4019   14.1383 P   0  0  0  0  0  0  0  0  0  0  0  0
   51.9404   20.3370   15.0479 O   0  0  0  0  0  0  0  0  0  0  0  0
   50.0376   21.1573   13.7583 O   0  0  0  0  0  0  0  0  0  0  0  0
   52.3037   21.5295   12.9458 O   0  0  0  0  0  0  0  0  0  0  0  0
   51.3587   20.2697   15.8212 H   0  0  0  0  0  0  0  0  0  0  0  0
   53.2180   21.6901   13.2272 H   0  0  0  0  0  0  0  0  0  0  0  0
  4  5  1  0  0  0
  4  9  2  0  0  0
  4 10  1  0  0  0
  5  6  2  0  0  0
  6  7  1  0  0  0
  7  8  2  0  0  0
  7  1  1  0  0  0
  8  9  1  0  0  0
 10 11  1  0  0  0
 11 12  1  0  0  0
 11 13  1  0  0  0
 11 14  1  0  0  0
  1 15  1  0  0  0
  1  2  2  0  0  0
  1  3  2  0  0  0
 15 17  1  0  0  0
 17 18  1  0  0  0
 18 19  1  0  0  0
 19 20  1  0  0  0
 20 21  1  0  0  0
 20 22  2  0  0  0
 20 23  1  0  0  0
 15 16  1  0  0  0
 21 24  1  0  0  0
 23 25  1  0  0  0
M  END
> <minimizedAffinity>
-8.09567

$$$$
2CLI_F9F_A_1269


 25 25  0  0  0  0  0  0  0  0999 V2000
   51.2058   21.4997   14.9037 S   0  0  0  0  0  0  0  0  0  0  0  0
   50.8746   20.8396   16.1868 O   0  0  0  0  0  0  0  0  0  0  0  0
   52.6680   21.5019   14.6326 O   0  0  0  0  0  0  0  0  0  0  0  0
   49.9949   26.0194   15.2759 C   0  0  0  0  0  0  0  0  0  0  0  0
   51.3830   25.6877   14.9246 C   0  0  0  0  0  0  0  0  0  0  0  0
   51.6356   24.2214   14.8262 C   0  0  0  0  0  0  0  0  0  0  0  0
   50.6994   23.2206   15.0491 C   0  0  0  0  0  0  0  0  0  0  0  0
   49.2731   23.6410   15.4078 C   0  0  0  0  0  0  0  0  0  0  0  0
   48.9667   25.0292   15.5212 C   0  0  0  0  0  0  0  0  0  0  0  0
   49.4769   27.3301   15.4521 O   0  0  0  0  0  0  0  0  0  0  0  0
   48.7925   28.0642   14.3628 C   0  0  0  0  0  0  0  0  0  0  0  0
   49.4451   29.2036   14.1625 F   0  0  0  0  0  0  0  0  0  0  0  0
   47.5443   28.4656   14.7175 F   0  0  0  0  0  0  0  0  0  0  0  0
   48.7125   27.3933   13.1833 F   0  0  0  0  0  0  0  0  0  0  0  0
   50.4761   20.7316   13.5440 N   0  0  0  0  0  0  0  0  0  0  0  0
   50.8757   21.1532   12.7056 H   0  0  0  0  0  0  0  0  0  0  0  0
   50.6291   19.2640   13.4165 C   0  0  0  0  0  0  0  0  0  0  0  0
   51.2603   18.9578   12.1705 C   0  0  0  0  0  0  0  0  0  0  0  0
   52.5902   19.4456   12.2082 O   0  0  0  0  0  0  0  0  0  0  0  0
   53.0166   20.5903   11.1314 P   0  0  0  0  0  0  0  0  0  0  0  0
   52.9505   21.9385   11.7593 O   0  0  0  0  0  0  0  0  0  0  0  0
   54.3823   20.2763   10.6898 O   0  0  0  0  0  0  0  0  0  0  0  0
   52.0511   20.4828   10.0143 O   0  0  0  0  0  0  0  0  0  0  0  0
   53.5896   21.9878   12.4873 H   0  0  0  0  0  0  0  0  0  0  0  0
   51.1606   20.6951   10.3351 H   0  0  0  0  0  0  0  0  0  0  0  0
  4  5  1  0  0  0
  4  9  2  0  0  0
  4 10  1  0  0  0
  5  6  2  0  0  0
  6  7  1  0  0  0
  7  8  2  0  0  0
  7  1  1  0  0  0
  8  9  1  0  0  0
 10 11  1  0  0  0
 11 12  1  0  0  0
 11 13  1  0  0  0
 11 14  1  0  0  0
  1 15  1  0  0  0
  1  2  2  0  0  0
  1  3  2  0  0  0
 15 17  1  0  0  0
 17 18  1  0  0  0
 18 19  1  0  0  0
 19 20  1  0  0  0
 20 21  1  0  0  0
 20 22  2  0  0  0
 20 23  1  0  0  0
 15 16  1  0  0  0
 21 24  1  0  0  0
 23 25  1  0  0  0
M  END
> <minimizedAffinity>
-7.79789

$$$$
2CLI_F9F_A_1269


 25 25  0  0  0  0  0  0  0  0999 V2000
   48.8470   26.7097   15.2150 S   0  0  0  0  0  0  0  0  0  0  0  0
   47.5877   26.8831   15.9739 O   0  0  0  0  0  0  0  0  0  0  0  0
   50.0374   27.1460   15.9922 O   0  0  0  0  0  0  0  0  0  0  0  0
   48.6440   29.5792   11.5059 C   0  0  0  0  0  0  0  0  0  0  0  0
   49.5504   29.9190   12.6118 C   0  0  0  0  0  0  0  0  0  0  0  0
   49.5310   28.9234   13.7217 C   0  0  0  0  0  0  0  0  0  0  0  0
   48.7451   27.7799   13.7716 C   0  0  0  0  0  0  0  0  0  0  0  0
   47.8279   27.4888   12.5827 C   0  0  0  0  0  0  0  0  0  0  0  0
   47.7970   28.4043   11.4896 C   0  0  0  0  0  0  0  0  0  0  0  0
   48.4473   30.3517   10.3304 O   0  0  0  0  0  0  0  0  0  0  0  0
   47.6623   29.8534    9.1775 C   0  0  0  0  0  0  0  0  0  0  0  0
   48.2676   28.7687    8.7068 F   0  0  0  0  0  0  0  0  0  0  0  0
   47.6842   30.7158    8.1283 F   0  0  0  0  0  0  0  0  0  0  0  0
   46.3683   29.5449    9.4571 F   0  0  0  0  0  0  0  0  0  0  0  0
   49.1469   25.0703   14.7750 N   0  0  0  0  0  0  0  0  0  0  0  0
   50.0688   25.0357   14.3398 H   0  0  0  0  0  0  0  0  0  0  0  0
   49.1278   24.0527   15.8510 C   0  0  0  0  0  0  0  0  0  0  0  0
   48.9735   22.7533   15.2745 C   0  0  0  0  0  0  0  0  0  0  0  0
   50.0959   21.9662   15.6330 O   0  0  0  0  0  0  0  0  0  0  0  0
   51.0438   21.3953   14.4383 P   0  0  0  0  0  0  0  0  0  0  0  0
   50.2087   20.8170   13.3499 O   0  0  0  0  0  0  0  0  0  0  0  0
   51.8452   22.5254   13.9495 O   0  0  0  0  0  0  0  0  0  0  0  0
   51.8984   20.3550   15.0541 O   0  0  0  0  0  0  0  0  0  0  0  0
   49.6574   21.5137   12.9605 H   0  0  0  0  0  0  0  0  0  0  0  0
   51.3431   19.6237   15.3665 H   0  0  0  0  0  0  0  0  0  0  0  0
  4  5  1  0  0  0
  4  9  2  0  0  0
  4 10  1  0  0  0
  5  6  2  0  0  0
  6  7  1  0  0  0
  7  8  2  0  0  0
  7  1  1  0  0  0
  8  9  1  0  0  0
 10 11  1  0  0  0
 11 12  1  0  0  0
 11 13  1  0  0  0
 11 14  1  0  0  0
  1 15  1  0  0  0
  1  2  2  0  0  0
  1  3  2  0  0  0
 15 17  1  0  0  0
 17 18  1  0  0  0
 18 19  1  0  0  0
 19 20  1  0  0  0
 20 21  1  0  0  0
 20 22  2  0  0  0
 20 23  1  0  0  0
 15 16  1  0  0  0
 21 24  1  0  0  0
 23 25  1  0  0  0
M  END
> <minimizedAffinity>
-7.74246

$$$$
2CLI_F9F_A_1269


 25 25  0  0  0  0  0  0  0  0999 V2000
   51.8872   21.6063   14.2350 S   0  0  0  0  0  0  0  0  0  0  0  0
   53.2035   21.6122   14.9127 O   0  0  0  0  0  0  0  0  0  0  0  0
   52.0166   21.5762   12.7538 O   0  0  0  0  0  0  0  0  0  0  0  0
   49.8554   25.6950   15.3243 C   0  0  0  0  0  0  0  0  0  0  0  0
   51.2455   25.7032   14.8470 C   0  0  0  0  0  0  0  0  0  0  0  0
   51.7696   24.3451   14.5240 C   0  0  0  0  0  0  0  0  0  0  0  0
   51.0696   23.1533   14.6561 C   0  0  0  0  0  0  0  0  0  0  0  0
   49.6255   23.2224   15.1556 C   0  0  0  0  0  0  0  0  0  0  0  0
   49.0654   24.4918   15.4854 C   0  0  0  0  0  0  0  0  0  0  0  0
   49.1092   26.8377   15.7176 O   0  0  0  0  0  0  0  0  0  0  0  0
   48.6584   27.8616   14.7469 C   0  0  0  0  0  0  0  0  0  0  0  0
   49.5451   28.8507   14.7521 F   0  0  0  0  0  0  0  0  0  0  0  0
   47.5027   28.4626   15.1319 F   0  0  0  0  0  0  0  0  0  0  0  0
   48.5098   27.4148   13.4717 F   0  0  0  0  0  0  0  0  0  0  0  0
   50.9225   20.2398   14.6511 N   0  0  0  0  0  0  0  0  0  0  0  0
   49.9500   20.5471   14.6667 H   0  0  0  0  0  0  0  0  0  0  0  0
   50.9959   19.0501   13.7720 C   0  0  0  0  0  0  0  0  0  0  0  0
   51.2468   17.8870   14.5651 C   0  0  0  0  0  0  0  0  0  0  0  0
   51.2793   18.2709   15.9287 O   0  0  0  0  0  0  0  0  0  0  0  0
   51.2636   17.0955   17.0556 P   0  0  0  0  0  0  0  0  0  0  0  0
   50.9498   17.6685   18.3934 O   0  0  0  0  0  0  0  0  0  0  0  0
   50.2455   16.1198   16.6435 O   0  0  0  0  0  0  0  0  0  0  0  0
   52.6182   16.4982   17.0444 O   0  0  0  0  0  0  0  0  0  0  0  0
   50.0598   18.0540   18.3793 H   0  0  0  0  0  0  0  0  0  0  0  0
   53.2674   17.1641   17.3201 H   0  0  0  0  0  0  0  0  0  0  0  0
  4  5  1  0  0  0
  4  9  2  0  0  0
  4 10  1  0  0  0
  5  6  2  0  0  0
  6  7  1  0  0  0
  7  8  2  0  0  0
  7  1  1  0  0  0
  8  9  1  0  0  0
 10 11  1  0  0  0
 11 12  1  0  0  0
 11 13  1  0  0  0
 11 14  1  0  0  0
  1 15  1  0  0  0
  1  2  2  0  0  0
  1  3  2  0  0  0
 15 17  1  0  0  0
 17 18  1  0  0  0
 18 19  1  0  0  0
 19 20  1  0  0  0
 20 21  1  0  0  0
 20 22  2  0  0  0
 20 23  1  0  0  0
 15 16  1  0  0  0
 21 24  1  0  0  0
 23 25  1  0  0  0
M  END
> <minimizedAffinity>
-7.64673

$$$$
2CLI_F9F_A_1269


 25 25  0  0  0  0  0  0  0  0999 V2000
   50.2391   22.1935   15.0341 S   0  0  0  0  0  0  0  0  0  0  0  0
   49.3102   21.7386   13.9748 O   0  0  0  0  0  0  0  0  0  0  0  0
   49.8393   21.7060   16.3810 O   0  0  0  0  0  0  0  0  0  0  0  0
   49.8857   26.8721   15.1669 C   0  0  0  0  0  0  0  0  0  0  0  0
   48.6973   26.0659   15.4793 C   0  0  0  0  0  0  0  0  0  0  0  0
   48.9434   24.5967   15.4141 C   0  0  0  0  0  0  0  0  0  0  0  0
   50.1472   23.9902   15.0810 C   0  0  0  0  0  0  0  0  0  0  0  0
   51.3424   24.8931   14.7711 C   0  0  0  0  0  0  0  0  0  0  0  0
   51.1721   26.3084   14.8128 C   0  0  0  0  0  0  0  0  0  0  0  0
   49.9382   28.2912   15.1374 O   0  0  0  0  0  0  0  0  0  0  0  0
   49.5475   29.0734   13.9419 C   0  0  0  0  0  0  0  0  0  0  0  0
   49.4207   28.2304   12.9232 F   0  0  0  0  0  0  0  0  0  0  0  0
   50.5286   29.9216   13.5383 F   0  0  0  0  0  0  0  0  0  0  0  0
   48.3925   29.7782   14.0720 F   0  0  0  0  0  0  0  0  0  0  0  0
   51.8546   21.6422   14.7944 N   0  0  0  0  0  0  0  0  0  0  0  0
   52.3719   21.8333   15.6525 H   0  0  0  0  0  0  0  0  0  0  0  0
   52.0539   20.2116   14.4675 C   0  0  0  0  0  0  0  0  0  0  0  0
   52.1619   20.0578   13.0500 C   0  0  0  0  0  0  0  0  0  0  0  0
   53.2611   20.8285   12.5964 O   0  0  0  0  0  0  0  0  0  0  0  0
   53.5018   20.9477   10.9903 P   0  0  0  0  0  0  0  0  0  0  0  0
   53.5866   22.3782   10.5867 O   0  0  0  0  0  0  0  0  0  0  0  0
   54.7516   20.2361   10.6899 O   0  0  0  0  0  0  0  0  0  0  0  0
   52.3400   20.2893   10.3513 O   0  0  0  0  0  0  0  0  0  0  0  0
   54.3529   22.7902   11.0155 H   0  0  0  0  0  0  0  0  0  0  0  0
   51.5315   20.7800   10.5667 H   0  0  0  0  0  0  0  0  0  0  0  0
  4  5  1  0  0  0
  4  9  2  0  0  0
  4 10  1  0  0  0
  5  6  2  0  0  0
  6  7  1  0  0  0
  7  8  2  0  0  0
  7  1  1  0  0  0
  8  9  1  0  0  0
 10 11  1  0  0  0
 11 12  1  0  0  0
 11 13  1  0  0  0
 11 14  1  0  0  0
  1 15  1  0  0  0
  1  2  2  0  0  0
  1  3  2  0  0  0
 15 17  1  0  0  0
 17 18  1  0  0  0
 18 19  1  0  0  0
 19 20  1  0  0  0
 20 21  1  0  0  0
 20 22  2  0  0  0
 20 23  1  0  0  0
 15 16  1  0  0  0
 21 24  1  0  0  0
 23 25  1  0  0  0
M  END
> <minimizedAffinity>
-7.18214

$$$$
