1V2N_BBA_T_1
  RCSB PDB12061704173D
Coordinates from PDB:1V2N:T:1 Model:1 without hydrogens
 28 30  0  0  0  0            999 V2000
   43.6060   22.6170   51.1030   C 0  0  0  0  0  0  0  0  0  0  0  0
   44.1480   21.4790   51.9700   C 0  0  0  0  0  0  0  0  0  0  0  0
   44.9630   21.7290   53.1220   C 0  0  0  0  0  0  0  0  0  0  0  0
   45.4370   20.6620   53.9120   C 0  0  0  0  0  0  0  0  0  0  0  0
   43.8520   20.1330   51.6060   C 0  0  0  0  0  0  0  0  0  0  0  0
   44.3330   19.0570   52.4030   C 0  0  0  0  0  0  0  0  0  0  0  0
   45.1400   19.3200   53.5490   C 0  0  0  0  0  0  0  0  0  0  0  0
   45.6570   18.1900   54.4070   C 0  0  0  0  0  0  0  0  0  0  0  0
   45.1280   16.9340   54.2960   N 0  0  0  0  0  0  0  0  0  0  0  0
   46.6630   18.4220   55.3090   N 0  0  0  0  0  0  0  0  0  0  0  0
   42.1130   26.2480   54.3230   C 0  0  0  0  0  0  0  0  0  0  0  0
   40.8730   25.7440   55.0500   C 0  0  0  0  0  0  0  0  0  0  0  0
   40.8900   25.6100   56.4690   C 0  0  0  0  0  0  0  0  0  0  0  0
   39.7270   25.1470   57.1580   C 0  0  0  0  0  0  0  0  0  0  0  0
   39.6900   25.4080   54.3320   C 0  0  0  0  0  0  0  0  0  0  0  0
   38.5350   24.9480   55.0130   C 0  0  0  0  0  0  0  0  0  0  0  0
   38.5420   24.8140   56.4250   C 0  0  0  0  0  0  0  0  0  0  0  0
   37.2940   24.3240   57.1370   C 0  0  0  0  0  0  0  0  0  0  0  0
   36.5080   23.3580   56.5620   N 0  0  0  0  0  0  0  0  0  0  0  0
   36.9320   24.8480   58.3480   N 0  0  0  0  0  0  0  0  0  0  0  0
   43.0560   23.7970   51.5100   C 0  0  0  0  0  0  0  0  0  0  0  0
   42.6450   24.7630   50.4190   C 0  0  0  0  0  0  0  0  0  0  0  0
   43.7200   25.8790   50.2600   C 0  0  0  0  0  0  0  0  0  0  0  0
   43.5940   26.9650   51.3760   C 0  0  0  0  0  0  0  0  0  0  0  0
   43.9970   26.4030   52.7760   C 0  0  0  0  0  0  0  0  0  0  0  0
   42.8480   25.6160   53.3680   C 0  0  0  0  0  0  0  0  0  0  0  0
   42.7070   24.1870   52.9230   C 0  0  0  0  0  0  0  0  0  0  0  0
   42.3200   23.3360   53.7180   O 0  0  0  0  0  0  0  0  0  0  0  0
  1  2  1  0  0  0  0
  1 21  1  0  0  0  0
  2  3  2  0  0  0  0
  2  5  1  0  0  0  0
  3  4  1  0  0  0  0
  4  7  2  0  0  0  0
  5  6  2  0  0  0  0
  6  7  1  0  0  0  0
  7  8  1  0  0  0  0
  8  9  1  0  0  0  0
  8 10  2  0  0  0  0
 11 12  1  0  0  0  0
 11 26  1  0  0  0  0
 12 13  2  0  0  0  0
 12 15  1  0  0  0  0
 13 14  1  0  0  0  0
 14 17  2  0  0  0  0
 15 16  2  0  0  0  0
 16 17  1  0  0  0  0
 17 18  1  0  0  0  0
 18 19  1  0  0  0  0
 18 20  2  0  0  0  0
 21 22  1  0  0  0  0
 21 27  1  0  0  0  0
 22 23  1  0  0  0  0
 23 24  1  0  0  0  0
 24 25  1  0  0  0  0
 25 26  1  0  0  0  0
 26 27  1  0  0  0  0
 27 28  2  0  0  0  0
A    1
C8
A    2
C9
A    3
C14
A    4
C13
A    5
C10
A    6
C11
A    7
C12
A    8
C15
A    9
N16
A   10
N17
A   11
C18
A   12
C19
A   13
C20
A   14
C21
A   15
C24
A   16
C23
A   17
C22
A   18
C25
A   19
N26
A   20
N27
A   21
C1
A   22
C2
A   23
C3
A   24
C
A   25
C4
A   26
C5
A   27
C6
A   28
O7
M  END
>  <InstanceId>
1V2N_BBA_T_1

>  <ChemCompId>
BBA

>  <PdbId>
1V2N

>  <ChainId>
T

>  <ResidueNumber>
1

>  <InsertionCode>


>  <Model>
1

>  <AltIds>


>  <MissingHeavyAtoms>
0

>  <ObservedFormula>
C23 N4 O

>  <Name>
2,7-BIS-(4-AMIDINOBENZYLIDENE)-CYCLOHEPTAN-1-ONE

>  <SystematicName>
4-[[(1S,3S)-3-[(4-carbamimidoylphenyl)methyl]-2-oxo-cycloheptyl]methyl]benzenecarboximidamide

>  <Synonyms>
BIS-BENZAMIDINE

>  <Type>
NON-POLYMER

>  <Formula>
C23 H28 N4 O

>  <MolecularWeight>
376.495

>  <ModifiedDate>
2011-06-04

>  <Parent>


>  <OneLetterCode>


>  <SubcomponentList>


>  <AmbiguousFlag>
N

>  <InChI>
InChI=1S/C23H28N4O/c24-22(25)17-9-5-15(6-10-17)13-19-3-1-2-4-20(21(19)28)14-16-7-11-18(12-8-16)23(26)27/h5-12,19-20H,1-4,13-14H2,(H3,24,25)(H3,26,27)/t19-,20-/m0/s1

>  <InChIKey>
BXYGSMRTHHSAHZ-PMACEKPBSA-N

>  <SMILES>
c1cc(ccc1C[C@@H]2CCCC[C@H](C2=O)Cc3ccc(cc3)C(=N)N)C(=N)N

$$$$
