1U33_LM2_A_500


 47 49  0  0  0  0  0  0  0  0999 V2000
   13.3797   17.5807   40.2828 C   0  0  0  0  0  0  0  0  0  0  0  0
   13.1786   17.9562   38.7378 C   0  0  0  0  0  0  0  0  0  0  0  0
   13.2749   16.7045   37.7903 C   0  0  0  0  0  0  0  0  0  0  0  0
   14.6876   16.0697   38.0068 C   0  0  0  0  0  0  0  0  0  0  0  0
   14.7800   15.6126   39.6076 C   0  0  0  0  0  0  0  0  0  0  0  0
   11.9110   18.6424   38.6113 O   0  0  0  0  0  0  0  0  0  0  0  0
   13.1063   17.1486   36.4213 O   0  0  0  0  0  0  0  0  0  0  0  0
   14.6430   16.8204   40.4551 O   0  0  0  0  0  0  0  0  0  0  0  0
   11.1951   18.0550   38.8999 H   0  0  0  0  0  0  0  0  0  0  0  0
   13.7849   17.8087   36.2096 H   0  0  0  0  0  0  0  0  0  0  0  0
   16.1082   14.9721   39.9591 C   0  0  0  0  0  0  0  0  0  0  0  0
   17.1565   15.6541   39.3588 O   0  0  0  0  0  0  0  0  0  0  0  0
   17.0500   15.6272   38.3951 H   0  0  0  0  0  0  0  0  0  0  0  0
   12.2399   16.8472   40.7081 O   0  0  0  0  0  0  0  0  0  0  0  0
    9.9650   16.1966   43.9067 C   0  0  0  0  0  0  0  0  0  0  0  0
    8.8940   16.0213   44.6659 N   0  0  0  0  0  0  0  0  0  0  0  0
    8.2460   14.8729   44.5518 O   0  0  0  0  0  0  0  0  0  0  0  0
   10.7339   17.5268   44.0186 C   0  0  0  0  0  0  0  0  0  0  0  0
    9.9964   18.4857   44.6007 O   0  0  0  0  0  0  0  0  0  0  0  0
   11.2921   17.9032   42.6009 C   0  0  0  0  0  0  0  0  0  0  0  0
   11.9703   19.0417   42.6735 O   0  0  0  0  0  0  0  0  0  0  0  0
   12.1537   16.7206   42.0250 C   0  0  0  0  0  0  0  0  0  0  0  0
   11.5497   15.3552   42.1212 C   0  0  0  0  0  0  0  0  0  0  0  0
   10.4003   15.1593   43.0247 N   0  0  0  0  0  0  0  0  0  0  0  0
    7.4836   14.7115   45.0721 H   0  0  0  0  0  0  0  0  0  0  0  0
    9.2042   18.6533   44.0666 H   0  0  0  0  0  0  0  0  0  0  0  0
   12.7151   18.9359   43.2860 H   0  0  0  0  0  0  0  0  0  0  0  0
    9.9240   14.2977   43.0202 H   0  0  0  0  0  0  0  0  0  0  0  0
   12.6481   14.3616   42.6182 C   0  0  0  0  0  0  0  0  0  0  0  0
   13.8029   15.0310   42.9337 O   0  0  0  0  0  0  0  0  0  0  0  0
   14.1381   15.4867   42.1458 H   0  0  0  0  0  0  0  0  0  0  0  0
   14.8105   14.9383   37.1615 O   0  0  0  0  0  0  0  0  0  0  0  0
   16.0107   15.0293   36.3228 C   0  0  0  0  0  0  0  0  0  0  0  0
   15.7295   15.0010   34.7665 C   0  0  0  0  0  0  0  0  0  0  0  0
   15.0593   13.6041   34.4074 C   0  0  0  0  0  0  0  0  0  0  0  0
   16.0643   12.4638   34.7671 C   0  0  0  0  0  0  0  0  0  0  0  0
   16.3821   12.5340   36.3715 C   0  0  0  0  0  0  0  0  0  0  0  0
   14.8514   16.1048   34.4684 O   0  0  0  0  0  0  0  0  0  0  0  0
   14.8041   13.5512   33.0264 O   0  0  0  0  0  0  0  0  0  0  0  0
   16.9390   13.8937   36.6798 O   0  0  0  0  0  0  0  0  0  0  0  0
   14.0378   16.0206   34.9899 H   0  0  0  0  0  0  0  0  0  0  0  0
   15.6365   13.6555   32.5395 H   0  0  0  0  0  0  0  0  0  0  0  0
   17.4048   11.4351   36.7845 C   0  0  0  0  0  0  0  0  0  0  0  0
   16.8154   10.1298   36.7644 O   0  0  0  0  0  0  0  0  0  0  0  0
   16.0805   10.0971   37.3966 H   0  0  0  0  0  0  0  0  0  0  0  0
   15.4859   11.1496   34.4561 O   0  0  0  0  0  0  0  0  0  0  0  0
   16.1501   10.4353   33.3792 C   0  0  0  0  0  0  0  0  0  0  0  0
 15 16  2  0  0  0
 15 18  1  0  0  0
 15 24  1  0  0  0
 16 17  1  0  0  0
 18 19  1  0  0  0
 18 20  1  0  0  0
 20 21  1  0  0  0
 20 22  1  0  0  0
 22 14  1  0  0  0
 22 23  1  0  0  0
 14  1  1  0  0  0
 23 24  1  0  0  0
 23 29  1  0  0  0
 29 30  1  0  0  0
  1  2  1  0  0  0
  1  8  1  0  0  0
  2  3  1  0  0  0
  2  6  1  0  0  0
  3  4  1  0  0  0
  3  7  1  0  0  0
  4  5  1  0  0  0
  4 32  1  0  0  0
  5 11  1  0  0  0
  5  8  1  0  0  0
 11 12  1  0  0  0
 32 33  1  0  0  0
 33 34  1  0  0  0
 33 40  1  0  0  0
 34 35  1  0  0  0
 34 38  1  0  0  0
 35 36  1  0  0  0
 35 39  1  0  0  0
 36 37  1  0  0  0
 36 46  1  0  0  0
 37 43  1  0  0  0
 37 40  1  0  0  0
 43 44  1  0  0  0
 46 47  1  0  0  0
 17 25  1  0  0  0
 19 26  1  0  0  0
 21 27  1  0  0  0
 24 28  1  0  0  0
 30 31  1  0  0  0
  6  9  1  0  0  0
  7 10  1  0  0  0
 12 13  1  0  0  0
 38 41  1  0  0  0
 39 42  1  0  0  0
 44 45  1  0  0  0
M  END
> <minimizedAffinity>
-9.55665

$$$$
1U33_LM2_A_500


 47 49  0  0  0  0  0  0  0  0999 V2000
   13.0649   17.3424   40.2212 C   0  0  0  0  0  0  0  0  0  0  0  0
   12.9443   17.7420   38.6740 C   0  0  0  0  0  0  0  0  0  0  0  0
   13.1350   16.5125   37.7118 C   0  0  0  0  0  0  0  0  0  0  0  0
   14.5511   15.9156   38.0011 C   0  0  0  0  0  0  0  0  0  0  0  0
   14.5624   15.4300   39.5961 C   0  0  0  0  0  0  0  0  0  0  0  0
   11.6660   18.3929   38.4842 O   0  0  0  0  0  0  0  0  0  0  0  0
   13.0343   16.9783   36.3432 O   0  0  0  0  0  0  0  0  0  0  0  0
   14.3385   16.6164   40.4552 O   0  0  0  0  0  0  0  0  0  0  0  0
   10.9526   17.7790   38.7189 H   0  0  0  0  0  0  0  0  0  0  0  0
   13.7036   17.6621   36.1843 H   0  0  0  0  0  0  0  0  0  0  0  0
   15.8864   14.8223   40.0149 C   0  0  0  0  0  0  0  0  0  0  0  0
   16.9456   15.5047   39.4345 O   0  0  0  0  0  0  0  0  0  0  0  0
   16.8758   15.4488   38.4686 H   0  0  0  0  0  0  0  0  0  0  0  0
   11.9249   16.5673   40.5645 O   0  0  0  0  0  0  0  0  0  0  0  0
    8.9067   16.1920   43.1295 C   0  0  0  0  0  0  0  0  0  0  0  0
    7.8372   15.7058   43.7409 N   0  0  0  0  0  0  0  0  0  0  0  0
    8.0028   14.6366   44.5030 O   0  0  0  0  0  0  0  0  0  0  0  0
    8.7386   17.4338   42.2335 C   0  0  0  0  0  0  0  0  0  0  0  0
    7.4564   17.6362   41.8911 O   0  0  0  0  0  0  0  0  0  0  0  0
    9.7268   17.3133   41.0202 C   0  0  0  0  0  0  0  0  0  0  0  0
    9.6095   18.3794   40.2384 O   0  0  0  0  0  0  0  0  0  0  0  0
   11.1966   17.0994   41.5362 C   0  0  0  0  0  0  0  0  0  0  0  0
   11.3790   16.0646   42.6013 C   0  0  0  0  0  0  0  0  0  0  0  0
   10.1857   15.5833   43.3225 N   0  0  0  0  0  0  0  0  0  0  0  0
    7.2700   14.2632   44.9520 H   0  0  0  0  0  0  0  0  0  0  0  0
    7.1310   16.8718   41.3904 H   0  0  0  0  0  0  0  0  0  0  0  0
    9.8297   19.1771   40.7443 H   0  0  0  0  0  0  0  0  0  0  0  0
   10.2717   14.8286   43.9488 H   0  0  0  0  0  0  0  0  0  0  0  0
   12.3268   16.6455   43.6991 C   0  0  0  0  0  0  0  0  0  0  0  0
   13.1401   15.6654   44.2080 O   0  0  0  0  0  0  0  0  0  0  0  0
   12.5961   14.9709   44.6114 H   0  0  0  0  0  0  0  0  0  0  0  0
   14.7585   14.8052   37.1445 O   0  0  0  0  0  0  0  0  0  0  0  0
   16.0054   14.9457   36.3846 C   0  0  0  0  0  0  0  0  0  0  0  0
   15.8179   14.9884   34.8146 C   0  0  0  0  0  0  0  0  0  0  0  0
   15.1860   13.6044   34.3512 C   0  0  0  0  0  0  0  0  0  0  0  0
   16.1804   12.4569   34.7172 C   0  0  0  0  0  0  0  0  0  0  0  0
   16.4012   12.4540   36.3394 C   0  0  0  0  0  0  0  0  0  0  0  0
   14.9468   16.0975   34.5160 O   0  0  0  0  0  0  0  0  0  0  0  0
   15.0142   13.6144   32.9565 O   0  0  0  0  0  0  0  0  0  0  0  0
   16.9235   13.8024   36.7435 O   0  0  0  0  0  0  0  0  0  0  0  0
   14.1046   15.9821   34.9831 H   0  0  0  0  0  0  0  0  0  0  0  0
   15.8729   13.7486   32.5259 H   0  0  0  0  0  0  0  0  0  0  0  0
   17.4098   11.3455   36.7615 C   0  0  0  0  0  0  0  0  0  0  0  0
   16.8054   10.0470   36.7460 O   0  0  0  0  0  0  0  0  0  0  0  0
   16.0680   10.0261   37.3759 H   0  0  0  0  0  0  0  0  0  0  0  0
   15.6364   11.1539   34.3113 O   0  0  0  0  0  0  0  0  0  0  0  0
   16.4005   10.4737   33.2796 C   0  0  0  0  0  0  0  0  0  0  0  0
 15 16  2  0  0  0
 15 18  1  0  0  0
 15 24  1  0  0  0
 16 17  1  0  0  0
 18 19  1  0  0  0
 18 20  1  0  0  0
 20 21  1  0  0  0
 20 22  1  0  0  0
 22 14  1  0  0  0
 22 23  1  0  0  0
 14  1  1  0  0  0
 23 24  1  0  0  0
 23 29  1  0  0  0
 29 30  1  0  0  0
  1  2  1  0  0  0
  1  8  1  0  0  0
  2  3  1  0  0  0
  2  6  1  0  0  0
  3  4  1  0  0  0
  3  7  1  0  0  0
  4  5  1  0  0  0
  4 32  1  0  0  0
  5 11  1  0  0  0
  5  8  1  0  0  0
 11 12  1  0  0  0
 32 33  1  0  0  0
 33 34  1  0  0  0
 33 40  1  0  0  0
 34 35  1  0  0  0
 34 38  1  0  0  0
 35 36  1  0  0  0
 35 39  1  0  0  0
 36 37  1  0  0  0
 36 46  1  0  0  0
 37 43  1  0  0  0
 37 40  1  0  0  0
 43 44  1  0  0  0
 46 47  1  0  0  0
 17 25  1  0  0  0
 19 26  1  0  0  0
 21 27  1  0  0  0
 24 28  1  0  0  0
 30 31  1  0  0  0
  6  9  1  0  0  0
  7 10  1  0  0  0
 12 13  1  0  0  0
 38 41  1  0  0  0
 39 42  1  0  0  0
 44 45  1  0  0  0
M  END
> <minimizedAffinity>
-9.35702

$$$$
1U33_LM2_A_500


 47 49  0  0  0  0  0  0  0  0999 V2000
   15.0154   15.8927   38.4727 C   0  0  0  0  0  0  0  0  0  0  0  0
   15.1220   15.5127   40.0260 C   0  0  0  0  0  0  0  0  0  0  0  0
   13.7195   15.2372   40.6823 C   0  0  0  0  0  0  0  0  0  0  0  0
   12.8651   16.5351   40.5067 C   0  0  0  0  0  0  0  0  0  0  0  0
   12.7126   16.8043   38.8683 C   0  0  0  0  0  0  0  0  0  0  0  0
   16.0137   14.3793   40.1433 O   0  0  0  0  0  0  0  0  0  0  0  0
   13.9191   14.9291   42.0841 O   0  0  0  0  0  0  0  0  0  0  0  0
   14.0622   17.0167   38.2944 O   0  0  0  0  0  0  0  0  0  0  0  0
   15.6495   13.6287   39.6483 H   0  0  0  0  0  0  0  0  0  0  0  0
   14.3754   15.6682   42.5158 H   0  0  0  0  0  0  0  0  0  0  0  0
   11.8956   18.0409   38.5506 C   0  0  0  0  0  0  0  0  0  0  0  0
   10.5500   17.7244   38.4350 O   0  0  0  0  0  0  0  0  0  0  0  0
   10.4289   17.0852   37.7155 H   0  0  0  0  0  0  0  0  0  0  0  0
   14.6227   14.7272   37.7617 O   0  0  0  0  0  0  0  0  0  0  0  0
   15.2417   12.5936   34.4611 C   0  0  0  0  0  0  0  0  0  0  0  0
   15.0956   11.6726   33.5206 N   0  0  0  0  0  0  0  0  0  0  0  0
   14.0873   11.8171   32.6757 O   0  0  0  0  0  0  0  0  0  0  0  0
   16.4057   12.4452   35.4591 C   0  0  0  0  0  0  0  0  0  0  0  0
   16.8970   11.1959   35.4753 O   0  0  0  0  0  0  0  0  0  0  0  0
   15.9372   12.9803   36.8581 C   0  0  0  0  0  0  0  0  0  0  0  0
   16.9286   12.8742   37.7341 O   0  0  0  0  0  0  0  0  0  0  0  0
   15.4018   14.4527   36.7247 C   0  0  0  0  0  0  0  0  0  0  0  0
   14.4478   14.7097   35.6011 C   0  0  0  0  0  0  0  0  0  0  0  0
   14.3471   13.7069   34.5240 N   0  0  0  0  0  0  0  0  0  0  0  0
   13.9510   11.1861   31.9966 H   0  0  0  0  0  0  0  0  0  0  0  0
   16.2008   10.5782   35.7486 H   0  0  0  0  0  0  0  0  0  0  0  0
   17.6840   13.4029   37.4329 H   0  0  0  0  0  0  0  0  0  0  0  0
   13.6506   13.8063   33.8354 H   0  0  0  0  0  0  0  0  0  0  0  0
   14.8596   16.0420   34.8967 C   0  0  0  0  0  0  0  0  0  0  0  0
   14.2492   17.1162   35.4924 O   0  0  0  0  0  0  0  0  0  0  0  0
   13.2864   17.0200   35.4237 H   0  0  0  0  0  0  0  0  0  0  0  0
   11.5922   16.3226   41.0936 O   0  0  0  0  0  0  0  0  0  0  0  0
   11.1453   17.5059   41.8366 C   0  0  0  0  0  0  0  0  0  0  0  0
   11.0560   17.3044   43.4029 C   0  0  0  0  0  0  0  0  0  0  0  0
    9.9735   16.1773   43.6985 C   0  0  0  0  0  0  0  0  0  0  0  0
    8.5891   16.6658   43.1652 C   0  0  0  0  0  0  0  0  0  0  0  0
    8.7088   16.9148   41.5516 C   0  0  0  0  0  0  0  0  0  0  0  0
   12.3665   16.9169   43.8616 O   0  0  0  0  0  0  0  0  0  0  0  0
    9.8707   15.9827   45.0865 O   0  0  0  0  0  0  0  0  0  0  0  0
    9.7931   17.9254   41.3127 O   0  0  0  0  0  0  0  0  0  0  0  0
   12.6437   16.1085   43.4029 H   0  0  0  0  0  0  0  0  0  0  0  0
    9.6089   16.8146   45.5111 H   0  0  0  0  0  0  0  0  0  0  0  0
    7.3618   17.4330   40.9674 C   0  0  0  0  0  0  0  0  0  0  0  0
    6.9837   16.7110   39.7895 O   0  0  0  0  0  0  0  0  0  0  0  0
    7.6626   16.8282   39.1066 H   0  0  0  0  0  0  0  0  0  0  0  0
    7.5544   15.6525   43.4124 O   0  0  0  0  0  0  0  0  0  0  0  0
    7.6399   14.4795   42.5592 C   0  0  0  0  0  0  0  0  0  0  0  0
 15 16  2  0  0  0
 15 18  1  0  0  0
 15 24  1  0  0  0
 16 17  1  0  0  0
 18 19  1  0  0  0
 18 20  1  0  0  0
 20 21  1  0  0  0
 20 22  1  0  0  0
 22 14  1  0  0  0
 22 23  1  0  0  0
 14  1  1  0  0  0
 23 24  1  0  0  0
 23 29  1  0  0  0
 29 30  1  0  0  0
  1  2  1  0  0  0
  1  8  1  0  0  0
  2  3  1  0  0  0
  2  6  1  0  0  0
  3  4  1  0  0  0
  3  7  1  0  0  0
  4  5  1  0  0  0
  4 32  1  0  0  0
  5 11  1  0  0  0
  5  8  1  0  0  0
 11 12  1  0  0  0
 32 33  1  0  0  0
 33 34  1  0  0  0
 33 40  1  0  0  0
 34 35  1  0  0  0
 34 38  1  0  0  0
 35 36  1  0  0  0
 35 39  1  0  0  0
 36 37  1  0  0  0
 36 46  1  0  0  0
 37 43  1  0  0  0
 37 40  1  0  0  0
 43 44  1  0  0  0
 46 47  1  0  0  0
 17 25  1  0  0  0
 19 26  1  0  0  0
 21 27  1  0  0  0
 24 28  1  0  0  0
 30 31  1  0  0  0
  6  9  1  0  0  0
  7 10  1  0  0  0
 12 13  1  0  0  0
 38 41  1  0  0  0
 39 42  1  0  0  0
 44 45  1  0  0  0
M  END
> <minimizedAffinity>
-8.65093

$$$$
1U33_LM2_A_500


 47 49  0  0  0  0  0  0  0  0999 V2000
   12.8753   17.4797   40.4105 C   0  0  0  0  0  0  0  0  0  0  0  0
   12.7797   17.9774   38.8901 C   0  0  0  0  0  0  0  0  0  0  0  0
   13.2010   16.8669   37.8591 C   0  0  0  0  0  0  0  0  0  0  0  0
   14.6724   16.4585   38.1966 C   0  0  0  0  0  0  0  0  0  0  0  0
   14.6702   15.8566   39.7515 C   0  0  0  0  0  0  0  0  0  0  0  0
   11.4313   18.4511   38.6644 O   0  0  0  0  0  0  0  0  0  0  0  0
   13.1058   17.4188   36.5226 O   0  0  0  0  0  0  0  0  0  0  0  0
   14.2279   16.9279   40.6748 O   0  0  0  0  0  0  0  0  0  0  0  0
   10.8049   17.7248   38.8096 H   0  0  0  0  0  0  0  0  0  0  0  0
   13.6742   18.2019   36.4549 H   0  0  0  0  0  0  0  0  0  0  0  0
   16.0452   15.4143   40.2112 C   0  0  0  0  0  0  0  0  0  0  0  0
   17.0032   15.7136   39.2536 O   0  0  0  0  0  0  0  0  0  0  0  0
   16.7925   15.2483   38.4290 H   0  0  0  0  0  0  0  0  0  0  0  0
   11.8458   16.5248   40.6253 O   0  0  0  0  0  0  0  0  0  0  0  0
    8.5715   15.9683   42.8160 C   0  0  0  0  0  0  0  0  0  0  0  0
    7.6082   15.3648   43.4956 N   0  0  0  0  0  0  0  0  0  0  0  0
    7.9190   14.8623   44.6798 O   0  0  0  0  0  0  0  0  0  0  0  0
    8.2353   16.5579   41.4330 C   0  0  0  0  0  0  0  0  0  0  0  0
    7.0971   16.0502   40.9339 O   0  0  0  0  0  0  0  0  0  0  0  0
    9.4871   16.3934   40.5008 C   0  0  0  0  0  0  0  0  0  0  0  0
    9.2263   16.9057   39.3046 O   0  0  0  0  0  0  0  0  0  0  0  0
   10.7534   17.0389   41.1732 C   0  0  0  0  0  0  0  0  0  0  0  0
   10.9885   16.6915   42.6093 C   0  0  0  0  0  0  0  0  0  0  0  0
    9.8828   16.0836   43.3733 N   0  0  0  0  0  0  0  0  0  0  0  0
    7.2646   14.4279   45.1908 H   0  0  0  0  0  0  0  0  0  0  0  0
    7.1915   15.0910   40.8245 H   0  0  0  0  0  0  0  0  0  0  0  0
    9.0240   17.8501   39.3945 H   0  0  0  0  0  0  0  0  0  0  0  0
   10.0512   15.7509   44.2845 H   0  0  0  0  0  0  0  0  0  0  0  0
   11.3624   17.9980   43.3801 C   0  0  0  0  0  0  0  0  0  0  0  0
   10.4106   18.2970   44.3213 O   0  0  0  0  0  0  0  0  0  0  0  0
    9.5558   18.4351   43.8841 H   0  0  0  0  0  0  0  0  0  0  0  0
   15.0870   15.4596   37.2801 O   0  0  0  0  0  0  0  0  0  0  0  0
   14.4330   14.1767   37.5603 C   0  0  0  0  0  0  0  0  0  0  0  0
   15.2539   12.9053   37.1004 C   0  0  0  0  0  0  0  0  0  0  0  0
   15.4212   12.9661   35.5200 C   0  0  0  0  0  0  0  0  0  0  0  0
   14.0024   12.9229   34.8682 C   0  0  0  0  0  0  0  0  0  0  0  0
   13.1482   14.2188   35.3890 C   0  0  0  0  0  0  0  0  0  0  0  0
   16.5284   12.9507   37.7725 O   0  0  0  0  0  0  0  0  0  0  0  0
   16.1439   11.8423   35.0844 O   0  0  0  0  0  0  0  0  0  0  0  0
   13.0815   14.1643   36.8878 O   0  0  0  0  0  0  0  0  0  0  0  0
   16.9812   13.7795   37.5515 H   0  0  0  0  0  0  0  0  0  0  0  0
   15.6697   11.0349   35.3378 H   0  0  0  0  0  0  0  0  0  0  0  0
   11.7099   14.2130   34.7927 C   0  0  0  0  0  0  0  0  0  0  0  0
   11.0214   15.4400   35.0610 O   0  0  0  0  0  0  0  0  0  0  0  0
   10.9396   15.5619   36.0198 H   0  0  0  0  0  0  0  0  0  0  0  0
   14.1057   12.9815   33.4038 O   0  0  0  0  0  0  0  0  0  0  0  0
   14.7607   14.1725   32.8903 C   0  0  0  0  0  0  0  0  0  0  0  0
 15 16  2  0  0  0
 15 18  1  0  0  0
 15 24  1  0  0  0
 16 17  1  0  0  0
 18 19  1  0  0  0
 18 20  1  0  0  0
 20 21  1  0  0  0
 20 22  1  0  0  0
 22 14  1  0  0  0
 22 23  1  0  0  0
 14  1  1  0  0  0
 23 24  1  0  0  0
 23 29  1  0  0  0
 29 30  1  0  0  0
  1  2  1  0  0  0
  1  8  1  0  0  0
  2  3  1  0  0  0
  2  6  1  0  0  0
  3  4  1  0  0  0
  3  7  1  0  0  0
  4  5  1  0  0  0
  4 32  1  0  0  0
  5 11  1  0  0  0
  5  8  1  0  0  0
 11 12  1  0  0  0
 32 33  1  0  0  0
 33 34  1  0  0  0
 33 40  1  0  0  0
 34 35  1  0  0  0
 34 38  1  0  0  0
 35 36  1  0  0  0
 35 39  1  0  0  0
 36 37  1  0  0  0
 36 46  1  0  0  0
 37 43  1  0  0  0
 37 40  1  0  0  0
 43 44  1  0  0  0
 46 47  1  0  0  0
 17 25  1  0  0  0
 19 26  1  0  0  0
 21 27  1  0  0  0
 24 28  1  0  0  0
 30 31  1  0  0  0
  6  9  1  0  0  0
  7 10  1  0  0  0
 12 13  1  0  0  0
 38 41  1  0  0  0
 39 42  1  0  0  0
 44 45  1  0  0  0
M  END
> <minimizedAffinity>
-8.26951

$$$$
1U33_LM2_A_500


 47 49  0  0  0  0  0  0  0  0999 V2000
   13.5126   15.9939   37.5996 C   0  0  0  0  0  0  0  0  0  0  0  0
   13.6558   16.3476   39.1561 C   0  0  0  0  0  0  0  0  0  0  0  0
   12.5131   15.7138   40.0314 C   0  0  0  0  0  0  0  0  0  0  0  0
   11.1546   16.2594   39.4817 C   0  0  0  0  0  0  0  0  0  0  0  0
   11.0327   15.7634   37.8945 C   0  0  0  0  0  0  0  0  0  0  0  0
   14.9719   15.9268   39.5855 O   0  0  0  0  0  0  0  0  0  0  0  0
   12.7153   16.1099   41.4105 O   0  0  0  0  0  0  0  0  0  0  0  0
   12.1529   16.3541   37.1251 O   0  0  0  0  0  0  0  0  0  0  0  0
   15.0625   14.9693   39.4591 H   0  0  0  0  0  0  0  0  0  0  0  0
   12.7158   17.0780   41.4721 H   0  0  0  0  0  0  0  0  0  0  0  0
    9.7487   16.2235   37.2332 C   0  0  0  0  0  0  0  0  0  0  0  0
    9.8738   17.5251   36.7700 O   0  0  0  0  0  0  0  0  0  0  0  0
   10.0625   18.1168   37.5151 H   0  0  0  0  0  0  0  0  0  0  0  0
   13.7987   14.6121   37.4354 O   0  0  0  0  0  0  0  0  0  0  0  0
   15.8755   11.9335   35.3517 C   0  0  0  0  0  0  0  0  0  0  0  0
   16.4240   10.7850   34.9854 N   0  0  0  0  0  0  0  0  0  0  0  0
   15.6222    9.8560   34.4896 O   0  0  0  0  0  0  0  0  0  0  0  0
   16.7876   13.0291   35.9355 C   0  0  0  0  0  0  0  0  0  0  0  0
   17.9663   12.5350   36.3461 O   0  0  0  0  0  0  0  0  0  0  0  0
   15.9887   13.8114   37.0368 C   0  0  0  0  0  0  0  0  0  0  0  0
   16.7506   14.7707   37.5475 O   0  0  0  0  0  0  0  0  0  0  0  0
   14.6405   14.3606   36.4425 C   0  0  0  0  0  0  0  0  0  0  0  0
   13.8269   13.3913   35.6443 C   0  0  0  0  0  0  0  0  0  0  0  0
   14.4722   12.1477   35.1832 N   0  0  0  0  0  0  0  0  0  0  0  0
   15.9729    9.0303   34.2192 H   0  0  0  0  0  0  0  0  0  0  0  0
   17.8164   11.8801   37.0458 H   0  0  0  0  0  0  0  0  0  0  0  0
   17.0051   15.3896   36.8453 H   0  0  0  0  0  0  0  0  0  0  0  0
   13.9259   11.4518   34.7511 H   0  0  0  0  0  0  0  0  0  0  0  0
   13.3293   14.1107   34.3497 C   0  0  0  0  0  0  0  0  0  0  0  0
   12.1721   14.8055   34.5934 O   0  0  0  0  0  0  0  0  0  0  0  0
   11.4811   14.1906   34.8852 H   0  0  0  0  0  0  0  0  0  0  0  0
   10.1000   15.7103   40.2539 O   0  0  0  0  0  0  0  0  0  0  0  0
    9.1330   16.7426   40.6431 C   0  0  0  0  0  0  0  0  0  0  0  0
    9.2971   17.2729   42.1241 C   0  0  0  0  0  0  0  0  0  0  0  0
    9.0504   16.0564   43.1184 C   0  0  0  0  0  0  0  0  0  0  0  0
    7.5901   15.5395   42.9184 C   0  0  0  0  0  0  0  0  0  0  0  0
    7.4210   15.0371   41.3694 C   0  0  0  0  0  0  0  0  0  0  0  0
   10.6341   17.7978   42.2469 O   0  0  0  0  0  0  0  0  0  0  0  0
    9.1851   16.5034   44.4439 O   0  0  0  0  0  0  0  0  0  0  0  0
    7.7385   16.1926   40.4649 O   0  0  0  0  0  0  0  0  0  0  0  0
   11.2754   17.1021   42.0331 H   0  0  0  0  0  0  0  0  0  0  0  0
    8.5407   17.2081   44.6146 H   0  0  0  0  0  0  0  0  0  0  0  0
    5.9711   14.5364   41.1023 C   0  0  0  0  0  0  0  0  0  0  0  0
    5.7981   13.1748   41.5118 O   0  0  0  0  0  0  0  0  0  0  0  0
    6.4010   12.6064   41.0075 H   0  0  0  0  0  0  0  0  0  0  0  0
    7.3159   14.4087   43.8153 O   0  0  0  0  0  0  0  0  0  0  0  0
    6.2760   14.6551   44.7997 C   0  0  0  0  0  0  0  0  0  0  0  0
 15 16  2  0  0  0
 15 18  1  0  0  0
 15 24  1  0  0  0
 16 17  1  0  0  0
 18 19  1  0  0  0
 18 20  1  0  0  0
 20 21  1  0  0  0
 20 22  1  0  0  0
 22 14  1  0  0  0
 22 23  1  0  0  0
 14  1  1  0  0  0
 23 24  1  0  0  0
 23 29  1  0  0  0
 29 30  1  0  0  0
  1  2  1  0  0  0
  1  8  1  0  0  0
  2  3  1  0  0  0
  2  6  1  0  0  0
  3  4  1  0  0  0
  3  7  1  0  0  0
  4  5  1  0  0  0
  4 32  1  0  0  0
  5 11  1  0  0  0
  5  8  1  0  0  0
 11 12  1  0  0  0
 32 33  1  0  0  0
 33 34  1  0  0  0
 33 40  1  0  0  0
 34 35  1  0  0  0
 34 38  1  0  0  0
 35 36  1  0  0  0
 35 39  1  0  0  0
 36 37  1  0  0  0
 36 46  1  0  0  0
 37 43  1  0  0  0
 37 40  1  0  0  0
 43 44  1  0  0  0
 46 47  1  0  0  0
 17 25  1  0  0  0
 19 26  1  0  0  0
 21 27  1  0  0  0
 24 28  1  0  0  0
 30 31  1  0  0  0
  6  9  1  0  0  0
  7 10  1  0  0  0
 12 13  1  0  0  0
 38 41  1  0  0  0
 39 42  1  0  0  0
 44 45  1  0  0  0
M  END
> <minimizedAffinity>
-8.26869

$$$$
1U33_LM2_A_500


 47 49  0  0  0  0  0  0  0  0999 V2000
   12.3727   16.6510   39.4635 C   0  0  0  0  0  0  0  0  0  0  0  0
   12.3356   17.1015   37.9260 C   0  0  0  0  0  0  0  0  0  0  0  0
   12.7625   15.9492   36.9443 C   0  0  0  0  0  0  0  0  0  0  0  0
   14.2129   15.5192   37.3407 C   0  0  0  0  0  0  0  0  0  0  0  0
   14.1487   14.9679   38.9130 C   0  0  0  0  0  0  0  0  0  0  0  0
   11.0061   17.5975   37.6429 O   0  0  0  0  0  0  0  0  0  0  0  0
   12.7214   16.4597   35.5887 O   0  0  0  0  0  0  0  0  0  0  0  0
   13.7032   16.0780   39.7876 O   0  0  0  0  0  0  0  0  0  0  0  0
   10.3588   16.8905   37.7911 H   0  0  0  0  0  0  0  0  0  0  0  0
   13.3097   17.2273   35.5143 H   0  0  0  0  0  0  0  0  0  0  0  0
   15.4983   14.5101   39.4295 C   0  0  0  0  0  0  0  0  0  0  0  0
   16.5033   15.3664   39.0043 O   0  0  0  0  0  0  0  0  0  0  0  0
   16.5337   15.3732   38.0348 H   0  0  0  0  0  0  0  0  0  0  0  0
   11.3150   15.7266   39.6757 O   0  0  0  0  0  0  0  0  0  0  0  0
   11.3299   17.3439   43.3107 C   0  0  0  0  0  0  0  0  0  0  0  0
   11.6482   18.1259   44.3312 N   0  0  0  0  0  0  0  0  0  0  0  0
   11.2475   19.3864   44.2827 O   0  0  0  0  0  0  0  0  0  0  0  0
   11.7884   15.8736   43.3421 C   0  0  0  0  0  0  0  0  0  0  0  0
   12.7766   15.6746   44.2288 O   0  0  0  0  0  0  0  0  0  0  0  0
   12.1256   15.4228   41.8771 C   0  0  0  0  0  0  0  0  0  0  0  0
   12.5122   14.1532   41.8761 O   0  0  0  0  0  0  0  0  0  0  0  0
   10.8956   15.6822   40.9325 C   0  0  0  0  0  0  0  0  0  0  0  0
   10.2488   17.0267   41.0440 C   0  0  0  0  0  0  0  0  0  0  0  0
   10.5590   17.8581   42.2222 N   0  0  0  0  0  0  0  0  0  0  0  0
   11.4533   19.9707   44.9857 H   0  0  0  0  0  0  0  0  0  0  0  0
   13.5453   16.2123   43.9822 H   0  0  0  0  0  0  0  0  0  0  0  0
   11.7953   13.5966   42.2184 H   0  0  0  0  0  0  0  0  0  0  0  0
   10.2289   18.7849   42.2596 H   0  0  0  0  0  0  0  0  0  0  0  0
    8.6990   16.8305   41.0653 C   0  0  0  0  0  0  0  0  0  0  0  0
    8.0544   18.0278   40.8858 O   0  0  0  0  0  0  0  0  0  0  0  0
    8.2947   18.6351   41.6030 H   0  0  0  0  0  0  0  0  0  0  0  0
   14.6322   14.4823   36.4696 O   0  0  0  0  0  0  0  0  0  0  0  0
   15.9704   14.7492   35.9311 C   0  0  0  0  0  0  0  0  0  0  0  0
   16.0409   14.8273   34.3529 C   0  0  0  0  0  0  0  0  0  0  0  0
   15.6156   13.4119   33.7652 C   0  0  0  0  0  0  0  0  0  0  0  0
   16.6315   12.3386   34.2707 C   0  0  0  0  0  0  0  0  0  0  0  0
   16.5816   12.3011   35.9067 C   0  0  0  0  0  0  0  0  0  0  0  0
   15.1385   15.8704   33.9336 O   0  0  0  0  0  0  0  0  0  0  0  0
   15.6755   13.4531   32.3618 O   0  0  0  0  0  0  0  0  0  0  0  0
   16.9120   13.6740   36.4169 O   0  0  0  0  0  0  0  0  0  0  0  0
   14.2439   15.6711   34.2515 H   0  0  0  0  0  0  0  0  0  0  0  0
   16.5787   13.6711   32.0829 H   0  0  0  0  0  0  0  0  0  0  0  0
   17.5988   11.2660   36.4706 C   0  0  0  0  0  0  0  0  0  0  0  0
   17.0353    9.9506   36.5324 O   0  0  0  0  0  0  0  0  0  0  0  0
   16.2660    9.9558   37.1232 H   0  0  0  0  0  0  0  0  0  0  0  0
   16.2761   11.0092   33.7559 O   0  0  0  0  0  0  0  0  0  0  0  0
   17.2929   10.3914   32.9218 C   0  0  0  0  0  0  0  0  0  0  0  0
 15 16  2  0  0  0
 15 18  1  0  0  0
 15 24  1  0  0  0
 16 17  1  0  0  0
 18 19  1  0  0  0
 18 20  1  0  0  0
 20 21  1  0  0  0
 20 22  1  0  0  0
 22 14  1  0  0  0
 22 23  1  0  0  0
 14  1  1  0  0  0
 23 24  1  0  0  0
 23 29  1  0  0  0
 29 30  1  0  0  0
  1  2  1  0  0  0
  1  8  1  0  0  0
  2  3  1  0  0  0
  2  6  1  0  0  0
  3  4  1  0  0  0
  3  7  1  0  0  0
  4  5  1  0  0  0
  4 32  1  0  0  0
  5 11  1  0  0  0
  5  8  1  0  0  0
 11 12  1  0  0  0
 32 33  1  0  0  0
 33 34  1  0  0  0
 33 40  1  0  0  0
 34 35  1  0  0  0
 34 38  1  0  0  0
 35 36  1  0  0  0
 35 39  1  0  0  0
 36 37  1  0  0  0
 36 46  1  0  0  0
 37 43  1  0  0  0
 37 40  1  0  0  0
 43 44  1  0  0  0
 46 47  1  0  0  0
 17 25  1  0  0  0
 19 26  1  0  0  0
 21 27  1  0  0  0
 24 28  1  0  0  0
 30 31  1  0  0  0
  6  9  1  0  0  0
  7 10  1  0  0  0
 12 13  1  0  0  0
 38 41  1  0  0  0
 39 42  1  0  0  0
 44 45  1  0  0  0
M  END
> <minimizedAffinity>
-8.17256

$$$$
1U33_LM2_A_500


 47 49  0  0  0  0  0  0  0  0999 V2000
   15.6810   15.3523   36.7524 C   0  0  0  0  0  0  0  0  0  0  0  0
   15.2225   15.4351   35.2190 C   0  0  0  0  0  0  0  0  0  0  0  0
   14.6635   14.0687   34.6768 C   0  0  0  0  0  0  0  0  0  0  0  0
   15.8014   13.0082   34.8382 C   0  0  0  0  0  0  0  0  0  0  0  0
   16.1488   12.9050   36.4656 C   0  0  0  0  0  0  0  0  0  0  0  0
   14.2565   16.5063   35.1040 O   0  0  0  0  0  0  0  0  0  0  0  0
   14.3018   14.2387   33.2839 O   0  0  0  0  0  0  0  0  0  0  0  0
   16.6310   14.2259   36.9329 O   0  0  0  0  0  0  0  0  0  0  0  0
   13.4888   16.3108   35.6637 H   0  0  0  0  0  0  0  0  0  0  0  0
   15.0787   14.5303   32.7815 H   0  0  0  0  0  0  0  0  0  0  0  0
   17.2425   11.9004   36.7694 C   0  0  0  0  0  0  0  0  0  0  0  0
   16.7443   10.6062   36.7346 O   0  0  0  0  0  0  0  0  0  0  0  0
   16.0472   10.5101   37.4023 H   0  0  0  0  0  0  0  0  0  0  0  0
   14.5151   15.2153   37.5523 O   0  0  0  0  0  0  0  0  0  0  0  0
   12.7230   16.3469   40.9195 C   0  0  0  0  0  0  0  0  0  0  0  0
   11.8156   16.4582   41.8777 N   0  0  0  0  0  0  0  0  0  0  0  0
   11.6571   15.4266   42.6914 O   0  0  0  0  0  0  0  0  0  0  0  0
   12.9232   17.5330   39.9571 C   0  0  0  0  0  0  0  0  0  0  0  0
   11.8843   18.3828   39.9846 O   0  0  0  0  0  0  0  0  0  0  0  0
   13.2683   16.9700   38.5334 C   0  0  0  0  0  0  0  0  0  0  0  0
   13.4578   17.9748   37.6873 O   0  0  0  0  0  0  0  0  0  0  0  0
   14.5078   16.0062   38.6164 C   0  0  0  0  0  0  0  0  0  0  0  0
   14.4771   14.9827   39.7072 C   0  0  0  0  0  0  0  0  0  0  0  0
   13.5079   15.1576   40.8053 N   0  0  0  0  0  0  0  0  0  0  0  0
   11.0248   15.4672   43.3818 H   0  0  0  0  0  0  0  0  0  0  0  0
   11.0791   17.9182   39.7077 H   0  0  0  0  0  0  0  0  0  0  0  0
   14.1968   18.5222   37.9957 H   0  0  0  0  0  0  0  0  0  0  0  0
   13.3994   14.4416   41.4723 H   0  0  0  0  0  0  0  0  0  0  0  0
   15.8819   14.9440   40.3898 C   0  0  0  0  0  0  0  0  0  0  0  0
   16.7954   15.6655   39.6644 O   0  0  0  0  0  0  0  0  0  0  0  0
   16.8773   15.2837   38.7765 H   0  0  0  0  0  0  0  0  0  0  0  0
   15.3315   11.7618   34.3527 O   0  0  0  0  0  0  0  0  0  0  0  0
   16.2084   11.2365   33.3006 C   0  0  0  0  0  0  0  0  0  0  0  0
   15.4862   10.9550   31.9218 C   0  0  0  0  0  0  0  0  0  0  0  0
   14.3811    9.8360   32.1584 C   0  0  0  0  0  0  0  0  0  0  0  0
   15.0908    8.5309   32.6407 C   0  0  0  0  0  0  0  0  0  0  0  0
   15.8722    8.8487   34.0437 C   0  0  0  0  0  0  0  0  0  0  0  0
   14.9006   12.1967   31.4821 O   0  0  0  0  0  0  0  0  0  0  0  0
   13.7273    9.5629   30.9448 O   0  0  0  0  0  0  0  0  0  0  0  0
   16.8485    9.9617   33.7945 O   0  0  0  0  0  0  0  0  0  0  0  0
   14.2861   12.5217   32.1586 H   0  0  0  0  0  0  0  0  0  0  0  0
   14.3748    9.2575   30.2903 H   0  0  0  0  0  0  0  0  0  0  0  0
   16.6253    7.5871   34.5590 C   0  0  0  0  0  0  0  0  0  0  0  0
   17.3773    7.8679   35.7453 O   0  0  0  0  0  0  0  0  0  0  0  0
   18.0427    8.5471   35.5531 H   0  0  0  0  0  0  0  0  0  0  0  0
   14.1067    7.4661   32.8777 O   0  0  0  0  0  0  0  0  0  0  0  0
   13.0541    7.8129   33.8174 C   0  0  0  0  0  0  0  0  0  0  0  0
 15 16  2  0  0  0
 15 18  1  0  0  0
 15 24  1  0  0  0
 16 17  1  0  0  0
 18 19  1  0  0  0
 18 20  1  0  0  0
 20 21  1  0  0  0
 20 22  1  0  0  0
 22 14  1  0  0  0
 22 23  1  0  0  0
 14  1  1  0  0  0
 23 24  1  0  0  0
 23 29  1  0  0  0
 29 30  1  0  0  0
  1  2  1  0  0  0
  1  8  1  0  0  0
  2  3  1  0  0  0
  2  6  1  0  0  0
  3  4  1  0  0  0
  3  7  1  0  0  0
  4  5  1  0  0  0
  4 32  1  0  0  0
  5 11  1  0  0  0
  5  8  1  0  0  0
 11 12  1  0  0  0
 32 33  1  0  0  0
 33 34  1  0  0  0
 33 40  1  0  0  0
 34 35  1  0  0  0
 34 38  1  0  0  0
 35 36  1  0  0  0
 35 39  1  0  0  0
 36 37  1  0  0  0
 36 46  1  0  0  0
 37 43  1  0  0  0
 37 40  1  0  0  0
 43 44  1  0  0  0
 46 47  1  0  0  0
 17 25  1  0  0  0
 19 26  1  0  0  0
 21 27  1  0  0  0
 24 28  1  0  0  0
 30 31  1  0  0  0
  6  9  1  0  0  0
  7 10  1  0  0  0
 12 13  1  0  0  0
 38 41  1  0  0  0
 39 42  1  0  0  0
 44 45  1  0  0  0
M  END
> <minimizedAffinity>
-8.10435

$$$$
1U33_LM2_A_500


 47 49  0  0  0  0  0  0  0  0999 V2000
   12.5736   15.3998   39.5802 C   0  0  0  0  0  0  0  0  0  0  0  0
   13.9525   14.6742   39.9548 C   0  0  0  0  0  0  0  0  0  0  0  0
   15.0192   14.7633   38.8025 C   0  0  0  0  0  0  0  0  0  0  0  0
   14.3890   14.0937   37.5377 C   0  0  0  0  0  0  0  0  0  0  0  0
   13.0213   14.9654   37.1510 C   0  0  0  0  0  0  0  0  0  0  0  0
   14.4332   15.2507   41.1919 O   0  0  0  0  0  0  0  0  0  0  0  0
   16.2140   14.0604   39.2250 O   0  0  0  0  0  0  0  0  0  0  0  0
   12.0693   14.8823   38.2834 O   0  0  0  0  0  0  0  0  0  0  0  0
   14.5878   16.2002   41.0675 H   0  0  0  0  0  0  0  0  0  0  0  0
   15.9908   13.1397   39.4333 H   0  0  0  0  0  0  0  0  0  0  0  0
   12.3062   14.4234   35.9293 C   0  0  0  0  0  0  0  0  0  0  0  0
   12.8945   14.8965   34.7655 O   0  0  0  0  0  0  0  0  0  0  0  0
   12.8404   15.8648   34.7464 H   0  0  0  0  0  0  0  0  0  0  0  0
   12.8079   16.8008   39.5538 O   0  0  0  0  0  0  0  0  0  0  0  0
    9.7219   16.9782   42.0587 C   0  0  0  0  0  0  0  0  0  0  0  0
    8.7799   16.6062   42.9122 N   0  0  0  0  0  0  0  0  0  0  0  0
    9.1583   16.2944   44.1414 O   0  0  0  0  0  0  0  0  0  0  0  0
    9.3069   17.3423   40.6206 C   0  0  0  0  0  0  0  0  0  0  0  0
    8.0873   16.8714   40.3155 O   0  0  0  0  0  0  0  0  0  0  0  0
   10.4456   16.8883   39.6406 C   0  0  0  0  0  0  0  0  0  0  0  0
   10.1164   17.2026   38.3939 O   0  0  0  0  0  0  0  0  0  0  0  0
   11.8205   17.5122   40.0796 C   0  0  0  0  0  0  0  0  0  0  0  0
   12.1609   17.4048   41.5326 C   0  0  0  0  0  0  0  0  0  0  0  0
   11.0855   17.0579   42.4806 N   0  0  0  0  0  0  0  0  0  0  0  0
    8.5211   16.0265   44.7740 H   0  0  0  0  0  0  0  0  0  0  0  0
    8.0889   15.9035   40.3800 H   0  0  0  0  0  0  0  0  0  0  0  0
   10.0047   18.1635   38.3214 H   0  0  0  0  0  0  0  0  0  0  0  0
   11.3110   16.8779   43.4219 H   0  0  0  0  0  0  0  0  0  0  0  0
   12.7164   18.7833   42.0143 C   0  0  0  0  0  0  0  0  0  0  0  0
   12.0186   19.2346   43.1055 O   0  0  0  0  0  0  0  0  0  0  0  0
   11.0851   19.3483   42.8678 H   0  0  0  0  0  0  0  0  0  0  0  0
   15.3289   14.1522   36.4780 O   0  0  0  0  0  0  0  0  0  0  0  0
   15.5281   12.8318   35.8707 C   0  0  0  0  0  0  0  0  0  0  0  0
   16.9931   12.2540   36.0180 C   0  0  0  0  0  0  0  0  0  0  0  0
   17.9920   13.2312   35.2586 C   0  0  0  0  0  0  0  0  0  0  0  0
   17.6032   13.2619   33.7462 C   0  0  0  0  0  0  0  0  0  0  0  0
   16.0692   13.8177   33.6119 C   0  0  0  0  0  0  0  0  0  0  0  0
   17.2871   12.1827   37.4275 O   0  0  0  0  0  0  0  0  0  0  0  0
   19.3026   12.7363   35.3698 O   0  0  0  0  0  0  0  0  0  0  0  0
   15.1720   12.9130   34.4059 O   0  0  0  0  0  0  0  0  0  0  0  0
   17.1993   13.0649   37.8211 H   0  0  0  0  0  0  0  0  0  0  0  0
   19.3469   11.8484   34.9818 H   0  0  0  0  0  0  0  0  0  0  0  0
   15.6150   13.8425   32.1228 C   0  0  0  0  0  0  0  0  0  0  0  0
   16.2501   12.8107   31.3590 O   0  0  0  0  0  0  0  0  0  0  0  0
   17.2110   12.9426   31.3734 H   0  0  0  0  0  0  0  0  0  0  0  0
   18.4982   14.1582   33.0017 O   0  0  0  0  0  0  0  0  0  0  0  0
   19.4826   13.4808   32.1751 C   0  0  0  0  0  0  0  0  0  0  0  0
 15 16  2  0  0  0
 15 18  1  0  0  0
 15 24  1  0  0  0
 16 17  1  0  0  0
 18 19  1  0  0  0
 18 20  1  0  0  0
 20 21  1  0  0  0
 20 22  1  0  0  0
 22 14  1  0  0  0
 22 23  1  0  0  0
 14  1  1  0  0  0
 23 24  1  0  0  0
 23 29  1  0  0  0
 29 30  1  0  0  0
  1  2  1  0  0  0
  1  8  1  0  0  0
  2  3  1  0  0  0
  2  6  1  0  0  0
  3  4  1  0  0  0
  3  7  1  0  0  0
  4  5  1  0  0  0
  4 32  1  0  0  0
  5 11  1  0  0  0
  5  8  1  0  0  0
 11 12  1  0  0  0
 32 33  1  0  0  0
 33 34  1  0  0  0
 33 40  1  0  0  0
 34 35  1  0  0  0
 34 38  1  0  0  0
 35 36  1  0  0  0
 35 39  1  0  0  0
 36 37  1  0  0  0
 36 46  1  0  0  0
 37 43  1  0  0  0
 37 40  1  0  0  0
 43 44  1  0  0  0
 46 47  1  0  0  0
 17 25  1  0  0  0
 19 26  1  0  0  0
 21 27  1  0  0  0
 24 28  1  0  0  0
 30 31  1  0  0  0
  6  9  1  0  0  0
  7 10  1  0  0  0
 12 13  1  0  0  0
 38 41  1  0  0  0
 39 42  1  0  0  0
 44 45  1  0  0  0
M  END
> <minimizedAffinity>
-8.03364

$$$$
1U33_LM2_A_500


 47 49  0  0  0  0  0  0  0  0999 V2000
   14.1469   15.9653   37.4357 C   0  0  0  0  0  0  0  0  0  0  0  0
   14.7618   16.0857   38.9107 C   0  0  0  0  0  0  0  0  0  0  0  0
   13.7461   15.6514   40.0303 C   0  0  0  0  0  0  0  0  0  0  0  0
   12.4906   16.5742   39.8973 C   0  0  0  0  0  0  0  0  0  0  0  0
   11.8499   16.3153   38.3799 C   0  0  0  0  0  0  0  0  0  0  0  0
   15.9813   15.3077   38.9459 O   0  0  0  0  0  0  0  0  0  0  0  0
   14.3832   15.8193   41.3210 O   0  0  0  0  0  0  0  0  0  0  0  0
   12.8594   16.7010   37.3661 O   0  0  0  0  0  0  0  0  0  0  0  0
   15.7781   14.3792   38.7522 H   0  0  0  0  0  0  0  0  0  0  0  0
   14.6579   16.7434   41.4282 H   0  0  0  0  0  0  0  0  0  0  0  0
   10.6132   17.1509   38.1151 C   0  0  0  0  0  0  0  0  0  0  0  0
   10.7474   18.4160   38.6681 O   0  0  0  0  0  0  0  0  0  0  0  0
   10.8638   18.3386   39.6280 H   0  0  0  0  0  0  0  0  0  0  0  0
   14.0029   14.5851   37.1316 O   0  0  0  0  0  0  0  0  0  0  0  0
   14.2934   15.9048   33.3895 C   0  0  0  0  0  0  0  0  0  0  0  0
   14.2671   16.7164   32.3432 N   0  0  0  0  0  0  0  0  0  0  0  0
   15.2398   17.6074   32.2369 O   0  0  0  0  0  0  0  0  0  0  0  0
   13.1697   14.8615   33.5374 C   0  0  0  0  0  0  0  0  0  0  0  0
   12.1019   15.1631   32.7816 O   0  0  0  0  0  0  0  0  0  0  0  0
   12.8570   14.6755   35.0641 C   0  0  0  0  0  0  0  0  0  0  0  0
   11.8985   13.7706   35.2187 O   0  0  0  0  0  0  0  0  0  0  0  0
   14.1701   14.3065   35.8463 C   0  0  0  0  0  0  0  0  0  0  0  0
   15.3741   15.1432   35.5481 C   0  0  0  0  0  0  0  0  0  0  0  0
   15.3576   15.9897   34.3403 N   0  0  0  0  0  0  0  0  0  0  0  0
   15.2558   18.1992   31.5106 H   0  0  0  0  0  0  0  0  0  0  0  0
   11.7405   16.0192   33.0595 H   0  0  0  0  0  0  0  0  0  0  0  0
   12.1930   12.9218   34.8531 H   0  0  0  0  0  0  0  0  0  0  0  0
   16.0934   16.6253   34.1860 H   0  0  0  0  0  0  0  0  0  0  0  0
   16.6057   14.1967   35.3802 C   0  0  0  0  0  0  0  0  0  0  0  0
   17.0655   13.7750   36.6017 O   0  0  0  0  0  0  0  0  0  0  0  0
   17.3406   14.5431   37.1263 H   0  0  0  0  0  0  0  0  0  0  0  0
   11.5540   16.2121   40.8981 O   0  0  0  0  0  0  0  0  0  0  0  0
   11.1674   17.3720   41.7088 C   0  0  0  0  0  0  0  0  0  0  0  0
   11.1826   17.1180   43.2699 C   0  0  0  0  0  0  0  0  0  0  0  0
   10.1139   15.9874   43.6004 C   0  0  0  0  0  0  0  0  0  0  0  0
    8.7005   16.5013   43.1788 C   0  0  0  0  0  0  0  0  0  0  0  0
    8.7128   16.8042   41.5700 C   0  0  0  0  0  0  0  0  0  0  0  0
   12.5181   16.7081   43.6256 O   0  0  0  0  0  0  0  0  0  0  0  0
   10.1035   15.7465   44.9849 O   0  0  0  0  0  0  0  0  0  0  0  0
    9.7863   17.8164   41.2920 O   0  0  0  0  0  0  0  0  0  0  0  0
   12.7574   15.9142   43.1224 H   0  0  0  0  0  0  0  0  0  0  0  0
    9.8774   16.5650   45.4538 H   0  0  0  0  0  0  0  0  0  0  0  0
    7.3334   17.3492   41.0960 C   0  0  0  0  0  0  0  0  0  0  0  0
    7.0130   16.8995   39.7744 O   0  0  0  0  0  0  0  0  0  0  0  0
    7.6837   17.2213   39.1519 H   0  0  0  0  0  0  0  0  0  0  0  0
    7.6770   15.4859   43.4614 O   0  0  0  0  0  0  0  0  0  0  0  0
    7.5606   14.4466   42.4527 C   0  0  0  0  0  0  0  0  0  0  0  0
 15 16  2  0  0  0
 15 18  1  0  0  0
 15 24  1  0  0  0
 16 17  1  0  0  0
 18 19  1  0  0  0
 18 20  1  0  0  0
 20 21  1  0  0  0
 20 22  1  0  0  0
 22 14  1  0  0  0
 22 23  1  0  0  0
 14  1  1  0  0  0
 23 24  1  0  0  0
 23 29  1  0  0  0
 29 30  1  0  0  0
  1  2  1  0  0  0
  1  8  1  0  0  0
  2  3  1  0  0  0
  2  6  1  0  0  0
  3  4  1  0  0  0
  3  7  1  0  0  0
  4  5  1  0  0  0
  4 32  1  0  0  0
  5 11  1  0  0  0
  5  8  1  0  0  0
 11 12  1  0  0  0
 32 33  1  0  0  0
 33 34  1  0  0  0
 33 40  1  0  0  0
 34 35  1  0  0  0
 34 38  1  0  0  0
 35 36  1  0  0  0
 35 39  1  0  0  0
 36 37  1  0  0  0
 36 46  1  0  0  0
 37 43  1  0  0  0
 37 40  1  0  0  0
 43 44  1  0  0  0
 46 47  1  0  0  0
 17 25  1  0  0  0
 19 26  1  0  0  0
 21 27  1  0  0  0
 24 28  1  0  0  0
 30 31  1  0  0  0
  6  9  1  0  0  0
  7 10  1  0  0  0
 12 13  1  0  0  0
 38 41  1  0  0  0
 39 42  1  0  0  0
 44 45  1  0  0  0
M  END
> <minimizedAffinity>
-7.75042

$$$$
1U33_LM2_A_500


 47 49  0  0  0  0  0  0  0  0999 V2000
   13.3805   16.5870   37.4304 C   0  0  0  0  0  0  0  0  0  0  0  0
   12.4011   16.2913   36.1968 C   0  0  0  0  0  0  0  0  0  0  0  0
   12.3294   14.7636   35.8300 C   0  0  0  0  0  0  0  0  0  0  0  0
   13.7829   14.3043   35.4808 C   0  0  0  0  0  0  0  0  0  0  0  0
   14.7143   14.5460   36.8425 C   0  0  0  0  0  0  0  0  0  0  0  0
   11.1017   16.8376   36.5236 O   0  0  0  0  0  0  0  0  0  0  0  0
   11.4441   14.6034   34.6940 O   0  0  0  0  0  0  0  0  0  0  0  0
   14.7147   15.9918   37.1670 O   0  0  0  0  0  0  0  0  0  0  0  0
   10.7604   16.4048   37.3218 H   0  0  0  0  0  0  0  0  0  0  0  0
   11.7726   15.1332   33.9508 H   0  0  0  0  0  0  0  0  0  0  0  0
   16.1599   14.1350   36.6448 C   0  0  0  0  0  0  0  0  0  0  0  0
   16.5601   14.3604   35.3359 O   0  0  0  0  0  0  0  0  0  0  0  0
   16.0086   13.8361   34.7344 H   0  0  0  0  0  0  0  0  0  0  0  0
   12.7748   16.0678   38.6059 O   0  0  0  0  0  0  0  0  0  0  0  0
   12.5795   16.3540   42.5695 C   0  0  0  0  0  0  0  0  0  0  0  0
   12.1473   16.2190   43.8140 N   0  0  0  0  0  0  0  0  0  0  0  0
   12.2621   15.0254   44.3742 O   0  0  0  0  0  0  0  0  0  0  0  0
   12.4531   17.7328   41.8942 C   0  0  0  0  0  0  0  0  0  0  0  0
   11.5742   18.5243   42.5295 O   0  0  0  0  0  0  0  0  0  0  0  0
   12.1535   17.5178   40.3687 C   0  0  0  0  0  0  0  0  0  0  0  0
   12.0520   18.6934   39.7613 O   0  0  0  0  0  0  0  0  0  0  0  0
   13.2523   16.5959   39.7243 C   0  0  0  0  0  0  0  0  0  0  0  0
   13.5963   15.3510   40.4795 C   0  0  0  0  0  0  0  0  0  0  0  0
   13.1686   15.2444   41.8871 N   0  0  0  0  0  0  0  0  0  0  0  0
   11.9676   14.8902   45.2534 H   0  0  0  0  0  0  0  0  0  0  0  0
   10.6964   18.1119   42.5122 H   0  0  0  0  0  0  0  0  0  0  0  0
   12.8878   19.1773   39.8517 H   0  0  0  0  0  0  0  0  0  0  0  0
   13.2911   14.3929   42.3659 H   0  0  0  0  0  0  0  0  0  0  0  0
   15.1510   15.1984   40.5008 C   0  0  0  0  0  0  0  0  0  0  0  0
   15.7553   16.2947   39.9403 O   0  0  0  0  0  0  0  0  0  0  0  0
   15.4704   16.3844   39.0174 H   0  0  0  0  0  0  0  0  0  0  0  0
   13.7538   12.9287   35.1392 O   0  0  0  0  0  0  0  0  0  0  0  0
   14.0201   12.7301   33.7104 C   0  0  0  0  0  0  0  0  0  0  0  0
   13.0851   11.6646   33.0086 C   0  0  0  0  0  0  0  0  0  0  0  0
   13.3394   10.2519   33.6935 C   0  0  0  0  0  0  0  0  0  0  0  0
   14.8321    9.8515   33.4671 C   0  0  0  0  0  0  0  0  0  0  0  0
   15.7884   10.9865   34.1579 C   0  0  0  0  0  0  0  0  0  0  0  0
   11.7239   12.1046   33.1860 O   0  0  0  0  0  0  0  0  0  0  0  0
   12.5231    9.2845   33.0830 O   0  0  0  0  0  0  0  0  0  0  0  0
   15.4612   12.3146   33.5388 O   0  0  0  0  0  0  0  0  0  0  0  0
   11.5333   12.1928   34.1330 H   0  0  0  0  0  0  0  0  0  0  0  0
   12.7303    9.2373   32.1365 H   0  0  0  0  0  0  0  0  0  0  0  0
   17.2936   10.6544   33.9380 C   0  0  0  0  0  0  0  0  0  0  0  0
   17.7616    9.6766   34.8742 O   0  0  0  0  0  0  0  0  0  0  0  0
   17.6673   10.0213   35.7760 H   0  0  0  0  0  0  0  0  0  0  0  0
   15.1170    8.5508   34.0880 O   0  0  0  0  0  0  0  0  0  0  0  0
   15.5094    7.5079   33.1556 C   0  0  0  0  0  0  0  0  0  0  0  0
 15 16  2  0  0  0
 15 18  1  0  0  0
 15 24  1  0  0  0
 16 17  1  0  0  0
 18 19  1  0  0  0
 18 20  1  0  0  0
 20 21  1  0  0  0
 20 22  1  0  0  0
 22 14  1  0  0  0
 22 23  1  0  0  0
 14  1  1  0  0  0
 23 24  1  0  0  0
 23 29  1  0  0  0
 29 30  1  0  0  0
  1  2  1  0  0  0
  1  8  1  0  0  0
  2  3  1  0  0  0
  2  6  1  0  0  0
  3  4  1  0  0  0
  3  7  1  0  0  0
  4  5  1  0  0  0
  4 32  1  0  0  0
  5 11  1  0  0  0
  5  8  1  0  0  0
 11 12  1  0  0  0
 32 33  1  0  0  0
 33 34  1  0  0  0
 33 40  1  0  0  0
 34 35  1  0  0  0
 34 38  1  0  0  0
 35 36  1  0  0  0
 35 39  1  0  0  0
 36 37  1  0  0  0
 36 46  1  0  0  0
 37 43  1  0  0  0
 37 40  1  0  0  0
 43 44  1  0  0  0
 46 47  1  0  0  0
 17 25  1  0  0  0
 19 26  1  0  0  0
 21 27  1  0  0  0
 24 28  1  0  0  0
 30 31  1  0  0  0
  6  9  1  0  0  0
  7 10  1  0  0  0
 12 13  1  0  0  0
 38 41  1  0  0  0
 39 42  1  0  0  0
 44 45  1  0  0  0
M  END
> <minimizedAffinity>
-7.64139

$$$$
