6G3Q_FO9_A_302
  RCSB PDB12081803553D
Coordinates from PDB:6G3Q:A:302 Model:1 without hydrogens
 20 20  0  0  0  0            999 V2000
   -4.3010    3.2640   13.7350   C 0  0  0  0  0  0  0  0  0  0  0  0
   -4.8060    4.6800   13.9410   C 0  0  0  0  0  0  0  0  0  0  0  0
   -2.7620   11.0070   11.9180   N 0  0  0  0  0  0  0  0  0  0  0  0
   -4.9590    1.2780   17.7160   O 0  0  0  0  0  0  0  0  0  0  0  0
   -5.8750    0.8800   16.6790   S 0  0  0  0  0  0  0  0  0  0  0  0
   -7.3020    0.8360   16.8530   O 0  0  0  0  0  0  0  0  0  0  0  0
   -5.3060   -0.4980   16.0610   N 0  0  0  0  0  0  0  0  0  0  0  0
   -5.7080    2.0210   15.4650   N 0  0  0  0  0  0  0  0  0  0  0  0
   -4.4890    2.3910   14.9300   C 0  0  0  0  0  0  0  0  0  0  0  0
   -3.3980    1.9240   15.5460   N 0  0  0  0  0  0  0  0  0  0  0  0
   -3.5580    5.8530   14.5680   S 0  0  0  0  0  0  0  0  0  0  0  0
   -2.5920    6.2790   13.0900   C 0  0  0  0  0  0  0  0  0  0  0  0
   -1.5480    7.3130   13.3440   C 0  0  0  0  0  0  0  0  0  0  0  0
   -1.7520    8.2210   14.3690   N 0  0  0  0  0  0  0  0  0  0  0  0
   -0.7090    9.0390   14.4470   C 0  0  0  0  0  0  0  0  0  0  0  0
    0.5430    8.7600   13.3100   S 0  0  0  0  0  0  0  0  0  0  0  0
   -0.3820    7.4540   12.6750   C 0  0  0  0  0  0  0  0  0  0  0  0
   -1.6120   10.4390   13.8730   N 0  0  0  0  0  0  0  0  0  0  0  0
   -2.0900   11.3600   12.9920   C 0  0  0  0  0  0  0  0  0  0  0  0
   -1.8710   12.6270   13.2580   N 0  0  0  0  0  0  0  0  0  0  0  0
  1  2  1  0  0  0  0
  1  9  1  0  0  0  0
  2 11  1  0  0  0  0
  3 19  1  0  0  0  0
  4  5  2  0  0  0  0
  5  6  2  0  0  0  0
  5  7  1  0  0  0  0
  5  8  1  0  0  0  0
  8  9  2  0  0  0  0
  9 10  1  0  0  0  0
 11 12  1  0  0  0  0
 12 13  1  0  0  0  0
 13 14  2  0  0  0  0
 13 17  1  0  0  0  0
 14 15  1  0  0  0  0
 15 16  2  0  0  0  0
 16 17  1  0  0  0  0
 18 19  2  0  0  0  0
 19 20  1  0  0  0  0
 15 18  1  0  0  0  0
A    1
C1
A    2
C2
A    3
N2
A    4
O1
A    5
S2
A    6
O
A    7
N6
A    8
N5
A    9
C
A   10
N
A   11
S
A   12
C3
A   13
C4
A   14
N4
A   15
C6
A   16
S1
A   17
C5
A   18
N1
A   19
C7
A   20
N3
M  END
>  <InstanceId>
6G3Q_FO9_A_302

>  <ChemCompId>
FO9

>  <PdbId>
6G3Q

>  <ChainId>
A

>  <ResidueNumber>
302

>  <InsertionCode>


>  <Model>
1

>  <AltIds>


>  <MissingHeavyAtoms>
0

>  <ObservedFormula>
C8 N7 O2 S3

>  <Name>
famotidine

>  <SystematicName>
3-[[2-[bis(azanyl)methylideneamino]-5~{H}-1,3-thiazol-4-yl]methylsulfanyl]-~{N}'-sulfamoyl-propanimidamide

>  <Synonyms>


>  <Type>
NON-POLYMER

>  <Formula>
C8 H17 N7 O2 S3

>  <MolecularWeight>
339.461

>  <ModifiedDate>
2018-11-23

>  <Parent>


>  <OneLetterCode>


>  <SubcomponentList>


>  <AmbiguousFlag>
N

>  <InChI>
InChI=1S/C8H17N7O2S3/c9-6(15-20(12,16)17)1-2-18-3-5-4-19-8(13-5)14-7(10)11/h19H,1-4H2,(H2,9,15)(H4,10,11,14)(H2,12,16,17)

>  <InChIKey>
YFGRAZUYIUBWJO-UHFFFAOYSA-N

>  <SMILES>
C1C(=NC(=S1)N=C(N)N)CSCC/C(=N/S(=O)(=O)N)/N

$$$$
