6G3Q_FO9_A_302


 29 29  0  0  0  0  0  0  0  0999 V2000
   -1.1778    1.7100   10.7529 C   0  0  0  0  0  0  0  0  0  0  0  0
   -2.3620    0.9311   11.2161 C   0  0  0  0  0  0  0  0  0  0  0  0
   -3.4555    1.6215   11.7106 N   0  0  0  0  0  0  0  0  0  0  0  0
   -4.4057    0.7578   12.0485 C   0  0  0  0  0  0  0  0  0  0  0  0
   -4.0342   -0.8959   11.7932 S   0  0  0  0  0  0  0  0  0  0  0  0
   -2.4958   -0.4137   11.1890 C   0  0  0  0  0  0  0  0  0  0  0  0
   -4.8279   -1.5156   10.8791 H   0  0  0  0  0  0  0  0  0  0  0  0
   -4.3072   -0.2426   15.7191 N   0  0  0  0  0  0  0  0  0  0  0  0
   -4.2292    1.0560   13.7762 N   0  0  0  0  0  0  0  0  0  0  0  0
   -4.4503    0.9152   15.1119 C   0  0  0  0  0  0  0  0  0  0  0  0
   -4.7997    1.9861   15.7867 N   0  0  0  0  0  0  0  0  0  0  0  0
   -4.0449   -1.0395   15.2039 H   0  0  0  0  0  0  0  0  0  0  0  0
   -4.4623   -0.3124   16.6888 H   0  0  0  0  0  0  0  0  0  0  0  0
   -4.9684    1.9247   16.7547 H   0  0  0  0  0  0  0  0  0  0  0  0
   -4.8929    2.8504   15.3246 H   0  0  0  0  0  0  0  0  0  0  0  0
   -1.5238    3.4783   10.5241 S   0  0  0  0  0  0  0  0  0  0  0  0
   -0.6363    4.2711   11.9063 C   0  0  0  0  0  0  0  0  0  0  0  0
   -1.3673    5.4367   12.5462 C   0  0  0  0  0  0  0  0  0  0  0  0
   -3.8379    5.7527   13.1061 N   0  0  0  0  0  0  0  0  0  0  0  0
   -2.6547    5.0441   13.1895 C   0  0  0  0  0  0  0  0  0  0  0  0
   -2.6799    3.9191   13.9116 N   0  0  0  0  0  0  0  0  0  0  0  0
   -1.8645    3.3753   14.0043 H   0  0  0  0  0  0  0  0  0  0  0  0
   -3.5139    3.6345   14.3507 H   0  0  0  0  0  0  0  0  0  0  0  0
   -5.1511    5.0583   15.0995 O   0  0  0  0  0  0  0  0  0  0  0  0
   -5.3030    5.1726   13.6723 S   0  0  0  0  0  0  0  0  0  0  0  0
   -6.2403    6.0626   13.0416 O   0  0  0  0  0  0  0  0  0  0  0  0
   -5.4266    3.6698   13.0971 N   0  0  0  0  0  0  0  0  0  0  0  0
   -6.3057    3.2574   13.4093 H   0  0  0  0  0  0  0  0  0  0  0  0
   -4.6469    3.1090   13.4407 H   0  0  0  0  0  0  0  0  0  0  0  0
 18 17  1  0  0  0
 18 20  1  0  0  0
 17 16  1  0  0  0
  8 10  1  0  0  0
 24 25  2  0  0  0
 25 26  2  0  0  0
 25 27  1  0  0  0
 25 19  1  0  0  0
 19 20  2  0  0  0
 20 21  1  0  0  0
 16  1  1  0  0  0
  1  2  1  0  0  0
  2  3  2  0  0  0
  2  6  1  0  0  0
  3  4  1  0  0  0
  4  5  2  0  0  0
  5  6  1  0  0  0
  9 10  2  0  0  0
 10 11  1  0  0  0
  4  9  1  0  0  0
  8 12  1  0  0  0
  8 13  1  0  0  0
 27 28  1  0  0  0
 27 29  1  0  0  0
 21 22  1  0  0  0
 21 23  1  0  0  0
  5  7  1  0  0  0
 11 14  1  0  0  0
 11 15  1  0  0  0
M  END
> <minimizedAffinity>
-6.14261

$$$$
6G3Q_FO9_A_302


 29 29  0  0  0  0  0  0  0  0999 V2000
   -1.5656    1.0720   11.2557 C   0  0  0  0  0  0  0  0  0  0  0  0
   -1.6995    2.5571   11.2406 C   0  0  0  0  0  0  0  0  0  0  0  0
   -1.6255    3.2401   12.4426 N   0  0  0  0  0  0  0  0  0  0  0  0
   -1.7459    4.5430   12.2171 C   0  0  0  0  0  0  0  0  0  0  0  0
   -1.9517    4.9993   10.5778 S   0  0  0  0  0  0  0  0  0  0  0  0
   -1.8725    3.3339   10.1481 C   0  0  0  0  0  0  0  0  0  0  0  0
   -0.9413    5.7580   10.0746 H   0  0  0  0  0  0  0  0  0  0  0  0
   -5.2177    6.0125   12.7381 N   0  0  0  0  0  0  0  0  0  0  0  0
   -3.3328    4.6494   12.9757 N   0  0  0  0  0  0  0  0  0  0  0  0
   -4.4591    5.2293   13.4736 C   0  0  0  0  0  0  0  0  0  0  0  0
   -4.7778    4.9678   14.7202 N   0  0  0  0  0  0  0  0  0  0  0  0
   -4.9698    6.2023   11.8044 H   0  0  0  0  0  0  0  0  0  0  0  0
   -6.0333    6.4089   13.1212 H   0  0  0  0  0  0  0  0  0  0  0  0
   -5.5851    5.3684   15.1164 H   0  0  0  0  0  0  0  0  0  0  0  0
   -4.2093    4.3710   15.2588 H   0  0  0  0  0  0  0  0  0  0  0  0
   -2.8392    0.2244   10.2767 S   0  0  0  0  0  0  0  0  0  0  0  0
   -4.3121    0.2782   11.3510 C   0  0  0  0  0  0  0  0  0  0  0  0
   -4.1659   -0.4607   12.6682 C   0  0  0  0  0  0  0  0  0  0  0  0
   -4.6776   -0.0025   15.1270 N   0  0  0  0  0  0  0  0  0  0  0  0
   -4.3244    0.4219   13.8604 C   0  0  0  0  0  0  0  0  0  0  0  0
   -4.1143    1.7332   13.7050 N   0  0  0  0  0  0  0  0  0  0  0  0
   -3.8604    2.0899   12.8232 H   0  0  0  0  0  0  0  0  0  0  0  0
   -4.2136    2.3420   14.4723 H   0  0  0  0  0  0  0  0  0  0  0  0
   -5.2290    0.2175   17.5411 O   0  0  0  0  0  0  0  0  0  0  0  0
   -4.6458    0.9900   16.4752 S   0  0  0  0  0  0  0  0  0  0  0  0
   -3.2816    1.4456   16.4783 O   0  0  0  0  0  0  0  0  0  0  0  0
   -5.6757    2.1906   16.1550 N   0  0  0  0  0  0  0  0  0  0  0  0
   -5.7022    2.8355   16.9448 H   0  0  0  0  0  0  0  0  0  0  0  0
   -6.6075    1.8064   15.9982 H   0  0  0  0  0  0  0  0  0  0  0  0
 18 17  1  0  0  0
 18 20  1  0  0  0
 17 16  1  0  0  0
  8 10  1  0  0  0
 24 25  2  0  0  0
 25 26  2  0  0  0
 25 27  1  0  0  0
 25 19  1  0  0  0
 19 20  2  0  0  0
 20 21  1  0  0  0
 16  1  1  0  0  0
  1  2  1  0  0  0
  2  3  2  0  0  0
  2  6  1  0  0  0
  3  4  1  0  0  0
  4  5  2  0  0  0
  5  6  1  0  0  0
  9 10  2  0  0  0
 10 11  1  0  0  0
  4  9  1  0  0  0
  8 12  1  0  0  0
  8 13  1  0  0  0
 27 28  1  0  0  0
 27 29  1  0  0  0
 21 22  1  0  0  0
 21 23  1  0  0  0
  5  7  1  0  0  0
 11 14  1  0  0  0
 11 15  1  0  0  0
M  END
> <minimizedAffinity>
-6.13767

$$$$
6G3Q_FO9_A_302


 29 29  0  0  0  0  0  0  0  0999 V2000
   -3.0515    6.0993   11.0354 C   0  0  0  0  0  0  0  0  0  0  0  0
   -2.2616    4.8347   11.0164 C   0  0  0  0  0  0  0  0  0  0  0  0
   -2.6285    3.8389   10.1273 N   0  0  0  0  0  0  0  0  0  0  0  0
   -1.7970    2.8110   10.2494 C   0  0  0  0  0  0  0  0  0  0  0  0
   -0.5576    2.9905   11.4198 S   0  0  0  0  0  0  0  0  0  0  0  0
   -1.1840    4.5528   11.7822 C   0  0  0  0  0  0  0  0  0  0  0  0
    0.7024    2.9952   10.9078 H   0  0  0  0  0  0  0  0  0  0  0  0
   -3.7205   -0.4503   10.6335 N   0  0  0  0  0  0  0  0  0  0  0  0
   -3.0157    1.7551   10.9598 N   0  0  0  0  0  0  0  0  0  0  0  0
   -3.9668    0.7831   11.0178 C   0  0  0  0  0  0  0  0  0  0  0  0
   -5.1468    1.1141   11.4892 N   0  0  0  0  0  0  0  0  0  0  0  0
   -2.8324   -0.6881   10.2815 H   0  0  0  0  0  0  0  0  0  0  0  0
   -4.4242   -1.1358   10.6978 H   0  0  0  0  0  0  0  0  0  0  0  0
   -5.8609    0.4389   11.5469 H   0  0  0  0  0  0  0  0  0  0  0  0
   -5.3173    2.0375   11.7849 H   0  0  0  0  0  0  0  0  0  0  0  0
   -4.7302    5.8897   11.6966 S   0  0  0  0  0  0  0  0  0  0  0  0
   -4.4539    5.5455   13.4663 C   0  0  0  0  0  0  0  0  0  0  0  0
   -5.3960    4.5202   14.0694 C   0  0  0  0  0  0  0  0  0  0  0  0
   -5.2102    2.3409   15.3861 N   0  0  0  0  0  0  0  0  0  0  0  0
   -4.7104    3.2625   14.4861 C   0  0  0  0  0  0  0  0  0  0  0  0
   -3.5125    2.9937   13.9565 N   0  0  0  0  0  0  0  0  0  0  0  0
   -3.1092    3.6167   13.3096 H   0  0  0  0  0  0  0  0  0  0  0  0
   -3.0337    2.1727   14.2135 H   0  0  0  0  0  0  0  0  0  0  0  0
   -4.4838    0.1797   14.3954 O   0  0  0  0  0  0  0  0  0  0  0  0
   -4.5026    0.8501   15.6694 S   0  0  0  0  0  0  0  0  0  0  0  0
   -3.3144    1.2162   16.3924 O   0  0  0  0  0  0  0  0  0  0  0  0
   -5.5448    0.0449   16.6021 N   0  0  0  0  0  0  0  0  0  0  0  0
   -5.1689   -0.8797   16.8123 H   0  0  0  0  0  0  0  0  0  0  0  0
   -6.4341   -0.0529   16.1122 H   0  0  0  0  0  0  0  0  0  0  0  0
 18 17  1  0  0  0
 18 20  1  0  0  0
 17 16  1  0  0  0
  8 10  1  0  0  0
 24 25  2  0  0  0
 25 26  2  0  0  0
 25 27  1  0  0  0
 25 19  1  0  0  0
 19 20  2  0  0  0
 20 21  1  0  0  0
 16  1  1  0  0  0
  1  2  1  0  0  0
  2  3  2  0  0  0
  2  6  1  0  0  0
  3  4  1  0  0  0
  4  5  2  0  0  0
  5  6  1  0  0  0
  9 10  2  0  0  0
 10 11  1  0  0  0
  4  9  1  0  0  0
  8 12  1  0  0  0
  8 13  1  0  0  0
 27 28  1  0  0  0
 27 29  1  0  0  0
 21 22  1  0  0  0
 21 23  1  0  0  0
  5  7  1  0  0  0
 11 14  1  0  0  0
 11 15  1  0  0  0
M  END
> <minimizedAffinity>
-6.12402

$$$$
6G3Q_FO9_A_302


 29 29  0  0  0  0  0  0  0  0999 V2000
   -4.1035    0.4902   13.3401 C   0  0  0  0  0  0  0  0  0  0  0  0
   -4.8128    1.6286   13.9918 C   0  0  0  0  0  0  0  0  0  0  0  0
   -5.2836    2.6580   13.1947 N   0  0  0  0  0  0  0  0  0  0  0  0
   -5.8978    3.5575   13.9540 C   0  0  0  0  0  0  0  0  0  0  0  0
   -5.9357    3.2139   15.6329 S   0  0  0  0  0  0  0  0  0  0  0  0
   -5.0694    1.7609   15.3123 C   0  0  0  0  0  0  0  0  0  0  0  0
   -7.1834    3.0240   16.1396 H   0  0  0  0  0  0  0  0  0  0  0  0
   -3.5848    6.3705   15.0587 N   0  0  0  0  0  0  0  0  0  0  0  0
   -4.6550    4.7837   13.7157 N   0  0  0  0  0  0  0  0  0  0  0  0
   -3.9970    5.9642   13.8778 C   0  0  0  0  0  0  0  0  0  0  0  0
   -3.7696    6.6860   12.8048 N   0  0  0  0  0  0  0  0  0  0  0  0
   -3.7604    5.8218   15.8570 H   0  0  0  0  0  0  0  0  0  0  0  0
   -3.1006    7.2234   15.1444 H   0  0  0  0  0  0  0  0  0  0  0  0
   -3.2965    7.5460   12.8812 H   0  0  0  0  0  0  0  0  0  0  0  0
   -4.0723    6.3673   11.9239 H   0  0  0  0  0  0  0  0  0  0  0  0
   -4.3073    0.4533   11.5356 S   0  0  0  0  0  0  0  0  0  0  0  0
   -2.6193    0.1396   10.9200 C   0  0  0  0  0  0  0  0  0  0  0  0
   -1.6106    1.2243   11.2492 C   0  0  0  0  0  0  0  0  0  0  0  0
   -2.5237    3.1756    9.8795 N   0  0  0  0  0  0  0  0  0  0  0  0
   -2.1522    2.6041   11.0814 C   0  0  0  0  0  0  0  0  0  0  0  0
   -2.2916    3.3625   12.1737 N   0  0  0  0  0  0  0  0  0  0  0  0
   -2.0420    3.0050   13.0564 H   0  0  0  0  0  0  0  0  0  0  0  0
   -2.6440    4.2785   12.0954 H   0  0  0  0  0  0  0  0  0  0  0  0
   -2.4897    5.5891   10.4748 O   0  0  0  0  0  0  0  0  0  0  0  0
   -3.3135    4.6474    9.7625 S   0  0  0  0  0  0  0  0  0  0  0  0
   -3.5794    4.7321    8.3516 O   0  0  0  0  0  0  0  0  0  0  0  0
   -4.6723    4.4802   10.6172 N   0  0  0  0  0  0  0  0  0  0  0  0
   -5.2033    5.3504   10.5852 H   0  0  0  0  0  0  0  0  0  0  0  0
   -4.4398    4.2591   11.5854 H   0  0  0  0  0  0  0  0  0  0  0  0
 18 17  1  0  0  0
 18 20  1  0  0  0
 17 16  1  0  0  0
  8 10  1  0  0  0
 24 25  2  0  0  0
 25 26  2  0  0  0
 25 27  1  0  0  0
 25 19  1  0  0  0
 19 20  2  0  0  0
 20 21  1  0  0  0
 16  1  1  0  0  0
  1  2  1  0  0  0
  2  3  2  0  0  0
  2  6  1  0  0  0
  3  4  1  0  0  0
  4  5  2  0  0  0
  5  6  1  0  0  0
  9 10  2  0  0  0
 10 11  1  0  0  0
  4  9  1  0  0  0
  8 12  1  0  0  0
  8 13  1  0  0  0
 27 28  1  0  0  0
 27 29  1  0  0  0
 21 22  1  0  0  0
 21 23  1  0  0  0
  5  7  1  0  0  0
 11 14  1  0  0  0
 11 15  1  0  0  0
M  END
> <minimizedAffinity>
-5.94467

$$$$
6G3Q_FO9_A_302


 29 29  0  0  0  0  0  0  0  0999 V2000
   -3.0398    5.9744   11.9082 C   0  0  0  0  0  0  0  0  0  0  0  0
   -2.2975    4.7292   11.5590 C   0  0  0  0  0  0  0  0  0  0  0  0
   -2.8043    3.9150   10.5605 N   0  0  0  0  0  0  0  0  0  0  0  0
   -1.9957    2.8764   10.3861 C   0  0  0  0  0  0  0  0  0  0  0  0
   -0.6131    2.8307   11.3983 S   0  0  0  0  0  0  0  0  0  0  0  0
   -1.1407    4.3047   12.1147 C   0  0  0  0  0  0  0  0  0  0  0  0
    0.5714    2.9201   10.7360 H   0  0  0  0  0  0  0  0  0  0  0  0
   -5.4518    1.3633   10.8855 N   0  0  0  0  0  0  0  0  0  0  0  0
   -3.1461    1.7169   11.0471 N   0  0  0  0  0  0  0  0  0  0  0  0
   -4.3219    1.2491   11.5487 C   0  0  0  0  0  0  0  0  0  0  0  0
   -4.2909    0.6593   12.7214 N   0  0  0  0  0  0  0  0  0  0  0  0
   -5.4641    1.8073   10.0069 H   0  0  0  0  0  0  0  0  0  0  0  0
   -6.2853    1.0049   11.2676 H   0  0  0  0  0  0  0  0  0  0  0  0
   -5.1208    0.3077   13.1176 H   0  0  0  0  0  0  0  0  0  0  0  0
   -3.4379    0.5687   13.2045 H   0  0  0  0  0  0  0  0  0  0  0  0
   -3.7909    5.9253   13.5612 S   0  0  0  0  0  0  0  0  0  0  0  0
   -4.8850    4.4677   13.4917 C   0  0  0  0  0  0  0  0  0  0  0  0
   -6.0549    4.5040   14.4574 C   0  0  0  0  0  0  0  0  0  0  0  0
   -5.4995    2.1131   15.1593 N   0  0  0  0  0  0  0  0  0  0  0  0
   -6.0826    3.3435   15.3943 C   0  0  0  0  0  0  0  0  0  0  0  0
   -6.7234    3.4900   16.5587 N   0  0  0  0  0  0  0  0  0  0  0  0
   -7.1570    4.3463   16.7776 H   0  0  0  0  0  0  0  0  0  0  0  0
   -6.7615    2.7415   17.1972 H   0  0  0  0  0  0  0  0  0  0  0  0
   -4.5058    1.4349   17.3347 O   0  0  0  0  0  0  0  0  0  0  0  0
   -5.3814    0.9111   16.3190 S   0  0  0  0  0  0  0  0  0  0  0  0
   -6.7625    0.5840   16.5516 O   0  0  0  0  0  0  0  0  0  0  0  0
   -4.5919   -0.3031   15.6069 N   0  0  0  0  0  0  0  0  0  0  0  0
   -4.4865   -1.0736   16.2670 H   0  0  0  0  0  0  0  0  0  0  0  0
   -3.6707    0.0183   15.3096 H   0  0  0  0  0  0  0  0  0  0  0  0
 18 17  1  0  0  0
 18 20  1  0  0  0
 17 16  1  0  0  0
  8 10  1  0  0  0
 24 25  2  0  0  0
 25 26  2  0  0  0
 25 27  1  0  0  0
 25 19  1  0  0  0
 19 20  2  0  0  0
 20 21  1  0  0  0
 16  1  1  0  0  0
  1  2  1  0  0  0
  2  3  2  0  0  0
  2  6  1  0  0  0
  3  4  1  0  0  0
  4  5  2  0  0  0
  5  6  1  0  0  0
  9 10  2  0  0  0
 10 11  1  0  0  0
  4  9  1  0  0  0
  8 12  1  0  0  0
  8 13  1  0  0  0
 27 28  1  0  0  0
 27 29  1  0  0  0
 21 22  1  0  0  0
 21 23  1  0  0  0
  5  7  1  0  0  0
 11 14  1  0  0  0
 11 15  1  0  0  0
M  END
> <minimizedAffinity>
-5.77671

$$$$
6G3Q_FO9_A_302


 29 29  0  0  0  0  0  0  0  0999 V2000
   -4.7290    1.5495   11.6819 C   0  0  0  0  0  0  0  0  0  0  0  0
   -4.7569    2.2140   13.0165 C   0  0  0  0  0  0  0  0  0  0  0  0
   -4.0818    1.6165   14.0671 N   0  0  0  0  0  0  0  0  0  0  0  0
   -4.2087    2.3663   15.1556 C   0  0  0  0  0  0  0  0  0  0  0  0
   -5.1312    3.7990   14.9697 S   0  0  0  0  0  0  0  0  0  0  0  0
   -5.3724    3.3792   13.3174 C   0  0  0  0  0  0  0  0  0  0  0  0
   -4.4292    4.9480   15.1608 H   0  0  0  0  0  0  0  0  0  0  0  0
   -7.3841    1.2288   16.9182 N   0  0  0  0  0  0  0  0  0  0  0  0
   -5.2414    1.2024   15.9826 N   0  0  0  0  0  0  0  0  0  0  0  0
   -6.1650    0.7379   16.8680 C   0  0  0  0  0  0  0  0  0  0  0  0
   -5.8028   -0.2372   17.6692 N   0  0  0  0  0  0  0  0  0  0  0  0
   -7.6456    1.9600   16.3130 H   0  0  0  0  0  0  0  0  0  0  0  0
   -8.0352    0.8651   17.5609 H   0  0  0  0  0  0  0  0  0  0  0  0
   -6.4427   -0.6002   18.3235 H   0  0  0  0  0  0  0  0  0  0  0  0
   -4.8913   -0.6054   17.6157 H   0  0  0  0  0  0  0  0  0  0  0  0
   -3.6764    0.0699   11.6362 S   0  0  0  0  0  0  0  0  0  0  0  0
   -2.0217    0.7328   11.2499 C   0  0  0  0  0  0  0  0  0  0  0  0
   -2.0178    2.1358   10.6719 C   0  0  0  0  0  0  0  0  0  0  0  0
   -2.1586    4.2938   12.0287 N   0  0  0  0  0  0  0  0  0  0  0  0
   -1.4843    3.1609   11.6154 C   0  0  0  0  0  0  0  0  0  0  0  0
   -0.2533    2.9839   12.1065 N   0  0  0  0  0  0  0  0  0  0  0  0
    0.2720    2.1934   11.8452 H   0  0  0  0  0  0  0  0  0  0  0  0
    0.1278    3.6443   12.7295 H   0  0  0  0  0  0  0  0  0  0  0  0
   -0.3338    5.8053   12.7808 O   0  0  0  0  0  0  0  0  0  0  0  0
   -1.6041    5.3074   13.2406 S   0  0  0  0  0  0  0  0  0  0  0  0
   -2.7486    6.1462   13.4752 O   0  0  0  0  0  0  0  0  0  0  0  0
   -1.2977    4.3487   14.5021 N   0  0  0  0  0  0  0  0  0  0  0  0
   -0.9535    4.9107   15.2806 H   0  0  0  0  0  0  0  0  0  0  0  0
   -0.5920    3.6597   14.2421 H   0  0  0  0  0  0  0  0  0  0  0  0
 18 17  1  0  0  0
 18 20  1  0  0  0
 17 16  1  0  0  0
  8 10  1  0  0  0
 24 25  2  0  0  0
 25 26  2  0  0  0
 25 27  1  0  0  0
 25 19  1  0  0  0
 19 20  2  0  0  0
 20 21  1  0  0  0
 16  1  1  0  0  0
  1  2  1  0  0  0
  2  3  2  0  0  0
  2  6  1  0  0  0
  3  4  1  0  0  0
  4  5  2  0  0  0
  5  6  1  0  0  0
  9 10  2  0  0  0
 10 11  1  0  0  0
  4  9  1  0  0  0
  8 12  1  0  0  0
  8 13  1  0  0  0
 27 28  1  0  0  0
 27 29  1  0  0  0
 21 22  1  0  0  0
 21 23  1  0  0  0
  5  7  1  0  0  0
 11 14  1  0  0  0
 11 15  1  0  0  0
M  END
> <minimizedAffinity>
-5.66997

$$$$
6G3Q_FO9_A_302


 29 29  0  0  0  0  0  0  0  0999 V2000
   -0.5757    4.8835   12.1368 C   0  0  0  0  0  0  0  0  0  0  0  0
   -1.8729    5.1678   12.8151 C   0  0  0  0  0  0  0  0  0  0  0  0
   -1.9709    4.9401   14.1772 N   0  0  0  0  0  0  0  0  0  0  0  0
   -3.1878    5.2709   14.5928 C   0  0  0  0  0  0  0  0  0  0  0  0
   -4.2528    5.8594   13.3854 S   0  0  0  0  0  0  0  0  0  0  0  0
   -2.9910    5.6545   12.2320 C   0  0  0  0  0  0  0  0  0  0  0  0
   -4.6470    7.1487   13.5639 H   0  0  0  0  0  0  0  0  0  0  0  0
   -5.6526    2.4973   15.4386 N   0  0  0  0  0  0  0  0  0  0  0  0
   -3.6604    3.6046   14.9168 N   0  0  0  0  0  0  0  0  0  0  0  0
   -4.3404    2.5718   15.4859 C   0  0  0  0  0  0  0  0  0  0  0  0
   -3.6376    1.6332   16.0769 N   0  0  0  0  0  0  0  0  0  0  0  0
   -6.1701    3.2064   14.9931 H   0  0  0  0  0  0  0  0  0  0  0  0
   -6.1172    1.7323   15.8487 H   0  0  0  0  0  0  0  0  0  0  0  0
   -4.0932    0.8699   16.5000 H   0  0  0  0  0  0  0  0  0  0  0  0
   -2.6551    1.6927   16.0967 H   0  0  0  0  0  0  0  0  0  0  0  0
   -0.7055    4.8364   10.3257 S   0  0  0  0  0  0  0  0  0  0  0  0
   -0.6865    3.0537    9.9408 C   0  0  0  0  0  0  0  0  0  0  0  0
   -0.8726    2.1423   11.1396 C   0  0  0  0  0  0  0  0  0  0  0  0
   -3.0002    0.9437   10.3950 N   0  0  0  0  0  0  0  0  0  0  0  0
   -2.2799    1.6798   11.3161 C   0  0  0  0  0  0  0  0  0  0  0  0
   -2.9095    1.9992   12.4516 N   0  0  0  0  0  0  0  0  0  0  0  0
   -2.4430    2.5228   13.1426 H   0  0  0  0  0  0  0  0  0  0  0  0
   -3.8395    1.7108   12.5967 H   0  0  0  0  0  0  0  0  0  0  0  0
   -4.9627   -0.2682    9.4675 O   0  0  0  0  0  0  0  0  0  0  0  0
   -4.5010    0.2754   10.7182 S   0  0  0  0  0  0  0  0  0  0  0  0
   -4.2268   -0.5263   11.8803 O   0  0  0  0  0  0  0  0  0  0  0  0
   -5.4654    1.5217   11.0666 N   0  0  0  0  0  0  0  0  0  0  0  0
   -6.4030    1.1783   11.2748 H   0  0  0  0  0  0  0  0  0  0  0  0
   -5.5047    2.1548   10.2678 H   0  0  0  0  0  0  0  0  0  0  0  0
 18 17  1  0  0  0
 18 20  1  0  0  0
 17 16  1  0  0  0
  8 10  1  0  0  0
 24 25  2  0  0  0
 25 26  2  0  0  0
 25 27  1  0  0  0
 25 19  1  0  0  0
 19 20  2  0  0  0
 20 21  1  0  0  0
 16  1  1  0  0  0
  1  2  1  0  0  0
  2  3  2  0  0  0
  2  6  1  0  0  0
  3  4  1  0  0  0
  4  5  2  0  0  0
  5  6  1  0  0  0
  9 10  2  0  0  0
 10 11  1  0  0  0
  4  9  1  0  0  0
  8 12  1  0  0  0
  8 13  1  0  0  0
 27 28  1  0  0  0
 27 29  1  0  0  0
 21 22  1  0  0  0
 21 23  1  0  0  0
  5  7  1  0  0  0
 11 14  1  0  0  0
 11 15  1  0  0  0
M  END
> <minimizedAffinity>
-5.58824

$$$$
6G3Q_FO9_A_302


 29 29  0  0  0  0  0  0  0  0999 V2000
   -2.9278    5.0543    9.2734 C   0  0  0  0  0  0  0  0  0  0  0  0
   -3.7557    5.7173   10.3215 C   0  0  0  0  0  0  0  0  0  0  0  0
   -3.2453    5.8135   11.6049 N   0  0  0  0  0  0  0  0  0  0  0  0
   -4.1169    6.4489   12.3792 C   0  0  0  0  0  0  0  0  0  0  0  0
   -5.5663    6.9501   11.6135 S   0  0  0  0  0  0  0  0  0  0  0  0
   -4.9783    6.2666   10.1467 C   0  0  0  0  0  0  0  0  0  0  0  0
   -5.7439    8.2979   11.5738 H   0  0  0  0  0  0  0  0  0  0  0  0
   -6.3031    4.3187   14.6521 N   0  0  0  0  0  0  0  0  0  0  0  0
   -4.5113    5.0118   13.3194 N   0  0  0  0  0  0  0  0  0  0  0  0
   -5.0271    4.2700   14.3375 C   0  0  0  0  0  0  0  0  0  0  0  0
   -4.2056    3.4835   14.9937 N   0  0  0  0  0  0  0  0  0  0  0  0
   -6.9107    4.9119   14.1538 H   0  0  0  0  0  0  0  0  0  0  0  0
   -6.6508    3.7619   15.3859 H   0  0  0  0  0  0  0  0  0  0  0  0
   -4.5409    2.9313   15.7366 H   0  0  0  0  0  0  0  0  0  0  0  0
   -3.2544    3.4459   14.7428 H   0  0  0  0  0  0  0  0  0  0  0  0
   -1.1535    5.0368    9.6617 S   0  0  0  0  0  0  0  0  0  0  0  0
   -0.6691    3.3020    9.3751 C   0  0  0  0  0  0  0  0  0  0  0  0
   -0.6762    2.4267   10.6146 C   0  0  0  0  0  0  0  0  0  0  0  0
   -2.9934    1.3608   10.7240 N   0  0  0  0  0  0  0  0  0  0  0  0
   -2.0370    2.2390   11.1963 C   0  0  0  0  0  0  0  0  0  0  0  0
   -2.3740    2.9764   12.2596 N   0  0  0  0  0  0  0  0  0  0  0  0
   -1.7303    3.6185   12.6373 H   0  0  0  0  0  0  0  0  0  0  0  0
   -3.2658    2.8774   12.6647 H   0  0  0  0  0  0  0  0  0  0  0  0
   -5.1750    2.2672   11.4982 O   0  0  0  0  0  0  0  0  0  0  0  0
   -4.4266    1.0375   11.5271 S   0  0  0  0  0  0  0  0  0  0  0  0
   -4.8623   -0.1732   10.8846 O   0  0  0  0  0  0  0  0  0  0  0  0
   -4.0137    0.7817   13.0661 N   0  0  0  0  0  0  0  0  0  0  0  0
   -4.8501    0.5776   13.6131 H   0  0  0  0  0  0  0  0  0  0  0  0
   -3.5585    1.6148   13.4391 H   0  0  0  0  0  0  0  0  0  0  0  0
 18 17  1  0  0  0
 18 20  1  0  0  0
 17 16  1  0  0  0
  8 10  1  0  0  0
 24 25  2  0  0  0
 25 26  2  0  0  0
 25 27  1  0  0  0
 25 19  1  0  0  0
 19 20  2  0  0  0
 20 21  1  0  0  0
 16  1  1  0  0  0
  1  2  1  0  0  0
  2  3  2  0  0  0
  2  6  1  0  0  0
  3  4  1  0  0  0
  4  5  2  0  0  0
  5  6  1  0  0  0
  9 10  2  0  0  0
 10 11  1  0  0  0
  4  9  1  0  0  0
  8 12  1  0  0  0
  8 13  1  0  0  0
 27 28  1  0  0  0
 27 29  1  0  0  0
 21 22  1  0  0  0
 21 23  1  0  0  0
  5  7  1  0  0  0
 11 14  1  0  0  0
 11 15  1  0  0  0
M  END
> <minimizedAffinity>
-5.02138

$$$$
6G3Q_FO9_A_302


 29 29  0  0  0  0  0  0  0  0999 V2000
   -1.3060    3.2121   11.6400 C   0  0  0  0  0  0  0  0  0  0  0  0
   -2.6347    2.5393   11.5645 C   0  0  0  0  0  0  0  0  0  0  0  0
   -2.9081    1.5136   12.4532 N   0  0  0  0  0  0  0  0  0  0  0  0
   -4.1386    1.0623   12.2400 C   0  0  0  0  0  0  0  0  0  0  0  0
   -5.0081    1.8361   10.9818 S   0  0  0  0  0  0  0  0  0  0  0  0
   -3.6374    2.8419   10.7100 C   0  0  0  0  0  0  0  0  0  0  0  0
   -6.1204    2.5014   11.3941 H   0  0  0  0  0  0  0  0  0  0  0  0
   -4.3609   -2.6911   11.6514 N   0  0  0  0  0  0  0  0  0  0  0  0
   -3.5892   -0.4845   11.5994 N   0  0  0  0  0  0  0  0  0  0  0  0
   -3.3738   -1.8277   11.5514 C   0  0  0  0  0  0  0  0  0  0  0  0
   -2.1385   -2.2401   11.3846 N   0  0  0  0  0  0  0  0  0  0  0  0
   -5.2837   -2.3715   11.7763 H   0  0  0  0  0  0  0  0  0  0  0  0
   -4.1770   -3.6569   11.6013 H   0  0  0  0  0  0  0  0  0  0  0  0
   -1.9424   -3.2040   11.3447 H   0  0  0  0  0  0  0  0  0  0  0  0
   -1.4083   -1.5853   11.2993 H   0  0  0  0  0  0  0  0  0  0  0  0
   -1.3796    4.9926   11.2888 S   0  0  0  0  0  0  0  0  0  0  0  0
   -1.7138    5.7377   12.9196 C   0  0  0  0  0  0  0  0  0  0  0  0
   -1.8374    4.7439   14.0596 C   0  0  0  0  0  0  0  0  0  0  0  0
   -4.3431    5.2315   14.0935 N   0  0  0  0  0  0  0  0  0  0  0  0
   -3.2504    4.4633   14.4470 C   0  0  0  0  0  0  0  0  0  0  0  0
   -3.4942    3.3860   15.2006 N   0  0  0  0  0  0  0  0  0  0  0  0
   -2.7519    2.8034   15.4813 H   0  0  0  0  0  0  0  0  0  0  0  0
   -4.4160    3.1755   15.4748 H   0  0  0  0  0  0  0  0  0  0  0  0
   -6.0290    3.4146   13.9025 O   0  0  0  0  0  0  0  0  0  0  0  0
   -5.9271    4.7696   14.3784 S   0  0  0  0  0  0  0  0  0  0  0  0
   -6.1039    5.1436   15.7559 O   0  0  0  0  0  0  0  0  0  0  0  0
   -6.8278    5.6765   13.3930 N   0  0  0  0  0  0  0  0  0  0  0  0
   -7.8122    5.4411   13.5194 H   0  0  0  0  0  0  0  0  0  0  0  0
   -6.5572    5.4992   12.4257 H   0  0  0  0  0  0  0  0  0  0  0  0
 18 17  1  0  0  0
 18 20  1  0  0  0
 17 16  1  0  0  0
  8 10  1  0  0  0
 24 25  2  0  0  0
 25 26  2  0  0  0
 25 27  1  0  0  0
 25 19  1  0  0  0
 19 20  2  0  0  0
 20 21  1  0  0  0
 16  1  1  0  0  0
  1  2  1  0  0  0
  2  3  2  0  0  0
  2  6  1  0  0  0
  3  4  1  0  0  0
  4  5  2  0  0  0
  5  6  1  0  0  0
  9 10  2  0  0  0
 10 11  1  0  0  0
  4  9  1  0  0  0
  8 12  1  0  0  0
  8 13  1  0  0  0
 27 28  1  0  0  0
 27 29  1  0  0  0
 21 22  1  0  0  0
 21 23  1  0  0  0
  5  7  1  0  0  0
 11 14  1  0  0  0
 11 15  1  0  0  0
M  END
> <minimizedAffinity>
-4.92761

$$$$
6G3Q_FO9_A_302


 29 29  0  0  0  0  0  0  0  0999 V2000
   -0.1783    5.2092   11.2292 C   0  0  0  0  0  0  0  0  0  0  0  0
   -0.8619    5.7704   12.4298 C   0  0  0  0  0  0  0  0  0  0  0  0
   -1.4853    4.8970   13.3045 N   0  0  0  0  0  0  0  0  0  0  0  0
   -2.0130    5.5836   14.3112 C   0  0  0  0  0  0  0  0  0  0  0  0
   -1.7891    7.2819   14.2526 S   0  0  0  0  0  0  0  0  0  0  0  0
   -0.9262    7.0751   12.7771 C   0  0  0  0  0  0  0  0  0  0  0  0
   -1.0446    7.7861   15.2730 H   0  0  0  0  0  0  0  0  0  0  0  0
   -5.2085    6.2921   12.3695 N   0  0  0  0  0  0  0  0  0  0  0  0
   -3.6735    5.2738   13.8096 N   0  0  0  0  0  0  0  0  0  0  0  0
   -4.9494    5.5497   13.4237 C   0  0  0  0  0  0  0  0  0  0  0  0
   -5.9250    5.0333   14.1347 N   0  0  0  0  0  0  0  0  0  0  0  0
   -4.4697    6.6746   11.8431 H   0  0  0  0  0  0  0  0  0  0  0  0
   -6.1413    6.4654   12.1067 H   0  0  0  0  0  0  0  0  0  0  0  0
   -6.8613    5.2099   13.8872 H   0  0  0  0  0  0  0  0  0  0  0  0
   -5.7201    4.4695   14.9153 H   0  0  0  0  0  0  0  0  0  0  0  0
   -1.3289    4.6802    9.9271 S   0  0  0  0  0  0  0  0  0  0  0  0
   -0.9165    2.9209    9.6795 C   0  0  0  0  0  0  0  0  0  0  0  0
   -0.8487    2.0983   10.9528 C   0  0  0  0  0  0  0  0  0  0  0  0
   -3.0053    1.8899   12.3031 N   0  0  0  0  0  0  0  0  0  0  0  0
   -2.1472    1.4569   11.3105 C   0  0  0  0  0  0  0  0  0  0  0  0
   -2.5227    0.3715   10.6257 N   0  0  0  0  0  0  0  0  0  0  0  0
   -1.9487    0.0198    9.9073 H   0  0  0  0  0  0  0  0  0  0  0  0
   -3.3731   -0.0759   10.8399 H   0  0  0  0  0  0  0  0  0  0  0  0
   -4.3653   -0.1592   12.6655 O   0  0  0  0  0  0  0  0  0  0  0  0
   -4.5409    1.2636   12.5336 S   0  0  0  0  0  0  0  0  0  0  0  0
   -5.0506    2.1023   13.5850 O   0  0  0  0  0  0  0  0  0  0  0  0
   -5.3227    1.5077   11.1430 N   0  0  0  0  0  0  0  0  0  0  0  0
   -6.2730    1.1450   11.2190 H   0  0  0  0  0  0  0  0  0  0  0  0
   -4.8339    1.0252   10.3889 H   0  0  0  0  0  0  0  0  0  0  0  0
 18 17  1  0  0  0
 18 20  1  0  0  0
 17 16  1  0  0  0
  8 10  1  0  0  0
 24 25  2  0  0  0
 25 26  2  0  0  0
 25 27  1  0  0  0
 25 19  1  0  0  0
 19 20  2  0  0  0
 20 21  1  0  0  0
 16  1  1  0  0  0
  1  2  1  0  0  0
  2  3  2  0  0  0
  2  6  1  0  0  0
  3  4  1  0  0  0
  4  5  2  0  0  0
  5  6  1  0  0  0
  9 10  2  0  0  0
 10 11  1  0  0  0
  4  9  1  0  0  0
  8 12  1  0  0  0
  8 13  1  0  0  0
 27 28  1  0  0  0
 27 29  1  0  0  0
 21 22  1  0  0  0
 21 23  1  0  0  0
  5  7  1  0  0  0
 11 14  1  0  0  0
 11 15  1  0  0  0
M  END
> <minimizedAffinity>
-4.89939

$$$$
