3VHK_BPK_A_2001


 23 25  0  0  0  0  0  0  0  0999 V2000
  -29.4613   26.4090   15.2114 C   0  0  0  0  0  0  0  0  0  0  0  0
  -29.8108   26.2425   13.8882 C   0  0  0  0  0  0  0  0  0  0  0  0
  -27.8248   26.9952   14.0220 C   0  0  0  0  0  0  0  0  0  0  0  0
  -31.0105   25.7717   13.1819 C   0  0  0  0  0  0  0  0  0  0  0  0
  -28.1819   26.8943   15.2845 N   0  0  0  0  0  0  0  0  0  0  0  0
  -28.7632   26.6165   13.1124 O   0  0  0  0  0  0  0  0  0  0  0  0
  -24.2206   28.3913   12.4037 C   0  0  0  0  0  0  0  0  0  0  0  0
  -25.3723   29.1283   12.2556 C   0  0  0  0  0  0  0  0  0  0  0  0
  -24.2558   27.1906   13.0779 C   0  0  0  0  0  0  0  0  0  0  0  0
  -26.5532   28.6602   12.7850 C   0  0  0  0  0  0  0  0  0  0  0  0
  -25.4371   26.7251   13.6094 C   0  0  0  0  0  0  0  0  0  0  0  0
  -26.5887   27.4626   13.4626 C   0  0  0  0  0  0  0  0  0  0  0  0
  -30.2476   26.1484   16.4282 C   0  0  0  0  0  0  0  0  0  0  0  0
  -29.5286   26.5155   17.5999 O   0  0  0  0  0  0  0  0  0  0  0  0
  -31.0686   27.4331   20.7585 C   0  0  0  0  0  0  0  0  0  0  0  0
  -32.1679   26.6025   20.7724 C   0  0  0  0  0  0  0  0  0  0  0  0
  -30.1955   27.3951   19.6944 C   0  0  0  0  0  0  0  0  0  0  0  0
  -31.5290   25.6919   18.6639 C   0  0  0  0  0  0  0  0  0  0  0  0
  -32.4025   25.7312   19.7290 C   0  0  0  0  0  0  0  0  0  0  0  0
  -30.4310   26.5265   18.6519 C   0  0  0  0  0  0  0  0  0  0  0  0
  -33.5893   24.8363   19.7404 C   0  0  0  0  0  0  0  0  0  0  0  0
  -34.0225   24.6491   18.4031 O   0  0  0  0  0  0  0  0  0  0  0  0
  -34.2507   25.5078   18.0139 H   0  0  0  0  0  0  0  0  0  0  0  0
  7  8  2  0  0  0
  7  9  1  0  0  0
  8 10  1  0  0  0
  9 11  2  0  0  0
 15 16  2  0  0  0
 15 17  1  0  0  0
 10 12  2  0  0  0
 11 12  1  0  0  0
 16 19  1  0  0  0
 17 20  2  0  0  0
 18 19  2  0  0  0
 18 20  1  0  0  0
 12  3  1  0  0  0
 19 21  1  0  0  0
 20 14  1  0  0  0
  1  2  2  0  0  0
  1 13  1  0  0  0
  1  5  1  0  0  0
  2  4  1  0  0  0
  2  6  1  0  0  0
  3  5  2  0  0  0
  3  6  1  0  0  0
 21 22  1  0  0  0
 13 14  1  0  0  0
 22 23  1  0  0  0
M  END
> <minimizedAffinity>
-9.59734

$$$$
3VHK_BPK_A_2001


 23 25  0  0  0  0  0  0  0  0999 V2000
  -25.6718   28.5193   12.5696 C   0  0  0  0  0  0  0  0  0  0  0  0
  -24.7296   27.5496   12.8390 C   0  0  0  0  0  0  0  0  0  0  0  0
  -23.8091   29.1997   11.8601 C   0  0  0  0  0  0  0  0  0  0  0  0
  -24.7543   26.2258   13.4767 C   0  0  0  0  0  0  0  0  0  0  0  0
  -25.0677   29.5754   11.9392 N   0  0  0  0  0  0  0  0  0  0  0  0
  -23.5249   27.9777   12.3867 O   0  0  0  0  0  0  0  0  0  0  0  0
  -20.5495   31.2404   10.1959 C   0  0  0  0  0  0  0  0  0  0  0  0
  -21.7830   31.8458   10.2544 C   0  0  0  0  0  0  0  0  0  0  0  0
  -20.3896   29.9600   10.6781 C   0  0  0  0  0  0  0  0  0  0  0  0
  -22.8498   31.1669   10.7971 C   0  0  0  0  0  0  0  0  0  0  0  0
  -21.4571   29.2832   11.2234 C   0  0  0  0  0  0  0  0  0  0  0  0
  -22.6903   29.8890   11.2832 C   0  0  0  0  0  0  0  0  0  0  0  0
  -27.1152   28.5292   12.8582 C   0  0  0  0  0  0  0  0  0  0  0  0
  -27.3701   28.3123   14.2412 O   0  0  0  0  0  0  0  0  0  0  0  0
  -30.0810   26.1242   13.2151 C   0  0  0  0  0  0  0  0  0  0  0  0
  -30.6599   25.8264   14.4295 C   0  0  0  0  0  0  0  0  0  0  0  0
  -28.9836   26.9544   13.1652 C   0  0  0  0  0  0  0  0  0  0  0  0
  -29.0525   27.1851   15.5491 C   0  0  0  0  0  0  0  0  0  0  0  0
  -30.1503   26.3534   15.5980 C   0  0  0  0  0  0  0  0  0  0  0  0
  -28.4738   27.4789   14.3322 C   0  0  0  0  0  0  0  0  0  0  0  0
  -30.7713   26.0314   16.9095 C   0  0  0  0  0  0  0  0  0  0  0  0
  -29.8457   25.2717   17.6693 O   0  0  0  0  0  0  0  0  0  0  0  0
  -29.6258   24.4572   17.1906 H   0  0  0  0  0  0  0  0  0  0  0  0
  7  8  2  0  0  0
  7  9  1  0  0  0
  8 10  1  0  0  0
  9 11  2  0  0  0
 15 16  2  0  0  0
 15 17  1  0  0  0
 10 12  2  0  0  0
 11 12  1  0  0  0
 16 19  1  0  0  0
 17 20  2  0  0  0
 18 19  2  0  0  0
 18 20  1  0  0  0
 12  3  1  0  0  0
 19 21  1  0  0  0
 20 14  1  0  0  0
  1  2  2  0  0  0
  1 13  1  0  0  0
  1  5  1  0  0  0
  2  4  1  0  0  0
  2  6  1  0  0  0
  3  5  2  0  0  0
  3  6  1  0  0  0
 21 22  1  0  0  0
 13 14  1  0  0  0
 22 23  1  0  0  0
M  END
> <minimizedAffinity>
-9.52976

$$$$
3VHK_BPK_A_2001


 23 25  0  0  0  0  0  0  0  0999 V2000
  -29.8240   26.2590   15.0934 C   0  0  0  0  0  0  0  0  0  0  0  0
  -30.0400   26.0395   13.7496 C   0  0  0  0  0  0  0  0  0  0  0  0
  -28.0667   26.7759   14.0537 C   0  0  0  0  0  0  0  0  0  0  0  0
  -31.1689   25.5517   12.9449 C   0  0  0  0  0  0  0  0  0  0  0  0
  -28.5514   26.7332   15.2763 N   0  0  0  0  0  0  0  0  0  0  0  0
  -28.9136   26.3685   13.0697 O   0  0  0  0  0  0  0  0  0  0  0  0
  -24.2845   27.9981   12.7273 C   0  0  0  0  0  0  0  0  0  0  0  0
  -24.4214   26.8211   13.4254 C   0  0  0  0  0  0  0  0  0  0  0  0
  -25.3911   28.7776   12.4719 C   0  0  0  0  0  0  0  0  0  0  0  0
  -25.6660   26.4294   13.8626 C   0  0  0  0  0  0  0  0  0  0  0  0
  -26.6359   28.3830   12.9074 C   0  0  0  0  0  0  0  0  0  0  0  0
  -26.7732   27.2054   13.6043 C   0  0  0  0  0  0  0  0  0  0  0  0
  -30.7335   26.0595   16.2334 C   0  0  0  0  0  0  0  0  0  0  0  0
  -30.0924   25.3588   17.2931 O   0  0  0  0  0  0  0  0  0  0  0  0
  -32.7445   25.0944   19.7601 C   0  0  0  0  0  0  0  0  0  0  0  0
  -32.3286   26.0114   20.7007 C   0  0  0  0  0  0  0  0  0  0  0  0
  -31.9897   24.8852   18.6276 C   0  0  0  0  0  0  0  0  0  0  0  0
  -30.4058   26.5158   19.3847 C   0  0  0  0  0  0  0  0  0  0  0  0
  -31.1615   26.7239   20.5182 C   0  0  0  0  0  0  0  0  0  0  0  0
  -30.8236   25.5952   18.4466 C   0  0  0  0  0  0  0  0  0  0  0  0
  -30.7093   27.7116   21.5327 C   0  0  0  0  0  0  0  0  0  0  0  0
  -29.7644   28.5774   20.9255 O   0  0  0  0  0  0  0  0  0  0  0  0
  -29.0122   28.0583   20.6007 H   0  0  0  0  0  0  0  0  0  0  0  0
  7  8  2  0  0  0
  7  9  1  0  0  0
  8 10  1  0  0  0
  9 11  2  0  0  0
 15 16  2  0  0  0
 15 17  1  0  0  0
 10 12  2  0  0  0
 11 12  1  0  0  0
 16 19  1  0  0  0
 17 20  2  0  0  0
 18 19  2  0  0  0
 18 20  1  0  0  0
 12  3  1  0  0  0
 19 21  1  0  0  0
 20 14  1  0  0  0
  1  2  2  0  0  0
  1 13  1  0  0  0
  1  5  1  0  0  0
  2  4  1  0  0  0
  2  6  1  0  0  0
  3  5  2  0  0  0
  3  6  1  0  0  0
 21 22  1  0  0  0
 13 14  1  0  0  0
 22 23  1  0  0  0
M  END
> <minimizedAffinity>
-9.42943

$$$$
3VHK_BPK_A_2001


 23 25  0  0  0  0  0  0  0  0999 V2000
  -28.8792   26.6311   14.7329 C   0  0  0  0  0  0  0  0  0  0  0  0
  -30.1351   26.1673   14.4041 C   0  0  0  0  0  0  0  0  0  0  0  0
  -30.0287   26.5450   16.4957 C   0  0  0  0  0  0  0  0  0  0  0  0
  -30.7946   25.7475   13.1596 C   0  0  0  0  0  0  0  0  0  0  0  0
  -28.8229   26.8699   16.0811 N   0  0  0  0  0  0  0  0  0  0  0  0
  -30.8850   26.1084   15.5326 O   0  0  0  0  0  0  0  0  0  0  0  0
  -31.5945   26.5884   20.3821 C   0  0  0  0  0  0  0  0  0  0  0  0
  -31.8121   25.5038   19.5649 C   0  0  0  0  0  0  0  0  0  0  0  0
  -30.8680   27.6628   19.9183 C   0  0  0  0  0  0  0  0  0  0  0  0
  -31.2994   25.4996   18.2879 C   0  0  0  0  0  0  0  0  0  0  0  0
  -30.3533   27.6559   18.6416 C   0  0  0  0  0  0  0  0  0  0  0  0
  -30.5696   26.5709   17.8247 C   0  0  0  0  0  0  0  0  0  0  0  0
  -27.7112   26.8664   13.8685 C   0  0  0  0  0  0  0  0  0  0  0  0
  -27.4033   28.2526   13.7771 O   0  0  0  0  0  0  0  0  0  0  0  0
  -24.0242   27.3600   12.7898 C   0  0  0  0  0  0  0  0  0  0  0  0
  -23.6317   28.4970   12.1176 C   0  0  0  0  0  0  0  0  0  0  0  0
  -25.2851   27.2903   13.3387 C   0  0  0  0  0  0  0  0  0  0  0  0
  -25.7529   29.5000   12.5392 C   0  0  0  0  0  0  0  0  0  0  0  0
  -24.4911   29.5685   11.9896 C   0  0  0  0  0  0  0  0  0  0  0  0
  -26.1435   28.3594   13.2091 C   0  0  0  0  0  0  0  0  0  0  0  0
  -24.0711   30.7950   11.2624 C   0  0  0  0  0  0  0  0  0  0  0  0
  -24.7636   31.9026   11.8143 O   0  0  0  0  0  0  0  0  0  0  0  0
  -25.7193   31.7654   11.7212 H   0  0  0  0  0  0  0  0  0  0  0  0
  7  8  2  0  0  0
  7  9  1  0  0  0
  8 10  1  0  0  0
  9 11  2  0  0  0
 15 16  2  0  0  0
 15 17  1  0  0  0
 10 12  2  0  0  0
 11 12  1  0  0  0
 16 19  1  0  0  0
 17 20  2  0  0  0
 18 19  2  0  0  0
 18 20  1  0  0  0
 12  3  1  0  0  0
 19 21  1  0  0  0
 20 14  1  0  0  0
  1  2  2  0  0  0
  1 13  1  0  0  0
  1  5  1  0  0  0
  2  4  1  0  0  0
  2  6  1  0  0  0
  3  5  2  0  0  0
  3  6  1  0  0  0
 21 22  1  0  0  0
 13 14  1  0  0  0
 22 23  1  0  0  0
M  END
> <minimizedAffinity>
-9.39069

$$$$
3VHK_BPK_A_2001


 23 25  0  0  0  0  0  0  0  0999 V2000
  -30.3854   26.3382   18.5765 C   0  0  0  0  0  0  0  0  0  0  0  0
  -31.4733   25.6891   18.0327 C   0  0  0  0  0  0  0  0  0  0  0  0
  -30.1450   26.2950   16.4844 C   0  0  0  0  0  0  0  0  0  0  0  0
  -32.6870   25.0624   18.5751 C   0  0  0  0  0  0  0  0  0  0  0  0
  -29.5384   26.7237   17.5706 N   0  0  0  0  0  0  0  0  0  0  0  0
  -31.3288   25.6547   16.6846 O   0  0  0  0  0  0  0  0  0  0  0  0
  -28.9448   26.6378   12.4844 C   0  0  0  0  0  0  0  0  0  0  0  0
  -28.0868   27.0063   13.4940 C   0  0  0  0  0  0  0  0  0  0  0  0
  -30.2014   26.1634   12.7902 C   0  0  0  0  0  0  0  0  0  0  0  0
  -28.4904   26.8962   14.8050 C   0  0  0  0  0  0  0  0  0  0  0  0
  -30.6027   26.0511   14.1022 C   0  0  0  0  0  0  0  0  0  0  0  0
  -29.7443   26.4182   15.1120 C   0  0  0  0  0  0  0  0  0  0  0  0
  -30.0777   26.6321   19.9856 C   0  0  0  0  0  0  0  0  0  0  0  0
  -29.6315   25.4691   20.6735 O   0  0  0  0  0  0  0  0  0  0  0  0
  -32.5849   25.4174   22.7865 C   0  0  0  0  0  0  0  0  0  0  0  0
  -32.8595   24.0679   22.8311 C   0  0  0  0  0  0  0  0  0  0  0  0
  -31.5054   25.8727   22.0630 C   0  0  0  0  0  0  0  0  0  0  0  0
  -30.9806   23.6213   21.4334 C   0  0  0  0  0  0  0  0  0  0  0  0
  -32.0617   23.1667   22.1571 C   0  0  0  0  0  0  0  0  0  0  0  0
  -30.7101   24.9729   21.3887 C   0  0  0  0  0  0  0  0  0  0  0  0
  -32.3576   21.7107   22.2012 C   0  0  0  0  0  0  0  0  0  0  0  0
  -31.5165   21.1115   23.1732 O   0  0  0  0  0  0  0  0  0  0  0  0
  -30.5884   21.2605   22.9336 H   0  0  0  0  0  0  0  0  0  0  0  0
  7  8  2  0  0  0
  7  9  1  0  0  0
  8 10  1  0  0  0
  9 11  2  0  0  0
 15 16  2  0  0  0
 15 17  1  0  0  0
 10 12  2  0  0  0
 11 12  1  0  0  0
 16 19  1  0  0  0
 17 20  2  0  0  0
 18 19  2  0  0  0
 18 20  1  0  0  0
 12  3  1  0  0  0
 19 21  1  0  0  0
 20 14  1  0  0  0
  1  2  2  0  0  0
  1 13  1  0  0  0
  1  5  1  0  0  0
  2  4  1  0  0  0
  2  6  1  0  0  0
  3  5  2  0  0  0
  3  6  1  0  0  0
 21 22  1  0  0  0
 13 14  1  0  0  0
 22 23  1  0  0  0
M  END
> <minimizedAffinity>
-9.17306

$$$$
3VHK_BPK_A_2001


 23 25  0  0  0  0  0  0  0  0999 V2000
  -30.0726   26.1393   17.7612 C   0  0  0  0  0  0  0  0  0  0  0  0
  -30.0543   27.5133   17.6507 C   0  0  0  0  0  0  0  0  0  0  0  0
  -29.2369   26.6358   15.8926 C   0  0  0  0  0  0  0  0  0  0  0  0
  -30.4697   28.6304   18.5106 C   0  0  0  0  0  0  0  0  0  0  0  0
  -29.5437   25.5861   16.6245 N   0  0  0  0  0  0  0  0  0  0  0  0
  -29.5183   27.8449   16.4498 O   0  0  0  0  0  0  0  0  0  0  0  0
  -27.4488   26.7719   12.1055 C   0  0  0  0  0  0  0  0  0  0  0  0
  -26.6727   26.8706   13.2367 C   0  0  0  0  0  0  0  0  0  0  0  0
  -28.8147   26.6361   12.2198 C   0  0  0  0  0  0  0  0  0  0  0  0
  -27.2680   26.8308   14.4767 C   0  0  0  0  0  0  0  0  0  0  0  0
  -29.4086   26.5936   13.4610 C   0  0  0  0  0  0  0  0  0  0  0  0
  -28.6325   26.6908   14.5922 C   0  0  0  0  0  0  0  0  0  0  0  0
  -30.5506   25.2945   18.8678 C   0  0  0  0  0  0  0  0  0  0  0  0
  -31.9721   25.2667   18.9238 O   0  0  0  0  0  0  0  0  0  0  0  0
  -32.3868   25.7694   22.4966 C   0  0  0  0  0  0  0  0  0  0  0  0
  -32.9991   24.5911   22.8642 C   0  0  0  0  0  0  0  0  0  0  0  0
  -32.0494   25.9834   21.1789 C   0  0  0  0  0  0  0  0  0  0  0  0
  -32.9393   23.8342   20.6044 C   0  0  0  0  0  0  0  0  0  0  0  0
  -33.2774   23.6214   21.9233 C   0  0  0  0  0  0  0  0  0  0  0  0
  -32.3290   25.0159   20.2394 C   0  0  0  0  0  0  0  0  0  0  0  0
  -33.9404   22.3507   22.3169 C   0  0  0  0  0  0  0  0  0  0  0  0
  -33.0212   21.5813   23.0746 O   0  0  0  0  0  0  0  0  0  0  0  0
  -32.2332   21.3993   22.5389 H   0  0  0  0  0  0  0  0  0  0  0  0
  7  8  2  0  0  0
  7  9  1  0  0  0
  8 10  1  0  0  0
  9 11  2  0  0  0
 15 16  2  0  0  0
 15 17  1  0  0  0
 10 12  2  0  0  0
 11 12  1  0  0  0
 16 19  1  0  0  0
 17 20  2  0  0  0
 18 19  2  0  0  0
 18 20  1  0  0  0
 12  3  1  0  0  0
 19 21  1  0  0  0
 20 14  1  0  0  0
  1  2  2  0  0  0
  1 13  1  0  0  0
  1  5  1  0  0  0
  2  4  1  0  0  0
  2  6  1  0  0  0
  3  5  2  0  0  0
  3  6  1  0  0  0
 21 22  1  0  0  0
 13 14  1  0  0  0
 22 23  1  0  0  0
M  END
> <minimizedAffinity>
-9.16893

$$$$
3VHK_BPK_A_2001


 23 25  0  0  0  0  0  0  0  0999 V2000
  -25.7902   28.4490   12.6605 C   0  0  0  0  0  0  0  0  0  0  0  0
  -24.8301   27.4894   12.9014 C   0  0  0  0  0  0  0  0  0  0  0  0
  -23.9486   29.1665   11.9324 C   0  0  0  0  0  0  0  0  0  0  0  0
  -24.8259   26.1564   13.5203 C   0  0  0  0  0  0  0  0  0  0  0  0
  -25.2111   29.5227   12.0363 N   0  0  0  0  0  0  0  0  0  0  0  0
  -23.6388   27.9414   12.4369 O   0  0  0  0  0  0  0  0  0  0  0  0
  -20.7307   31.2222   10.2068 C   0  0  0  0  0  0  0  0  0  0  0  0
  -20.5536   29.9455   10.6867 C   0  0  0  0  0  0  0  0  0  0  0  0
  -21.9651   31.8261   10.3015 C   0  0  0  0  0  0  0  0  0  0  0  0
  -21.6139   29.2792   11.2572 C   0  0  0  0  0  0  0  0  0  0  0  0
  -23.0255   31.1572   10.8698 C   0  0  0  0  0  0  0  0  0  0  0  0
  -22.8490   29.8801   11.3484 C   0  0  0  0  0  0  0  0  0  0  0  0
  -27.2289   28.4338   12.9714 C   0  0  0  0  0  0  0  0  0  0  0  0
  -27.4567   28.3743   14.3747 O   0  0  0  0  0  0  0  0  0  0  0  0
  -30.1444   26.6546   16.1091 C   0  0  0  0  0  0  0  0  0  0  0  0
  -30.7654   26.0049   15.0648 C   0  0  0  0  0  0  0  0  0  0  0  0
  -29.0416   27.4426   15.8663 C   0  0  0  0  0  0  0  0  0  0  0  0
  -29.1877   26.9236   13.5317 C   0  0  0  0  0  0  0  0  0  0  0  0
  -30.2918   26.1358   13.7757 C   0  0  0  0  0  0  0  0  0  0  0  0
  -28.5702   27.5747   14.5790 C   0  0  0  0  0  0  0  0  0  0  0  0
  -30.9617   25.4383   12.6470 C   0  0  0  0  0  0  0  0  0  0  0  0
  -32.0282   24.6627   13.1689 O   0  0  0  0  0  0  0  0  0  0  0  0
  -31.6787   24.0186   13.8044 H   0  0  0  0  0  0  0  0  0  0  0  0
  7  8  2  0  0  0
  7  9  1  0  0  0
  8 10  1  0  0  0
  9 11  2  0  0  0
 15 16  2  0  0  0
 15 17  1  0  0  0
 10 12  2  0  0  0
 11 12  1  0  0  0
 16 19  1  0  0  0
 17 20  2  0  0  0
 18 19  2  0  0  0
 18 20  1  0  0  0
 12  3  1  0  0  0
 19 21  1  0  0  0
 20 14  1  0  0  0
  1  2  2  0  0  0
  1 13  1  0  0  0
  1  5  1  0  0  0
  2  4  1  0  0  0
  2  6  1  0  0  0
  3  5  2  0  0  0
  3  6  1  0  0  0
 21 22  1  0  0  0
 13 14  1  0  0  0
 22 23  1  0  0  0
M  END
> <minimizedAffinity>
-9.12973

$$$$
3VHK_BPK_A_2001


 23 25  0  0  0  0  0  0  0  0999 V2000
  -30.3982   25.6329   18.6545 C   0  0  0  0  0  0  0  0  0  0  0  0
  -30.2267   27.0006   18.6767 C   0  0  0  0  0  0  0  0  0  0  0  0
  -29.9018   26.2633   16.7070 C   0  0  0  0  0  0  0  0  0  0  0  0
  -30.3124   28.0417   19.7105 C   0  0  0  0  0  0  0  0  0  0  0  0
  -30.1860   25.1702   17.3822 N   0  0  0  0  0  0  0  0  0  0  0  0
  -29.9071   27.4182   17.4266 O   0  0  0  0  0  0  0  0  0  0  0  0
  -28.9685   26.7155   12.6471 C   0  0  0  0  0  0  0  0  0  0  0  0
  -30.1709   26.1609   13.0190 C   0  0  0  0  0  0  0  0  0  0  0  0
  -28.0692   27.1146   13.6111 C   0  0  0  0  0  0  0  0  0  0  0  0
  -30.4676   26.0105   14.3543 C   0  0  0  0  0  0  0  0  0  0  0  0
  -28.3686   26.9661   14.9465 C   0  0  0  0  0  0  0  0  0  0  0  0
  -29.5715   26.4129   15.3185 C   0  0  0  0  0  0  0  0  0  0  0  0
  -30.7463   24.7142   19.7507 C   0  0  0  0  0  0  0  0  0  0  0  0
  -31.2990   23.5001   19.2554 O   0  0  0  0  0  0  0  0  0  0  0  0
  -33.4826   23.4111   22.1560 C   0  0  0  0  0  0  0  0  0  0  0  0
  -33.7880   22.0691   22.2210 C   0  0  0  0  0  0  0  0  0  0  0  0
  -32.6514   23.8765   21.1618 C   0  0  0  0  0  0  0  0  0  0  0  0
  -32.4351   21.6500   20.3034 C   0  0  0  0  0  0  0  0  0  0  0  0
  -33.2677   21.1853   21.2983 C   0  0  0  0  0  0  0  0  0  0  0  0
  -32.1336   22.9943   20.2396 C   0  0  0  0  0  0  0  0  0  0  0  0
  -33.5980   19.7376   21.3646 C   0  0  0  0  0  0  0  0  0  0  0  0
  -34.4607   19.5248   22.4699 O   0  0  0  0  0  0  0  0  0  0  0  0
  -34.0176   19.8078   23.2851 H   0  0  0  0  0  0  0  0  0  0  0  0
  7  8  2  0  0  0
  7  9  1  0  0  0
  8 10  1  0  0  0
  9 11  2  0  0  0
 15 16  2  0  0  0
 15 17  1  0  0  0
 10 12  2  0  0  0
 11 12  1  0  0  0
 16 19  1  0  0  0
 17 20  2  0  0  0
 18 19  2  0  0  0
 18 20  1  0  0  0
 12  3  1  0  0  0
 19 21  1  0  0  0
 20 14  1  0  0  0
  1  2  2  0  0  0
  1 13  1  0  0  0
  1  5  1  0  0  0
  2  4  1  0  0  0
  2  6  1  0  0  0
  3  5  2  0  0  0
  3  6  1  0  0  0
 21 22  1  0  0  0
 13 14  1  0  0  0
 22 23  1  0  0  0
M  END
> <minimizedAffinity>
-9.10094

$$$$
3VHK_BPK_A_2001


 23 25  0  0  0  0  0  0  0  0999 V2000
  -30.7310   25.8080   19.0617 C   0  0  0  0  0  0  0  0  0  0  0  0
  -31.8766   25.4745   18.3711 C   0  0  0  0  0  0  0  0  0  0  0  0
  -30.3560   26.0670   17.0053 C   0  0  0  0  0  0  0  0  0  0  0  0
  -33.2178   25.0067   18.7481 C   0  0  0  0  0  0  0  0  0  0  0  0
  -29.7602   26.1880   18.1723 N   0  0  0  0  0  0  0  0  0  0  0  0
  -31.6464   25.6370   17.0445 O   0  0  0  0  0  0  0  0  0  0  0  0
  -28.8941   26.8694   13.1612 C   0  0  0  0  0  0  0  0  0  0  0  0
  -30.0495   26.1403   13.3195 C   0  0  0  0  0  0  0  0  0  0  0  0
  -28.2148   27.3283   14.2681 C   0  0  0  0  0  0  0  0  0  0  0  0
  -30.5201   25.8761   14.5853 C   0  0  0  0  0  0  0  0  0  0  0  0
  -28.6883   27.0657   15.5337 C   0  0  0  0  0  0  0  0  0  0  0  0
  -29.8444   26.3379   15.6922 C   0  0  0  0  0  0  0  0  0  0  0  0
  -30.4753   25.8014   20.5113 C   0  0  0  0  0  0  0  0  0  0  0  0
  -30.1761   24.4916   20.9801 O   0  0  0  0  0  0  0  0  0  0  0  0
  -33.2872   24.2568   22.8390 C   0  0  0  0  0  0  0  0  0  0  0  0
  -33.6804   22.9699   22.5428 C   0  0  0  0  0  0  0  0  0  0  0  0
  -32.1163   24.7534   22.3113 C   0  0  0  0  0  0  0  0  0  0  0  0
  -31.7383   22.6679   21.1937 C   0  0  0  0  0  0  0  0  0  0  0  0
  -32.9107   22.1722   21.7217 C   0  0  0  0  0  0  0  0  0  0  0  0
  -31.3490   23.9574   21.4901 C   0  0  0  0  0  0  0  0  0  0  0  0
  -33.3343   20.7846   21.3983 C   0  0  0  0  0  0  0  0  0  0  0  0
  -34.0786   20.2765   22.4933 O   0  0  0  0  0  0  0  0  0  0  0  0
  -33.5265   20.2839   23.2908 H   0  0  0  0  0  0  0  0  0  0  0  0
  7  8  2  0  0  0
  7  9  1  0  0  0
  8 10  1  0  0  0
  9 11  2  0  0  0
 15 16  2  0  0  0
 15 17  1  0  0  0
 10 12  2  0  0  0
 11 12  1  0  0  0
 16 19  1  0  0  0
 17 20  2  0  0  0
 18 19  2  0  0  0
 18 20  1  0  0  0
 12  3  1  0  0  0
 19 21  1  0  0  0
 20 14  1  0  0  0
  1  2  2  0  0  0
  1 13  1  0  0  0
  1  5  1  0  0  0
  2  4  1  0  0  0
  2  6  1  0  0  0
  3  5  2  0  0  0
  3  6  1  0  0  0
 21 22  1  0  0  0
 13 14  1  0  0  0
 22 23  1  0  0  0
M  END
> <minimizedAffinity>
-9.05612

$$$$
3VHK_BPK_A_2001


 23 25  0  0  0  0  0  0  0  0999 V2000
  -30.5374   25.8559   18.6488 C   0  0  0  0  0  0  0  0  0  0  0  0
  -30.4683   26.4086   19.9098 C   0  0  0  0  0  0  0  0  0  0  0  0
  -31.5851   24.5983   19.9743 C   0  0  0  0  0  0  0  0  0  0  0  0
  -29.8554   27.6151   20.4832 C   0  0  0  0  0  0  0  0  0  0  0  0
  -31.2588   24.6921   18.7030 N   0  0  0  0  0  0  0  0  0  0  0  0
  -31.1396   25.6060   20.7727 O   0  0  0  0  0  0  0  0  0  0  0  0
  -33.8158   21.6321   21.9196 C   0  0  0  0  0  0  0  0  0  0  0  0
  -33.1598   21.3411   20.7463 C   0  0  0  0  0  0  0  0  0  0  0  0
  -33.7444   22.9015   22.4495 C   0  0  0  0  0  0  0  0  0  0  0  0
  -32.4340   22.3222   20.1105 C   0  0  0  0  0  0  0  0  0  0  0  0
  -33.0156   23.8812   21.8138 C   0  0  0  0  0  0  0  0  0  0  0  0
  -32.3584   23.5900   20.6413 C   0  0  0  0  0  0  0  0  0  0  0  0
  -29.9748   26.3446   17.3793 C   0  0  0  0  0  0  0  0  0  0  0  0
  -30.8445   26.0723   16.2866 O   0  0  0  0  0  0  0  0  0  0  0  0
  -30.0798   26.2814   12.7424 C   0  0  0  0  0  0  0  0  0  0  0  0
  -28.7399   26.6008   12.7753 C   0  0  0  0  0  0  0  0  0  0  0  0
  -30.7712   26.1079   13.9205 C   0  0  0  0  0  0  0  0  0  0  0  0
  -28.7737   26.5742   15.1588 C   0  0  0  0  0  0  0  0  0  0  0  0
  -28.0828   26.7483   13.9792 C   0  0  0  0  0  0  0  0  0  0  0  0
  -30.1154   26.2571   15.1223 C   0  0  0  0  0  0  0  0  0  0  0  0
  -26.6381   27.0957   14.0173 C   0  0  0  0  0  0  0  0  0  0  0  0
  -25.8872   25.9179   13.7724 O   0  0  0  0  0  0  0  0  0  0  0  0
  -26.0934   25.2561   14.4509 H   0  0  0  0  0  0  0  0  0  0  0  0
  7  8  2  0  0  0
  7  9  1  0  0  0
  8 10  1  0  0  0
  9 11  2  0  0  0
 15 16  2  0  0  0
 15 17  1  0  0  0
 10 12  2  0  0  0
 11 12  1  0  0  0
 16 19  1  0  0  0
 17 20  2  0  0  0
 18 19  2  0  0  0
 18 20  1  0  0  0
 12  3  1  0  0  0
 19 21  1  0  0  0
 20 14  1  0  0  0
  1  2  2  0  0  0
  1 13  1  0  0  0
  1  5  1  0  0  0
  2  4  1  0  0  0
  2  6  1  0  0  0
  3  5  2  0  0  0
  3  6  1  0  0  0
 21 22  1  0  0  0
 13 14  1  0  0  0
 22 23  1  0  0  0
M  END
> <minimizedAffinity>
-8.95483

$$$$
