4K3N_1OT_A_1004


 21 22  0  0  0  0  0  0  0  0999 V2000
   85.6141   73.4974   31.1313 C   0  0  0  0  0  0  0  0  0  0  0  0
   84.7970   74.0620   32.0879 C   0  0  0  0  0  0  0  0  0  0  0  0
   83.6755   73.3837   32.5012 C   0  0  0  0  0  0  0  0  0  0  0  0
   83.3104   72.1468   31.9864 C   0  0  0  0  0  0  0  0  0  0  0  0
   84.1493   71.5992   31.0090 C   0  0  0  0  0  0  0  0  0  0  0  0
   85.2974   72.2648   30.5751 C   0  0  0  0  0  0  0  0  0  0  0  0
   82.2064   71.5628   32.4462 N   0  0  0  0  0  0  0  0  0  0  0  0
   82.1285   70.9433   33.6884 N   0  0  0  0  0  0  0  0  0  0  0  0
   80.8507   70.5067   33.7183 C   0  0  0  0  0  0  0  0  0  0  0  0
   80.2167   70.8516   32.5286 C   0  0  0  0  0  0  0  0  0  0  0  0
   81.0943   71.5379   31.7200 C   0  0  0  0  0  0  0  0  0  0  0  0
   86.7850   74.2902   30.7222 C   0  0  0  0  0  0  0  0  0  0  0  0
   86.4563   74.7844   29.4009 N   0  0  0  0  0  0  0  0  0  0  0  0
   86.2942   73.9964   28.7738 H   0  0  0  0  0  0  0  0  0  0  0  0
   87.2294   75.3475   29.0465 H   0  0  0  0  0  0  0  0  0  0  0  0
   89.3974   74.3007   30.8975 O   0  0  0  0  0  0  0  0  0  0  0  0
   88.3163   73.3248   30.6193 P   0  0  0  0  0  0  0  0  0  0  0  0
   88.4909   72.6643   29.1590 O   0  0  0  0  0  0  0  0  0  0  0  0
   88.3547   72.1579   31.7326 O   0  0  0  0  0  0  0  0  0  0  0  0
   90.2563   73.8515   30.8593 H   0  0  0  0  0  0  0  0  0  0  0  0
   89.3158   72.1547   29.1311 H   0  0  0  0  0  0  0  0  0  0  0  0
 19 17  2  0  0  0
 16 17  1  0  0  0
 17 18  1  0  0  0
 17 12  1  0  0  0
 13 12  1  0  0  0
 12  1  1  0  0  0
  1  2  2  0  0  0
  1  6  1  0  0  0
  2  3  1  0  0  0
  6  5  2  0  0  0
  3  4  2  0  0  0
  5  4  1  0  0  0
  4  7  1  0  0  0
  7 11  1  0  0  0
  7  8  1  0  0  0
 11 10  2  0  0  0
  8  9  2  0  0  0
 10  9  1  0  0  0
 16 20  1  0  0  0
 18 21  1  0  0  0
 13 14  1  0  0  0
 13 15  1  0  0  0
M  END
> <minimizedAffinity>
-7.44021

$$$$
4K3N_1OT_A_1004


 21 22  0  0  0  0  0  0  0  0999 V2000
   84.9030   73.6092   30.9224 C   0  0  0  0  0  0  0  0  0  0  0  0
   85.4020   72.4950   30.2815 C   0  0  0  0  0  0  0  0  0  0  0  0
   84.8093   71.2735   30.4946 C   0  0  0  0  0  0  0  0  0  0  0  0
   83.7265   71.0995   31.3462 C   0  0  0  0  0  0  0  0  0  0  0  0
   83.2448   72.2431   31.9938 C   0  0  0  0  0  0  0  0  0  0  0  0
   83.8250   73.4967   31.7910 C   0  0  0  0  0  0  0  0  0  0  0  0
   83.2165   69.8789   31.4921 N   0  0  0  0  0  0  0  0  0  0  0  0
   83.9662   68.7154   31.3614 N   0  0  0  0  0  0  0  0  0  0  0  0
   83.0497   67.7495   31.5880 C   0  0  0  0  0  0  0  0  0  0  0  0
   81.8108   68.3354   31.8287 C   0  0  0  0  0  0  0  0  0  0  0  0
   81.9297   69.7058   31.7730 C   0  0  0  0  0  0  0  0  0  0  0  0
   85.6010   74.8790   30.6631 C   0  0  0  0  0  0  0  0  0  0  0  0
   84.9597   75.4217   29.4831 N   0  0  0  0  0  0  0  0  0  0  0  0
   85.0638   74.7669   28.7080 H   0  0  0  0  0  0  0  0  0  0  0  0
   85.3954   76.3108   29.2379 H   0  0  0  0  0  0  0  0  0  0  0  0
   87.4303   74.0306   28.9929 O   0  0  0  0  0  0  0  0  0  0  0  0
   87.3711   74.6794   30.3250 P   0  0  0  0  0  0  0  0  0  0  0  0
   88.0789   73.7656   31.4488 O   0  0  0  0  0  0  0  0  0  0  0  0
   88.1234   76.1048   30.2553 O   0  0  0  0  0  0  0  0  0  0  0  0
   88.3568   73.8904   28.7424 H   0  0  0  0  0  0  0  0  0  0  0  0
   89.0228   73.6750   31.2445 H   0  0  0  0  0  0  0  0  0  0  0  0
 19 17  2  0  0  0
 16 17  1  0  0  0
 17 18  1  0  0  0
 17 12  1  0  0  0
 13 12  1  0  0  0
 12  1  1  0  0  0
  1  2  2  0  0  0
  1  6  1  0  0  0
  2  3  1  0  0  0
  6  5  2  0  0  0
  3  4  2  0  0  0
  5  4  1  0  0  0
  4  7  1  0  0  0
  7 11  1  0  0  0
  7  8  1  0  0  0
 11 10  2  0  0  0
  8  9  2  0  0  0
 10  9  1  0  0  0
 16 20  1  0  0  0
 18 21  1  0  0  0
 13 14  1  0  0  0
 13 15  1  0  0  0
M  END
> <minimizedAffinity>
-7.39498

$$$$
4K3N_1OT_A_1004


 21 22  0  0  0  0  0  0  0  0999 V2000
   85.8126   73.5204   31.0939 C   0  0  0  0  0  0  0  0  0  0  0  0
   85.3267   72.3844   30.4817 C   0  0  0  0  0  0  0  0  0  0  0  0
   84.1642   71.8152   30.9436 C   0  0  0  0  0  0  0  0  0  0  0  0
   83.4513   72.3253   32.0204 C   0  0  0  0  0  0  0  0  0  0  0  0
   83.9701   73.4724   32.6323 C   0  0  0  0  0  0  0  0  0  0  0  0
   85.1461   74.0735   32.1797 C   0  0  0  0  0  0  0  0  0  0  0  0
   82.3348   71.7077   32.3992 N   0  0  0  0  0  0  0  0  0  0  0  0
   81.1905   71.6441   31.6123 N   0  0  0  0  0  0  0  0  0  0  0  0
   80.3401   70.9381   32.3887 C   0  0  0  0  0  0  0  0  0  0  0  0
   80.9683   70.6163   33.5878 C   0  0  0  0  0  0  0  0  0  0  0  0
   82.2540   71.1085   33.5820 C   0  0  0  0  0  0  0  0  0  0  0  0
   87.0728   74.0619   30.5596 C   0  0  0  0  0  0  0  0  0  0  0  0
   86.7551   74.4804   29.2097 N   0  0  0  0  0  0  0  0  0  0  0  0
   86.4299   73.6768   28.6723 H   0  0  0  0  0  0  0  0  0  0  0  0
   87.5889   74.8691   28.7692 H   0  0  0  0  0  0  0  0  0  0  0  0
   89.6579   73.6480   30.6012 O   0  0  0  0  0  0  0  0  0  0  0  0
   88.4157   72.8455   30.4920 P   0  0  0  0  0  0  0  0  0  0  0  0
   88.3796   72.0148   29.1108 O   0  0  0  0  0  0  0  0  0  0  0  0
   88.3400   71.8131   31.7293 O   0  0  0  0  0  0  0  0  0  0  0  0
   90.4274   73.0582   30.5720 H   0  0  0  0  0  0  0  0  0  0  0  0
   89.1066   71.3727   29.1006 H   0  0  0  0  0  0  0  0  0  0  0  0
 19 17  2  0  0  0
 16 17  1  0  0  0
 17 18  1  0  0  0
 17 12  1  0  0  0
 13 12  1  0  0  0
 12  1  1  0  0  0
  1  2  2  0  0  0
  1  6  1  0  0  0
  2  3  1  0  0  0
  6  5  2  0  0  0
  3  4  2  0  0  0
  5  4  1  0  0  0
  4  7  1  0  0  0
  7 11  1  0  0  0
  7  8  1  0  0  0
 11 10  2  0  0  0
  8  9  2  0  0  0
 10  9  1  0  0  0
 16 20  1  0  0  0
 18 21  1  0  0  0
 13 14  1  0  0  0
 13 15  1  0  0  0
M  END
> <minimizedAffinity>
-7.11083

$$$$
4K3N_1OT_A_1004


 21 22  0  0  0  0  0  0  0  0999 V2000
   86.3891   73.5864   30.4188 C   0  0  0  0  0  0  0  0  0  0  0  0
   87.4566   74.4583   30.4561 C   0  0  0  0  0  0  0  0  0  0  0  0
   88.7256   73.9623   30.6360 C   0  0  0  0  0  0  0  0  0  0  0  0
   88.9896   72.6087   30.7986 C   0  0  0  0  0  0  0  0  0  0  0  0
   87.8890   71.7445   30.7681 C   0  0  0  0  0  0  0  0  0  0  0  0
   86.5902   72.2217   30.5816 C   0  0  0  0  0  0  0  0  0  0  0  0
   90.2507   72.2184   30.9674 N   0  0  0  0  0  0  0  0  0  0  0  0
   91.2674   73.0718   31.3808 N   0  0  0  0  0  0  0  0  0  0  0  0
   92.3424   72.2545   31.4090 C   0  0  0  0  0  0  0  0  0  0  0  0
   91.9614   70.9761   31.0131 C   0  0  0  0  0  0  0  0  0  0  0  0
   90.6123   70.9607   30.7390 C   0  0  0  0  0  0  0  0  0  0  0  0
   85.0582   74.1905   30.2446 C   0  0  0  0  0  0  0  0  0  0  0  0
   85.3193   75.5756   29.9107 N   0  0  0  0  0  0  0  0  0  0  0  0
   85.8391   76.0162   30.6697 H   0  0  0  0  0  0  0  0  0  0  0  0
   84.4348   76.0653   29.7753 H   0  0  0  0  0  0  0  0  0  0  0  0
   83.3021   75.4244   31.7445 O   0  0  0  0  0  0  0  0  0  0  0  0
   84.0333   74.1344   31.7393 P   0  0  0  0  0  0  0  0  0  0  0  0
   84.9413   73.9754   33.0619 O   0  0  0  0  0  0  0  0  0  0  0  0
   82.9708   72.9219   31.6815 O   0  0  0  0  0  0  0  0  0  0  0  0
   82.7269   75.4669   32.5244 H   0  0  0  0  0  0  0  0  0  0  0  0
   84.3697   73.9480   33.8451 H   0  0  0  0  0  0  0  0  0  0  0  0
 19 17  2  0  0  0
 16 17  1  0  0  0
 17 18  1  0  0  0
 17 12  1  0  0  0
 13 12  1  0  0  0
 12  1  1  0  0  0
  1  2  2  0  0  0
  1  6  1  0  0  0
  2  3  1  0  0  0
  6  5  2  0  0  0
  3  4  2  0  0  0
  5  4  1  0  0  0
  4  7  1  0  0  0
  7 11  1  0  0  0
  7  8  1  0  0  0
 11 10  2  0  0  0
  8  9  2  0  0  0
 10  9  1  0  0  0
 16 20  1  0  0  0
 18 21  1  0  0  0
 13 14  1  0  0  0
 13 15  1  0  0  0
M  END
> <minimizedAffinity>
-7.10798

$$$$
4K3N_1OT_A_1004


 21 22  0  0  0  0  0  0  0  0999 V2000
   88.1095   72.7217   30.8351 C   0  0  0  0  0  0  0  0  0  0  0  0
   87.6218   71.4904   30.4510 C   0  0  0  0  0  0  0  0  0  0  0  0
   88.1254   70.3538   31.0369 C   0  0  0  0  0  0  0  0  0  0  0  0
   89.1252   70.3821   32.0000 C   0  0  0  0  0  0  0  0  0  0  0  0
   89.6119   71.6426   32.3655 C   0  0  0  0  0  0  0  0  0  0  0  0
   89.1142   72.8130   31.7897 C   0  0  0  0  0  0  0  0  0  0  0  0
   89.5525   69.2307   32.5130 N   0  0  0  0  0  0  0  0  0  0  0  0
   89.1894   68.7731   33.7745 N   0  0  0  0  0  0  0  0  0  0  0  0
   89.8478   67.5968   33.8600 C   0  0  0  0  0  0  0  0  0  0  0  0
   90.5760   67.3891   32.6927 C   0  0  0  0  0  0  0  0  0  0  0  0
   90.3733   68.4415   31.8287 C   0  0  0  0  0  0  0  0  0  0  0  0
   87.5388   73.8928   30.1499 C   0  0  0  0  0  0  0  0  0  0  0  0
   88.4438   74.9812   30.4572 N   0  0  0  0  0  0  0  0  0  0  0  0
   88.4835   75.1153   31.4676 H   0  0  0  0  0  0  0  0  0  0  0  0
   88.1098   75.8367   30.0136 H   0  0  0  0  0  0  0  0  0  0  0  0
   84.9567   73.6340   29.8008 O   0  0  0  0  0  0  0  0  0  0  0  0
   85.8779   74.3349   30.7276 P   0  0  0  0  0  0  0  0  0  0  0  0
   85.6499   75.9301   30.6782 O   0  0  0  0  0  0  0  0  0  0  0  0
   85.6174   73.8123   32.2314 O   0  0  0  0  0  0  0  0  0  0  0  0
   84.0392   73.8256   30.0506 H   0  0  0  0  0  0  0  0  0  0  0  0
   84.7560   76.1388   30.9917 H   0  0  0  0  0  0  0  0  0  0  0  0
 19 17  2  0  0  0
 16 17  1  0  0  0
 17 18  1  0  0  0
 17 12  1  0  0  0
 13 12  1  0  0  0
 12  1  1  0  0  0
  1  2  2  0  0  0
  1  6  1  0  0  0
  2  3  1  0  0  0
  6  5  2  0  0  0
  3  4  2  0  0  0
  5  4  1  0  0  0
  4  7  1  0  0  0
  7 11  1  0  0  0
  7  8  1  0  0  0
 11 10  2  0  0  0
  8  9  2  0  0  0
 10  9  1  0  0  0
 16 20  1  0  0  0
 18 21  1  0  0  0
 13 14  1  0  0  0
 13 15  1  0  0  0
M  END
> <minimizedAffinity>
-7.02970

$$$$
4K3N_1OT_A_1004


 21 22  0  0  0  0  0  0  0  0999 V2000
   86.5467   73.3591   30.8895 C   0  0  0  0  0  0  0  0  0  0  0  0
   86.2016   72.1026   30.4385 C   0  0  0  0  0  0  0  0  0  0  0  0
   85.0117   71.5455   30.8417 C   0  0  0  0  0  0  0  0  0  0  0  0
   84.1330   72.1874   31.7042 C   0  0  0  0  0  0  0  0  0  0  0  0
   84.5102   73.4570   32.1572 C   0  0  0  0  0  0  0  0  0  0  0  0
   85.7108   74.0479   31.7590 C   0  0  0  0  0  0  0  0  0  0  0  0
   83.0024   71.5714   32.0413 N   0  0  0  0  0  0  0  0  0  0  0  0
   82.2769   71.8760   33.1874 N   0  0  0  0  0  0  0  0  0  0  0  0
   81.2366   71.0179   33.1121 C   0  0  0  0  0  0  0  0  0  0  0  0
   81.3643   70.2362   31.9681 C   0  0  0  0  0  0  0  0  0  0  0  0
   82.4989   70.6051   31.2813 C   0  0  0  0  0  0  0  0  0  0  0  0
   87.8447   73.8829   30.4336 C   0  0  0  0  0  0  0  0  0  0  0  0
   87.8325   73.7071   28.9959 N   0  0  0  0  0  0  0  0  0  0  0  0
   87.7247   72.7170   28.7754 H   0  0  0  0  0  0  0  0  0  0  0  0
   88.7099   74.0491   28.6041 H   0  0  0  0  0  0  0  0  0  0  0  0
   88.8661   72.6435   32.5016 O   0  0  0  0  0  0  0  0  0  0  0  0
   89.2684   72.9925   31.1177 P   0  0  0  0  0  0  0  0  0  0  0  0
   90.5899   73.9159   31.1117 O   0  0  0  0  0  0  0  0  0  0  0  0
   89.5690   71.6382   30.2945 O   0  0  0  0  0  0  0  0  0  0  0  0
   89.5863   72.1598   32.9354 H   0  0  0  0  0  0  0  0  0  0  0  0
   91.3348   73.4168   31.4818 H   0  0  0  0  0  0  0  0  0  0  0  0
 19 17  2  0  0  0
 16 17  1  0  0  0
 17 18  1  0  0  0
 17 12  1  0  0  0
 13 12  1  0  0  0
 12  1  1  0  0  0
  1  2  2  0  0  0
  1  6  1  0  0  0
  2  3  1  0  0  0
  6  5  2  0  0  0
  3  4  2  0  0  0
  5  4  1  0  0  0
  4  7  1  0  0  0
  7 11  1  0  0  0
  7  8  1  0  0  0
 11 10  2  0  0  0
  8  9  2  0  0  0
 10  9  1  0  0  0
 16 20  1  0  0  0
 18 21  1  0  0  0
 13 14  1  0  0  0
 13 15  1  0  0  0
M  END
> <minimizedAffinity>
-6.80629

$$$$
4K3N_1OT_A_1004


 21 22  0  0  0  0  0  0  0  0999 V2000
   89.2179   72.0894   31.2779 C   0  0  0  0  0  0  0  0  0  0  0  0
   89.6957   71.8890   32.5558 C   0  0  0  0  0  0  0  0  0  0  0  0
   89.6170   70.6364   33.1156 C   0  0  0  0  0  0  0  0  0  0  0  0
   89.0596   69.5494   32.4552 C   0  0  0  0  0  0  0  0  0  0  0  0
   88.5716   69.7801   31.1638 C   0  0  0  0  0  0  0  0  0  0  0  0
   88.6439   71.0415   30.5698 C   0  0  0  0  0  0  0  0  0  0  0  0
   89.0255   68.3724   33.0755 N   0  0  0  0  0  0  0  0  0  0  0  0
   90.0349   67.9219   33.9187 N   0  0  0  0  0  0  0  0  0  0  0  0
   89.5758   66.7116   34.3044 C   0  0  0  0  0  0  0  0  0  0  0  0
   88.3493   66.4669   33.6945 C   0  0  0  0  0  0  0  0  0  0  0  0
   87.9996   67.5444   32.9123 C   0  0  0  0  0  0  0  0  0  0  0  0
   89.3158   73.4607   30.7517 C   0  0  0  0  0  0  0  0  0  0  0  0
   90.0024   74.2076   31.7856 N   0  0  0  0  0  0  0  0  0  0  0  0
   89.4601   74.1707   32.6487 H   0  0  0  0  0  0  0  0  0  0  0  0
   90.1069   75.1786   31.4910 H   0  0  0  0  0  0  0  0  0  0  0  0
   87.4370   73.9882   29.0060 O   0  0  0  0  0  0  0  0  0  0  0  0
   87.7066   74.2370   30.4427 P   0  0  0  0  0  0  0  0  0  0  0  0
   87.7520   75.8169   30.7606 O   0  0  0  0  0  0  0  0  0  0  0  0
   86.5425   73.5554   31.3274 O   0  0  0  0  0  0  0  0  0  0  0  0
   86.5827   74.3792   28.7649 H   0  0  0  0  0  0  0  0  0  0  0  0
   86.8808   76.2067   30.5874 H   0  0  0  0  0  0  0  0  0  0  0  0
 19 17  2  0  0  0
 16 17  1  0  0  0
 17 18  1  0  0  0
 17 12  1  0  0  0
 13 12  1  0  0  0
 12  1  1  0  0  0
  1  2  2  0  0  0
  1  6  1  0  0  0
  2  3  1  0  0  0
  6  5  2  0  0  0
  3  4  2  0  0  0
  5  4  1  0  0  0
  4  7  1  0  0  0
  7 11  1  0  0  0
  7  8  1  0  0  0
 11 10  2  0  0  0
  8  9  2  0  0  0
 10  9  1  0  0  0
 16 20  1  0  0  0
 18 21  1  0  0  0
 13 14  1  0  0  0
 13 15  1  0  0  0
M  END
> <minimizedAffinity>
-6.72344

$$$$
4K3N_1OT_A_1004


 21 22  0  0  0  0  0  0  0  0999 V2000
   86.2127   72.1347   30.7470 C   0  0  0  0  0  0  0  0  0  0  0  0
   86.6137   70.8217   30.6178 C   0  0  0  0  0  0  0  0  0  0  0  0
   85.6897   69.8166   30.7750 C   0  0  0  0  0  0  0  0  0  0  0  0
   84.3560   70.0593   31.0758 C   0  0  0  0  0  0  0  0  0  0  0  0
   83.9752   71.3993   31.2129 C   0  0  0  0  0  0  0  0  0  0  0  0
   84.8926   72.4395   31.0532 C   0  0  0  0  0  0  0  0  0  0  0  0
   83.5314   69.0233   31.2104 N   0  0  0  0  0  0  0  0  0  0  0  0
   83.9091   67.8135   31.7818 N   0  0  0  0  0  0  0  0  0  0  0  0
   82.7740   67.0857   31.7038 C   0  0  0  0  0  0  0  0  0  0  0  0
   81.7789   67.8454   31.0964 C   0  0  0  0  0  0  0  0  0  0  0  0
   82.2732   69.0932   30.7900 C   0  0  0  0  0  0  0  0  0  0  0  0
   87.2603   73.1562   30.5868 C   0  0  0  0  0  0  0  0  0  0  0  0
   88.0367   73.0874   31.8076 N   0  0  0  0  0  0  0  0  0  0  0  0
   87.4334   73.2852   32.6059 H   0  0  0  0  0  0  0  0  0  0  0  0
   88.7890   73.7752   31.7714 H   0  0  0  0  0  0  0  0  0  0  0  0
   86.0597   75.1795   31.7359 O   0  0  0  0  0  0  0  0  0  0  0  0
   86.6118   74.8394   30.4024 P   0  0  0  0  0  0  0  0  0  0  0  0
   85.4692   74.9018   29.2669 O   0  0  0  0  0  0  0  0  0  0  0  0
   87.7820   75.8855   30.0296 O   0  0  0  0  0  0  0  0  0  0  0  0
   85.6908   76.0764   31.7140 H   0  0  0  0  0  0  0  0  0  0  0  0
   85.1402   75.8110   29.1888 H   0  0  0  0  0  0  0  0  0  0  0  0
 19 17  2  0  0  0
 16 17  1  0  0  0
 17 18  1  0  0  0
 17 12  1  0  0  0
 13 12  1  0  0  0
 12  1  1  0  0  0
  1  2  2  0  0  0
  1  6  1  0  0  0
  2  3  1  0  0  0
  6  5  2  0  0  0
  3  4  2  0  0  0
  5  4  1  0  0  0
  4  7  1  0  0  0
  7 11  1  0  0  0
  7  8  1  0  0  0
 11 10  2  0  0  0
  8  9  2  0  0  0
 10  9  1  0  0  0
 16 20  1  0  0  0
 18 21  1  0  0  0
 13 14  1  0  0  0
 13 15  1  0  0  0
M  END
> <minimizedAffinity>
-6.60286

$$$$
4K3N_1OT_A_1004


 21 22  0  0  0  0  0  0  0  0999 V2000
   87.5115   72.4183   30.5579 C   0  0  0  0  0  0  0  0  0  0  0  0
   86.8889   71.2577   30.1496 C   0  0  0  0  0  0  0  0  0  0  0  0
   87.5895   70.3467   29.3961 C   0  0  0  0  0  0  0  0  0  0  0  0
   88.9077   70.5452   29.0072 C   0  0  0  0  0  0  0  0  0  0  0  0
   89.5146   71.7355   29.4244 C   0  0  0  0  0  0  0  0  0  0  0  0
   88.8273   72.6752   30.1948 C   0  0  0  0  0  0  0  0  0  0  0  0
   89.5076   69.6081   28.2770 N   0  0  0  0  0  0  0  0  0  0  0  0
   90.8436   69.6716   27.8979 N   0  0  0  0  0  0  0  0  0  0  0  0
   91.0010   68.5333   27.1880 C   0  0  0  0  0  0  0  0  0  0  0  0
   89.7936   67.8429   27.1483 C   0  0  0  0  0  0  0  0  0  0  0  0
   88.8409   68.5380   27.8586 C   0  0  0  0  0  0  0  0  0  0  0  0
   86.6933   73.3567   31.3433 C   0  0  0  0  0  0  0  0  0  0  0  0
   85.4926   72.6169   31.6735 N   0  0  0  0  0  0  0  0  0  0  0  0
   85.0223   72.3312   30.8147 H   0  0  0  0  0  0  0  0  0  0  0  0
   84.8687   73.2087   32.2221 H   0  0  0  0  0  0  0  0  0  0  0  0
   85.2777   75.5593   31.3261 O   0  0  0  0  0  0  0  0  0  0  0  0
   86.2246   74.8517   30.4308 P   0  0  0  0  0  0  0  0  0  0  0  0
   85.5286   74.4811   29.0246 O   0  0  0  0  0  0  0  0  0  0  0  0
   87.5009   75.7984   30.1528 O   0  0  0  0  0  0  0  0  0  0  0  0
   84.9806   76.3784   30.9000 H   0  0  0  0  0  0  0  0  0  0  0  0
   85.2883   75.2967   28.5579 H   0  0  0  0  0  0  0  0  0  0  0  0
 19 17  2  0  0  0
 16 17  1  0  0  0
 17 18  1  0  0  0
 17 12  1  0  0  0
 13 12  1  0  0  0
 12  1  1  0  0  0
  1  2  2  0  0  0
  1  6  1  0  0  0
  2  3  1  0  0  0
  6  5  2  0  0  0
  3  4  2  0  0  0
  5  4  1  0  0  0
  4  7  1  0  0  0
  7 11  1  0  0  0
  7  8  1  0  0  0
 11 10  2  0  0  0
  8  9  2  0  0  0
 10  9  1  0  0  0
 16 20  1  0  0  0
 18 21  1  0  0  0
 13 14  1  0  0  0
 13 15  1  0  0  0
M  END
> <minimizedAffinity>
-6.36417

$$$$
4K3N_1OT_A_1004


 21 22  0  0  0  0  0  0  0  0999 V2000
   85.4629   72.6371   31.3364 C   0  0  0  0  0  0  0  0  0  0  0  0
   84.8920   71.4763   30.8590 C   0  0  0  0  0  0  0  0  0  0  0  0
   83.6509   71.0996   31.3136 C   0  0  0  0  0  0  0  0  0  0  0  0
   82.9385   71.8320   32.2538 C   0  0  0  0  0  0  0  0  0  0  0  0
   83.5433   73.0004   32.7317 C   0  0  0  0  0  0  0  0  0  0  0  0
   84.8007   73.4085   32.2827 C   0  0  0  0  0  0  0  0  0  0  0  0
   81.7425   71.3909   32.6365 N   0  0  0  0  0  0  0  0  0  0  0  0
   80.5842   71.5735   31.8896 N   0  0  0  0  0  0  0  0  0  0  0  0
   79.6454   70.9747   32.6541 C   0  0  0  0  0  0  0  0  0  0  0  0
   80.2398   70.4747   33.8087 C   0  0  0  0  0  0  0  0  0  0  0  0
   81.5904   70.7401   33.7845 C   0  0  0  0  0  0  0  0  0  0  0  0
   86.8020   72.9661   30.8212 C   0  0  0  0  0  0  0  0  0  0  0  0
   87.6715   72.9025   31.9779 N   0  0  0  0  0  0  0  0  0  0  0  0
   87.3580   73.5765   32.6763 H   0  0  0  0  0  0  0  0  0  0  0  0
   88.6271   73.1230   31.6974 H   0  0  0  0  0  0  0  0  0  0  0  0
   87.4925   74.4099   28.7488 O   0  0  0  0  0  0  0  0  0  0  0  0
   86.9148   74.6248   30.0975 P   0  0  0  0  0  0  0  0  0  0  0  0
   87.8561   75.5850   30.9869 O   0  0  0  0  0  0  0  0  0  0  0  0
   85.4594   75.3048   29.9497 O   0  0  0  0  0  0  0  0  0  0  0  0
   87.5835   75.2630   28.2964 H   0  0  0  0  0  0  0  0  0  0  0  0
   87.8992   76.4638   30.5786 H   0  0  0  0  0  0  0  0  0  0  0  0
 19 17  2  0  0  0
 16 17  1  0  0  0
 17 18  1  0  0  0
 17 12  1  0  0  0
 13 12  1  0  0  0
 12  1  1  0  0  0
  1  2  2  0  0  0
  1  6  1  0  0  0
  2  3  1  0  0  0
  6  5  2  0  0  0
  3  4  2  0  0  0
  5  4  1  0  0  0
  4  7  1  0  0  0
  7 11  1  0  0  0
  7  8  1  0  0  0
 11 10  2  0  0  0
  8  9  2  0  0  0
 10  9  1  0  0  0
 16 20  1  0  0  0
 18 21  1  0  0  0
 13 14  1  0  0  0
 13 15  1  0  0  0
M  END
> <minimizedAffinity>
-6.33669

$$$$
