5O9Q_9PH_A_604
  RCSB PDB05121802173D
Coordinates from PDB:5O9Q:A:604 Model:1 without hydrogens
 47 51  0  0  0  0            999 V2000
   -9.0410   17.3320   17.3070   C 0  0  0  0  0  0  0  0  0  0  0  0
   -9.5290   15.8860   17.3760   C 0  0  0  0  0  0  0  0  0  0  0  0
   -8.8020   14.9630   16.3810   C 0  0  0  0  0  0  0  0  0  0  0  0
   -9.7480   18.1690   18.3760   C 0  0  0  0  0  0  0  0  0  0  0  0
  -22.6510    9.1970   17.4400   C 0  0  0  0  0  0  0  0  0  0  0  0
  -22.8630    9.5320   16.0990   C 0  0  0  0  0  0  0  0  0  0  0  0
  -22.2120    8.8270   15.0880   C 0  0  0  0  0  0  0  0  0  0  0  0
  -21.3460    7.7860   15.4190   C 0  0  0  0  0  0  0  0  0  0  0  0
  -21.1390    7.4540   16.7600   C 0  0  0  0  0  0  0  0  0  0  0  0
  -21.7840    8.1530   17.7780   C 0  0  0  0  0  0  0  0  0  0  0  0
  -21.5530    7.7990   19.1120   C 0  0  0  0  0  0  0  0  0  0  0  0
  -20.2500    8.2550   19.4990   O 0  0  0  0  0  0  0  0  0  0  0  0
  -19.9190    7.9030   20.8430   C 0  0  0  0  0  0  0  0  0  0  0  0
  -18.7780    8.7910   21.3410   C 0  0  0  0  0  0  0  0  0  0  0  0
  -17.5540    8.4040   21.6500   C 0  0  0  0  0  0  0  0  0  0  0  0
  -18.8630   10.0970   21.5400   N 0  0  0  0  0  0  0  0  0  0  0  0
  -17.7670   10.4850   21.9480   N 0  0  0  0  0  0  0  0  0  0  0  0
  -16.9400    9.5230   22.0240   N 0  0  0  0  0  0  0  0  0  0  0  0
  -15.5620    9.6370   22.5080   C 0  0  0  0  0  0  0  0  0  0  0  0
  -14.8770   10.9430   22.1190   C 0  0  0  0  0  0  0  0  0  0  0  0
  -14.5530   10.8960   20.7270   O 0  0  0  0  0  0  0  0  0  0  0  0
  -15.7910    9.6120   23.9190   O 0  0  0  0  0  0  0  0  0  0  0  0
  -14.5810    9.6700   24.6850   C 0  0  0  0  0  0  0  0  0  0  0  0
  -14.9060    9.4560   26.1720   C 0  0  0  0  0  0  0  0  0  0  0  0
  -16.2000    9.9670   26.4540   O 0  0  0  0  0  0  0  0  0  0  0  0
  -13.9090   11.0100   24.4290   C 0  0  0  0  0  0  0  0  0  0  0  0
  -12.6830   11.0970   25.1720   O 0  0  0  0  0  0  0  0  0  0  0  0
  -13.6040   11.1290   22.9430   C 0  0  0  0  0  0  0  0  0  0  0  0
  -13.0890   12.4500   22.7160   O 0  0  0  0  0  0  0  0  0  0  0  0
  -11.8730   12.5020   21.9840   C 0  0  0  0  0  0  0  0  0  0  0  0
  -11.5380   13.9680   21.7590   C 0  0  0  0  0  0  0  0  0  0  0  0
  -12.5780   14.5810   20.9780   O 0  0  0  0  0  0  0  0  0  0  0  0
  -10.8430   11.8960   22.7660   O 0  0  0  0  0  0  0  0  0  0  0  0
   -9.5720   11.8870   22.0990   C 0  0  0  0  0  0  0  0  0  0  0  0
   -8.5980   11.1630   23.0330   C 0  0  0  0  0  0  0  0  0  0  0  0
   -8.4930   11.8610   24.2780   O 0  0  0  0  0  0  0  0  0  0  0  0
   -9.1180   13.3290   21.8210   C 0  0  0  0  0  0  0  0  0  0  0  0
   -7.9070   13.2980   21.0500   O 0  0  0  0  0  0  0  0  0  0  0  0
  -10.1940   14.0810   21.0460   C 0  0  0  0  0  0  0  0  0  0  0  0
   -9.8140   15.4630   20.9690   O 0  0  0  0  0  0  0  0  0  0  0  0
  -10.0430   16.0670   19.6860   C 0  0  0  0  0  0  0  0  0  0  0  0
   -9.2600   15.3940   18.6930   O 0  0  0  0  0  0  0  0  0  0  0  0
   -7.4250   14.8240   16.7500   O 0  0  0  0  0  0  0  0  0  0  0  0
   -9.3340   17.8850   16.0180   O 0  0  0  0  0  0  0  0  0  0  0  0
   -9.1590   19.4750   18.4140   O 0  0  0  0  0  0  0  0  0  0  0  0
   -9.6140   17.5250   19.7530   C 0  0  0  0  0  0  0  0  0  0  0  0
  -10.4310   18.2370   20.6840   O 0  0  0  0  0  0  0  0  0  0  0  0
  7  8  2  0  0  0  0
  7  6  1  0  0  0  0
  8  9  1  0  0  0  0
 44  1  1  0  0  0  0
  6  5  2  0  0  0  0
  3 43  1  0  0  0  0
  3  2  1  0  0  0  0
  9 10  2  0  0  0  0
  1  2  1  0  0  0  0
  1  4  1  0  0  0  0
  2 42  1  0  0  0  0
  5 10  1  0  0  0  0
 10 11  1  0  0  0  0
  4 45  1  0  0  0  0
  4 46  1  0  0  0  0
 42 41  1  0  0  0  0
 11 12  1  0  0  0  0
 12 13  1  0  0  0  0
 41 46  1  0  0  0  0
 41 40  1  0  0  0  0
 46 47  1  0  0  0  0
 21 20  1  0  0  0  0
 13 14  1  0  0  0  0
 40 39  1  0  0  0  0
 32 31  1  0  0  0  0
 39 31  1  0  0  0  0
 39 37  1  0  0  0  0
 38 37  1  0  0  0  0
 14 16  1  0  0  0  0
 14 15  2  0  0  0  0
 16 17  2  0  0  0  0
 15 18  1  0  0  0  0
 31 30  1  0  0  0  0
 37 34  1  0  0  0  0
 17 18  1  0  0  0  0
 30 29  1  0  0  0  0
 30 33  1  0  0  0  0
 18 19  1  0  0  0  0
 34 33  1  0  0  0  0
 34 35  1  0  0  0  0
 20 19  1  0  0  0  0
 20 28  1  0  0  0  0
 19 22  1  0  0  0  0
 29 28  1  0  0  0  0
 28 26  1  0  0  0  0
 35 36  1  0  0  0  0
 22 23  1  0  0  0  0
 26 23  1  0  0  0  0
 26 27  1  0  0  0  0
 23 24  1  0  0  0  0
 24 25  1  0  0  0  0
A    1
C4
A    2
C5
A    3
C6
A    4
C3
A    5
CBQ
A    6
CBS
A    7
CBV
A    8
CBT
A    9
CBR
A   10
CBP
A   11
CBN
A   12
OBO
A   13
CBM
A   14
CBI
A   15
CBH
A   16
NBL
A   17
NBK
A   18
NBJ
A   19
CAM
A   20
CAL
A   21
OBB
A   22
OBE
A   23
CAN
A   24
CAR
A   25
OAU
A   26
CAO
A   27
OBA
A   28
CAK
A   29
OBG
A   30
CAH
A   31
CAG
A   32
OAZ
A   33
OBD
A   34
CAI
A   35
CAQ
A   36
OAT
A   37
CAJ
A   38
OAY
A   39
CAF
A   40
O1
A   41
C1
A   42
O5
A   43
O6
A   44
O4
A   45
O3
A   46
C2
A   47
O2
M  END
>  <InstanceId>
5O9Q_9PH_A_604

>  <ChemCompId>
9PH

>  <PdbId>
5O9Q

>  <ChainId>
A

>  <ResidueNumber>
604

>  <InsertionCode>


>  <Model>
1

>  <AltIds>


>  <MissingHeavyAtoms>
0

>  <ObservedFormula>
C28 N3 O16

>  <Name>
(2~{R},3~{S},4~{S},5~{R},6~{S})-2-(hydroxymethyl)-6-[(2~{R},3~{R},4~{S},5~{R},6~{S})-2-(hydroxymethyl)-6-[(2~{R},3~{R},4~{S},5~{R},6~{R})-2-(hydroxymethyl)-3,5-bis(oxidanyl)-6-[4-(phenylmethoxymethyl)-1,2,3-triazol-1-yl]oxan-4-yl]oxy-3,5-bis(oxidanyl)oxan-4-yl]oxy-oxane-3,4,5-triol

>  <SystematicName>
(2~{R},3~{S},4~{S},5~{R},6~{S})-2-(hydroxymethyl)-6-[(2~{R},3~{R},4~{S},5~{R},6~{S})-2-(hydroxymethyl)-6-[(2~{R},3~{R},4~{S},5~{R},6~{R})-2-(hydroxymethyl)-3,5-bis(oxidanyl)-6-[4-(phenylmethoxymethyl)-1,2,3-triazol-1-yl]oxan-4-yl]oxy-3,5-bis(oxidanyl)oxan-4-yl]oxy-oxane-3,4,5-triol

>  <Synonyms>


>  <Type>
NON-POLYMER

>  <Formula>
C28 H41 N3 O16

>  <MolecularWeight>
675.636

>  <ModifiedDate>
2018-04-27

>  <Parent>


>  <OneLetterCode>


>  <SubcomponentList>


>  <AmbiguousFlag>
N

>  <InChI>
InChI=1S/C28H41N3O16/c32-7-14-17(35)20(38)21(39)27(44-14)47-25-19(37)16(9-34)45-28(23(25)41)46-24-18(36)15(8-33)43-26(22(24)40)31-6-13(29-30-31)11-42-10-12-4-2-1-3-5-12/h1-6,14-28,32-41H,7-11H2/t14-,15-,16-,17-,18-,19-,20+,21-,22-,23-,24+,25+,26-,27+,28+/m1/s1

>  <InChIKey>
CUNJJKLJJLQYMH-ZJLPYKFYSA-N

>  <SMILES>
c1ccc(cc1)COCc2cn(nn2)[C@H]3[C@@H]([C@H]([C@@H]([C@H](O3)CO)O)O[C@H]4[C@@H]([C@H]([C@@H]([C@H](O4)CO)O)O[C@H]5[C@@H]([C@H]([C@@H]([C@H](O5)CO)O)O)O)O)O

$$$$
