5O9Q_9PH_A_604


 57 61  0  0  0  0  0  0  0  0999 V2000
  -12.0745   12.3876   21.7937 C   0  0  0  0  0  0  0  0  0  0  0  0
  -11.6679   13.8461   21.6543 C   0  0  0  0  0  0  0  0  0  0  0  0
  -12.6815   14.5564   20.9225 O   0  0  0  0  0  0  0  0  0  0  0  0
  -11.0705   11.6846   22.5270 O   0  0  0  0  0  0  0  0  0  0  0  0
   -9.8065   11.6531   21.8475 C   0  0  0  0  0  0  0  0  0  0  0  0
   -9.2827   13.0850   21.6525 C   0  0  0  0  0  0  0  0  0  0  0  0
   -8.0804   13.0408   20.8685 O   0  0  0  0  0  0  0  0  0  0  0  0
  -10.3252   13.9353   20.9355 C   0  0  0  0  0  0  0  0  0  0  0  0
  -12.7808   14.1621   20.0419 H   0  0  0  0  0  0  0  0  0  0  0  0
   -8.2726   12.6453   20.0039 H   0  0  0  0  0  0  0  0  0  0  0  0
   -8.8633   10.8261   22.7259 C   0  0  0  0  0  0  0  0  0  0  0  0
   -7.8506   11.6639   23.2922 O   0  0  0  0  0  0  0  0  0  0  0  0
   -7.3347   12.0737   22.5803 H   0  0  0  0  0  0  0  0  0  0  0  0
  -13.2862   12.3516   22.5338 O   0  0  0  0  0  0  0  0  0  0  0  0
  -15.7417    9.5159   22.5052 C   0  0  0  0  0  0  0  0  0  0  0  0
  -15.0816   10.8133   22.0499 C   0  0  0  0  0  0  0  0  0  0  0  0
  -14.8066   10.7230   20.6496 O   0  0  0  0  0  0  0  0  0  0  0  0
  -15.9205    9.5354   23.9235 O   0  0  0  0  0  0  0  0  0  0  0  0
  -14.6848    9.6270   24.6437 C   0  0  0  0  0  0  0  0  0  0  0  0
  -14.0333   10.9626   24.3207 C   0  0  0  0  0  0  0  0  0  0  0  0
  -12.7826   11.0826   25.0164 O   0  0  0  0  0  0  0  0  0  0  0  0
  -13.7819   11.0351   22.8217 C   0  0  0  0  0  0  0  0  0  0  0  0
  -14.2127    9.9741   20.4843 H   0  0  0  0  0  0  0  0  0  0  0  0
  -12.1905   10.3645   24.7432 H   0  0  0  0  0  0  0  0  0  0  0  0
  -18.9221    8.6748   21.2411 C   0  0  0  0  0  0  0  0  0  0  0  0
  -17.6336    8.3984   21.3234 C   0  0  0  0  0  0  0  0  0  0  0  0
  -19.1548    9.7789   21.9333 N   0  0  0  0  0  0  0  0  0  0  0  0
  -18.0827   10.1527   22.4121 N   0  0  0  0  0  0  0  0  0  0  0  0
  -17.1349    9.3763   22.0745 N   0  0  0  0  0  0  0  0  0  0  0  0
  -19.9829    7.8712   20.4878 C   0  0  0  0  0  0  0  0  0  0  0  0
  -19.4715    7.4760   19.2142 O   0  0  0  0  0  0  0  0  0  0  0  0
  -19.7349    8.4417   18.1878 C   0  0  0  0  0  0  0  0  0  0  0  0
  -20.2268    7.7617   15.8962 C   0  0  0  0  0  0  0  0  0  0  0  0
  -21.1059    7.1930   14.9693 C   0  0  0  0  0  0  0  0  0  0  0  0
  -22.3588    6.7385   15.3775 C   0  0  0  0  0  0  0  0  0  0  0  0
  -22.7324    6.8514   16.7157 C   0  0  0  0  0  0  0  0  0  0  0  0
  -21.8513    7.4219   17.6375 C   0  0  0  0  0  0  0  0  0  0  0  0
  -20.5965    7.8784   17.2399 C   0  0  0  0  0  0  0  0  0  0  0  0
  -14.9553    9.4595   26.1475 C   0  0  0  0  0  0  0  0  0  0  0  0
  -14.7967   10.7096   26.8011 O   0  0  0  0  0  0  0  0  0  0  0  0
  -13.8904   11.0299   26.6706 H   0  0  0  0  0  0  0  0  0  0  0  0
   -9.8768   15.2988   20.9382 O   0  0  0  0  0  0  0  0  0  0  0  0
   -8.8149   17.2673   17.4029 C   0  0  0  0  0  0  0  0  0  0  0  0
   -9.3797   15.8480   17.3856 C   0  0  0  0  0  0  0  0  0  0  0  0
   -9.5337   18.0980   18.4690 C   0  0  0  0  0  0  0  0  0  0  0  0
  -10.0058   15.9646   19.6720 C   0  0  0  0  0  0  0  0  0  0  0  0
   -9.2069   15.2904   18.6926 O   0  0  0  0  0  0  0  0  0  0  0  0
   -9.0101   17.8859   16.1252 O   0  0  0  0  0  0  0  0  0  0  0  0
   -8.8810   19.3680   18.5923 O   0  0  0  0  0  0  0  0  0  0  0  0
   -9.5064   17.3937   19.8225 C   0  0  0  0  0  0  0  0  0  0  0  0
  -10.3340   18.1111   20.7399 O   0  0  0  0  0  0  0  0  0  0  0  0
   -9.9589   17.9281   15.9280 H   0  0  0  0  0  0  0  0  0  0  0  0
   -7.9595   19.2330   18.8635 H   0  0  0  0  0  0  0  0  0  0  0  0
  -11.2435   18.1358   20.4037 H   0  0  0  0  0  0  0  0  0  0  0  0
   -8.6494   14.9274   16.3908 C   0  0  0  0  0  0  0  0  0  0  0  0
   -8.8887   15.3617   15.0470 O   0  0  0  0  0  0  0  0  0  0  0  0
   -8.5583   16.2669   14.9361 H   0  0  0  0  0  0  0  0  0  0  0  0
 35 36  2  0  0  0
 35 34  1  0  0  0
 36 37  1  0  0  0
 48 43  1  0  0  0
 34 33  2  0  0  0
 55 56  1  0  0  0
 55 44  1  0  0  0
 37 38  2  0  0  0
 43 44  1  0  0  0
 43 45  1  0  0  0
 44 47  1  0  0  0
 33 38  1  0  0  0
 38 32  1  0  0  0
 45 49  1  0  0  0
 45 50  1  0  0  0
 47 46  1  0  0  0
 32 31  1  0  0  0
 31 30  1  0  0  0
 46 50  1  0  0  0
 46 42  1  0  0  0
 50 51  1  0  0  0
 17 16  1  0  0  0
 30 25  1  0  0  0
 42  8  1  0  0  0
  3  2  1  0  0  0
  8  2  1  0  0  0
  8  6  1  0  0  0
  7  6  1  0  0  0
 25 27  1  0  0  0
 25 26  2  0  0  0
 27 28  2  0  0  0
 26 29  1  0  0  0
  2  1  1  0  0  0
  6  5  1  0  0  0
 28 29  1  0  0  0
  1 14  1  0  0  0
  1  4  1  0  0  0
 29 15  1  0  0  0
  5  4  1  0  0  0
  5 11  1  0  0  0
 16 15  1  0  0  0
 16 22  1  0  0  0
 15 18  1  0  0  0
 14 22  1  0  0  0
 22 20  1  0  0  0
 11 12  1  0  0  0
 18 19  1  0  0  0
 20 19  1  0  0  0
 20 21  1  0  0  0
 19 39  1  0  0  0
 39 40  1  0  0  0
 17 23  1  0  0  0
 40 41  1  0  0  0
 21 24  1  0  0  0
  3  9  1  0  0  0
 12 13  1  0  0  0
  7 10  1  0  0  0
 56 57  1  0  0  0
 48 52  1  0  0  0
 49 53  1  0  0  0
 51 54  1  0  0  0
M  END
> <minimizedAffinity>
-10.64647

$$$$
5O9Q_9PH_A_604


 57 61  0  0  0  0  0  0  0  0999 V2000
  -11.7794   12.0274   21.1751 C   0  0  0  0  0  0  0  0  0  0  0  0
  -11.7883   12.8338   19.8860 C   0  0  0  0  0  0  0  0  0  0  0  0
  -12.7554   12.2755   18.9803 O   0  0  0  0  0  0  0  0  0  0  0  0
  -10.8237   12.5873   22.0767 O   0  0  0  0  0  0  0  0  0  0  0  0
   -9.4790   12.5071   21.5807 C   0  0  0  0  0  0  0  0  0  0  0  0
   -9.3582   13.2992   20.2690 C   0  0  0  0  0  0  0  0  0  0  0  0
   -8.0420   13.1095   19.7272 O   0  0  0  0  0  0  0  0  0  0  0  0
  -10.3959   12.8153   19.2626 C   0  0  0  0  0  0  0  0  0  0  0  0
  -12.5215   11.3546   18.7849 H   0  0  0  0  0  0  0  0  0  0  0  0
   -7.8977   12.1666   19.5510 H   0  0  0  0  0  0  0  0  0  0  0  0
   -8.5790   13.0914   22.6733 C   0  0  0  0  0  0  0  0  0  0  0  0
   -7.8730   12.0445   23.3470 O   0  0  0  0  0  0  0  0  0  0  0  0
   -8.5089   11.4381   23.7579 H   0  0  0  0  0  0  0  0  0  0  0  0
  -13.0707   12.1379   21.7560 O   0  0  0  0  0  0  0  0  0  0  0  0
  -15.6522    9.4666   22.2772 C   0  0  0  0  0  0  0  0  0  0  0  0
  -14.9562   10.6401   21.5956 C   0  0  0  0  0  0  0  0  0  0  0  0
  -14.7538   10.3176   20.2172 O   0  0  0  0  0  0  0  0  0  0  0  0
  -15.7610    9.7170   23.6806 O   0  0  0  0  0  0  0  0  0  0  0  0
  -14.4889    9.8546   24.3263 C   0  0  0  0  0  0  0  0  0  0  0  0
  -13.7932   11.0869   23.7694 C   0  0  0  0  0  0  0  0  0  0  0  0
  -12.5061   11.2477   24.3859 O   0  0  0  0  0  0  0  0  0  0  0  0
  -13.6118   10.9107   22.2689 C   0  0  0  0  0  0  0  0  0  0  0  0
  -14.2036    9.5217   20.1487 H   0  0  0  0  0  0  0  0  0  0  0  0
  -11.9615   10.4654   24.2062 H   0  0  0  0  0  0  0  0  0  0  0  0
  -18.9048    8.6530   21.1912 C   0  0  0  0  0  0  0  0  0  0  0  0
  -17.6133    8.3785   21.1841 C   0  0  0  0  0  0  0  0  0  0  0  0
  -19.0949    9.7355   21.9292 N   0  0  0  0  0  0  0  0  0  0  0  0
  -17.9953   10.0984   22.3506 N   0  0  0  0  0  0  0  0  0  0  0  0
  -17.0696    9.3354   21.9310 N   0  0  0  0  0  0  0  0  0  0  0  0
  -20.0098    7.8687   20.4826 C   0  0  0  0  0  0  0  0  0  0  0  0
  -19.5880    7.5328   19.1601 O   0  0  0  0  0  0  0  0  0  0  0  0
  -20.1737    8.3776   18.1607 C   0  0  0  0  0  0  0  0  0  0  0  0
  -18.5118    7.6495   16.5288 C   0  0  0  0  0  0  0  0  0  0  0  0
  -18.2063    7.1556   15.2567 C   0  0  0  0  0  0  0  0  0  0  0  0
  -19.2250    6.8955   14.3415 C   0  0  0  0  0  0  0  0  0  0  0  0
  -20.5519    7.1281   14.6999 C   0  0  0  0  0  0  0  0  0  0  0  0
  -20.8517    7.6232   15.9713 C   0  0  0  0  0  0  0  0  0  0  0  0
  -19.8411    7.8856   16.8936 C   0  0  0  0  0  0  0  0  0  0  0  0
  -14.6936    9.9387   25.8474 C   0  0  0  0  0  0  0  0  0  0  0  0
  -15.5839    8.9148   26.2645 O   0  0  0  0  0  0  0  0  0  0  0  0
  -16.4376    9.0269   25.8179 H   0  0  0  0  0  0  0  0  0  0  0  0
  -10.3731   13.6963   18.1297 O   0  0  0  0  0  0  0  0  0  0  0  0
  -10.6988   17.8557   17.8222 C   0  0  0  0  0  0  0  0  0  0  0  0
  -11.5259   17.0645   18.8340 C   0  0  0  0  0  0  0  0  0  0  0  0
   -9.2909   17.2624   17.7269 C   0  0  0  0  0  0  0  0  0  0  0  0
  -10.2638   15.0883   18.4672 C   0  0  0  0  0  0  0  0  0  0  0  0
  -11.5577   15.6996   18.4040 O   0  0  0  0  0  0  0  0  0  0  0  0
  -10.5973   19.2233   18.2377 O   0  0  0  0  0  0  0  0  0  0  0  0
   -8.5847   17.9014   16.6560 O   0  0  0  0  0  0  0  0  0  0  0  0
   -9.3463   15.7614   17.4575 C   0  0  0  0  0  0  0  0  0  0  0  0
   -8.0275   15.2201   17.5523 O   0  0  0  0  0  0  0  0  0  0  0  0
  -10.1604   19.2668   19.1026 H   0  0  0  0  0  0  0  0  0  0  0  0
   -9.0523   17.7438   15.8209 H   0  0  0  0  0  0  0  0  0  0  0  0
   -7.6761   15.3787   18.4424 H   0  0  0  0  0  0  0  0  0  0  0  0
  -12.9829   17.5536   18.9261 C   0  0  0  0  0  0  0  0  0  0  0  0
  -13.3727   18.1817   17.6992 O   0  0  0  0  0  0  0  0  0  0  0  0
  -13.3024   17.5431   16.9725 H   0  0  0  0  0  0  0  0  0  0  0  0
 35 36  2  0  0  0
 35 34  1  0  0  0
 36 37  1  0  0  0
 48 43  1  0  0  0
 34 33  2  0  0  0
 55 56  1  0  0  0
 55 44  1  0  0  0
 37 38  2  0  0  0
 43 44  1  0  0  0
 43 45  1  0  0  0
 44 47  1  0  0  0
 33 38  1  0  0  0
 38 32  1  0  0  0
 45 49  1  0  0  0
 45 50  1  0  0  0
 47 46  1  0  0  0
 32 31  1  0  0  0
 31 30  1  0  0  0
 46 50  1  0  0  0
 46 42  1  0  0  0
 50 51  1  0  0  0
 17 16  1  0  0  0
 30 25  1  0  0  0
 42  8  1  0  0  0
  3  2  1  0  0  0
  8  2  1  0  0  0
  8  6  1  0  0  0
  7  6  1  0  0  0
 25 27  1  0  0  0
 25 26  2  0  0  0
 27 28  2  0  0  0
 26 29  1  0  0  0
  2  1  1  0  0  0
  6  5  1  0  0  0
 28 29  1  0  0  0
  1 14  1  0  0  0
  1  4  1  0  0  0
 29 15  1  0  0  0
  5  4  1  0  0  0
  5 11  1  0  0  0
 16 15  1  0  0  0
 16 22  1  0  0  0
 15 18  1  0  0  0
 14 22  1  0  0  0
 22 20  1  0  0  0
 11 12  1  0  0  0
 18 19  1  0  0  0
 20 19  1  0  0  0
 20 21  1  0  0  0
 19 39  1  0  0  0
 39 40  1  0  0  0
 17 23  1  0  0  0
 40 41  1  0  0  0
 21 24  1  0  0  0
  3  9  1  0  0  0
 12 13  1  0  0  0
  7 10  1  0  0  0
 56 57  1  0  0  0
 48 52  1  0  0  0
 49 53  1  0  0  0
 51 54  1  0  0  0
M  END
> <minimizedAffinity>
-10.43666

$$$$
5O9Q_9PH_A_604


 57 61  0  0  0  0  0  0  0  0999 V2000
   -9.8095   15.5612   19.7830 C   0  0  0  0  0  0  0  0  0  0  0  0
   -9.4911   17.0436   19.6683 C   0  0  0  0  0  0  0  0  0  0  0  0
  -10.4170   17.7943   20.4723 O   0  0  0  0  0  0  0  0  0  0  0  0
   -8.8847   14.8160   18.9899 O   0  0  0  0  0  0  0  0  0  0  0  0
   -8.9916   15.1101   17.5890 C   0  0  0  0  0  0  0  0  0  0  0  0
   -8.6810   16.5952   17.3421 C   0  0  0  0  0  0  0  0  0  0  0  0
   -8.9087   16.8970   15.9569 O   0  0  0  0  0  0  0  0  0  0  0  0
   -9.5784   17.4730   18.2070 C   0  0  0  0  0  0  0  0  0  0  0  0
  -11.3212   17.6321   20.1608 H   0  0  0  0  0  0  0  0  0  0  0  0
   -9.8361   16.7185   15.7353 H   0  0  0  0  0  0  0  0  0  0  0  0
   -7.9850   14.2013   16.8777 C   0  0  0  0  0  0  0  0  0  0  0  0
   -7.7300   13.0327   17.6636 O   0  0  0  0  0  0  0  0  0  0  0  0
   -7.3617   13.2943   18.5220 H   0  0  0  0  0  0  0  0  0  0  0  0
   -9.6402   15.1928   21.1442 O   0  0  0  0  0  0  0  0  0  0  0  0
  -11.8558   13.0446   23.2769 C   0  0  0  0  0  0  0  0  0  0  0  0
  -11.2754   14.3294   22.6951 C   0  0  0  0  0  0  0  0  0  0  0  0
  -12.3495   15.1491   22.2270 O   0  0  0  0  0  0  0  0  0  0  0  0
  -10.7964   12.1582   23.6456 O   0  0  0  0  0  0  0  0  0  0  0  0
   -9.9851   11.7601   22.5331 C   0  0  0  0  0  0  0  0  0  0  0  0
   -9.2816   12.9903   21.9814 C   0  0  0  0  0  0  0  0  0  0  0  0
   -8.4686   12.6295   20.8538 O   0  0  0  0  0  0  0  0  0  0  0  0
  -10.3323   13.9984   21.5396 C   0  0  0  0  0  0  0  0  0  0  0  0
  -12.8465   14.6719   21.5442 H   0  0  0  0  0  0  0  0  0  0  0  0
   -9.0285   12.2448   20.1614 H   0  0  0  0  0  0  0  0  0  0  0  0
  -13.0413   13.0703   26.5957 C   0  0  0  0  0  0  0  0  0  0  0  0
  -12.2575   12.5249   25.6838 C   0  0  0  0  0  0  0  0  0  0  0  0
  -13.7134   14.0593   26.0274 N   0  0  0  0  0  0  0  0  0  0  0  0
  -13.3626   14.1201   24.8478 N   0  0  0  0  0  0  0  0  0  0  0  0
  -12.5038   13.2228   24.5786 N   0  0  0  0  0  0  0  0  0  0  0  0
  -13.1652   12.6538   28.0618 C   0  0  0  0  0  0  0  0  0  0  0  0
  -12.4373   13.5673   28.8837 O   0  0  0  0  0  0  0  0  0  0  0  0
  -13.2667   14.2222   29.8526 C   0  0  0  0  0  0  0  0  0  0  0  0
  -12.4280   16.2153   28.7212 C   0  0  0  0  0  0  0  0  0  0  0  0
  -12.5722   17.5673   28.3946 C   0  0  0  0  0  0  0  0  0  0  0  0
  -13.6725   18.2876   28.8567 C   0  0  0  0  0  0  0  0  0  0  0  0
  -14.6313   17.6539   29.6455 C   0  0  0  0  0  0  0  0  0  0  0  0
  -14.4818   16.3036   29.9706 C   0  0  0  0  0  0  0  0  0  0  0  0
  -13.3863   15.5745   29.5130 C   0  0  0  0  0  0  0  0  0  0  0  0
   -8.9938   10.6758   22.9849 C   0  0  0  0  0  0  0  0  0  0  0  0
   -7.7400   11.2718   23.2814 O   0  0  0  0  0  0  0  0  0  0  0  0
   -7.3961   11.7126   22.4887 H   0  0  0  0  0  0  0  0  0  0  0  0
   -9.1341   18.8325   18.0861 O   0  0  0  0  0  0  0  0  0  0  0  0
  -12.9502   20.3482   17.2854 C   0  0  0  0  0  0  0  0  0  0  0  0
  -12.1861   20.7407   18.5486 C   0  0  0  0  0  0  0  0  0  0  0  0
  -11.9821   20.2501   16.1037 C   0  0  0  0  0  0  0  0  0  0  0  0
  -10.1742   19.7653   17.7523 C   0  0  0  0  0  0  0  0  0  0  0  0
  -11.1761   19.7522   18.7761 O   0  0  0  0  0  0  0  0  0  0  0  0
  -13.9435   21.3374   16.9886 O   0  0  0  0  0  0  0  0  0  0  0  0
  -12.6786   19.7169   14.9703 O   0  0  0  0  0  0  0  0  0  0  0  0
  -10.8041   19.3383   16.4351 C   0  0  0  0  0  0  0  0  0  0  0  0
   -9.8425   19.4146   15.3812 O   0  0  0  0  0  0  0  0  0  0  0  0
  -13.5128   22.1940   16.8414 H   0  0  0  0  0  0  0  0  0  0  0  0
  -13.0106   18.8305   15.1825 H   0  0  0  0  0  0  0  0  0  0  0  0
   -9.5318   20.3292   15.2925 H   0  0  0  0  0  0  0  0  0  0  0  0
  -13.0826   20.7811   19.7997 C   0  0  0  0  0  0  0  0  0  0  0  0
  -13.6989   19.5051   20.0085 O   0  0  0  0  0  0  0  0  0  0  0  0
  -13.0127   18.8317   20.1370 H   0  0  0  0  0  0  0  0  0  0  0  0
 35 36  2  0  0  0
 35 34  1  0  0  0
 36 37  1  0  0  0
 48 43  1  0  0  0
 34 33  2  0  0  0
 55 56  1  0  0  0
 55 44  1  0  0  0
 37 38  2  0  0  0
 43 44  1  0  0  0
 43 45  1  0  0  0
 44 47  1  0  0  0
 33 38  1  0  0  0
 38 32  1  0  0  0
 45 49  1  0  0  0
 45 50  1  0  0  0
 47 46  1  0  0  0
 32 31  1  0  0  0
 31 30  1  0  0  0
 46 50  1  0  0  0
 46 42  1  0  0  0
 50 51  1  0  0  0
 17 16  1  0  0  0
 30 25  1  0  0  0
 42  8  1  0  0  0
  3  2  1  0  0  0
  8  2  1  0  0  0
  8  6  1  0  0  0
  7  6  1  0  0  0
 25 27  1  0  0  0
 25 26  2  0  0  0
 27 28  2  0  0  0
 26 29  1  0  0  0
  2  1  1  0  0  0
  6  5  1  0  0  0
 28 29  1  0  0  0
  1 14  1  0  0  0
  1  4  1  0  0  0
 29 15  1  0  0  0
  5  4  1  0  0  0
  5 11  1  0  0  0
 16 15  1  0  0  0
 16 22  1  0  0  0
 15 18  1  0  0  0
 14 22  1  0  0  0
 22 20  1  0  0  0
 11 12  1  0  0  0
 18 19  1  0  0  0
 20 19  1  0  0  0
 20 21  1  0  0  0
 19 39  1  0  0  0
 39 40  1  0  0  0
 17 23  1  0  0  0
 40 41  1  0  0  0
 21 24  1  0  0  0
  3  9  1  0  0  0
 12 13  1  0  0  0
  7 10  1  0  0  0
 56 57  1  0  0  0
 48 52  1  0  0  0
 49 53  1  0  0  0
 51 54  1  0  0  0
M  END
> <minimizedAffinity>
-10.23523

$$$$
5O9Q_9PH_A_604


 57 61  0  0  0  0  0  0  0  0999 V2000
   -9.8269   15.6948   19.7401 C   0  0  0  0  0  0  0  0  0  0  0  0
   -9.4604   17.1644   19.6062 C   0  0  0  0  0  0  0  0  0  0  0  0
  -10.3418   17.9526   20.4243 O   0  0  0  0  0  0  0  0  0  0  0  0
   -8.9462   14.9122   18.9328 O   0  0  0  0  0  0  0  0  0  0  0  0
   -9.0743   15.1994   17.5323 C   0  0  0  0  0  0  0  0  0  0  0  0
   -8.7184   16.6710   17.2664 C   0  0  0  0  0  0  0  0  0  0  0  0
   -8.9666   16.9702   15.8841 O   0  0  0  0  0  0  0  0  0  0  0  0
   -9.5656   17.5857   18.1437 C   0  0  0  0  0  0  0  0  0  0  0  0
  -11.2577   17.8193   20.1342 H   0  0  0  0  0  0  0  0  0  0  0  0
   -9.9042   16.8222   15.6845 H   0  0  0  0  0  0  0  0  0  0  0  0
   -8.1156   14.2511   16.8064 C   0  0  0  0  0  0  0  0  0  0  0  0
   -7.8015   13.1302   17.6390 O   0  0  0  0  0  0  0  0  0  0  0  0
   -7.3755   13.4414   18.4530 H   0  0  0  0  0  0  0  0  0  0  0  0
   -9.6400   15.3309   21.1001 O   0  0  0  0  0  0  0  0  0  0  0  0
  -11.7876   13.0898   23.2067 C   0  0  0  0  0  0  0  0  0  0  0  0
  -11.2621   14.3977   22.6241 C   0  0  0  0  0  0  0  0  0  0  0  0
  -12.3669   15.1554   22.1238 O   0  0  0  0  0  0  0  0  0  0  0  0
  -10.6918   12.2637   23.6079 O   0  0  0  0  0  0  0  0  0  0  0  0
   -9.8361   11.8982   22.5178 C   0  0  0  0  0  0  0  0  0  0  0  0
   -9.1857   13.1583   21.9684 C   0  0  0  0  0  0  0  0  0  0  0  0
   -8.3298   12.8300   20.8628 O   0  0  0  0  0  0  0  0  0  0  0  0
  -10.2774   14.1057   21.4931 C   0  0  0  0  0  0  0  0  0  0  0  0
  -12.8228   14.6463   21.4355 H   0  0  0  0  0  0  0  0  0  0  0  0
   -8.8532   12.4098   20.1625 H   0  0  0  0  0  0  0  0  0  0  0  0
  -13.1418   12.9922   26.4589 C   0  0  0  0  0  0  0  0  0  0  0  0
  -12.4020   12.4164   25.5291 C   0  0  0  0  0  0  0  0  0  0  0  0
  -13.6178   14.1256   25.9676 N   0  0  0  0  0  0  0  0  0  0  0  0
  -13.1952   14.2404   24.8158 N   0  0  0  0  0  0  0  0  0  0  0  0
  -12.4730   13.2461   24.4920 N   0  0  0  0  0  0  0  0  0  0  0  0
  -13.4125   12.4644   27.8683 C   0  0  0  0  0  0  0  0  0  0  0  0
  -14.8209   12.4105   28.0987 O   0  0  0  0  0  0  0  0  0  0  0  0
  -15.3583   11.0911   27.9379 C   0  0  0  0  0  0  0  0  0  0  0  0
  -16.2269   11.6013   25.7151 C   0  0  0  0  0  0  0  0  0  0  0  0
  -16.3135   11.2928   24.3540 C   0  0  0  0  0  0  0  0  0  0  0  0
  -15.6392   10.1860   23.8408 C   0  0  0  0  0  0  0  0  0  0  0  0
  -14.8754    9.3873   24.6905 C   0  0  0  0  0  0  0  0  0  0  0  0
  -14.7936    9.6987   26.0498 C   0  0  0  0  0  0  0  0  0  0  0  0
  -15.4629   10.8031   26.5724 C   0  0  0  0  0  0  0  0  0  0  0  0
   -8.7998   10.8717   23.0027 C   0  0  0  0  0  0  0  0  0  0  0  0
   -7.6306   11.5472   23.4405 O   0  0  0  0  0  0  0  0  0  0  0  0
   -7.2580   12.0584   22.7051 H   0  0  0  0  0  0  0  0  0  0  0  0
   -9.0777   18.9281   18.0018 O   0  0  0  0  0  0  0  0  0  0  0  0
  -12.8625   20.5845   17.3443 C   0  0  0  0  0  0  0  0  0  0  0  0
  -12.0168   20.9844   18.5521 C   0  0  0  0  0  0  0  0  0  0  0  0
  -11.9631   20.4043   16.1188 C   0  0  0  0  0  0  0  0  0  0  0  0
  -10.0932   19.8946   17.6889 C   0  0  0  0  0  0  0  0  0  0  0  0
  -11.0394   19.9601   18.7624 O   0  0  0  0  0  0  0  0  0  0  0  0
  -13.8270   21.6065   17.0639 O   0  0  0  0  0  0  0  0  0  0  0  0
  -12.7405   19.8652   15.0422 O   0  0  0  0  0  0  0  0  0  0  0  0
  -10.8093   19.4526   16.4216 C   0  0  0  0  0  0  0  0  0  0  0  0
   -9.9022   19.4510   15.3178 O   0  0  0  0  0  0  0  0  0  0  0  0
  -13.3685   22.4378   16.8645 H   0  0  0  0  0  0  0  0  0  0  0  0
  -13.0984   19.0021   15.3025 H   0  0  0  0  0  0  0  0  0  0  0  0
   -9.5579   20.3474   15.1810 H   0  0  0  0  0  0  0  0  0  0  0  0
  -12.8436   21.1061   19.8452 C   0  0  0  0  0  0  0  0  0  0  0  0
  -12.7831   19.8832   20.5884 O   0  0  0  0  0  0  0  0  0  0  0  0
  -11.8614   19.6928   20.8232 H   0  0  0  0  0  0  0  0  0  0  0  0
 35 36  2  0  0  0
 35 34  1  0  0  0
 36 37  1  0  0  0
 48 43  1  0  0  0
 34 33  2  0  0  0
 55 56  1  0  0  0
 55 44  1  0  0  0
 37 38  2  0  0  0
 43 44  1  0  0  0
 43 45  1  0  0  0
 44 47  1  0  0  0
 33 38  1  0  0  0
 38 32  1  0  0  0
 45 49  1  0  0  0
 45 50  1  0  0  0
 47 46  1  0  0  0
 32 31  1  0  0  0
 31 30  1  0  0  0
 46 50  1  0  0  0
 46 42  1  0  0  0
 50 51  1  0  0  0
 17 16  1  0  0  0
 30 25  1  0  0  0
 42  8  1  0  0  0
  3  2  1  0  0  0
  8  2  1  0  0  0
  8  6  1  0  0  0
  7  6  1  0  0  0
 25 27  1  0  0  0
 25 26  2  0  0  0
 27 28  2  0  0  0
 26 29  1  0  0  0
  2  1  1  0  0  0
  6  5  1  0  0  0
 28 29  1  0  0  0
  1 14  1  0  0  0
  1  4  1  0  0  0
 29 15  1  0  0  0
  5  4  1  0  0  0
  5 11  1  0  0  0
 16 15  1  0  0  0
 16 22  1  0  0  0
 15 18  1  0  0  0
 14 22  1  0  0  0
 22 20  1  0  0  0
 11 12  1  0  0  0
 18 19  1  0  0  0
 20 19  1  0  0  0
 20 21  1  0  0  0
 19 39  1  0  0  0
 39 40  1  0  0  0
 17 23  1  0  0  0
 40 41  1  0  0  0
 21 24  1  0  0  0
  3  9  1  0  0  0
 12 13  1  0  0  0
  7 10  1  0  0  0
 56 57  1  0  0  0
 48 52  1  0  0  0
 49 53  1  0  0  0
 51 54  1  0  0  0
M  END
> <minimizedAffinity>
-9.97836

$$$$
5O9Q_9PH_A_604


 57 61  0  0  0  0  0  0  0  0999 V2000
  -17.7488    9.9128   21.8893 C   0  0  0  0  0  0  0  0  0  0  0  0
  -17.8158    8.7583   20.9022 C   0  0  0  0  0  0  0  0  0  0  0  0
  -16.6087    8.7268   20.1216 O   0  0  0  0  0  0  0  0  0  0  0  0
  -18.9451    9.9387   22.6690 O   0  0  0  0  0  0  0  0  0  0  0  0
  -20.1167   10.1940   21.8799 C   0  0  0  0  0  0  0  0  0  0  0  0
  -20.2982    9.0781   20.8385 C   0  0  0  0  0  0  0  0  0  0  0  0
  -21.4027    9.4111   19.9834 O   0  0  0  0  0  0  0  0  0  0  0  0
  -19.0341    8.9282   19.9997 C   0  0  0  0  0  0  0  0  0  0  0  0
  -16.5148    9.5620   19.6375 H   0  0  0  0  0  0  0  0  0  0  0  0
  -21.2203   10.2497   19.5315 H   0  0  0  0  0  0  0  0  0  0  0  0
  -21.2944   10.2452   22.8575 C   0  0  0  0  0  0  0  0  0  0  0  0
  -20.8508    9.9456   24.1848 O   0  0  0  0  0  0  0  0  0  0  0  0
  -20.4678    9.0546   24.2043 H   0  0  0  0  0  0  0  0  0  0  0  0
  -16.6483    9.6711   22.7540 O   0  0  0  0  0  0  0  0  0  0  0  0
  -13.6104   11.8683   22.8776 C   0  0  0  0  0  0  0  0  0  0  0  0
  -14.5321   10.7652   22.3679 C   0  0  0  0  0  0  0  0  0  0  0  0
  -14.7271   10.9411   20.9623 O   0  0  0  0  0  0  0  0  0  0  0  0
  -13.4935   11.7828   24.2999 O   0  0  0  0  0  0  0  0  0  0  0  0
  -14.7433   11.9642   24.9776 C   0  0  0  0  0  0  0  0  0  0  0  0
  -15.6703   10.8195   24.5993 C   0  0  0  0  0  0  0  0  0  0  0  0
  -16.9403   10.9771   25.2513 O   0  0  0  0  0  0  0  0  0  0  0  0
  -15.8758   10.8335   23.0917 C   0  0  0  0  0  0  0  0  0  0  0  0
  -15.1275   11.8091   20.7976 H   0  0  0  0  0  0  0  0  0  0  0  0
  -17.3421   11.8167   24.9780 H   0  0  0  0  0  0  0  0  0  0  0  0
  -10.1233   11.8405   22.3679 C   0  0  0  0  0  0  0  0  0  0  0  0
  -11.1699   12.3791   22.9661 C   0  0  0  0  0  0  0  0  0  0  0  0
  -10.5512   10.8662   21.5805 N   0  0  0  0  0  0  0  0  0  0  0  0
  -11.7770   10.8072   21.6912 N   0  0  0  0  0  0  0  0  0  0  0  0
  -12.2071   11.6923   22.4954 N   0  0  0  0  0  0  0  0  0  0  0  0
   -8.6602   12.2496   22.5420 C   0  0  0  0  0  0  0  0  0  0  0  0
   -8.2681   13.1011   21.4645 O   0  0  0  0  0  0  0  0  0  0  0  0
   -8.3020   12.4378   20.1939 C   0  0  0  0  0  0  0  0  0  0  0  0
   -7.7162   13.4306   18.0429 C   0  0  0  0  0  0  0  0  0  0  0  0
   -7.9540   14.3877   17.0516 C   0  0  0  0  0  0  0  0  0  0  0  0
   -8.9919   15.3066   17.1977 C   0  0  0  0  0  0  0  0  0  0  0  0
   -9.7945   15.2670   18.3367 C   0  0  0  0  0  0  0  0  0  0  0  0
   -9.5518   14.3101   19.3250 C   0  0  0  0  0  0  0  0  0  0  0  0
   -8.5176   13.3866   19.1882 C   0  0  0  0  0  0  0  0  0  0  0  0
  -14.4976   12.0383   26.4931 C   0  0  0  0  0  0  0  0  0  0  0  0
  -14.7765   10.7771   27.0820 O   0  0  0  0  0  0  0  0  0  0  0  0
  -15.7027   10.5409   26.9170 H   0  0  0  0  0  0  0  0  0  0  0  0
  -19.1756    7.7643   19.1718 O   0  0  0  0  0  0  0  0  0  0  0  0
  -19.7812    7.1865   15.0730 C   0  0  0  0  0  0  0  0  0  0  0  0
  -20.7387    8.0350   15.9079 C   0  0  0  0  0  0  0  0  0  0  0  0
  -18.3411    7.4259   15.5332 C   0  0  0  0  0  0  0  0  0  0  0  0
  -19.2624    8.0474   17.7662 C   0  0  0  0  0  0  0  0  0  0  0  0
  -20.5587    7.6769   17.2820 O   0  0  0  0  0  0  0  0  0  0  0  0
  -19.8905    7.5452   13.6900 O   0  0  0  0  0  0  0  0  0  0  0  0
  -17.4751    6.5013   14.8629 O   0  0  0  0  0  0  0  0  0  0  0  0
  -18.2074    7.2263   17.0402 C   0  0  0  0  0  0  0  0  0  0  0  0
  -16.8999    7.6294   17.4514 O   0  0  0  0  0  0  0  0  0  0  0  0
  -19.6587    8.4805   13.5793 H   0  0  0  0  0  0  0  0  0  0  0  0
  -17.7335    5.5941   15.0891 H   0  0  0  0  0  0  0  0  0  0  0  0
  -16.7665    8.5651   17.2335 H   0  0  0  0  0  0  0  0  0  0  0  0
  -22.2169    7.7870   15.5560 C   0  0  0  0  0  0  0  0  0  0  0  0
  -22.3631    6.5261   14.8925 O   0  0  0  0  0  0  0  0  0  0  0  0
  -22.0574    5.8154   15.4776 H   0  0  0  0  0  0  0  0  0  0  0  0
 35 36  2  0  0  0
 35 34  1  0  0  0
 36 37  1  0  0  0
 48 43  1  0  0  0
 34 33  2  0  0  0
 55 56  1  0  0  0
 55 44  1  0  0  0
 37 38  2  0  0  0
 43 44  1  0  0  0
 43 45  1  0  0  0
 44 47  1  0  0  0
 33 38  1  0  0  0
 38 32  1  0  0  0
 45 49  1  0  0  0
 45 50  1  0  0  0
 47 46  1  0  0  0
 32 31  1  0  0  0
 31 30  1  0  0  0
 46 50  1  0  0  0
 46 42  1  0  0  0
 50 51  1  0  0  0
 17 16  1  0  0  0
 30 25  1  0  0  0
 42  8  1  0  0  0
  3  2  1  0  0  0
  8  2  1  0  0  0
  8  6  1  0  0  0
  7  6  1  0  0  0
 25 27  1  0  0  0
 25 26  2  0  0  0
 27 28  2  0  0  0
 26 29  1  0  0  0
  2  1  1  0  0  0
  6  5  1  0  0  0
 28 29  1  0  0  0
  1 14  1  0  0  0
  1  4  1  0  0  0
 29 15  1  0  0  0
  5  4  1  0  0  0
  5 11  1  0  0  0
 16 15  1  0  0  0
 16 22  1  0  0  0
 15 18  1  0  0  0
 14 22  1  0  0  0
 22 20  1  0  0  0
 11 12  1  0  0  0
 18 19  1  0  0  0
 20 19  1  0  0  0
 20 21  1  0  0  0
 19 39  1  0  0  0
 39 40  1  0  0  0
 17 23  1  0  0  0
 40 41  1  0  0  0
 21 24  1  0  0  0
  3  9  1  0  0  0
 12 13  1  0  0  0
  7 10  1  0  0  0
 56 57  1  0  0  0
 48 52  1  0  0  0
 49 53  1  0  0  0
 51 54  1  0  0  0
M  END
> <minimizedAffinity>
-9.80132

$$$$
5O9Q_9PH_A_604


 57 61  0  0  0  0  0  0  0  0999 V2000
  -10.4802   15.7861   19.6774 C   0  0  0  0  0  0  0  0  0  0  0  0
   -9.7677   17.0931   19.9872 C   0  0  0  0  0  0  0  0  0  0  0  0
  -10.5403   17.8440   20.9394 O   0  0  0  0  0  0  0  0  0  0  0  0
   -9.7083   15.0379   18.7371 O   0  0  0  0  0  0  0  0  0  0  0  0
   -9.5827   15.7003   17.4698 C   0  0  0  0  0  0  0  0  0  0  0  0
   -8.8629   17.0460   17.6532 C   0  0  0  0  0  0  0  0  0  0  0  0
   -8.8526   17.7459   16.3994 O   0  0  0  0  0  0  0  0  0  0  0  0
   -9.5808   17.8903   18.6999 C   0  0  0  0  0  0  0  0  0  0  0  0
  -11.4164   18.0325   20.5682 H   0  0  0  0  0  0  0  0  0  0  0  0
   -9.7648   17.9030   16.1093 H   0  0  0  0  0  0  0  0  0  0  0  0
   -8.7849   14.7567   16.5653 C   0  0  0  0  0  0  0  0  0  0  0  0
   -8.8101   15.2260   15.2135 O   0  0  0  0  0  0  0  0  0  0  0  0
   -9.7273   15.2579   14.8994 H   0  0  0  0  0  0  0  0  0  0  0  0
  -10.5616   15.0476   20.8878 O   0  0  0  0  0  0  0  0  0  0  0  0
  -11.9011   11.5581   21.2065 C   0  0  0  0  0  0  0  0  0  0  0  0
  -11.9360   13.0821   21.1569 C   0  0  0  0  0  0  0  0  0  0  0  0
  -12.9365   13.4894   20.2199 O   0  0  0  0  0  0  0  0  0  0  0  0
  -10.8300   11.1255   22.0489 O   0  0  0  0  0  0  0  0  0  0  0  0
   -9.5417   11.5377   21.5749 C   0  0  0  0  0  0  0  0  0  0  0  0
   -9.4731   13.0563   21.6162 C   0  0  0  0  0  0  0  0  0  0  0  0
   -8.1973   13.5058   21.1335 O   0  0  0  0  0  0  0  0  0  0  0  0
  -10.5722   13.6206   20.7279 C   0  0  0  0  0  0  0  0  0  0  0  0
  -12.7217   13.1348   19.3429 H   0  0  0  0  0  0  0  0  0  0  0  0
   -8.0734   13.2056   20.2195 H   0  0  0  0  0  0  0  0  0  0  0  0
  -14.5290   10.5211   23.3134 C   0  0  0  0  0  0  0  0  0  0  0  0
  -13.4691   11.2864   23.1280 C   0  0  0  0  0  0  0  0  0  0  0  0
  -14.7027    9.7827   22.2285 N   0  0  0  0  0  0  0  0  0  0  0  0
  -13.8126   10.0778   21.4291 N   0  0  0  0  0  0  0  0  0  0  0  0
  -13.0377   10.9615   21.9125 N   0  0  0  0  0  0  0  0  0  0  0  0
  -15.4211   10.4805   24.5548 C   0  0  0  0  0  0  0  0  0  0  0  0
  -15.1391   11.6073   25.3859 O   0  0  0  0  0  0  0  0  0  0  0  0
  -15.0602   11.2642   26.7757 C   0  0  0  0  0  0  0  0  0  0  0  0
  -13.9419   12.5724   28.5060 C   0  0  0  0  0  0  0  0  0  0  0  0
  -12.7700   13.1257   29.0314 C   0  0  0  0  0  0  0  0  0  0  0  0
  -11.5527   12.9420   28.3777 C   0  0  0  0  0  0  0  0  0  0  0  0
  -11.5071   12.2022   27.1971 C   0  0  0  0  0  0  0  0  0  0  0  0
  -12.6809   11.6531   26.6753 C   0  0  0  0  0  0  0  0  0  0  0  0
  -13.9024   11.8300   27.3214 C   0  0  0  0  0  0  0  0  0  0  0  0
   -8.4473   10.8816   22.4318 C   0  0  0  0  0  0  0  0  0  0  0  0
   -7.9729   11.8134   23.3919 O   0  0  0  0  0  0  0  0  0  0  0  0
   -7.6052   12.5873   22.9371 H   0  0  0  0  0  0  0  0  0  0  0  0
   -8.7799   19.0496   18.9734 O   0  0  0  0  0  0  0  0  0  0  0  0
  -11.9844   21.6991   19.4346 C   0  0  0  0  0  0  0  0  0  0  0  0
  -10.8259   21.6692   20.4300 C   0  0  0  0  0  0  0  0  0  0  0  0
  -11.4520   21.4969   18.0137 C   0  0  0  0  0  0  0  0  0  0  0  0
   -9.5193   20.2804   19.0168 C   0  0  0  0  0  0  0  0  0  0  0  0
  -10.1601   20.4097   20.2915 O   0  0  0  0  0  0  0  0  0  0  0  0
  -12.6534   22.9644   19.5021 O   0  0  0  0  0  0  0  0  0  0  0  0
  -12.5588   21.3554   17.1143 O   0  0  0  0  0  0  0  0  0  0  0  0
  -10.5811   20.2467   17.9279 C   0  0  0  0  0  0  0  0  0  0  0  0
   -9.9650   20.1932   16.6400 O   0  0  0  0  0  0  0  0  0  0  0  0
  -12.0292   23.6725   19.2786 H   0  0  0  0  0  0  0  0  0  0  0  0
  -13.0852   20.5815   17.3686 H   0  0  0  0  0  0  0  0  0  0  0  0
   -9.4158   20.9823   16.5112 H   0  0  0  0  0  0  0  0  0  0  0  0
  -11.2929   21.7861   21.8924 C   0  0  0  0  0  0  0  0  0  0  0  0
  -10.2253   22.2696   22.7159 O   0  0  0  0  0  0  0  0  0  0  0  0
   -9.9484   23.1457   22.4049 H   0  0  0  0  0  0  0  0  0  0  0  0
 35 36  2  0  0  0
 35 34  1  0  0  0
 36 37  1  0  0  0
 48 43  1  0  0  0
 34 33  2  0  0  0
 55 56  1  0  0  0
 55 44  1  0  0  0
 37 38  2  0  0  0
 43 44  1  0  0  0
 43 45  1  0  0  0
 44 47  1  0  0  0
 33 38  1  0  0  0
 38 32  1  0  0  0
 45 49  1  0  0  0
 45 50  1  0  0  0
 47 46  1  0  0  0
 32 31  1  0  0  0
 31 30  1  0  0  0
 46 50  1  0  0  0
 46 42  1  0  0  0
 50 51  1  0  0  0
 17 16  1  0  0  0
 30 25  1  0  0  0
 42  8  1  0  0  0
  3  2  1  0  0  0
  8  2  1  0  0  0
  8  6  1  0  0  0
  7  6  1  0  0  0
 25 27  1  0  0  0
 25 26  2  0  0  0
 27 28  2  0  0  0
 26 29  1  0  0  0
  2  1  1  0  0  0
  6  5  1  0  0  0
 28 29  1  0  0  0
  1 14  1  0  0  0
  1  4  1  0  0  0
 29 15  1  0  0  0
  5  4  1  0  0  0
  5 11  1  0  0  0
 16 15  1  0  0  0
 16 22  1  0  0  0
 15 18  1  0  0  0
 14 22  1  0  0  0
 22 20  1  0  0  0
 11 12  1  0  0  0
 18 19  1  0  0  0
 20 19  1  0  0  0
 20 21  1  0  0  0
 19 39  1  0  0  0
 39 40  1  0  0  0
 17 23  1  0  0  0
 40 41  1  0  0  0
 21 24  1  0  0  0
  3  9  1  0  0  0
 12 13  1  0  0  0
  7 10  1  0  0  0
 56 57  1  0  0  0
 48 52  1  0  0  0
 49 53  1  0  0  0
 51 54  1  0  0  0
M  END
> <minimizedAffinity>
-9.75634

$$$$
5O9Q_9PH_A_604


 57 61  0  0  0  0  0  0  0  0999 V2000
  -11.8720   12.5146   22.1301 C   0  0  0  0  0  0  0  0  0  0  0  0
  -11.6157   13.9769   21.8014 C   0  0  0  0  0  0  0  0  0  0  0  0
  -12.5827   14.4261   20.8368 O   0  0  0  0  0  0  0  0  0  0  0  0
  -10.9155   12.0717   23.0937 O   0  0  0  0  0  0  0  0  0  0  0  0
   -9.5692   12.1089   22.5974 C   0  0  0  0  0  0  0  0  0  0  0  0
   -9.1864   13.5525   22.2339 C   0  0  0  0  0  0  0  0  0  0  0  0
   -7.8838   13.5534   21.6296 O   0  0  0  0  0  0  0  0  0  0  0  0
  -10.1998   14.1371   21.2565 C   0  0  0  0  0  0  0  0  0  0  0  0
  -12.5052   13.8941   20.0295 H   0  0  0  0  0  0  0  0  0  0  0  0
   -7.8998   13.0101   20.8261 H   0  0  0  0  0  0  0  0  0  0  0  0
   -8.6800   11.5580   23.7159 C   0  0  0  0  0  0  0  0  0  0  0  0
   -7.4665   11.0304   23.1706 O   0  0  0  0  0  0  0  0  0  0  0  0
   -7.6749   10.3106   22.5547 H   0  0  0  0  0  0  0  0  0  0  0  0
  -13.1684   12.4275   22.7038 O   0  0  0  0  0  0  0  0  0  0  0  0
  -15.4971    9.4982   22.4412 C   0  0  0  0  0  0  0  0  0  0  0  0
  -14.8484   10.8224   22.0513 C   0  0  0  0  0  0  0  0  0  0  0  0
  -14.4389   10.7491   20.6831 O   0  0  0  0  0  0  0  0  0  0  0  0
  -15.8097    9.5046   23.8363 O   0  0  0  0  0  0  0  0  0  0  0  0
  -14.6521    9.6412   24.6702 C   0  0  0  0  0  0  0  0  0  0  0  0
  -14.0259   11.0026   24.4111 C   0  0  0  0  0  0  0  0  0  0  0  0
  -12.8522   11.1682   25.2220 O   0  0  0  0  0  0  0  0  0  0  0  0
  -13.6371   11.0914   22.9426 C   0  0  0  0  0  0  0  0  0  0  0  0
  -13.8032   10.0246   20.5742 H   0  0  0  0  0  0  0  0  0  0  0  0
  -12.2092   10.4749   25.0056 H   0  0  0  0  0  0  0  0  0  0  0  0
  -18.7949    9.6014   21.2027 C   0  0  0  0  0  0  0  0  0  0  0  0
  -17.8059   10.2157   21.8256 C   0  0  0  0  0  0  0  0  0  0  0  0
  -18.3983    8.3744   20.9034 N   0  0  0  0  0  0  0  0  0  0  0  0
  -17.2425    8.2454   21.3106 N   0  0  0  0  0  0  0  0  0  0  0  0
  -16.8368    9.3064   21.8805 N   0  0  0  0  0  0  0  0  0  0  0  0
  -20.1677   10.1862   20.8682 C   0  0  0  0  0  0  0  0  0  0  0  0
  -21.1836    9.4437   21.5438 O   0  0  0  0  0  0  0  0  0  0  0  0
  -21.2229    9.7131   22.9515 C   0  0  0  0  0  0  0  0  0  0  0  0
  -23.1825   11.1297   22.6221 C   0  0  0  0  0  0  0  0  0  0  0  0
  -23.8530   12.3342   22.8563 C   0  0  0  0  0  0  0  0  0  0  0  0
  -23.2618   13.3265   23.6366 C   0  0  0  0  0  0  0  0  0  0  0  0
  -21.9982   13.1128   24.1851 C   0  0  0  0  0  0  0  0  0  0  0  0
  -21.3317   11.9085   23.9466 C   0  0  0  0  0  0  0  0  0  0  0  0
  -21.9142   10.9101   23.1690 C   0  0  0  0  0  0  0  0  0  0  0  0
  -15.0567    9.4567   26.1415 C   0  0  0  0  0  0  0  0  0  0  0  0
  -16.3642    9.9713   26.3430 O   0  0  0  0  0  0  0  0  0  0  0  0
  -16.3777   10.9156   26.1212 H   0  0  0  0  0  0  0  0  0  0  0  0
   -9.9128   15.5334   21.0881 O   0  0  0  0  0  0  0  0  0  0  0  0
   -8.8492   17.0316   17.3298 C   0  0  0  0  0  0  0  0  0  0  0  0
   -9.3375   15.5948   17.5055 C   0  0  0  0  0  0  0  0  0  0  0  0
   -9.6429   17.9645   18.2479 C   0  0  0  0  0  0  0  0  0  0  0  0
  -10.0382   16.0024   19.7362 C   0  0  0  0  0  0  0  0  0  0  0  0
   -9.1753   15.2411   18.8830 O   0  0  0  0  0  0  0  0  0  0  0  0
   -9.0377   17.4486   15.9720 O   0  0  0  0  0  0  0  0  0  0  0  0
   -9.0622   19.2740   18.2006 O   0  0  0  0  0  0  0  0  0  0  0  0
   -9.6197   17.4642   19.6894 C   0  0  0  0  0  0  0  0  0  0  0  0
  -10.5116   18.2577   20.4744 O   0  0  0  0  0  0  0  0  0  0  0  0
   -9.9810   17.4083   15.7494 H   0  0  0  0  0  0  0  0  0  0  0  0
   -8.1436   19.2316   18.5092 H   0  0  0  0  0  0  0  0  0  0  0  0
  -11.4105   18.1824   20.1177 H   0  0  0  0  0  0  0  0  0  0  0  0
   -8.5297   14.5840   16.6712 C   0  0  0  0  0  0  0  0  0  0  0  0
   -9.2971   14.1476   15.5432 O   0  0  0  0  0  0  0  0  0  0  0  0
   -9.5145   14.9108   14.9853 H   0  0  0  0  0  0  0  0  0  0  0  0
 35 36  2  0  0  0
 35 34  1  0  0  0
 36 37  1  0  0  0
 48 43  1  0  0  0
 34 33  2  0  0  0
 55 56  1  0  0  0
 55 44  1  0  0  0
 37 38  2  0  0  0
 43 44  1  0  0  0
 43 45  1  0  0  0
 44 47  1  0  0  0
 33 38  1  0  0  0
 38 32  1  0  0  0
 45 49  1  0  0  0
 45 50  1  0  0  0
 47 46  1  0  0  0
 32 31  1  0  0  0
 31 30  1  0  0  0
 46 50  1  0  0  0
 46 42  1  0  0  0
 50 51  1  0  0  0
 17 16  1  0  0  0
 30 25  1  0  0  0
 42  8  1  0  0  0
  3  2  1  0  0  0
  8  2  1  0  0  0
  8  6  1  0  0  0
  7  6  1  0  0  0
 25 27  1  0  0  0
 25 26  2  0  0  0
 27 28  2  0  0  0
 26 29  1  0  0  0
  2  1  1  0  0  0
  6  5  1  0  0  0
 28 29  1  0  0  0
  1 14  1  0  0  0
  1  4  1  0  0  0
 29 15  1  0  0  0
  5  4  1  0  0  0
  5 11  1  0  0  0
 16 15  1  0  0  0
 16 22  1  0  0  0
 15 18  1  0  0  0
 14 22  1  0  0  0
 22 20  1  0  0  0
 11 12  1  0  0  0
 18 19  1  0  0  0
 20 19  1  0  0  0
 20 21  1  0  0  0
 19 39  1  0  0  0
 39 40  1  0  0  0
 17 23  1  0  0  0
 40 41  1  0  0  0
 21 24  1  0  0  0
  3  9  1  0  0  0
 12 13  1  0  0  0
  7 10  1  0  0  0
 56 57  1  0  0  0
 48 52  1  0  0  0
 49 53  1  0  0  0
 51 54  1  0  0  0
M  END
> <minimizedAffinity>
-9.69826

$$$$
5O9Q_9PH_A_604


 57 61  0  0  0  0  0  0  0  0999 V2000
  -13.4742   12.1890   20.7563 C   0  0  0  0  0  0  0  0  0  0  0  0
  -12.3655   13.2256   20.6654 C   0  0  0  0  0  0  0  0  0  0  0  0
  -11.7395   13.3692   21.9518 O   0  0  0  0  0  0  0  0  0  0  0  0
  -14.0903   12.0418   19.4763 O   0  0  0  0  0  0  0  0  0  0  0  0
  -14.7411   13.2416   19.0321 C   0  0  0  0  0  0  0  0  0  0  0  0
  -13.7107   14.3737   18.8931 C   0  0  0  0  0  0  0  0  0  0  0  0
  -14.3956   15.5923   18.5646 O   0  0  0  0  0  0  0  0  0  0  0  0
  -12.9480   14.5567   20.2004 C   0  0  0  0  0  0  0  0  0  0  0  0
  -12.3993   13.6566   22.6022 H   0  0  0  0  0  0  0  0  0  0  0  0
  -15.0238   15.8106   19.2707 H   0  0  0  0  0  0  0  0  0  0  0  0
  -15.3924   12.9083   17.6867 C   0  0  0  0  0  0  0  0  0  0  0  0
  -14.4701   13.1422   16.6176 O   0  0  0  0  0  0  0  0  0  0  0  0
  -14.2086   14.0763   16.6147 H   0  0  0  0  0  0  0  0  0  0  0  0
  -12.8739   10.9531   21.1161 O   0  0  0  0  0  0  0  0  0  0  0  0
  -15.9404    9.1472   22.3022 C   0  0  0  0  0  0  0  0  0  0  0  0
  -15.0030    9.8343   21.3146 C   0  0  0  0  0  0  0  0  0  0  0  0
  -14.8064    8.9723   20.1907 O   0  0  0  0  0  0  0  0  0  0  0  0
  -16.0602    9.9386   23.4868 O   0  0  0  0  0  0  0  0  0  0  0  0
  -14.8147   10.1110   24.1748 C   0  0  0  0  0  0  0  0  0  0  0  0
  -13.8718   10.9002   23.2798 C   0  0  0  0  0  0  0  0  0  0  0  0
  -12.6059   11.0800   23.9338 O   0  0  0  0  0  0  0  0  0  0  0  0
  -13.6623   10.1267   21.9863 C   0  0  0  0  0  0  0  0  0  0  0  0
  -14.4168    8.1356   20.4891 H   0  0  0  0  0  0  0  0  0  0  0  0
  -12.2142   10.2132   24.1241 H   0  0  0  0  0  0  0  0  0  0  0  0
  -19.1888    8.5478   21.0739 C   0  0  0  0  0  0  0  0  0  0  0  0
  -17.9354    8.1480   21.1859 C   0  0  0  0  0  0  0  0  0  0  0  0
  -19.3081    9.7158   21.6854 N   0  0  0  0  0  0  0  0  0  0  0  0
  -18.2040   10.0112   22.1458 N   0  0  0  0  0  0  0  0  0  0  0  0
  -17.3402    9.1204   21.8709 N   0  0  0  0  0  0  0  0  0  0  0  0
  -20.3255    7.8056   20.3700 C   0  0  0  0  0  0  0  0  0  0  0  0
  -20.6729    8.4903   19.1657 O   0  0  0  0  0  0  0  0  0  0  0  0
  -19.9280    8.0281   18.0313 C   0  0  0  0  0  0  0  0  0  0  0  0
  -20.4405    7.4982   15.7048 C   0  0  0  0  0  0  0  0  0  0  0  0
  -21.3505    7.0504   14.7422 C   0  0  0  0  0  0  0  0  0  0  0  0
  -22.6439    6.6874   15.1140 C   0  0  0  0  0  0  0  0  0  0  0  0
  -23.0273    6.7710   16.4516 C   0  0  0  0  0  0  0  0  0  0  0  0
  -22.1152    7.2208   17.4092 C   0  0  0  0  0  0  0  0  0  0  0  0
  -20.8198    7.5850   17.0481 C   0  0  0  0  0  0  0  0  0  0  0  0
  -15.0655   10.8128   25.5191 C   0  0  0  0  0  0  0  0  0  0  0  0
  -13.9347   10.6459   26.3607 O   0  0  0  0  0  0  0  0  0  0  0  0
  -13.7829    9.7002   26.5145 H   0  0  0  0  0  0  0  0  0  0  0  0
  -11.8792   15.4877   19.9744 O   0  0  0  0  0  0  0  0  0  0  0  0
   -8.3264   15.0224   17.8152 C   0  0  0  0  0  0  0  0  0  0  0  0
   -9.0363   13.8269   18.4482 C   0  0  0  0  0  0  0  0  0  0  0  0
   -9.3604   15.9969   17.2455 C   0  0  0  0  0  0  0  0  0  0  0  0
  -10.9778   15.1069   18.9228 C   0  0  0  0  0  0  0  0  0  0  0  0
   -9.9092   14.3239   19.4679 O   0  0  0  0  0  0  0  0  0  0  0  0
   -7.4750   14.5776   16.7520 O   0  0  0  0  0  0  0  0  0  0  0  0
   -8.6922   17.1881   16.8113 O   0  0  0  0  0  0  0  0  0  0  0  0
  -10.4010   16.3684   18.2981 C   0  0  0  0  0  0  0  0  0  0  0  0
  -11.4389   17.1318   17.6809 O   0  0  0  0  0  0  0  0  0  0  0  0
   -8.0090   14.1348   16.0740 H   0  0  0  0  0  0  0  0  0  0  0  0
   -8.2479   17.6034   17.5670 H   0  0  0  0  0  0  0  0  0  0  0  0
  -11.8563   16.6044   16.9820 H   0  0  0  0  0  0  0  0  0  0  0  0
   -8.0617   12.8394   19.1157 C   0  0  0  0  0  0  0  0  0  0  0  0
   -6.7092   13.2650   18.9125 O   0  0  0  0  0  0  0  0  0  0  0  0
   -6.5838   14.1426   19.3062 H   0  0  0  0  0  0  0  0  0  0  0  0
 35 36  2  0  0  0
 35 34  1  0  0  0
 36 37  1  0  0  0
 48 43  1  0  0  0
 34 33  2  0  0  0
 55 56  1  0  0  0
 55 44  1  0  0  0
 37 38  2  0  0  0
 43 44  1  0  0  0
 43 45  1  0  0  0
 44 47  1  0  0  0
 33 38  1  0  0  0
 38 32  1  0  0  0
 45 49  1  0  0  0
 45 50  1  0  0  0
 47 46  1  0  0  0
 32 31  1  0  0  0
 31 30  1  0  0  0
 46 50  1  0  0  0
 46 42  1  0  0  0
 50 51  1  0  0  0
 17 16  1  0  0  0
 30 25  1  0  0  0
 42  8  1  0  0  0
  3  2  1  0  0  0
  8  2  1  0  0  0
  8  6  1  0  0  0
  7  6  1  0  0  0
 25 27  1  0  0  0
 25 26  2  0  0  0
 27 28  2  0  0  0
 26 29  1  0  0  0
  2  1  1  0  0  0
  6  5  1  0  0  0
 28 29  1  0  0  0
  1 14  1  0  0  0
  1  4  1  0  0  0
 29 15  1  0  0  0
  5  4  1  0  0  0
  5 11  1  0  0  0
 16 15  1  0  0  0
 16 22  1  0  0  0
 15 18  1  0  0  0
 14 22  1  0  0  0
 22 20  1  0  0  0
 11 12  1  0  0  0
 18 19  1  0  0  0
 20 19  1  0  0  0
 20 21  1  0  0  0
 19 39  1  0  0  0
 39 40  1  0  0  0
 17 23  1  0  0  0
 40 41  1  0  0  0
 21 24  1  0  0  0
  3  9  1  0  0  0
 12 13  1  0  0  0
  7 10  1  0  0  0
 56 57  1  0  0  0
 48 52  1  0  0  0
 49 53  1  0  0  0
 51 54  1  0  0  0
M  END
> <minimizedAffinity>
-9.61523

$$$$
5O9Q_9PH_A_604


 57 61  0  0  0  0  0  0  0  0999 V2000
  -13.3483   11.4958   24.4964 C   0  0  0  0  0  0  0  0  0  0  0  0
  -11.9574   11.6510   23.9021 C   0  0  0  0  0  0  0  0  0  0  0  0
  -11.2688   12.7211   24.5715 O   0  0  0  0  0  0  0  0  0  0  0  0
  -14.0286   10.4280   23.8356 O   0  0  0  0  0  0  0  0  0  0  0  0
  -14.2489   10.6884   22.4413 C   0  0  0  0  0  0  0  0  0  0  0  0
  -12.9008   10.8583   21.7226 C   0  0  0  0  0  0  0  0  0  0  0  0
  -13.1421   11.2352   20.3582 O   0  0  0  0  0  0  0  0  0  0  0  0
  -12.0696   11.9371   22.4077 C   0  0  0  0  0  0  0  0  0  0  0  0
  -11.7645   13.5468   24.4560 H   0  0  0  0  0  0  0  0  0  0  0  0
  -13.6295   12.0736   20.3357 H   0  0  0  0  0  0  0  0  0  0  0  0
  -15.0282    9.4888   21.8946 C   0  0  0  0  0  0  0  0  0  0  0  0
  -14.2803    8.8408   20.8608 O   0  0  0  0  0  0  0  0  0  0  0  0
  -14.1214    9.4659   20.1363 H   0  0  0  0  0  0  0  0  0  0  0  0
  -13.1911   11.1554   25.8663 O   0  0  0  0  0  0  0  0  0  0  0  0
  -16.7048   11.8341   26.9912 C   0  0  0  0  0  0  0  0  0  0  0  0
  -15.5784   11.1533   26.2205 C   0  0  0  0  0  0  0  0  0  0  0  0
  -15.6852    9.7390   26.4026 O   0  0  0  0  0  0  0  0  0  0  0  0
  -16.5510   13.2537   26.9202 O   0  0  0  0  0  0  0  0  0  0  0  0
  -15.3294   13.7160   27.5103 C   0  0  0  0  0  0  0  0  0  0  0  0
  -14.1630   13.1630   26.7062 C   0  0  0  0  0  0  0  0  0  0  0  0
  -12.9194   13.5961   27.2793 O   0  0  0  0  0  0  0  0  0  0  0  0
  -14.2256   11.6429   26.7347 C   0  0  0  0  0  0  0  0  0  0  0  0
  -15.6144    9.5283   27.3468 H   0  0  0  0  0  0  0  0  0  0  0  0
  -12.8562   13.2776   28.1933 H   0  0  0  0  0  0  0  0  0  0  0  0
  -19.6975   11.9046   25.1313 C   0  0  0  0  0  0  0  0  0  0  0  0
  -18.5150   12.4355   25.3831 C   0  0  0  0  0  0  0  0  0  0  0  0
  -19.8729   10.8764   25.9465 N   0  0  0  0  0  0  0  0  0  0  0  0
  -18.8647   10.7795   26.6482 N   0  0  0  0  0  0  0  0  0  0  0  0
  -18.0224   11.6888   26.3674 N   0  0  0  0  0  0  0  0  0  0  0  0
  -20.7052   12.3740   24.0813 C   0  0  0  0  0  0  0  0  0  0  0  0
  -21.3100   11.2414   23.4559 O   0  0  0  0  0  0  0  0  0  0  0  0
  -21.1661   11.2539   22.0295 C   0  0  0  0  0  0  0  0  0  0  0  0
  -19.1116    9.9799   21.6952 C   0  0  0  0  0  0  0  0  0  0  0  0
  -18.4748    8.8035   21.2877 C   0  0  0  0  0  0  0  0  0  0  0  0
  -19.2234    7.7298   20.8087 C   0  0  0  0  0  0  0  0  0  0  0  0
  -20.6119    7.8322   20.7386 C   0  0  0  0  0  0  0  0  0  0  0  0
  -21.2432    9.0101   21.1451 C   0  0  0  0  0  0  0  0  0  0  0  0
  -20.5042   10.0887   21.6263 C   0  0  0  0  0  0  0  0  0  0  0  0
  -15.3311   15.2525   27.5528 C   0  0  0  0  0  0  0  0  0  0  0  0
  -16.6548   15.7315   27.3706 O   0  0  0  0  0  0  0  0  0  0  0  0
  -16.9914   15.4327   26.5113 H   0  0  0  0  0  0  0  0  0  0  0  0
  -10.7575   11.9353   21.8258 O   0  0  0  0  0  0  0  0  0  0  0  0
  -10.3878   14.3584   18.4357 C   0  0  0  0  0  0  0  0  0  0  0  0
  -11.4436   14.6385   19.5037 C   0  0  0  0  0  0  0  0  0  0  0  0
   -9.0892   13.8942   19.1001 C   0  0  0  0  0  0  0  0  0  0  0  0
  -10.4724   13.0832   21.0107 C   0  0  0  0  0  0  0  0  0  0  0  0
  -11.6375   13.4360   20.2557 O   0  0  0  0  0  0  0  0  0  0  0  0
  -10.1233   15.5508   17.6864 O   0  0  0  0  0  0  0  0  0  0  0  0
   -8.1686   13.4725   18.0858 O   0  0  0  0  0  0  0  0  0  0  0  0
   -9.3467   12.7286   20.0508 C   0  0  0  0  0  0  0  0  0  0  0  0
   -8.1500   12.4446   20.7777 O   0  0  0  0  0  0  0  0  0  0  0  0
   -9.7915   16.2404   18.2824 H   0  0  0  0  0  0  0  0  0  0  0  0
   -8.5520   12.7333   17.5883 H   0  0  0  0  0  0  0  0  0  0  0  0
   -7.8869   13.2278   21.2861 H   0  0  0  0  0  0  0  0  0  0  0  0
  -12.8062   15.0340   18.9061 C   0  0  0  0  0  0  0  0  0  0  0  0
  -12.6848   16.2496   18.1583 O   0  0  0  0  0  0  0  0  0  0  0  0
  -12.0511   16.1223   17.4350 H   0  0  0  0  0  0  0  0  0  0  0  0
 35 36  2  0  0  0
 35 34  1  0  0  0
 36 37  1  0  0  0
 48 43  1  0  0  0
 34 33  2  0  0  0
 55 56  1  0  0  0
 55 44  1  0  0  0
 37 38  2  0  0  0
 43 44  1  0  0  0
 43 45  1  0  0  0
 44 47  1  0  0  0
 33 38  1  0  0  0
 38 32  1  0  0  0
 45 49  1  0  0  0
 45 50  1  0  0  0
 47 46  1  0  0  0
 32 31  1  0  0  0
 31 30  1  0  0  0
 46 50  1  0  0  0
 46 42  1  0  0  0
 50 51  1  0  0  0
 17 16  1  0  0  0
 30 25  1  0  0  0
 42  8  1  0  0  0
  3  2  1  0  0  0
  8  2  1  0  0  0
  8  6  1  0  0  0
  7  6  1  0  0  0
 25 27  1  0  0  0
 25 26  2  0  0  0
 27 28  2  0  0  0
 26 29  1  0  0  0
  2  1  1  0  0  0
  6  5  1  0  0  0
 28 29  1  0  0  0
  1 14  1  0  0  0
  1  4  1  0  0  0
 29 15  1  0  0  0
  5  4  1  0  0  0
  5 11  1  0  0  0
 16 15  1  0  0  0
 16 22  1  0  0  0
 15 18  1  0  0  0
 14 22  1  0  0  0
 22 20  1  0  0  0
 11 12  1  0  0  0
 18 19  1  0  0  0
 20 19  1  0  0  0
 20 21  1  0  0  0
 19 39  1  0  0  0
 39 40  1  0  0  0
 17 23  1  0  0  0
 40 41  1  0  0  0
 21 24  1  0  0  0
  3  9  1  0  0  0
 12 13  1  0  0  0
  7 10  1  0  0  0
 56 57  1  0  0  0
 48 52  1  0  0  0
 49 53  1  0  0  0
 51 54  1  0  0  0
M  END
> <minimizedAffinity>
-9.47638

$$$$
5O9Q_9PH_A_604


 57 61  0  0  0  0  0  0  0  0999 V2000
  -12.4573   12.2068   22.8583 C   0  0  0  0  0  0  0  0  0  0  0  0
  -12.3034   12.6593   21.4149 C   0  0  0  0  0  0  0  0  0  0  0  0
  -13.4854   12.3073   20.6756 O   0  0  0  0  0  0  0  0  0  0  0  0
  -11.2859   12.5634   23.5933 O   0  0  0  0  0  0  0  0  0  0  0  0
  -10.1078   11.8942   23.1193 C   0  0  0  0  0  0  0  0  0  0  0  0
   -9.8401   12.2818   21.6561 C   0  0  0  0  0  0  0  0  0  0  0  0
   -8.7313   11.5137   21.1638 O   0  0  0  0  0  0  0  0  0  0  0  0
  -11.0712   12.0009   20.8020 C   0  0  0  0  0  0  0  0  0  0  0  0
  -13.6090   11.3456   20.7023 H   0  0  0  0  0  0  0  0  0  0  0  0
   -8.9443   10.5688   21.2151 H   0  0  0  0  0  0  0  0  0  0  0  0
   -8.9617   12.3348   24.0345 C   0  0  0  0  0  0  0  0  0  0  0  0
   -7.7751   11.5924   23.7360 O   0  0  0  0  0  0  0  0  0  0  0  0
   -7.9410   10.6472   23.8770 H   0  0  0  0  0  0  0  0  0  0  0  0
  -13.5672   12.9025   23.4072 O   0  0  0  0  0  0  0  0  0  0  0  0
  -16.2018   11.6062   25.7418 C   0  0  0  0  0  0  0  0  0  0  0  0
  -15.5645   11.9933   24.4113 C   0  0  0  0  0  0  0  0  0  0  0  0
  -15.6776   10.8901   23.5085 O   0  0  0  0  0  0  0  0  0  0  0  0
  -15.9983   12.6496   26.6978 O   0  0  0  0  0  0  0  0  0  0  0  0
  -14.6136   12.8936   26.9760 C   0  0  0  0  0  0  0  0  0  0  0  0
  -13.9462   13.4004   25.7070 C   0  0  0  0  0  0  0  0  0  0  0  0
  -12.5510   13.6426   25.9463 O   0  0  0  0  0  0  0  0  0  0  0  0
  -14.0925   12.3442   24.6214 C   0  0  0  0  0  0  0  0  0  0  0  0
  -15.2222   10.1191   23.8815 H   0  0  0  0  0  0  0  0  0  0  0  0
  -12.1227   12.8179   26.2245 H   0  0  0  0  0  0  0  0  0  0  0  0
  -19.6699   11.7351   25.1289 C   0  0  0  0  0  0  0  0  0  0  0  0
  -18.4442   12.0221   24.7304 C   0  0  0  0  0  0  0  0  0  0  0  0
  -19.5933   11.1295   26.3035 N   0  0  0  0  0  0  0  0  0  0  0  0
  -18.4012   11.0459   26.6039 N   0  0  0  0  0  0  0  0  0  0  0  0
  -17.6660   11.5712   25.7103 N   0  0  0  0  0  0  0  0  0  0  0  0
  -20.9684   12.0348   24.3789 C   0  0  0  0  0  0  0  0  0  0  0  0
  -21.3961   10.8685   23.6742 O   0  0  0  0  0  0  0  0  0  0  0  0
  -21.2541   10.9969   22.2533 C   0  0  0  0  0  0  0  0  0  0  0  0
  -21.1020    8.7814   21.2413 C   0  0  0  0  0  0  0  0  0  0  0  0
  -20.3204    7.7247   20.7639 C   0  0  0  0  0  0  0  0  0  0  0  0
  -18.9296    7.8024   20.8127 C   0  0  0  0  0  0  0  0  0  0  0  0
  -18.3192    8.9400   21.3386 C   0  0  0  0  0  0  0  0  0  0  0  0
  -19.1044    9.9921   21.8160 C   0  0  0  0  0  0  0  0  0  0  0  0
  -20.4952    9.9248   21.7708 C   0  0  0  0  0  0  0  0  0  0  0  0
  -14.4935   13.8940   28.1368 C   0  0  0  0  0  0  0  0  0  0  0  0
  -13.2915   13.6505   28.8516 O   0  0  0  0  0  0  0  0  0  0  0  0
  -13.3027   12.7472   29.2048 H   0  0  0  0  0  0  0  0  0  0  0  0
  -10.8469   12.5436   19.4923 O   0  0  0  0  0  0  0  0  0  0  0  0
  -10.7151   16.4654   18.0420 C   0  0  0  0  0  0  0  0  0  0  0  0
  -11.7863   16.0191   19.0355 C   0  0  0  0  0  0  0  0  0  0  0  0
   -9.3765   15.8124   18.3953 C   0  0  0  0  0  0  0  0  0  0  0  0
  -10.6708   13.9690   19.4668 C   0  0  0  0  0  0  0  0  0  0  0  0
  -11.8669   14.5909   18.9824 O   0  0  0  0  0  0  0  0  0  0  0  0
  -10.5634   17.8893   18.0949 O   0  0  0  0  0  0  0  0  0  0  0  0
   -8.4269   16.1012   17.3615 O   0  0  0  0  0  0  0  0  0  0  0  0
   -9.5227   14.2989   18.5248 C   0  0  0  0  0  0  0  0  0  0  0  0
   -8.3015   13.7520   19.0255 O   0  0  0  0  0  0  0  0  0  0  0  0
  -10.2921   18.1526   18.9882 H   0  0  0  0  0  0  0  0  0  0  0  0
   -8.7445   15.7379   16.5200 H   0  0  0  0  0  0  0  0  0  0  0  0
   -8.1076   14.1363   19.8948 H   0  0  0  0  0  0  0  0  0  0  0  0
  -13.1823   16.5731   18.6965 C   0  0  0  0  0  0  0  0  0  0  0  0
  -13.8882   15.6547   17.8540 O   0  0  0  0  0  0  0  0  0  0  0  0
  -13.9914   14.8073   18.3145 H   0  0  0  0  0  0  0  0  0  0  0  0
 35 36  2  0  0  0
 35 34  1  0  0  0
 36 37  1  0  0  0
 48 43  1  0  0  0
 34 33  2  0  0  0
 55 56  1  0  0  0
 55 44  1  0  0  0
 37 38  2  0  0  0
 43 44  1  0  0  0
 43 45  1  0  0  0
 44 47  1  0  0  0
 33 38  1  0  0  0
 38 32  1  0  0  0
 45 49  1  0  0  0
 45 50  1  0  0  0
 47 46  1  0  0  0
 32 31  1  0  0  0
 31 30  1  0  0  0
 46 50  1  0  0  0
 46 42  1  0  0  0
 50 51  1  0  0  0
 17 16  1  0  0  0
 30 25  1  0  0  0
 42  8  1  0  0  0
  3  2  1  0  0  0
  8  2  1  0  0  0
  8  6  1  0  0  0
  7  6  1  0  0  0
 25 27  1  0  0  0
 25 26  2  0  0  0
 27 28  2  0  0  0
 26 29  1  0  0  0
  2  1  1  0  0  0
  6  5  1  0  0  0
 28 29  1  0  0  0
  1 14  1  0  0  0
  1  4  1  0  0  0
 29 15  1  0  0  0
  5  4  1  0  0  0
  5 11  1  0  0  0
 16 15  1  0  0  0
 16 22  1  0  0  0
 15 18  1  0  0  0
 14 22  1  0  0  0
 22 20  1  0  0  0
 11 12  1  0  0  0
 18 19  1  0  0  0
 20 19  1  0  0  0
 20 21  1  0  0  0
 19 39  1  0  0  0
 39 40  1  0  0  0
 17 23  1  0  0  0
 40 41  1  0  0  0
 21 24  1  0  0  0
  3  9  1  0  0  0
 12 13  1  0  0  0
  7 10  1  0  0  0
 56 57  1  0  0  0
 48 52  1  0  0  0
 49 53  1  0  0  0
 51 54  1  0  0  0
M  END
> <minimizedAffinity>
-9.43510

$$$$
