4RD3_GDP_A_502
  RCSB PDB12061714373D
Coordinates from PDB:4RD3:A:502 Model:1 without hydrogens
 28 30  0  0  0  0            999 V2000
  -30.1160  -17.4470   18.8550   P 0  0  0  0  0  0  0  0  0  0  0  0
  -31.3010  -16.5850   19.1960   O 0  0  0  0  0  0  0  0  0  0  0  0
  -29.7560  -17.2090   17.3940   O 0  0  0  0  0  0  0  0  0  0  0  0
  -28.9420  -17.1320   19.7480   O 0  0  0  0  0  0  0  0  0  0  0  0
  -30.5060  -18.9890   18.9480   O 0  0  0  0  0  0  0  0  0  0  0  0
  -30.5090  -19.8300   20.3330   P 0  0  0  0  0  0  0  0  0  0  0  0
  -29.1300  -20.3550   20.5560   O 0  0  0  0  0  0  0  0  0  0  0  0
  -31.0950  -19.0640   21.4850   O 0  0  0  0  0  0  0  0  0  0  0  0
  -31.4870  -21.0030   19.8410   O 0  0  0  0  0  0  0  0  0  0  0  0
  -32.8760  -20.6870   19.6950   C 0  0  0  0  0  0  0  0  0  0  0  0
  -33.7020  -21.9610   19.6310   C 0  0  0  0  0  0  0  0  0  0  0  0
  -33.2610  -22.7710   18.5430   O 0  0  0  0  0  0  0  0  0  0  0  0
  -33.5070  -22.7900   20.8820   C 0  0  0  0  0  0  0  0  0  0  0  0
  -34.7670  -23.3700   21.2240   O 0  0  0  0  0  0  0  0  0  0  0  0
  -32.5350  -23.8660   20.4390   C 0  0  0  0  0  0  0  0  0  0  0  0
  -32.5530  -25.0440   21.2650   O 0  0  0  0  0  0  0  0  0  0  0  0
  -32.9580  -24.0830   18.9920   C 0  0  0  0  0  0  0  0  0  0  0  0
  -31.8260  -24.6280   18.2250   N 0  0  0  0  0  0  0  0  0  0  0  0
  -30.5750  -24.1240   18.1720   C 0  0  0  0  0  0  0  0  0  0  0  0
  -29.7780  -24.8840   17.3810   N 0  0  0  0  0  0  0  0  0  0  0  0
  -30.5360  -25.8980   16.9210   C 0  0  0  0  0  0  0  0  0  0  0  0
  -30.3270  -27.0630   16.0410   C 0  0  0  0  0  0  0  0  0  0  0  0
  -29.2050  -27.2720   15.5420   O 0  0  0  0  0  0  0  0  0  0  0  0
  -31.3680  -27.8730   15.8110   N 0  0  0  0  0  0  0  0  0  0  0  0
  -32.5830  -27.6630   16.3610   C 0  0  0  0  0  0  0  0  0  0  0  0
  -33.5930  -28.5250   16.0820   N 0  0  0  0  0  0  0  0  0  0  0  0
  -32.8460  -26.6140   17.1820   N 0  0  0  0  0  0  0  0  0  0  0  0
  -31.8810  -25.7240   17.4830   C 0  0  0  0  0  0  0  0  0  0  0  0
  1  2  2  0  0  0  0
  1  3  1  0  0  0  0
  1  4  1  0  0  0  0
  1  5  1  0  0  0  0
  5  6  1  0  0  0  0
  6  7  2  0  0  0  0
  6  8  1  0  0  0  0
  6  9  1  0  0  0  0
  9 10  1  0  0  0  0
 10 11  1  0  0  0  0
 11 12  1  0  0  0  0
 11 13  1  0  0  0  0
 12 17  1  0  0  0  0
 13 14  1  0  0  0  0
 13 15  1  0  0  0  0
 15 16  1  0  0  0  0
 15 17  1  0  0  0  0
 17 18  1  0  0  0  0
 18 19  1  0  0  0  0
 18 28  1  0  0  0  0
 19 20  2  0  0  0  0
 20 21  1  0  0  0  0
 21 22  1  0  0  0  0
 21 28  2  0  0  0  0
 22 23  2  0  0  0  0
 22 24  1  0  0  0  0
 24 25  1  0  0  0  0
 25 26  1  0  0  0  0
 25 27  2  0  0  0  0
 27 28  1  0  0  0  0
A    1
PB
A    2
O1B
A    3
O2B
A    4
O3B
A    5
O3A
A    6
PA
A    7
O1A
A    8
O2A
A    9
O5'
A   10
C5'
A   11
C4'
A   12
O4'
A   13
C3'
A   14
O3'
A   15
C2'
A   16
O2'
A   17
C1'
A   18
N9
A   19
C8
A   20
N7
A   21
C5
A   22
C6
A   23
O6
A   24
N1
A   25
C2
A   26
N2
A   27
N3
A   28
C4
M  END
>  <InstanceId>
4RD3_GDP_A_502

>  <ChemCompId>
GDP

>  <PdbId>
4RD3

>  <ChainId>
A

>  <ResidueNumber>
502

>  <InsertionCode>


>  <Model>
1

>  <AltIds>


>  <MissingHeavyAtoms>
0

>  <ObservedFormula>
C10 N5 O11 P2

>  <Name>
GUANOSINE-5'-DIPHOSPHATE

>  <SystematicName>
[(2R,3S,4R,5R)-5-(2-azanyl-6-oxidanylidene-1H-purin-9-yl)-3,4-bis(oxidanyl)oxolan-2-yl]methyl phosphono hydrogen phosphate

>  <Synonyms>


>  <Type>
RNA LINKING

>  <Formula>
C10 H15 N5 O11 P2

>  <MolecularWeight>
443.201

>  <ModifiedDate>
2014-05-12

>  <Parent>
G

>  <OneLetterCode>
G

>  <SubcomponentList>


>  <AmbiguousFlag>
N

>  <InChI>
InChI=1S/C10H15N5O11P2/c11-10-13-7-4(8(18)14-10)12-2-15(7)9-6(17)5(16)3(25-9)1-24-28(22,23)26-27(19,20)21/h2-3,5-6,9,16-17H,1H2,(H,22,23)(H2,19,20,21)(H3,11,13,14,18)/t3-,5-,6-,9-/m1/s1

>  <InChIKey>
QGWNDRXFNXRZMB-UUOKFMHZSA-N

>  <SMILES>
c1nc2c(n1[C@H]3[C@@H]([C@@H]([C@H](O3)CO[P@](=O)(O)OP(=O)(O)O)O)O)N=C(NC2=O)N

$$$$
