4OWV_BE2_A_401


 13 13  0  0  0  0  0  0  0  0999 V2000
    1.0613   36.1770  -14.1439 C   0  0  0  0  0  0  0  0  0  0  0  0
   -0.0141   36.0392  -15.1774 C   0  0  0  0  0  0  0  0  0  0  0  0
   -0.8348   34.9144  -15.1763 C   0  0  0  0  0  0  0  0  0  0  0  0
   -0.2112   37.0023  -16.1206 N   0  0  0  0  0  0  0  0  0  0  0  0
   -0.6357   33.9334  -14.2186 C   0  0  0  0  0  0  0  0  0  0  0  0
    0.3648   34.0664  -13.2619 C   0  0  0  0  0  0  0  0  0  0  0  0
    1.2172   35.1584  -13.2020 C   0  0  0  0  0  0  0  0  0  0  0  0
    0.3614   37.8031  -16.1336 H   0  0  0  0  0  0  0  0  0  0  0  0
   -0.9263   36.8976  -16.7892 H   0  0  0  0  0  0  0  0  0  0  0  0
    1.9502   37.3941  -14.1185 C   0  0  0  0  0  0  0  0  0  0  0  0
    1.4594   38.5218  -14.3690 O   0  0  0  0  0  0  0  0  0  0  0  0
    3.1618   37.2690  -13.8385 O   0  0  0  0  0  0  0  0  0  0  0  0
    3.5148   36.4210  -13.6536 H   0  0  0  0  0  0  0  0  0  0  0  0
 10 11  2  0  0  0
 10 12  1  0  0  0
 10  1  1  0  0  0
  1  2  2  0  0  0
  1  7  1  0  0  0
  2  3  1  0  0  0
  2  4  1  0  0  0
  3  5  2  0  0  0
  5  6  1  0  0  0
  6  7  2  0  0  0
 12 13  1  0  0  0
  4  8  1  0  0  0
  4  9  1  0  0  0
M  END
> <minimizedAffinity>
-5.56952

$$$$
4OWV_BE2_A_401


 13 13  0  0  0  0  0  0  0  0999 V2000
    0.7657   36.9954  -15.2292 C   0  0  0  0  0  0  0  0  0  0  0  0
    1.6801   36.6547  -14.0928 C   0  0  0  0  0  0  0  0  0  0  0  0
    1.4132   35.5417  -13.2998 C   0  0  0  0  0  0  0  0  0  0  0  0
    2.7790   37.4131  -13.8220 N   0  0  0  0  0  0  0  0  0  0  0  0
    0.2959   34.7696  -13.5727 C   0  0  0  0  0  0  0  0  0  0  0  0
   -0.5499   35.0911  -14.6288 C   0  0  0  0  0  0  0  0  0  0  0  0
   -0.3455   36.1823  -15.4596 C   0  0  0  0  0  0  0  0  0  0  0  0
    2.9802   38.2029  -14.3743 H   0  0  0  0  0  0  0  0  0  0  0  0
    3.3719   37.1713  -13.0742 H   0  0  0  0  0  0  0  0  0  0  0  0
    1.0455   38.1870  -16.1089 C   0  0  0  0  0  0  0  0  0  0  0  0
    0.7881   38.1222  -17.3357 O   0  0  0  0  0  0  0  0  0  0  0  0
    1.5201   39.2284  -15.6066 O   0  0  0  0  0  0  0  0  0  0  0  0
    1.7076   39.2628  -14.6892 H   0  0  0  0  0  0  0  0  0  0  0  0
 10 11  2  0  0  0
 10 12  1  0  0  0
 10  1  1  0  0  0
  1  2  2  0  0  0
  1  7  1  0  0  0
  2  3  1  0  0  0
  2  4  1  0  0  0
  3  5  2  0  0  0
  5  6  1  0  0  0
  6  7  2  0  0  0
 12 13  1  0  0  0
  4  8  1  0  0  0
  4  9  1  0  0  0
M  END
> <minimizedAffinity>
-5.22826

$$$$
4OWV_BE2_A_401


 13 13  0  0  0  0  0  0  0  0999 V2000
   -0.2020   34.8537  -14.5610 C   0  0  0  0  0  0  0  0  0  0  0  0
    0.6243   34.5372  -13.3524 C   0  0  0  0  0  0  0  0  0  0  0  0
    0.5649   33.2661  -12.7871 C   0  0  0  0  0  0  0  0  0  0  0  0
    1.4437   35.4725  -12.7955 N   0  0  0  0  0  0  0  0  0  0  0  0
   -0.2682   32.3139  -13.3511 C   0  0  0  0  0  0  0  0  0  0  0  0
   -1.0335   32.6135  -14.4729 C   0  0  0  0  0  0  0  0  0  0  0  0
   -1.0237   33.8559  -15.0886 C   0  0  0  0  0  0  0  0  0  0  0  0
    1.4959   36.3754  -13.1845 H   0  0  0  0  0  0  0  0  0  0  0  0
    1.9836   35.2454  -12.0042 H   0  0  0  0  0  0  0  0  0  0  0  0
   -0.1403   36.2188  -15.1971 C   0  0  0  0  0  0  0  0  0  0  0  0
   -1.1878   36.7307  -15.6622 O   0  0  0  0  0  0  0  0  0  0  0  0
    0.9489   36.8299  -15.2450 O   0  0  0  0  0  0  0  0  0  0  0  0
    1.7231   36.4358  -14.8939 H   0  0  0  0  0  0  0  0  0  0  0  0
 10 11  2  0  0  0
 10 12  1  0  0  0
 10  1  1  0  0  0
  1  2  2  0  0  0
  1  7  1  0  0  0
  2  3  1  0  0  0
  2  4  1  0  0  0
  3  5  2  0  0  0
  5  6  1  0  0  0
  6  7  2  0  0  0
 12 13  1  0  0  0
  4  8  1  0  0  0
  4  9  1  0  0  0
M  END
> <minimizedAffinity>
-5.21575

$$$$
4OWV_BE2_A_401


 13 13  0  0  0  0  0  0  0  0999 V2000
   -0.8319   33.7834  -14.9633 C   0  0  0  0  0  0  0  0  0  0  0  0
   -0.3146   33.0391  -13.7708 C   0  0  0  0  0  0  0  0  0  0  0  0
    0.5687   33.6642  -12.8946 C   0  0  0  0  0  0  0  0  0  0  0  0
   -0.6993   31.7562  -13.5208 N   0  0  0  0  0  0  0  0  0  0  0  0
    0.9619   34.9683  -13.1474 C   0  0  0  0  0  0  0  0  0  0  0  0
    0.4788   35.6543  -14.2565 C   0  0  0  0  0  0  0  0  0  0  0  0
   -0.4031   35.0959  -15.1693 C   0  0  0  0  0  0  0  0  0  0  0  0
   -1.3233   31.3015  -14.1316 H   0  0  0  0  0  0  0  0  0  0  0  0
   -0.3532   31.2840  -12.7293 H   0  0  0  0  0  0  0  0  0  0  0  0
   -1.8008   33.1299  -15.9152 C   0  0  0  0  0  0  0  0  0  0  0  0
   -1.4465   32.1069  -16.5505 O   0  0  0  0  0  0  0  0  0  0  0  0
   -2.9479   33.6062  -16.0536 O   0  0  0  0  0  0  0  0  0  0  0  0
   -3.1990   34.3704  -15.5730 H   0  0  0  0  0  0  0  0  0  0  0  0
 10 11  2  0  0  0
 10 12  1  0  0  0
 10  1  1  0  0  0
  1  2  2  0  0  0
  1  7  1  0  0  0
  2  3  1  0  0  0
  2  4  1  0  0  0
  3  5  2  0  0  0
  5  6  1  0  0  0
  6  7  2  0  0  0
 12 13  1  0  0  0
  4  8  1  0  0  0
  4  9  1  0  0  0
M  END
> <minimizedAffinity>
-5.18649

$$$$
4OWV_BE2_A_401


 13 13  0  0  0  0  0  0  0  0999 V2000
   -0.3842   32.8183  -13.7456 C   0  0  0  0  0  0  0  0  0  0  0  0
   -0.9178   33.6928  -14.8384 C   0  0  0  0  0  0  0  0  0  0  0  0
   -0.4732   35.0074  -14.9519 C   0  0  0  0  0  0  0  0  0  0  0  0
   -1.8304   33.2223  -15.7339 N   0  0  0  0  0  0  0  0  0  0  0  0
    0.4541   35.4882  -14.0420 C   0  0  0  0  0  0  0  0  0  0  0  0
    0.9456   34.6719  -13.0290 C   0  0  0  0  0  0  0  0  0  0  0  0
    0.5493   33.3543  -12.8567 C   0  0  0  0  0  0  0  0  0  0  0  0
   -2.1538   32.2949  -15.6660 H   0  0  0  0  0  0  0  0  0  0  0  0
   -2.1664   33.8096  -16.4490 H   0  0  0  0  0  0  0  0  0  0  0  0
   -0.8411   31.3879  -13.6150 C   0  0  0  0  0  0  0  0  0  0  0  0
   -1.1310   30.9338  -12.4813 O   0  0  0  0  0  0  0  0  0  0  0  0
   -0.9363   30.6736  -14.6363 O   0  0  0  0  0  0  0  0  0  0  0  0
   -0.7166   31.0256  -15.4763 H   0  0  0  0  0  0  0  0  0  0  0  0
 10 11  2  0  0  0
 10 12  1  0  0  0
 10  1  1  0  0  0
  1  2  2  0  0  0
  1  7  1  0  0  0
  2  3  1  0  0  0
  2  4  1  0  0  0
  3  5  2  0  0  0
  5  6  1  0  0  0
  6  7  2  0  0  0
 12 13  1  0  0  0
  4  8  1  0  0  0
  4  9  1  0  0  0
M  END
> <minimizedAffinity>
-5.11538

$$$$
4OWV_BE2_A_401


 13 13  0  0  0  0  0  0  0  0999 V2000
   -0.9934   33.0868  -14.8516 C   0  0  0  0  0  0  0  0  0  0  0  0
   -0.3447   34.3828  -14.4731 C   0  0  0  0  0  0  0  0  0  0  0  0
    0.4785   34.4430  -13.3517 C   0  0  0  0  0  0  0  0  0  0  0  0
   -0.5398   35.5099  -15.2132 N   0  0  0  0  0  0  0  0  0  0  0  0
    0.6776   33.2984  -12.5973 C   0  0  0  0  0  0  0  0  0  0  0  0
    0.0723   32.0980  -12.9531 C   0  0  0  0  0  0  0  0  0  0  0  0
   -0.7576   31.9642  -14.0559 C   0  0  0  0  0  0  0  0  0  0  0  0
   -1.1193   35.4823  -16.0086 H   0  0  0  0  0  0  0  0  0  0  0  0
   -0.1013   36.3520  -14.9525 H   0  0  0  0  0  0  0  0  0  0  0  0
   -1.8756   32.9971  -16.0704 C   0  0  0  0  0  0  0  0  0  0  0  0
   -2.9142   33.6991  -16.1334 O   0  0  0  0  0  0  0  0  0  0  0  0
   -1.5586   32.2342  -17.0082 O   0  0  0  0  0  0  0  0  0  0  0  0
   -0.7804   31.7158  -16.9478 H   0  0  0  0  0  0  0  0  0  0  0  0
 10 11  2  0  0  0
 10 12  1  0  0  0
 10  1  1  0  0  0
  1  2  2  0  0  0
  1  7  1  0  0  0
  2  3  1  0  0  0
  2  4  1  0  0  0
  3  5  2  0  0  0
  5  6  1  0  0  0
  6  7  2  0  0  0
 12 13  1  0  0  0
  4  8  1  0  0  0
  4  9  1  0  0  0
M  END
> <minimizedAffinity>
-4.99291

$$$$
4OWV_BE2_A_401


 13 13  0  0  0  0  0  0  0  0999 V2000
    0.5381   36.3315  -14.5248 C   0  0  0  0  0  0  0  0  0  0  0  0
    1.5456   37.4394  -14.4899 C   0  0  0  0  0  0  0  0  0  0  0  0
    1.4151   38.5210  -15.3570 C   0  0  0  0  0  0  0  0  0  0  0  0
    2.5904   37.4131  -13.6159 N   0  0  0  0  0  0  0  0  0  0  0  0
    0.3540   38.5493  -16.2471 C   0  0  0  0  0  0  0  0  0  0  0  0
   -0.5781   37.5176  -16.2755 C   0  0  0  0  0  0  0  0  0  0  0  0
   -0.5118   36.4118  -15.4415 C   0  0  0  0  0  0  0  0  0  0  0  0
    2.6955   36.6548  -12.9969 H   0  0  0  0  0  0  0  0  0  0  0  0
    3.2404   38.1525  -13.6033 H   0  0  0  0  0  0  0  0  0  0  0  0
    0.6530   35.1595  -13.5840 C   0  0  0  0  0  0  0  0  0  0  0  0
   -0.0100   34.1183  -13.8116 O   0  0  0  0  0  0  0  0  0  0  0  0
    1.4136   35.2329  -12.5950 O   0  0  0  0  0  0  0  0  0  0  0  0
    1.9026   36.0164  -12.4371 H   0  0  0  0  0  0  0  0  0  0  0  0
 10 11  2  0  0  0
 10 12  1  0  0  0
 10  1  1  0  0  0
  1  2  2  0  0  0
  1  7  1  0  0  0
  2  3  1  0  0  0
  2  4  1  0  0  0
  3  5  2  0  0  0
  5  6  1  0  0  0
  6  7  2  0  0  0
 12 13  1  0  0  0
  4  8  1  0  0  0
  4  9  1  0  0  0
M  END
> <minimizedAffinity>
-4.96435

$$$$
4OWV_BE2_A_401


 13 13  0  0  0  0  0  0  0  0999 V2000
   -0.0312   35.1432  -14.5999 C   0  0  0  0  0  0  0  0  0  0  0  0
   -0.8201   33.9834  -15.1254 C   0  0  0  0  0  0  0  0  0  0  0  0
   -0.8226   32.7767  -14.4307 C   0  0  0  0  0  0  0  0  0  0  0  0
   -1.5459   34.0885  -16.2736 N   0  0  0  0  0  0  0  0  0  0  0  0
   -0.0846   32.6674  -13.2634 C   0  0  0  0  0  0  0  0  0  0  0  0
    0.6464   33.7474  -12.7805 C   0  0  0  0  0  0  0  0  0  0  0  0
    0.6939   34.9777  -13.4184 C   0  0  0  0  0  0  0  0  0  0  0  0
   -1.5535   34.9355  -16.7753 H   0  0  0  0  0  0  0  0  0  0  0  0
   -2.0626   33.3174  -16.6016 H   0  0  0  0  0  0  0  0  0  0  0  0
   -0.0279   36.4626  -15.3288 C   0  0  0  0  0  0  0  0  0  0  0  0
    1.0621   37.0482  -15.5396 O   0  0  0  0  0  0  0  0  0  0  0  0
   -1.1073   36.9533  -15.7240 O   0  0  0  0  0  0  0  0  0  0  0  0
   -1.9136   36.5052  -15.5596 H   0  0  0  0  0  0  0  0  0  0  0  0
 10 11  2  0  0  0
 10 12  1  0  0  0
 10  1  1  0  0  0
  1  2  2  0  0  0
  1  7  1  0  0  0
  2  3  1  0  0  0
  2  4  1  0  0  0
  3  5  2  0  0  0
  5  6  1  0  0  0
  6  7  2  0  0  0
 12 13  1  0  0  0
  4  8  1  0  0  0
  4  9  1  0  0  0
M  END
> <minimizedAffinity>
-4.92089

$$$$
4OWV_BE2_A_401


 13 13  0  0  0  0  0  0  0  0999 V2000
   -0.1111   36.6051  -15.2924 C   0  0  0  0  0  0  0  0  0  0  0  0
    1.1195   37.0405  -14.5577 C   0  0  0  0  0  0  0  0  0  0  0  0
    1.6594   36.2240  -13.5674 C   0  0  0  0  0  0  0  0  0  0  0  0
    1.7292   38.2243  -14.8459 N   0  0  0  0  0  0  0  0  0  0  0  0
    1.0405   35.0204  -13.2721 C   0  0  0  0  0  0  0  0  0  0  0  0
   -0.1022   34.6215  -13.9571 C   0  0  0  0  0  0  0  0  0  0  0  0
   -0.6933   35.3820  -14.9546 C   0  0  0  0  0  0  0  0  0  0  0  0
    1.3588   38.8118  -15.5436 H   0  0  0  0  0  0  0  0  0  0  0  0
    2.5403   38.4921  -14.3564 H   0  0  0  0  0  0  0  0  0  0  0  0
   -0.7023   37.4673  -16.3783 C   0  0  0  0  0  0  0  0  0  0  0  0
   -1.9378   37.6884  -16.3865 O   0  0  0  0  0  0  0  0  0  0  0  0
    0.0441   37.9605  -17.2511 O   0  0  0  0  0  0  0  0  0  0  0  0
    0.9647   37.7870  -17.2328 H   0  0  0  0  0  0  0  0  0  0  0  0
 10 11  2  0  0  0
 10 12  1  0  0  0
 10  1  1  0  0  0
  1  2  2  0  0  0
  1  7  1  0  0  0
  2  3  1  0  0  0
  2  4  1  0  0  0
  3  5  2  0  0  0
  5  6  1  0  0  0
  6  7  2  0  0  0
 12 13  1  0  0  0
  4  8  1  0  0  0
  4  9  1  0  0  0
M  END
> <minimizedAffinity>
-4.91891

$$$$
4OWV_BE2_A_401


 13 13  0  0  0  0  0  0  0  0999 V2000
    0.0229   35.9144  -14.9756 C   0  0  0  0  0  0  0  0  0  0  0  0
    1.1614   36.1087  -14.0218 C   0  0  0  0  0  0  0  0  0  0  0  0
    1.8916   37.2940  -14.0482 C   0  0  0  0  0  0  0  0  0  0  0  0
    1.4946   35.1451  -13.1181 N   0  0  0  0  0  0  0  0  0  0  0  0
    1.5552   38.2747  -14.9668 C   0  0  0  0  0  0  0  0  0  0  0  0
    0.4975   38.0886  -15.8504 C   0  0  0  0  0  0  0  0  0  0  0  0
   -0.2730   36.9361  -15.8798 C   0  0  0  0  0  0  0  0  0  0  0  0
    0.9872   34.3020  -13.0879 H   0  0  0  0  0  0  0  0  0  0  0  0
    2.2427   35.2920  -12.4952 H   0  0  0  0  0  0  0  0  0  0  0  0
   -0.7896   34.6451  -14.9527 C   0  0  0  0  0  0  0  0  0  0  0  0
   -0.6805   33.8255  -15.8971 O   0  0  0  0  0  0  0  0  0  0  0  0
   -1.5540   34.4176  -13.9903 O   0  0  0  0  0  0  0  0  0  0  0  0
   -1.6257   35.0383  -13.2921 H   0  0  0  0  0  0  0  0  0  0  0  0
 10 11  2  0  0  0
 10 12  1  0  0  0
 10  1  1  0  0  0
  1  2  2  0  0  0
  1  7  1  0  0  0
  2  3  1  0  0  0
  2  4  1  0  0  0
  3  5  2  0  0  0
  5  6  1  0  0  0
  6  7  2  0  0  0
 12 13  1  0  0  0
  4  8  1  0  0  0
  4  9  1  0  0  0
M  END
> <minimizedAffinity>
-4.90650

$$$$
