6CKR_F5V_A_201


 30 33  0  0  0  0  0  0  0  0999 V2000
    6.0528   -8.9217  -11.1237 C   0  0  0  0  0  0  0  0  0  0  0  0
    6.0420   -8.9126   -9.7118 C   0  0  0  0  0  0  0  0  0  0  0  0
    5.0299   -9.5614   -8.9433 C   0  0  0  0  0  0  0  0  0  0  0  0
    5.0008   -9.6168  -11.7502 C   0  0  0  0  0  0  0  0  0  0  0  0
    3.9362  -10.2339  -11.0685 C   0  0  0  0  0  0  0  0  0  0  0  0
    3.9578  -10.2297   -9.6368 C   0  0  0  0  0  0  0  0  0  0  0  0
    2.9089  -10.8527   -8.8806 C   0  0  0  0  0  0  0  0  0  0  0  0
    1.9783  -11.4669   -9.4079 O   0  0  0  0  0  0  0  0  0  0  0  0
    2.9217  -10.8264   -7.5070 N   0  0  0  0  0  0  0  0  0  0  0  0
    1.8660  -11.4269   -6.7281 C   0  0  0  0  0  0  0  0  0  0  0  0
    3.9591  -10.1346   -6.8442 C   0  0  0  0  0  0  0  0  0  0  0  0
    4.9991   -9.5276   -7.5115 C   0  0  0  0  0  0  0  0  0  0  0  0
   10.4496   -7.3672  -12.8115 C   0  0  0  0  0  0  0  0  0  0  0  0
    8.9755   -7.6253  -12.5965 N   0  0  0  0  0  0  0  0  0  0  0  0
    8.3897   -8.3804  -11.6518 C   0  0  0  0  0  0  0  0  0  0  0  0
    8.0432   -7.0088  -13.3602 N   0  0  0  0  0  0  0  0  0  0  0  0
    6.8705   -7.4476  -12.8851 C   0  0  0  0  0  0  0  0  0  0  0  0
    7.0618   -8.2906  -11.8397 C   0  0  0  0  0  0  0  0  0  0  0  0
    6.0191   -8.8959   -6.6899 C   0  0  0  0  0  0  0  0  0  0  0  0
    5.8462   -7.5868   -6.2020 C   0  0  0  0  0  0  0  0  0  0  0  0
    7.2140   -9.6265   -6.3702 C   0  0  0  0  0  0  0  0  0  0  0  0
    8.2270   -9.0336   -5.5595 C   0  0  0  0  0  0  0  0  0  0  0  0
    8.0786   -7.7138   -5.0516 C   0  0  0  0  0  0  0  0  0  0  0  0
    6.8831   -6.9860   -5.3531 C   0  0  0  0  0  0  0  0  0  0  0  0
    6.8360   -5.7293   -4.8286 N   0  0  0  0  0  0  0  0  0  0  0  0
    7.0938   -4.9608   -5.3873 H   0  0  0  0  0  0  0  0  0  0  0  0
    6.3619   -5.4806   -3.2984 S   0  0  0  0  0  0  0  0  0  0  0  0
    7.4436   -6.1455   -2.4634 O   0  0  0  0  0  0  0  0  0  0  0  0
    6.2966   -4.0428   -2.9788 O   0  0  0  0  0  0  0  0  0  0  0  0
    4.7734   -6.2769   -3.1000 C   0  0  0  0  0  0  0  0  0  0  0  0
 13 14  1  0  0  0
 16 14  1  0  0  0
 16 17  2  0  0  0
 14 15  1  0  0  0
 17 18  1  0  0  0
 22 23  2  0  0  0
 22 21  1  0  0  0
 23 24  1  0  0  0
 15 18  2  0  0  0
 21 19  2  0  0  0
 18  1  1  0  0  0
  1  2  2  0  0  0
  1  4  1  0  0  0
 24 25  1  0  0  0
 24 20  2  0  0  0
  2  3  1  0  0  0
 19 20  1  0  0  0
 19 12  1  0  0  0
 25 27  1  0  0  0
  4  5  2  0  0  0
  3 12  1  0  0  0
  3  6  2  0  0  0
 12 11  2  0  0  0
  5  6  1  0  0  0
  6  7  1  0  0  0
 27 28  2  0  0  0
 27 30  1  0  0  0
 27 29  2  0  0  0
 11  9  1  0  0  0
  7  9  1  0  0  0
  7  8  2  0  0  0
  9 10  1  0  0  0
 25 26  1  0  0  0
M  END
> <minimizedAffinity>
-9.03722

$$$$
6CKR_F5V_A_201


 30 33  0  0  0  0  0  0  0  0999 V2000
    9.5063  -10.7424   -8.8453 C   0  0  0  0  0  0  0  0  0  0  0  0
    8.1575  -10.3292   -8.7854 C   0  0  0  0  0  0  0  0  0  0  0  0
    7.7122   -9.2665   -7.9438 C   0  0  0  0  0  0  0  0  0  0  0  0
   10.4095  -10.0418   -8.0232 C   0  0  0  0  0  0  0  0  0  0  0  0
   10.0437   -9.0221   -7.1257 C   0  0  0  0  0  0  0  0  0  0  0  0
    8.6740   -8.6060   -7.0977 C   0  0  0  0  0  0  0  0  0  0  0  0
    8.2371   -7.5624   -6.2145 C   0  0  0  0  0  0  0  0  0  0  0  0
    9.0102   -6.9353   -5.4862 O   0  0  0  0  0  0  0  0  0  0  0  0
    6.9176   -7.1820   -6.1744 N   0  0  0  0  0  0  0  0  0  0  0  0
    6.4534   -6.1509   -5.2781 C   0  0  0  0  0  0  0  0  0  0  0  0
    5.9822   -7.8653   -6.9820 C   0  0  0  0  0  0  0  0  0  0  0  0
    6.3397   -8.8657   -7.8577 C   0  0  0  0  0  0  0  0  0  0  0  0
   12.1317  -13.7561  -11.7816 C   0  0  0  0  0  0  0  0  0  0  0  0
   11.0505  -13.1042  -10.9499 N   0  0  0  0  0  0  0  0  0  0  0  0
   11.1172  -11.9664  -10.2380 C   0  0  0  0  0  0  0  0  0  0  0  0
    9.7999  -13.6207  -10.9073 N   0  0  0  0  0  0  0  0  0  0  0  0
    9.1166  -12.7910  -10.1085 C   0  0  0  0  0  0  0  0  0  0  0  0
    9.9068  -11.7724   -9.6865 C   0  0  0  0  0  0  0  0  0  0  0  0
    5.2714   -9.4423   -8.6582 C   0  0  0  0  0  0  0  0  0  0  0  0
    4.3230  -10.3085   -8.0822 C   0  0  0  0  0  0  0  0  0  0  0  0
    5.1850   -9.1135  -10.0540 C   0  0  0  0  0  0  0  0  0  0  0  0
    4.1424   -9.6587  -10.8606 C   0  0  0  0  0  0  0  0  0  0  0  0
    3.1699  -10.5349  -10.3052 C   0  0  0  0  0  0  0  0  0  0  0  0
    3.2406  -10.8540   -8.9114 C   0  0  0  0  0  0  0  0  0  0  0  0
    2.2708  -11.7054   -8.4740 N   0  0  0  0  0  0  0  0  0  0  0  0
    2.3188  -12.6591   -8.7135 H   0  0  0  0  0  0  0  0  0  0  0  0
    1.0392  -11.1715   -7.5651 S   0  0  0  0  0  0  0  0  0  0  0  0
    0.3612  -12.4413   -7.0782 O   0  0  0  0  0  0  0  0  0  0  0  0
    1.5175  -10.3865   -6.4123 O   0  0  0  0  0  0  0  0  0  0  0  0
   -0.0247  -10.2059   -8.6293 C   0  0  0  0  0  0  0  0  0  0  0  0
 13 14  1  0  0  0
 16 14  1  0  0  0
 16 17  2  0  0  0
 14 15  1  0  0  0
 17 18  1  0  0  0
 22 23  2  0  0  0
 22 21  1  0  0  0
 23 24  1  0  0  0
 15 18  2  0  0  0
 21 19  2  0  0  0
 18  1  1  0  0  0
  1  2  2  0  0  0
  1  4  1  0  0  0
 24 25  1  0  0  0
 24 20  2  0  0  0
  2  3  1  0  0  0
 19 20  1  0  0  0
 19 12  1  0  0  0
 25 27  1  0  0  0
  4  5  2  0  0  0
  3 12  1  0  0  0
  3  6  2  0  0  0
 12 11  2  0  0  0
  5  6  1  0  0  0
  6  7  1  0  0  0
 27 28  2  0  0  0
 27 30  1  0  0  0
 27 29  2  0  0  0
 11  9  1  0  0  0
  7  9  1  0  0  0
  7  8  2  0  0  0
  9 10  1  0  0  0
 25 26  1  0  0  0
M  END
> <minimizedAffinity>
-8.92747

$$$$
6CKR_F5V_A_201


 30 33  0  0  0  0  0  0  0  0999 V2000
    8.0345   -8.1162   -6.1881 C   0  0  0  0  0  0  0  0  0  0  0  0
    7.4369   -8.7318   -7.3095 C   0  0  0  0  0  0  0  0  0  0  0  0
    8.1559   -9.5912   -8.1929 C   0  0  0  0  0  0  0  0  0  0  0  0
    9.3976   -8.3975   -5.9758 C   0  0  0  0  0  0  0  0  0  0  0  0
   10.1905   -9.1869   -6.8284 C   0  0  0  0  0  0  0  0  0  0  0  0
    9.5578   -9.8177   -7.9474 C   0  0  0  0  0  0  0  0  0  0  0  0
   10.3068  -10.6463   -8.8487 C   0  0  0  0  0  0  0  0  0  0  0  0
   11.5010  -10.9065   -8.6823 O   0  0  0  0  0  0  0  0  0  0  0  0
    9.7007  -11.2311   -9.9342 N   0  0  0  0  0  0  0  0  0  0  0  0
   10.4397  -12.0492  -10.8649 C   0  0  0  0  0  0  0  0  0  0  0  0
    8.3354  -10.9679  -10.1813 C   0  0  0  0  0  0  0  0  0  0  0  0
    7.5603  -10.1923   -9.3487 C   0  0  0  0  0  0  0  0  0  0  0  0
    6.5748   -5.2154   -2.4395 C   0  0  0  0  0  0  0  0  0  0  0  0
    6.6636   -6.0113   -3.7218 N   0  0  0  0  0  0  0  0  0  0  0  0
    7.6870   -6.7569   -4.1720 C   0  0  0  0  0  0  0  0  0  0  0  0
    5.6034   -6.1017   -4.5587 N   0  0  0  0  0  0  0  0  0  0  0  0
    6.0258   -6.8859   -5.5588 C   0  0  0  0  0  0  0  0  0  0  0  0
    7.3005   -7.2956   -5.3413 C   0  0  0  0  0  0  0  0  0  0  0  0
    6.1584  -10.0521   -9.7084 C   0  0  0  0  0  0  0  0  0  0  0  0
    5.1569  -10.0300   -8.7194 C   0  0  0  0  0  0  0  0  0  0  0  0
    5.7986   -9.9279  -11.0936 C   0  0  0  0  0  0  0  0  0  0  0  0
    4.4316   -9.7810  -11.4737 C   0  0  0  0  0  0  0  0  0  0  0  0
    3.3992   -9.7538  -10.4963 C   0  0  0  0  0  0  0  0  0  0  0  0
    3.7522   -9.8609   -9.1129 C   0  0  0  0  0  0  0  0  0  0  0  0
    2.6952   -9.8319   -8.2535 N   0  0  0  0  0  0  0  0  0  0  0  0
    2.4270   -8.9780   -7.8433 H   0  0  0  0  0  0  0  0  0  0  0  0
    1.8726  -11.1823   -7.8961 S   0  0  0  0  0  0  0  0  0  0  0  0
    2.6142  -12.2764   -8.6459 O   0  0  0  0  0  0  0  0  0  0  0  0
    1.8961  -11.4636   -6.4490 O   0  0  0  0  0  0  0  0  0  0  0  0
    0.2048  -10.9625   -8.5018 C   0  0  0  0  0  0  0  0  0  0  0  0
 13 14  1  0  0  0
 16 14  1  0  0  0
 16 17  2  0  0  0
 14 15  1  0  0  0
 17 18  1  0  0  0
 22 23  2  0  0  0
 22 21  1  0  0  0
 23 24  1  0  0  0
 15 18  2  0  0  0
 21 19  2  0  0  0
 18  1  1  0  0  0
  1  2  2  0  0  0
  1  4  1  0  0  0
 24 25  1  0  0  0
 24 20  2  0  0  0
  2  3  1  0  0  0
 19 20  1  0  0  0
 19 12  1  0  0  0
 25 27  1  0  0  0
  4  5  2  0  0  0
  3 12  1  0  0  0
  3  6  2  0  0  0
 12 11  2  0  0  0
  5  6  1  0  0  0
  6  7  1  0  0  0
 27 28  2  0  0  0
 27 30  1  0  0  0
 27 29  2  0  0  0
 11  9  1  0  0  0
  7  9  1  0  0  0
  7  8  2  0  0  0
  9 10  1  0  0  0
 25 26  1  0  0  0
M  END
> <minimizedAffinity>
-8.74871

$$$$
6CKR_F5V_A_201


 30 33  0  0  0  0  0  0  0  0999 V2000
    5.3367   -8.7844   -7.2883 C   0  0  0  0  0  0  0  0  0  0  0  0
    5.5321   -8.9081   -8.6812 C   0  0  0  0  0  0  0  0  0  0  0  0
    4.7188   -9.7435   -9.5037 C   0  0  0  0  0  0  0  0  0  0  0  0
    4.2800   -9.5349   -6.7385 C   0  0  0  0  0  0  0  0  0  0  0  0
    3.4692  -10.4229   -7.4685 C   0  0  0  0  0  0  0  0  0  0  0  0
    3.6723  -10.5158   -8.8829 C   0  0  0  0  0  0  0  0  0  0  0  0
    2.8706  -11.3929   -9.6879 C   0  0  0  0  0  0  0  0  0  0  0  0
    1.9401  -12.0591   -9.2280 O   0  0  0  0  0  0  0  0  0  0  0  0
    3.0841  -11.4961  -11.0412 N   0  0  0  0  0  0  0  0  0  0  0  0
    2.3048  -12.3880  -11.8651 C   0  0  0  0  0  0  0  0  0  0  0  0
    4.1382  -10.7613  -11.6270 C   0  0  0  0  0  0  0  0  0  0  0  0
    4.9341   -9.8950  -10.9118 C   0  0  0  0  0  0  0  0  0  0  0  0
    8.8825   -6.9769   -4.3290 C   0  0  0  0  0  0  0  0  0  0  0  0
    7.6952   -7.1504   -5.2488 N   0  0  0  0  0  0  0  0  0  0  0  0
    7.2234   -8.2826   -5.7978 C   0  0  0  0  0  0  0  0  0  0  0  0
    6.9018   -6.1002   -5.5652 N   0  0  0  0  0  0  0  0  0  0  0  0
    5.9583   -6.6157   -6.3638 C   0  0  0  0  0  0  0  0  0  0  0  0
    6.1395   -7.9509   -6.5203 C   0  0  0  0  0  0  0  0  0  0  0  0
    5.9476   -9.1718  -11.6629 C   0  0  0  0  0  0  0  0  0  0  0  0
    7.2628   -9.6639  -11.7619 C   0  0  0  0  0  0  0  0  0  0  0  0
    5.5928   -7.9424  -12.3159 C   0  0  0  0  0  0  0  0  0  0  0  0
    6.5654   -7.2169  -13.0659 C   0  0  0  0  0  0  0  0  0  0  0  0
    7.9008   -7.6909  -13.1844 C   0  0  0  0  0  0  0  0  0  0  0  0
    8.2570   -8.9237  -12.5495 C   0  0  0  0  0  0  0  0  0  0  0  0
    9.5588   -9.2913  -12.7136 N   0  0  0  0  0  0  0  0  0  0  0  0
    9.8172   -9.8216  -13.5018 H   0  0  0  0  0  0  0  0  0  0  0  0
   10.6885   -8.8685  -11.6306 S   0  0  0  0  0  0  0  0  0  0  0  0
   11.2564   -7.5690  -12.1765 O   0  0  0  0  0  0  0  0  0  0  0  0
   10.1013   -8.6367  -10.2982 O   0  0  0  0  0  0  0  0  0  0  0  0
   11.9080  -10.1757  -11.5994 C   0  0  0  0  0  0  0  0  0  0  0  0
 13 14  1  0  0  0
 16 14  1  0  0  0
 16 17  2  0  0  0
 14 15  1  0  0  0
 17 18  1  0  0  0
 22 23  2  0  0  0
 22 21  1  0  0  0
 23 24  1  0  0  0
 15 18  2  0  0  0
 21 19  2  0  0  0
 18  1  1  0  0  0
  1  2  2  0  0  0
  1  4  1  0  0  0
 24 25  1  0  0  0
 24 20  2  0  0  0
  2  3  1  0  0  0
 19 20  1  0  0  0
 19 12  1  0  0  0
 25 27  1  0  0  0
  4  5  2  0  0  0
  3 12  1  0  0  0
  3  6  2  0  0  0
 12 11  2  0  0  0
  5  6  1  0  0  0
  6  7  1  0  0  0
 27 28  2  0  0  0
 27 30  1  0  0  0
 27 29  2  0  0  0
 11  9  1  0  0  0
  7  9  1  0  0  0
  7  8  2  0  0  0
  9 10  1  0  0  0
 25 26  1  0  0  0
M  END
> <minimizedAffinity>
-8.35433

$$$$
6CKR_F5V_A_201


 30 33  0  0  0  0  0  0  0  0999 V2000
    7.9455   -7.6991   -6.1217 C   0  0  0  0  0  0  0  0  0  0  0  0
    6.9675   -8.4029   -6.8578 C   0  0  0  0  0  0  0  0  0  0  0  0
    7.2738   -9.1408   -8.0400 C   0  0  0  0  0  0  0  0  0  0  0  0
    9.2625   -7.7632   -6.6154 C   0  0  0  0  0  0  0  0  0  0  0  0
    9.6379   -8.4203   -7.8012 C   0  0  0  0  0  0  0  0  0  0  0  0
    8.6329   -9.1446   -8.5194 C   0  0  0  0  0  0  0  0  0  0  0  0
    8.9521   -9.8474   -9.7294 C   0  0  0  0  0  0  0  0  0  0  0  0
   10.0981   -9.9171  -10.1800 O   0  0  0  0  0  0  0  0  0  0  0  0
    7.9800  -10.5219  -10.4278 N   0  0  0  0  0  0  0  0  0  0  0  0
    8.2748  -11.2160  -11.6578 C   0  0  0  0  0  0  0  0  0  0  0  0
    6.6467  -10.4763   -9.9648 C   0  0  0  0  0  0  0  0  0  0  0  0
    6.2788   -9.8300   -8.8061 C   0  0  0  0  0  0  0  0  0  0  0  0
    5.5558   -5.0994   -2.6392 C   0  0  0  0  0  0  0  0  0  0  0  0
    6.5720   -5.8879   -3.4337 N   0  0  0  0  0  0  0  0  0  0  0  0
    6.4447   -6.4115   -4.6647 C   0  0  0  0  0  0  0  0  0  0  0  0
    7.8233   -6.0879   -2.9574 N   0  0  0  0  0  0  0  0  0  0  0  0
    8.4424   -6.7917   -3.9139 C   0  0  0  0  0  0  0  0  0  0  0  0
    7.6138   -7.0020   -4.9671 C   0  0  0  0  0  0  0  0  0  0  0  0
    4.8758   -9.9117   -8.4328 C   0  0  0  0  0  0  0  0  0  0  0  0
    3.8649   -9.8983   -9.4124 C   0  0  0  0  0  0  0  0  0  0  0  0
    4.5243  -10.0140   -7.0436 C   0  0  0  0  0  0  0  0  0  0  0  0
    3.1561  -10.1036   -6.6502 C   0  0  0  0  0  0  0  0  0  0  0  0
    2.1143  -10.0941   -7.6179 C   0  0  0  0  0  0  0  0  0  0  0  0
    2.4583  -10.0085   -9.0051 C   0  0  0  0  0  0  0  0  0  0  0  0
    1.3929   -9.9993   -9.8546 N   0  0  0  0  0  0  0  0  0  0  0  0
    1.4520   -9.4998  -10.7009 H   0  0  0  0  0  0  0  0  0  0  0  0
    0.0296  -10.7982   -9.4926 S   0  0  0  0  0  0  0  0  0  0  0  0
   -0.2857  -11.5828  -10.7552 O   0  0  0  0  0  0  0  0  0  0  0  0
    0.2292  -11.7260   -8.3642 O   0  0  0  0  0  0  0  0  0  0  0  0
   -1.2218   -9.5736   -9.1307 C   0  0  0  0  0  0  0  0  0  0  0  0
 13 14  1  0  0  0
 16 14  1  0  0  0
 16 17  2  0  0  0
 14 15  1  0  0  0
 17 18  1  0  0  0
 22 23  2  0  0  0
 22 21  1  0  0  0
 23 24  1  0  0  0
 15 18  2  0  0  0
 21 19  2  0  0  0
 18  1  1  0  0  0
  1  2  2  0  0  0
  1  4  1  0  0  0
 24 25  1  0  0  0
 24 20  2  0  0  0
  2  3  1  0  0  0
 19 20  1  0  0  0
 19 12  1  0  0  0
 25 27  1  0  0  0
  4  5  2  0  0  0
  3 12  1  0  0  0
  3  6  2  0  0  0
 12 11  2  0  0  0
  5  6  1  0  0  0
  6  7  1  0  0  0
 27 28  2  0  0  0
 27 30  1  0  0  0
 27 29  2  0  0  0
 11  9  1  0  0  0
  7  9  1  0  0  0
  7  8  2  0  0  0
  9 10  1  0  0  0
 25 26  1  0  0  0
M  END
> <minimizedAffinity>
-8.21029

$$$$
6CKR_F5V_A_201


 30 33  0  0  0  0  0  0  0  0999 V2000
    4.7749   -9.4749  -10.4855 C   0  0  0  0  0  0  0  0  0  0  0  0
    6.0960   -9.3315  -10.0083 C   0  0  0  0  0  0  0  0  0  0  0  0
    7.1713   -8.8871  -10.8343 C   0  0  0  0  0  0  0  0  0  0  0  0
    4.5628   -9.1496  -11.8389 C   0  0  0  0  0  0  0  0  0  0  0  0
    5.5762   -8.7587  -12.7328 C   0  0  0  0  0  0  0  0  0  0  0  0
    6.9041   -8.6000  -12.2211 C   0  0  0  0  0  0  0  0  0  0  0  0
    7.9813   -8.1912  -13.0770 C   0  0  0  0  0  0  0  0  0  0  0  0
    7.8187   -7.9011  -14.2647 O   0  0  0  0  0  0  0  0  0  0  0  0
    9.2584   -8.0624  -12.5869 N   0  0  0  0  0  0  0  0  0  0  0  0
   10.3595   -7.6745  -13.4347 C   0  0  0  0  0  0  0  0  0  0  0  0
    9.5097   -8.3843  -11.2351 C   0  0  0  0  0  0  0  0  0  0  0  0
    8.5183   -8.7703  -10.3612 C   0  0  0  0  0  0  0  0  0  0  0  0
    1.9675  -10.5232   -6.5338 C   0  0  0  0  0  0  0  0  0  0  0  0
    2.5095  -10.3371   -7.9328 N   0  0  0  0  0  0  0  0  0  0  0  0
    3.7048   -9.8501   -8.3068 C   0  0  0  0  0  0  0  0  0  0  0  0
    1.8019  -10.7453   -9.0123 N   0  0  0  0  0  0  0  0  0  0  0  0
    2.5804  -10.4486  -10.0609 C   0  0  0  0  0  0  0  0  0  0  0  0
    3.7496   -9.8974   -9.6494 C   0  0  0  0  0  0  0  0  0  0  0  0
    8.9234   -9.0217   -8.9874 C   0  0  0  0  0  0  0  0  0  0  0  0
    8.1135   -8.6177   -7.9093 C   0  0  0  0  0  0  0  0  0  0  0  0
   10.1653   -9.6984   -8.7350 C   0  0  0  0  0  0  0  0  0  0  0  0
   10.5828   -9.9649   -7.3973 C   0  0  0  0  0  0  0  0  0  0  0  0
    9.7843   -9.5697   -6.2890 C   0  0  0  0  0  0  0  0  0  0  0  0
    8.5379   -8.9093   -6.5339 C   0  0  0  0  0  0  0  0  0  0  0  0
    7.8482   -8.5639   -5.4106 N   0  0  0  0  0  0  0  0  0  0  0  0
    7.5287   -9.2686   -4.8019 H   0  0  0  0  0  0  0  0  0  0  0  0
    7.5458   -7.0099   -5.0616 S   0  0  0  0  0  0  0  0  0  0  0  0
    7.5991   -6.9546   -3.5439 O   0  0  0  0  0  0  0  0  0  0  0  0
    8.5721   -6.1175   -5.6308 O   0  0  0  0  0  0  0  0  0  0  0  0
    5.9157   -6.6330   -5.6922 C   0  0  0  0  0  0  0  0  0  0  0  0
 13 14  1  0  0  0
 16 14  1  0  0  0
 16 17  2  0  0  0
 14 15  1  0  0  0
 17 18  1  0  0  0
 22 23  2  0  0  0
 22 21  1  0  0  0
 23 24  1  0  0  0
 15 18  2  0  0  0
 21 19  2  0  0  0
 18  1  1  0  0  0
  1  2  2  0  0  0
  1  4  1  0  0  0
 24 25  1  0  0  0
 24 20  2  0  0  0
  2  3  1  0  0  0
 19 20  1  0  0  0
 19 12  1  0  0  0
 25 27  1  0  0  0
  4  5  2  0  0  0
  3 12  1  0  0  0
  3  6  2  0  0  0
 12 11  2  0  0  0
  5  6  1  0  0  0
  6  7  1  0  0  0
 27 28  2  0  0  0
 27 30  1  0  0  0
 27 29  2  0  0  0
 11  9  1  0  0  0
  7  9  1  0  0  0
  7  8  2  0  0  0
  9 10  1  0  0  0
 25 26  1  0  0  0
M  END
> <minimizedAffinity>
-8.10335

$$$$
6CKR_F5V_A_201


 30 33  0  0  0  0  0  0  0  0999 V2000
    8.7951   -8.8337   -6.7882 C   0  0  0  0  0  0  0  0  0  0  0  0
    7.9284   -9.3242   -7.7892 C   0  0  0  0  0  0  0  0  0  0  0  0
    8.3670  -10.1941   -8.8316 C   0  0  0  0  0  0  0  0  0  0  0  0
   10.1368   -9.2534   -6.8656 C   0  0  0  0  0  0  0  0  0  0  0  0
   10.6607  -10.0626   -7.8902 C   0  0  0  0  0  0  0  0  0  0  0  0
    9.7587  -10.5650   -8.8823 C   0  0  0  0  0  0  0  0  0  0  0  0
   10.2263  -11.4061   -9.9471 C   0  0  0  0  0  0  0  0  0  0  0  0
   11.3964  -11.7863  -10.0346 O   0  0  0  0  0  0  0  0  0  0  0  0
    9.3615  -11.8672  -10.9100 N   0  0  0  0  0  0  0  0  0  0  0  0
    9.8146  -12.6952  -12.0012 C   0  0  0  0  0  0  0  0  0  0  0  0
    8.0090  -11.4633  -10.8670 C   0  0  0  0  0  0  0  0  0  0  0  0
    7.4970  -10.6684   -9.8662 C   0  0  0  0  0  0  0  0  0  0  0  0
    5.9888   -5.9069   -3.9324 C   0  0  0  0  0  0  0  0  0  0  0  0
    7.1069   -6.7397   -4.5173 N   0  0  0  0  0  0  0  0  0  0  0  0
    7.1131   -7.4414   -5.6633 C   0  0  0  0  0  0  0  0  0  0  0  0
    8.3194   -6.7946   -3.9179 N   0  0  0  0  0  0  0  0  0  0  0  0
    9.0527   -7.5905   -4.7067 C   0  0  0  0  0  0  0  0  0  0  0  0
    8.3307   -7.9988   -5.7801 C   0  0  0  0  0  0  0  0  0  0  0  0
    6.0740  -10.3767   -9.9306 C   0  0  0  0  0  0  0  0  0  0  0  0
    5.3336  -10.1256   -8.7599 C   0  0  0  0  0  0  0  0  0  0  0  0
    5.4228  -10.3391  -11.2106 C   0  0  0  0  0  0  0  0  0  0  0  0
    4.0296  -10.0475  -11.3031 C   0  0  0  0  0  0  0  0  0  0  0  0
    3.2573   -9.7882  -10.1377 C   0  0  0  0  0  0  0  0  0  0  0  0
    3.9032   -9.8082   -8.8601 C   0  0  0  0  0  0  0  0  0  0  0  0
    3.0803   -9.5553   -7.8039 N   0  0  0  0  0  0  0  0  0  0  0  0
    3.2584   -8.7787   -7.2257 H   0  0  0  0  0  0  0  0  0  0  0  0
    1.8125  -10.5140   -7.4852 S   0  0  0  0  0  0  0  0  0  0  0  0
    1.4391  -10.1695   -6.0530 O   0  0  0  0  0  0  0  0  0  0  0  0
    0.6774  -10.2261   -8.3810 O   0  0  0  0  0  0  0  0  0  0  0  0
    2.3727  -12.2042   -7.6470 C   0  0  0  0  0  0  0  0  0  0  0  0
 13 14  1  0  0  0
 16 14  1  0  0  0
 16 17  2  0  0  0
 14 15  1  0  0  0
 17 18  1  0  0  0
 22 23  2  0  0  0
 22 21  1  0  0  0
 23 24  1  0  0  0
 15 18  2  0  0  0
 21 19  2  0  0  0
 18  1  1  0  0  0
  1  2  2  0  0  0
  1  4  1  0  0  0
 24 25  1  0  0  0
 24 20  2  0  0  0
  2  3  1  0  0  0
 19 20  1  0  0  0
 19 12  1  0  0  0
 25 27  1  0  0  0
  4  5  2  0  0  0
  3 12  1  0  0  0
  3  6  2  0  0  0
 12 11  2  0  0  0
  5  6  1  0  0  0
  6  7  1  0  0  0
 27 28  2  0  0  0
 27 30  1  0  0  0
 27 29  2  0  0  0
 11  9  1  0  0  0
  7  9  1  0  0  0
  7  8  2  0  0  0
  9 10  1  0  0  0
 25 26  1  0  0  0
M  END
> <minimizedAffinity>
-8.04753

$$$$
6CKR_F5V_A_201


 30 33  0  0  0  0  0  0  0  0999 V2000
    3.3326  -10.1923   -8.8038 C   0  0  0  0  0  0  0  0  0  0  0  0
    4.4557   -9.8753   -9.5987 C   0  0  0  0  0  0  0  0  0  0  0  0
    5.7231   -9.5301   -9.0416 C   0  0  0  0  0  0  0  0  0  0  0  0
    3.5256  -10.1547   -7.4097 C   0  0  0  0  0  0  0  0  0  0  0  0
    4.7242   -9.7709   -6.7812 C   0  0  0  0  0  0  0  0  0  0  0  0
    5.8554   -9.4743   -7.6076 C   0  0  0  0  0  0  0  0  0  0  0  0
    7.1114   -9.0890   -7.0296 C   0  0  0  0  0  0  0  0  0  0  0  0
    7.3031   -9.0494   -5.8118 O   0  0  0  0  0  0  0  0  0  0  0  0
    8.1876   -8.7829   -7.8268 N   0  0  0  0  0  0  0  0  0  0  0  0
    9.4523   -8.3719   -7.2671 C   0  0  0  0  0  0  0  0  0  0  0  0
    8.0299   -8.8058   -9.2300 C   0  0  0  0  0  0  0  0  0  0  0  0
    6.8556   -9.1779   -9.8449 C   0  0  0  0  0  0  0  0  0  0  0  0
   -1.4281  -10.3087  -10.1890 C   0  0  0  0  0  0  0  0  0  0  0  0
    0.0476  -10.5823  -10.0075 N   0  0  0  0  0  0  0  0  0  0  0  0
    0.9319   -9.9178   -9.2444 C   0  0  0  0  0  0  0  0  0  0  0  0
    0.6334  -11.6523  -10.5944 N   0  0  0  0  0  0  0  0  0  0  0  0
    1.9138  -11.5941  -10.2061 C   0  0  0  0  0  0  0  0  0  0  0  0
    2.1170  -10.5372   -9.3804 C   0  0  0  0  0  0  0  0  0  0  0  0
    6.8608   -9.1993  -11.2989 C   0  0  0  0  0  0  0  0  0  0  0  0
    6.9152   -8.0033  -12.0394 C   0  0  0  0  0  0  0  0  0  0  0  0
    6.8165  -10.4622  -11.9820 C   0  0  0  0  0  0  0  0  0  0  0  0
    6.8285  -10.5123  -13.4076 C   0  0  0  0  0  0  0  0  0  0  0  0
    6.8848   -9.3205  -14.1811 C   0  0  0  0  0  0  0  0  0  0  0  0
    6.9453   -8.0592  -13.5066 C   0  0  0  0  0  0  0  0  0  0  0  0
    6.9894   -6.9757  -14.3317 N   0  0  0  0  0  0  0  0  0  0  0  0
    6.1493   -6.5873  -14.6673 H   0  0  0  0  0  0  0  0  0  0  0  0
    8.4045   -6.3166  -14.7691 S   0  0  0  0  0  0  0  0  0  0  0  0
    8.8876   -5.6107  -13.5131 O   0  0  0  0  0  0  0  0  0  0  0  0
    9.3803   -7.3464  -15.1706 O   0  0  0  0  0  0  0  0  0  0  0  0
    8.0662   -5.1696  -16.0983 C   0  0  0  0  0  0  0  0  0  0  0  0
 13 14  1  0  0  0
 16 14  1  0  0  0
 16 17  2  0  0  0
 14 15  1  0  0  0
 17 18  1  0  0  0
 22 23  2  0  0  0
 22 21  1  0  0  0
 23 24  1  0  0  0
 15 18  2  0  0  0
 21 19  2  0  0  0
 18  1  1  0  0  0
  1  2  2  0  0  0
  1  4  1  0  0  0
 24 25  1  0  0  0
 24 20  2  0  0  0
  2  3  1  0  0  0
 19 20  1  0  0  0
 19 12  1  0  0  0
 25 27  1  0  0  0
  4  5  2  0  0  0
  3 12  1  0  0  0
  3  6  2  0  0  0
 12 11  2  0  0  0
  5  6  1  0  0  0
  6  7  1  0  0  0
 27 28  2  0  0  0
 27 30  1  0  0  0
 27 29  2  0  0  0
 11  9  1  0  0  0
  7  9  1  0  0  0
  7  8  2  0  0  0
  9 10  1  0  0  0
 25 26  1  0  0  0
M  END
> <minimizedAffinity>
-7.89623

$$$$
6CKR_F5V_A_201


 30 33  0  0  0  0  0  0  0  0999 V2000
    8.1639   -8.2806   -6.5627 C   0  0  0  0  0  0  0  0  0  0  0  0
    7.8746   -8.6165   -7.9033 C   0  0  0  0  0  0  0  0  0  0  0  0
    8.7298   -9.4401   -8.6946 C   0  0  0  0  0  0  0  0  0  0  0  0
    9.3561   -8.8087   -6.0316 C   0  0  0  0  0  0  0  0  0  0  0  0
   10.2796   -9.5806   -6.7598 C   0  0  0  0  0  0  0  0  0  0  0  0
    9.9546   -9.9260   -8.1109 C   0  0  0  0  0  0  0  0  0  0  0  0
   10.8472  -10.7218   -8.9047 C   0  0  0  0  0  0  0  0  0  0  0  0
   11.8961  -11.1948   -8.4605 O   0  0  0  0  0  0  0  0  0  0  0  0
   10.5422  -11.0315  -10.2080 N   0  0  0  0  0  0  0  0  0  0  0  0
   11.4355  -11.8110  -11.0303 C   0  0  0  0  0  0  0  0  0  0  0  0
    9.3566  -10.5156  -10.7759 C   0  0  0  0  0  0  0  0  0  0  0  0
    8.4546   -9.7571  -10.0642 C   0  0  0  0  0  0  0  0  0  0  0  0
    6.1841   -5.3413   -3.0932 C   0  0  0  0  0  0  0  0  0  0  0  0
    6.4373   -6.1868   -4.3207 N   0  0  0  0  0  0  0  0  0  0  0  0
    7.5504   -6.8619   -4.6538 C   0  0  0  0  0  0  0  0  0  0  0  0
    5.4561   -6.4080   -5.2267 N   0  0  0  0  0  0  0  0  0  0  0  0
    6.0179   -7.1995   -6.1494 C   0  0  0  0  0  0  0  0  0  0  0  0
    7.3014   -7.4870   -5.8175 C   0  0  0  0  0  0  0  0  0  0  0  0
    7.2552   -9.3383  -10.7717 C   0  0  0  0  0  0  0  0  0  0  0  0
    7.2653   -8.2016  -11.6020 C   0  0  0  0  0  0  0  0  0  0  0  0
    6.0490  -10.1040  -10.6218 C   0  0  0  0  0  0  0  0  0  0  0  0
    4.8604   -9.7201  -11.3107 C   0  0  0  0  0  0  0  0  0  0  0  0
    4.8418   -8.5777  -12.1571 C   0  0  0  0  0  0  0  0  0  0  0  0
    6.0447   -7.8194  -12.3236 C   0  0  0  0  0  0  0  0  0  0  0  0
    5.9261   -6.7402  -13.1471 N   0  0  0  0  0  0  0  0  0  0  0  0
    5.4646   -5.9326  -12.8246 H   0  0  0  0  0  0  0  0  0  0  0  0
    6.5333   -6.7663  -14.6499 S   0  0  0  0  0  0  0  0  0  0  0  0
    7.8888   -6.0932  -14.5129 O   0  0  0  0  0  0  0  0  0  0  0  0
    6.7075   -8.1461  -15.1396 O   0  0  0  0  0  0  0  0  0  0  0  0
    5.4186   -5.8301  -15.6880 C   0  0  0  0  0  0  0  0  0  0  0  0
 13 14  1  0  0  0
 16 14  1  0  0  0
 16 17  2  0  0  0
 14 15  1  0  0  0
 17 18  1  0  0  0
 22 23  2  0  0  0
 22 21  1  0  0  0
 23 24  1  0  0  0
 15 18  2  0  0  0
 21 19  2  0  0  0
 18  1  1  0  0  0
  1  2  2  0  0  0
  1  4  1  0  0  0
 24 25  1  0  0  0
 24 20  2  0  0  0
  2  3  1  0  0  0
 19 20  1  0  0  0
 19 12  1  0  0  0
 25 27  1  0  0  0
  4  5  2  0  0  0
  3 12  1  0  0  0
  3  6  2  0  0  0
 12 11  2  0  0  0
  5  6  1  0  0  0
  6  7  1  0  0  0
 27 28  2  0  0  0
 27 30  1  0  0  0
 27 29  2  0  0  0
 11  9  1  0  0  0
  7  9  1  0  0  0
  7  8  2  0  0  0
  9 10  1  0  0  0
 25 26  1  0  0  0
M  END
> <minimizedAffinity>
-7.87924

$$$$
6CKR_F5V_A_201


 30 33  0  0  0  0  0  0  0  0999 V2000
    5.8412   -9.9310  -10.0642 C   0  0  0  0  0  0  0  0  0  0  0  0
    7.1765   -9.7157   -9.6591 C   0  0  0  0  0  0  0  0  0  0  0  0
    7.5169   -9.0412   -8.4487 C   0  0  0  0  0  0  0  0  0  0  0  0
    4.8419   -9.4434   -9.2005 C   0  0  0  0  0  0  0  0  0  0  0  0
    5.0923   -8.7206   -8.0199 C   0  0  0  0  0  0  0  0  0  0  0  0
    6.4540   -8.5329   -7.6187 C   0  0  0  0  0  0  0  0  0  0  0  0
    6.7779   -7.8160   -6.4182 C   0  0  0  0  0  0  0  0  0  0  0  0
    5.9195   -7.3804   -5.6470 O   0  0  0  0  0  0  0  0  0  0  0  0
    8.0864   -7.6182   -6.0490 N   0  0  0  0  0  0  0  0  0  0  0  0
    8.4344   -6.8814   -4.8583 C   0  0  0  0  0  0  0  0  0  0  0  0
    9.1157   -8.0897   -6.8931 C   0  0  0  0  0  0  0  0  0  0  0  0
    8.8705   -8.7939   -8.0504 C   0  0  0  0  0  0  0  0  0  0  0  0
    3.5034  -12.1050  -13.8597 C   0  0  0  0  0  0  0  0  0  0  0  0
    4.5346  -11.5338  -12.9130 N   0  0  0  0  0  0  0  0  0  0  0  0
    4.3355  -10.9128  -11.7381 C   0  0  0  0  0  0  0  0  0  0  0  0
    5.8581  -11.6754  -13.1594 N   0  0  0  0  0  0  0  0  0  0  0  0
    6.4622  -11.0792  -12.1234 C   0  0  0  0  0  0  0  0  0  0  0  0
    5.5463  -10.6038  -11.2430 C   0  0  0  0  0  0  0  0  0  0  0  0
   10.0341   -9.2564   -8.7897 C   0  0  0  0  0  0  0  0  0  0  0  0
   10.4273   -8.6278   -9.9863 C   0  0  0  0  0  0  0  0  0  0  0  0
   10.7920  -10.3663   -8.2822 C   0  0  0  0  0  0  0  0  0  0  0  0
   11.9424  -10.8352   -8.9833 C   0  0  0  0  0  0  0  0  0  0  0  0
   12.3637  -10.2185  -10.1933 C   0  0  0  0  0  0  0  0  0  0  0  0
   11.6224   -9.1017  -10.6962 C   0  0  0  0  0  0  0  0  0  0  0  0
   12.0983   -8.5835  -11.8631 N   0  0  0  0  0  0  0  0  0  0  0  0
   11.7349   -8.9043  -12.7200 H   0  0  0  0  0  0  0  0  0  0  0  0
   13.2538   -7.4464  -11.8615 S   0  0  0  0  0  0  0  0  0  0  0  0
   12.5386   -6.1916  -12.3337 O   0  0  0  0  0  0  0  0  0  0  0  0
   13.8002   -7.2316  -10.5091 O   0  0  0  0  0  0  0  0  0  0  0  0
   14.5175   -7.9740  -13.0112 C   0  0  0  0  0  0  0  0  0  0  0  0
 13 14  1  0  0  0
 16 14  1  0  0  0
 16 17  2  0  0  0
 14 15  1  0  0  0
 17 18  1  0  0  0
 22 23  2  0  0  0
 22 21  1  0  0  0
 23 24  1  0  0  0
 15 18  2  0  0  0
 21 19  2  0  0  0
 18  1  1  0  0  0
  1  2  2  0  0  0
  1  4  1  0  0  0
 24 25  1  0  0  0
 24 20  2  0  0  0
  2  3  1  0  0  0
 19 20  1  0  0  0
 19 12  1  0  0  0
 25 27  1  0  0  0
  4  5  2  0  0  0
  3 12  1  0  0  0
  3  6  2  0  0  0
 12 11  2  0  0  0
  5  6  1  0  0  0
  6  7  1  0  0  0
 27 28  2  0  0  0
 27 30  1  0  0  0
 27 29  2  0  0  0
 11  9  1  0  0  0
  7  9  1  0  0  0
  7  8  2  0  0  0
  9 10  1  0  0  0
 25 26  1  0  0  0
M  END
> <minimizedAffinity>
-7.82588

$$$$
