5MQE_PKU_A_1201


 12 12  0  0  0  0  0  0  0  0999 V2000
  -18.8436  -26.8909  -12.9133 C   0  0  0  0  0  0  0  0  0  0  0  0
  -20.6347  -27.2094  -14.1540 C   0  0  0  0  0  0  0  0  0  0  0  0
  -19.4017  -27.6675  -13.8406 C   0  0  0  0  0  0  0  0  0  0  0  0
  -20.8316  -26.1214  -13.3721 C   0  0  0  0  0  0  0  0  0  0  0  0
  -19.7235  -25.9198  -12.6415 N   0  0  0  0  0  0  0  0  0  0  0  0
  -18.4740  -29.2350  -14.5836 Br  0  0  0  0  0  0  0  0  0  0  0  0
  -19.5814  -25.1787  -12.0092 H   0  0  0  0  0  0  0  0  0  0  0  0
  -22.9026  -23.2470  -12.4785 C   0  0  0  0  0  0  0  0  0  0  0  0
  -21.8957  -25.2654  -13.3015 C   0  0  0  0  0  0  0  0  0  0  0  0
  -21.7291  -24.1292  -12.6050 N   0  0  0  0  0  0  0  0  0  0  0  0
  -22.9743  -25.5644  -13.8120 O   0  0  0  0  0  0  0  0  0  0  0  0
  -20.8634  -23.8967  -12.1980 H   0  0  0  0  0  0  0  0  0  0  0  0
  6  3  1  0  0  0
  3  1  2  0  0  0
  3  2  1  0  0  0
  1  5  1  0  0  0
  2  4  2  0  0  0
  5  4  1  0  0  0
  4  9  1  0  0  0
 11  9  2  0  0  0
  9 10  1  0  0  0
 10  8  1  0  0  0
 10 12  1  0  0  0
  5  7  1  0  0  0
M  END
> <minimizedAffinity>
-4.95908

$$$$
5MQE_PKU_A_1201


 12 12  0  0  0  0  0  0  0  0999 V2000
  -22.0054  -25.7935  -13.4451 C   0  0  0  0  0  0  0  0  0  0  0  0
  -20.3792  -24.7895  -12.3514 C   0  0  0  0  0  0  0  0  0  0  0  0
  -21.6681  -24.7073  -12.7518 C   0  0  0  0  0  0  0  0  0  0  0  0
  -19.9278  -25.9810  -12.8104 C   0  0  0  0  0  0  0  0  0  0  0  0
  -20.9174  -26.5710  -13.4994 N   0  0  0  0  0  0  0  0  0  0  0  0
  -22.9427  -23.2467  -12.4172 Br  0  0  0  0  0  0  0  0  0  0  0  0
  -20.8533  -27.4344  -13.9679 H   0  0  0  0  0  0  0  0  0  0  0  0
  -16.3511  -26.3988  -12.1916 C   0  0  0  0  0  0  0  0  0  0  0  0
  -18.6902  -26.5542  -12.7111 C   0  0  0  0  0  0  0  0  0  0  0  0
  -17.6938  -25.7927  -12.2304 N   0  0  0  0  0  0  0  0  0  0  0  0
  -18.4998  -27.7042  -13.1041 O   0  0  0  0  0  0  0  0  0  0  0  0
  -17.8529  -24.8725  -11.9186 H   0  0  0  0  0  0  0  0  0  0  0  0
  6  3  1  0  0  0
  3  1  2  0  0  0
  3  2  1  0  0  0
  1  5  1  0  0  0
  2  4  2  0  0  0
  5  4  1  0  0  0
  4  9  1  0  0  0
 11  9  2  0  0  0
  9 10  1  0  0  0
 10  8  1  0  0  0
 10 12  1  0  0  0
  5  7  1  0  0  0
M  END
> <minimizedAffinity>
-4.75750

$$$$
5MQE_PKU_A_1201


 12 12  0  0  0  0  0  0  0  0999 V2000
  -20.3984  -24.3752  -12.0695 C   0  0  0  0  0  0  0  0  0  0  0  0
  -21.5262  -25.7005  -13.4188 C   0  0  0  0  0  0  0  0  0  0  0  0
  -21.5454  -24.5390  -12.7267 C   0  0  0  0  0  0  0  0  0  0  0  0
  -20.3118  -26.2501  -13.1795 C   0  0  0  0  0  0  0  0  0  0  0  0
  -19.6445  -25.4489  -12.3339 N   0  0  0  0  0  0  0  0  0  0  0  0
  -22.9987  -23.2164  -12.6329 Br  0  0  0  0  0  0  0  0  0  0  0  0
  -18.7472  -25.6228  -11.9680 H   0  0  0  0  0  0  0  0  0  0  0  0
  -17.9126  -28.9316  -13.8146 C   0  0  0  0  0  0  0  0  0  0  0  0
  -19.7775  -27.4330  -13.6097 C   0  0  0  0  0  0  0  0  0  0  0  0
  -18.4982  -27.6859  -13.2883 N   0  0  0  0  0  0  0  0  0  0  0  0
  -20.4366  -28.1990  -14.3113 O   0  0  0  0  0  0  0  0  0  0  0  0
  -17.9761  -27.0680  -12.7273 H   0  0  0  0  0  0  0  0  0  0  0  0
  6  3  1  0  0  0
  3  1  2  0  0  0
  3  2  1  0  0  0
  1  5  1  0  0  0
  2  4  2  0  0  0
  5  4  1  0  0  0
  4  9  1  0  0  0
 11  9  2  0  0  0
  9 10  1  0  0  0
 10  8  1  0  0  0
 10 12  1  0  0  0
  5  7  1  0  0  0
M  END
> <minimizedAffinity>
-4.66749

$$$$
5MQE_PKU_A_1201


 12 12  0  0  0  0  0  0  0  0999 V2000
  -19.7265  -27.6124  -13.6619 C   0  0  0  0  0  0  0  0  0  0  0  0
  -19.1208  -25.8449  -12.4966 C   0  0  0  0  0  0  0  0  0  0  0  0
  -20.1372  -26.4543  -13.1476 C   0  0  0  0  0  0  0  0  0  0  0  0
  -18.0594  -26.6781  -12.6119 C   0  0  0  0  0  0  0  0  0  0  0  0
  -18.4316  -27.7375  -13.3477 N   0  0  0  0  0  0  0  0  0  0  0  0
  -21.9845  -25.8138  -13.3652 Br  0  0  0  0  0  0  0  0  0  0  0  0
  -17.8475  -28.4843  -13.6128 H   0  0  0  0  0  0  0  0  0  0  0  0
  -14.7999  -25.2101  -11.8564 C   0  0  0  0  0  0  0  0  0  0  0  0
  -16.7754  -26.5403  -12.1620 C   0  0  0  0  0  0  0  0  0  0  0  0
  -16.2058  -25.3299  -12.2816 N   0  0  0  0  0  0  0  0  0  0  0  0
  -16.1595  -27.5094  -11.7205 O   0  0  0  0  0  0  0  0  0  0  0  0
  -16.7042  -24.5588  -12.6368 H   0  0  0  0  0  0  0  0  0  0  0  0
  6  3  1  0  0  0
  3  1  2  0  0  0
  3  2  1  0  0  0
  1  5  1  0  0  0
  2  4  2  0  0  0
  5  4  1  0  0  0
  4  9  1  0  0  0
 11  9  2  0  0  0
  9 10  1  0  0  0
 10  8  1  0  0  0
 10 12  1  0  0  0
  5  7  1  0  0  0
M  END
> <minimizedAffinity>
-4.24590

$$$$
5MQE_PKU_A_1201


 12 12  0  0  0  0  0  0  0  0999 V2000
  -18.0967  -30.2324  -14.4527 C   0  0  0  0  0  0  0  0  0  0  0  0
  -17.7135  -28.0815  -14.7272 C   0  0  0  0  0  0  0  0  0  0  0  0
  -17.2628  -29.3326  -14.9716 C   0  0  0  0  0  0  0  0  0  0  0  0
  -18.8738  -28.2361  -14.0462 C   0  0  0  0  0  0  0  0  0  0  0  0
  -19.0827  -29.5490  -13.8596 N   0  0  0  0  0  0  0  0  0  0  0  0
  -15.6314  -29.8583  -15.9371 Br  0  0  0  0  0  0  0  0  0  0  0  0
  -19.8379  -29.9444  -13.3670 H   0  0  0  0  0  0  0  0  0  0  0  0
  -20.1228  -25.3382  -12.2042 C   0  0  0  0  0  0  0  0  0  0  0  0
  -19.7273  -27.2997  -13.5314 C   0  0  0  0  0  0  0  0  0  0  0  0
  -19.1882  -26.3029  -12.8106 N   0  0  0  0  0  0  0  0  0  0  0  0
  -20.9431  -27.4110  -13.6823 O   0  0  0  0  0  0  0  0  0  0  0  0
  -18.2143  -26.2204  -12.6929 H   0  0  0  0  0  0  0  0  0  0  0  0
  6  3  1  0  0  0
  3  1  2  0  0  0
  3  2  1  0  0  0
  1  5  1  0  0  0
  2  4  2  0  0  0
  5  4  1  0  0  0
  4  9  1  0  0  0
 11  9  2  0  0  0
  9 10  1  0  0  0
 10  8  1  0  0  0
 10 12  1  0  0  0
  5  7  1  0  0  0
M  END
> <minimizedAffinity>
-4.21488

$$$$
5MQE_PKU_A_1201


 12 12  0  0  0  0  0  0  0  0999 V2000
  -19.3016  -25.9141  -12.3507 C   0  0  0  0  0  0  0  0  0  0  0  0
  -20.2657  -27.1228  -13.9186 C   0  0  0  0  0  0  0  0  0  0  0  0
  -20.4116  -26.0822  -13.0676 C   0  0  0  0  0  0  0  0  0  0  0  0
  -19.0110  -27.5899  -13.7152 C   0  0  0  0  0  0  0  0  0  0  0  0
  -18.4432  -26.8650  -12.7383 N   0  0  0  0  0  0  0  0  0  0  0  0
  -21.9854  -24.9241  -12.8392 Br  0  0  0  0  0  0  0  0  0  0  0  0
  -17.5427  -27.0092  -12.3676 H   0  0  0  0  0  0  0  0  0  0  0  0
  -18.3300  -30.9181  -15.0605 C   0  0  0  0  0  0  0  0  0  0  0  0
  -18.3568  -28.6437  -14.2909 C   0  0  0  0  0  0  0  0  0  0  0  0
  -19.0619  -29.7671  -14.5026 N   0  0  0  0  0  0  0  0  0  0  0  0
  -17.1556  -28.5707  -14.5464 O   0  0  0  0  0  0  0  0  0  0  0  0
  -20.0228  -29.8191  -14.2948 H   0  0  0  0  0  0  0  0  0  0  0  0
  6  3  1  0  0  0
  3  1  2  0  0  0
  3  2  1  0  0  0
  1  5  1  0  0  0
  2  4  2  0  0  0
  5  4  1  0  0  0
  4  9  1  0  0  0
 11  9  2  0  0  0
  9 10  1  0  0  0
 10  8  1  0  0  0
 10 12  1  0  0  0
  5  7  1  0  0  0
M  END
> <minimizedAffinity>
-4.19046

$$$$
5MQE_PKU_A_1201


 12 12  0  0  0  0  0  0  0  0999 V2000
  -18.8323  -26.1814  -12.6399 C   0  0  0  0  0  0  0  0  0  0  0  0
  -17.2039  -26.5934  -14.0638 C   0  0  0  0  0  0  0  0  0  0  0  0
  -18.4928  -26.8467  -13.7428 C   0  0  0  0  0  0  0  0  0  0  0  0
  -16.7548  -25.7286  -13.1233 C   0  0  0  0  0  0  0  0  0  0  0  0
  -17.7457  -25.5071  -12.2451 N   0  0  0  0  0  0  0  0  0  0  0  0
  -19.7647  -28.0091  -14.6921 Br  0  0  0  0  0  0  0  0  0  0  0  0
  -17.6833  -24.9412  -11.4420 H   0  0  0  0  0  0  0  0  0  0  0  0
  -13.1290  -25.3772  -12.8408 C   0  0  0  0  0  0  0  0  0  0  0  0
  -15.5183  -25.1690  -12.9567 C   0  0  0  0  0  0  0  0  0  0  0  0
  -14.4525  -25.9755  -13.0895 N   0  0  0  0  0  0  0  0  0  0  0  0
  -15.4043  -23.9855  -12.6411 O   0  0  0  0  0  0  0  0  0  0  0  0
  -14.5509  -26.9222  -13.3411 H   0  0  0  0  0  0  0  0  0  0  0  0
  6  3  1  0  0  0
  3  1  2  0  0  0
  3  2  1  0  0  0
  1  5  1  0  0  0
  2  4  2  0  0  0
  5  4  1  0  0  0
  4  9  1  0  0  0
 11  9  2  0  0  0
  9 10  1  0  0  0
 10  8  1  0  0  0
 10 12  1  0  0  0
  5  7  1  0  0  0
M  END
> <minimizedAffinity>
-4.12971

$$$$
5MQE_PKU_A_1201


 12 12  0  0  0  0  0  0  0  0999 V2000
  -16.2640  -25.9048  -12.8017 C   0  0  0  0  0  0  0  0  0  0  0  0
  -17.8586  -27.4018  -13.0568 C   0  0  0  0  0  0  0  0  0  0  0  0
  -16.5260  -27.1766  -13.0989 C   0  0  0  0  0  0  0  0  0  0  0  0
  -18.4194  -26.2202  -12.7053 C   0  0  0  0  0  0  0  0  0  0  0  0
  -17.4417  -25.3088  -12.5806 N   0  0  0  0  0  0  0  0  0  0  0  0
  -15.0998  -28.4625  -13.5259 Br  0  0  0  0  0  0  0  0  0  0  0  0
  -17.5700  -24.3574  -12.3623 H   0  0  0  0  0  0  0  0  0  0  0  0
  -21.9983  -25.8511  -13.3418 C   0  0  0  0  0  0  0  0  0  0  0  0
  -19.7339  -25.8800  -12.5435 C   0  0  0  0  0  0  0  0  0  0  0  0
  -20.5968  -26.2812  -13.4913 N   0  0  0  0  0  0  0  0  0  0  0  0
  -20.0879  -25.1846  -11.5925 O   0  0  0  0  0  0  0  0  0  0  0  0
  -20.3065  -26.8368  -14.2505 H   0  0  0  0  0  0  0  0  0  0  0  0
  6  3  1  0  0  0
  3  1  2  0  0  0
  3  2  1  0  0  0
  1  5  1  0  0  0
  2  4  2  0  0  0
  5  4  1  0  0  0
  4  9  1  0  0  0
 11  9  2  0  0  0
  9 10  1  0  0  0
 10  8  1  0  0  0
 10 12  1  0  0  0
  5  7  1  0  0  0
M  END
> <minimizedAffinity>
-4.06488

$$$$
5MQE_PKU_A_1201


 12 12  0  0  0  0  0  0  0  0999 V2000
  -19.3115  -25.9558  -12.3838 C   0  0  0  0  0  0  0  0  0  0  0  0
  -20.1931  -27.0374  -14.0873 C   0  0  0  0  0  0  0  0  0  0  0  0
  -20.3952  -26.0868  -13.1472 C   0  0  0  0  0  0  0  0  0  0  0  0
  -18.9305  -27.4858  -13.8901 C   0  0  0  0  0  0  0  0  0  0  0  0
  -18.4133  -26.8408  -12.8324 N   0  0  0  0  0  0  0  0  0  0  0  0
  -22.0102  -25.0009  -12.8597 Br  0  0  0  0  0  0  0  0  0  0  0  0
  -17.5194  -26.9938  -12.4493 H   0  0  0  0  0  0  0  0  0  0  0  0
  -16.1601  -29.3242  -15.4050 C   0  0  0  0  0  0  0  0  0  0  0  0
  -18.2279  -28.4613  -14.5418 C   0  0  0  0  0  0  0  0  0  0  0  0
  -16.8981  -28.3019  -14.6422 N   0  0  0  0  0  0  0  0  0  0  0  0
  -18.8110  -29.4122  -15.0604 O   0  0  0  0  0  0  0  0  0  0  0  0
  -16.4378  -27.5378  -14.2256 H   0  0  0  0  0  0  0  0  0  0  0  0
  6  3  1  0  0  0
  3  1  2  0  0  0
  3  2  1  0  0  0
  1  5  1  0  0  0
  2  4  2  0  0  0
  5  4  1  0  0  0
  4  9  1  0  0  0
 11  9  2  0  0  0
  9 10  1  0  0  0
 10  8  1  0  0  0
 10 12  1  0  0  0
  5  7  1  0  0  0
M  END
> <minimizedAffinity>
-4.02910

$$$$
5MQE_PKU_A_1201


 12 12  0  0  0  0  0  0  0  0999 V2000
  -17.2826  -28.6567  -13.7421 C   0  0  0  0  0  0  0  0  0  0  0  0
  -19.3724  -28.4606  -14.4075 C   0  0  0  0  0  0  0  0  0  0  0  0
  -18.2343  -29.1833  -14.5110 C   0  0  0  0  0  0  0  0  0  0  0  0
  -19.0977  -27.4674  -13.5289 C   0  0  0  0  0  0  0  0  0  0  0  0
  -17.8141  -27.5794  -13.1521 N   0  0  0  0  0  0  0  0  0  0  0  0
  -17.9215  -30.7880  -15.6051 Br  0  0  0  0  0  0  0  0  0  0  0  0
  -17.3410  -26.9689  -12.5417 H   0  0  0  0  0  0  0  0  0  0  0  0
  -21.9697  -25.2526  -13.0854 C   0  0  0  0  0  0  0  0  0  0  0  0
  -19.8829  -26.4404  -13.0830 C   0  0  0  0  0  0  0  0  0  0  0  0
  -21.1530  -26.4005  -13.5179 N   0  0  0  0  0  0  0  0  0  0  0  0
  -19.4145  -25.5634  -12.3586 O   0  0  0  0  0  0  0  0  0  0  0  0
  -21.5212  -27.1051  -14.0985 H   0  0  0  0  0  0  0  0  0  0  0  0
  6  3  1  0  0  0
  3  1  2  0  0  0
  3  2  1  0  0  0
  1  5  1  0  0  0
  2  4  2  0  0  0
  5  4  1  0  0  0
  4  9  1  0  0  0
 11  9  2  0  0  0
  9 10  1  0  0  0
 10  8  1  0  0  0
 10 12  1  0  0  0
  5  7  1  0  0  0
M  END
> <minimizedAffinity>
-3.93884

$$$$
