4X6O_3Y4_A_301


 45 49  0  0  0  0  0  0  0  0999 V2000
   40.2563  -20.6507   28.5680 C   0  0  0  0  0  0  0  0  0  0  0  0
   41.7054  -20.5746   28.1845 C   0  0  0  0  0  0  0  0  0  0  0  0
   42.7274  -20.6922   29.0885 N   0  0  0  0  0  0  0  0  0  0  0  0
   43.9170  -20.6560   28.3933 C   0  0  0  0  0  0  0  0  0  0  0  0
   43.5716  -20.5091   27.0441 C   0  0  0  0  0  0  0  0  0  0  0  0
   44.5702  -20.3831   25.6488 Cl  0  0  0  0  0  0  0  0  0  0  0  0
   42.2179  -20.4579   26.9276 N   0  0  0  0  0  0  0  0  0  0  0  0
   42.6295  -20.7860   30.0636 H   0  0  0  0  0  0  0  0  0  0  0  0
   45.1953  -20.7965   29.1104 C   0  0  0  0  0  0  0  0  0  0  0  0
   46.2517  -21.5206   28.5571 C   0  0  0  0  0  0  0  0  0  0  0  0
   47.4235  -21.7148   29.2724 C   0  0  0  0  0  0  0  0  0  0  0  0
   47.5732  -21.1559   30.5441 C   0  0  0  0  0  0  0  0  0  0  0  0
   46.5340  -20.4044   31.0811 C   0  0  0  0  0  0  0  0  0  0  0  0
   45.3583  -20.2355   30.3763 C   0  0  0  0  0  0  0  0  0  0  0  0
   48.7199  -21.3199   31.3625 N   0  0  0  0  0  0  0  0  0  0  0  0
   49.8274  -20.5251   31.4043 C   0  0  0  0  0  0  0  0  0  0  0  0
   50.0790  -19.5924   30.6677 O   0  0  0  0  0  0  0  0  0  0  0  0
   48.7159  -22.0953   31.9691 H   0  0  0  0  0  0  0  0  0  0  0  0
   50.6204  -20.9355   32.4099 O   0  0  0  0  0  0  0  0  0  0  0  0
   51.4471  -19.9148   33.0304 C   0  0  0  0  0  0  0  0  0  0  0  0
   39.3249  -18.6046   29.4578 C   0  0  0  0  0  0  0  0  0  0  0  0
   39.7567  -18.8696   30.5794 O   0  0  0  0  0  0  0  0  0  0  0  0
   39.5417  -19.3892   28.3927 N   0  0  0  0  0  0  0  0  0  0  0  0
   39.2226  -19.1179   27.5017 H   0  0  0  0  0  0  0  0  0  0  0  0
   38.5196  -17.3463   29.2182 C   0  0  0  0  0  0  0  0  0  0  0  0
   37.2532  -17.4109   28.3256 C   0  0  0  0  0  0  0  0  0  0  0  0
   36.6789  -16.0107   28.1635 C   0  0  0  0  0  0  0  0  0  0  0  0
   33.7311  -13.9439   29.9146 Cl  0  0  0  0  0  0  0  0  0  0  0  0
   35.0820  -14.3699   28.8979 C   0  0  0  0  0  0  0  0  0  0  0  0
   35.6299  -13.4152   28.0626 C   0  0  0  0  0  0  0  0  0  0  0  0
   36.7196  -13.7557   27.2655 C   0  0  0  0  0  0  0  0  0  0  0  0
   37.2417  -15.0486   27.3113 C   0  0  0  0  0  0  0  0  0  0  0  0
   35.5901  -15.6522   28.9596 C   0  0  0  0  0  0  0  0  0  0  0  0
   38.2821  -15.7070   25.1566 C   0  0  0  0  0  0  0  0  0  0  0  0
   38.3433  -15.3833   26.4684 N   0  0  0  0  0  0  0  0  0  0  0  0
   39.6459  -15.4706   26.8424 N   0  0  0  0  0  0  0  0  0  0  0  0
   40.3010  -15.8427   25.7842 N   0  0  0  0  0  0  0  0  0  0  0  0
   39.4787  -15.9899   24.7189 N   0  0  0  0  0  0  0  0  0  0  0  0
   39.5539  -21.8595   27.9124 C   0  0  0  0  0  0  0  0  0  0  0  0
   40.1286  -23.4779   29.7692 C   0  0  0  0  0  0  0  0  0  0  0  0
   40.1109  -23.1769   28.4057 C   0  0  0  0  0  0  0  0  0  0  0  0
   40.8438  -24.5616   30.2504 C   0  0  0  0  0  0  0  0  0  0  0  0
   41.5299  -25.3848   29.3801 C   0  0  0  0  0  0  0  0  0  0  0  0
   41.4821  -25.1324   28.0186 C   0  0  0  0  0  0  0  0  0  0  0  0
   40.7714  -24.0406   27.5341 C   0  0  0  0  0  0  0  0  0  0  0  0
 38 34  2  0  0  0
 38 37  1  0  0  0
 34 35  1  0  0  0
 37 36  2  0  0  0
 35 36  1  0  0  0
 35 32  1  0  0  0
  6  5  1  0  0  0
 32 31  2  0  0  0
 32 27  1  0  0  0
 31 30  1  0  0  0
 45 44  2  0  0  0
 45 41  1  0  0  0
  7  5  1  0  0  0
  7  2  2  0  0  0
 27 26  1  0  0  0
 27 33  2  0  0  0
 30 29  2  0  0  0
 39 41  1  0  0  0
 39  1  1  0  0  0
 44 43  1  0  0  0
 26 25  1  0  0  0
  5  4  2  0  0  0
 41 40  2  0  0  0
 23  1  1  0  0  0
 23 21  1  0  0  0
 29 33  1  0  0  0
 29 28  1  0  0  0
  2  1  1  0  0  0
  2  3  1  0  0  0
 25 21  1  0  0  0
 43 42  2  0  0  0
 21 22  2  0  0  0
  4  3  1  0  0  0
  4  9  1  0  0  0
 40 42  1  0  0  0
 10  9  2  0  0  0
 10 11  1  0  0  0
  9 14  1  0  0  0
 11 12  2  0  0  0
 14 13  2  0  0  0
 12 13  1  0  0  0
 12 15  1  0  0  0
 17 16  2  0  0  0
 15 16  1  0  0  0
 16 19  1  0  0  0
 19 20  1  0  0  0
 23 24  1  0  0  0
  3  8  1  0  0  0
 15 18  1  0  0  0
M  END
> <minimizedAffinity>
-10.00178

$$$$
4X6O_3Y4_A_301


 45 49  0  0  0  0  0  0  0  0999 V2000
   39.8855  -20.8990   28.1732 C   0  0  0  0  0  0  0  0  0  0  0  0
   41.3452  -20.7592   27.8530 C   0  0  0  0  0  0  0  0  0  0  0  0
   42.3275  -20.7801   28.8070 N   0  0  0  0  0  0  0  0  0  0  0  0
   43.5455  -20.7082   28.1659 C   0  0  0  0  0  0  0  0  0  0  0  0
   43.2579  -20.6397   26.7970 C   0  0  0  0  0  0  0  0  0  0  0  0
   44.3141  -20.5193   25.4443 Cl  0  0  0  0  0  0  0  0  0  0  0  0
   41.9105  -20.6690   26.6167 N   0  0  0  0  0  0  0  0  0  0  0  0
   42.1881  -20.8366   29.7800 H   0  0  0  0  0  0  0  0  0  0  0  0
   44.7935  -20.7460   28.9461 C   0  0  0  0  0  0  0  0  0  0  0  0
   44.8620  -20.1742   30.2169 C   0  0  0  0  0  0  0  0  0  0  0  0
   46.0614  -20.1441   30.9121 C   0  0  0  0  0  0  0  0  0  0  0  0
   47.2093  -20.7191   30.3612 C   0  0  0  0  0  0  0  0  0  0  0  0
   47.1330  -21.3204   29.1099 C   0  0  0  0  0  0  0  0  0  0  0  0
   45.9427  -21.3250   28.4093 C   0  0  0  0  0  0  0  0  0  0  0  0
   48.4849  -20.7156   30.9812 N   0  0  0  0  0  0  0  0  0  0  0  0
   48.8834  -21.4502   32.0589 C   0  0  0  0  0  0  0  0  0  0  0  0
   48.1826  -22.1612   32.7512 O   0  0  0  0  0  0  0  0  0  0  0  0
   49.1591  -20.1147   30.5892 H   0  0  0  0  0  0  0  0  0  0  0  0
   50.2027  -21.2687   32.2462 O   0  0  0  0  0  0  0  0  0  0  0  0
   50.6477  -19.8916   32.3721 C   0  0  0  0  0  0  0  0  0  0  0  0
   39.2105  -18.8244   29.2155 C   0  0  0  0  0  0  0  0  0  0  0  0
   39.8946  -19.0745   30.2076 O   0  0  0  0  0  0  0  0  0  0  0  0
   39.1607  -19.6314   28.1462 N   0  0  0  0  0  0  0  0  0  0  0  0
   38.6410  -19.3723   27.3512 H   0  0  0  0  0  0  0  0  0  0  0  0
   38.3822  -17.5601   29.1478 C   0  0  0  0  0  0  0  0  0  0  0  0
   37.1923  -17.4812   28.1566 C   0  0  0  0  0  0  0  0  0  0  0  0
   36.6993  -16.0435   28.0744 C   0  0  0  0  0  0  0  0  0  0  0  0
   33.8177  -13.9352   29.8852 Cl  0  0  0  0  0  0  0  0  0  0  0  0
   35.1726  -14.3681   28.8767 C   0  0  0  0  0  0  0  0  0  0  0  0
   35.7951  -13.3926   28.1215 C   0  0  0  0  0  0  0  0  0  0  0  0
   36.8875  -13.7403   27.3312 C   0  0  0  0  0  0  0  0  0  0  0  0
   37.3375  -15.0605   27.3032 C   0  0  0  0  0  0  0  0  0  0  0  0
   35.6088  -15.6780   28.8649 C   0  0  0  0  0  0  0  0  0  0  0  0
   38.3930  -15.6977   25.1495 C   0  0  0  0  0  0  0  0  0  0  0  0
   38.4434  -15.3999   26.4679 N   0  0  0  0  0  0  0  0  0  0  0  0
   39.7393  -15.5188   26.8564 N   0  0  0  0  0  0  0  0  0  0  0  0
   40.4009  -15.8832   25.7995 N   0  0  0  0  0  0  0  0  0  0  0  0
   39.5897  -15.9949   24.7215 N   0  0  0  0  0  0  0  0  0  0  0  0
   39.2206  -22.0134   27.3363 C   0  0  0  0  0  0  0  0  0  0  0  0
   36.9665  -21.2043   26.5230 C   0  0  0  0  0  0  0  0  0  0  0  0
   38.3154  -21.4534   26.2612 C   0  0  0  0  0  0  0  0  0  0  0  0
   36.0817  -20.9218   25.4959 C   0  0  0  0  0  0  0  0  0  0  0  0
   36.5285  -20.8512   24.1917 C   0  0  0  0  0  0  0  0  0  0  0  0
   37.8729  -21.0446   23.9178 C   0  0  0  0  0  0  0  0  0  0  0  0
   38.7614  -21.3361   24.9462 C   0  0  0  0  0  0  0  0  0  0  0  0
 38 34  2  0  0  0
 38 37  1  0  0  0
 34 35  1  0  0  0
 37 36  2  0  0  0
 35 36  1  0  0  0
 35 32  1  0  0  0
  6  5  1  0  0  0
 32 31  2  0  0  0
 32 27  1  0  0  0
 31 30  1  0  0  0
 45 44  2  0  0  0
 45 41  1  0  0  0
  7  5  1  0  0  0
  7  2  2  0  0  0
 27 26  1  0  0  0
 27 33  2  0  0  0
 30 29  2  0  0  0
 39 41  1  0  0  0
 39  1  1  0  0  0
 44 43  1  0  0  0
 26 25  1  0  0  0
  5  4  2  0  0  0
 41 40  2  0  0  0
 23  1  1  0  0  0
 23 21  1  0  0  0
 29 33  1  0  0  0
 29 28  1  0  0  0
  2  1  1  0  0  0
  2  3  1  0  0  0
 25 21  1  0  0  0
 43 42  2  0  0  0
 21 22  2  0  0  0
  4  3  1  0  0  0
  4  9  1  0  0  0
 40 42  1  0  0  0
 10  9  2  0  0  0
 10 11  1  0  0  0
  9 14  1  0  0  0
 11 12  2  0  0  0
 14 13  2  0  0  0
 12 13  1  0  0  0
 12 15  1  0  0  0
 17 16  2  0  0  0
 15 16  1  0  0  0
 16 19  1  0  0  0
 19 20  1  0  0  0
 23 24  1  0  0  0
  3  8  1  0  0  0
 15 18  1  0  0  0
M  END
> <minimizedAffinity>
-9.66845

$$$$
4X6O_3Y4_A_301


 45 49  0  0  0  0  0  0  0  0999 V2000
   38.7964  -24.6216   25.7331 C   0  0  0  0  0  0  0  0  0  0  0  0
   37.9524  -23.4034   25.4952 C   0  0  0  0  0  0  0  0  0  0  0  0
   38.1622  -22.2098   26.1328 N   0  0  0  0  0  0  0  0  0  0  0  0
   37.2669  -21.2928   25.6253 C   0  0  0  0  0  0  0  0  0  0  0  0
   36.5126  -21.9797   24.6659 C   0  0  0  0  0  0  0  0  0  0  0  0
   35.2208  -21.4343   23.6691 Cl  0  0  0  0  0  0  0  0  0  0  0  0
   36.9377  -23.2694   24.5959 N   0  0  0  0  0  0  0  0  0  0  0  0
   38.8344  -22.0369   26.8310 H   0  0  0  0  0  0  0  0  0  0  0  0
   37.2842  -19.9010   26.1053 C   0  0  0  0  0  0  0  0  0  0  0  0
   37.5580  -19.6068   27.4414 C   0  0  0  0  0  0  0  0  0  0  0  0
   37.4945  -18.3007   27.9024 C   0  0  0  0  0  0  0  0  0  0  0  0
   37.1898  -17.2578   27.0240 C   0  0  0  0  0  0  0  0  0  0  0  0
   36.9518  -17.5467   25.6850 C   0  0  0  0  0  0  0  0  0  0  0  0
   36.9900  -18.8521   25.2352 C   0  0  0  0  0  0  0  0  0  0  0  0
   37.0756  -15.8962   27.4043 N   0  0  0  0  0  0  0  0  0  0  0  0
   36.2344  -15.3652   28.3373 C   0  0  0  0  0  0  0  0  0  0  0  0
   35.3523  -15.9492   28.9347 O   0  0  0  0  0  0  0  0  0  0  0  0
   37.6710  -15.2626   26.9425 H   0  0  0  0  0  0  0  0  0  0  0  0
   36.5348  -14.0652   28.5051 O   0  0  0  0  0  0  0  0  0  0  0  0
   36.2901  -13.1994   27.3646 C   0  0  0  0  0  0  0  0  0  0  0  0
   41.0314  -24.7357   26.6483 C   0  0  0  0  0  0  0  0  0  0  0  0
   41.4902  -25.0421   25.5481 O   0  0  0  0  0  0  0  0  0  0  0  0
   39.7318  -24.4725   26.8448 N   0  0  0  0  0  0  0  0  0  0  0  0
   39.4112  -24.1817   27.7291 H   0  0  0  0  0  0  0  0  0  0  0  0
   41.9338  -24.6276   27.8579 C   0  0  0  0  0  0  0  0  0  0  0  0
   41.3912  -23.9783   29.1574 C   0  0  0  0  0  0  0  0  0  0  0  0
   42.5591  -23.4910   30.0030 C   0  0  0  0  0  0  0  0  0  0  0  0
   45.7666  -25.2220   31.6593 Cl  0  0  0  0  0  0  0  0  0  0  0  0
   44.6067  -24.0263   31.1441 C   0  0  0  0  0  0  0  0  0  0  0  0
   44.8292  -22.6946   31.4381 C   0  0  0  0  0  0  0  0  0  0  0  0
   43.9087  -21.7420   31.0093 C   0  0  0  0  0  0  0  0  0  0  0  0
   42.7755  -22.1363   30.2975 C   0  0  0  0  0  0  0  0  0  0  0  0
   43.4936  -24.4329   30.4357 C   0  0  0  0  0  0  0  0  0  0  0  0
   41.8635  -20.4333   28.7397 C   0  0  0  0  0  0  0  0  0  0  0  0
   41.8326  -21.1465   29.8885 N   0  0  0  0  0  0  0  0  0  0  0  0
   40.7554  -20.7194   30.5966 N   0  0  0  0  0  0  0  0  0  0  0  0
   40.2000  -19.7877   29.8818 N   0  0  0  0  0  0  0  0  0  0  0  0
   40.8641  -19.5941   28.7181 N   0  0  0  0  0  0  0  0  0  0  0  0
   37.9405  -25.9046   25.8085 C   0  0  0  0  0  0  0  0  0  0  0  0
   39.1538  -26.8536   23.8024 C   0  0  0  0  0  0  0  0  0  0  0  0
   37.9621  -26.6794   24.5092 C   0  0  0  0  0  0  0  0  0  0  0  0
   39.1493  -27.3473   22.5087 C   0  0  0  0  0  0  0  0  0  0  0  0
   37.9610  -27.7065   21.9047 C   0  0  0  0  0  0  0  0  0  0  0  0
   36.7733  -27.5893   22.6084 C   0  0  0  0  0  0  0  0  0  0  0  0
   36.7746  -27.0865   23.9042 C   0  0  0  0  0  0  0  0  0  0  0  0
 38 34  2  0  0  0
 38 37  1  0  0  0
 34 35  1  0  0  0
 37 36  2  0  0  0
 35 36  1  0  0  0
 35 32  1  0  0  0
  6  5  1  0  0  0
 32 31  2  0  0  0
 32 27  1  0  0  0
 31 30  1  0  0  0
 45 44  2  0  0  0
 45 41  1  0  0  0
  7  5  1  0  0  0
  7  2  2  0  0  0
 27 26  1  0  0  0
 27 33  2  0  0  0
 30 29  2  0  0  0
 39 41  1  0  0  0
 39  1  1  0  0  0
 44 43  1  0  0  0
 26 25  1  0  0  0
  5  4  2  0  0  0
 41 40  2  0  0  0
 23  1  1  0  0  0
 23 21  1  0  0  0
 29 33  1  0  0  0
 29 28  1  0  0  0
  2  1  1  0  0  0
  2  3  1  0  0  0
 25 21  1  0  0  0
 43 42  2  0  0  0
 21 22  2  0  0  0
  4  3  1  0  0  0
  4  9  1  0  0  0
 40 42  1  0  0  0
 10  9  2  0  0  0
 10 11  1  0  0  0
  9 14  1  0  0  0
 11 12  2  0  0  0
 14 13  2  0  0  0
 12 13  1  0  0  0
 12 15  1  0  0  0
 17 16  2  0  0  0
 15 16  1  0  0  0
 16 19  1  0  0  0
 19 20  1  0  0  0
 23 24  1  0  0  0
  3  8  1  0  0  0
 15 18  1  0  0  0
M  END
> <minimizedAffinity>
-9.66212

$$$$
4X6O_3Y4_A_301


 45 49  0  0  0  0  0  0  0  0999 V2000
   39.9350  -24.0496   26.3813 C   0  0  0  0  0  0  0  0  0  0  0  0
   38.8519  -23.0261   26.2023 C   0  0  0  0  0  0  0  0  0  0  0  0
   38.9260  -21.7585   26.7150 N   0  0  0  0  0  0  0  0  0  0  0  0
   37.8098  -21.0649   26.2993 C   0  0  0  0  0  0  0  0  0  0  0  0
   37.0643  -21.9619   25.5241 C   0  0  0  0  0  0  0  0  0  0  0  0
   35.5604  -21.7487   24.7163 Cl  0  0  0  0  0  0  0  0  0  0  0  0
   37.7086  -23.1582   25.4731 N   0  0  0  0  0  0  0  0  0  0  0  0
   39.6496  -21.4046   27.2812 H   0  0  0  0  0  0  0  0  0  0  0  0
   37.6366  -19.6519   26.6750 C   0  0  0  0  0  0  0  0  0  0  0  0
   37.8270  -19.2316   27.9917 C   0  0  0  0  0  0  0  0  0  0  0  0
   37.5851  -17.9150   28.3529 C   0  0  0  0  0  0  0  0  0  0  0  0
   37.1813  -16.9841   27.3925 C   0  0  0  0  0  0  0  0  0  0  0  0
   37.0258  -17.3947   26.0733 C   0  0  0  0  0  0  0  0  0  0  0  0
   37.2422  -18.7130   25.7227 C   0  0  0  0  0  0  0  0  0  0  0  0
   36.8848  -15.6247   27.6679 N   0  0  0  0  0  0  0  0  0  0  0  0
   35.9165  -15.1404   28.4972 C   0  0  0  0  0  0  0  0  0  0  0  0
   35.0599  -15.7864   29.0671 O   0  0  0  0  0  0  0  0  0  0  0  0
   37.4410  -14.9549   27.2083 H   0  0  0  0  0  0  0  0  0  0  0  0
   36.0548  -13.8063   28.5960 O   0  0  0  0  0  0  0  0  0  0  0  0
   36.1241  -13.0755   27.3425 C   0  0  0  0  0  0  0  0  0  0  0  0
   42.2209  -23.2628   26.3460 C   0  0  0  0  0  0  0  0  0  0  0  0
   42.2650  -23.3776   25.1215 O   0  0  0  0  0  0  0  0  0  0  0  0
   41.1188  -23.5302   27.0608 N   0  0  0  0  0  0  0  0  0  0  0  0
   41.1075  -23.3782   28.0334 H   0  0  0  0  0  0  0  0  0  0  0  0
   43.4323  -22.7928   27.1213 C   0  0  0  0  0  0  0  0  0  0  0  0
   43.4542  -21.3552   27.7020 C   0  0  0  0  0  0  0  0  0  0  0  0
   43.9731  -21.3973   29.1323 C   0  0  0  0  0  0  0  0  0  0  0  0
   47.4785  -20.5966   30.8926 Cl  0  0  0  0  0  0  0  0  0  0  0  0
   45.8068  -21.0244   30.6422 C   0  0  0  0  0  0  0  0  0  0  0  0
   45.0047  -21.2942   31.7346 C   0  0  0  0  0  0  0  0  0  0  0  0
   43.6662  -21.6184   31.5301 C   0  0  0  0  0  0  0  0  0  0  0  0
   43.1508  -21.6738   30.2350 C   0  0  0  0  0  0  0  0  0  0  0  0
   45.3113  -21.0692   29.3544 C   0  0  0  0  0  0  0  0  0  0  0  0
   41.2218  -23.2331   30.3141 C   0  0  0  0  0  0  0  0  0  0  0  0
   41.7824  -22.0317   30.0464 N   0  0  0  0  0  0  0  0  0  0  0  0
   40.8067  -21.2400   29.5313 N   0  0  0  0  0  0  0  0  0  0  0  0
   39.7319  -21.9687   29.4957 N   0  0  0  0  0  0  0  0  0  0  0  0
   39.9593  -23.2108   29.9837 N   0  0  0  0  0  0  0  0  0  0  0  0
   39.3899  -25.3578   26.9945 C   0  0  0  0  0  0  0  0  0  0  0  0
   41.2309  -26.9808   26.3832 C   0  0  0  0  0  0  0  0  0  0  0  0
   40.4996  -26.3154   27.3694 C   0  0  0  0  0  0  0  0  0  0  0  0
   42.0774  -28.0274   26.7082 C   0  0  0  0  0  0  0  0  0  0  0  0
   42.2360  -28.4116   28.0246 C   0  0  0  0  0  0  0  0  0  0  0  0
   41.5582  -27.7299   29.0225 C   0  0  0  0  0  0  0  0  0  0  0  0
   40.7019  -26.6843   28.6979 C   0  0  0  0  0  0  0  0  0  0  0  0
 38 34  2  0  0  0
 38 37  1  0  0  0
 34 35  1  0  0  0
 37 36  2  0  0  0
 35 36  1  0  0  0
 35 32  1  0  0  0
  6  5  1  0  0  0
 32 31  2  0  0  0
 32 27  1  0  0  0
 31 30  1  0  0  0
 45 44  2  0  0  0
 45 41  1  0  0  0
  7  5  1  0  0  0
  7  2  2  0  0  0
 27 26  1  0  0  0
 27 33  2  0  0  0
 30 29  2  0  0  0
 39 41  1  0  0  0
 39  1  1  0  0  0
 44 43  1  0  0  0
 26 25  1  0  0  0
  5  4  2  0  0  0
 41 40  2  0  0  0
 23  1  1  0  0  0
 23 21  1  0  0  0
 29 33  1  0  0  0
 29 28  1  0  0  0
  2  1  1  0  0  0
  2  3  1  0  0  0
 25 21  1  0  0  0
 43 42  2  0  0  0
 21 22  2  0  0  0
  4  3  1  0  0  0
  4  9  1  0  0  0
 40 42  1  0  0  0
 10  9  2  0  0  0
 10 11  1  0  0  0
  9 14  1  0  0  0
 11 12  2  0  0  0
 14 13  2  0  0  0
 12 13  1  0  0  0
 12 15  1  0  0  0
 17 16  2  0  0  0
 15 16  1  0  0  0
 16 19  1  0  0  0
 19 20  1  0  0  0
 23 24  1  0  0  0
  3  8  1  0  0  0
 15 18  1  0  0  0
M  END
> <minimizedAffinity>
-9.49198

$$$$
4X6O_3Y4_A_301


 45 49  0  0  0  0  0  0  0  0999 V2000
   38.1984  -17.6455   26.9379 C   0  0  0  0  0  0  0  0  0  0  0  0
   37.5164  -18.3145   25.7802 C   0  0  0  0  0  0  0  0  0  0  0  0
   37.1541  -19.6352   25.7848 N   0  0  0  0  0  0  0  0  0  0  0  0
   36.4855  -19.8974   24.6084 C   0  0  0  0  0  0  0  0  0  0  0  0
   36.4638  -18.6901   23.8991 C   0  0  0  0  0  0  0  0  0  0  0  0
   35.8010  -18.3201   22.3551 Cl  0  0  0  0  0  0  0  0  0  0  0  0
   37.0986  -17.7298   24.6228 N   0  0  0  0  0  0  0  0  0  0  0  0
   37.3388  -20.2834   26.5024 H   0  0  0  0  0  0  0  0  0  0  0  0
   35.9442  -21.2423   24.3512 C   0  0  0  0  0  0  0  0  0  0  0  0
   35.0607  -21.4696   23.2955 C   0  0  0  0  0  0  0  0  0  0  0  0
   34.4942  -22.7212   23.1082 C   0  0  0  0  0  0  0  0  0  0  0  0
   34.8302  -23.7803   23.9552 C   0  0  0  0  0  0  0  0  0  0  0  0
   35.7379  -23.5628   24.9857 C   0  0  0  0  0  0  0  0  0  0  0  0
   36.2797  -22.3080   25.1851 C   0  0  0  0  0  0  0  0  0  0  0  0
   34.2856  -25.0865   23.8612 N   0  0  0  0  0  0  0  0  0  0  0  0
   34.8536  -26.1799   23.2766 C   0  0  0  0  0  0  0  0  0  0  0  0
   35.8840  -26.2055   22.6336 O   0  0  0  0  0  0  0  0  0  0  0  0
   33.3968  -25.2188   24.2634 H   0  0  0  0  0  0  0  0  0  0  0  0
   34.0856  -27.2554   23.5257 O   0  0  0  0  0  0  0  0  0  0  0  0
   34.6939  -28.5494   23.2693 C   0  0  0  0  0  0  0  0  0  0  0  0
   39.5165  -19.2560   28.1685 C   0  0  0  0  0  0  0  0  0  0  0  0
   38.5003  -19.7426   28.6637 O   0  0  0  0  0  0  0  0  0  0  0  0
   39.4823  -18.2493   27.2839 N   0  0  0  0  0  0  0  0  0  0  0  0
   40.3139  -17.9206   26.8720 H   0  0  0  0  0  0  0  0  0  0  0  0
   40.8846  -19.7895   28.5334 C   0  0  0  0  0  0  0  0  0  0  0  0
   41.2862  -21.2210   28.0928 C   0  0  0  0  0  0  0  0  0  0  0  0
   42.4447  -21.7065   28.9524 C   0  0  0  0  0  0  0  0  0  0  0  0
   45.6460  -19.9759   30.6211 Cl  0  0  0  0  0  0  0  0  0  0  0  0
   44.4498  -21.1581   30.1609 C   0  0  0  0  0  0  0  0  0  0  0  0
   44.5435  -22.4454   30.6542 C   0  0  0  0  0  0  0  0  0  0  0  0
   43.5759  -23.3809   30.2975 C   0  0  0  0  0  0  0  0  0  0  0  0
   42.5316  -23.0165   29.4473 C   0  0  0  0  0  0  0  0  0  0  0  0
   43.4197  -20.7793   29.3232 C   0  0  0  0  0  0  0  0  0  0  0  0
   40.4915  -24.3842   29.8020 C   0  0  0  0  0  0  0  0  0  0  0  0
   41.5643  -23.9971   29.0750 N   0  0  0  0  0  0  0  0  0  0  0  0
   41.5686  -24.7417   27.9392 N   0  0  0  0  0  0  0  0  0  0  0  0
   40.5417  -25.5330   28.0226 N   0  0  0  0  0  0  0  0  0  0  0  0
   39.8495  -25.3270   29.1677 N   0  0  0  0  0  0  0  0  0  0  0  0
   38.2605  -16.1132   26.7572 C   0  0  0  0  0  0  0  0  0  0  0  0
   36.7870  -14.0817   27.0722 C   0  0  0  0  0  0  0  0  0  0  0  0
   37.0590  -15.4204   27.3619 C   0  0  0  0  0  0  0  0  0  0  0  0
   35.8415  -13.3742   27.7953 C   0  0  0  0  0  0  0  0  0  0  0  0
   35.1263  -13.9942   28.8001 C   0  0  0  0  0  0  0  0  0  0  0  0
   35.3455  -15.3358   29.0680 C   0  0  0  0  0  0  0  0  0  0  0  0
   36.2997  -16.0459   28.3489 C   0  0  0  0  0  0  0  0  0  0  0  0
 38 34  2  0  0  0
 38 37  1  0  0  0
 34 35  1  0  0  0
 37 36  2  0  0  0
 35 36  1  0  0  0
 35 32  1  0  0  0
  6  5  1  0  0  0
 32 31  2  0  0  0
 32 27  1  0  0  0
 31 30  1  0  0  0
 45 44  2  0  0  0
 45 41  1  0  0  0
  7  5  1  0  0  0
  7  2  2  0  0  0
 27 26  1  0  0  0
 27 33  2  0  0  0
 30 29  2  0  0  0
 39 41  1  0  0  0
 39  1  1  0  0  0
 44 43  1  0  0  0
 26 25  1  0  0  0
  5  4  2  0  0  0
 41 40  2  0  0  0
 23  1  1  0  0  0
 23 21  1  0  0  0
 29 33  1  0  0  0
 29 28  1  0  0  0
  2  1  1  0  0  0
  2  3  1  0  0  0
 25 21  1  0  0  0
 43 42  2  0  0  0
 21 22  2  0  0  0
  4  3  1  0  0  0
  4  9  1  0  0  0
 40 42  1  0  0  0
 10  9  2  0  0  0
 10 11  1  0  0  0
  9 14  1  0  0  0
 11 12  2  0  0  0
 14 13  2  0  0  0
 12 13  1  0  0  0
 12 15  1  0  0  0
 17 16  2  0  0  0
 15 16  1  0  0  0
 16 19  1  0  0  0
 19 20  1  0  0  0
 23 24  1  0  0  0
  3  8  1  0  0  0
 15 18  1  0  0  0
M  END
> <minimizedAffinity>
-9.38103

$$$$
4X6O_3Y4_A_301


 45 49  0  0  0  0  0  0  0  0999 V2000
   40.4724  -23.7297   26.1522 C   0  0  0  0  0  0  0  0  0  0  0  0
   39.2684  -22.8350   26.2053 C   0  0  0  0  0  0  0  0  0  0  0  0
   39.3214  -21.5304   26.6184 N   0  0  0  0  0  0  0  0  0  0  0  0
   38.0647  -20.9847   26.4678 C   0  0  0  0  0  0  0  0  0  0  0  0
   37.2582  -22.0081   25.9543 C   0  0  0  0  0  0  0  0  0  0  0  0
   35.5864  -22.0074   25.5481 Cl  0  0  0  0  0  0  0  0  0  0  0  0
   38.0028  -23.1353   25.7999 N   0  0  0  0  0  0  0  0  0  0  0  0
   40.1173  -21.0642   26.9626 H   0  0  0  0  0  0  0  0  0  0  0  0
   37.8288  -19.5709   26.8045 C   0  0  0  0  0  0  0  0  0  0  0  0
   38.0456  -19.0965   28.0986 C   0  0  0  0  0  0  0  0  0  0  0  0
   37.7459  -17.7830   28.4267 C   0  0  0  0  0  0  0  0  0  0  0  0
   37.2559  -16.9083   27.4537 C   0  0  0  0  0  0  0  0  0  0  0  0
   37.0734  -17.3714   26.1555 C   0  0  0  0  0  0  0  0  0  0  0  0
   37.3481  -18.6875   25.8390 C   0  0  0  0  0  0  0  0  0  0  0  0
   36.8962  -15.5580   27.6969 N   0  0  0  0  0  0  0  0  0  0  0  0
   35.9026  -15.1000   28.5110 C   0  0  0  0  0  0  0  0  0  0  0  0
   35.0734  -15.7715   29.0919 O   0  0  0  0  0  0  0  0  0  0  0  0
   37.4236  -14.8740   27.2245 H   0  0  0  0  0  0  0  0  0  0  0  0
   35.9793  -13.7591   28.5800 O   0  0  0  0  0  0  0  0  0  0  0  0
   36.0885  -13.0583   27.3123 C   0  0  0  0  0  0  0  0  0  0  0  0
   42.8003  -23.0843   26.2533 C   0  0  0  0  0  0  0  0  0  0  0  0
   42.9480  -23.3472   25.0601 O   0  0  0  0  0  0  0  0  0  0  0  0
   41.6219  -23.2009   26.8816 N   0  0  0  0  0  0  0  0  0  0  0  0
   41.5323  -22.9331   27.8247 H   0  0  0  0  0  0  0  0  0  0  0  0
   43.9651  -22.5946   27.0857 C   0  0  0  0  0  0  0  0  0  0  0  0
   43.8898  -21.1971   27.7534 C   0  0  0  0  0  0  0  0  0  0  0  0
   44.3617  -21.3021   29.1967 C   0  0  0  0  0  0  0  0  0  0  0  0
   47.7912  -20.5316   31.1130 Cl  0  0  0  0  0  0  0  0  0  0  0  0
   46.1370  -20.9745   30.7849 C   0  0  0  0  0  0  0  0  0  0  0  0
   45.3043  -21.3123   31.8346 C   0  0  0  0  0  0  0  0  0  0  0  0
   43.9795  -21.6484   31.5688 C   0  0  0  0  0  0  0  0  0  0  0  0
   43.5085  -21.6475   30.2556 C   0  0  0  0  0  0  0  0  0  0  0  0
   45.6854  -20.9631   29.4802 C   0  0  0  0  0  0  0  0  0  0  0  0
   41.1229  -21.1783   29.7583 C   0  0  0  0  0  0  0  0  0  0  0  0
   42.1540  -22.0186   30.0031 N   0  0  0  0  0  0  0  0  0  0  0  0
   41.6524  -23.2806   29.9984 N   0  0  0  0  0  0  0  0  0  0  0  0
   40.3789  -23.1619   29.7713 N   0  0  0  0  0  0  0  0  0  0  0  0
   40.0232  -21.8656   29.6105 N   0  0  0  0  0  0  0  0  0  0  0  0
   40.1188  -25.1869   26.5209 C   0  0  0  0  0  0  0  0  0  0  0  0
   41.0816  -26.4729   24.5674 C   0  0  0  0  0  0  0  0  0  0  0  0
   39.9637  -26.0614   25.2961 C   0  0  0  0  0  0  0  0  0  0  0  0
   40.9427  -27.0661   23.3239 C   0  0  0  0  0  0  0  0  0  0  0  0
   39.6872  -27.2895   22.7954 C   0  0  0  0  0  0  0  0  0  0  0  0
   38.5646  -26.9350   23.5260 C   0  0  0  0  0  0  0  0  0  0  0  0
   38.7017  -26.3322   24.7708 C   0  0  0  0  0  0  0  0  0  0  0  0
 38 34  2  0  0  0
 38 37  1  0  0  0
 34 35  1  0  0  0
 37 36  2  0  0  0
 35 36  1  0  0  0
 35 32  1  0  0  0
  6  5  1  0  0  0
 32 31  2  0  0  0
 32 27  1  0  0  0
 31 30  1  0  0  0
 45 44  2  0  0  0
 45 41  1  0  0  0
  7  5  1  0  0  0
  7  2  2  0  0  0
 27 26  1  0  0  0
 27 33  2  0  0  0
 30 29  2  0  0  0
 39 41  1  0  0  0
 39  1  1  0  0  0
 44 43  1  0  0  0
 26 25  1  0  0  0
  5  4  2  0  0  0
 41 40  2  0  0  0
 23  1  1  0  0  0
 23 21  1  0  0  0
 29 33  1  0  0  0
 29 28  1  0  0  0
  2  1  1  0  0  0
  2  3  1  0  0  0
 25 21  1  0  0  0
 43 42  2  0  0  0
 21 22  2  0  0  0
  4  3  1  0  0  0
  4  9  1  0  0  0
 40 42  1  0  0  0
 10  9  2  0  0  0
 10 11  1  0  0  0
  9 14  1  0  0  0
 11 12  2  0  0  0
 14 13  2  0  0  0
 12 13  1  0  0  0
 12 15  1  0  0  0
 17 16  2  0  0  0
 15 16  1  0  0  0
 16 19  1  0  0  0
 19 20  1  0  0  0
 23 24  1  0  0  0
  3  8  1  0  0  0
 15 18  1  0  0  0
M  END
> <minimizedAffinity>
-9.34503

$$$$
4X6O_3Y4_A_301


 45 49  0  0  0  0  0  0  0  0999 V2000
   38.9074  -19.6206   28.1370 C   0  0  0  0  0  0  0  0  0  0  0  0
   39.9987  -20.5168   28.6456 C   0  0  0  0  0  0  0  0  0  0  0  0
   41.3104  -20.1311   28.7236 N   0  0  0  0  0  0  0  0  0  0  0  0
   42.0226  -21.1586   29.3041 C   0  0  0  0  0  0  0  0  0  0  0  0
   41.0931  -22.1726   29.5666 C   0  0  0  0  0  0  0  0  0  0  0  0
   41.3140  -23.7282   30.2677 Cl  0  0  0  0  0  0  0  0  0  0  0  0
   39.8598  -21.7715   29.1582 N   0  0  0  0  0  0  0  0  0  0  0  0
   41.6797  -19.2710   28.4187 H   0  0  0  0  0  0  0  0  0  0  0  0
   43.4669  -21.0096   29.5479 C   0  0  0  0  0  0  0  0  0  0  0  0
   44.3280  -20.6039   28.5278 C   0  0  0  0  0  0  0  0  0  0  0  0
   45.6963  -20.5424   28.7438 C   0  0  0  0  0  0  0  0  0  0  0  0
   46.2258  -20.8526   29.9990 C   0  0  0  0  0  0  0  0  0  0  0  0
   45.3644  -21.2226   31.0257 C   0  0  0  0  0  0  0  0  0  0  0  0
   44.0046  -21.3082   30.7991 C   0  0  0  0  0  0  0  0  0  0  0  0
   47.6095  -20.8448   30.3101 N   0  0  0  0  0  0  0  0  0  0  0  0
   48.5992  -21.5571   29.6991 C   0  0  0  0  0  0  0  0  0  0  0  0
   48.4578  -22.4115   28.8471 O   0  0  0  0  0  0  0  0  0  0  0  0
   47.8871  -20.2589   31.0510 H   0  0  0  0  0  0  0  0  0  0  0  0
   49.7871  -21.1619   30.1902 O   0  0  0  0  0  0  0  0  0  0  0  0
   50.8647  -21.0249   29.2258 C   0  0  0  0  0  0  0  0  0  0  0  0
   37.4949  -20.3900   26.3319 C   0  0  0  0  0  0  0  0  0  0  0  0
   38.2507  -19.8916   25.4982 O   0  0  0  0  0  0  0  0  0  0  0  0
   37.7383  -20.3475   27.6494 N   0  0  0  0  0  0  0  0  0  0  0  0
   37.1355  -20.8015   28.2817 H   0  0  0  0  0  0  0  0  0  0  0  0
   36.2310  -21.1010   25.9003 C   0  0  0  0  0  0  0  0  0  0  0  0
   36.1674  -21.7568   24.4965 C   0  0  0  0  0  0  0  0  0  0  0  0
   36.5474  -23.2264   24.6091 C   0  0  0  0  0  0  0  0  0  0  0  0
   39.1190  -25.3175   26.8544 Cl  0  0  0  0  0  0  0  0  0  0  0  0
   37.8756  -24.9055   25.7036 C   0  0  0  0  0  0  0  0  0  0  0  0
   37.2296  -25.9131   25.0131 C   0  0  0  0  0  0  0  0  0  0  0  0
   36.2254  -25.5797   24.1080 C   0  0  0  0  0  0  0  0  0  0  0  0
   35.8862  -24.2422   23.9024 C   0  0  0  0  0  0  0  0  0  0  0  0
   37.5483  -23.5774   25.5162 C   0  0  0  0  0  0  0  0  0  0  0  0
   34.9801  -23.9884   21.6060 C   0  0  0  0  0  0  0  0  0  0  0  0
   34.8710  -23.9210   22.9525 N   0  0  0  0  0  0  0  0  0  0  0  0
   33.6256  -23.4567   23.2310 N   0  0  0  0  0  0  0  0  0  0  0  0
   33.0506  -23.2553   22.0837 N   0  0  0  0  0  0  0  0  0  0  0  0
   33.8675  -23.5848   21.0557 N   0  0  0  0  0  0  0  0  0  0  0  0
   38.5680  -18.5029   29.1470 C   0  0  0  0  0  0  0  0  0  0  0  0
   38.8761  -16.4913   27.6452 C   0  0  0  0  0  0  0  0  0  0  0  0
   38.0446  -17.2588   28.4634 C   0  0  0  0  0  0  0  0  0  0  0  0
   38.4859  -15.2358   27.2104 C   0  0  0  0  0  0  0  0  0  0  0  0
   37.2475  -14.7331   27.5560 C   0  0  0  0  0  0  0  0  0  0  0  0
   36.3877  -15.5011   28.3244 C   0  0  0  0  0  0  0  0  0  0  0  0
   36.7805  -16.7582   28.7687 C   0  0  0  0  0  0  0  0  0  0  0  0
 38 34  2  0  0  0
 38 37  1  0  0  0
 34 35  1  0  0  0
 37 36  2  0  0  0
 35 36  1  0  0  0
 35 32  1  0  0  0
  6  5  1  0  0  0
 32 31  2  0  0  0
 32 27  1  0  0  0
 31 30  1  0  0  0
 45 44  2  0  0  0
 45 41  1  0  0  0
  7  5  1  0  0  0
  7  2  2  0  0  0
 27 26  1  0  0  0
 27 33  2  0  0  0
 30 29  2  0  0  0
 39 41  1  0  0  0
 39  1  1  0  0  0
 44 43  1  0  0  0
 26 25  1  0  0  0
  5  4  2  0  0  0
 41 40  2  0  0  0
 23  1  1  0  0  0
 23 21  1  0  0  0
 29 33  1  0  0  0
 29 28  1  0  0  0
  2  1  1  0  0  0
  2  3  1  0  0  0
 25 21  1  0  0  0
 43 42  2  0  0  0
 21 22  2  0  0  0
  4  3  1  0  0  0
  4  9  1  0  0  0
 40 42  1  0  0  0
 10  9  2  0  0  0
 10 11  1  0  0  0
  9 14  1  0  0  0
 11 12  2  0  0  0
 14 13  2  0  0  0
 12 13  1  0  0  0
 12 15  1  0  0  0
 17 16  2  0  0  0
 15 16  1  0  0  0
 16 19  1  0  0  0
 19 20  1  0  0  0
 23 24  1  0  0  0
  3  8  1  0  0  0
 15 18  1  0  0  0
M  END
> <minimizedAffinity>
-9.24835

$$$$
4X6O_3Y4_A_301


 45 49  0  0  0  0  0  0  0  0999 V2000
   39.0461  -19.5305   28.1977 C   0  0  0  0  0  0  0  0  0  0  0  0
   40.0812  -20.4788   28.7286 C   0  0  0  0  0  0  0  0  0  0  0  0
   41.4063  -20.1536   28.8455 N   0  0  0  0  0  0  0  0  0  0  0  0
   42.0551  -21.2162   29.4368 C   0  0  0  0  0  0  0  0  0  0  0  0
   41.0739  -22.1889   29.6656 C   0  0  0  0  0  0  0  0  0  0  0  0
   41.2048  -23.7576   30.3599 Cl  0  0  0  0  0  0  0  0  0  0  0  0
   39.8717  -21.7294   29.2270 N   0  0  0  0  0  0  0  0  0  0  0  0
   41.8225  -19.3090   28.5578 H   0  0  0  0  0  0  0  0  0  0  0  0
   43.4974  -21.1347   29.7211 C   0  0  0  0  0  0  0  0  0  0  0  0
   44.0064  -21.5199   30.9617 C   0  0  0  0  0  0  0  0  0  0  0  0
   45.3542  -21.3658   31.2489 C   0  0  0  0  0  0  0  0  0  0  0  0
   46.2258  -20.8549   30.2839 C   0  0  0  0  0  0  0  0  0  0  0  0
   45.7250  -20.5041   29.0353 C   0  0  0  0  0  0  0  0  0  0  0  0
   44.3773  -20.6344   28.7623 C   0  0  0  0  0  0  0  0  0  0  0  0
   47.6118  -20.6358   30.4906 N   0  0  0  0  0  0  0  0  0  0  0  0
   48.6508  -21.2729   29.8785 C   0  0  0  0  0  0  0  0  0  0  0  0
   48.5762  -22.2217   29.1235 O   0  0  0  0  0  0  0  0  0  0  0  0
   47.8510  -19.9456   31.1506 H   0  0  0  0  0  0  0  0  0  0  0  0
   49.8011  -20.6785   30.2417 O   0  0  0  0  0  0  0  0  0  0  0  0
   49.8258  -20.0896   31.5694 C   0  0  0  0  0  0  0  0  0  0  0  0
   37.4670  -20.1833   26.4871 C   0  0  0  0  0  0  0  0  0  0  0  0
   38.1795  -19.6936   25.6112 O   0  0  0  0  0  0  0  0  0  0  0  0
   37.8113  -20.1908   27.7826 N   0  0  0  0  0  0  0  0  0  0  0  0
   37.2380  -20.6368   28.4472 H   0  0  0  0  0  0  0  0  0  0  0  0
   36.1428  -20.8253   26.1355 C   0  0  0  0  0  0  0  0  0  0  0  0
   36.1155  -22.2975   25.6491 C   0  0  0  0  0  0  0  0  0  0  0  0
   35.9123  -22.3262   24.1409 C   0  0  0  0  0  0  0  0  0  0  0  0
   35.6532  -19.5482   21.2697 Cl  0  0  0  0  0  0  0  0  0  0  0  0
   35.7272  -21.0852   22.0897 C   0  0  0  0  0  0  0  0  0  0  0  0
   35.6896  -22.2514   21.3495 C   0  0  0  0  0  0  0  0  0  0  0  0
   35.7665  -23.4759   22.0079 C   0  0  0  0  0  0  0  0  0  0  0  0
   35.8739  -23.5160   23.3982 C   0  0  0  0  0  0  0  0  0  0  0  0
   35.8390  -21.1070   23.4656 C   0  0  0  0  0  0  0  0  0  0  0  0
   37.0334  -25.3891   24.5407 C   0  0  0  0  0  0  0  0  0  0  0  0
   35.9270  -24.7817   24.0548 N   0  0  0  0  0  0  0  0  0  0  0  0
   34.8802  -25.6179   24.2772 N   0  0  0  0  0  0  0  0  0  0  0  0
   35.3753  -26.6691   24.8580 N   0  0  0  0  0  0  0  0  0  0  0  0
   36.7114  -26.5508   25.0412 N   0  0  0  0  0  0  0  0  0  0  0  0
   38.8224  -18.3361   29.1505 C   0  0  0  0  0  0  0  0  0  0  0  0
   38.8283  -16.3476   27.5875 C   0  0  0  0  0  0  0  0  0  0  0  0
   38.1282  -17.1817   28.4616 C   0  0  0  0  0  0  0  0  0  0  0  0
   38.2756  -15.1592   27.1406 C   0  0  0  0  0  0  0  0  0  0  0  0
   37.0029  -14.7932   27.5306 C   0  0  0  0  0  0  0  0  0  0  0  0
   36.2727  -15.6325   28.3564 C   0  0  0  0  0  0  0  0  0  0  0  0
   36.8285  -16.8220   28.8126 C   0  0  0  0  0  0  0  0  0  0  0  0
 38 34  2  0  0  0
 38 37  1  0  0  0
 34 35  1  0  0  0
 37 36  2  0  0  0
 35 36  1  0  0  0
 35 32  1  0  0  0
  6  5  1  0  0  0
 32 31  2  0  0  0
 32 27  1  0  0  0
 31 30  1  0  0  0
 45 44  2  0  0  0
 45 41  1  0  0  0
  7  5  1  0  0  0
  7  2  2  0  0  0
 27 26  1  0  0  0
 27 33  2  0  0  0
 30 29  2  0  0  0
 39 41  1  0  0  0
 39  1  1  0  0  0
 44 43  1  0  0  0
 26 25  1  0  0  0
  5  4  2  0  0  0
 41 40  2  0  0  0
 23  1  1  0  0  0
 23 21  1  0  0  0
 29 33  1  0  0  0
 29 28  1  0  0  0
  2  1  1  0  0  0
  2  3  1  0  0  0
 25 21  1  0  0  0
 43 42  2  0  0  0
 21 22  2  0  0  0
  4  3  1  0  0  0
  4  9  1  0  0  0
 40 42  1  0  0  0
 10  9  2  0  0  0
 10 11  1  0  0  0
  9 14  1  0  0  0
 11 12  2  0  0  0
 14 13  2  0  0  0
 12 13  1  0  0  0
 12 15  1  0  0  0
 17 16  2  0  0  0
 15 16  1  0  0  0
 16 19  1  0  0  0
 19 20  1  0  0  0
 23 24  1  0  0  0
  3  8  1  0  0  0
 15 18  1  0  0  0
M  END
> <minimizedAffinity>
-9.21820

$$$$
4X6O_3Y4_A_301


 45 49  0  0  0  0  0  0  0  0999 V2000
   39.2454  -20.1064   27.9059 C   0  0  0  0  0  0  0  0  0  0  0  0
   40.2997  -20.9442   28.5688 C   0  0  0  0  0  0  0  0  0  0  0  0
   41.5954  -20.5306   28.7284 N   0  0  0  0  0  0  0  0  0  0  0  0
   42.2674  -21.5007   29.4404 C   0  0  0  0  0  0  0  0  0  0  0  0
   41.3308  -22.5096   29.6975 C   0  0  0  0  0  0  0  0  0  0  0  0
   41.5092  -24.0064   30.5268 Cl  0  0  0  0  0  0  0  0  0  0  0  0
   40.1322  -22.1609   29.1585 N   0  0  0  0  0  0  0  0  0  0  0  0
   41.9794  -19.6882   28.3935 H   0  0  0  0  0  0  0  0  0  0  0  0
   43.6840  -21.3090   29.7932 C   0  0  0  0  0  0  0  0  0  0  0  0
   44.0874  -21.2389   31.1270 C   0  0  0  0  0  0  0  0  0  0  0  0
   45.4105  -20.9792   31.4501 C   0  0  0  0  0  0  0  0  0  0  0  0
   46.3636  -20.8198   30.4410 C   0  0  0  0  0  0  0  0  0  0  0  0
   45.9684  -20.9249   29.1122 C   0  0  0  0  0  0  0  0  0  0  0  0
   44.6446  -21.1574   28.7942 C   0  0  0  0  0  0  0  0  0  0  0  0
   47.7323  -20.5262   30.6695 N   0  0  0  0  0  0  0  0  0  0  0  0
   48.5941  -21.1874   31.4941 C   0  0  0  0  0  0  0  0  0  0  0  0
   48.3158  -22.0827   32.2667 O   0  0  0  0  0  0  0  0  0  0  0  0
   48.1021  -19.7582   30.1769 H   0  0  0  0  0  0  0  0  0  0  0  0
   49.8316  -20.6905   31.3197 O   0  0  0  0  0  0  0  0  0  0  0  0
   50.5230  -20.2582   32.5218 C   0  0  0  0  0  0  0  0  0  0  0  0
   38.2197  -21.4977   26.2154 C   0  0  0  0  0  0  0  0  0  0  0  0
   39.2536  -21.4875   25.5480 O   0  0  0  0  0  0  0  0  0  0  0  0
   38.1163  -20.8842   27.4029 N   0  0  0  0  0  0  0  0  0  0  0  0
   37.2882  -20.9572   27.9302 H   0  0  0  0  0  0  0  0  0  0  0  0
   36.9901  -22.2289   25.7227 C   0  0  0  0  0  0  0  0  0  0  0  0
   35.7051  -21.4245   25.3967 C   0  0  0  0  0  0  0  0  0  0  0  0
   35.9741  -20.5015   24.2167 C   0  0  0  0  0  0  0  0  0  0  0  0
   38.0779  -17.1379   23.6806 Cl  0  0  0  0  0  0  0  0  0  0  0  0
   37.0859  -18.5402   23.3810 C   0  0  0  0  0  0  0  0  0  0  0  0
   36.6614  -18.8082   22.0936 C   0  0  0  0  0  0  0  0  0  0  0  0
   35.8839  -19.9388   21.8570 C   0  0  0  0  0  0  0  0  0  0  0  0
   35.5372  -20.7818   22.9131 C   0  0  0  0  0  0  0  0  0  0  0  0
   36.7567  -19.3671   24.4364 C   0  0  0  0  0  0  0  0  0  0  0  0
   35.1482  -23.1521   22.2894 C   0  0  0  0  0  0  0  0  0  0  0  0
   34.7196  -21.9218   22.6526 N   0  0  0  0  0  0  0  0  0  0  0  0
   33.3627  -21.9646   22.6889 N   0  0  0  0  0  0  0  0  0  0  0  0
   33.0305  -23.1729   22.3465 N   0  0  0  0  0  0  0  0  0  0  0  0
   34.1215  -23.9354   22.0997 N   0  0  0  0  0  0  0  0  0  0  0  0
   38.8313  -18.9068   28.7857 C   0  0  0  0  0  0  0  0  0  0  0  0
   39.4732  -16.9235   27.3535 C   0  0  0  0  0  0  0  0  0  0  0  0
   38.4758  -17.6910   27.9583 C   0  0  0  0  0  0  0  0  0  0  0  0
   39.1840  -15.6876   26.7999 C   0  0  0  0  0  0  0  0  0  0  0  0
   37.8904  -15.2058   26.8100 C   0  0  0  0  0  0  0  0  0  0  0  0
   36.8780  -15.9756   27.3596 C   0  0  0  0  0  0  0  0  0  0  0  0
   37.1673  -17.2128   27.9231 C   0  0  0  0  0  0  0  0  0  0  0  0
 38 34  2  0  0  0
 38 37  1  0  0  0
 34 35  1  0  0  0
 37 36  2  0  0  0
 35 36  1  0  0  0
 35 32  1  0  0  0
  6  5  1  0  0  0
 32 31  2  0  0  0
 32 27  1  0  0  0
 31 30  1  0  0  0
 45 44  2  0  0  0
 45 41  1  0  0  0
  7  5  1  0  0  0
  7  2  2  0  0  0
 27 26  1  0  0  0
 27 33  2  0  0  0
 30 29  2  0  0  0
 39 41  1  0  0  0
 39  1  1  0  0  0
 44 43  1  0  0  0
 26 25  1  0  0  0
  5  4  2  0  0  0
 41 40  2  0  0  0
 23  1  1  0  0  0
 23 21  1  0  0  0
 29 33  1  0  0  0
 29 28  1  0  0  0
  2  1  1  0  0  0
  2  3  1  0  0  0
 25 21  1  0  0  0
 43 42  2  0  0  0
 21 22  2  0  0  0
  4  3  1  0  0  0
  4  9  1  0  0  0
 40 42  1  0  0  0
 10  9  2  0  0  0
 10 11  1  0  0  0
  9 14  1  0  0  0
 11 12  2  0  0  0
 14 13  2  0  0  0
 12 13  1  0  0  0
 12 15  1  0  0  0
 17 16  2  0  0  0
 15 16  1  0  0  0
 16 19  1  0  0  0
 19 20  1  0  0  0
 23 24  1  0  0  0
  3  8  1  0  0  0
 15 18  1  0  0  0
M  END
> <minimizedAffinity>
-9.17628

$$$$
4X6O_3Y4_A_301


 45 49  0  0  0  0  0  0  0  0999 V2000
   38.0503  -20.1757   24.5629 C   0  0  0  0  0  0  0  0  0  0  0  0
   38.6438  -21.3462   25.2911 C   0  0  0  0  0  0  0  0  0  0  0  0
   39.7720  -21.2559   26.0621 N   0  0  0  0  0  0  0  0  0  0  0  0
   39.9903  -22.4866   26.6432 C   0  0  0  0  0  0  0  0  0  0  0  0
   38.9569  -23.3162   26.1904 C   0  0  0  0  0  0  0  0  0  0  0  0
   38.6388  -24.9749   26.5187 Cl  0  0  0  0  0  0  0  0  0  0  0  0
   38.1409  -22.6105   25.3628 N   0  0  0  0  0  0  0  0  0  0  0  0
   40.3292  -20.4530   26.1805 H   0  0  0  0  0  0  0  0  0  0  0  0
   41.1257  -22.6785   27.5606 C   0  0  0  0  0  0  0  0  0  0  0  0
   42.1382  -21.7234   27.6578 C   0  0  0  0  0  0  0  0  0  0  0  0
   43.2432  -21.9479   28.4647 C   0  0  0  0  0  0  0  0  0  0  0  0
   43.3382  -23.1202   29.2187 C   0  0  0  0  0  0  0  0  0  0  0  0
   42.3124  -24.0562   29.1492 C   0  0  0  0  0  0  0  0  0  0  0  0
   41.2259  -23.8408   28.3241 C   0  0  0  0  0  0  0  0  0  0  0  0
   44.4379  -23.4520   30.0507 N   0  0  0  0  0  0  0  0  0  0  0  0
   44.8180  -22.8340   31.2055 C   0  0  0  0  0  0  0  0  0  0  0  0
   44.3461  -21.8169   31.6732 O   0  0  0  0  0  0  0  0  0  0  0  0
   44.9893  -24.2147   29.7619 H   0  0  0  0  0  0  0  0  0  0  0  0
   45.8177  -23.5368   31.7670 O   0  0  0  0  0  0  0  0  0  0  0  0
   45.7045  -24.9830   31.6912 C   0  0  0  0  0  0  0  0  0  0  0  0
   38.0050  -17.7908   24.9581 C   0  0  0  0  0  0  0  0  0  0  0  0
   36.7757  -17.7823   24.9011 O   0  0  0  0  0  0  0  0  0  0  0  0
   38.7291  -18.9130   24.8415 N   0  0  0  0  0  0  0  0  0  0  0  0
   39.7080  -18.8862   24.9427 H   0  0  0  0  0  0  0  0  0  0  0  0
   38.7765  -16.5080   25.1785 C   0  0  0  0  0  0  0  0  0  0  0  0
   39.2321  -16.1300   26.6117 C   0  0  0  0  0  0  0  0  0  0  0  0
   38.0074  -15.8817   27.4808 C   0  0  0  0  0  0  0  0  0  0  0  0
   35.2049  -13.0288   27.6681 Cl  0  0  0  0  0  0  0  0  0  0  0  0
   36.1136  -14.4850   27.9750 C   0  0  0  0  0  0  0  0  0  0  0  0
   35.6518  -15.3874   28.9140 C   0  0  0  0  0  0  0  0  0  0  0  0
   36.3720  -16.5569   29.1429 C   0  0  0  0  0  0  0  0  0  0  0  0
   37.5473  -16.8038   28.4330 C   0  0  0  0  0  0  0  0  0  0  0  0
   37.2716  -14.7166   27.2597 C   0  0  0  0  0  0  0  0  0  0  0  0
   39.3295  -18.1229   29.5477 C   0  0  0  0  0  0  0  0  0  0  0  0
   38.2828  -17.9969   28.7003 N   0  0  0  0  0  0  0  0  0  0  0  0
   38.0849  -19.2108   28.1245 N   0  0  0  0  0  0  0  0  0  0  0  0
   38.9943  -19.9966   28.6175 N   0  0  0  0  0  0  0  0  0  0  0  0
   39.7777  -19.3481   29.5111 N   0  0  0  0  0  0  0  0  0  0  0  0
   37.8750  -20.4682   23.0568 C   0  0  0  0  0  0  0  0  0  0  0  0
   35.3508  -20.5261   23.2061 C   0  0  0  0  0  0  0  0  0  0  0  0
   36.5374  -21.1070   22.7538 C   0  0  0  0  0  0  0  0  0  0  0  0
   34.1513  -21.2152   23.1442 C   0  0  0  0  0  0  0  0  0  0  0  0
   34.1045  -22.4839   22.6022 C   0  0  0  0  0  0  0  0  0  0  0  0
   35.2622  -23.0568   22.1011 C   0  0  0  0  0  0  0  0  0  0  0  0
   36.4688  -22.3702   22.1695 C   0  0  0  0  0  0  0  0  0  0  0  0
 38 34  2  0  0  0
 38 37  1  0  0  0
 34 35  1  0  0  0
 37 36  2  0  0  0
 35 36  1  0  0  0
 35 32  1  0  0  0
  6  5  1  0  0  0
 32 31  2  0  0  0
 32 27  1  0  0  0
 31 30  1  0  0  0
 45 44  2  0  0  0
 45 41  1  0  0  0
  7  5  1  0  0  0
  7  2  2  0  0  0
 27 26  1  0  0  0
 27 33  2  0  0  0
 30 29  2  0  0  0
 39 41  1  0  0  0
 39  1  1  0  0  0
 44 43  1  0  0  0
 26 25  1  0  0  0
  5  4  2  0  0  0
 41 40  2  0  0  0
 23  1  1  0  0  0
 23 21  1  0  0  0
 29 33  1  0  0  0
 29 28  1  0  0  0
  2  1  1  0  0  0
  2  3  1  0  0  0
 25 21  1  0  0  0
 43 42  2  0  0  0
 21 22  2  0  0  0
  4  3  1  0  0  0
  4  9  1  0  0  0
 40 42  1  0  0  0
 10  9  2  0  0  0
 10 11  1  0  0  0
  9 14  1  0  0  0
 11 12  2  0  0  0
 14 13  2  0  0  0
 12 13  1  0  0  0
 12 15  1  0  0  0
 17 16  2  0  0  0
 15 16  1  0  0  0
 16 19  1  0  0  0
 19 20  1  0  0  0
 23 24  1  0  0  0
  3  8  1  0  0  0
 15 18  1  0  0  0
M  END
> <minimizedAffinity>
-8.95668

$$$$
