5VB6_927_A_602


 38 41  0  0  0  0  0  0  0  0999 V2000
   -5.6012   26.2686   13.0711 C   0  0  0  0  0  0  0  0  0  0  0  0
   -6.9349   26.2559   13.3304 N   0  0  0  0  0  0  0  0  0  0  0  0
   -5.0379   27.3274   12.8885 O   0  0  0  0  0  0  0  0  0  0  0  0
   -4.8473   25.1669   13.2786 N   0  0  0  0  0  0  0  0  0  0  0  0
   -5.3565   23.8525   12.8899 C   0  0  0  0  0  0  0  0  0  0  0  0
   -3.1822   24.4589   14.9556 C   0  0  0  0  0  0  0  0  0  0  0  0
   -1.7511   24.7216   15.4278 C   0  0  0  0  0  0  0  0  0  0  0  0
   -0.7563   24.2962   14.3474 C   0  0  0  0  0  0  0  0  0  0  0  0
   -1.0398   25.0675   13.0540 C   0  0  0  0  0  0  0  0  0  0  0  0
   -2.4879   24.8483   12.6045 C   0  0  0  0  0  0  0  0  0  0  0  0
   -3.4455   25.3033   13.7094 C   0  0  0  0  0  0  0  0  0  0  0  0
    1.0554   25.8561   15.1520 C   0  0  0  0  0  0  0  0  0  0  0  0
    3.2028   25.0720   15.6792 N   0  0  0  0  0  0  0  0  0  0  0  0
    2.8585   23.8377   15.3732 C   0  0  0  0  0  0  0  0  0  0  0  0
    0.6517   24.5718   14.8190 C   0  0  0  0  0  0  0  0  0  0  0  0
    1.5797   23.5468   14.9356 C   0  0  0  0  0  0  0  0  0  0  0  0
    2.3501   26.0697   15.5821 C   0  0  0  0  0  0  0  0  0  0  0  0
   -6.7140   25.3406   15.5542 C   0  0  0  0  0  0  0  0  0  0  0  0
   -8.4374   23.9774   16.4701 C   0  0  0  0  0  0  0  0  0  0  0  0
   -9.1786   24.1055   15.3028 C   0  0  0  0  0  0  0  0  0  0  0  0
   -7.2103   24.5878   16.5944 C   0  0  0  0  0  0  0  0  0  0  0  0
   -8.6856   24.8684   14.2539 C   0  0  0  0  0  0  0  0  0  0  0  0
   -7.4413   25.4765   14.3775 C   0  0  0  0  0  0  0  0  0  0  0  0
  -11.7280   24.9074   14.0876 O   0  0  0  0  0  0  0  0  0  0  0  0
  -11.5856   23.8737   14.7141 C   0  0  0  0  0  0  0  0  0  0  0  0
  -10.4206   23.4622   15.2700 N   0  0  0  0  0  0  0  0  0  0  0  0
  -10.4526   22.5845   15.7149 H   0  0  0  0  0  0  0  0  0  0  0  0
  -12.6901   22.9109   14.8854 C   0  0  0  0  0  0  0  0  0  0  0  0
  -12.5829   21.6143   14.3843 C   0  0  0  0  0  0  0  0  0  0  0  0
  -13.6159   20.7211   14.5820 C   0  0  0  0  0  0  0  0  0  0  0  0
  -14.7561   21.1070   15.2626 C   0  0  0  0  0  0  0  0  0  0  0  0
  -14.8617   22.3920   15.7647 C   0  0  0  0  0  0  0  0  0  0  0  0
  -13.8340   23.2940   15.5849 C   0  0  0  0  0  0  0  0  0  0  0  0
   -7.7348   27.4394   12.9986 C   0  0  0  0  0  0  0  0  0  0  0  0
   -9.0251   28.5663   14.7590 C   0  0  0  0  0  0  0  0  0  0  0  0
  -10.2901   28.0279   14.1458 C   0  0  0  0  0  0  0  0  0  0  0  0
   -9.1078   29.4235   15.9943 C   0  0  0  0  0  0  0  0  0  0  0  0
   -7.8562   28.2959   14.2323 C   0  0  0  0  0  0  0  0  0  0  0  0
 10  9  1  0  0  0
 10 11  1  0  0  0
  3  1  2  0  0  0
 34  2  1  0  0  0
 34 38  1  0  0  0
  5  4  1  0  0  0
  1  2  1  0  0  0
  1  4  1  0  0  0
  9  8  1  0  0  0
 24 25  2  0  0  0
  2 23  1  0  0  0
  4 11  1  0  0  0
 11  6  1  0  0  0
 38 35  2  0  0  0
 22 23  2  0  0  0
 22 20  1  0  0  0
  8 15  1  0  0  0
  8  7  1  0  0  0
 25 28  1  0  0  0
 25 26  1  0  0  0
 23 18  1  0  0  0
 36 35  1  0  0  0
 29 28  2  0  0  0
 29 30  1  0  0  0
 35 37  1  0  0  0
 28 33  1  0  0  0
 15 16  2  0  0  0
 15 12  1  0  0  0
 16 14  1  0  0  0
  6  7  1  0  0  0
 30 31  2  0  0  0
 12 17  2  0  0  0
 14 13  2  0  0  0
 33 32  2  0  0  0
 20 26  1  0  0  0
 20 19  2  0  0  0
 18 21  2  0  0  0
 31 32  1  0  0  0
 17 13  1  0  0  0
 19 21  1  0  0  0
 26 27  1  0  0  0
M  END
> <minimizedAffinity>
-12.05547

$$$$
5VB6_927_A_602


 38 41  0  0  0  0  0  0  0  0999 V2000
   -6.5568   26.3462   12.1980 C   0  0  0  0  0  0  0  0  0  0  0  0
   -5.2270   26.1729   11.9794 N   0  0  0  0  0  0  0  0  0  0  0  0
   -7.3105   26.4420   11.2523 O   0  0  0  0  0  0  0  0  0  0  0  0
   -7.0867   26.1438   13.4242 N   0  0  0  0  0  0  0  0  0  0  0  0
   -6.3814   26.6262   14.6107 C   0  0  0  0  0  0  0  0  0  0  0  0
   -8.4378   24.0959   13.6819 C   0  0  0  0  0  0  0  0  0  0  0  0
   -9.8820   23.5920   13.7037 C   0  0  0  0  0  0  0  0  0  0  0  0
  -10.6163   24.1582   14.9194 C   0  0  0  0  0  0  0  0  0  0  0  0
  -10.5878   25.6896   14.8710 C   0  0  0  0  0  0  0  0  0  0  0  0
   -9.1445   26.1977   14.7973 C   0  0  0  0  0  0  0  0  0  0  0  0
   -8.4563   25.6190   13.5579 C   0  0  0  0  0  0  0  0  0  0  0  0
  -12.3762   22.4345   14.3765 C   0  0  0  0  0  0  0  0  0  0  0  0
  -14.6304   22.7664   14.9354 N   0  0  0  0  0  0  0  0  0  0  0  0
  -14.3558   23.9407   15.4658 C   0  0  0  0  0  0  0  0  0  0  0  0
  -12.0437   23.6647   14.9237 C   0  0  0  0  0  0  0  0  0  0  0  0
  -13.0617   24.4272   15.4783 C   0  0  0  0  0  0  0  0  0  0  0  0
  -13.6915   22.0149   14.4010 C   0  0  0  0  0  0  0  0  0  0  0  0
   -5.0941   23.9559   12.9277 C   0  0  0  0  0  0  0  0  0  0  0  0
   -3.1225   23.2481   14.0586 C   0  0  0  0  0  0  0  0  0  0  0  0
   -2.5300   24.4828   13.8284 C   0  0  0  0  0  0  0  0  0  0  0  0
   -4.3986   22.9867   13.6147 C   0  0  0  0  0  0  0  0  0  0  0  0
   -3.2246   25.4608   13.1309 C   0  0  0  0  0  0  0  0  0  0  0  0
   -4.5174   25.1984   12.6915 C   0  0  0  0  0  0  0  0  0  0  0  0
    0.0567   24.3093   12.4508 O   0  0  0  0  0  0  0  0  0  0  0  0
   -0.0493   24.5473   13.6396 C   0  0  0  0  0  0  0  0  0  0  0  0
   -1.2255   24.6552   14.3035 N   0  0  0  0  0  0  0  0  0  0  0  0
   -1.1515   24.8884   15.2571 H   0  0  0  0  0  0  0  0  0  0  0  0
    1.1295   24.8057   14.4881 C   0  0  0  0  0  0  0  0  0  0  0  0
    2.1254   23.8403   14.6289 C   0  0  0  0  0  0  0  0  0  0  0  0
    3.2340   24.1145   15.4036 C   0  0  0  0  0  0  0  0  0  0  0  0
    3.3563   25.3327   16.0463 C   0  0  0  0  0  0  0  0  0  0  0  0
    2.3710   26.2936   15.9035 C   0  0  0  0  0  0  0  0  0  0  0  0
    1.2617   26.0395   15.1244 C   0  0  0  0  0  0  0  0  0  0  0  0
   -4.6753   26.4981   10.6602 C   0  0  0  0  0  0  0  0  0  0  0  0
   -2.3098   27.0805   10.3455 C   0  0  0  0  0  0  0  0  0  0  0  0
   -2.1251   25.8116    9.5569 C   0  0  0  0  0  0  0  0  0  0  0  0
   -1.1359   28.0006   10.5529 C   0  0  0  0  0  0  0  0  0  0  0  0
   -3.4780   27.3930   10.8499 C   0  0  0  0  0  0  0  0  0  0  0  0
 10  9  1  0  0  0
 10 11  1  0  0  0
  3  1  2  0  0  0
 34  2  1  0  0  0
 34 38  1  0  0  0
  5  4  1  0  0  0
  1  2  1  0  0  0
  1  4  1  0  0  0
  9  8  1  0  0  0
 24 25  2  0  0  0
  2 23  1  0  0  0
  4 11  1  0  0  0
 11  6  1  0  0  0
 38 35  2  0  0  0
 22 23  2  0  0  0
 22 20  1  0  0  0
  8 15  1  0  0  0
  8  7  1  0  0  0
 25 28  1  0  0  0
 25 26  1  0  0  0
 23 18  1  0  0  0
 36 35  1  0  0  0
 29 28  2  0  0  0
 29 30  1  0  0  0
 35 37  1  0  0  0
 28 33  1  0  0  0
 15 16  2  0  0  0
 15 12  1  0  0  0
 16 14  1  0  0  0
  6  7  1  0  0  0
 30 31  2  0  0  0
 12 17  2  0  0  0
 14 13  2  0  0  0
 33 32  2  0  0  0
 20 26  1  0  0  0
 20 19  2  0  0  0
 18 21  2  0  0  0
 31 32  1  0  0  0
 17 13  1  0  0  0
 19 21  1  0  0  0
 26 27  1  0  0  0
M  END
> <minimizedAffinity>
-9.54813

$$$$
