3GCP_SB2_A_361
  RCSB PDB12061708433D
Coordinates from PDB:3GCP:A:361 Model:1 without hydrogens
 27 30  0  0  0  0            999 V2000
   19.3390    4.0460  -13.4130   O 0  0  0  0  0  0  0  0  0  0  0  0
   20.2060    1.9050  -12.0000   C 0  0  0  0  0  0  0  0  0  0  0  0
   20.5580    3.2320  -13.1370   S 0  0  0  0  0  0  0  0  0  0  0  0
   21.4260    2.7990  -17.0840   C 0  0  0  0  0  0  0  0  0  0  0  0
   21.0220    3.3170  -15.8530   C 0  0  0  0  0  0  0  0  0  0  0  0
   21.0720    2.5350  -14.7110   C 0  0  0  0  0  0  0  0  0  0  0  0
   21.5290    1.2260  -14.8150   C 0  0  0  0  0  0  0  0  0  0  0  0
   21.9370    0.7070  -16.0390   C 0  0  0  0  0  0  0  0  0  0  0  0
   21.9050    1.4960  -17.1810   C 0  0  0  0  0  0  0  0  0  0  0  0
   22.4740    1.5140  -24.6930   N 0  0  0  0  0  0  0  0  0  0  0  0
   22.4030    0.2610  -24.2660   C 0  0  0  0  0  0  0  0  0  0  0  0
   22.4440   -0.0750  -22.9160   C 0  0  0  0  0  0  0  0  0  0  0  0
   22.5770    0.9370  -21.9590   C 0  0  0  0  0  0  0  0  0  0  0  0
   22.6180    2.2640  -22.4340   C 0  0  0  0  0  0  0  0  0  0  0  0
   22.5780    2.5160  -23.8210   C 0  0  0  0  0  0  0  0  0  0  0  0
   22.1540    1.5120  -19.6180   N 0  0  0  0  0  0  0  0  0  0  0  0
   22.2950    0.9530  -18.4150   C 0  0  0  0  0  0  0  0  0  0  0  0
   22.8190   -0.2610  -18.5790   N 0  0  0  0  0  0  0  0  0  0  0  0
   23.0190   -0.4900  -19.8700   C 0  0  0  0  0  0  0  0  0  0  0  0
   22.5990    0.6720  -20.5620   C 0  0  0  0  0  0  0  0  0  0  0  0
   23.0390   -2.9120  -19.8660   C 0  0  0  0  0  0  0  0  0  0  0  0
   23.6090   -4.1200  -20.2720   C 0  0  0  0  0  0  0  0  0  0  0  0
   24.7380   -4.1050  -21.1080   C 0  0  0  0  0  0  0  0  0  0  0  0
   25.2770   -2.8960  -21.5390   C 0  0  0  0  0  0  0  0  0  0  0  0
   24.7130   -1.6920  -21.1400   C 0  0  0  0  0  0  0  0  0  0  0  0
   23.5770   -1.6900  -20.3240   C 0  0  0  0  0  0  0  0  0  0  0  0
   25.3210   -5.2670  -21.5230   F 0  0  0  0  0  0  0  0  0  0  0  0
  1  3  2  0  0  0  0
  2  3  1  0  0  0  0
  3  6  1  0  0  0  0
  4  5  2  0  0  0  0
  4  9  1  0  0  0  0
  5  6  1  0  0  0  0
  6  7  2  0  0  0  0
  7  8  1  0  0  0  0
  8  9  2  0  0  0  0
  9 17  1  0  0  0  0
 10 11  2  0  0  0  0
 10 15  1  0  0  0  0
 11 12  1  0  0  0  0
 12 13  2  0  0  0  0
 13 14  1  0  0  0  0
 13 20  1  0  0  0  0
 14 15  2  0  0  0  0
 16 17  1  0  0  0  0
 16 20  1  0  0  0  0
 17 18  2  0  0  0  0
 18 19  1  0  0  0  0
 19 20  2  0  0  0  0
 19 26  1  0  0  0  0
 21 22  2  0  0  0  0
 21 26  1  0  0  0  0
 22 23  1  0  0  0  0
 23 24  2  0  0  0  0
 23 27  1  0  0  0  0
 24 25  1  0  0  0  0
 25 26  2  0  0  0  0
A    1
O2
A    2
C1
A    3
S1
A    4
CA1
A    5
CA2
A    6
CA3
A    7
CA4
A    8
CA5
A    9
CA6
A   10
NB1
A   11
CB2
A   12
CB3
A   13
CB4
A   14
CB5
A   15
CB6
A   16
NC1
A   17
CC2
A   18
NC3
A   19
CC4
A   20
CC5
A   21
CD1
A   22
CD2
A   23
CD3
A   24
CD4
A   25
CD5
A   26
CD6
A   27
FD3
M  END
>  <InstanceId>
3GCP_SB2_A_361

>  <ChemCompId>
SB2

>  <PdbId>
3GCP

>  <ChainId>
A

>  <ResidueNumber>
361

>  <InsertionCode>


>  <Model>
1

>  <AltIds>


>  <MissingHeavyAtoms>
0

>  <ObservedFormula>
C21 N3 O S F

>  <Name>
4-[5-(4-FLUORO-PHENYL)-2-(4-METHANESULFINYL-PHENYL)-3H-IMIDAZOL-4-YL]-PYRIDINE

>  <SystematicName>
4-[5-(4-fluorophenyl)-2-[4-[(S)-methylsulfinyl]phenyl]-3H-imidazol-4-yl]pyridine

>  <Synonyms>


>  <Type>
NON-POLYMER

>  <Formula>
C21 H16 F N3 O S

>  <MolecularWeight>
377.435

>  <ModifiedDate>
2012-01-05

>  <Parent>


>  <OneLetterCode>


>  <SubcomponentList>


>  <AmbiguousFlag>
N

>  <InChI>
InChI=1S/C21H16FN3OS/c1-27(26)18-8-4-16(5-9-18)21-24-19(14-2-6-17(22)7-3-14)20(25-21)15-10-12-23-13-11-15/h2-13H,1H3,(H,24,25)/t27-/m0/s1

>  <InChIKey>
CDMGBJANTYXAIV-MHZLTWQESA-N

>  <SMILES>
C[S@](=O)c1ccc(cc1)c2[nH]c(c(n2)c3ccc(cc3)F)c4ccncc4

$$$$
