5CT2_CXS_A_301


 16 16  0  0  0  0  0  0  0  0999 V2000
   16.3131   16.5449   33.0864 C   0  0  0  0  0  0  0  0  0  0  0  0
   15.7649   16.8648   31.7574 N   0  0  0  0  0  0  0  0  0  0  0  0
   16.3928   16.4739   31.0551 H   0  0  0  0  0  0  0  0  0  0  0  0
   14.4167   16.3518   31.4953 C   0  0  0  0  0  0  0  0  0  0  0  0
   14.5150   15.4658   30.2344 C   0  0  0  0  0  0  0  0  0  0  0  0
   13.1727   15.1144   29.6085 C   0  0  0  0  0  0  0  0  0  0  0  0
   12.2965   16.3456   29.3726 C   0  0  0  0  0  0  0  0  0  0  0  0
   12.0920   17.1082   30.6823 C   0  0  0  0  0  0  0  0  0  0  0  0
   13.4365   17.5412   31.2772 C   0  0  0  0  0  0  0  0  0  0  0  0
   17.8231   16.4278   32.9463 C   0  0  0  0  0  0  0  0  0  0  0  0
   18.2869   14.9815   33.1210 C   0  0  0  0  0  0  0  0  0  0  0  0
   18.2998   14.0902   31.5222 S   0  0  0  0  0  0  0  0  0  0  0  0
   17.2702   13.0100   31.6011 O   0  0  0  0  0  0  0  0  0  0  0  0
   19.6745   13.5146   31.3735 O   0  0  0  0  0  0  0  0  0  0  0  0
   17.9945   15.0131   30.4606 O   0  0  0  0  0  0  0  0  0  0  0  0
   18.0006   14.5432   29.6120 H   0  0  0  0  0  0  0  0  0  0  0  0
 12 13  2  0  0  0
 12 14  2  0  0  0
 12 15  1  0  0  0
 12 11  1  0  0  0
 11 10  1  0  0  0
 10  1  1  0  0  0
  1  2  1  0  0  0
  2  4  1  0  0  0
  4  5  1  0  0  0
  4  9  1  0  0  0
  5  6  1  0  0  0
  6  7  1  0  0  0
  7  8  1  0  0  0
  8  9  1  0  0  0
 15 16  1  0  0  0
  2  3  1  0  0  0
M  END
> <minimizedAffinity>
-5.30989

$$$$
5CT2_CXS_A_301


 16 16  0  0  0  0  0  0  0  0999 V2000
   16.3881   16.6770   32.2066 C   0  0  0  0  0  0  0  0  0  0  0  0
   15.1497   17.4160   31.9078 N   0  0  0  0  0  0  0  0  0  0  0  0
   15.3450   18.0617   31.1427 H   0  0  0  0  0  0  0  0  0  0  0  0
   14.0035   16.5880   31.5202 C   0  0  0  0  0  0  0  0  0  0  0  0
   14.4731   15.6981   30.3489 C   0  0  0  0  0  0  0  0  0  0  0  0
   13.3452   15.0132   29.5902 C   0  0  0  0  0  0  0  0  0  0  0  0
   12.2509   15.9911   29.1594 C   0  0  0  0  0  0  0  0  0  0  0  0
   11.7006   16.7382   30.3750 C   0  0  0  0  0  0  0  0  0  0  0  0
   12.8162   17.5016   31.0974 C   0  0  0  0  0  0  0  0  0  0  0  0
   17.2462   17.5578   33.1017 C   0  0  0  0  0  0  0  0  0  0  0  0
   18.6848   17.0449   33.1716 C   0  0  0  0  0  0  0  0  0  0  0  0
   19.4204   17.3517   34.8195 S   0  0  0  0  0  0  0  0  0  0  0  0
   20.7415   18.0165   34.6056 O   0  0  0  0  0  0  0  0  0  0  0  0
   19.5902   16.0087   35.4601 O   0  0  0  0  0  0  0  0  0  0  0  0
   18.5396   18.1955   35.5839 O   0  0  0  0  0  0  0  0  0  0  0  0
   18.9271   18.3597   36.4579 H   0  0  0  0  0  0  0  0  0  0  0  0
 12 13  2  0  0  0
 12 14  2  0  0  0
 12 15  1  0  0  0
 12 11  1  0  0  0
 11 10  1  0  0  0
 10  1  1  0  0  0
  1  2  1  0  0  0
  2  4  1  0  0  0
  4  5  1  0  0  0
  4  9  1  0  0  0
  5  6  1  0  0  0
  6  7  1  0  0  0
  7  8  1  0  0  0
  8  9  1  0  0  0
 15 16  1  0  0  0
  2  3  1  0  0  0
M  END
> <minimizedAffinity>
-5.24129

$$$$
5CT2_CXS_A_301


 16 16  0  0  0  0  0  0  0  0999 V2000
   15.5464   17.5045   32.2989 C   0  0  0  0  0  0  0  0  0  0  0  0
   16.4079   16.3853   31.8815 N   0  0  0  0  0  0  0  0  0  0  0  0
   16.3860   16.3337   30.8630 H   0  0  0  0  0  0  0  0  0  0  0  0
   17.8097   16.4834   32.2998 C   0  0  0  0  0  0  0  0  0  0  0  0
   18.2090   15.0959   32.8473 C   0  0  0  0  0  0  0  0  0  0  0  0
   19.5114   15.0834   33.6349 C   0  0  0  0  0  0  0  0  0  0  0  0
   19.5477   16.1573   34.7234 C   0  0  0  0  0  0  0  0  0  0  0  0
   19.3060   17.5382   34.1124 C   0  0  0  0  0  0  0  0  0  0  0  0
   17.9558   17.5860   33.3888 C   0  0  0  0  0  0  0  0  0  0  0  0
   14.2547   17.4146   31.5008 C   0  0  0  0  0  0  0  0  0  0  0  0
   13.5884   16.0494   31.6740 C   0  0  0  0  0  0  0  0  0  0  0  0
   13.5366   15.1299   30.0921 S   0  0  0  0  0  0  0  0  0  0  0  0
   12.3737   15.6473   29.3090 O   0  0  0  0  0  0  0  0  0  0  0  0
   13.3464   13.6882   30.4505 O   0  0  0  0  0  0  0  0  0  0  0  0
   14.7692   15.3401   29.3790 O   0  0  0  0  0  0  0  0  0  0  0  0
   14.7444   14.8538   28.5401 H   0  0  0  0  0  0  0  0  0  0  0  0
 12 13  2  0  0  0
 12 14  2  0  0  0
 12 15  1  0  0  0
 12 11  1  0  0  0
 11 10  1  0  0  0
 10  1  1  0  0  0
  1  2  1  0  0  0
  2  4  1  0  0  0
  4  5  1  0  0  0
  4  9  1  0  0  0
  5  6  1  0  0  0
  6  7  1  0  0  0
  7  8  1  0  0  0
  8  9  1  0  0  0
 15 16  1  0  0  0
  2  3  1  0  0  0
M  END
> <minimizedAffinity>
-5.19851

$$$$
5CT2_CXS_A_301


 16 16  0  0  0  0  0  0  0  0999 V2000
   16.4809   15.7518   32.4289 C   0  0  0  0  0  0  0  0  0  0  0  0
   16.1906   15.3905   31.0310 N   0  0  0  0  0  0  0  0  0  0  0  0
   16.2387   14.3747   30.9516 H   0  0  0  0  0  0  0  0  0  0  0  0
   14.8819   15.8223   30.5306 C   0  0  0  0  0  0  0  0  0  0  0  0
   14.4966   17.0882   31.3266 C   0  0  0  0  0  0  0  0  0  0  0  0
   13.0353   17.4925   31.1929 C   0  0  0  0  0  0  0  0  0  0  0  0
   12.0787   16.3319   31.4707 C   0  0  0  0  0  0  0  0  0  0  0  0
   12.3938   15.1541   30.5475 C   0  0  0  0  0  0  0  0  0  0  0  0
   13.8403   14.6841   30.7368 C   0  0  0  0  0  0  0  0  0  0  0  0
   17.8849   16.3353   32.4724 C   0  0  0  0  0  0  0  0  0  0  0  0
   17.9466   17.5679   33.3747 C   0  0  0  0  0  0  0  0  0  0  0  0
   19.1381   17.3301   34.7439 S   0  0  0  0  0  0  0  0  0  0  0  0
   19.3446   15.8595   34.9101 O   0  0  0  0  0  0  0  0  0  0  0  0
   18.5024   17.9262   35.9619 O   0  0  0  0  0  0  0  0  0  0  0  0
   20.3760   17.9880   34.4169 O   0  0  0  0  0  0  0  0  0  0  0  0
   21.0094   17.8636   35.1409 H   0  0  0  0  0  0  0  0  0  0  0  0
 12 13  2  0  0  0
 12 14  2  0  0  0
 12 15  1  0  0  0
 12 11  1  0  0  0
 11 10  1  0  0  0
 10  1  1  0  0  0
  1  2  1  0  0  0
  2  4  1  0  0  0
  4  5  1  0  0  0
  4  9  1  0  0  0
  5  6  1  0  0  0
  6  7  1  0  0  0
  7  8  1  0  0  0
  8  9  1  0  0  0
 15 16  1  0  0  0
  2  3  1  0  0  0
M  END
> <minimizedAffinity>
-4.87958

$$$$
5CT2_CXS_A_301


 16 16  0  0  0  0  0  0  0  0999 V2000
   14.2216   14.5946   33.2581 C   0  0  0  0  0  0  0  0  0  0  0  0
   14.8255   15.9002   32.9422 N   0  0  0  0  0  0  0  0  0  0  0  0
   14.4074   16.5979   33.5576 H   0  0  0  0  0  0  0  0  0  0  0  0
   16.2814   15.9721   33.0994 C   0  0  0  0  0  0  0  0  0  0  0  0
   16.5965   15.5174   34.5411 C   0  0  0  0  0  0  0  0  0  0  0  0
   18.0099   15.8389   35.0054 C   0  0  0  0  0  0  0  0  0  0  0  0
   18.3824   17.3045   34.7762 C   0  0  0  0  0  0  0  0  0  0  0  0
   18.2083   17.6701   33.3016 C   0  0  0  0  0  0  0  0  0  0  0  0
   16.7646   17.4300   32.8465 C   0  0  0  0  0  0  0  0  0  0  0  0
   14.3158   13.7291   32.0110 C   0  0  0  0  0  0  0  0  0  0  0  0
   13.2021   14.0623   31.0179 C   0  0  0  0  0  0  0  0  0  0  0  0
   13.7041   15.4084   29.8836 S   0  0  0  0  0  0  0  0  0  0  0  0
   13.1596   16.6867   30.4338 O   0  0  0  0  0  0  0  0  0  0  0  0
   13.0905   15.0888   28.5553 O   0  0  0  0  0  0  0  0  0  0  0  0
   15.1407   15.4542   29.8060 O   0  0  0  0  0  0  0  0  0  0  0  0
   15.4095   16.1669   29.2054 H   0  0  0  0  0  0  0  0  0  0  0  0
 12 13  2  0  0  0
 12 14  2  0  0  0
 12 15  1  0  0  0
 12 11  1  0  0  0
 11 10  1  0  0  0
 10  1  1  0  0  0
  1  2  1  0  0  0
  2  4  1  0  0  0
  4  5  1  0  0  0
  4  9  1  0  0  0
  5  6  1  0  0  0
  6  7  1  0  0  0
  7  8  1  0  0  0
  8  9  1  0  0  0
 15 16  1  0  0  0
  2  3  1  0  0  0
M  END
> <minimizedAffinity>
-4.83451

$$$$
5CT2_CXS_A_301


 16 16  0  0  0  0  0  0  0  0999 V2000
   18.1856   15.1629   34.2581 C   0  0  0  0  0  0  0  0  0  0  0  0
   18.6709   15.4735   32.9027 N   0  0  0  0  0  0  0  0  0  0  0  0
   18.9647   14.6001   32.4654 H   0  0  0  0  0  0  0  0  0  0  0  0
   17.6936   16.1162   32.0187 C   0  0  0  0  0  0  0  0  0  0  0  0
   16.9073   17.1254   32.8834 C   0  0  0  0  0  0  0  0  0  0  0  0
   15.6329   17.6475   32.2354 C   0  0  0  0  0  0  0  0  0  0  0  0
   14.7364   16.5221   31.7165 C   0  0  0  0  0  0  0  0  0  0  0  0
   15.5102   15.6381   30.7376 C   0  0  0  0  0  0  0  0  0  0  0  0
   16.7513   15.0384   31.4076 C   0  0  0  0  0  0  0  0  0  0  0  0
   19.2720   15.5704   35.2415 C   0  0  0  0  0  0  0  0  0  0  0  0
   20.6556   15.5215   34.5928 C   0  0  0  0  0  0  0  0  0  0  0  0
   21.6364   17.0106   35.0065 S   0  0  0  0  0  0  0  0  0  0  0  0
   22.9915   16.8393   34.4001 O   0  0  0  0  0  0  0  0  0  0  0  0
   21.7170   17.0584   36.5012 O   0  0  0  0  0  0  0  0  0  0  0  0
   20.9799   18.1757   34.4741 O   0  0  0  0  0  0  0  0  0  0  0  0
   21.4977   18.9665   34.6919 H   0  0  0  0  0  0  0  0  0  0  0  0
 12 13  2  0  0  0
 12 14  2  0  0  0
 12 15  1  0  0  0
 12 11  1  0  0  0
 11 10  1  0  0  0
 10  1  1  0  0  0
  1  2  1  0  0  0
  2  4  1  0  0  0
  4  5  1  0  0  0
  4  9  1  0  0  0
  5  6  1  0  0  0
  6  7  1  0  0  0
  7  8  1  0  0  0
  8  9  1  0  0  0
 15 16  1  0  0  0
  2  3  1  0  0  0
M  END
> <minimizedAffinity>
-4.74791

$$$$
5CT2_CXS_A_301


 16 16  0  0  0  0  0  0  0  0999 V2000
   15.5726   15.1698   31.5685 C   0  0  0  0  0  0  0  0  0  0  0  0
   16.8904   15.8258   31.6176 N   0  0  0  0  0  0  0  0  0  0  0  0
   16.7969   16.7520   31.2007 H   0  0  0  0  0  0  0  0  0  0  0  0
   17.4603   15.9882   32.9587 C   0  0  0  0  0  0  0  0  0  0  0  0
   17.5372   17.5066   33.2287 C   0  0  0  0  0  0  0  0  0  0  0  0
   18.4037   17.8886   34.4204 C   0  0  0  0  0  0  0  0  0  0  0  0
   19.7919   17.2491   34.3639 C   0  0  0  0  0  0  0  0  0  0  0  0
   19.6699   15.7284   34.2577 C   0  0  0  0  0  0  0  0  0  0  0  0
   18.8703   15.3308   33.0121 C   0  0  0  0  0  0  0  0  0  0  0  0
   14.6879   15.9816   30.6350 C   0  0  0  0  0  0  0  0  0  0  0  0
   14.0289   17.1493   31.3697 C   0  0  0  0  0  0  0  0  0  0  0  0
   12.2451   17.2613   30.9744 S   0  0  0  0  0  0  0  0  0  0  0  0
   11.8474   18.6968   31.0932 O   0  0  0  0  0  0  0  0  0  0  0  0
   11.5363   16.4198   31.9906 O   0  0  0  0  0  0  0  0  0  0  0  0
   12.0227   16.7765   29.6374 O   0  0  0  0  0  0  0  0  0  0  0  0
   11.0780   16.8347   29.4253 H   0  0  0  0  0  0  0  0  0  0  0  0
 12 13  2  0  0  0
 12 14  2  0  0  0
 12 15  1  0  0  0
 12 11  1  0  0  0
 11 10  1  0  0  0
 10  1  1  0  0  0
  1  2  1  0  0  0
  2  4  1  0  0  0
  4  5  1  0  0  0
  4  9  1  0  0  0
  5  6  1  0  0  0
  6  7  1  0  0  0
  7  8  1  0  0  0
  8  9  1  0  0  0
 15 16  1  0  0  0
  2  3  1  0  0  0
M  END
> <minimizedAffinity>
-4.74026

$$$$
5CT2_CXS_A_301


 16 16  0  0  0  0  0  0  0  0999 V2000
   17.1627   14.7245   34.1198 C   0  0  0  0  0  0  0  0  0  0  0  0
   16.3250   15.8899   33.7895 N   0  0  0  0  0  0  0  0  0  0  0  0
   16.9436   16.6729   33.5783 H   0  0  0  0  0  0  0  0  0  0  0  0
   15.4193   15.7085   32.6508 C   0  0  0  0  0  0  0  0  0  0  0  0
   15.1123   17.1171   32.0975 C   0  0  0  0  0  0  0  0  0  0  0  0
   13.9357   17.1694   31.1333 C   0  0  0  0  0  0  0  0  0  0  0  0
   12.6850   16.4944   31.6984 C   0  0  0  0  0  0  0  0  0  0  0  0
   12.9941   15.0478   32.0861 C   0  0  0  0  0  0  0  0  0  0  0  0
   14.1218   14.9895   33.1224 C   0  0  0  0  0  0  0  0  0  0  0  0
   18.5567   14.9885   33.5719 C   0  0  0  0  0  0  0  0  0  0  0  0
   19.4514   15.6464   34.6227 C   0  0  0  0  0  0  0  0  0  0  0  0
   19.3515   17.4719   34.5317 S   0  0  0  0  0  0  0  0  0  0  0  0
   20.7494   17.9999   34.5423 O   0  0  0  0  0  0  0  0  0  0  0  0
   18.5996   17.9124   35.7498 O   0  0  0  0  0  0  0  0  0  0  0  0
   18.6692   17.8513   33.3223 O   0  0  0  0  0  0  0  0  0  0  0  0
   18.6149   18.8184   33.2715 H   0  0  0  0  0  0  0  0  0  0  0  0
 12 13  2  0  0  0
 12 14  2  0  0  0
 12 15  1  0  0  0
 12 11  1  0  0  0
 11 10  1  0  0  0
 10  1  1  0  0  0
  1  2  1  0  0  0
  2  4  1  0  0  0
  4  5  1  0  0  0
  4  9  1  0  0  0
  5  6  1  0  0  0
  6  7  1  0  0  0
  7  8  1  0  0  0
  8  9  1  0  0  0
 15 16  1  0  0  0
  2  3  1  0  0  0
M  END
> <minimizedAffinity>
-4.63175

$$$$
5CT2_CXS_A_301


 16 16  0  0  0  0  0  0  0  0999 V2000
   14.5359   13.2855   32.2576 C   0  0  0  0  0  0  0  0  0  0  0  0
   15.4983   14.2734   31.7410 N   0  0  0  0  0  0  0  0  0  0  0  0
   15.0313   14.8191   31.0166 H   0  0  0  0  0  0  0  0  0  0  0  0
   16.0340   15.2069   32.7365 C   0  0  0  0  0  0  0  0  0  0  0  0
   15.8875   16.6244   32.1418 C   0  0  0  0  0  0  0  0  0  0  0  0
   16.6850   17.6962   32.8713 C   0  0  0  0  0  0  0  0  0  0  0  0
   18.1519   17.3070   33.0611 C   0  0  0  0  0  0  0  0  0  0  0  0
   18.2535   15.9709   33.7982 C   0  0  0  0  0  0  0  0  0  0  0  0
   17.5247   14.8652   33.0267 C   0  0  0  0  0  0  0  0  0  0  0  0
   13.2891   13.3586   31.3896 C   0  0  0  0  0  0  0  0  0  0  0  0
   12.6479   14.7451   31.4538 C   0  0  0  0  0  0  0  0  0  0  0  0
   12.7419   15.5961   29.8358 S   0  0  0  0  0  0  0  0  0  0  0  0
   14.1649   15.5444   29.3824 O   0  0  0  0  0  0  0  0  0  0  0  0
   12.3044   17.0079   30.0780 O   0  0  0  0  0  0  0  0  0  0  0  0
   11.8797   14.9283   28.8963 O   0  0  0  0  0  0  0  0  0  0  0  0
   11.9276   15.3774   28.0378 H   0  0  0  0  0  0  0  0  0  0  0  0
 12 13  2  0  0  0
 12 14  2  0  0  0
 12 15  1  0  0  0
 12 11  1  0  0  0
 11 10  1  0  0  0
 10  1  1  0  0  0
  1  2  1  0  0  0
  2  4  1  0  0  0
  4  5  1  0  0  0
  4  9  1  0  0  0
  5  6  1  0  0  0
  6  7  1  0  0  0
  7  8  1  0  0  0
  8  9  1  0  0  0
 15 16  1  0  0  0
  2  3  1  0  0  0
M  END
> <minimizedAffinity>
-4.59502

$$$$
5CT2_CXS_A_301


 16 16  0  0  0  0  0  0  0  0999 V2000
   13.8700   17.0880   31.0453 C   0  0  0  0  0  0  0  0  0  0  0  0
   14.0714   15.9832   31.9981 N   0  0  0  0  0  0  0  0  0  0  0  0
   14.1543   15.1180   31.4643 H   0  0  0  0  0  0  0  0  0  0  0  0
   15.2553   16.1019   32.8548 C   0  0  0  0  0  0  0  0  0  0  0  0
   15.9308   17.4437   32.4971 C   0  0  0  0  0  0  0  0  0  0  0  0
   17.3475   17.5950   33.0326 C   0  0  0  0  0  0  0  0  0  0  0  0
   18.2358   16.3995   32.6846 C   0  0  0  0  0  0  0  0  0  0  0  0
   17.6056   15.1047   33.1992 C   0  0  0  0  0  0  0  0  0  0  0  0
   16.2107   14.9001   32.5980 C   0  0  0  0  0  0  0  0  0  0  0  0
   12.3729   17.2386   30.8234 C   0  0  0  0  0  0  0  0  0  0  0  0
   11.8591   16.2295   29.7961 C   0  0  0  0  0  0  0  0  0  0  0  0
   10.9091   14.8875   30.6005 S   0  0  0  0  0  0  0  0  0  0  0  0
    9.4683   15.0895   30.2594 O   0  0  0  0  0  0  0  0  0  0  0  0
   11.1401   15.0339   32.0730 O   0  0  0  0  0  0  0  0  0  0  0  0
   11.3776   13.6159   30.1149 O   0  0  0  0  0  0  0  0  0  0  0  0
   10.8757   12.9028   30.5396 H   0  0  0  0  0  0  0  0  0  0  0  0
 12 13  2  0  0  0
 12 14  2  0  0  0
 12 15  1  0  0  0
 12 11  1  0  0  0
 11 10  1  0  0  0
 10  1  1  0  0  0
  1  2  1  0  0  0
  2  4  1  0  0  0
  4  5  1  0  0  0
  4  9  1  0  0  0
  5  6  1  0  0  0
  6  7  1  0  0  0
  7  8  1  0  0  0
  8  9  1  0  0  0
 15 16  1  0  0  0
  2  3  1  0  0  0
M  END
> <minimizedAffinity>
-4.59380

$$$$
