5U12_5RU_A_301


 24 26  0  0  0  0  0  0  0  0999 V2000
   -3.5452   -6.1325   69.0036 C   0  0  0  0  0  0  0  0  0  0  0  0
   -3.5162   -6.5183   67.6770 C   0  0  0  0  0  0  0  0  0  0  0  0
   -3.6254   -4.7860   69.3017 C   0  0  0  0  0  0  0  0  0  0  0  0
   -3.6365   -4.3382   67.0161 C   0  0  0  0  0  0  0  0  0  0  0  0
   -3.4136   -8.3159   68.8098 C   0  0  0  0  0  0  0  0  0  0  0  0
   -3.5625   -5.6352   66.6576 N   0  0  0  0  0  0  0  0  0  0  0  0
   -3.4389   -7.8844   67.5661 N   0  0  0  0  0  0  0  0  0  0  0  0
   -3.6738   -3.8945   68.2986 N   0  0  0  0  0  0  0  0  0  0  0  0
   -3.4751   -7.3033   69.7257 N   0  0  0  0  0  0  0  0  0  0  0  0
   -3.6688   -3.3666   65.9770 N   0  0  0  0  0  0  0  0  0  0  0  0
   -3.6449   -4.2877   70.5823 O   0  0  0  0  0  0  0  0  0  0  0  0
   -3.4090   -8.4212   66.7413 H   0  0  0  0  0  0  0  0  0  0  0  0
   -3.7354   -2.9309   68.4909 H   0  0  0  0  0  0  0  0  0  0  0  0
   -3.6433   -3.6521   65.0352 H   0  0  0  0  0  0  0  0  0  0  0  0
   -3.7166   -2.4089   66.2000 H   0  0  0  0  0  0  0  0  0  0  0  0
   -3.3498   -9.9823   69.3276 S   0  0  0  0  0  0  0  0  0  0  0  0
   -1.6203  -10.4340   69.4003 C   0  0  0  0  0  0  0  0  0  0  0  0
    0.7375   -9.4023   72.1458 C   0  0  0  0  0  0  0  0  0  0  0  0
    0.4365  -10.3584   73.0948 C   0  0  0  0  0  0  0  0  0  0  0  0
    0.0749   -9.4103   70.9354 C   0  0  0  0  0  0  0  0  0  0  0  0
   -0.5204  -11.3238   72.8378 C   0  0  0  0  0  0  0  0  0  0  0  0
   -0.8743  -10.3794   70.6747 C   0  0  0  0  0  0  0  0  0  0  0  0
   -1.1774  -11.3356   71.6283 C   0  0  0  0  0  0  0  0  0  0  0  0
   -2.1112  -12.2922   71.4004 F   0  0  0  0  0  0  0  0  0  0  0  0
 10  4  1  0  0  0
  6  4  2  0  0  0
  6  2  1  0  0  0
  4  8  1  0  0  0
  2  7  1  0  0  0
  2  1  2  0  0  0
  7  5  1  0  0  0
  8  3  1  0  0  0
  1  3  1  0  0  0
  1  9  1  0  0  0
  3 11  2  0  0  0
  5  9  2  0  0  0
  5 16  1  0  0  0
 16 17  1  0  0  0
 19 18  2  0  0  0
 19 21  1  0  0  0
 18 20  1  0  0  0
 21 23  2  0  0  0
 20 22  2  0  0  0
 23 22  1  0  0  0
 23 24  1  0  0  0
 22 17  1  0  0  0
  7 12  1  0  0  0
  8 13  1  0  0  0
 10 14  1  0  0  0
 10 15  1  0  0  0
M  END
> <minimizedAffinity>
-8.02617

$$$$
5U12_5RU_A_301


 24 26  0  0  0  0  0  0  0  0999 V2000
   -4.9361  -12.7296   69.3912 C   0  0  0  0  0  0  0  0  0  0  0  0
   -4.9118  -11.3620   69.1945 C   0  0  0  0  0  0  0  0  0  0  0  0
   -5.2629  -13.5476   68.3270 C   0  0  0  0  0  0  0  0  0  0  0  0
   -5.5088  -11.6421   67.0106 C   0  0  0  0  0  0  0  0  0  0  0  0
   -4.3926  -11.6674   71.2347 C   0  0  0  0  0  0  0  0  0  0  0  0
   -5.1945  -10.7893   68.0057 N   0  0  0  0  0  0  0  0  0  0  0  0
   -4.5665  -10.7073   70.3505 N   0  0  0  0  0  0  0  0  0  0  0  0
   -5.5455  -12.9933   67.1370 N   0  0  0  0  0  0  0  0  0  0  0  0
   -4.6018  -12.9138   70.7146 N   0  0  0  0  0  0  0  0  0  0  0  0
   -5.8334  -11.0857   65.7418 N   0  0  0  0  0  0  0  0  0  0  0  0
   -5.3335  -14.9175   68.4110 O   0  0  0  0  0  0  0  0  0  0  0  0
   -4.4704   -9.7371   70.4877 H   0  0  0  0  0  0  0  0  0  0  0  0
   -5.7764  -13.5598   66.3657 H   0  0  0  0  0  0  0  0  0  0  0  0
   -5.8172  -10.1097   65.6136 H   0  0  0  0  0  0  0  0  0  0  0  0
   -6.0741  -11.6767   64.9922 H   0  0  0  0  0  0  0  0  0  0  0  0
   -3.9089  -11.4671   72.9005 S   0  0  0  0  0  0  0  0  0  0  0  0
   -2.1888  -11.9483   72.9995 C   0  0  0  0  0  0  0  0  0  0  0  0
   -0.1102   -9.6852   70.8271 C   0  0  0  0  0  0  0  0  0  0  0  0
    0.9090   -9.3765   71.7053 C   0  0  0  0  0  0  0  0  0  0  0  0
   -1.1304  -10.5210   71.2327 C   0  0  0  0  0  0  0  0  0  0  0  0
    0.9147   -9.9023   72.9847 C   0  0  0  0  0  0  0  0  0  0  0  0
   -1.1206  -11.0536   72.5073 C   0  0  0  0  0  0  0  0  0  0  0  0
   -0.0997  -10.7407   73.3879 C   0  0  0  0  0  0  0  0  0  0  0  0
   -0.0716  -11.2433   74.6471 F   0  0  0  0  0  0  0  0  0  0  0  0
 10  4  1  0  0  0
  6  4  2  0  0  0
  6  2  1  0  0  0
  4  8  1  0  0  0
  2  7  1  0  0  0
  2  1  2  0  0  0
  7  5  1  0  0  0
  8  3  1  0  0  0
  1  3  1  0  0  0
  1  9  1  0  0  0
  3 11  2  0  0  0
  5  9  2  0  0  0
  5 16  1  0  0  0
 16 17  1  0  0  0
 19 18  2  0  0  0
 19 21  1  0  0  0
 18 20  1  0  0  0
 21 23  2  0  0  0
 20 22  2  0  0  0
 23 22  1  0  0  0
 23 24  1  0  0  0
 22 17  1  0  0  0
  7 12  1  0  0  0
  8 13  1  0  0  0
 10 14  1  0  0  0
 10 15  1  0  0  0
M  END
> <minimizedAffinity>
-7.96953

$$$$
5U12_5RU_A_301


 24 26  0  0  0  0  0  0  0  0999 V2000
   -3.8263   -7.3510   67.4079 C   0  0  0  0  0  0  0  0  0  0  0  0
   -3.5437   -6.4798   68.4426 C   0  0  0  0  0  0  0  0  0  0  0  0
   -4.1647   -6.8290   66.1743 C   0  0  0  0  0  0  0  0  0  0  0  0
   -3.9245   -4.6945   67.0745 C   0  0  0  0  0  0  0  0  0  0  0  0
   -3.3237   -8.4356   69.2498 C   0  0  0  0  0  0  0  0  0  0  0  0
   -3.5844   -5.1384   68.3007 N   0  0  0  0  0  0  0  0  0  0  0  0
   -3.2261   -7.1667   69.5878 N   0  0  0  0  0  0  0  0  0  0  0  0
   -4.2083   -5.4962   66.0164 N   0  0  0  0  0  0  0  0  0  0  0  0
   -3.6836   -8.6119   67.9433 N   0  0  0  0  0  0  0  0  0  0  0  0
   -3.9997   -3.2870   66.8791 N   0  0  0  0  0  0  0  0  0  0  0  0
   -4.4800   -7.5988   65.0804 O   0  0  0  0  0  0  0  0  0  0  0  0
   -2.9804   -6.7941   70.4654 H   0  0  0  0  0  0  0  0  0  0  0  0
   -4.4432   -5.1052   65.1439 H   0  0  0  0  0  0  0  0  0  0  0  0
   -3.8006   -2.6752   67.6243 H   0  0  0  0  0  0  0  0  0  0  0  0
   -4.2509   -2.9250   65.9987 H   0  0  0  0  0  0  0  0  0  0  0  0
   -3.0078   -9.8098   70.2798 S   0  0  0  0  0  0  0  0  0  0  0  0
   -1.2301   -9.9497   70.4224 C   0  0  0  0  0  0  0  0  0  0  0  0
   -0.4328  -11.5395   73.7388 C   0  0  0  0  0  0  0  0  0  0  0  0
    0.6818  -10.8077   74.0958 C   0  0  0  0  0  0  0  0  0  0  0  0
   -1.0683  -11.2748   72.5429 C   0  0  0  0  0  0  0  0  0  0  0  0
    1.1611   -9.8109   73.2651 C   0  0  0  0  0  0  0  0  0  0  0  0
   -0.5955  -10.2734   71.7170 C   0  0  0  0  0  0  0  0  0  0  0  0
    0.5240   -9.5426   72.0748 C   0  0  0  0  0  0  0  0  0  0  0  0
    1.0132   -8.5605   71.2778 F   0  0  0  0  0  0  0  0  0  0  0  0
 10  4  1  0  0  0
  6  4  2  0  0  0
  6  2  1  0  0  0
  4  8  1  0  0  0
  2  7  1  0  0  0
  2  1  2  0  0  0
  7  5  1  0  0  0
  8  3  1  0  0  0
  1  3  1  0  0  0
  1  9  1  0  0  0
  3 11  2  0  0  0
  5  9  2  0  0  0
  5 16  1  0  0  0
 16 17  1  0  0  0
 19 18  2  0  0  0
 19 21  1  0  0  0
 18 20  1  0  0  0
 21 23  2  0  0  0
 20 22  2  0  0  0
 23 22  1  0  0  0
 23 24  1  0  0  0
 22 17  1  0  0  0
  7 12  1  0  0  0
  8 13  1  0  0  0
 10 14  1  0  0  0
 10 15  1  0  0  0
M  END
> <minimizedAffinity>
-7.92844

$$$$
5U12_5RU_A_301


 24 26  0  0  0  0  0  0  0  0999 V2000
   -3.5135   -5.9977   69.0150 C   0  0  0  0  0  0  0  0  0  0  0  0
   -3.5907   -6.2675   67.6619 C   0  0  0  0  0  0  0  0  0  0  0  0
   -3.5417   -4.6809   69.4320 C   0  0  0  0  0  0  0  0  0  0  0  0
   -3.7107   -4.0367   67.2002 C   0  0  0  0  0  0  0  0  0  0  0  0
   -3.4451   -8.1579   68.6266 C   0  0  0  0  0  0  0  0  0  0  0  0
   -3.6921   -5.2988   66.7279 N   0  0  0  0  0  0  0  0  0  0  0  0
   -3.5521   -7.6199   67.4296 N   0  0  0  0  0  0  0  0  0  0  0  0
   -3.6438   -3.7052   68.5149 N   0  0  0  0  0  0  0  0  0  0  0  0
   -3.4166   -7.2276   69.6274 N   0  0  0  0  0  0  0  0  0  0  0  0
   -3.7976   -2.9784   66.2530 N   0  0  0  0  0  0  0  0  0  0  0  0
   -3.4560   -4.2952   70.7482 O   0  0  0  0  0  0  0  0  0  0  0  0
   -3.5948   -8.0836   66.5622 H   0  0  0  0  0  0  0  0  0  0  0  0
   -3.6697   -2.7611   68.7927 H   0  0  0  0  0  0  0  0  0  0  0  0
   -3.8477   -3.1816   65.2910 H   0  0  0  0  0  0  0  0  0  0  0  0
   -3.8076   -2.0429   66.5597 H   0  0  0  0  0  0  0  0  0  0  0  0
   -3.3805   -9.8636   68.9943 S   0  0  0  0  0  0  0  0  0  0  0  0
   -2.1864  -10.0625   70.3114 C   0  0  0  0  0  0  0  0  0  0  0  0
   -4.1698  -11.4119   73.2109 C   0  0  0  0  0  0  0  0  0  0  0  0
   -3.1517  -11.9558   73.9678 C   0  0  0  0  0  0  0  0  0  0  0  0
   -3.8738  -10.7920   72.0142 C   0  0  0  0  0  0  0  0  0  0  0  0
   -1.8398  -11.8796   73.5357 C   0  0  0  0  0  0  0  0  0  0  0  0
   -2.5629  -10.7077   71.5864 C   0  0  0  0  0  0  0  0  0  0  0  0
   -1.5435  -11.2564   72.3448 C   0  0  0  0  0  0  0  0  0  0  0  0
   -0.2497  -11.1947   71.9428 F   0  0  0  0  0  0  0  0  0  0  0  0
 10  4  1  0  0  0
  6  4  2  0  0  0
  6  2  1  0  0  0
  4  8  1  0  0  0
  2  7  1  0  0  0
  2  1  2  0  0  0
  7  5  1  0  0  0
  8  3  1  0  0  0
  1  3  1  0  0  0
  1  9  1  0  0  0
  3 11  2  0  0  0
  5  9  2  0  0  0
  5 16  1  0  0  0
 16 17  1  0  0  0
 19 18  2  0  0  0
 19 21  1  0  0  0
 18 20  1  0  0  0
 21 23  2  0  0  0
 20 22  2  0  0  0
 23 22  1  0  0  0
 23 24  1  0  0  0
 22 17  1  0  0  0
  7 12  1  0  0  0
  8 13  1  0  0  0
 10 14  1  0  0  0
 10 15  1  0  0  0
M  END
> <minimizedAffinity>
-7.75885

$$$$
5U12_5RU_A_301


 24 26  0  0  0  0  0  0  0  0999 V2000
   -3.4540   -7.1219   69.0834 C   0  0  0  0  0  0  0  0  0  0  0  0
   -3.6485   -7.9636   68.0049 C   0  0  0  0  0  0  0  0  0  0  0  0
   -3.5902   -5.7600   68.8957 C   0  0  0  0  0  0  0  0  0  0  0  0
   -4.0803   -6.1747   66.6569 C   0  0  0  0  0  0  0  0  0  0  0  0
   -3.1758   -9.2247   69.6516 C   0  0  0  0  0  0  0  0  0  0  0  0
   -3.9661   -7.5124   66.7734 N   0  0  0  0  0  0  0  0  0  0  0  0
   -3.4774   -9.2755   68.3708 N   0  0  0  0  0  0  0  0  0  0  0  0
   -3.9073   -5.2951   67.6764 N   0  0  0  0  0  0  0  0  0  0  0  0
   -3.1459   -7.9489   70.1409 N   0  0  0  0  0  0  0  0  0  0  0  0
   -4.3955   -5.6481   65.3730 N   0  0  0  0  0  0  0  0  0  0  0  0
   -3.4049   -4.8301   69.8904 O   0  0  0  0  0  0  0  0  0  0  0  0
   -3.5613  -10.0753   67.8029 H   0  0  0  0  0  0  0  0  0  0  0  0
   -4.0130   -4.3283   67.5237 H   0  0  0  0  0  0  0  0  0  0  0  0
   -4.5278   -6.2565   64.6104 H   0  0  0  0  0  0  0  0  0  0  0  0
   -4.4812   -4.6754   65.2474 H   0  0  0  0  0  0  0  0  0  0  0  0
   -2.8708  -10.5877   70.6995 S   0  0  0  0  0  0  0  0  0  0  0  0
   -1.0942  -10.7580   70.8204 C   0  0  0  0  0  0  0  0  0  0  0  0
   -0.0383  -11.6301   74.3256 C   0  0  0  0  0  0  0  0  0  0  0  0
    0.9209  -10.6603   74.5373 C   0  0  0  0  0  0  0  0  0  0  0  0
   -0.7044  -11.6784   73.1181 C   0  0  0  0  0  0  0  0  0  0  0  0
    1.2140   -9.7372   73.5496 C   0  0  0  0  0  0  0  0  0  0  0  0
   -0.4186  -10.7514   72.1346 C   0  0  0  0  0  0  0  0  0  0  0  0
    0.5456   -9.7816   72.3471 C   0  0  0  0  0  0  0  0  0  0  0  0
    0.8509   -8.8657   71.3947 F   0  0  0  0  0  0  0  0  0  0  0  0
 10  4  1  0  0  0
  6  4  2  0  0  0
  6  2  1  0  0  0
  4  8  1  0  0  0
  2  7  1  0  0  0
  2  1  2  0  0  0
  7  5  1  0  0  0
  8  3  1  0  0  0
  1  3  1  0  0  0
  1  9  1  0  0  0
  3 11  2  0  0  0
  5  9  2  0  0  0
  5 16  1  0  0  0
 16 17  1  0  0  0
 19 18  2  0  0  0
 19 21  1  0  0  0
 18 20  1  0  0  0
 21 23  2  0  0  0
 20 22  2  0  0  0
 23 22  1  0  0  0
 23 24  1  0  0  0
 22 17  1  0  0  0
  7 12  1  0  0  0
  8 13  1  0  0  0
 10 14  1  0  0  0
 10 15  1  0  0  0
M  END
> <minimizedAffinity>
-7.51901

$$$$
5U12_5RU_A_301


 24 26  0  0  0  0  0  0  0  0999 V2000
   -3.8358   -7.3280   67.3833 C   0  0  0  0  0  0  0  0  0  0  0  0
   -3.5561   -6.4314   68.3969 C   0  0  0  0  0  0  0  0  0  0  0  0
   -4.2252   -6.8375   66.1519 C   0  0  0  0  0  0  0  0  0  0  0  0
   -4.0356   -4.6820   67.0135 C   0  0  0  0  0  0  0  0  0  0  0  0
   -3.2463   -8.3655   69.2266 C   0  0  0  0  0  0  0  0  0  0  0  0
   -3.6474   -5.0946   68.2363 N   0  0  0  0  0  0  0  0  0  0  0  0
   -3.1840   -7.0889   69.5430 N   0  0  0  0  0  0  0  0  0  0  0  0
   -4.3195   -5.5096   65.9755 N   0  0  0  0  0  0  0  0  0  0  0  0
   -3.6348   -8.5747   67.9331 N   0  0  0  0  0  0  0  0  0  0  0  0
   -4.1651   -3.2812   66.7995 N   0  0  0  0  0  0  0  0  0  0  0  0
   -4.5427   -7.6347   65.0785 O   0  0  0  0  0  0  0  0  0  0  0  0
   -2.9280   -6.6943   70.4079 H   0  0  0  0  0  0  0  0  0  0  0  0
   -4.5913   -5.1407   65.1041 H   0  0  0  0  0  0  0  0  0  0  0  0
   -3.9675   -2.6513   67.5298 H   0  0  0  0  0  0  0  0  0  0  0  0
   -4.4523   -2.9420   65.9211 H   0  0  0  0  0  0  0  0  0  0  0  0
   -2.8551   -9.7116   70.2677 S   0  0  0  0  0  0  0  0  0  0  0  0
   -4.3566  -10.1429   71.1393 C   0  0  0  0  0  0  0  0  0  0  0  0
   -3.8804  -12.1479   74.2881 C   0  0  0  0  0  0  0  0  0  0  0  0
   -4.4748  -13.3351   73.9108 C   0  0  0  0  0  0  0  0  0  0  0  0
   -3.8345  -11.0948   73.3976 C   0  0  0  0  0  0  0  0  0  0  0  0
   -5.0197  -13.4753   72.6470 C   0  0  0  0  0  0  0  0  0  0  0  0
   -4.3704  -11.2371   72.1324 C   0  0  0  0  0  0  0  0  0  0  0  0
   -4.9690  -12.4270   71.7565 C   0  0  0  0  0  0  0  0  0  0  0  0
   -5.5101  -12.5892   70.5236 F   0  0  0  0  0  0  0  0  0  0  0  0
 10  4  1  0  0  0
  6  4  2  0  0  0
  6  2  1  0  0  0
  4  8  1  0  0  0
  2  7  1  0  0  0
  2  1  2  0  0  0
  7  5  1  0  0  0
  8  3  1  0  0  0
  1  3  1  0  0  0
  1  9  1  0  0  0
  3 11  2  0  0  0
  5  9  2  0  0  0
  5 16  1  0  0  0
 16 17  1  0  0  0
 19 18  2  0  0  0
 19 21  1  0  0  0
 18 20  1  0  0  0
 21 23  2  0  0  0
 20 22  2  0  0  0
 23 22  1  0  0  0
 23 24  1  0  0  0
 22 17  1  0  0  0
  7 12  1  0  0  0
  8 13  1  0  0  0
 10 14  1  0  0  0
 10 15  1  0  0  0
M  END
> <minimizedAffinity>
-7.18234

$$$$
5U12_5RU_A_301


 24 26  0  0  0  0  0  0  0  0999 V2000
   -3.2601  -11.4361   69.2060 C   0  0  0  0  0  0  0  0  0  0  0  0
   -3.7795  -10.7579   70.2922 C   0  0  0  0  0  0  0  0  0  0  0  0
   -4.1279  -12.1020   68.3623 C   0  0  0  0  0  0  0  0  0  0  0  0
   -5.8916  -11.3904   69.7067 C   0  0  0  0  0  0  0  0  0  0  0  0
   -1.6732  -10.4723   70.3786 C   0  0  0  0  0  0  0  0  0  0  0  0
   -5.1003  -10.7180   70.5657 N   0  0  0  0  0  0  0  0  0  0  0  0
   -2.7809  -10.1550   71.0159 N   0  0  0  0  0  0  0  0  0  0  0  0
   -5.4455  -12.0708   68.6199 N   0  0  0  0  0  0  0  0  0  0  0  0
   -1.8976  -11.2464   69.2748 N   0  0  0  0  0  0  0  0  0  0  0  0
   -7.2913  -11.3940   69.9628 N   0  0  0  0  0  0  0  0  0  0  0  0
   -3.7229  -12.8206   67.2631 O   0  0  0  0  0  0  0  0  0  0  0  0
   -2.8725   -9.6079   71.8293 H   0  0  0  0  0  0  0  0  0  0  0  0
   -6.0802  -12.5356   68.0280 H   0  0  0  0  0  0  0  0  0  0  0  0
   -7.6504  -10.9112   70.7420 H   0  0  0  0  0  0  0  0  0  0  0  0
   -7.9006  -11.8794   69.3608 H   0  0  0  0  0  0  0  0  0  0  0  0
   -0.0547   -9.9714   70.8010 S   0  0  0  0  0  0  0  0  0  0  0  0
    0.6562  -11.2924   71.7755 C   0  0  0  0  0  0  0  0  0  0  0  0
   -1.5664  -14.0443   73.0596 C   0  0  0  0  0  0  0  0  0  0  0  0
   -1.7266  -13.6347   74.3680 C   0  0  0  0  0  0  0  0  0  0  0  0
   -0.7908  -13.2936   72.2000 C   0  0  0  0  0  0  0  0  0  0  0  0
   -1.1185  -12.4772   74.8193 C   0  0  0  0  0  0  0  0  0  0  0  0
   -0.1905  -12.1327   72.6477 C   0  0  0  0  0  0  0  0  0  0  0  0
   -0.3494  -11.7250   73.9607 C   0  0  0  0  0  0  0  0  0  0  0  0
    0.2364  -10.5943   74.4271 F   0  0  0  0  0  0  0  0  0  0  0  0
 10  4  1  0  0  0
  6  4  2  0  0  0
  6  2  1  0  0  0
  4  8  1  0  0  0
  2  7  1  0  0  0
  2  1  2  0  0  0
  7  5  1  0  0  0
  8  3  1  0  0  0
  1  3  1  0  0  0
  1  9  1  0  0  0
  3 11  2  0  0  0
  5  9  2  0  0  0
  5 16  1  0  0  0
 16 17  1  0  0  0
 19 18  2  0  0  0
 19 21  1  0  0  0
 18 20  1  0  0  0
 21 23  2  0  0  0
 20 22  2  0  0  0
 23 22  1  0  0  0
 23 24  1  0  0  0
 22 17  1  0  0  0
  7 12  1  0  0  0
  8 13  1  0  0  0
 10 14  1  0  0  0
 10 15  1  0  0  0
M  END
> <minimizedAffinity>
-7.05549

$$$$
5U12_5RU_A_301


 24 26  0  0  0  0  0  0  0  0999 V2000
   -3.9089  -10.9512   70.0440 C   0  0  0  0  0  0  0  0  0  0  0  0
   -3.0634  -11.5303   69.1171 C   0  0  0  0  0  0  0  0  0  0  0  0
   -5.2706  -10.9869   69.8138 C   0  0  0  0  0  0  0  0  0  0  0  0
   -4.8480  -12.1274   67.8276 C   0  0  0  0  0  0  0  0  0  0  0  0
   -1.8070  -10.7533   70.6477 C   0  0  0  0  0  0  0  0  0  0  0  0
   -3.5106  -12.1301   67.9940 N   0  0  0  0  0  0  0  0  0  0  0  0
   -1.7526  -11.4059   69.5054 N   0  0  0  0  0  0  0  0  0  0  0  0
   -5.7318  -11.5813   68.7015 N   0  0  0  0  0  0  0  0  0  0  0  0
   -3.0845  -10.4498   71.0269 N   0  0  0  0  0  0  0  0  0  0  0  0
   -5.3680  -12.7315   66.6489 N   0  0  0  0  0  0  0  0  0  0  0  0
   -6.2021  -10.4306   70.6573 O   0  0  0  0  0  0  0  0  0  0  0  0
   -0.9514  -11.7316   69.0351 H   0  0  0  0  0  0  0  0  0  0  0  0
   -6.6990  -11.6206   68.5219 H   0  0  0  0  0  0  0  0  0  0  0  0
   -4.7564  -13.1374   65.9928 H   0  0  0  0  0  0  0  0  0  0  0  0
   -6.3394  -12.7435   66.4894 H   0  0  0  0  0  0  0  0  0  0  0  0
   -0.4508  -10.3154   71.6568 S   0  0  0  0  0  0  0  0  0  0  0  0
   -0.7105  -11.1049   73.2409 C   0  0  0  0  0  0  0  0  0  0  0  0
   -0.7532  -14.8570   72.9563 C   0  0  0  0  0  0  0  0  0  0  0  0
   -1.9651  -15.1311   73.5576 C   0  0  0  0  0  0  0  0  0  0  0  0
   -0.3268  -13.5493   72.8461 C   0  0  0  0  0  0  0  0  0  0  0  0
   -2.7535  -14.1044   74.0453 C   0  0  0  0  0  0  0  0  0  0  0  0
   -1.1177  -12.5229   73.3248 C   0  0  0  0  0  0  0  0  0  0  0  0
   -2.3311  -12.7994   73.9303 C   0  0  0  0  0  0  0  0  0  0  0  0
   -3.1219  -11.8106   74.4162 F   0  0  0  0  0  0  0  0  0  0  0  0
 10  4  1  0  0  0
  6  4  2  0  0  0
  6  2  1  0  0  0
  4  8  1  0  0  0
  2  7  1  0  0  0
  2  1  2  0  0  0
  7  5  1  0  0  0
  8  3  1  0  0  0
  1  3  1  0  0  0
  1  9  1  0  0  0
  3 11  2  0  0  0
  5  9  2  0  0  0
  5 16  1  0  0  0
 16 17  1  0  0  0
 19 18  2  0  0  0
 19 21  1  0  0  0
 18 20  1  0  0  0
 21 23  2  0  0  0
 20 22  2  0  0  0
 23 22  1  0  0  0
 23 24  1  0  0  0
 22 17  1  0  0  0
  7 12  1  0  0  0
  8 13  1  0  0  0
 10 14  1  0  0  0
 10 15  1  0  0  0
M  END
> <minimizedAffinity>
-6.96130

$$$$
5U12_5RU_A_301


 24 26  0  0  0  0  0  0  0  0999 V2000
   -4.1191  -11.1132   70.3391 C   0  0  0  0  0  0  0  0  0  0  0  0
   -4.3845  -12.4693   70.3546 C   0  0  0  0  0  0  0  0  0  0  0  0
   -4.3135  -10.4121   69.1648 C   0  0  0  0  0  0  0  0  0  0  0  0
   -4.9910  -12.3993   68.1566 C   0  0  0  0  0  0  0  0  0  0  0  0
   -3.7263  -11.9810   72.3176 C   0  0  0  0  0  0  0  0  0  0  0  0
   -4.8258  -13.1402   69.2701 N   0  0  0  0  0  0  0  0  0  0  0  0
   -4.1408  -13.0016   71.5962 N   0  0  0  0  0  0  0  0  0  0  0  0
   -4.7536  -11.0650   68.0769 N   0  0  0  0  0  0  0  0  0  0  0  0
   -3.6915  -10.8105   71.6129 N   0  0  0  0  0  0  0  0  0  0  0  0
   -5.4370  -13.0648   66.9806 N   0  0  0  0  0  0  0  0  0  0  0  0
   -4.0676   -9.0668   69.0294 O   0  0  0  0  0  0  0  0  0  0  0  0
   -4.2511  -13.9369   71.8830 H   0  0  0  0  0  0  0  0  0  0  0  0
   -4.9023  -10.5820   67.2321 H   0  0  0  0  0  0  0  0  0  0  0  0
   -5.6191  -14.0321   67.0015 H   0  0  0  0  0  0  0  0  0  0  0  0
   -5.5635  -12.5580   66.1461 H   0  0  0  0  0  0  0  0  0  0  0  0
   -3.2862  -12.0168   74.0070 S   0  0  0  0  0  0  0  0  0  0  0  0
   -1.6205  -12.6637   74.0925 C   0  0  0  0  0  0  0  0  0  0  0  0
    1.3347  -10.3387   73.9423 C   0  0  0  0  0  0  0  0  0  0  0  0
    1.6651  -10.4538   72.6070 C   0  0  0  0  0  0  0  0  0  0  0  0
    0.2670  -11.0538   74.4449 C   0  0  0  0  0  0  0  0  0  0  0  0
    0.9311  -11.2770   71.7721 C   0  0  0  0  0  0  0  0  0  0  0  0
   -0.4718  -11.8693   73.6097 C   0  0  0  0  0  0  0  0  0  0  0  0
   -0.1375  -11.9862   72.2718 C   0  0  0  0  0  0  0  0  0  0  0  0
   -0.8413  -12.7865   71.4332 F   0  0  0  0  0  0  0  0  0  0  0  0
 10  4  1  0  0  0
  6  4  2  0  0  0
  6  2  1  0  0  0
  4  8  1  0  0  0
  2  7  1  0  0  0
  2  1  2  0  0  0
  7  5  1  0  0  0
  8  3  1  0  0  0
  1  3  1  0  0  0
  1  9  1  0  0  0
  3 11  2  0  0  0
  5  9  2  0  0  0
  5 16  1  0  0  0
 16 17  1  0  0  0
 19 18  2  0  0  0
 19 21  1  0  0  0
 18 20  1  0  0  0
 21 23  2  0  0  0
 20 22  2  0  0  0
 23 22  1  0  0  0
 23 24  1  0  0  0
 22 17  1  0  0  0
  7 12  1  0  0  0
  8 13  1  0  0  0
 10 14  1  0  0  0
 10 15  1  0  0  0
M  END
> <minimizedAffinity>
-6.87890

$$$$
5U12_5RU_A_301


 24 26  0  0  0  0  0  0  0  0999 V2000
   -4.7574  -12.7253   69.2671 C   0  0  0  0  0  0  0  0  0  0  0  0
   -4.6838  -11.3669   69.0248 C   0  0  0  0  0  0  0  0  0  0  0  0
   -5.2311  -13.5532   68.2678 C   0  0  0  0  0  0  0  0  0  0  0  0
   -5.5119  -11.6736   66.9214 C   0  0  0  0  0  0  0  0  0  0  0  0
   -3.9774  -11.6442   71.0120 C   0  0  0  0  0  0  0  0  0  0  0  0
   -5.0558  -10.8122   67.8521 N   0  0  0  0  0  0  0  0  0  0  0  0
   -4.1908  -10.7005   70.1189 N   0  0  0  0  0  0  0  0  0  0  0  0
   -5.6040  -13.0170   67.0944 N   0  0  0  0  0  0  0  0  0  0  0  0
   -4.3009  -12.8913   70.5560 N   0  0  0  0  0  0  0  0  0  0  0  0
   -5.9343  -11.1352   65.6738 N   0  0  0  0  0  0  0  0  0  0  0  0
   -5.3622  -14.9145   68.4026 O   0  0  0  0  0  0  0  0  0  0  0  0
   -4.0323   -9.7335   70.2145 H   0  0  0  0  0  0  0  0  0  0  0  0
   -5.9401  -13.5910   66.3686 H   0  0  0  0  0  0  0  0  0  0  0  0
   -5.8817  -10.1653   65.5131 H   0  0  0  0  0  0  0  0  0  0  0  0
   -6.2792  -11.7325   64.9713 H   0  0  0  0  0  0  0  0  0  0  0  0
   -3.3183  -11.4252   72.6141 S   0  0  0  0  0  0  0  0  0  0  0  0
   -1.6211  -10.8994   72.4062 C   0  0  0  0  0  0  0  0  0  0  0  0
    1.4799  -11.8609   74.3090 C   0  0  0  0  0  0  0  0  0  0  0  0
    1.5036  -13.2188   74.0621 C   0  0  0  0  0  0  0  0  0  0  0  0
    0.4668  -11.0887   73.7786 C   0  0  0  0  0  0  0  0  0  0  0  0
    0.5219  -13.8069   73.2849 C   0  0  0  0  0  0  0  0  0  0  0  0
   -0.5088  -11.6739   72.9949 C   0  0  0  0  0  0  0  0  0  0  0  0
   -0.4856  -13.0360   72.7508 C   0  0  0  0  0  0  0  0  0  0  0  0
   -1.4363  -13.6359   71.9923 F   0  0  0  0  0  0  0  0  0  0  0  0
 10  4  1  0  0  0
  6  4  2  0  0  0
  6  2  1  0  0  0
  4  8  1  0  0  0
  2  7  1  0  0  0
  2  1  2  0  0  0
  7  5  1  0  0  0
  8  3  1  0  0  0
  1  3  1  0  0  0
  1  9  1  0  0  0
  3 11  2  0  0  0
  5  9  2  0  0  0
  5 16  1  0  0  0
 16 17  1  0  0  0
 19 18  2  0  0  0
 19 21  1  0  0  0
 18 20  1  0  0  0
 21 23  2  0  0  0
 20 22  2  0  0  0
 23 22  1  0  0  0
 23 24  1  0  0  0
 22 17  1  0  0  0
  7 12  1  0  0  0
  8 13  1  0  0  0
 10 14  1  0  0  0
 10 15  1  0  0  0
M  END
> <minimizedAffinity>
-6.69443

$$$$
