5Y12_8JX_A_201


 25 26  0  0  0  0  0  0  0  0999 V2000
   -5.2973    9.5911  -20.7027 S   0  0  0  0  0  0  0  0  0  0  0  0
   -5.7199   10.9678  -20.3512 O   0  0  0  0  0  0  0  0  0  0  0  0
   -4.3058    9.6036  -21.7877 O   0  0  0  0  0  0  0  0  0  0  0  0
   -4.5919    8.8374  -19.1791 C   0  0  0  0  0  0  0  0  0  0  0  0
   -4.0505    7.5596  -19.1626 C   0  0  0  0  0  0  0  0  0  0  0  0
   -4.0008    6.7482  -20.3514 C   0  0  0  0  0  0  0  0  0  0  0  0
   -3.4570    5.5108  -20.3138 C   0  0  0  0  0  0  0  0  0  0  0  0
   -2.9262    5.0012  -19.0795 C   0  0  0  0  0  0  0  0  0  0  0  0
   -2.9849    5.7771  -17.9369 C   0  0  0  0  0  0  0  0  0  0  0  0
   -3.5405    7.0690  -17.9863 C   0  0  0  0  0  0  0  0  0  0  0  0
   -3.5823    7.8612  -16.8126 C   0  0  0  0  0  0  0  0  0  0  0  0
   -4.1310    9.1124  -16.8334 C   0  0  0  0  0  0  0  0  0  0  0  0
   -4.6342    9.6107  -18.0161 C   0  0  0  0  0  0  0  0  0  0  0  0
   -3.0691    7.3548  -15.6230 O   0  0  0  0  0  0  0  0  0  0  0  0
   -3.7110    7.6116  -14.4411 C   0  0  0  0  0  0  0  0  0  0  0  0
   -6.5423    8.6885  -21.1953 N   0  0  0  0  0  0  0  0  0  0  0  0
   -6.2309    7.7228  -21.3001 H   0  0  0  0  0  0  0  0  0  0  0  0
   -7.7041    8.7334  -20.1855 C   0  0  0  0  0  0  0  0  0  0  0  0
   -7.9843    7.4378  -19.4974 C   0  0  0  0  0  0  0  0  0  0  0  0
   -7.6230    7.3353  -18.0389 C   0  0  0  0  0  0  0  0  0  0  0  0
   -6.9984    6.0439  -17.5660 C   0  0  0  0  0  0  0  0  0  0  0  0
   -5.8132    5.1440  -15.7191 O   0  0  0  0  0  0  0  0  0  0  0  0
   -6.6191    6.0087  -16.1337 C   0  0  0  0  0  0  0  0  0  0  0  0
   -7.1056    6.8610  -15.3432 O   0  0  0  0  0  0  0  0  0  0  0  0
   -7.7079    7.5046  -15.6610 H   0  0  0  0  0  0  0  0  0  0  0  0
  8  7  1  0  0  0
  8  9  2  0  0  0
  7  6  2  0  0  0
  9 10  1  0  0  0
  6  5  1  0  0  0
 10  5  1  0  0  0
 10 11  2  0  0  0
  5  4  2  0  0  0
  3  1  2  0  0  0
 14 11  1  0  0  0
 14 15  1  0  0  0
 11 12  1  0  0  0
  4  1  1  0  0  0
  4 13  1  0  0  0
  1 16  1  0  0  0
  1  2  2  0  0  0
 16 18  1  0  0  0
 12 13  2  0  0  0
 18 19  1  0  0  0
 19 20  1  0  0  0
 21 20  1  0  0  0
 21 23  1  0  0  0
 23 22  2  0  0  0
 23 24  1  0  0  0
 24 25  1  0  0  0
 16 17  1  0  0  0
M  END
> <minimizedAffinity>
-7.17649

$$$$
5Y12_8JX_A_201


 25 26  0  0  0  0  0  0  0  0999 V2000
   -3.0216    8.1140  -16.5114 S   0  0  0  0  0  0  0  0  0  0  0  0
   -2.7647    6.8687  -15.7493 O   0  0  0  0  0  0  0  0  0  0  0  0
   -1.7995    8.9219  -16.6310 O   0  0  0  0  0  0  0  0  0  0  0  0
   -3.6410    7.6135  -18.1705 C   0  0  0  0  0  0  0  0  0  0  0  0
   -3.1196    6.5305  -18.8643 C   0  0  0  0  0  0  0  0  0  0  0  0
   -2.0609    5.7238  -18.3143 C   0  0  0  0  0  0  0  0  0  0  0  0
   -1.5772    4.6658  -19.0036 C   0  0  0  0  0  0  0  0  0  0  0  0
   -2.1222    4.3446  -20.2938 C   0  0  0  0  0  0  0  0  0  0  0  0
   -3.1308    5.1267  -20.8250 C   0  0  0  0  0  0  0  0  0  0  0  0
   -3.6381    6.2184  -20.0965 C   0  0  0  0  0  0  0  0  0  0  0  0
   -4.6817    7.0044  -20.6441 C   0  0  0  0  0  0  0  0  0  0  0  0
   -5.1793    8.0785  -19.9616 C   0  0  0  0  0  0  0  0  0  0  0  0
   -4.6670    8.3871  -18.7196 C   0  0  0  0  0  0  0  0  0  0  0  0
   -5.1978    6.6858  -21.8959 O   0  0  0  0  0  0  0  0  0  0  0  0
   -6.2678    7.3838  -22.3887 C   0  0  0  0  0  0  0  0  0  0  0  0
   -4.1416    9.0334  -15.7990 N   0  0  0  0  0  0  0  0  0  0  0  0
   -5.0257    8.9241  -16.2958 H   0  0  0  0  0  0  0  0  0  0  0  0
   -4.3427    8.6347  -14.3252 C   0  0  0  0  0  0  0  0  0  0  0  0
   -5.7538    8.3218  -13.9494 C   0  0  0  0  0  0  0  0  0  0  0  0
   -6.1686    6.8740  -13.9577 C   0  0  0  0  0  0  0  0  0  0  0  0
   -6.9101    6.3697  -15.1731 C   0  0  0  0  0  0  0  0  0  0  0  0
   -6.4494    5.5941  -17.3667 O   0  0  0  0  0  0  0  0  0  0  0  0
   -6.0811    5.6528  -16.1709 C   0  0  0  0  0  0  0  0  0  0  0  0
   -5.0012    5.1149  -15.8070 O   0  0  0  0  0  0  0  0  0  0  0  0
   -4.7326    5.1632  -14.9107 H   0  0  0  0  0  0  0  0  0  0  0  0
  8  7  1  0  0  0
  8  9  2  0  0  0
  7  6  2  0  0  0
  9 10  1  0  0  0
  6  5  1  0  0  0
 10  5  1  0  0  0
 10 11  2  0  0  0
  5  4  2  0  0  0
  3  1  2  0  0  0
 14 11  1  0  0  0
 14 15  1  0  0  0
 11 12  1  0  0  0
  4  1  1  0  0  0
  4 13  1  0  0  0
  1 16  1  0  0  0
  1  2  2  0  0  0
 16 18  1  0  0  0
 12 13  2  0  0  0
 18 19  1  0  0  0
 19 20  1  0  0  0
 21 20  1  0  0  0
 21 23  1  0  0  0
 23 22  2  0  0  0
 23 24  1  0  0  0
 24 25  1  0  0  0
 16 17  1  0  0  0
M  END
> <minimizedAffinity>
-7.09945

$$$$
5Y12_8JX_A_201


 25 26  0  0  0  0  0  0  0  0999 V2000
   -6.1240    6.9513  -17.2125 S   0  0  0  0  0  0  0  0  0  0  0  0
   -7.2330    7.7647  -16.6592 O   0  0  0  0  0  0  0  0  0  0  0  0
   -6.3320    5.5215  -16.9432 O   0  0  0  0  0  0  0  0  0  0  0  0
   -6.0679    7.2757  -19.0232 C   0  0  0  0  0  0  0  0  0  0  0  0
   -5.0752    6.7562  -19.8422 C   0  0  0  0  0  0  0  0  0  0  0  0
   -4.0289    5.9174  -19.3168 C   0  0  0  0  0  0  0  0  0  0  0  0
   -3.0793    5.4125  -20.1364 C   0  0  0  0  0  0  0  0  0  0  0  0
   -3.1134    5.7155  -21.5407 C   0  0  0  0  0  0  0  0  0  0  0  0
   -4.1121    6.5298  -22.0413 C   0  0  0  0  0  0  0  0  0  0  0  0
   -5.1044    7.0412  -21.1847 C   0  0  0  0  0  0  0  0  0  0  0  0
   -6.1315    7.8628  -21.7109 C   0  0  0  0  0  0  0  0  0  0  0  0
   -7.0966    8.3832  -20.8956 C   0  0  0  0  0  0  0  0  0  0  0  0
   -7.0748    8.0895  -19.5488 C   0  0  0  0  0  0  0  0  0  0  0  0
   -6.1509    8.1522  -23.0713 O   0  0  0  0  0  0  0  0  0  0  0  0
   -7.0301    7.4996  -23.8935 C   0  0  0  0  0  0  0  0  0  0  0  0
   -4.7003    7.3624  -16.5710 N   0  0  0  0  0  0  0  0  0  0  0  0
   -3.9971    6.6828  -16.8610 H   0  0  0  0  0  0  0  0  0  0  0  0
   -4.2604    8.7651  -17.0299 C   0  0  0  0  0  0  0  0  0  0  0  0
   -2.8270    8.8686  -17.4364 C   0  0  0  0  0  0  0  0  0  0  0  0
   -1.9326    7.6968  -17.1277 C   0  0  0  0  0  0  0  0  0  0  0  0
   -0.7021    7.5161  -17.9847 C   0  0  0  0  0  0  0  0  0  0  0  0
    0.1248    5.3099  -18.2582 O   0  0  0  0  0  0  0  0  0  0  0  0
    0.1727    6.3802  -17.6090 C   0  0  0  0  0  0  0  0  0  0  0  0
    0.9693    6.5060  -16.6408 O   0  0  0  0  0  0  0  0  0  0  0  0
    0.9992    7.3097  -16.1601 H   0  0  0  0  0  0  0  0  0  0  0  0
  8  7  1  0  0  0
  8  9  2  0  0  0
  7  6  2  0  0  0
  9 10  1  0  0  0
  6  5  1  0  0  0
 10  5  1  0  0  0
 10 11  2  0  0  0
  5  4  2  0  0  0
  3  1  2  0  0  0
 14 11  1  0  0  0
 14 15  1  0  0  0
 11 12  1  0  0  0
  4  1  1  0  0  0
  4 13  1  0  0  0
  1 16  1  0  0  0
  1  2  2  0  0  0
 16 18  1  0  0  0
 12 13  2  0  0  0
 18 19  1  0  0  0
 19 20  1  0  0  0
 21 20  1  0  0  0
 21 23  1  0  0  0
 23 22  2  0  0  0
 23 24  1  0  0  0
 24 25  1  0  0  0
 16 17  1  0  0  0
M  END
> <minimizedAffinity>
-7.08546

$$$$
5Y12_8JX_A_201


 25 26  0  0  0  0  0  0  0  0999 V2000
   -6.6369    9.4379  -20.6084 S   0  0  0  0  0  0  0  0  0  0  0  0
   -7.9979    9.1941  -21.1427 O   0  0  0  0  0  0  0  0  0  0  0  0
   -6.4856   10.8306  -20.1635 O   0  0  0  0  0  0  0  0  0  0  0  0
   -6.3905    8.2718  -19.2061 C   0  0  0  0  0  0  0  0  0  0  0  0
   -5.2215    8.2425  -18.4587 C   0  0  0  0  0  0  0  0  0  0  0  0
   -4.1291    9.1394  -18.7353 C   0  0  0  0  0  0  0  0  0  0  0  0
   -3.0046    9.1009  -17.9853 C   0  0  0  0  0  0  0  0  0  0  0  0
   -2.8981    8.1582  -16.9059 C   0  0  0  0  0  0  0  0  0  0  0  0
   -3.9432    7.2906  -16.6491 C   0  0  0  0  0  0  0  0  0  0  0  0
   -5.1155    7.3451  -17.4253 C   0  0  0  0  0  0  0  0  0  0  0  0
   -6.1862    6.4611  -17.1440 C   0  0  0  0  0  0  0  0  0  0  0  0
   -7.3279    6.4854  -17.8942 C   0  0  0  0  0  0  0  0  0  0  0  0
   -7.4402    7.3931  -18.9257 C   0  0  0  0  0  0  0  0  0  0  0  0
   -6.0690    5.5502  -16.0993 O   0  0  0  0  0  0  0  0  0  0  0  0
   -6.8800    5.6651  -15.0020 C   0  0  0  0  0  0  0  0  0  0  0  0
   -5.4975    9.1579  -21.7178 N   0  0  0  0  0  0  0  0  0  0  0  0
   -4.5967    9.4686  -21.3538 H   0  0  0  0  0  0  0  0  0  0  0  0
   -5.4075    7.6606  -22.0663 C   0  0  0  0  0  0  0  0  0  0  0  0
   -4.0371    7.0760  -21.9621 C   0  0  0  0  0  0  0  0  0  0  0  0
   -3.8661    5.8619  -21.0875 C   0  0  0  0  0  0  0  0  0  0  0  0
   -2.7537    5.8914  -20.0662 C   0  0  0  0  0  0  0  0  0  0  0  0
   -2.7784    4.3461  -18.2669 O   0  0  0  0  0  0  0  0  0  0  0  0
   -2.4268    4.5860  -19.4450 C   0  0  0  0  0  0  0  0  0  0  0  0
   -1.8036    3.7200  -20.1155 O   0  0  0  0  0  0  0  0  0  0  0  0
   -1.5440    3.9070  -20.9962 H   0  0  0  0  0  0  0  0  0  0  0  0
  8  7  1  0  0  0
  8  9  2  0  0  0
  7  6  2  0  0  0
  9 10  1  0  0  0
  6  5  1  0  0  0
 10  5  1  0  0  0
 10 11  2  0  0  0
  5  4  2  0  0  0
  3  1  2  0  0  0
 14 11  1  0  0  0
 14 15  1  0  0  0
 11 12  1  0  0  0
  4  1  1  0  0  0
  4 13  1  0  0  0
  1 16  1  0  0  0
  1  2  2  0  0  0
 16 18  1  0  0  0
 12 13  2  0  0  0
 18 19  1  0  0  0
 19 20  1  0  0  0
 21 20  1  0  0  0
 21 23  1  0  0  0
 23 22  2  0  0  0
 23 24  1  0  0  0
 24 25  1  0  0  0
 16 17  1  0  0  0
M  END
> <minimizedAffinity>
-7.07813

$$$$
5Y12_8JX_A_201


 25 26  0  0  0  0  0  0  0  0999 V2000
   -5.3158    6.8260  -17.5944 S   0  0  0  0  0  0  0  0  0  0  0  0
   -6.3481    7.5200  -16.7880 O   0  0  0  0  0  0  0  0  0  0  0  0
   -5.3458    5.3760  -17.3562 O   0  0  0  0  0  0  0  0  0  0  0  0
   -5.6642    7.2072  -19.3608 C   0  0  0  0  0  0  0  0  0  0  0  0
   -4.8284    6.7969  -20.3900 C   0  0  0  0  0  0  0  0  0  0  0  0
   -3.6351    6.0333  -20.1308 C   0  0  0  0  0  0  0  0  0  0  0  0
   -2.8425    5.6339  -21.1509 C   0  0  0  0  0  0  0  0  0  0  0  0
   -3.1923    5.9742  -22.5025 C   0  0  0  0  0  0  0  0  0  0  0  0
   -4.3322    6.7168  -22.7484 C   0  0  0  0  0  0  0  0  0  0  0  0
   -5.1591    7.1180  -21.6830 C   0  0  0  0  0  0  0  0  0  0  0  0
   -6.3326    7.8661  -21.9477 C   0  0  0  0  0  0  0  0  0  0  0  0
   -7.1424    8.2797  -20.9278 C   0  0  0  0  0  0  0  0  0  0  0  0
   -6.8173    7.9493  -19.6295 C   0  0  0  0  0  0  0  0  0  0  0  0
   -6.6579    8.1930  -23.2600 O   0  0  0  0  0  0  0  0  0  0  0  0
   -7.6405    7.4964  -23.9113 C   0  0  0  0  0  0  0  0  0  0  0  0
   -3.8282    7.3440  -17.2392 N   0  0  0  0  0  0  0  0  0  0  0  0
   -3.1640    6.9104  -17.8804 H   0  0  0  0  0  0  0  0  0  0  0  0
   -3.7203    8.8750  -17.3660 C   0  0  0  0  0  0  0  0  0  0  0  0
   -3.2322    9.5709  -16.1380 C   0  0  0  0  0  0  0  0  0  0  0  0
   -4.2051    9.7320  -14.9996 C   0  0  0  0  0  0  0  0  0  0  0  0
   -3.9715    8.8987  -13.7617 C   0  0  0  0  0  0  0  0  0  0  0  0
   -3.1849    6.6930  -14.1385 O   0  0  0  0  0  0  0  0  0  0  0  0
   -4.1691    7.4396  -13.9314 C   0  0  0  0  0  0  0  0  0  0  0  0
   -5.3315    6.9592  -13.8546 O   0  0  0  0  0  0  0  0  0  0  0  0
   -6.0627    7.5243  -13.6995 H   0  0  0  0  0  0  0  0  0  0  0  0
  8  7  1  0  0  0
  8  9  2  0  0  0
  7  6  2  0  0  0
  9 10  1  0  0  0
  6  5  1  0  0  0
 10  5  1  0  0  0
 10 11  2  0  0  0
  5  4  2  0  0  0
  3  1  2  0  0  0
 14 11  1  0  0  0
 14 15  1  0  0  0
 11 12  1  0  0  0
  4  1  1  0  0  0
  4 13  1  0  0  0
  1 16  1  0  0  0
  1  2  2  0  0  0
 16 18  1  0  0  0
 12 13  2  0  0  0
 18 19  1  0  0  0
 19 20  1  0  0  0
 21 20  1  0  0  0
 21 23  1  0  0  0
 23 22  2  0  0  0
 23 24  1  0  0  0
 24 25  1  0  0  0
 16 17  1  0  0  0
M  END
> <minimizedAffinity>
-7.05516

$$$$
5Y12_8JX_A_201


 25 26  0  0  0  0  0  0  0  0999 V2000
   -3.2038    5.6693  -19.0461 S   0  0  0  0  0  0  0  0  0  0  0  0
   -4.0940    5.0673  -18.0249 O   0  0  0  0  0  0  0  0  0  0  0  0
   -2.3382    4.6515  -19.6586 O   0  0  0  0  0  0  0  0  0  0  0  0
   -4.2862    6.4554  -20.3099 C   0  0  0  0  0  0  0  0  0  0  0  0
   -5.4341    7.1592  -19.9732 C   0  0  0  0  0  0  0  0  0  0  0  0
   -5.8404    7.3236  -18.6013 C   0  0  0  0  0  0  0  0  0  0  0  0
   -6.9562    8.0241  -18.2968 C   0  0  0  0  0  0  0  0  0  0  0  0
   -7.7425    8.6075  -19.3487 C   0  0  0  0  0  0  0  0  0  0  0  0
   -7.3569    8.4392  -20.6655 C   0  0  0  0  0  0  0  0  0  0  0  0
   -6.1876    7.7199  -20.9743 C   0  0  0  0  0  0  0  0  0  0  0  0
   -5.7940    7.5659  -22.3264 C   0  0  0  0  0  0  0  0  0  0  0  0
   -4.6709    6.8585  -22.6509 C   0  0  0  0  0  0  0  0  0  0  0  0
   -3.9073    6.3035  -21.6463 C   0  0  0  0  0  0  0  0  0  0  0  0
   -6.5660    8.1317  -23.3357 O   0  0  0  0  0  0  0  0  0  0  0  0
   -7.3898    7.3381  -24.0884 C   0  0  0  0  0  0  0  0  0  0  0  0
   -2.2441    6.8029  -18.4125 N   0  0  0  0  0  0  0  0  0  0  0  0
   -2.2336    7.6129  -19.0323 H   0  0  0  0  0  0  0  0  0  0  0  0
   -2.7360    7.2431  -17.0212 C   0  0  0  0  0  0  0  0  0  0  0  0
   -2.5957    8.7035  -16.7420 C   0  0  0  0  0  0  0  0  0  0  0  0
   -2.8609    9.6552  -17.8788 C   0  0  0  0  0  0  0  0  0  0  0  0
   -4.1108   10.4998  -17.8018 C   0  0  0  0  0  0  0  0  0  0  0  0
   -5.5189   11.8569  -19.1439 O   0  0  0  0  0  0  0  0  0  0  0  0
   -4.6528   10.9528  -19.1048 C   0  0  0  0  0  0  0  0  0  0  0  0
   -4.2269   10.4284  -20.1686 O   0  0  0  0  0  0  0  0  0  0  0  0
   -3.5790    9.7526  -20.1310 H   0  0  0  0  0  0  0  0  0  0  0  0
  8  7  1  0  0  0
  8  9  2  0  0  0
  7  6  2  0  0  0
  9 10  1  0  0  0
  6  5  1  0  0  0
 10  5  1  0  0  0
 10 11  2  0  0  0
  5  4  2  0  0  0
  3  1  2  0  0  0
 14 11  1  0  0  0
 14 15  1  0  0  0
 11 12  1  0  0  0
  4  1  1  0  0  0
  4 13  1  0  0  0
  1 16  1  0  0  0
  1  2  2  0  0  0
 16 18  1  0  0  0
 12 13  2  0  0  0
 18 19  1  0  0  0
 19 20  1  0  0  0
 21 20  1  0  0  0
 21 23  1  0  0  0
 23 22  2  0  0  0
 23 24  1  0  0  0
 24 25  1  0  0  0
 16 17  1  0  0  0
M  END
> <minimizedAffinity>
-7.04702

$$$$
5Y12_8JX_A_201


 25 26  0  0  0  0  0  0  0  0999 V2000
   -4.9820    6.5777  -16.3600 S   0  0  0  0  0  0  0  0  0  0  0  0
   -6.0813    7.5019  -15.9927 O   0  0  0  0  0  0  0  0  0  0  0  0
   -5.2790    5.2049  -15.9271 O   0  0  0  0  0  0  0  0  0  0  0  0
   -4.7944    6.6619  -18.1888 C   0  0  0  0  0  0  0  0  0  0  0  0
   -3.8350    5.9289  -18.8733 C   0  0  0  0  0  0  0  0  0  0  0  0
   -2.9306    5.0449  -18.1844 C   0  0  0  0  0  0  0  0  0  0  0  0
   -2.0121    4.3314  -18.8741 C   0  0  0  0  0  0  0  0  0  0  0  0
   -1.9370    4.4565  -20.3037 C   0  0  0  0  0  0  0  0  0  0  0  0
   -2.7986    5.3139  -20.9621 C   0  0  0  0  0  0  0  0  0  0  0  0
   -3.7605    6.0436  -20.2393 C   0  0  0  0  0  0  0  0  0  0  0  0
   -4.6481    6.9084  -20.9257 C   0  0  0  0  0  0  0  0  0  0  0  0
   -5.5798    7.6384  -20.2432 C   0  0  0  0  0  0  0  0  0  0  0  0
   -5.6630    7.5167  -18.8725 C   0  0  0  0  0  0  0  0  0  0  0  0
   -4.5624    7.0240  -22.3092 O   0  0  0  0  0  0  0  0  0  0  0  0
   -5.6154    6.6316  -23.0915 C   0  0  0  0  0  0  0  0  0  0  0  0
   -3.5830    7.0081  -15.6781 N   0  0  0  0  0  0  0  0  0  0  0  0
   -2.8210    6.5176  -16.1462 H   0  0  0  0  0  0  0  0  0  0  0  0
   -3.3457    8.5256  -15.7906 C   0  0  0  0  0  0  0  0  0  0  0  0
   -2.5155    8.9431  -16.9598 C   0  0  0  0  0  0  0  0  0  0  0  0
   -3.0665   10.0262  -17.8497 C   0  0  0  0  0  0  0  0  0  0  0  0
   -3.9073   11.0996  -17.2000 C   0  0  0  0  0  0  0  0  0  0  0  0
   -5.7698   11.7360  -18.5235 O   0  0  0  0  0  0  0  0  0  0  0  0
   -5.3481   11.0749  -17.5467 C   0  0  0  0  0  0  0  0  0  0  0  0
   -6.1388   10.3762  -16.8579 O   0  0  0  0  0  0  0  0  0  0  0  0
   -5.8157    9.8844  -16.1287 H   0  0  0  0  0  0  0  0  0  0  0  0
  8  7  1  0  0  0
  8  9  2  0  0  0
  7  6  2  0  0  0
  9 10  1  0  0  0
  6  5  1  0  0  0
 10  5  1  0  0  0
 10 11  2  0  0  0
  5  4  2  0  0  0
  3  1  2  0  0  0
 14 11  1  0  0  0
 14 15  1  0  0  0
 11 12  1  0  0  0
  4  1  1  0  0  0
  4 13  1  0  0  0
  1 16  1  0  0  0
  1  2  2  0  0  0
 16 18  1  0  0  0
 12 13  2  0  0  0
 18 19  1  0  0  0
 19 20  1  0  0  0
 21 20  1  0  0  0
 21 23  1  0  0  0
 23 22  2  0  0  0
 23 24  1  0  0  0
 24 25  1  0  0  0
 16 17  1  0  0  0
M  END
> <minimizedAffinity>
-7.03221

$$$$
5Y12_8JX_A_201


 25 26  0  0  0  0  0  0  0  0999 V2000
   -6.0506    6.1214  -16.5243 S   0  0  0  0  0  0  0  0  0  0  0  0
   -7.4094    5.5326  -16.5929 O   0  0  0  0  0  0  0  0  0  0  0  0
   -5.0967    5.1799  -15.9211 O   0  0  0  0  0  0  0  0  0  0  0  0
   -5.5567    6.5412  -18.2467 C   0  0  0  0  0  0  0  0  0  0  0  0
   -6.3896    7.2374  -19.1114 C   0  0  0  0  0  0  0  0  0  0  0  0
   -7.6961    7.6833  -18.7012 C   0  0  0  0  0  0  0  0  0  0  0  0
   -8.4852    8.3709  -19.5574 C   0  0  0  0  0  0  0  0  0  0  0  0
   -8.0177    8.6578  -20.8857 C   0  0  0  0  0  0  0  0  0  0  0  0
   -6.7678    8.2192  -21.2812 C   0  0  0  0  0  0  0  0  0  0  0  0
   -5.9469    7.5154  -20.3807 C   0  0  0  0  0  0  0  0  0  0  0  0
   -4.6620    7.0834  -20.7920 C   0  0  0  0  0  0  0  0  0  0  0  0
   -3.8538    6.3851  -19.9398 C   0  0  0  0  0  0  0  0  0  0  0  0
   -4.2925    6.1139  -18.6614 C   0  0  0  0  0  0  0  0  0  0  0  0
   -4.2228    7.3635  -22.0817 O   0  0  0  0  0  0  0  0  0  0  0  0
   -3.8275    6.3417  -22.9030 C   0  0  0  0  0  0  0  0  0  0  0  0
   -6.0252    7.4706  -15.6376 N   0  0  0  0  0  0  0  0  0  0  0  0
   -6.4598    7.2821  -14.7342 H   0  0  0  0  0  0  0  0  0  0  0  0
   -4.5852    7.9654  -15.4071 C   0  0  0  0  0  0  0  0  0  0  0  0
   -4.3491    9.3938  -15.7735 C   0  0  0  0  0  0  0  0  0  0  0  0
   -5.0492    9.9200  -16.9989 C   0  0  0  0  0  0  0  0  0  0  0  0
   -4.2316   10.0590  -18.2613 C   0  0  0  0  0  0  0  0  0  0  0  0
   -3.1943   12.0850  -18.9285 O   0  0  0  0  0  0  0  0  0  0  0  0
   -4.2452   11.4049  -18.8820 C   0  0  0  0  0  0  0  0  0  0  0  0
   -5.3180   11.8508  -19.3700 O   0  0  0  0  0  0  0  0  0  0  0  0
   -6.0999   11.3360  -19.3313 H   0  0  0  0  0  0  0  0  0  0  0  0
  8  7  1  0  0  0
  8  9  2  0  0  0
  7  6  2  0  0  0
  9 10  1  0  0  0
  6  5  1  0  0  0
 10  5  1  0  0  0
 10 11  2  0  0  0
  5  4  2  0  0  0
  3  1  2  0  0  0
 14 11  1  0  0  0
 14 15  1  0  0  0
 11 12  1  0  0  0
  4  1  1  0  0  0
  4 13  1  0  0  0
  1 16  1  0  0  0
  1  2  2  0  0  0
 16 18  1  0  0  0
 12 13  2  0  0  0
 18 19  1  0  0  0
 19 20  1  0  0  0
 21 20  1  0  0  0
 21 23  1  0  0  0
 23 22  2  0  0  0
 23 24  1  0  0  0
 24 25  1  0  0  0
 16 17  1  0  0  0
M  END
> <minimizedAffinity>
-7.02181

$$$$
5Y12_8JX_A_201


 25 26  0  0  0  0  0  0  0  0999 V2000
   -6.2493    9.4077  -20.6495 S   0  0  0  0  0  0  0  0  0  0  0  0
   -7.0557   10.6450  -20.7778 O   0  0  0  0  0  0  0  0  0  0  0  0
   -5.4629    9.1610  -21.8665 O   0  0  0  0  0  0  0  0  0  0  0  0
   -5.1482    9.6299  -19.1917 C   0  0  0  0  0  0  0  0  0  0  0  0
   -4.2844    8.6363  -18.7529 C   0  0  0  0  0  0  0  0  0  0  0  0
   -4.1934    7.3669  -19.4271 C   0  0  0  0  0  0  0  0  0  0  0  0
   -3.3352    6.4184  -18.9885 C   0  0  0  0  0  0  0  0  0  0  0  0
   -2.5091    6.6780  -17.8416 C   0  0  0  0  0  0  0  0  0  0  0  0
   -2.6059    7.8929  -17.1891 C   0  0  0  0  0  0  0  0  0  0  0  0
   -3.4919    8.8800  -17.6588 C   0  0  0  0  0  0  0  0  0  0  0  0
   -3.5724   10.1269  -16.9911 C   0  0  0  0  0  0  0  0  0  0  0  0
   -4.4366   11.0945  -17.4199 C   0  0  0  0  0  0  0  0  0  0  0  0
   -5.2256   10.8553  -18.5247 C   0  0  0  0  0  0  0  0  0  0  0  0
   -2.7707   10.3642  -15.8795 O   0  0  0  0  0  0  0  0  0  0  0  0
   -3.3470   10.7050  -14.6850 C   0  0  0  0  0  0  0  0  0  0  0  0
   -7.1771    8.1096  -20.4014 N   0  0  0  0  0  0  0  0  0  0  0  0
   -6.5815    7.2844  -20.3327 H   0  0  0  0  0  0  0  0  0  0  0  0
   -7.9980    8.2442  -19.1054 C   0  0  0  0  0  0  0  0  0  0  0  0
   -7.6456    7.2613  -18.0377 C   0  0  0  0  0  0  0  0  0  0  0  0
   -7.4396    7.7953  -16.6446 C   0  0  0  0  0  0  0  0  0  0  0  0
   -6.2445    7.2860  -15.8740 C   0  0  0  0  0  0  0  0  0  0  0  0
   -5.2133    5.1500  -15.8899 O   0  0  0  0  0  0  0  0  0  0  0  0
   -6.2308    5.8268  -15.6144 C   0  0  0  0  0  0  0  0  0  0  0  0
   -7.2451    5.2788  -15.1057 O   0  0  0  0  0  0  0  0  0  0  0  0
   -8.0023    5.7919  -14.9024 H   0  0  0  0  0  0  0  0  0  0  0  0
  8  7  1  0  0  0
  8  9  2  0  0  0
  7  6  2  0  0  0
  9 10  1  0  0  0
  6  5  1  0  0  0
 10  5  1  0  0  0
 10 11  2  0  0  0
  5  4  2  0  0  0
  3  1  2  0  0  0
 14 11  1  0  0  0
 14 15  1  0  0  0
 11 12  1  0  0  0
  4  1  1  0  0  0
  4 13  1  0  0  0
  1 16  1  0  0  0
  1  2  2  0  0  0
 16 18  1  0  0  0
 12 13  2  0  0  0
 18 19  1  0  0  0
 19 20  1  0  0  0
 21 20  1  0  0  0
 21 23  1  0  0  0
 23 22  2  0  0  0
 23 24  1  0  0  0
 24 25  1  0  0  0
 16 17  1  0  0  0
M  END
> <minimizedAffinity>
-7.01953

$$$$
5Y12_8JX_A_201


 25 26  0  0  0  0  0  0  0  0999 V2000
   -3.7484    5.8354  -17.0432 S   0  0  0  0  0  0  0  0  0  0  0  0
   -4.6248    5.4033  -15.9284 O   0  0  0  0  0  0  0  0  0  0  0  0
   -2.9644    4.7076  -17.5666 O   0  0  0  0  0  0  0  0  0  0  0  0
   -4.8407    6.5356  -18.3484 C   0  0  0  0  0  0  0  0  0  0  0  0
   -4.4981    6.5203  -19.6932 C   0  0  0  0  0  0  0  0  0  0  0  0
   -3.2605    5.9406  -20.1476 C   0  0  0  0  0  0  0  0  0  0  0  0
   -2.9538    5.9262  -21.4645 C   0  0  0  0  0  0  0  0  0  0  0  0
   -3.8679    6.4940  -22.4169 C   0  0  0  0  0  0  0  0  0  0  0  0
   -5.0502    7.0600  -21.9777 C   0  0  0  0  0  0  0  0  0  0  0  0
   -5.3688    7.0599  -20.6071 C   0  0  0  0  0  0  0  0  0  0  0  0
   -6.5898    7.6296  -20.1696 C   0  0  0  0  0  0  0  0  0  0  0  0
   -6.9130    7.6546  -18.8422 C   0  0  0  0  0  0  0  0  0  0  0  0
   -6.0447    7.1040  -17.9240 C   0  0  0  0  0  0  0  0  0  0  0  0
   -7.4641    8.1800  -21.1009 O   0  0  0  0  0  0  0  0  0  0  0  0
   -8.3132    9.1864  -20.7255 C   0  0  0  0  0  0  0  0  0  0  0  0
   -2.7043    6.9761  -16.5785 N   0  0  0  0  0  0  0  0  0  0  0  0
   -2.2549    7.3709  -17.4046 H   0  0  0  0  0  0  0  0  0  0  0  0
   -3.4114    8.1047  -15.8053 C   0  0  0  0  0  0  0  0  0  0  0  0
   -3.2429    9.4666  -16.3946 C   0  0  0  0  0  0  0  0  0  0  0  0
   -2.7984    9.5501  -17.8313 C   0  0  0  0  0  0  0  0  0  0  0  0
   -3.8220    9.9886  -18.8517 C   0  0  0  0  0  0  0  0  0  0  0  0
   -3.0788   12.2408  -18.8816 O   0  0  0  0  0  0  0  0  0  0  0  0
   -4.0494   11.4508  -18.9358 C   0  0  0  0  0  0  0  0  0  0  0  0
   -5.2232   11.8880  -19.0728 O   0  0  0  0  0  0  0  0  0  0  0  0
   -5.9440   11.2907  -19.1126 H   0  0  0  0  0  0  0  0  0  0  0  0
  8  7  1  0  0  0
  8  9  2  0  0  0
  7  6  2  0  0  0
  9 10  1  0  0  0
  6  5  1  0  0  0
 10  5  1  0  0  0
 10 11  2  0  0  0
  5  4  2  0  0  0
  3  1  2  0  0  0
 14 11  1  0  0  0
 14 15  1  0  0  0
 11 12  1  0  0  0
  4  1  1  0  0  0
  4 13  1  0  0  0
  1 16  1  0  0  0
  1  2  2  0  0  0
 16 18  1  0  0  0
 12 13  2  0  0  0
 18 19  1  0  0  0
 19 20  1  0  0  0
 21 20  1  0  0  0
 21 23  1  0  0  0
 23 22  2  0  0  0
 23 24  1  0  0  0
 24 25  1  0  0  0
 16 17  1  0  0  0
M  END
> <minimizedAffinity>
-6.98370

$$$$
