1O0M_U2P_A_1101


 26 27  0  0  0  0  0  0  0  0999 V2000
   39.4904    0.8010   23.6825 C   0  0  0  0  0  0  0  0  0  0  0  0
   38.6240    1.4325   24.6591 O   0  0  0  0  0  0  0  0  0  0  0  0
   37.2744    1.0615   24.4157 C   0  0  0  0  0  0  0  0  0  0  0  0
   37.2873    0.0183   23.2916 C   0  0  0  0  0  0  0  0  0  0  0  0
   38.5593    0.4160   22.5443 C   0  0  0  0  0  0  0  0  0  0  0  0
   39.1210   -0.6556   21.7931 O   0  0  0  0  0  0  0  0  0  0  0  0
   39.3110   -1.4004   22.3846 H   0  0  0  0  0  0  0  0  0  0  0  0
   36.5069    2.2913   24.1489 N   0  0  0  0  0  0  0  0  0  0  0  0
   36.9740    3.2529   23.2803 C   0  0  0  0  0  0  0  0  0  0  0  0
   36.3239    4.3977   23.0484 C   0  0  0  0  0  0  0  0  0  0  0  0
   35.0887    4.6598   23.7165 C   0  0  0  0  0  0  0  0  0  0  0  0
   34.4173    5.6862   23.6130 O   0  0  0  0  0  0  0  0  0  0  0  0
   34.6644    3.6528   24.5600 N   0  0  0  0  0  0  0  0  0  0  0  0
   35.3006    2.4635   24.8150 C   0  0  0  0  0  0  0  0  0  0  0  0
   34.8286    1.6285   25.5708 O   0  0  0  0  0  0  0  0  0  0  0  0
   33.8126    3.8040   25.0299 H   0  0  0  0  0  0  0  0  0  0  0  0
   40.4845    2.1973   21.9651 O   0  0  0  0  0  0  0  0  0  0  0  0
   40.6213    1.7400   23.3247 C   0  0  0  0  0  0  0  0  0  0  0  0
   41.2157    2.7975   21.7507 H   0  0  0  0  0  0  0  0  0  0  0  0
   37.3771   -1.2541   23.9150 O   0  0  0  0  0  0  0  0  0  0  0  0
   36.5862   -2.5222   23.3139 P   0  0  0  0  0  0  0  0  0  0  0  0
   36.3374   -3.4882   24.4622 O   0  0  0  0  0  0  0  0  0  0  0  0
   35.2949   -1.9386   22.7653 O   0  0  0  0  0  0  0  0  0  0  0  0
   37.4594   -3.1167   22.2175 O   0  0  0  0  0  0  0  0  0  0  0  0
   34.7704   -1.5719   23.4943 H   0  0  0  0  0  0  0  0  0  0  0  0
   38.2703   -3.4768   22.6096 H   0  0  0  0  0  0  0  0  0  0  0  0
 17 18  1  0  0  0
 18  1  1  0  0  0
  1  2  1  0  0  0
  1  5  1  0  0  0
  2  3  1  0  0  0
  3  8  1  0  0  0
  3  4  1  0  0  0
  8  9  1  0  0  0
  8 14  1  0  0  0
  9 10  2  0  0  0
 10 11  1  0  0  0
 11 12  2  0  0  0
 11 13  1  0  0  0
 13 14  1  0  0  0
 14 15  2  0  0  0
  4 20  1  0  0  0
  4  5  1  0  0  0
 20 21  1  0  0  0
 21 22  2  0  0  0
 21 23  1  0  0  0
 21 24  1  0  0  0
  5  6  1  0  0  0
 17 19  1  0  0  0
 13 16  1  0  0  0
 23 25  1  0  0  0
 24 26  1  0  0  0
  6  7  1  0  0  0
M  END
> <minimizedAffinity>
-7.09068

$$$$
1O0M_U2P_A_1101


 26 27  0  0  0  0  0  0  0  0999 V2000
   38.9291    3.8160   22.0444 C   0  0  0  0  0  0  0  0  0  0  0  0
   38.3840    4.4415   23.2339 O   0  0  0  0  0  0  0  0  0  0  0  0
   37.2676    3.6969   23.7001 C   0  0  0  0  0  0  0  0  0  0  0  0
   37.1693    2.4367   22.8315 C   0  0  0  0  0  0  0  0  0  0  0  0
   37.8033    2.9321   21.5326 C   0  0  0  0  0  0  0  0  0  0  0  0
   38.3323    1.8778   20.7346 O   0  0  0  0  0  0  0  0  0  0  0  0
   38.9888    1.3817   21.2482 H   0  0  0  0  0  0  0  0  0  0  0  0
   36.0919    4.5858   23.6868 N   0  0  0  0  0  0  0  0  0  0  0  0
   36.0776    5.7436   22.9405 C   0  0  0  0  0  0  0  0  0  0  0  0
   35.0451    6.5926   22.9392 C   0  0  0  0  0  0  0  0  0  0  0  0
   33.8938    6.3103   23.7364 C   0  0  0  0  0  0  0  0  0  0  0  0
   32.8994    7.0275   23.8451 O   0  0  0  0  0  0  0  0  0  0  0  0
   33.9603    5.1290   24.4475 N   0  0  0  0  0  0  0  0  0  0  0  0
   34.9985    4.2312   24.4660 C   0  0  0  0  0  0  0  0  0  0  0  0
   34.9495    3.2016   25.1208 O   0  0  0  0  0  0  0  0  0  0  0  0
   33.1778    4.9061   25.0018 H   0  0  0  0  0  0  0  0  0  0  0  0
   39.8202    4.2909   19.8380 O   0  0  0  0  0  0  0  0  0  0  0  0
   39.4208    4.8819   21.0901 C   0  0  0  0  0  0  0  0  0  0  0  0
   40.1325    4.9858   19.2376 H   0  0  0  0  0  0  0  0  0  0  0  0
   37.9327    1.4313   23.4810 O   0  0  0  0  0  0  0  0  0  0  0  0
   37.2265    0.0976   24.0444 P   0  0  0  0  0  0  0  0  0  0  0  0
   38.3313   -0.8846   24.4027 O   0  0  0  0  0  0  0  0  0  0  0  0
   36.4553    0.5645   25.2677 O   0  0  0  0  0  0  0  0  0  0  0  0
   36.3059   -0.4198   22.9478 O   0  0  0  0  0  0  0  0  0  0  0  0
   37.0776    0.8850   25.9393 H   0  0  0  0  0  0  0  0  0  0  0  0
   36.8369   -0.7065   22.1883 H   0  0  0  0  0  0  0  0  0  0  0  0
 17 18  1  0  0  0
 18  1  1  0  0  0
  1  2  1  0  0  0
  1  5  1  0  0  0
  2  3  1  0  0  0
  3  8  1  0  0  0
  3  4  1  0  0  0
  8  9  1  0  0  0
  8 14  1  0  0  0
  9 10  2  0  0  0
 10 11  1  0  0  0
 11 12  2  0  0  0
 11 13  1  0  0  0
 13 14  1  0  0  0
 14 15  2  0  0  0
  4 20  1  0  0  0
  4  5  1  0  0  0
 20 21  1  0  0  0
 21 22  2  0  0  0
 21 23  1  0  0  0
 21 24  1  0  0  0
  5  6  1  0  0  0
 17 19  1  0  0  0
 13 16  1  0  0  0
 23 25  1  0  0  0
 24 26  1  0  0  0
  6  7  1  0  0  0
M  END
> <minimizedAffinity>
-6.58348

$$$$
1O0M_U2P_A_1101


 26 27  0  0  0  0  0  0  0  0999 V2000
   35.1169    4.3050   23.5230 C   0  0  0  0  0  0  0  0  0  0  0  0
   36.2878    4.4502   22.6798 O   0  0  0  0  0  0  0  0  0  0  0  0
   37.3296    3.6089   23.1545 C   0  0  0  0  0  0  0  0  0  0  0  0
   36.7474    2.7688   24.2980 C   0  0  0  0  0  0  0  0  0  0  0  0
   35.6517    3.7015   24.8116 C   0  0  0  0  0  0  0  0  0  0  0  0
   34.6118    3.0124   25.4985 O   0  0  0  0  0  0  0  0  0  0  0  0
   34.2223    2.3461   24.9108 H   0  0  0  0  0  0  0  0  0  0  0  0
   38.4805    4.4627   23.4994 N   0  0  0  0  0  0  0  0  0  0  0  0
   38.3514    5.8298   23.6075 C   0  0  0  0  0  0  0  0  0  0  0  0
   39.3829    6.6364   23.8768 C   0  0  0  0  0  0  0  0  0  0  0  0
   40.6859    6.0824   24.0661 C   0  0  0  0  0  0  0  0  0  0  0  0
   41.7155    6.7207   24.2840 O   0  0  0  0  0  0  0  0  0  0  0  0
   40.7484    4.7072   23.9625 N   0  0  0  0  0  0  0  0  0  0  0  0
   39.7107    3.8491   23.6962 C   0  0  0  0  0  0  0  0  0  0  0  0
   39.8714    2.6398   23.6418 O   0  0  0  0  0  0  0  0  0  0  0  0
   41.6338    4.2973   24.0940 H   0  0  0  0  0  0  0  0  0  0  0  0
   33.8973    5.8045   24.9899 O   0  0  0  0  0  0  0  0  0  0  0  0
   34.4185    5.6403   23.6565 C   0  0  0  0  0  0  0  0  0  0  0  0
   33.4531    6.6639   25.0598 H   0  0  0  0  0  0  0  0  0  0  0  0
   36.2423    1.5773   23.7143 O   0  0  0  0  0  0  0  0  0  0  0  0
   36.5840    0.1389   24.3542 P   0  0  0  0  0  0  0  0  0  0  0  0
   38.0736   -0.1013   24.1622 O   0  0  0  0  0  0  0  0  0  0  0  0
   36.2097    0.2776   25.8205 O   0  0  0  0  0  0  0  0  0  0  0  0
   35.7202   -0.8883   23.6354 O   0  0  0  0  0  0  0  0  0  0  0  0
   36.7822    0.9394   26.2391 H   0  0  0  0  0  0  0  0  0  0  0  0
   35.9914   -0.9451   22.7058 H   0  0  0  0  0  0  0  0  0  0  0  0
 17 18  1  0  0  0
 18  1  1  0  0  0
  1  2  1  0  0  0
  1  5  1  0  0  0
  2  3  1  0  0  0
  3  8  1  0  0  0
  3  4  1  0  0  0
  8  9  1  0  0  0
  8 14  1  0  0  0
  9 10  2  0  0  0
 10 11  1  0  0  0
 11 12  2  0  0  0
 11 13  1  0  0  0
 13 14  1  0  0  0
 14 15  2  0  0  0
  4 20  1  0  0  0
  4  5  1  0  0  0
 20 21  1  0  0  0
 21 22  2  0  0  0
 21 23  1  0  0  0
 21 24  1  0  0  0
  5  6  1  0  0  0
 17 19  1  0  0  0
 13 16  1  0  0  0
 23 25  1  0  0  0
 24 26  1  0  0  0
  6  7  1  0  0  0
M  END
> <minimizedAffinity>
-6.40795

$$$$
1O0M_U2P_A_1101


 26 27  0  0  0  0  0  0  0  0999 V2000
   37.6522    6.4153   22.2038 C   0  0  0  0  0  0  0  0  0  0  0  0
   36.8239    5.2562   21.9320 O   0  0  0  0  0  0  0  0  0  0  0  0
   35.9641    5.0101   23.0359 C   0  0  0  0  0  0  0  0  0  0  0  0
   36.1581    6.1644   24.0269 C   0  0  0  0  0  0  0  0  0  0  0  0
   37.5968    6.5734   23.7146 C   0  0  0  0  0  0  0  0  0  0  0  0
   37.8831    7.9205   24.0770 O   0  0  0  0  0  0  0  0  0  0  0  0
   37.2692    8.5159   23.6192 H   0  0  0  0  0  0  0  0  0  0  0  0
   36.2592    3.6601   23.5486 N   0  0  0  0  0  0  0  0  0  0  0  0
   37.2622    2.8898   23.0025 C   0  0  0  0  0  0  0  0  0  0  0  0
   37.5278    1.6465   23.4153 C   0  0  0  0  0  0  0  0  0  0  0  0
   36.7538    1.0679   24.4674 C   0  0  0  0  0  0  0  0  0  0  0  0
   36.8787   -0.0739   24.9097 O   0  0  0  0  0  0  0  0  0  0  0  0
   35.7761    1.8936   24.9852 N   0  0  0  0  0  0  0  0  0  0  0  0
   35.4818    3.1755   24.5923 C   0  0  0  0  0  0  0  0  0  0  0  0
   34.6020    3.8293   25.1305 O   0  0  0  0  0  0  0  0  0  0  0  0
   35.2305    1.5227   25.7158 H   0  0  0  0  0  0  0  0  0  0  0  0
   40.0473    6.5382   22.5721 O   0  0  0  0  0  0  0  0  0  0  0  0
   39.0277    6.2070   21.6093 C   0  0  0  0  0  0  0  0  0  0  0  0
   40.9223    6.3999   22.1770 H   0  0  0  0  0  0  0  0  0  0  0  0
   35.2051    7.1602   23.6870 O   0  0  0  0  0  0  0  0  0  0  0  0
   33.8461    7.3223   24.5367 P   0  0  0  0  0  0  0  0  0  0  0  0
   32.7442    6.6044   23.7724 O   0  0  0  0  0  0  0  0  0  0  0  0
   34.1493    6.6550   25.8679 O   0  0  0  0  0  0  0  0  0  0  0  0
   33.5872    8.8150   24.6880 O   0  0  0  0  0  0  0  0  0  0  0  0
   34.3074    5.7085   25.7265 H   0  0  0  0  0  0  0  0  0  0  0  0
   33.3985    9.2002   23.8180 H   0  0  0  0  0  0  0  0  0  0  0  0
 17 18  1  0  0  0
 18  1  1  0  0  0
  1  2  1  0  0  0
  1  5  1  0  0  0
  2  3  1  0  0  0
  3  8  1  0  0  0
  3  4  1  0  0  0
  8  9  1  0  0  0
  8 14  1  0  0  0
  9 10  2  0  0  0
 10 11  1  0  0  0
 11 12  2  0  0  0
 11 13  1  0  0  0
 13 14  1  0  0  0
 14 15  2  0  0  0
  4 20  1  0  0  0
  4  5  1  0  0  0
 20 21  1  0  0  0
 21 22  2  0  0  0
 21 23  1  0  0  0
 21 24  1  0  0  0
  5  6  1  0  0  0
 17 19  1  0  0  0
 13 16  1  0  0  0
 23 25  1  0  0  0
 24 26  1  0  0  0
  6  7  1  0  0  0
M  END
> <minimizedAffinity>
-6.31699

$$$$
1O0M_U2P_A_1101


 26 27  0  0  0  0  0  0  0  0999 V2000
   39.7104    0.3043   24.7464 C   0  0  0  0  0  0  0  0  0  0  0  0
   38.8222    1.2425   24.0873 O   0  0  0  0  0  0  0  0  0  0  0  0
   38.1303    0.5897   23.0321 C   0  0  0  0  0  0  0  0  0  0  0  0
   38.4983   -0.8976   23.1016 C   0  0  0  0  0  0  0  0  0  0  0  0
   39.8842   -0.8218   23.7403 C   0  0  0  0  0  0  0  0  0  0  0  0
   40.2547   -2.0233   24.4091 O   0  0  0  0  0  0  0  0  0  0  0  0
   39.5946   -2.2319   25.0885 H   0  0  0  0  0  0  0  0  0  0  0  0
   38.4646    1.2813   21.7742 N   0  0  0  0  0  0  0  0  0  0  0  0
   39.4797    0.8330   20.9581 C   0  0  0  0  0  0  0  0  0  0  0  0
   39.8362    1.4607   19.8330 C   0  0  0  0  0  0  0  0  0  0  0  0
   39.1504    2.6493   19.4362 C   0  0  0  0  0  0  0  0  0  0  0  0
   39.4072    3.3325   18.4450 O   0  0  0  0  0  0  0  0  0  0  0  0
   38.1332    3.0386   20.2844 N   0  0  0  0  0  0  0  0  0  0  0  0
   37.7353    2.4151   21.4407 C   0  0  0  0  0  0  0  0  0  0  0  0
   36.8071    2.8353   22.1138 O   0  0  0  0  0  0  0  0  0  0  0  0
   37.6393    3.8522   20.0325 H   0  0  0  0  0  0  0  0  0  0  0  0
   40.6947    1.9621   26.2196 O   0  0  0  0  0  0  0  0  0  0  0  0
   40.9765    1.0157   25.1701 C   0  0  0  0  0  0  0  0  0  0  0  0
   41.5149    2.4095   26.4802 H   0  0  0  0  0  0  0  0  0  0  0  0
   37.5304   -1.5203   23.9328 O   0  0  0  0  0  0  0  0  0  0  0  0
   36.4853   -2.5843   23.3238 P   0  0  0  0  0  0  0  0  0  0  0  0
   36.1131   -3.5462   24.4417 O   0  0  0  0  0  0  0  0  0  0  0  0
   35.3034   -1.7409   22.8755 O   0  0  0  0  0  0  0  0  0  0  0  0
   37.1762   -3.2727   22.1547 O   0  0  0  0  0  0  0  0  0  0  0  0
   34.8936   -1.3218   23.6484 H   0  0  0  0  0  0  0  0  0  0  0  0
   37.9220   -3.7984   22.4840 H   0  0  0  0  0  0  0  0  0  0  0  0
 17 18  1  0  0  0
 18  1  1  0  0  0
  1  2  1  0  0  0
  1  5  1  0  0  0
  2  3  1  0  0  0
  3  8  1  0  0  0
  3  4  1  0  0  0
  8  9  1  0  0  0
  8 14  1  0  0  0
  9 10  2  0  0  0
 10 11  1  0  0  0
 11 12  2  0  0  0
 11 13  1  0  0  0
 13 14  1  0  0  0
 14 15  2  0  0  0
  4 20  1  0  0  0
  4  5  1  0  0  0
 20 21  1  0  0  0
 21 22  2  0  0  0
 21 23  1  0  0  0
 21 24  1  0  0  0
  5  6  1  0  0  0
 17 19  1  0  0  0
 13 16  1  0  0  0
 23 25  1  0  0  0
 24 26  1  0  0  0
  6  7  1  0  0  0
M  END
> <minimizedAffinity>
-6.12459

$$$$
1O0M_U2P_A_1101


 26 27  0  0  0  0  0  0  0  0999 V2000
   40.1768    0.2181   22.9590 C   0  0  0  0  0  0  0  0  0  0  0  0
   39.5048    0.6162   24.1809 O   0  0  0  0  0  0  0  0  0  0  0  0
   38.1924    0.0730   24.2070 C   0  0  0  0  0  0  0  0  0  0  0  0
   38.0576   -0.8437   22.9849 C   0  0  0  0  0  0  0  0  0  0  0  0
   39.0499   -0.1906   22.0241 C   0  0  0  0  0  0  0  0  0  0  0  0
   39.5375   -1.0890   21.0326 O   0  0  0  0  0  0  0  0  0  0  0  0
   39.9559   -1.8505   21.4639 H   0  0  0  0  0  0  0  0  0  0  0  0
   37.2387    1.1942   24.2837 N   0  0  0  0  0  0  0  0  0  0  0  0
   37.5384    2.4275   23.7483 C   0  0  0  0  0  0  0  0  0  0  0  0
   36.7145    3.4763   23.8376 C   0  0  0  0  0  0  0  0  0  0  0  0
   35.4622    3.3391   24.5112 C   0  0  0  0  0  0  0  0  0  0  0  0
   34.6373    4.2353   24.6881 O   0  0  0  0  0  0  0  0  0  0  0  0
   35.2114    2.0769   25.0107 N   0  0  0  0  0  0  0  0  0  0  0  0
   36.0290    0.9772   24.9302 C   0  0  0  0  0  0  0  0  0  0  0  0
   35.7032   -0.1043   25.3943 O   0  0  0  0  0  0  0  0  0  0  0  0
   34.3526    1.9517   25.4755 H   0  0  0  0  0  0  0  0  0  0  0  0
   41.0811    1.3891   21.0359 O   0  0  0  0  0  0  0  0  0  0  0  0
   41.0625    1.3454   22.4761 C   0  0  0  0  0  0  0  0  0  0  0  0
   41.6523    2.1158   20.7418 H   0  0  0  0  0  0  0  0  0  0  0  0
   38.4517   -2.1423   23.4018 O   0  0  0  0  0  0  0  0  0  0  0  0
   37.3797   -3.3423   23.4785 P   0  0  0  0  0  0  0  0  0  0  0  0
   37.9320   -4.3840   24.4395 O   0  0  0  0  0  0  0  0  0  0  0  0
   36.1146   -2.6874   24.0077 O   0  0  0  0  0  0  0  0  0  0  0  0
   37.2019   -3.8759   22.0638 O   0  0  0  0  0  0  0  0  0  0  0  0
   36.2711   -2.3626   24.9082 H   0  0  0  0  0  0  0  0  0  0  0  0
   38.0297   -4.2842   21.7658 H   0  0  0  0  0  0  0  0  0  0  0  0
 17 18  1  0  0  0
 18  1  1  0  0  0
  1  2  1  0  0  0
  1  5  1  0  0  0
  2  3  1  0  0  0
  3  8  1  0  0  0
  3  4  1  0  0  0
  8  9  1  0  0  0
  8 14  1  0  0  0
  9 10  2  0  0  0
 10 11  1  0  0  0
 11 12  2  0  0  0
 11 13  1  0  0  0
 13 14  1  0  0  0
 14 15  2  0  0  0
  4 20  1  0  0  0
  4  5  1  0  0  0
 20 21  1  0  0  0
 21 22  2  0  0  0
 21 23  1  0  0  0
 21 24  1  0  0  0
  5  6  1  0  0  0
 17 19  1  0  0  0
 13 16  1  0  0  0
 23 25  1  0  0  0
 24 26  1  0  0  0
  6  7  1  0  0  0
M  END
> <minimizedAffinity>
-6.07467

$$$$
1O0M_U2P_A_1101


 26 27  0  0  0  0  0  0  0  0999 V2000
   41.5848    0.4824   24.4172 C   0  0  0  0  0  0  0  0  0  0  0  0
   40.9709   -0.3165   23.3739 O   0  0  0  0  0  0  0  0  0  0  0  0
   39.5589   -0.3082   23.5299 C   0  0  0  0  0  0  0  0  0  0  0  0
   39.2349    0.6674   24.6681 C   0  0  0  0  0  0  0  0  0  0  0  0
   40.5171    0.5816   25.4946 C   0  0  0  0  0  0  0  0  0  0  0  0
   40.7385    1.7358   26.2989 O   0  0  0  0  0  0  0  0  0  0  0  0
   40.7685    2.5232   25.7332 H   0  0  0  0  0  0  0  0  0  0  0  0
   39.1158   -1.7004   23.7247 N   0  0  0  0  0  0  0  0  0  0  0  0
   39.9919   -2.6799   24.1374 C   0  0  0  0  0  0  0  0  0  0  0  0
   39.6329   -3.9593   24.2829 C   0  0  0  0  0  0  0  0  0  0  0  0
   38.2884   -4.3545   24.0059 C   0  0  0  0  0  0  0  0  0  0  0  0
   37.8471   -5.5018   24.0693 O   0  0  0  0  0  0  0  0  0  0  0  0
   37.4545   -3.3268   23.6133 N   0  0  0  0  0  0  0  0  0  0  0  0
   37.7863   -2.0035   23.4619 C   0  0  0  0  0  0  0  0  0  0  0  0
   36.9637   -1.1668   23.1235 O   0  0  0  0  0  0  0  0  0  0  0  0
   36.5199   -3.5694   23.4211 H   0  0  0  0  0  0  0  0  0  0  0  0
   42.8058   -0.6356   26.1911 O   0  0  0  0  0  0  0  0  0  0  0  0
   42.8934   -0.1499   24.8372 C   0  0  0  0  0  0  0  0  0  0  0  0
   43.6510   -1.0376   26.4457 H   0  0  0  0  0  0  0  0  0  0  0  0
   39.0355    1.9403   24.0718 O   0  0  0  0  0  0  0  0  0  0  0  0
   37.5488    2.5122   23.8315 P   0  0  0  0  0  0  0  0  0  0  0  0
   37.6619    4.0214   23.6789 O   0  0  0  0  0  0  0  0  0  0  0  0
   37.0863    1.8393   22.5498 O   0  0  0  0  0  0  0  0  0  0  0  0
   36.7097    2.0988   25.0326 O   0  0  0  0  0  0  0  0  0  0  0  0
   37.6456    2.1293   21.8123 H   0  0  0  0  0  0  0  0  0  0  0  0
   37.0375    2.5495   25.8265 H   0  0  0  0  0  0  0  0  0  0  0  0
 17 18  1  0  0  0
 18  1  1  0  0  0
  1  2  1  0  0  0
  1  5  1  0  0  0
  2  3  1  0  0  0
  3  8  1  0  0  0
  3  4  1  0  0  0
  8  9  1  0  0  0
  8 14  1  0  0  0
  9 10  2  0  0  0
 10 11  1  0  0  0
 11 12  2  0  0  0
 11 13  1  0  0  0
 13 14  1  0  0  0
 14 15  2  0  0  0
  4 20  1  0  0  0
  4  5  1  0  0  0
 20 21  1  0  0  0
 21 22  2  0  0  0
 21 23  1  0  0  0
 21 24  1  0  0  0
  5  6  1  0  0  0
 17 19  1  0  0  0
 13 16  1  0  0  0
 23 25  1  0  0  0
 24 26  1  0  0  0
  6  7  1  0  0  0
M  END
> <minimizedAffinity>
-5.90220

$$$$
1O0M_U2P_A_1101


 26 27  0  0  0  0  0  0  0  0999 V2000
   37.3934   -2.4800   23.0317 C   0  0  0  0  0  0  0  0  0  0  0  0
   38.8244   -2.7091   23.0873 O   0  0  0  0  0  0  0  0  0  0  0  0
   39.0816   -4.0671   23.4158 C   0  0  0  0  0  0  0  0  0  0  0  0
   37.7293   -4.7902   23.4426 C   0  0  0  0  0  0  0  0  0  0  0  0
   36.7946   -3.6393   23.8115 C   0  0  0  0  0  0  0  0  0  0  0  0
   35.4492   -3.8624   23.4015 O   0  0  0  0  0  0  0  0  0  0  0  0
   35.4232   -4.0078   22.4428 H   0  0  0  0  0  0  0  0  0  0  0  0
   39.8541   -4.0919   24.6708 N   0  0  0  0  0  0  0  0  0  0  0  0
   39.5569   -4.9839   25.6775 C   0  0  0  0  0  0  0  0  0  0  0  0
   40.2096   -5.0047   26.8438 C   0  0  0  0  0  0  0  0  0  0  0  0
   41.2661   -4.0731   27.0821 C   0  0  0  0  0  0  0  0  0  0  0  0
   41.9156   -3.9709   28.1226 O   0  0  0  0  0  0  0  0  0  0  0  0
   41.5282   -3.2174   26.0310 N   0  0  0  0  0  0  0  0  0  0  0  0
   40.8852   -3.1735   24.8191 C   0  0  0  0  0  0  0  0  0  0  0  0
   41.2078   -2.3833   23.9458 O   0  0  0  0  0  0  0  0  0  0  0  0
   42.2556   -2.5677   26.1653 H   0  0  0  0  0  0  0  0  0  0  0  0
   35.6647   -0.8370   23.4782 O   0  0  0  0  0  0  0  0  0  0  0  0
   37.0800   -1.0962   23.5565 C   0  0  0  0  0  0  0  0  0  0  0  0
   35.4796    0.0526   23.8178 H   0  0  0  0  0  0  0  0  0  0  0  0
   37.5091   -5.2950   22.1341 O   0  0  0  0  0  0  0  0  0  0  0  0
   36.9367   -6.7844   21.9126 P   0  0  0  0  0  0  0  0  0  0  0  0
   38.0374   -7.7573   22.3071 O   0  0  0  0  0  0  0  0  0  0  0  0
   35.7356   -6.8709   22.8394 O   0  0  0  0  0  0  0  0  0  0  0  0
   36.5410   -6.8994   20.4470 O   0  0  0  0  0  0  0  0  0  0  0  0
   36.0313   -6.7935   23.7600 H   0  0  0  0  0  0  0  0  0  0  0  0
   37.3344   -6.8395   19.8922 H   0  0  0  0  0  0  0  0  0  0  0  0
 17 18  1  0  0  0
 18  1  1  0  0  0
  1  2  1  0  0  0
  1  5  1  0  0  0
  2  3  1  0  0  0
  3  8  1  0  0  0
  3  4  1  0  0  0
  8  9  1  0  0  0
  8 14  1  0  0  0
  9 10  2  0  0  0
 10 11  1  0  0  0
 11 12  2  0  0  0
 11 13  1  0  0  0
 13 14  1  0  0  0
 14 15  2  0  0  0
  4 20  1  0  0  0
  4  5  1  0  0  0
 20 21  1  0  0  0
 21 22  2  0  0  0
 21 23  1  0  0  0
 21 24  1  0  0  0
  5  6  1  0  0  0
 17 19  1  0  0  0
 13 16  1  0  0  0
 23 25  1  0  0  0
 24 26  1  0  0  0
  6  7  1  0  0  0
M  END
> <minimizedAffinity>
-5.74151

$$$$
1O0M_U2P_A_1101


 26 27  0  0  0  0  0  0  0  0999 V2000
   40.2313    1.2533   24.0401 C   0  0  0  0  0  0  0  0  0  0  0  0
   40.1556    0.0317   23.2621 O   0  0  0  0  0  0  0  0  0  0  0  0
   39.0909    0.1230   22.3260 C   0  0  0  0  0  0  0  0  0  0  0  0
   38.5294    1.5473   22.4165 C   0  0  0  0  0  0  0  0  0  0  0  0
   38.8659    1.8979   23.8651 C   0  0  0  0  0  0  0  0  0  0  0  0
   38.9539    3.3011   24.0915 O   0  0  0  0  0  0  0  0  0  0  0  0
   39.6223    3.6826   23.5011 H   0  0  0  0  0  0  0  0  0  0  0  0
   38.1408   -0.9670   22.6118 N   0  0  0  0  0  0  0  0  0  0  0  0
   36.9584   -0.7303   23.2776 C   0  0  0  0  0  0  0  0  0  0  0  0
   36.0951   -1.7020   23.5898 C   0  0  0  0  0  0  0  0  0  0  0  0
   36.3866   -3.0529   23.2280 C   0  0  0  0  0  0  0  0  0  0  0  0
   35.6911   -4.0345   23.4883 O   0  0  0  0  0  0  0  0  0  0  0  0
   37.5760   -3.2241   22.5486 N   0  0  0  0  0  0  0  0  0  0  0  0
   38.4804   -2.2505   22.2047 C   0  0  0  0  0  0  0  0  0  0  0  0
   39.5010   -2.5077   21.5854 O   0  0  0  0  0  0  0  0  0  0  0  0
   37.8001   -4.1448   22.2817 H   0  0  0  0  0  0  0  0  0  0  0  0
   40.8055    2.1347   26.2267 O   0  0  0  0  0  0  0  0  0  0  0  0
   40.6323    0.9259   25.4616 C   0  0  0  0  0  0  0  0  0  0  0  0
   41.0620    1.9088   27.1344 H   0  0  0  0  0  0  0  0  0  0  0  0
   39.2420    2.3292   21.4697 O   0  0  0  0  0  0  0  0  0  0  0  0
   38.4768    3.4117   20.5544 P   0  0  0  0  0  0  0  0  0  0  0  0
   39.5386    4.2490   19.8578 O   0  0  0  0  0  0  0  0  0  0  0  0
   37.6702    2.5768   19.5738 O   0  0  0  0  0  0  0  0  0  0  0  0
   37.5872    4.2316   21.4786 O   0  0  0  0  0  0  0  0  0  0  0  0
   38.2734    2.0721   19.0062 H   0  0  0  0  0  0  0  0  0  0  0  0
   38.1403    4.7476   22.0859 H   0  0  0  0  0  0  0  0  0  0  0  0
 17 18  1  0  0  0
 18  1  1  0  0  0
  1  2  1  0  0  0
  1  5  1  0  0  0
  2  3  1  0  0  0
  3  8  1  0  0  0
  3  4  1  0  0  0
  8  9  1  0  0  0
  8 14  1  0  0  0
  9 10  2  0  0  0
 10 11  1  0  0  0
 11 12  2  0  0  0
 11 13  1  0  0  0
 13 14  1  0  0  0
 14 15  2  0  0  0
  4 20  1  0  0  0
  4  5  1  0  0  0
 20 21  1  0  0  0
 21 22  2  0  0  0
 21 23  1  0  0  0
 21 24  1  0  0  0
  5  6  1  0  0  0
 17 19  1  0  0  0
 13 16  1  0  0  0
 23 25  1  0  0  0
 24 26  1  0  0  0
  6  7  1  0  0  0
M  END
> <minimizedAffinity>
-5.49477

$$$$
1O0M_U2P_A_1101


 26 27  0  0  0  0  0  0  0  0999 V2000
   40.6971    2.9260   23.5280 C   0  0  0  0  0  0  0  0  0  0  0  0
   39.7980    1.7884   23.5567 O   0  0  0  0  0  0  0  0  0  0  0  0
   38.7475    1.9820   22.6200 C   0  0  0  0  0  0  0  0  0  0  0  0
   39.0643    3.2661   21.8436 C   0  0  0  0  0  0  0  0  0  0  0  0
   39.8836    4.0343   22.8795 C   0  0  0  0  0  0  0  0  0  0  0  0
   40.7509    5.0017   22.2964 O   0  0  0  0  0  0  0  0  0  0  0  0
   41.3478    4.5644   21.6692 H   0  0  0  0  0  0  0  0  0  0  0  0
   37.4725    1.9702   23.3594 N   0  0  0  0  0  0  0  0  0  0  0  0
   36.6992    3.1045   23.4720 C   0  0  0  0  0  0  0  0  0  0  0  0
   35.5598    3.1389   24.1703 C   0  0  0  0  0  0  0  0  0  0  0  0
   35.1011    1.9620   24.8375 C   0  0  0  0  0  0  0  0  0  0  0  0
   34.0910    1.8770   25.5357 O   0  0  0  0  0  0  0  0  0  0  0  0
   35.9088    0.8545   24.6737 N   0  0  0  0  0  0  0  0  0  0  0  0
   37.0781    0.7811   23.9586 C   0  0  0  0  0  0  0  0  0  0  0  0
   37.7118   -0.2584   23.8631 O   0  0  0  0  0  0  0  0  0  0  0  0
   35.6139    0.0271   25.1183 H   0  0  0  0  0  0  0  0  0  0  0  0
   40.5798    2.3224   25.8752 O   0  0  0  0  0  0  0  0  0  0  0  0
   41.2049    3.2072   24.9251 C   0  0  0  0  0  0  0  0  0  0  0  0
   40.9149    2.5145   26.7650 H   0  0  0  0  0  0  0  0  0  0  0  0
   39.8191    2.8803   20.7048 O   0  0  0  0  0  0  0  0  0  0  0  0
   39.0833    2.4228   19.3467 P   0  0  0  0  0  0  0  0  0  0  0  0
   39.6941    3.2240   18.2072 O   0  0  0  0  0  0  0  0  0  0  0  0
   39.3880    0.9384   19.2319 O   0  0  0  0  0  0  0  0  0  0  0  0
   37.5960    2.6915   19.5300 O   0  0  0  0  0  0  0  0  0  0  0  0
   40.3428    0.8123   19.1167 H   0  0  0  0  0  0  0  0  0  0  0  0
   37.4463    3.6474   19.5987 H   0  0  0  0  0  0  0  0  0  0  0  0
 17 18  1  0  0  0
 18  1  1  0  0  0
  1  2  1  0  0  0
  1  5  1  0  0  0
  2  3  1  0  0  0
  3  8  1  0  0  0
  3  4  1  0  0  0
  8  9  1  0  0  0
  8 14  1  0  0  0
  9 10  2  0  0  0
 10 11  1  0  0  0
 11 12  2  0  0  0
 11 13  1  0  0  0
 13 14  1  0  0  0
 14 15  2  0  0  0
  4 20  1  0  0  0
  4  5  1  0  0  0
 20 21  1  0  0  0
 21 22  2  0  0  0
 21 23  1  0  0  0
 21 24  1  0  0  0
  5  6  1  0  0  0
 17 19  1  0  0  0
 13 16  1  0  0  0
 23 25  1  0  0  0
 24 26  1  0  0  0
  6  7  1  0  0  0
M  END
> <minimizedAffinity>
-5.36474

$$$$
