1O2Q_991_A_246


 31 34  0  0  0  0  0  0  0  0999 V2000
   43.8732   -3.1162   25.5413 C   0  0  0  0  0  0  0  0  0  0  0  0
   43.8467   -1.6915   25.5419 C   0  0  0  0  0  0  0  0  0  0  0  0
   43.9609   -0.5883   24.1396 Cl  0  0  0  0  0  0  0  0  0  0  0  0
   43.6662   -0.9893   26.7483 C   0  0  0  0  0  0  0  0  0  0  0  0
   43.4966   -1.7080   27.9098 C   0  0  0  0  0  0  0  0  0  0  0  0
   43.5499   -3.0619   27.9121 C   0  0  0  0  0  0  0  0  0  0  0  0
   43.7219   -3.8079   26.7514 C   0  0  0  0  0  0  0  0  0  0  0  0
   43.3378   -1.2833   29.1357 N   0  0  0  0  0  0  0  0  0  0  0  0
   43.3680   -3.4684   29.1994 C   0  0  0  0  0  0  0  0  0  0  0  0
   43.2400   -2.3138   29.9518 C   0  0  0  0  0  0  0  0  0  0  0  0
   43.2974   -0.3380   29.4080 H   0  0  0  0  0  0  0  0  0  0  0  0
   44.0899   -3.8264   24.3426 C   0  0  0  0  0  0  0  0  0  0  0  0
   43.3894   -4.9013   24.0308 N   0  0  0  0  0  0  0  0  0  0  0  0
   45.0361   -3.3505   23.5691 N   0  0  0  0  0  0  0  0  0  0  0  0
   42.6874   -5.2252   24.6403 H   0  0  0  0  0  0  0  0  0  0  0  0
   43.5690   -5.3788   23.1888 H   0  0  0  0  0  0  0  0  0  0  0  0
   45.5347   -2.5458   23.8395 H   0  0  0  0  0  0  0  0  0  0  0  0
   45.2478   -3.7979   22.7181 H   0  0  0  0  0  0  0  0  0  0  0  0
   43.0202   -2.2529   31.3417 C   0  0  0  0  0  0  0  0  0  0  0  0
   42.7476   -3.4277   32.0755 C   0  0  0  0  0  0  0  0  0  0  0  0
   42.5374   -3.3571   33.4633 C   0  0  0  0  0  0  0  0  0  0  0  0
   42.5978   -2.1403   34.1274 C   0  0  0  0  0  0  0  0  0  0  0  0
   42.8667   -0.9634   33.4257 C   0  0  0  0  0  0  0  0  0  0  0  0
   43.0765   -1.0103   32.0294 C   0  0  0  0  0  0  0  0  0  0  0  0
   43.3281    0.1704   31.3465 O   0  0  0  0  0  0  0  0  0  0  0  0
   42.9629    0.2657   34.0536 O   0  0  0  0  0  0  0  0  0  0  0  0
   42.8060    1.8113   35.7439 C   0  0  0  0  0  0  0  0  0  0  0  0
   43.3201    0.4444   35.4236 C   0  0  0  0  0  0  0  0  0  0  0  0
   44.8421    0.4652   35.5930 C   0  0  0  0  0  0  0  0  0  0  0  0
   45.2345    1.8745   35.9276 C   0  0  0  0  0  0  0  0  0  0  0  0
   43.9705    2.6029   36.2679 C   0  0  0  0  0  0  0  0  0  0  0  0
  1  2  2  0  0  0
  1  7  1  0  0  0
  1 12  1  0  0  0
  2  3  1  0  0  0
  2  4  1  0  0  0
  4  5  2  0  0  0
  5  6  1  0  0  0
  5  8  1  0  0  0
  6  7  2  0  0  0
  6  9  1  0  0  0
 12 13  1  0  0  0
 12 14  2  0  0  0
  8 10  1  0  0  0
  9 10  2  0  0  0
 10 19  1  0  0  0
 19 20  2  0  0  0
 19 24  1  0  0  0
 20 21  1  0  0  0
 21 22  2  0  0  0
 22 23  1  0  0  0
 23 26  1  0  0  0
 23 24  2  0  0  0
 26 28  1  0  0  0
 24 25  1  0  0  0
 27 28  1  0  0  0
 27 31  1  0  0  0
 28 29  1  0  0  0
 29 30  1  0  0  0
 30 31  1  0  0  0
 13 15  1  0  0  0
 13 16  1  0  0  0
 14 17  1  0  0  0
 14 18  1  0  0  0
  8 11  1  0  0  0
M  CHG 1  14   1
M  CHG 1  25  -1
M  END
> <minimizedAffinity>
-9.49258

$$$$
1O2Q_991_A_246


 31 34  0  0  0  0  0  0  0  0999 V2000
   42.4761    1.8671   36.1416 C   0  0  0  0  0  0  0  0  0  0  0  0
   43.7599    2.2866   35.6877 C   0  0  0  0  0  0  0  0  0  0  0  0
   44.8315    3.5234   36.4078 Cl  0  0  0  0  0  0  0  0  0  0  0  0
   44.3489    1.6701   34.5678 C   0  0  0  0  0  0  0  0  0  0  0  0
   43.6685    0.6492   33.9440 C   0  0  0  0  0  0  0  0  0  0  0  0
   42.4357    0.2702   34.3593 C   0  0  0  0  0  0  0  0  0  0  0  0
   41.8069    0.8403   35.4606 C   0  0  0  0  0  0  0  0  0  0  0  0
   43.9983   -0.0477   32.8885 N   0  0  0  0  0  0  0  0  0  0  0  0
   42.0274   -0.7362   33.5374 C   0  0  0  0  0  0  0  0  0  0  0  0
   43.0414   -0.9111   32.6118 C   0  0  0  0  0  0  0  0  0  0  0  0
   44.8337    0.0564   32.3782 H   0  0  0  0  0  0  0  0  0  0  0  0
   41.8633    2.5040   37.2403 C   0  0  0  0  0  0  0  0  0  0  0  0
   40.9737    3.4669   37.0828 N   0  0  0  0  0  0  0  0  0  0  0  0
   42.2438    2.0795   38.4214 N   0  0  0  0  0  0  0  0  0  0  0  0
   40.7159    3.7556   36.1776 H   0  0  0  0  0  0  0  0  0  0  0  0
   40.5682    3.8962   37.8706 H   0  0  0  0  0  0  0  0  0  0  0  0
   42.9103    1.3586   38.4942 H   0  0  0  0  0  0  0  0  0  0  0  0
   41.8630    2.4819   39.2353 H   0  0  0  0  0  0  0  0  0  0  0  0
   43.0571   -1.8612   31.5721 C   0  0  0  0  0  0  0  0  0  0  0  0
   43.0428   -3.2423   31.8643 C   0  0  0  0  0  0  0  0  0  0  0  0
   43.0508   -4.1822   30.8194 C   0  0  0  0  0  0  0  0  0  0  0  0
   43.0694   -3.7683   29.4952 C   0  0  0  0  0  0  0  0  0  0  0  0
   43.0829   -2.4084   29.1786 C   0  0  0  0  0  0  0  0  0  0  0  0
   43.0800   -1.4462   30.2130 C   0  0  0  0  0  0  0  0  0  0  0  0
   43.1082   -0.1001   29.8802 O   0  0  0  0  0  0  0  0  0  0  0  0
   43.0738   -1.9538   27.8718 O   0  0  0  0  0  0  0  0  0  0  0  0
   43.9821   -0.8041   26.1045 C   0  0  0  0  0  0  0  0  0  0  0  0
   44.2054   -1.9781   27.0028 C   0  0  0  0  0  0  0  0  0  0  0  0
   44.2000   -3.2397   26.1343 C   0  0  0  0  0  0  0  0  0  0  0  0
   43.8828   -2.8136   24.7307 C   0  0  0  0  0  0  0  0  0  0  0  0
   44.0150   -1.3219   24.6945 C   0  0  0  0  0  0  0  0  0  0  0  0
  1  2  2  0  0  0
  1  7  1  0  0  0
  1 12  1  0  0  0
  2  3  1  0  0  0
  2  4  1  0  0  0
  4  5  2  0  0  0
  5  6  1  0  0  0
  5  8  1  0  0  0
  6  7  2  0  0  0
  6  9  1  0  0  0
 12 13  1  0  0  0
 12 14  2  0  0  0
  8 10  1  0  0  0
  9 10  2  0  0  0
 10 19  1  0  0  0
 19 20  2  0  0  0
 19 24  1  0  0  0
 20 21  1  0  0  0
 21 22  2  0  0  0
 22 23  1  0  0  0
 23 26  1  0  0  0
 23 24  2  0  0  0
 26 28  1  0  0  0
 24 25  1  0  0  0
 27 28  1  0  0  0
 27 31  1  0  0  0
 28 29  1  0  0  0
 29 30  1  0  0  0
 30 31  1  0  0  0
 13 15  1  0  0  0
 13 16  1  0  0  0
 14 17  1  0  0  0
 14 18  1  0  0  0
  8 11  1  0  0  0
M  CHG 1  14   1
M  CHG 1  25  -1
M  END
> <minimizedAffinity>
-8.29286

$$$$
1O2Q_991_A_246


 31 34  0  0  0  0  0  0  0  0999 V2000
   43.1798   -3.1339   28.5262 C   0  0  0  0  0  0  0  0  0  0  0  0
   43.4985   -1.7903   28.1746 C   0  0  0  0  0  0  0  0  0  0  0  0
   43.6903   -1.0972   26.5378 Cl  0  0  0  0  0  0  0  0  0  0  0  0
   43.6532   -0.8157   29.1783 C   0  0  0  0  0  0  0  0  0  0  0  0
   43.4694   -1.1869   30.4908 C   0  0  0  0  0  0  0  0  0  0  0  0
   43.1940   -2.4706   30.8257 C   0  0  0  0  0  0  0  0  0  0  0  0
   43.0265   -3.4739   29.8778 C   0  0  0  0  0  0  0  0  0  0  0  0
   43.5805   -0.4740   31.5808 N   0  0  0  0  0  0  0  0  0  0  0  0
   43.0902   -2.5176   32.1831 C   0  0  0  0  0  0  0  0  0  0  0  0
   43.3450   -1.2335   32.6321 C   0  0  0  0  0  0  0  0  0  0  0  0
   43.8058    0.4839   31.6117 H   0  0  0  0  0  0  0  0  0  0  0  0
   43.0590   -4.1239   27.5294 C   0  0  0  0  0  0  0  0  0  0  0  0
   43.7433   -4.0673   26.4016 N   0  0  0  0  0  0  0  0  0  0  0  0
   42.2180   -5.0938   27.7979 N   0  0  0  0  0  0  0  0  0  0  0  0
   44.3648   -3.3210   26.2399 H   0  0  0  0  0  0  0  0  0  0  0  0
   43.6321   -4.7712   25.7225 H   0  0  0  0  0  0  0  0  0  0  0  0
   41.7275   -5.0978   28.6515 H   0  0  0  0  0  0  0  0  0  0  0  0
   42.0771   -5.8178   27.1458 H   0  0  0  0  0  0  0  0  0  0  0  0
   43.3312   -0.8092   33.9751 C   0  0  0  0  0  0  0  0  0  0  0  0
   42.3111   -1.2393   34.8512 C   0  0  0  0  0  0  0  0  0  0  0  0
   42.3107   -0.8164   36.1914 C   0  0  0  0  0  0  0  0  0  0  0  0
   43.3081    0.0212   36.6697 C   0  0  0  0  0  0  0  0  0  0  0  0
   44.3293    0.4605   35.8247 C   0  0  0  0  0  0  0  0  0  0  0  0
   44.3468    0.0517   34.4725 C   0  0  0  0  0  0  0  0  0  0  0  0
   45.3606    0.5093   33.6440 O   0  0  0  0  0  0  0  0  0  0  0  0
   45.3572    1.2733   36.2683 O   0  0  0  0  0  0  0  0  0  0  0  0
   45.2337    2.8466   37.9357 C   0  0  0  0  0  0  0  0  0  0  0  0
   45.2470    2.6845   36.4495 C   0  0  0  0  0  0  0  0  0  0  0  0
   43.9099    3.2016   35.9104 C   0  0  0  0  0  0  0  0  0  0  0  0
   43.0708    3.5868   37.0935 C   0  0  0  0  0  0  0  0  0  0  0  0
   43.9853    3.6086   38.2797 C   0  0  0  0  0  0  0  0  0  0  0  0
  1  2  2  0  0  0
  1  7  1  0  0  0
  1 12  1  0  0  0
  2  3  1  0  0  0
  2  4  1  0  0  0
  4  5  2  0  0  0
  5  6  1  0  0  0
  5  8  1  0  0  0
  6  7  2  0  0  0
  6  9  1  0  0  0
 12 13  1  0  0  0
 12 14  2  0  0  0
  8 10  1  0  0  0
  9 10  2  0  0  0
 10 19  1  0  0  0
 19 20  2  0  0  0
 19 24  1  0  0  0
 20 21  1  0  0  0
 21 22  2  0  0  0
 22 23  1  0  0  0
 23 26  1  0  0  0
 23 24  2  0  0  0
 26 28  1  0  0  0
 24 25  1  0  0  0
 27 28  1  0  0  0
 27 31  1  0  0  0
 28 29  1  0  0  0
 29 30  1  0  0  0
 30 31  1  0  0  0
 13 15  1  0  0  0
 13 16  1  0  0  0
 14 17  1  0  0  0
 14 18  1  0  0  0
  8 11  1  0  0  0
M  CHG 1  14   1
M  CHG 1  25  -1
M  END
> <minimizedAffinity>
-7.88690

$$$$
1O2Q_991_A_246


 31 34  0  0  0  0  0  0  0  0999 V2000
   42.1893    2.7398   36.9206 C   0  0  0  0  0  0  0  0  0  0  0  0
   43.5680    2.5589   36.6097 C   0  0  0  0  0  0  0  0  0  0  0  0
   44.9841    3.2853   37.4243 Cl  0  0  0  0  0  0  0  0  0  0  0  0
   43.9497    1.6816   35.5773 C   0  0  0  0  0  0  0  0  0  0  0  0
   42.9679    0.9956   34.8992 C   0  0  0  0  0  0  0  0  0  0  0  0
   41.6560    1.1895   35.1769 C   0  0  0  0  0  0  0  0  0  0  0  0
   41.2207    2.0399   36.1871 C   0  0  0  0  0  0  0  0  0  0  0  0
   43.0756    0.1568   33.9025 N   0  0  0  0  0  0  0  0  0  0  0  0
   40.9450    0.3908   34.3331 C   0  0  0  0  0  0  0  0  0  0  0  0
   41.8767   -0.2489   33.5342 C   0  0  0  0  0  0  0  0  0  0  0  0
   43.9228   -0.1284   33.4899 H   0  0  0  0  0  0  0  0  0  0  0  0
   41.7967    3.6441   37.9287 C   0  0  0  0  0  0  0  0  0  0  0  0
   41.7605    4.9478   37.7226 N   0  0  0  0  0  0  0  0  0  0  0  0
   41.4802    3.1015   39.0800 N   0  0  0  0  0  0  0  0  0  0  0  0
   42.0062    5.3140   36.8424 H   0  0  0  0  0  0  0  0  0  0  0  0
   41.4878    5.5536   38.4491 H   0  0  0  0  0  0  0  0  0  0  0  0
   41.5208    2.1241   39.1913 H   0  0  0  0  0  0  0  0  0  0  0  0
   41.2020    3.6715   39.8330 H   0  0  0  0  0  0  0  0  0  0  0  0
   41.5933   -1.1863   32.5219 C   0  0  0  0  0  0  0  0  0  0  0  0
   40.7472   -2.2862   32.7814 C   0  0  0  0  0  0  0  0  0  0  0  0
   40.4644   -3.2117   31.7623 C   0  0  0  0  0  0  0  0  0  0  0  0
   41.0067   -3.0564   30.4946 C   0  0  0  0  0  0  0  0  0  0  0  0
   41.8458   -1.9769   30.2110 C   0  0  0  0  0  0  0  0  0  0  0  0
   42.1474   -1.0370   31.2216 C   0  0  0  0  0  0  0  0  0  0  0  0
   42.9942    0.0209   30.9260 O   0  0  0  0  0  0  0  0  0  0  0  0
   42.3846   -1.7703   28.9535 O   0  0  0  0  0  0  0  0  0  0  0  0
   44.3329   -1.2302   27.8658 C   0  0  0  0  0  0  0  0  0  0  0  0
   43.5918   -2.3709   28.4860 C   0  0  0  0  0  0  0  0  0  0  0  0
   43.3014   -3.3946   27.3843 C   0  0  0  0  0  0  0  0  0  0  0  0
   43.7955   -2.8120   26.0926 C   0  0  0  0  0  0  0  0  0  0  0  0
   44.6426   -1.6297   26.4510 C   0  0  0  0  0  0  0  0  0  0  0  0
  1  2  2  0  0  0
  1  7  1  0  0  0
  1 12  1  0  0  0
  2  3  1  0  0  0
  2  4  1  0  0  0
  4  5  2  0  0  0
  5  6  1  0  0  0
  5  8  1  0  0  0
  6  7  2  0  0  0
  6  9  1  0  0  0
 12 13  1  0  0  0
 12 14  2  0  0  0
  8 10  1  0  0  0
  9 10  2  0  0  0
 10 19  1  0  0  0
 19 20  2  0  0  0
 19 24  1  0  0  0
 20 21  1  0  0  0
 21 22  2  0  0  0
 22 23  1  0  0  0
 23 26  1  0  0  0
 23 24  2  0  0  0
 26 28  1  0  0  0
 24 25  1  0  0  0
 27 28  1  0  0  0
 27 31  1  0  0  0
 28 29  1  0  0  0
 29 30  1  0  0  0
 30 31  1  0  0  0
 13 15  1  0  0  0
 13 16  1  0  0  0
 14 17  1  0  0  0
 14 18  1  0  0  0
  8 11  1  0  0  0
M  CHG 1  14   1
M  CHG 1  25  -1
M  END
> <minimizedAffinity>
-7.19416

$$$$
1O2Q_991_A_246


 31 34  0  0  0  0  0  0  0  0999 V2000
   43.1904   -3.4315   29.5503 C   0  0  0  0  0  0  0  0  0  0  0  0
   43.2138   -4.5225   30.4665 C   0  0  0  0  0  0  0  0  0  0  0  0
   43.5201   -6.2485   30.1146 Cl  0  0  0  0  0  0  0  0  0  0  0  0
   43.0270   -4.2929   31.8425 C   0  0  0  0  0  0  0  0  0  0  0  0
   42.8446   -2.9993   32.2758 C   0  0  0  0  0  0  0  0  0  0  0  0
   42.7946   -1.9661   31.4007 C   0  0  0  0  0  0  0  0  0  0  0  0
   42.9761   -2.1324   30.0322 C   0  0  0  0  0  0  0  0  0  0  0  0
   42.6316   -2.5485   33.4840 N   0  0  0  0  0  0  0  0  0  0  0  0
   42.5864   -0.8337   32.1285 C   0  0  0  0  0  0  0  0  0  0  0  0
   42.4837   -1.2391   33.4479 C   0  0  0  0  0  0  0  0  0  0  0  0
   42.5882   -3.1022   34.2968 H   0  0  0  0  0  0  0  0  0  0  0  0
   43.3404   -3.6571   28.1665 C   0  0  0  0  0  0  0  0  0  0  0  0
   42.6071   -4.5443   27.5195 N   0  0  0  0  0  0  0  0  0  0  0  0
   44.2597   -2.9331   27.5742 N   0  0  0  0  0  0  0  0  0  0  0  0
   41.9272   -5.0672   28.0027 H   0  0  0  0  0  0  0  0  0  0  0  0
   42.7403   -4.6828   26.5540 H   0  0  0  0  0  0  0  0  0  0  0  0
   44.7845   -2.2824   28.0942 H   0  0  0  0  0  0  0  0  0  0  0  0
   44.4250   -3.0404   26.6096 H   0  0  0  0  0  0  0  0  0  0  0  0
   42.2805   -0.3967   34.5582 C   0  0  0  0  0  0  0  0  0  0  0  0
   41.0154    0.1836   34.7946 C   0  0  0  0  0  0  0  0  0  0  0  0
   40.8211    1.0165   35.9098 C   0  0  0  0  0  0  0  0  0  0  0  0
   41.8621    1.2755   36.7898 C   0  0  0  0  0  0  0  0  0  0  0  0
   43.1230    0.7135   36.5798 C   0  0  0  0  0  0  0  0  0  0  0  0
   43.3422   -0.1229   35.4627 C   0  0  0  0  0  0  0  0  0  0  0  0
   44.6047   -0.6608   35.2619 O   0  0  0  0  0  0  0  0  0  0  0  0
   44.1797    0.9241   37.4478 O   0  0  0  0  0  0  0  0  0  0  0  0
   44.5836    2.8632   38.6086 C   0  0  0  0  0  0  0  0  0  0  0  0
   45.0278    2.0715   37.4207 C   0  0  0  0  0  0  0  0  0  0  0  0
   44.7644    2.9159   36.1703 C   0  0  0  0  0  0  0  0  0  0  0  0
   44.0794    4.1739   36.6178 C   0  0  0  0  0  0  0  0  0  0  0  0
   44.2192    4.2322   38.1081 C   0  0  0  0  0  0  0  0  0  0  0  0
  1  2  2  0  0  0
  1  7  1  0  0  0
  1 12  1  0  0  0
  2  3  1  0  0  0
  2  4  1  0  0  0
  4  5  2  0  0  0
  5  6  1  0  0  0
  5  8  1  0  0  0
  6  7  2  0  0  0
  6  9  1  0  0  0
 12 13  1  0  0  0
 12 14  2  0  0  0
  8 10  1  0  0  0
  9 10  2  0  0  0
 10 19  1  0  0  0
 19 20  2  0  0  0
 19 24  1  0  0  0
 20 21  1  0  0  0
 21 22  2  0  0  0
 22 23  1  0  0  0
 23 26  1  0  0  0
 23 24  2  0  0  0
 26 28  1  0  0  0
 24 25  1  0  0  0
 27 28  1  0  0  0
 27 31  1  0  0  0
 28 29  1  0  0  0
 29 30  1  0  0  0
 30 31  1  0  0  0
 13 15  1  0  0  0
 13 16  1  0  0  0
 14 17  1  0  0  0
 14 18  1  0  0  0
  8 11  1  0  0  0
M  CHG 1  14   1
M  CHG 1  25  -1
M  END
> <minimizedAffinity>
-6.86110

$$$$
1O2Q_991_A_246


 31 34  0  0  0  0  0  0  0  0999 V2000
   43.8739   -1.8175   25.6023 C   0  0  0  0  0  0  0  0  0  0  0  0
   43.8261   -3.2299   25.7838 C   0  0  0  0  0  0  0  0  0  0  0  0
   44.0151   -4.5054   24.5453 Cl  0  0  0  0  0  0  0  0  0  0  0  0
   43.6581   -3.7708   27.0724 C   0  0  0  0  0  0  0  0  0  0  0  0
   43.5641   -2.9090   28.1414 C   0  0  0  0  0  0  0  0  0  0  0  0
   43.5816   -1.5658   27.9644 C   0  0  0  0  0  0  0  0  0  0  0  0
   43.7484   -0.9756   26.7165 C   0  0  0  0  0  0  0  0  0  0  0  0
   43.3844   -3.1720   29.4091 N   0  0  0  0  0  0  0  0  0  0  0  0
   43.4515   -0.9973   29.1953 C   0  0  0  0  0  0  0  0  0  0  0  0
   43.3247   -2.0451   30.0905 C   0  0  0  0  0  0  0  0  0  0  0  0
   43.3057   -4.0739   29.7959 H   0  0  0  0  0  0  0  0  0  0  0  0
   44.0054   -1.2669   24.3108 C   0  0  0  0  0  0  0  0  0  0  0  0
   43.4872   -0.0943   23.9950 N   0  0  0  0  0  0  0  0  0  0  0  0
   44.6677   -2.0020   23.4499 N   0  0  0  0  0  0  0  0  0  0  0  0
   42.9969    0.4257   24.6721 H   0  0  0  0  0  0  0  0  0  0  0  0
   43.5911    0.2601   23.0823 H   0  0  0  0  0  0  0  0  0  0  0  0
   45.0381   -2.8710   23.7270 H   0  0  0  0  0  0  0  0  0  0  0  0
   44.7946   -1.6846   22.5267 H   0  0  0  0  0  0  0  0  0  0  0  0
   43.1811   -1.9271   31.4867 C   0  0  0  0  0  0  0  0  0  0  0  0
   43.6678   -0.7872   32.1624 C   0  0  0  0  0  0  0  0  0  0  0  0
   43.5126   -0.6754   33.5548 C   0  0  0  0  0  0  0  0  0  0  0  0
   42.8800   -1.6757   34.2790 C   0  0  0  0  0  0  0  0  0  0  0  0
   42.3885   -2.8131   33.6352 C   0  0  0  0  0  0  0  0  0  0  0  0
   42.5378   -2.9485   32.2369 C   0  0  0  0  0  0  0  0  0  0  0  0
   42.0564   -4.0916   31.6161 O   0  0  0  0  0  0  0  0  0  0  0  0
   41.7276   -3.8201   34.3159 O   0  0  0  0  0  0  0  0  0  0  0  0
   39.9053   -5.1080   34.8556 C   0  0  0  0  0  0  0  0  0  0  0  0
   40.4096   -3.7005   34.8498 C   0  0  0  0  0  0  0  0  0  0  0  0
   39.5126   -2.8859   33.9130 C   0  0  0  0  0  0  0  0  0  0  0  0
   38.5309   -3.8382   33.2955 C   0  0  0  0  0  0  0  0  0  0  0  0
   38.6212   -5.1138   34.0755 C   0  0  0  0  0  0  0  0  0  0  0  0
  1  2  2  0  0  0
  1  7  1  0  0  0
  1 12  1  0  0  0
  2  3  1  0  0  0
  2  4  1  0  0  0
  4  5  2  0  0  0
  5  6  1  0  0  0
  5  8  1  0  0  0
  6  7  2  0  0  0
  6  9  1  0  0  0
 12 13  1  0  0  0
 12 14  2  0  0  0
  8 10  1  0  0  0
  9 10  2  0  0  0
 10 19  1  0  0  0
 19 20  2  0  0  0
 19 24  1  0  0  0
 20 21  1  0  0  0
 21 22  2  0  0  0
 22 23  1  0  0  0
 23 26  1  0  0  0
 23 24  2  0  0  0
 26 28  1  0  0  0
 24 25  1  0  0  0
 27 28  1  0  0  0
 27 31  1  0  0  0
 28 29  1  0  0  0
 29 30  1  0  0  0
 30 31  1  0  0  0
 13 15  1  0  0  0
 13 16  1  0  0  0
 14 17  1  0  0  0
 14 18  1  0  0  0
  8 11  1  0  0  0
M  CHG 1  14   1
M  CHG 1  25  -1
M  END
> <minimizedAffinity>
-6.72269

$$$$
1O2Q_991_A_246


 31 34  0  0  0  0  0  0  0  0999 V2000
   42.3930   -2.4841   29.3568 C   0  0  0  0  0  0  0  0  0  0  0  0
   41.0558   -2.3750   29.8365 C   0  0  0  0  0  0  0  0  0  0  0  0
   39.5648   -3.0283   29.0970 Cl  0  0  0  0  0  0  0  0  0  0  0  0
   40.7949   -1.7280   31.0590 C   0  0  0  0  0  0  0  0  0  0  0  0
   41.8559   -1.2287   31.7796 C   0  0  0  0  0  0  0  0  0  0  0  0
   43.1240   -1.3082   31.3090 C   0  0  0  0  0  0  0  0  0  0  0  0
   43.4415   -1.9385   30.1110 C   0  0  0  0  0  0  0  0  0  0  0  0
   41.8594   -0.5779   32.9132 N   0  0  0  0  0  0  0  0  0  0  0  0
   43.9320   -0.7146   32.2310 C   0  0  0  0  0  0  0  0  0  0  0  0
   43.0969   -0.2580   33.2358 C   0  0  0  0  0  0  0  0  0  0  0  0
   41.0600   -0.3600   33.4448 H   0  0  0  0  0  0  0  0  0  0  0  0
   42.6592   -3.0985   28.1158 C   0  0  0  0  0  0  0  0  0  0  0  0
   42.3688   -4.3661   27.8871 N   0  0  0  0  0  0  0  0  0  0  0  0
   43.2194   -2.3280   27.2145 N   0  0  0  0  0  0  0  0  0  0  0  0
   41.9481   -4.9097   28.5920 H   0  0  0  0  0  0  0  0  0  0  0  0
   42.5728   -4.7676   27.0117 H   0  0  0  0  0  0  0  0  0  0  0  0
   43.4193   -1.3876   27.4264 H   0  0  0  0  0  0  0  0  0  0  0  0
   43.4400   -2.6900   26.3259 H   0  0  0  0  0  0  0  0  0  0  0  0
   43.5019    0.4100   34.4078 C   0  0  0  0  0  0  0  0  0  0  0  0
   43.8871    1.7673   34.3613 C   0  0  0  0  0  0  0  0  0  0  0  0
   44.2821    2.4269   35.5378 C   0  0  0  0  0  0  0  0  0  0  0  0
   44.2956    1.7584   36.7536 C   0  0  0  0  0  0  0  0  0  0  0  0
   43.9184    0.4161   36.8276 C   0  0  0  0  0  0  0  0  0  0  0  0
   43.5222   -0.2680   35.6568 C   0  0  0  0  0  0  0  0  0  0  0  0
   43.1647   -1.6051   35.7467 O   0  0  0  0  0  0  0  0  0  0  0  0
   43.8914   -0.2790   38.0236 O   0  0  0  0  0  0  0  0  0  0  0  0
   45.1757   -0.0084   39.9072 C   0  0  0  0  0  0  0  0  0  0  0  0
   45.0436   -0.8267   38.6630 C   0  0  0  0  0  0  0  0  0  0  0  0
   46.2991   -0.5970   37.8162 C   0  0  0  0  0  0  0  0  0  0  0  0
   47.1327    0.4306   38.5242 C   0  0  0  0  0  0  0  0  0  0  0  0
   46.5615    0.5721   39.9017 C   0  0  0  0  0  0  0  0  0  0  0  0
  1  2  2  0  0  0
  1  7  1  0  0  0
  1 12  1  0  0  0
  2  3  1  0  0  0
  2  4  1  0  0  0
  4  5  2  0  0  0
  5  6  1  0  0  0
  5  8  1  0  0  0
  6  7  2  0  0  0
  6  9  1  0  0  0
 12 13  1  0  0  0
 12 14  2  0  0  0
  8 10  1  0  0  0
  9 10  2  0  0  0
 10 19  1  0  0  0
 19 20  2  0  0  0
 19 24  1  0  0  0
 20 21  1  0  0  0
 21 22  2  0  0  0
 22 23  1  0  0  0
 23 26  1  0  0  0
 23 24  2  0  0  0
 26 28  1  0  0  0
 24 25  1  0  0  0
 27 28  1  0  0  0
 27 31  1  0  0  0
 28 29  1  0  0  0
 29 30  1  0  0  0
 30 31  1  0  0  0
 13 15  1  0  0  0
 13 16  1  0  0  0
 14 17  1  0  0  0
 14 18  1  0  0  0
  8 11  1  0  0  0
M  CHG 1  14   1
M  CHG 1  25  -1
M  END
> <minimizedAffinity>
-6.56359

$$$$
