3U9Q_DKA_A_1
  RCSB PDB12061711013D
Coordinates from PDB:3U9Q:A:1 Model:1 without hydrogens
 12 11  0  0  0  0            999 V2000
    3.5090    3.8460   20.2220   C 0  0  0  0  0  0  0  0  0  0  0  0
    2.5500    4.0310   19.4740   O 0  0  0  0  0  0  0  0  0  0  0  0
    3.3640    3.1980   21.5910   C 0  0  0  0  0  0  0  0  0  0  0  0
    2.5490    1.8960   21.5000   C 0  0  0  0  0  0  0  0  0  0  0  0
    2.8540    0.8800   22.5970   C 0  0  0  0  0  0  0  0  0  0  0  0
    1.7040   -0.0950   22.7900   C 0  0  0  0  0  0  0  0  0  0  0  0
    1.8960   -0.9800   24.0220   C 0  0  0  0  0  0  0  0  0  0  0  0
    0.9460   -2.1600   24.0050   C 0  0  0  0  0  0  0  0  0  0  0  0
    1.3000   -3.2130   25.0520   C 0  0  0  0  0  0  0  0  0  0  0  0
    0.1070   -3.4990   25.9530   C 0  0  0  0  0  0  0  0  0  0  0  0
    0.2580   -2.8530   27.3100   C 0  0  0  0  0  0  0  0  0  0  0  0
    4.6950    4.2400   19.7470   O 0  0  0  0  0  0  0  0  0  0  0  0
  1  2  2  0  0  0  0
  1  3  1  0  0  0  0
  1 12  1  0  0  0  0
  3  4  1  0  0  0  0
  4  5  1  0  0  0  0
  5  6  1  0  0  0  0
  6  7  1  0  0  0  0
  7  8  1  0  0  0  0
  8  9  1  0  0  0  0
  9 10  1  0  0  0  0
 10 11  1  0  0  0  0
A    1
C1
A    2
O1
A    3
C2
A    4
C3
A    5
C4
A    6
C5
A    7
C6
A    8
C7
A    9
C8
A   10
C9
A   11
C10
A   12
O2
M  END
>  <InstanceId>
3U9Q_DKA_A_1

>  <ChemCompId>
DKA

>  <PdbId>
3U9Q

>  <ChainId>
A

>  <ResidueNumber>
1

>  <InsertionCode>


>  <Model>
1

>  <AltIds>


>  <MissingHeavyAtoms>
0

>  <ObservedFormula>
C10 O2

>  <Name>
DECANOIC ACID

>  <SystematicName>
decanoic acid

>  <Synonyms>


>  <Type>
NON-POLYMER

>  <Formula>
C10 H20 O2

>  <MolecularWeight>
172.265

>  <ModifiedDate>
2011-06-04

>  <Parent>


>  <OneLetterCode>


>  <SubcomponentList>


>  <AmbiguousFlag>
N

>  <InChI>
InChI=1S/C10H20O2/c1-2-3-4-5-6-7-8-9-10(11)12/h2-9H2,1H3,(H,11,12)

>  <InChIKey>
GHVNFZFCNZKVNT-UHFFFAOYSA-N

>  <SMILES>
CCCCCCCCCC(=O)O

$$$$
