3U9Q_DKA_A_1


 13 12  0  0  0  0  0  0  0  0999 V2000
    2.6416    1.1924   22.8349 C   0  0  0  0  0  0  0  0  0  0  0  0
    2.5318    2.6870   22.5471 C   0  0  0  0  0  0  0  0  0  0  0  0
    3.8025    3.3176   21.9512 C   0  0  0  0  0  0  0  0  0  0  0  0
    3.5613    3.7812   20.5222 C   0  0  0  0  0  0  0  0  0  0  0  0
    2.4417    4.0695   20.1015 O   0  0  0  0  0  0  0  0  0  0  0  0
    4.5557    3.8883   19.6350 O   0  0  0  0  0  0  0  0  0  0  0  0
    5.4342    3.6840   19.8889 H   0  0  0  0  0  0  0  0  0  0  0  0
    1.4231    0.4361   22.3312 C   0  0  0  0  0  0  0  0  0  0  0  0
    1.4254   -1.0269   22.7756 C   0  0  0  0  0  0  0  0  0  0  0  0
    1.2880   -1.1450   24.2797 C   0  0  0  0  0  0  0  0  0  0  0  0
    0.5881   -2.4332   24.7053 C   0  0  0  0  0  0  0  0  0  0  0  0
   -0.3699   -2.1699   25.8585 C   0  0  0  0  0  0  0  0  0  0  0  0
   -0.0006   -2.9627   27.0900 C   0  0  0  0  0  0  0  0  0  0  0  0
  4  5  2  0  0  0
  4  3  1  0  0  0
  4  6  1  0  0  0
  3  2  1  0  0  0
  2  1  1  0  0  0
  1  8  1  0  0  0
  8  9  1  0  0  0
  9 10  1  0  0  0
 10 11  1  0  0  0
 11 12  1  0  0  0
 12 13  1  0  0  0
  6  7  1  0  0  0
M  END
> <minimizedAffinity>
-6.11126

$$$$
3U9Q_DKA_A_1


 13 12  0  0  0  0  0  0  0  0999 V2000
    1.6215   -0.7923   23.9381 C   0  0  0  0  0  0  0  0  0  0  0  0
    0.9047   -2.0869   24.3110 C   0  0  0  0  0  0  0  0  0  0  0  0
   -0.0347   -1.9700   25.5241 C   0  0  0  0  0  0  0  0  0  0  0  0
    0.3270   -2.9909   26.5928 C   0  0  0  0  0  0  0  0  0  0  0  0
    0.6774   -4.1379   26.3187 O   0  0  0  0  0  0  0  0  0  0  0  0
    0.2705   -2.7014   27.8968 O   0  0  0  0  0  0  0  0  0  0  0  0
    0.0109   -1.8454   28.1758 H   0  0  0  0  0  0  0  0  0  0  0  0
    1.3281   -0.3854   22.5033 C   0  0  0  0  0  0  0  0  0  0  0  0
    1.7219    1.0648   22.2208 C   0  0  0  0  0  0  0  0  0  0  0  0
    2.8593    1.5104   23.1169 C   0  0  0  0  0  0  0  0  0  0  0  0
    3.1721    2.9975   22.9720 C   0  0  0  0  0  0  0  0  0  0  0  0
    2.1563    3.6754   22.0635 C   0  0  0  0  0  0  0  0  0  0  0  0
    2.1506    5.1750   22.2448 C   0  0  0  0  0  0  0  0  0  0  0  0
  4  5  2  0  0  0
  4  3  1  0  0  0
  4  6  1  0  0  0
  3  2  1  0  0  0
  2  1  1  0  0  0
  1  8  1  0  0  0
  8  9  1  0  0  0
  9 10  1  0  0  0
 10 11  1  0  0  0
 11 12  1  0  0  0
 12 13  1  0  0  0
  6  7  1  0  0  0
M  END
> <minimizedAffinity>
-6.10638

$$$$
3U9Q_DKA_A_1


 13 12  0  0  0  0  0  0  0  0999 V2000
    2.1804    1.2765   22.2637 C   0  0  0  0  0  0  0  0  0  0  0  0
    3.5229    1.0776   21.5660 C   0  0  0  0  0  0  0  0  0  0  0  0
    3.4730    0.1535   20.3367 C   0  0  0  0  0  0  0  0  0  0  0  0
    4.0413    0.8498   19.1091 C   0  0  0  0  0  0  0  0  0  0  0  0
    3.4250    1.7237   18.5009 O   0  0  0  0  0  0  0  0  0  0  0  0
    5.2428    0.5394   18.6115 O   0  0  0  0  0  0  0  0  0  0  0  0
    5.7659   -0.1182   19.0261 H   0  0  0  0  0  0  0  0  0  0  0  0
    1.3957   -0.0227   22.3448 C   0  0  0  0  0  0  0  0  0  0  0  0
    1.5981   -0.7388   23.6805 C   0  0  0  0  0  0  0  0  0  0  0  0
    1.4979   -2.2419   23.5194 C   0  0  0  0  0  0  0  0  0  0  0  0
    0.6240   -2.8895   24.5905 C   0  0  0  0  0  0  0  0  0  0  0  0
    1.0717   -2.4629   25.9813 C   0  0  0  0  0  0  0  0  0  0  0  0
   -0.0087   -2.6839   27.0136 C   0  0  0  0  0  0  0  0  0  0  0  0
  4  5  2  0  0  0
  4  3  1  0  0  0
  4  6  1  0  0  0
  3  2  1  0  0  0
  2  1  1  0  0  0
  1  8  1  0  0  0
  8  9  1  0  0  0
  9 10  1  0  0  0
 10 11  1  0  0  0
 11 12  1  0  0  0
 12 13  1  0  0  0
  6  7  1  0  0  0
M  END
> <minimizedAffinity>
-5.54357

$$$$
3U9Q_DKA_A_1


 13 12  0  0  0  0  0  0  0  0999 V2000
    1.5283    0.4252   22.4744 C   0  0  0  0  0  0  0  0  0  0  0  0
    2.9414    0.9993   22.4267 C   0  0  0  0  0  0  0  0  0  0  0  0
    3.1550    2.2439   23.3059 C   0  0  0  0  0  0  0  0  0  0  0  0
    3.4657    3.4655   22.4536 C   0  0  0  0  0  0  0  0  0  0  0  0
    2.8252    4.5121   22.5413 O   0  0  0  0  0  0  0  0  0  0  0  0
    4.4484    3.4652   21.5471 O   0  0  0  0  0  0  0  0  0  0  0  0
    4.9760    2.7000   21.4283 H   0  0  0  0  0  0  0  0  0  0  0  0
    1.5388   -1.0552   22.8189 C   0  0  0  0  0  0  0  0  0  0  0  0
    0.6966   -1.3675   24.0563 C   0  0  0  0  0  0  0  0  0  0  0  0
    1.5533   -1.9096   25.1821 C   0  0  0  0  0  0  0  0  0  0  0  0
    1.4008   -3.4180   25.3610 C   0  0  0  0  0  0  0  0  0  0  0  0
    0.1188   -3.7441   26.1140 C   0  0  0  0  0  0  0  0  0  0  0  0
   -0.0447   -2.8861   27.3463 C   0  0  0  0  0  0  0  0  0  0  0  0
  4  5  2  0  0  0
  4  3  1  0  0  0
  4  6  1  0  0  0
  3  2  1  0  0  0
  2  1  1  0  0  0
  1  8  1  0  0  0
  8  9  1  0  0  0
  9 10  1  0  0  0
 10 11  1  0  0  0
 11 12  1  0  0  0
 12 13  1  0  0  0
  6  7  1  0  0  0
M  END
> <minimizedAffinity>
-5.42428

$$$$
3U9Q_DKA_A_1


 13 12  0  0  0  0  0  0  0  0999 V2000
    1.4873   -1.4137   23.2860 C   0  0  0  0  0  0  0  0  0  0  0  0
    0.6555   -1.6195   24.5487 C   0  0  0  0  0  0  0  0  0  0  0  0
    1.3841   -2.3688   25.6781 C   0  0  0  0  0  0  0  0  0  0  0  0
    0.3903   -3.0196   26.6288 C   0  0  0  0  0  0  0  0  0  0  0  0
   -0.3655   -3.9241   26.2765 O   0  0  0  0  0  0  0  0  0  0  0  0
    0.2722   -2.6333   27.9033 O   0  0  0  0  0  0  0  0  0  0  0  0
    0.8176   -1.9487   28.2378 H   0  0  0  0  0  0  0  0  0  0  0  0
    1.1776   -0.0804   22.6250 C   0  0  0  0  0  0  0  0  0  0  0  0
    2.4160    0.5517   21.9887 C   0  0  0  0  0  0  0  0  0  0  0  0
    3.4450   -0.4993   21.6257 C   0  0  0  0  0  0  0  0  0  0  0  0
    3.3107   -0.9776   20.1822 C   0  0  0  0  0  0  0  0  0  0  0  0
    4.4206   -0.3974   19.3172 C   0  0  0  0  0  0  0  0  0  0  0  0
    5.3526   -1.4690   18.8028 C   0  0  0  0  0  0  0  0  0  0  0  0
  4  5  2  0  0  0
  4  3  1  0  0  0
  4  6  1  0  0  0
  3  2  1  0  0  0
  2  1  1  0  0  0
  1  8  1  0  0  0
  8  9  1  0  0  0
  9 10  1  0  0  0
 10 11  1  0  0  0
 11 12  1  0  0  0
 12 13  1  0  0  0
  6  7  1  0  0  0
M  END
> <minimizedAffinity>
-5.04486

$$$$
3U9Q_DKA_A_1


 13 12  0  0  0  0  0  0  0  0999 V2000
    1.7326    1.7012   22.0301 C   0  0  0  0  0  0  0  0  0  0  0  0
    2.9205    2.3931   22.6926 C   0  0  0  0  0  0  0  0  0  0  0  0
    3.8302    3.1679   21.7232 C   0  0  0  0  0  0  0  0  0  0  0  0
    3.0066    4.0053   20.7559 C   0  0  0  0  0  0  0  0  0  0  0  0
    3.0658    3.8548   19.5364 O   0  0  0  0  0  0  0  0  0  0  0  0
    2.1784    4.9659   21.1787 O   0  0  0  0  0  0  0  0  0  0  0  0
    2.0851    5.1339   22.0958 H   0  0  0  0  0  0  0  0  0  0  0  0
    1.4614    0.3409   22.6516 C   0  0  0  0  0  0  0  0  0  0  0  0
    1.7553   -0.8064   21.6845 C   0  0  0  0  0  0  0  0  0  0  0  0
    3.0656   -1.4879   22.0216 C   0  0  0  0  0  0  0  0  0  0  0  0
    4.2314   -0.9626   21.1878 C   0  0  0  0  0  0  0  0  0  0  0  0
    3.8333   -0.8374   19.7240 C   0  0  0  0  0  0  0  0  0  0  0  0
    4.2638   -2.0402   18.9181 C   0  0  0  0  0  0  0  0  0  0  0  0
  4  5  2  0  0  0
  4  3  1  0  0  0
  4  6  1  0  0  0
  3  2  1  0  0  0
  2  1  1  0  0  0
  1  8  1  0  0  0
  8  9  1  0  0  0
  9 10  1  0  0  0
 10 11  1  0  0  0
 11 12  1  0  0  0
 12 13  1  0  0  0
  6  7  1  0  0  0
M  END
> <minimizedAffinity>
-5.02799

$$$$
3U9Q_DKA_A_1


 13 12  0  0  0  0  0  0  0  0999 V2000
    2.6633   -1.4130   21.9017 C   0  0  0  0  0  0  0  0  0  0  0  0
    2.4868   -1.1349   20.4117 C   0  0  0  0  0  0  0  0  0  0  0  0
    3.7218   -1.4554   19.5516 C   0  0  0  0  0  0  0  0  0  0  0  0
    4.7750   -0.3654   19.6842 C   0  0  0  0  0  0  0  0  0  0  0  0
    5.9750   -0.6157   19.7886 O   0  0  0  0  0  0  0  0  0  0  0  0
    4.4525    0.9318   19.7088 O   0  0  0  0  0  0  0  0  0  0  0  0
    3.5558    1.1931   19.6340 H   0  0  0  0  0  0  0  0  0  0  0  0
    1.7576   -0.5306   22.7452 C   0  0  0  0  0  0  0  0  0  0  0  0
    1.8390    0.9405   22.3366 C   0  0  0  0  0  0  0  0  0  0  0  0
    2.7379    1.7224   23.2725 C   0  0  0  0  0  0  0  0  0  0  0  0
    3.1365    3.0817   22.7033 C   0  0  0  0  0  0  0  0  0  0  0  0
    2.0308    3.6405   21.8191 C   0  0  0  0  0  0  0  0  0  0  0  0
    2.1423    5.1381   21.6560 C   0  0  0  0  0  0  0  0  0  0  0  0
  4  5  2  0  0  0
  4  3  1  0  0  0
  4  6  1  0  0  0
  3  2  1  0  0  0
  2  1  1  0  0  0
  1  8  1  0  0  0
  8  9  1  0  0  0
  9 10  1  0  0  0
 10 11  1  0  0  0
 11 12  1  0  0  0
 12 13  1  0  0  0
  6  7  1  0  0  0
M  END
> <minimizedAffinity>
-5.02699

$$$$
3U9Q_DKA_A_1


 13 12  0  0  0  0  0  0  0  0999 V2000
    3.7592   -0.3606   20.5904 C   0  0  0  0  0  0  0  0  0  0  0  0
    4.6767   -1.4730   21.0897 C   0  0  0  0  0  0  0  0  0  0  0  0
    6.0181   -1.5778   20.3430 C   0  0  0  0  0  0  0  0  0  0  0  0
    7.1861   -1.3213   21.2838 C   0  0  0  0  0  0  0  0  0  0  0  0
    7.3720   -1.9860   22.3021 O   0  0  0  0  0  0  0  0  0  0  0  0
    8.0724   -0.3451   21.0627 O   0  0  0  0  0  0  0  0  0  0  0  0
    7.9899    0.1998   20.3049 H   0  0  0  0  0  0  0  0  0  0  0  0
    2.7805    0.0806   21.6664 C   0  0  0  0  0  0  0  0  0  0  0  0
    1.8393   -1.0473   22.0905 C   0  0  0  0  0  0  0  0  0  0  0  0
    1.0774   -0.6841   23.3485 C   0  0  0  0  0  0  0  0  0  0  0  0
    1.4809   -1.5402   24.5463 C   0  0  0  0  0  0  0  0  0  0  0  0
    0.3577   -2.4931   24.9300 C   0  0  0  0  0  0  0  0  0  0  0  0
   -0.1147   -2.2661   26.3467 C   0  0  0  0  0  0  0  0  0  0  0  0
  4  5  2  0  0  0
  4  3  1  0  0  0
  4  6  1  0  0  0
  3  2  1  0  0  0
  2  1  1  0  0  0
  1  8  1  0  0  0
  8  9  1  0  0  0
  9 10  1  0  0  0
 10 11  1  0  0  0
 11 12  1  0  0  0
 12 13  1  0  0  0
  6  7  1  0  0  0
M  END
> <minimizedAffinity>
-5.00662

$$$$
3U9Q_DKA_A_1


 13 12  0  0  0  0  0  0  0  0999 V2000
    2.3113    1.4808   21.8222 C   0  0  0  0  0  0  0  0  0  0  0  0
    2.8091    2.6011   22.7309 C   0  0  0  0  0  0  0  0  0  0  0  0
    3.7665    3.5962   22.0520 C   0  0  0  0  0  0  0  0  0  0  0  0
    3.4261    3.7593   20.5780 C   0  0  0  0  0  0  0  0  0  0  0  0
    2.3588    4.2369   20.1956 O   0  0  0  0  0  0  0  0  0  0  0  0
    4.2666    3.3780   19.6106 O   0  0  0  0  0  0  0  0  0  0  0  0
    5.0976    3.0058   19.8318 H   0  0  0  0  0  0  0  0  0  0  0  0
    3.0432    0.1763   22.0924 C   0  0  0  0  0  0  0  0  0  0  0  0
    4.3010    0.0301   21.2355 C   0  0  0  0  0  0  0  0  0  0  0  0
    3.9568   -0.0492   19.7623 C   0  0  0  0  0  0  0  0  0  0  0  0
    5.0967   -0.6215   18.9236 C   0  0  0  0  0  0  0  0  0  0  0  0
    5.4147   -2.0480   19.3490 C   0  0  0  0  0  0  0  0  0  0  0  0
    6.8997   -2.3239   19.3303 C   0  0  0  0  0  0  0  0  0  0  0  0
  4  5  2  0  0  0
  4  3  1  0  0  0
  4  6  1  0  0  0
  3  2  1  0  0  0
  2  1  1  0  0  0
  1  8  1  0  0  0
  8  9  1  0  0  0
  9 10  1  0  0  0
 10 11  1  0  0  0
 11 12  1  0  0  0
 12 13  1  0  0  0
  6  7  1  0  0  0
M  END
> <minimizedAffinity>
-4.99084

$$$$
3U9Q_DKA_A_1


 13 12  0  0  0  0  0  0  0  0999 V2000
    4.3117    0.0132   20.0828 C   0  0  0  0  0  0  0  0  0  0  0  0
    5.3525   -1.0870   19.8962 C   0  0  0  0  0  0  0  0  0  0  0  0
    5.7155   -1.8476   21.1836 C   0  0  0  0  0  0  0  0  0  0  0  0
    7.1066   -1.4657   21.6673 C   0  0  0  0  0  0  0  0  0  0  0  0
    7.7308   -2.1422   22.4836 O   0  0  0  0  0  0  0  0  0  0  0  0
    7.7261   -0.3604   21.2407 O   0  0  0  0  0  0  0  0  0  0  0  0
    7.3072    0.2008   20.6182 H   0  0  0  0  0  0  0  0  0  0  0  0
    3.4557   -0.2315   21.3148 C   0  0  0  0  0  0  0  0  0  0  0  0
    2.7236    1.0310   21.7710 C   0  0  0  0  0  0  0  0  0  0  0  0
    3.3830    2.2787   21.2200 C   0  0  0  0  0  0  0  0  0  0  0  0
    3.7728    3.2683   22.3150 C   0  0  0  0  0  0  0  0  0  0  0  0
    2.6702    4.2954   22.5301 C   0  0  0  0  0  0  0  0  0  0  0  0
    2.1395    4.8345   21.2227 C   0  0  0  0  0  0  0  0  0  0  0  0
  4  5  2  0  0  0
  4  3  1  0  0  0
  4  6  1  0  0  0
  3  2  1  0  0  0
  2  1  1  0  0  0
  1  8  1  0  0  0
  8  9  1  0  0  0
  9 10  1  0  0  0
 10 11  1  0  0  0
 11 12  1  0  0  0
 12 13  1  0  0  0
  6  7  1  0  0  0
M  END
> <minimizedAffinity>
-4.84861

$$$$
