3HS4_AZM_A_701
  RCSB PDB12061708563D
Coordinates from PDB:3HS4:A:701 Model:1 without hydrogens
 13 13  0  0  0  0            999 V2000
   -5.0950    2.0810   15.8000   C 0  0  0  0  0  0  0  0  0  0  0  0
   -4.6920    3.9590   14.3420   C 0  0  0  0  0  0  0  0  0  0  0  0
   -5.8420    5.6620   13.1470   C 0  0  0  0  0  0  0  0  0  0  0  0
   -5.6970    6.7650   12.1200   C 0  0  0  0  0  0  0  0  0  0  0  0
   -5.4240   -0.5550   16.1880   N 0  0  0  0  0  0  0  0  0  0  0  0
   -3.5970    3.3260   14.7090   N 0  0  0  0  0  0  0  0  0  0  0  0
   -3.8200    2.1850   15.5420   N 0  0  0  0  0  0  0  0  0  0  0  0
   -4.6850    5.0760   13.5080   N 0  0  0  0  0  0  0  0  0  0  0  0
   -5.3270    1.0560   18.0820   O 0  0  0  0  0  0  0  0  0  0  0  0
   -7.2460    1.0490   16.5670   O 0  0  0  0  0  0  0  0  0  0  0  0
   -6.9360    5.2920   13.5500   O 0  0  0  0  0  0  0  0  0  0  0  0
   -5.8540    0.8210   16.7930   S 0  0  0  0  0  0  0  0  0  0  0  0
   -6.0730    3.3040   15.0330   S 0  0  0  0  0  0  0  0  0  0  0  0
  1  7  2  0  0  0  0
  1 12  1  0  0  0  0
  1 13  1  0  0  0  0
  2  6  2  0  0  0  0
  2  8  1  0  0  0  0
  2 13  1  0  0  0  0
  3  4  1  0  0  0  0
  3  8  1  0  0  0  0
  3 11  2  0  0  0  0
  5 12  1  0  0  0  0
  6  7  1  0  0  0  0
  9 12  2  0  0  0  0
 10 12  2  0  0  0  0
A    1
C1
A    2
C2
A    3
C3
A    4
C4
A    5
N1
A    6
N2
A    7
N3
A    8
N4
A    9
O1
A   10
O2
A   11
O3
A   12
S1
A   13
S2
M  END
>  <InstanceId>
3HS4_AZM_A_701

>  <ChemCompId>
AZM

>  <PdbId>
3HS4

>  <ChainId>
A

>  <ResidueNumber>
701

>  <InsertionCode>


>  <Model>
1

>  <AltIds>


>  <MissingHeavyAtoms>
0

>  <ObservedFormula>
C4 N4 O3 S2

>  <Name>
5-ACETAMIDO-1,3,4-THIADIAZOLE-2-SULFONAMIDE

>  <SystematicName>
N-(5-sulfamoyl-1,3,4-thiadiazol-2-yl)ethanamide

>  <Synonyms>


>  <Type>
NON-POLYMER

>  <Formula>
C4 H6 N4 O3 S2

>  <MolecularWeight>
222.245

>  <ModifiedDate>
2011-06-04

>  <Parent>


>  <OneLetterCode>


>  <SubcomponentList>


>  <AmbiguousFlag>
N

>  <InChI>
InChI=1S/C4H6N4O3S2/c1-2(9)6-3-7-8-4(12-3)13(5,10)11/h1H3,(H2,5,10,11)(H,6,7,9)

>  <InChIKey>
BZKPWHYZMXOIDC-UHFFFAOYSA-N

>  <SMILES>
CC(=O)Nc1nnc(s1)S(=O)(=O)N

$$$$
