3HS4_AZM_A_701


 16 16  0  0  0  0  0  0  0  0999 V2000
   -4.4737    1.3929   12.7004 C   0  0  0  0  0  0  0  0  0  0  0  0
   -4.7087    1.5893   15.0923 C   0  0  0  0  0  0  0  0  0  0  0  0
   -4.2632    0.4150   14.6963 N   0  0  0  0  0  0  0  0  0  0  0  0
   -4.0796    0.2937   13.2832 N   0  0  0  0  0  0  0  0  0  0  0  0
   -5.0345    2.6176   13.8077 S   0  0  0  0  0  0  0  0  0  0  0  0
   -5.0373    0.4533   10.2496 N   0  0  0  0  0  0  0  0  0  0  0  0
   -5.2391    2.8679   10.8162 O   0  0  0  0  0  0  0  0  0  0  0  0
   -3.0378    1.8114   10.6897 O   0  0  0  0  0  0  0  0  0  0  0  0
   -4.4380    1.7132   10.9552 S   0  0  0  0  0  0  0  0  0  0  0  0
   -6.0362    0.3957   10.4474 H   0  0  0  0  0  0  0  0  0  0  0  0
   -4.5727   -0.3850   10.5985 H   0  0  0  0  0  0  0  0  0  0  0  0
   -5.9848    1.4082   17.0897 C   0  0  0  0  0  0  0  0  0  0  0  0
   -6.1819    1.9612   18.4854 C   0  0  0  0  0  0  0  0  0  0  0  0
   -4.9243    1.9123   16.4312 N   0  0  0  0  0  0  0  0  0  0  0  0
   -6.7771    0.6244   16.5858 O   0  0  0  0  0  0  0  0  0  0  0  0
   -4.2980    2.5119   16.8974 H   0  0  0  0  0  0  0  0  0  0  0  0
  1  4  2  0  0  0
  1  9  1  0  0  0
  1  5  1  0  0  0
  2  3  2  0  0  0
  2 14  1  0  0  0
  2  5  1  0  0  0
 12 13  1  0  0  0
 12 14  1  0  0  0
 12 15  2  0  0  0
  6  9  1  0  0  0
  3  4  1  0  0  0
  7  9  2  0  0  0
  8  9  2  0  0  0
  6 10  1  0  0  0
  6 11  1  0  0  0
 14 16  1  0  0  0
M  END
> <minimizedAffinity>
-6.48481

$$$$
3HS4_AZM_A_701


 16 16  0  0  0  0  0  0  0  0999 V2000
   -3.3496    3.1879   12.4924 C   0  0  0  0  0  0  0  0  0  0  0  0
   -4.4402    2.6906   14.5849 C   0  0  0  0  0  0  0  0  0  0  0  0
   -3.4365    3.5359   14.6960 N   0  0  0  0  0  0  0  0  0  0  0  0
   -2.8029    3.8734   13.4590 N   0  0  0  0  0  0  0  0  0  0  0  0
   -4.6554    2.1547   13.0100 S   0  0  0  0  0  0  0  0  0  0  0  0
   -4.2090    3.5543    9.9756 N   0  0  0  0  0  0  0  0  0  0  0  0
   -1.9695    4.3316   10.7320 O   0  0  0  0  0  0  0  0  0  0  0  0
   -2.4373    1.9413   10.5192 O   0  0  0  0  0  0  0  0  0  0  0  0
   -2.8980    3.2685   10.7780 S   0  0  0  0  0  0  0  0  0  0  0  0
   -4.5262    4.5041   10.1697 H   0  0  0  0  0  0  0  0  0  0  0  0
   -4.9310    2.8907   10.2564 H   0  0  0  0  0  0  0  0  0  0  0  0
   -4.7857    1.2287   16.4273 C   0  0  0  0  0  0  0  0  0  0  0  0
   -5.7797    0.7730   17.4744 C   0  0  0  0  0  0  0  0  0  0  0  0
   -5.2014    2.2622   15.6713 N   0  0  0  0  0  0  0  0  0  0  0  0
   -3.7259    0.6463   16.2433 O   0  0  0  0  0  0  0  0  0  0  0  0
   -6.0472    2.7176   15.8868 H   0  0  0  0  0  0  0  0  0  0  0  0
  1  4  2  0  0  0
  1  9  1  0  0  0
  1  5  1  0  0  0
  2  3  2  0  0  0
  2 14  1  0  0  0
  2  5  1  0  0  0
 12 13  1  0  0  0
 12 14  1  0  0  0
 12 15  2  0  0  0
  6  9  1  0  0  0
  3  4  1  0  0  0
  7  9  2  0  0  0
  8  9  2  0  0  0
  6 10  1  0  0  0
  6 11  1  0  0  0
 14 16  1  0  0  0
M  END
> <minimizedAffinity>
-6.26198

$$$$
3HS4_AZM_A_701


 16 16  0  0  0  0  0  0  0  0999 V2000
   -3.4243    2.5362   12.0431 C   0  0  0  0  0  0  0  0  0  0  0  0
   -4.5990    1.9644   14.0700 C   0  0  0  0  0  0  0  0  0  0  0  0
   -4.0907    0.9263   13.4389 N   0  0  0  0  0  0  0  0  0  0  0  0
   -3.3561    1.2504   12.2554 N   0  0  0  0  0  0  0  0  0  0  0  0
   -4.3238    3.4059   13.2575 S   0  0  0  0  0  0  0  0  0  0  0  0
   -3.8204    3.8483    9.7347 N   0  0  0  0  0  0  0  0  0  0  0  0
   -2.0186    4.4911   11.3260 O   0  0  0  0  0  0  0  0  0  0  0  0
   -1.8722    2.3921   10.0809 O   0  0  0  0  0  0  0  0  0  0  0  0
   -2.6678    3.4074   10.6946 S   0  0  0  0  0  0  0  0  0  0  0  0
   -4.3797    4.5726   10.1851 H   0  0  0  0  0  0  0  0  0  0  0  0
   -4.4119    3.0449    9.5222 H   0  0  0  0  0  0  0  0  0  0  0  0
   -4.7061    1.4995   16.3987 C   0  0  0  0  0  0  0  0  0  0  0  0
   -5.6348    1.2732   17.5729 C   0  0  0  0  0  0  0  0  0  0  0  0
   -5.3226    1.8574   15.2567 N   0  0  0  0  0  0  0  0  0  0  0  0
   -3.5025    1.2953   16.4762 O   0  0  0  0  0  0  0  0  0  0  0  0
   -6.2891    2.0444   15.2596 H   0  0  0  0  0  0  0  0  0  0  0  0
  1  4  2  0  0  0
  1  9  1  0  0  0
  1  5  1  0  0  0
  2  3  2  0  0  0
  2 14  1  0  0  0
  2  5  1  0  0  0
 12 13  1  0  0  0
 12 14  1  0  0  0
 12 15  2  0  0  0
  6  9  1  0  0  0
  3  4  1  0  0  0
  7  9  2  0  0  0
  8  9  2  0  0  0
  6 10  1  0  0  0
  6 11  1  0  0  0
 14 16  1  0  0  0
M  END
> <minimizedAffinity>
-6.18629

$$$$
3HS4_AZM_A_701


 16 16  0  0  0  0  0  0  0  0999 V2000
   -5.0811    2.0234   16.1513 C   0  0  0  0  0  0  0  0  0  0  0  0
   -4.6488    3.9430   14.7572 C   0  0  0  0  0  0  0  0  0  0  0  0
   -3.5647    3.2756   15.0944 N   0  0  0  0  0  0  0  0  0  0  0  0
   -3.8058    2.1108   15.8885 N   0  0  0  0  0  0  0  0  0  0  0  0
   -6.0386    3.2920   15.4342 S   0  0  0  0  0  0  0  0  0  0  0  0
   -7.4031    0.9336   16.9436 N   0  0  0  0  0  0  0  0  0  0  0  0
   -5.3758   -0.4447   16.5168 O   0  0  0  0  0  0  0  0  0  0  0  0
   -5.4567    1.0668   18.4369 O   0  0  0  0  0  0  0  0  0  0  0  0
   -5.8595    0.7448   17.1047 S   0  0  0  0  0  0  0  0  0  0  0  0
   -7.6764    0.7006   15.9890 H   0  0  0  0  0  0  0  0  0  0  0  0
   -7.6493    1.9037   17.1405 H   0  0  0  0  0  0  0  0  0  0  0  0
   -4.8027    4.9961   12.6316 C   0  0  0  0  0  0  0  0  0  0  0  0
   -4.5988    6.2924   11.8765 C   0  0  0  0  0  0  0  0  0  0  0  0
   -4.6241    5.0882   13.9628 N   0  0  0  0  0  0  0  0  0  0  0  0
   -5.0350    3.9415   12.0571 O   0  0  0  0  0  0  0  0  0  0  0  0
   -4.4755    5.9688   14.3772 H   0  0  0  0  0  0  0  0  0  0  0  0
  1  4  2  0  0  0
  1  9  1  0  0  0
  1  5  1  0  0  0
  2  3  2  0  0  0
  2 14  1  0  0  0
  2  5  1  0  0  0
 12 13  1  0  0  0
 12 14  1  0  0  0
 12 15  2  0  0  0
  6  9  1  0  0  0
  3  4  1  0  0  0
  7  9  2  0  0  0
  8  9  2  0  0  0
  6 10  1  0  0  0
  6 11  1  0  0  0
 14 16  1  0  0  0
M  END
> <minimizedAffinity>
-6.14068

$$$$
3HS4_AZM_A_701


 16 16  0  0  0  0  0  0  0  0999 V2000
   -4.6222    2.0691   14.4092 C   0  0  0  0  0  0  0  0  0  0  0  0
   -4.5946    4.0175   12.9888 C   0  0  0  0  0  0  0  0  0  0  0  0
   -4.9313    2.9084   12.3637 N   0  0  0  0  0  0  0  0  0  0  0  0
   -4.9917    1.7492   13.1992 N   0  0  0  0  0  0  0  0  0  0  0  0
   -4.2315    3.7571   14.6056 S   0  0  0  0  0  0  0  0  0  0  0  0
   -5.7895    1.2521   16.6846 N   0  0  0  0  0  0  0  0  0  0  0  0
   -4.5559   -0.3156   15.1972 O   0  0  0  0  0  0  0  0  0  0  0  0
   -3.3472    1.3949   16.4586 O   0  0  0  0  0  0  0  0  0  0  0  0
   -4.5365    0.9637   15.7951 S   0  0  0  0  0  0  0  0  0  0  0  0
   -6.6303    0.9397   16.1991 H   0  0  0  0  0  0  0  0  0  0  0  0
   -5.8542    2.2537   16.8663 H   0  0  0  0  0  0  0  0  0  0  0  0
   -5.5733    6.0797   12.3253 C   0  0  0  0  0  0  0  0  0  0  0  0
   -5.3893    7.3184   11.4743 C   0  0  0  0  0  0  0  0  0  0  0  0
   -4.5091    5.2558   12.3541 N   0  0  0  0  0  0  0  0  0  0  0  0
   -6.6357    5.8233   12.8746 O   0  0  0  0  0  0  0  0  0  0  0  0
   -3.6663    5.5290   11.9249 H   0  0  0  0  0  0  0  0  0  0  0  0
  1  4  2  0  0  0
  1  9  1  0  0  0
  1  5  1  0  0  0
  2  3  2  0  0  0
  2 14  1  0  0  0
  2  5  1  0  0  0
 12 13  1  0  0  0
 12 14  1  0  0  0
 12 15  2  0  0  0
  6  9  1  0  0  0
  3  4  1  0  0  0
  7  9  2  0  0  0
  8  9  2  0  0  0
  6 10  1  0  0  0
  6 11  1  0  0  0
 14 16  1  0  0  0
M  END
> <minimizedAffinity>
-5.79839

$$$$
3HS4_AZM_A_701


 16 16  0  0  0  0  0  0  0  0999 V2000
   -4.4891    1.3561   13.9356 C   0  0  0  0  0  0  0  0  0  0  0  0
   -4.3805    2.4890   11.8096 C   0  0  0  0  0  0  0  0  0  0  0  0
   -4.1873    1.1887   11.7299 N   0  0  0  0  0  0  0  0  0  0  0  0
   -4.2878    0.4946   12.9764 N   0  0  0  0  0  0  0  0  0  0  0  0
   -4.6064    3.0077   13.3887 S   0  0  0  0  0  0  0  0  0  0  0  0
   -3.4093    1.5112   16.3886 N   0  0  0  0  0  0  0  0  0  0  0  0
   -5.8662    1.6435   16.0172 O   0  0  0  0  0  0  0  0  0  0  0  0
   -4.6760   -0.4607   15.6516 O   0  0  0  0  0  0  0  0  0  0  0  0
   -4.6796    0.9679   15.6569 S   0  0  0  0  0  0  0  0  0  0  0  0
   -3.4249    2.5311   16.3849 H   0  0  0  0  0  0  0  0  0  0  0  0
   -2.5726    1.1822   15.9069 H   0  0  0  0  0  0  0  0  0  0  0  0
   -3.2074    3.9452   10.3420 C   0  0  0  0  0  0  0  0  0  0  0  0
   -3.3544    4.9501    9.2191 C   0  0  0  0  0  0  0  0  0  0  0  0
   -4.3519    3.3344   10.7016 N   0  0  0  0  0  0  0  0  0  0  0  0
   -2.1429    3.7689   10.9181 O   0  0  0  0  0  0  0  0  0  0  0  0
   -5.1728    3.4855   10.1795 H   0  0  0  0  0  0  0  0  0  0  0  0
  1  4  2  0  0  0
  1  9  1  0  0  0
  1  5  1  0  0  0
  2  3  2  0  0  0
  2 14  1  0  0  0
  2  5  1  0  0  0
 12 13  1  0  0  0
 12 14  1  0  0  0
 12 15  2  0  0  0
  6  9  1  0  0  0
  3  4  1  0  0  0
  7  9  2  0  0  0
  8  9  2  0  0  0
  6 10  1  0  0  0
  6 11  1  0  0  0
 14 16  1  0  0  0
M  END
> <minimizedAffinity>
-5.72472

$$$$
3HS4_AZM_A_701


 16 16  0  0  0  0  0  0  0  0999 V2000
   -2.9982    1.5510   11.4683 C   0  0  0  0  0  0  0  0  0  0  0  0
   -2.0810    3.6765   12.1437 C   0  0  0  0  0  0  0  0  0  0  0  0
   -1.1708    2.7512   11.9207 N   0  0  0  0  0  0  0  0  0  0  0  0
   -1.6945    1.4952   11.4805 N   0  0  0  0  0  0  0  0  0  0  0  0
   -3.6433    3.1017   11.9372 S   0  0  0  0  0  0  0  0  0  0  0  0
   -5.4884    0.8788   10.7236 N   0  0  0  0  0  0  0  0  0  0  0  0
   -3.4824   -0.2929    9.8320 O   0  0  0  0  0  0  0  0  0  0  0  0
   -4.1325   -0.5697   12.1726 O   0  0  0  0  0  0  0  0  0  0  0  0
   -4.0895    0.2346   10.9928 S   0  0  0  0  0  0  0  0  0  0  0  0
   -5.4431    1.4495    9.8795 H   0  0  0  0  0  0  0  0  0  0  0  0
   -5.7513    1.4644   11.5163 H   0  0  0  0  0  0  0  0  0  0  0  0
   -1.6543    5.2656   13.8593 C   0  0  0  0  0  0  0  0  0  0  0  0
   -1.4646    6.7369   14.1624 C   0  0  0  0  0  0  0  0  0  0  0  0
   -1.7683    4.9727   12.5503 N   0  0  0  0  0  0  0  0  0  0  0  0
   -1.7697    4.4312   14.7462 O   0  0  0  0  0  0  0  0  0  0  0  0
   -1.6301    5.6774   11.8768 H   0  0  0  0  0  0  0  0  0  0  0  0
  1  4  2  0  0  0
  1  9  1  0  0  0
  1  5  1  0  0  0
  2  3  2  0  0  0
  2 14  1  0  0  0
  2  5  1  0  0  0
 12 13  1  0  0  0
 12 14  1  0  0  0
 12 15  2  0  0  0
  6  9  1  0  0  0
  3  4  1  0  0  0
  7  9  2  0  0  0
  8  9  2  0  0  0
  6 10  1  0  0  0
  6 11  1  0  0  0
 14 16  1  0  0  0
M  END
> <minimizedAffinity>
-5.65131

$$$$
3HS4_AZM_A_701


 16 16  0  0  0  0  0  0  0  0999 V2000
   -3.8699    0.7189   12.2571 C   0  0  0  0  0  0  0  0  0  0  0  0
   -4.4890    2.3131   13.9573 C   0  0  0  0  0  0  0  0  0  0  0  0
   -4.4826    1.0645   14.3760 N   0  0  0  0  0  0  0  0  0  0  0  0
   -4.0790    0.1087   13.3915 N   0  0  0  0  0  0  0  0  0  0  0  0
   -4.1043    2.4453   12.3299 S   0  0  0  0  0  0  0  0  0  0  0  0
   -2.1543    0.7884   10.1934 N   0  0  0  0  0  0  0  0  0  0  0  0
   -2.9870   -1.3542   11.1461 O   0  0  0  0  0  0  0  0  0  0  0  0
   -4.4996    0.1145    9.9080 O   0  0  0  0  0  0  0  0  0  0  0  0
   -3.3530   -0.0509   10.7439 S   0  0  0  0  0  0  0  0  0  0  0  0
   -1.3435    0.6610   10.7990 H   0  0  0  0  0  0  0  0  0  0  0  0
   -2.4113    1.7752   10.1724 H   0  0  0  0  0  0  0  0  0  0  0  0
   -5.9870    4.0459   14.5931 C   0  0  0  0  0  0  0  0  0  0  0  0
   -6.1527    5.2856   15.4463 C   0  0  0  0  0  0  0  0  0  0  0  0
   -4.8250    3.3909   14.7751 N   0  0  0  0  0  0  0  0  0  0  0  0
   -6.8166    3.7206   13.7552 O   0  0  0  0  0  0  0  0  0  0  0  0
   -4.2095    3.6744   15.4892 H   0  0  0  0  0  0  0  0  0  0  0  0
  1  4  2  0  0  0
  1  9  1  0  0  0
  1  5  1  0  0  0
  2  3  2  0  0  0
  2 14  1  0  0  0
  2  5  1  0  0  0
 12 13  1  0  0  0
 12 14  1  0  0  0
 12 15  2  0  0  0
  6  9  1  0  0  0
  3  4  1  0  0  0
  7  9  2  0  0  0
  8  9  2  0  0  0
  6 10  1  0  0  0
  6 11  1  0  0  0
 14 16  1  0  0  0
M  END
> <minimizedAffinity>
-5.62921

$$$$
3HS4_AZM_A_701


 16 16  0  0  0  0  0  0  0  0999 V2000
   -5.8890    2.2208   15.9873 C   0  0  0  0  0  0  0  0  0  0  0  0
   -4.7829    3.1534   14.0580 C   0  0  0  0  0  0  0  0  0  0  0  0
   -5.7009    3.9418   14.5777 N   0  0  0  0  0  0  0  0  0  0  0  0
   -6.3397    3.4216   15.7468 N   0  0  0  0  0  0  0  0  0  0  0  0
   -4.6676    1.6865   14.8633 S   0  0  0  0  0  0  0  0  0  0  0  0
   -5.5208   -0.1239   17.2420 N   0  0  0  0  0  0  0  0  0  0  0  0
   -6.1056    1.9562   18.4762 O   0  0  0  0  0  0  0  0  0  0  0  0
   -7.7476    0.8887   17.0126 O   0  0  0  0  0  0  0  0  0  0  0  0
   -6.3853    1.1756   17.3330 S   0  0  0  0  0  0  0  0  0  0  0  0
   -4.5519    0.0955   17.4729 H   0  0  0  0  0  0  0  0  0  0  0  0
   -5.5682   -0.4980   16.2943 H   0  0  0  0  0  0  0  0  0  0  0  0
   -2.8130    4.0521   13.0769 C   0  0  0  0  0  0  0  0  0  0  0  0
   -2.1751    4.5112   11.7828 C   0  0  0  0  0  0  0  0  0  0  0  0
   -4.0302    3.4945   12.9354 N   0  0  0  0  0  0  0  0  0  0  0  0
   -2.2869    4.2481   14.1636 O   0  0  0  0  0  0  0  0  0  0  0  0
   -4.3904    3.3268   12.0347 H   0  0  0  0  0  0  0  0  0  0  0  0
  1  4  2  0  0  0
  1  9  1  0  0  0
  1  5  1  0  0  0
  2  3  2  0  0  0
  2 14  1  0  0  0
  2  5  1  0  0  0
 12 13  1  0  0  0
 12 14  1  0  0  0
 12 15  2  0  0  0
  6  9  1  0  0  0
  3  4  1  0  0  0
  7  9  2  0  0  0
  8  9  2  0  0  0
  6 10  1  0  0  0
  6 11  1  0  0  0
 14 16  1  0  0  0
M  END
> <minimizedAffinity>
-5.62745

$$$$
3HS4_AZM_A_701


 16 16  0  0  0  0  0  0  0  0999 V2000
   -3.9504    1.2737   12.1175 C   0  0  0  0  0  0  0  0  0  0  0  0
   -3.8257    3.4129   13.2236 C   0  0  0  0  0  0  0  0  0  0  0  0
   -4.0450    2.4037   14.0407 N   0  0  0  0  0  0  0  0  0  0  0  0
   -4.0824    1.1221   13.4070 N   0  0  0  0  0  0  0  0  0  0  0  0
   -3.7374    2.9311   11.6193 S   0  0  0  0  0  0  0  0  0  0  0  0
   -5.1680    0.1973    9.9807 N   0  0  0  0  0  0  0  0  0  0  0  0
   -2.6960    0.1396   10.2596 O   0  0  0  0  0  0  0  0  0  0  0  0
   -4.1326   -1.1940   11.7209 O   0  0  0  0  0  0  0  0  0  0  0  0
   -3.9353   -0.0313   10.9148 S   0  0  0  0  0  0  0  0  0  0  0  0
   -5.0137    1.0296    9.4116 H   0  0  0  0  0  0  0  0  0  0  0  0
   -6.0059    0.3241   10.5483 H   0  0  0  0  0  0  0  0  0  0  0  0
   -2.5466    5.2239   14.0809 C   0  0  0  0  0  0  0  0  0  0  0  0
   -2.6154    6.6209   14.6605 C   0  0  0  0  0  0  0  0  0  0  0  0
   -3.7259    4.7353   13.6532 N   0  0  0  0  0  0  0  0  0  0  0  0
   -1.5104    4.5741   14.0784 O   0  0  0  0  0  0  0  0  0  0  0  0
   -4.5217    5.3148   13.6437 H   0  0  0  0  0  0  0  0  0  0  0  0
  1  4  2  0  0  0
  1  9  1  0  0  0
  1  5  1  0  0  0
  2  3  2  0  0  0
  2 14  1  0  0  0
  2  5  1  0  0  0
 12 13  1  0  0  0
 12 14  1  0  0  0
 12 15  2  0  0  0
  6  9  1  0  0  0
  3  4  1  0  0  0
  7  9  2  0  0  0
  8  9  2  0  0  0
  6 10  1  0  0  0
  6 11  1  0  0  0
 14 16  1  0  0  0
M  END
> <minimizedAffinity>
-5.59652

$$$$
