5FNC_IEE_A_1225


 20 21  0  0  0  0  0  0  0  0999 V2000
   -0.1244   13.0674   22.5246 C   0  0  0  0  0  0  0  0  0  0  0  0
   -1.3907   12.7148   22.0833 C   0  0  0  0  0  0  0  0  0  0  0  0
   -2.0233   13.4568   20.6883 Cl  0  0  0  0  0  0  0  0  0  0  0  0
   -2.1350   11.8210   22.7403 N   0  0  0  0  0  0  0  0  0  0  0  0
   -1.6140   11.2970   23.8719 C   0  0  0  0  0  0  0  0  0  0  0  0
   -2.3757   10.4370   24.4987 N   0  0  0  0  0  0  0  0  0  0  0  0
   -0.3556   11.5563   24.3295 N   0  0  0  0  0  0  0  0  0  0  0  0
    0.3721   12.4487   23.6769 C   0  0  0  0  0  0  0  0  0  0  0  0
   -3.2838   10.2508   24.1673 H   0  0  0  0  0  0  0  0  0  0  0  0
   -2.0405    9.9763   25.3017 H   0  0  0  0  0  0  0  0  0  0  0  0
    1.5797   12.8484   24.0763 N   0  0  0  0  0  0  0  0  0  0  0  0
    2.2780   12.1546   24.0617 H   0  0  0  0  0  0  0  0  0  0  0  0
    2.0261   14.1888   24.5405 C   0  0  0  0  0  0  0  0  0  0  0  0
    3.4537   14.2059   24.6302 C   0  0  0  0  0  0  0  0  0  0  0  0
    4.1535   15.3425   25.1400 C   0  0  0  0  0  0  0  0  0  0  0  0
    5.5519   15.3987   25.2557 C   0  0  0  0  0  0  0  0  0  0  0  0
    6.2888   14.3136   24.8603 C   0  0  0  0  0  0  0  0  0  0  0  0
    7.6691   14.3722   24.9525 C   0  0  0  0  0  0  0  0  0  0  0  0
    5.6100   13.1825   24.3358 C   0  0  0  0  0  0  0  0  0  0  0  0
    4.2167   13.1200   24.2146 C   0  0  0  0  0  0  0  0  0  0  0  0
  1  2  1  0  0  0
  1  8  2  0  0  0
  2  3  1  0  0  0
  2  4  2  0  0  0
  4  5  1  0  0  0
  5  6  1  0  0  0
  5  7  2  0  0  0
  7  8  1  0  0  0
  8 11  1  0  0  0
 11 13  1  0  0  0
 13 14  1  0  0  0
 14 15  1  0  0  0
 14 20  2  0  0  0
 15 16  2  0  0  0
 16 17  1  0  0  0
 17 18  1  0  0  0
 17 19  2  0  0  0
 19 20  1  0  0  0
  6  9  1  0  0  0
  6 10  1  0  0  0
 11 12  1  0  0  0
M  END
> <minimizedAffinity>
-8.89711

$$$$
5FNC_IEE_A_1225


 20 21  0  0  0  0  0  0  0  0999 V2000
    0.7852   11.1600   24.4579 C   0  0  0  0  0  0  0  0  0  0  0  0
   -0.3672   10.3890   24.4714 C   0  0  0  0  0  0  0  0  0  0  0  0
   -0.3373    8.8594   25.2173 Cl  0  0  0  0  0  0  0  0  0  0  0  0
   -1.4956   10.8101   23.8936 N   0  0  0  0  0  0  0  0  0  0  0  0
   -1.4584   12.0073   23.2674 C   0  0  0  0  0  0  0  0  0  0  0  0
   -2.5759   12.3820   22.6988 N   0  0  0  0  0  0  0  0  0  0  0  0
   -0.3778   12.8394   23.2656 N   0  0  0  0  0  0  0  0  0  0  0  0
    0.7383   12.4111   23.8337 C   0  0  0  0  0  0  0  0  0  0  0  0
   -3.3551   11.7803   22.7009 H   0  0  0  0  0  0  0  0  0  0  0  0
   -2.6374   13.2655   22.2690 H   0  0  0  0  0  0  0  0  0  0  0  0
    1.8818   13.0964   23.8199 N   0  0  0  0  0  0  0  0  0  0  0  0
    2.5631   12.7643   23.1916 H   0  0  0  0  0  0  0  0  0  0  0  0
    2.2787   14.2891   24.6146 C   0  0  0  0  0  0  0  0  0  0  0  0
    3.7053   14.3427   24.7047 C   0  0  0  0  0  0  0  0  0  0  0  0
    4.3759   15.4995   25.2083 C   0  0  0  0  0  0  0  0  0  0  0  0
    5.7724   15.5916   25.3242 C   0  0  0  0  0  0  0  0  0  0  0  0
    6.5366   14.5232   24.9353 C   0  0  0  0  0  0  0  0  0  0  0  0
    7.9150   14.6172   25.0276 C   0  0  0  0  0  0  0  0  0  0  0  0
    5.8869   13.3724   24.4170 C   0  0  0  0  0  0  0  0  0  0  0  0
    4.4957   13.2741   24.2956 C   0  0  0  0  0  0  0  0  0  0  0  0
  1  2  1  0  0  0
  1  8  2  0  0  0
  2  3  1  0  0  0
  2  4  2  0  0  0
  4  5  1  0  0  0
  5  6  1  0  0  0
  5  7  2  0  0  0
  7  8  1  0  0  0
  8 11  1  0  0  0
 11 13  1  0  0  0
 13 14  1  0  0  0
 14 15  1  0  0  0
 14 20  2  0  0  0
 15 16  2  0  0  0
 16 17  1  0  0  0
 17 18  1  0  0  0
 17 19  2  0  0  0
 19 20  1  0  0  0
  6  9  1  0  0  0
  6 10  1  0  0  0
 11 12  1  0  0  0
M  END
> <minimizedAffinity>
-8.80457

$$$$
5FNC_IEE_A_1225


 20 21  0  0  0  0  0  0  0  0999 V2000
   -0.0905   11.7257   23.9378 C   0  0  0  0  0  0  0  0  0  0  0  0
   -1.4739   11.6326   23.9394 C   0  0  0  0  0  0  0  0  0  0  0  0
   -2.2564   10.8780   25.2490 Cl  0  0  0  0  0  0  0  0  0  0  0  0
   -2.2063   12.1028   22.9260 N   0  0  0  0  0  0  0  0  0  0  0  0
   -1.5398   12.6460   21.8832 C   0  0  0  0  0  0  0  0  0  0  0  0
   -2.2867   13.0821   20.9012 N   0  0  0  0  0  0  0  0  0  0  0  0
   -0.1877   12.8202   21.8432 N   0  0  0  0  0  0  0  0  0  0  0  0
    0.5309   12.3446   22.8479 C   0  0  0  0  0  0  0  0  0  0  0  0
   -3.2626   12.9557   20.9314 H   0  0  0  0  0  0  0  0  0  0  0  0
   -1.8728   13.5366   20.1322 H   0  0  0  0  0  0  0  0  0  0  0  0
    1.8633   12.3775   22.8807 N   0  0  0  0  0  0  0  0  0  0  0  0
    2.2856   12.9673   22.2151 H   0  0  0  0  0  0  0  0  0  0  0  0
    2.8049   11.6537   23.7757 C   0  0  0  0  0  0  0  0  0  0  0  0
    3.9294   12.4926   24.0555 C   0  0  0  0  0  0  0  0  0  0  0  0
    5.2642   12.0634   23.7810 C   0  0  0  0  0  0  0  0  0  0  0  0
    6.3956   12.8574   24.0296 C   0  0  0  0  0  0  0  0  0  0  0  0
    6.2183   14.1065   24.5635 C   0  0  0  0  0  0  0  0  0  0  0  0
    7.3320   14.8848   24.8303 C   0  0  0  0  0  0  0  0  0  0  0  0
    4.8995   14.5417   24.8577 C   0  0  0  0  0  0  0  0  0  0  0  0
    3.7670   13.7551   24.6156 C   0  0  0  0  0  0  0  0  0  0  0  0
  1  2  1  0  0  0
  1  8  2  0  0  0
  2  3  1  0  0  0
  2  4  2  0  0  0
  4  5  1  0  0  0
  5  6  1  0  0  0
  5  7  2  0  0  0
  7  8  1  0  0  0
  8 11  1  0  0  0
 11 13  1  0  0  0
 13 14  1  0  0  0
 14 15  1  0  0  0
 14 20  2  0  0  0
 15 16  2  0  0  0
 16 17  1  0  0  0
 17 18  1  0  0  0
 17 19  2  0  0  0
 19 20  1  0  0  0
  6  9  1  0  0  0
  6 10  1  0  0  0
 11 12  1  0  0  0
M  END
> <minimizedAffinity>
-8.71968

$$$$
5FNC_IEE_A_1225


 20 21  0  0  0  0  0  0  0  0999 V2000
    0.3442   11.6799   24.2289 C   0  0  0  0  0  0  0  0  0  0  0  0
   -0.5090   10.6132   24.4666 C   0  0  0  0  0  0  0  0  0  0  0  0
   -2.0895   10.9179   25.0198 Cl  0  0  0  0  0  0  0  0  0  0  0  0
   -0.1123    9.3496   24.2918 N   0  0  0  0  0  0  0  0  0  0  0  0
    1.1671    9.1530   23.9027 C   0  0  0  0  0  0  0  0  0  0  0  0
    1.5270    7.9034   23.7562 N   0  0  0  0  0  0  0  0  0  0  0  0
    2.0393   10.1560   23.5972 N   0  0  0  0  0  0  0  0  0  0  0  0
    1.6405   11.4047   23.7805 C   0  0  0  0  0  0  0  0  0  0  0  0
    0.8964    7.1804   23.9772 H   0  0  0  0  0  0  0  0  0  0  0  0
    2.4284    7.6863   23.4251 H   0  0  0  0  0  0  0  0  0  0  0  0
    2.4297   12.4640   23.5999 N   0  0  0  0  0  0  0  0  0  0  0  0
    3.0119   12.4239   22.8070 H   0  0  0  0  0  0  0  0  0  0  0  0
    2.5592   13.6972   24.4209 C   0  0  0  0  0  0  0  0  0  0  0  0
    3.9452   14.0085   24.5895 C   0  0  0  0  0  0  0  0  0  0  0  0
    4.9668   13.0851   24.2085 C   0  0  0  0  0  0  0  0  0  0  0  0
    6.3384   13.3531   24.3462 C   0  0  0  0  0  0  0  0  0  0  0  0
    6.7238   14.5576   24.8730 C   0  0  0  0  0  0  0  0  0  0  0  0
    8.0746   14.8180   25.0306 C   0  0  0  0  0  0  0  0  0  0  0  0
    5.7210   15.4796   25.2722 C   0  0  0  0  0  0  0  0  0  0  0  0
    4.3518   15.2188   25.1409 C   0  0  0  0  0  0  0  0  0  0  0  0
  1  2  1  0  0  0
  1  8  2  0  0  0
  2  3  1  0  0  0
  2  4  2  0  0  0
  4  5  1  0  0  0
  5  6  1  0  0  0
  5  7  2  0  0  0
  7  8  1  0  0  0
  8 11  1  0  0  0
 11 13  1  0  0  0
 13 14  1  0  0  0
 14 15  1  0  0  0
 14 20  2  0  0  0
 15 16  2  0  0  0
 16 17  1  0  0  0
 17 18  1  0  0  0
 17 19  2  0  0  0
 19 20  1  0  0  0
  6  9  1  0  0  0
  6 10  1  0  0  0
 11 12  1  0  0  0
M  END
> <minimizedAffinity>
-8.17586

$$$$
5FNC_IEE_A_1225


 20 21  0  0  0  0  0  0  0  0999 V2000
    5.4737    8.4759   23.8298 C   0  0  0  0  0  0  0  0  0  0  0  0
    5.2310    7.1109   23.8418 C   0  0  0  0  0  0  0  0  0  0  0  0
    5.7523    6.1838   25.1706 Cl  0  0  0  0  0  0  0  0  0  0  0  0
    4.6157    6.5023   22.8242 N   0  0  0  0  0  0  0  0  0  0  0  0
    4.2669    7.2688   21.7670 C   0  0  0  0  0  0  0  0  0  0  0  0
    3.6807    6.6383   20.7814 N   0  0  0  0  0  0  0  0  0  0  0  0
    4.4241    8.6226   21.7152 N   0  0  0  0  0  0  0  0  0  0  0  0
    5.0414    9.2163   22.7243 C   0  0  0  0  0  0  0  0  0  0  0  0
    3.5678    5.6611   20.8201 H   0  0  0  0  0  0  0  0  0  0  0  0
    3.3525    7.1412   20.0013 H   0  0  0  0  0  0  0  0  0  0  0  0
    5.3297   10.5178   22.7482 N   0  0  0  0  0  0  0  0  0  0  0  0
    4.6730   11.1019   22.3047 H   0  0  0  0  0  0  0  0  0  0  0  0
    6.4982   11.2162   23.3468 C   0  0  0  0  0  0  0  0  0  0  0  0
    6.0661   12.4544   23.9182 C   0  0  0  0  0  0  0  0  0  0  0  0
    4.6802   12.7372   24.1197 C   0  0  0  0  0  0  0  0  0  0  0  0
    4.2121   13.9338   24.6864 C   0  0  0  0  0  0  0  0  0  0  0  0
    5.1242   14.8830   25.0658 C   0  0  0  0  0  0  0  0  0  0  0  0
    4.6667   16.0733   25.6053 C   0  0  0  0  0  0  0  0  0  0  0  0
    6.5044   14.6247   24.8571 C   0  0  0  0  0  0  0  0  0  0  0  0
    6.9787   13.4357   24.2903 C   0  0  0  0  0  0  0  0  0  0  0  0
  1  2  1  0  0  0
  1  8  2  0  0  0
  2  3  1  0  0  0
  2  4  2  0  0  0
  4  5  1  0  0  0
  5  6  1  0  0  0
  5  7  2  0  0  0
  7  8  1  0  0  0
  8 11  1  0  0  0
 11 13  1  0  0  0
 13 14  1  0  0  0
 14 15  1  0  0  0
 14 20  2  0  0  0
 15 16  2  0  0  0
 16 17  1  0  0  0
 17 18  1  0  0  0
 17 19  2  0  0  0
 19 20  1  0  0  0
  6  9  1  0  0  0
  6 10  1  0  0  0
 11 12  1  0  0  0
M  END
> <minimizedAffinity>
-8.16461

$$$$
5FNC_IEE_A_1225


 20 21  0  0  0  0  0  0  0  0999 V2000
    6.0484   13.9823   24.5689 C   0  0  0  0  0  0  0  0  0  0  0  0
    6.0682   14.9368   25.5744 C   0  0  0  0  0  0  0  0  0  0  0  0
    4.7250   15.9626   25.7758 Cl  0  0  0  0  0  0  0  0  0  0  0  0
    7.1265   15.0844   26.3761 N   0  0  0  0  0  0  0  0  0  0  0  0
    8.1911   14.2841   26.1458 C   0  0  0  0  0  0  0  0  0  0  0  0
    9.2161   14.4658   26.9388 N   0  0  0  0  0  0  0  0  0  0  0  0
    8.2159   13.2888   25.2135 N   0  0  0  0  0  0  0  0  0  0  0  0
    7.1662   13.1546   24.4186 C   0  0  0  0  0  0  0  0  0  0  0  0
    9.1968   15.1846   27.6112 H   0  0  0  0  0  0  0  0  0  0  0  0
   10.0065   13.8838   26.8629 H   0  0  0  0  0  0  0  0  0  0  0  0
    7.1088   12.2776   23.4162 N   0  0  0  0  0  0  0  0  0  0  0  0
    6.6365   12.5901   22.6109 H   0  0  0  0  0  0  0  0  0  0  0  0
    7.6538   10.8963   23.3364 C   0  0  0  0  0  0  0  0  0  0  0  0
    6.6144    9.9606   23.6375 C   0  0  0  0  0  0  0  0  0  0  0  0
    5.2376   10.2912   23.4465 C   0  0  0  0  0  0  0  0  0  0  0  0
    4.1862    9.4010   23.7185 C   0  0  0  0  0  0  0  0  0  0  0  0
    4.4880    8.1517   24.1927 C   0  0  0  0  0  0  0  0  0  0  0  0
    3.4539    7.2777   24.4826 C   0  0  0  0  0  0  0  0  0  0  0  0
    5.8503    7.8130   24.4039 C   0  0  0  0  0  0  0  0  0  0  0  0
    6.9038    8.6957   24.1380 C   0  0  0  0  0  0  0  0  0  0  0  0
  1  2  1  0  0  0
  1  8  2  0  0  0
  2  3  1  0  0  0
  2  4  2  0  0  0
  4  5  1  0  0  0
  5  6  1  0  0  0
  5  7  2  0  0  0
  7  8  1  0  0  0
  8 11  1  0  0  0
 11 13  1  0  0  0
 13 14  1  0  0  0
 14 15  1  0  0  0
 14 20  2  0  0  0
 15 16  2  0  0  0
 16 17  1  0  0  0
 17 18  1  0  0  0
 17 19  2  0  0  0
 19 20  1  0  0  0
  6  9  1  0  0  0
  6 10  1  0  0  0
 11 12  1  0  0  0
M  END
> <minimizedAffinity>
-7.94221

$$$$
5FNC_IEE_A_1225


 20 21  0  0  0  0  0  0  0  0999 V2000
    0.1543   12.5281   22.3419 C   0  0  0  0  0  0  0  0  0  0  0  0
   -1.2233   12.6490   22.2417 C   0  0  0  0  0  0  0  0  0  0  0  0
   -1.8948   13.4260   20.8844 Cl  0  0  0  0  0  0  0  0  0  0  0  0
   -2.0358   12.1881   23.1967 N   0  0  0  0  0  0  0  0  0  0  0  0
   -1.4567   11.6261   24.2809 C   0  0  0  0  0  0  0  0  0  0  0  0
   -2.2807   11.1998   25.2039 N   0  0  0  0  0  0  0  0  0  0  0  0
   -0.1146   11.4246   24.4167 N   0  0  0  0  0  0  0  0  0  0  0  0
    0.6835   11.8911   23.4694 C   0  0  0  0  0  0  0  0  0  0  0  0
   -3.2492   11.3459   25.1046 H   0  0  0  0  0  0  0  0  0  0  0  0
   -1.9320   10.7330   25.9975 H   0  0  0  0  0  0  0  0  0  0  0  0
    2.0139   11.8317   23.5320 N   0  0  0  0  0  0  0  0  0  0  0  0
    2.4158   11.0123   23.1626 H   0  0  0  0  0  0  0  0  0  0  0  0
    2.9797   12.8219   24.0780 C   0  0  0  0  0  0  0  0  0  0  0  0
    4.3066   12.2998   23.9635 C   0  0  0  0  0  0  0  0  0  0  0  0
    4.5429   10.9528   23.5498 C   0  0  0  0  0  0  0  0  0  0  0  0
    5.8276   10.4024   23.4137 C   0  0  0  0  0  0  0  0  0  0  0  0
    6.9136   11.1900   23.6914 C   0  0  0  0  0  0  0  0  0  0  0  0
    8.1817   10.6456   23.5793 C   0  0  0  0  0  0  0  0  0  0  0  0
    6.6957   12.5258   24.1198 C   0  0  0  0  0  0  0  0  0  0  0  0
    5.4183   13.0808   24.2607 C   0  0  0  0  0  0  0  0  0  0  0  0
  1  2  1  0  0  0
  1  8  2  0  0  0
  2  3  1  0  0  0
  2  4  2  0  0  0
  4  5  1  0  0  0
  5  6  1  0  0  0
  5  7  2  0  0  0
  7  8  1  0  0  0
  8 11  1  0  0  0
 11 13  1  0  0  0
 13 14  1  0  0  0
 14 15  1  0  0  0
 14 20  2  0  0  0
 15 16  2  0  0  0
 16 17  1  0  0  0
 17 18  1  0  0  0
 17 19  2  0  0  0
 19 20  1  0  0  0
  6  9  1  0  0  0
  6 10  1  0  0  0
 11 12  1  0  0  0
M  END
> <minimizedAffinity>
-7.92581

$$$$
5FNC_IEE_A_1225


 20 21  0  0  0  0  0  0  0  0999 V2000
    1.1196    9.6580   26.0017 C   0  0  0  0  0  0  0  0  0  0  0  0
   -0.2161    9.6546   26.3736 C   0  0  0  0  0  0  0  0  0  0  0  0
   -0.6639    8.9658   27.8643 Cl  0  0  0  0  0  0  0  0  0  0  0  0
   -1.1632   10.1606   25.5791 N   0  0  0  0  0  0  0  0  0  0  0  0
   -0.7683   10.6488   24.3822 C   0  0  0  0  0  0  0  0  0  0  0  0
   -1.7231   11.1221   23.6227 N   0  0  0  0  0  0  0  0  0  0  0  0
    0.5318   10.7347   23.9793 N   0  0  0  0  0  0  0  0  0  0  0  0
    1.4630   10.2241   24.7693 C   0  0  0  0  0  0  0  0  0  0  0  0
   -2.6612   11.0594   23.9147 H   0  0  0  0  0  0  0  0  0  0  0  0
   -1.5033   11.5409   22.7593 H   0  0  0  0  0  0  0  0  0  0  0  0
    2.7553   10.1711   24.4458 N   0  0  0  0  0  0  0  0  0  0  0  0
    3.3043    9.5748   25.0046 H   0  0  0  0  0  0  0  0  0  0  0  0
    3.4888   10.8809   23.3642 C   0  0  0  0  0  0  0  0  0  0  0  0
    3.9952   12.1190   23.8712 C   0  0  0  0  0  0  0  0  0  0  0  0
    3.1178   13.1696   24.2809 C   0  0  0  0  0  0  0  0  0  0  0  0
    3.5706   14.3960   24.7938 C   0  0  0  0  0  0  0  0  0  0  0  0
    4.9199   14.6032   24.9084 C   0  0  0  0  0  0  0  0  0  0  0  0
    5.3718   15.8188   25.3936 C   0  0  0  0  0  0  0  0  0  0  0  0
    5.8058   13.5758   24.4901 C   0  0  0  0  0  0  0  0  0  0  0  0
    5.3623   12.3519   23.9752 C   0  0  0  0  0  0  0  0  0  0  0  0
  1  2  1  0  0  0
  1  8  2  0  0  0
  2  3  1  0  0  0
  2  4  2  0  0  0
  4  5  1  0  0  0
  5  6  1  0  0  0
  5  7  2  0  0  0
  7  8  1  0  0  0
  8 11  1  0  0  0
 11 13  1  0  0  0
 13 14  1  0  0  0
 14 15  1  0  0  0
 14 20  2  0  0  0
 15 16  2  0  0  0
 16 17  1  0  0  0
 17 18  1  0  0  0
 17 19  2  0  0  0
 19 20  1  0  0  0
  6  9  1  0  0  0
  6 10  1  0  0  0
 11 12  1  0  0  0
M  END
> <minimizedAffinity>
-7.90021

$$$$
5FNC_IEE_A_1225


 20 21  0  0  0  0  0  0  0  0999 V2000
    1.6166    9.5484   25.6271 C   0  0  0  0  0  0  0  0  0  0  0  0
    1.0706    8.7993   26.6582 C   0  0  0  0  0  0  0  0  0  0  0  0
    1.8522    7.3712   27.1547 Cl  0  0  0  0  0  0  0  0  0  0  0  0
   -0.0672    9.1613   27.2573 N   0  0  0  0  0  0  0  0  0  0  0  0
   -0.6812   10.2730   26.7949 C   0  0  0  0  0  0  0  0  0  0  0  0
   -1.8009   10.5900   27.3935 N   0  0  0  0  0  0  0  0  0  0  0  0
   -0.1705   11.0852   25.8255 N   0  0  0  0  0  0  0  0  0  0  0  0
    0.9532   10.7151   25.2321 C   0  0  0  0  0  0  0  0  0  0  0  0
   -2.1685   10.0028   28.0930 H   0  0  0  0  0  0  0  0  0  0  0  0
   -2.2758   11.4155   27.1442 H   0  0  0  0  0  0  0  0  0  0  0  0
    1.5023   11.3792   24.2148 N   0  0  0  0  0  0  0  0  0  0  0  0
    1.9536   10.8196   23.5423 H   0  0  0  0  0  0  0  0  0  0  0  0
    1.5327   12.8418   23.9473 C   0  0  0  0  0  0  0  0  0  0  0  0
    2.8364   13.3492   24.2460 C   0  0  0  0  0  0  0  0  0  0  0  0
    4.0100   12.5684   24.0127 C   0  0  0  0  0  0  0  0  0  0  0  0
    5.3088   13.0301   24.2809 C   0  0  0  0  0  0  0  0  0  0  0  0
    5.4662   14.2907   24.7936 C   0  0  0  0  0  0  0  0  0  0  0  0
    6.7434   14.7424   25.0797 C   0  0  0  0  0  0  0  0  0  0  0  0
    4.3093   15.0733   25.0470 C   0  0  0  0  0  0  0  0  0  0  0  0
    3.0112   14.6192   24.7851 C   0  0  0  0  0  0  0  0  0  0  0  0
  1  2  1  0  0  0
  1  8  2  0  0  0
  2  3  1  0  0  0
  2  4  2  0  0  0
  4  5  1  0  0  0
  5  6  1  0  0  0
  5  7  2  0  0  0
  7  8  1  0  0  0
  8 11  1  0  0  0
 11 13  1  0  0  0
 13 14  1  0  0  0
 14 15  1  0  0  0
 14 20  2  0  0  0
 15 16  2  0  0  0
 16 17  1  0  0  0
 17 18  1  0  0  0
 17 19  2  0  0  0
 19 20  1  0  0  0
  6  9  1  0  0  0
  6 10  1  0  0  0
 11 12  1  0  0  0
M  END
> <minimizedAffinity>
-7.82348

$$$$
5FNC_IEE_A_1225


 20 21  0  0  0  0  0  0  0  0999 V2000
    0.2912   12.2586   23.0308 C   0  0  0  0  0  0  0  0  0  0  0  0
   -1.0194   12.0389   23.4266 C   0  0  0  0  0  0  0  0  0  0  0  0
   -2.2776   12.8750   22.6426 Cl  0  0  0  0  0  0  0  0  0  0  0  0
   -1.3162   11.2013   24.4241 N   0  0  0  0  0  0  0  0  0  0  0  0
   -0.2819   10.5999   25.0529 C   0  0  0  0  0  0  0  0  0  0  0  0
   -0.6072    9.7985   26.0349 N   0  0  0  0  0  0  0  0  0  0  0  0
    1.0232   10.7271   24.6780 N   0  0  0  0  0  0  0  0  0  0  0  0
    1.3090   11.5647   23.6938 C   0  0  0  0  0  0  0  0  0  0  0  0
   -1.5498    9.7076   26.3045 H   0  0  0  0  0  0  0  0  0  0  0  0
    0.0905    9.2865   26.5042 H   0  0  0  0  0  0  0  0  0  0  0  0
    2.5521   11.8380   23.2969 N   0  0  0  0  0  0  0  0  0  0  0  0
    2.6449   12.6327   22.7232 H   0  0  0  0  0  0  0  0  0  0  0  0
    3.8190   11.1181   23.5940 C   0  0  0  0  0  0  0  0  0  0  0  0
    4.8540   12.0711   23.8526 C   0  0  0  0  0  0  0  0  0  0  0  0
    4.5549   13.3799   24.3415 C   0  0  0  0  0  0  0  0  0  0  0  0
    5.5389   14.3426   24.6189 C   0  0  0  0  0  0  0  0  0  0  0  0
    6.8536   14.0184   24.4110 C   0  0  0  0  0  0  0  0  0  0  0  0
    7.8260   14.9714   24.6628 C   0  0  0  0  0  0  0  0  0  0  0  0
    7.1668   12.7278   23.9096 C   0  0  0  0  0  0  0  0  0  0  0  0
    6.1916   11.7637   23.6280 C   0  0  0  0  0  0  0  0  0  0  0  0
  1  2  1  0  0  0
  1  8  2  0  0  0
  2  3  1  0  0  0
  2  4  2  0  0  0
  4  5  1  0  0  0
  5  6  1  0  0  0
  5  7  2  0  0  0
  7  8  1  0  0  0
  8 11  1  0  0  0
 11 13  1  0  0  0
 13 14  1  0  0  0
 14 15  1  0  0  0
 14 20  2  0  0  0
 15 16  2  0  0  0
 16 17  1  0  0  0
 17 18  1  0  0  0
 17 19  2  0  0  0
 19 20  1  0  0  0
  6  9  1  0  0  0
  6 10  1  0  0  0
 11 12  1  0  0  0
M  END
> <minimizedAffinity>
-7.76048

$$$$
