3MZ6_B3N_A_701
  RCSB PDB12061709503D
Coordinates from PDB:3MZ6:A:701 Model:1 without hydrogens
 22 22  0  0  0  0            999 V2000
   -0.5420   43.6100    0.5860   O 0  0  0  0  0  0  0  0  0  0  0  0
   -0.4810   43.9260    1.5310   C 0  0  0  0  0  0  0  0  0  0  0  0
   -0.7100   45.4250    1.8120   C 0  0  0  0  0  0  0  0  0  0  0  0
    0.0780   46.1530    2.7940   C 0  0  0  0  0  0  0  0  0  0  0  0
   -0.1540   47.5620    3.0500   C 0  0  0  0  0  0  0  0  0  0  0  0
   -1.1880   48.2950    2.3290   C 0  0  0  0  0  0  0  0  0  0  0  0
   -1.4580   49.7090    2.5660   N 0  0  0  0  0  0  0  0  0  0  0  0
   -2.5690   50.4010    1.9000   C 0  0  0  0  0  0  0  0  0  0  0  0
   -0.6960   50.5200    3.5160   C 0  0  0  0  0  0  0  0  0  0  0  0
   -1.9930   47.5300    1.3460   C 0  0  0  0  0  0  0  0  0  0  0  0
   -1.7370   46.1510    1.0900   C 0  0  0  0  0  0  0  0  0  0  0  0
   -0.2160   43.0860    2.5730   N 0  0  0  0  0  0  0  0  0  0  0  0
    0.0460   41.6230    2.5860   C 0  0  0  0  0  0  0  0  0  0  0  0
    0.6310   41.0090    1.2980   C 0  0  0  0  0  0  0  0  0  0  0  0
    1.7240   39.9730    1.6230   C 0  0  0  0  0  0  0  0  0  0  0  0
    1.2010   38.6710    2.1950   C 0  0  0  0  0  0  0  0  0  0  0  0
    1.7440   37.4680    1.4290   C 0  0  0  0  0  0  0  0  0  0  0  0
    2.3970   36.5090    2.4160   C 0  0  0  0  0  0  0  0  0  0  0  0
    1.8740   35.0690    2.3380   C 0  0  0  0  0  0  0  0  0  0  0  0
    0.7680   34.7760    2.7960   O 0  0  0  0  0  0  0  0  0  0  0  0
    2.6060   34.1270    1.7680   N 0  0  0  0  0  0  0  0  0  0  0  0
    2.1540   32.9790    1.7120   O 0  0  0  0  0  0  0  0  0  0  0  0
  1  2  2  0  0  0  0
  2  3  1  0  0  0  0
  2 12  1  0  0  0  0
  3  4  2  0  0  0  0
  3 11  1  0  0  0  0
  4  5  1  0  0  0  0
  5  6  2  0  0  0  0
  6  7  1  0  0  0  0
  6 10  1  0  0  0  0
  7  8  1  0  0  0  0
  7  9  1  0  0  0  0
 10 11  2  0  0  0  0
 12 13  1  0  0  0  0
 13 14  1  0  0  0  0
 14 15  1  0  0  0  0
 15 16  1  0  0  0  0
 16 17  1  0  0  0  0
 17 18  1  0  0  0  0
 18 19  1  0  0  0  0
 19 20  2  0  0  0  0
 19 21  1  0  0  0  0
 21 22  1  0  0  0  0
A    1
O23
A    2
C13
A    3
C14
A    4
C15
A    5
C16
A    6
C17
A    7
N20
A    8
C22
A    9
C21
A   10
C18
A   11
C19
A   12
N12
A   13
C10
A   14
C9
A   15
C8
A   16
C7
A   17
C6
A   18
C5
A   19
C1
A   20
O2
A   21
N3
A   22
O4
M  END
>  <InstanceId>
3MZ6_B3N_A_701

>  <ChemCompId>
B3N

>  <PdbId>
3MZ6

>  <ChainId>
A

>  <ResidueNumber>
701

>  <InsertionCode>


>  <Model>
1

>  <AltIds>


>  <MissingHeavyAtoms>
0

>  <ObservedFormula>
C16 N3 O3

>  <Name>
4-(dimethylamino)-N-[7-(hydroxyamino)-7-oxoheptyl]benzamide

>  <SystematicName>
4-(dimethylamino)-N-[7-(hydroxyamino)-7-oxo-heptyl]benzamide

>  <Synonyms>
M344

>  <Type>
NON-POLYMER

>  <Formula>
C16 H25 N3 O3

>  <MolecularWeight>
307.388

>  <ModifiedDate>
2011-06-04

>  <Parent>


>  <OneLetterCode>


>  <SubcomponentList>


>  <AmbiguousFlag>
N

>  <InChI>
InChI=1S/C16H25N3O3/c1-19(2)14-10-8-13(9-11-14)16(21)17-12-6-4-3-5-7-15(20)18-22/h8-11,22H,3-7,12H2,1-2H3,(H,17,21)(H,18,20)

>  <InChIKey>
MXWDSZWTBOCWBK-UHFFFAOYSA-N

>  <SMILES>
CN(C)c1ccc(cc1)C(=O)NCCCCCCC(=O)NO

$$$$
