1K6V_XN2_B_252
  RCSB PDB12061703023D
Coordinates from PDB:1K6V:B:252 Model:1 without hydrogens
 49 54  0  0  0  0            999 V2000
    3.1180   -5.2840   16.2850   N 0  0  0  0  0  0  0  0  0  0  0  0
    4.5860   -5.1680   15.7160   C 0  0  0  0  0  0  0  0  0  0  0  0
    5.3840   -4.0130   16.3090   C 0  0  0  0  0  0  0  0  0  0  0  0
    6.7110   -4.0500   15.6500   C 0  0  0  0  0  0  0  0  0  0  0  0
    6.7840   -3.6980   14.4150   O 0  0  0  0  0  0  0  0  0  0  0  0
    7.7990   -4.4460   16.4110   N 0  0  0  0  0  0  0  0  0  0  0  0
    9.2450   -4.5680   16.0530   C 0  0  0  0  0  0  0  0  0  0  0  0
   10.0490   -5.0680   17.2840   C 0  0  0  0  0  0  0  0  0  0  0  0
    9.8370   -3.3260   15.7490   C 0  0  0  0  0  0  0  0  0  0  0  0
    9.5300   -5.5060   14.9120   C 0  0  0  0  0  0  0  0  0  0  0  0
    4.4720   -2.7710   16.0070   N 0  0  0  0  0  0  0  0  0  0  0  0
    3.0220   -2.7640   16.4400   C 0  0  0  0  0  0  0  0  0  0  0  0
    2.4060   -4.0570   15.8710   C 0  0  0  0  0  0  0  0  0  0  0  0
    5.0920   -1.5070   16.5610   C 0  0  0  0  0  0  0  0  0  0  0  0
    5.0370   -0.4330   15.5530   C 0  0  0  0  0  0  0  0  0  0  0  0
    5.1910    0.5900   16.5100   O 0  0  0  0  0  0  0  0  0  0  0  0
    6.1970   -0.2170   14.6540   C 0  0  0  0  0  0  0  0  0  0  0  0
    6.1500    0.8690   13.5930   C 0  0  0  0  0  0  0  0  0  0  0  0
    7.5870    0.8640   12.7980   C 0  0  0  0  0  0  0  0  0  0  0  0
    7.5480    1.9760   11.6720   C 0  0  0  0  0  0  0  0  0  0  0  0
    7.3350    3.4760   11.9910   C 0  0  0  0  0  0  0  0  0  0  0  0
    7.2970    4.4600   10.8930   C 0  0  0  0  0  0  0  0  0  0  0  0
    7.4670    3.9730    9.4580   C 0  0  0  0  0  0  0  0  0  0  0  0
    7.6730    2.5090    9.1600   C 0  0  0  0  0  0  0  0  0  0  0  0
    7.7110    1.5320   10.2530   C 0  0  0  0  0  0  0  0  0  0  0  0
    4.9970    0.6110   12.5050   C 0  0  0  0  0  0  0  0  0  0  0  0
    4.6510   -0.5420   12.0120   O 0  0  0  0  0  0  0  0  0  0  0  0
    4.4610    1.7520   12.1510   N 0  0  0  0  0  0  0  0  0  0  0  0
    3.4190    1.8900   11.1550   C 0  0  0  0  0  0  0  0  0  0  0  0
    3.4300    3.2720   10.5340   C 0  0  0  0  0  0  0  0  0  0  0  0
    3.7100    4.2880   11.4950   O 0  0  0  0  0  0  0  0  0  0  0  0
    2.1000    3.3840    9.8350   C 0  0  0  0  0  0  0  0  0  0  0  0
    1.0540    2.7220   10.6700   C 0  0  0  0  0  0  0  0  0  0  0  0
   -0.3600    2.7710   10.8350   C 0  0  0  0  0  0  0  0  0  0  0  0
   -0.9730    1.8760   11.8430   C 0  0  0  0  0  0  0  0  0  0  0  0
   -0.1500    0.9330   12.6790   C 0  0  0  0  0  0  0  0  0  0  0  0
    1.2870    0.8820   12.5130   C 0  0  0  0  0  0  0  0  0  0  0  0
    1.9540    1.7150   11.5640   C 0  0  0  0  0  0  0  0  0  0  0  0
    2.4080   -6.4070   15.6970   C 0  0  0  0  0  0  0  0  0  0  0  0
    2.9580   -7.7770   16.0440   C 0  0  0  0  0  0  0  0  0  0  0  0
    2.7520   -8.2970   17.4260   C 0  0  0  0  0  0  0  0  0  0  0  0
    3.9750  -10.4000   16.8410   C 0  0  0  0  0  0  0  0  0  0  0  0
    4.2190   -9.9650   15.4650   C 0  0  0  0  0  0  0  0  0  0  0  0
    3.7020   -8.6230   15.0450   C 0  0  0  0  0  0  0  0  0  0  0  0
    4.5420  -11.6570   16.9900   O 0  0  0  0  0  0  0  0  0  0  0  0
    5.2090  -12.2010   15.7870   C 0  0  0  0  0  0  0  0  0  0  0  0
    4.9220  -11.0170   14.9000   O 0  0  0  0  0  0  0  0  0  0  0  0
    3.2400   -9.6210   17.9060   C 0  0  0  0  0  0  0  0  0  0  0  0
    8.8100    0.8990   13.2310   C 0  0  0  0  0  0  0  0  0  0  0  0
  1  2  1  0  0  0  0
  1 13  1  0  0  0  0
  1 39  1  0  0  0  0
  2  3  1  0  0  0  0
  3  4  1  0  0  0  0
  3 11  1  0  0  0  0
  4  5  2  0  0  0  0
  4  6  1  0  0  0  0
  6  7  1  0  0  0  0
  7  8  1  0  0  0  0
  7  9  1  0  0  0  0
  7 10  1  0  0  0  0
 11 12  1  0  0  0  0
 11 14  1  0  0  0  0
 12 13  1  0  0  0  0
 14 15  1  0  0  0  0
 15 16  1  0  0  0  0
 15 17  1  0  0  0  0
 17 18  1  0  0  0  0
 18 19  1  0  0  0  0
 18 26  1  0  0  0  0
 19 20  1  0  0  0  0
 19 49  1  0  0  0  0
 20 21  2  0  0  0  0
 20 25  1  0  0  0  0
 21 22  1  0  0  0  0
 22 23  2  0  0  0  0
 23 24  1  0  0  0  0
 24 25  2  0  0  0  0
 26 27  2  0  0  0  0
 26 28  1  0  0  0  0
 28 29  1  0  0  0  0
 29 30  1  0  0  0  0
 29 38  1  0  0  0  0
 30 31  1  0  0  0  0
 30 32  1  0  0  0  0
 32 33  1  0  0  0  0
 33 34  2  0  0  0  0
 33 38  1  0  0  0  0
 34 35  1  0  0  0  0
 35 36  2  0  0  0  0
 36 37  1  0  0  0  0
 37 38  2  0  0  0  0
 39 40  1  0  0  0  0
 40 41  2  0  0  0  0
 40 44  1  0  0  0  0
 41 48  1  0  0  0  0
 42 43  1  0  0  0  0
 42 45  1  0  0  0  0
 42 48  2  0  0  0  0
 43 44  2  0  0  0  0
 43 47  1  0  0  0  0
 45 46  1  0  0  0  0
 46 47  1  0  0  0  0
A    1
N1
A    2
C1
A    3
C2
A    4
C3
A    5
O1
A    6
N2
A    7
C4
A    8
C5
A    9
C6
A   10
C7
A   11
N3
A   12
C8
A   13
C9
A   14
C10
A   15
C11
A   16
O2
A   17
C12
A   18
C13
A   19
C14
A   20
C15
A   21
C16
A   22
C17
A   23
C18
A   24
C19
A   25
C20
A   26
C21
A   27
O3
A   28
N4
A   29
C22
A   30
C23
A   31
O4
A   32
C24
A   33
C25
A   34
C26
A   35
C27
A   36
C28
A   37
C29
A   38
C30
A   39
C31
A   40
C32
A   41
C33
A   42
C34
A   43
C35
A   44
C36
A   45
O5
A   46
C38
A   47
O6
A   48
C37
A   49
C39
M  END
>  <InstanceId>
1K6V_XN2_B_252

>  <ChemCompId>
XN2

>  <PdbId>
1K6V

>  <ChainId>
B

>  <ResidueNumber>
252

>  <InsertionCode>


>  <Model>
1

>  <AltIds>


>  <MissingHeavyAtoms>
0

>  <ObservedFormula>
C39 N4 O6

>  <Name>
N-[2-HYDROXY-1-INDANYL]-5-[(2-TERTIARYBUTYLAMINOCARBONYL)-4(BENZO[1,3]DIOXOL-5-YLMETHYL)-PIPERAZINO]-4-HYDROXY-2-(1-PHENYLETHYL)-PENTANAMIDE

>  <SystematicName>
(1S,2S,4R)-4-(1,3-benzodioxol-5-ylmethyl)-N-tert-butyl-1-[(2S,4S,5S)-2-hydroxy-4-[[(1S,2R)-2-hydroxy-2,3-dihydro-1H-inden-1-yl]carbamoyl]-5-phenyl-hexyl]piperazine-2-carboxamide

>  <Synonyms>
ANALOGUE OF INDINAVIR DRUG

>  <Type>
NON-POLYMER

>  <Formula>
C39 H50 N4 O6

>  <MolecularWeight>
670.837

>  <ModifiedDate>
2011-06-04

>  <Parent>


>  <OneLetterCode>


>  <SubcomponentList>


>  <AmbiguousFlag>
N

>  <InChI>
InChI=1S/C39H50N4O6/c1-25(27-10-6-5-7-11-27)31(37(46)40-36-30-13-9-8-12-28(30)19-33(36)45)20-29(44)22-43-17-16-42(23-32(43)38(47)41-39(2,3)4)21-26-14-15-34-35(18-26)49-24-48-34/h5-15,18,25,29,31-33,36,44-45H,16-17,19-24H2,1-4H3,(H,40,46)(H,41,47)/t25-,29+,31+,32+,33-,36+/m1/s1

>  <InChIKey>
MJIRDPUZGGHJMX-OIVSQUILSA-N

>  <SMILES>
C[C@H](c1ccccc1)[C@H](C[C@@H](C[N@@]2CC[N@](C[C@H]2C(=O)NC(C)(C)C)Cc3ccc4c(c3)OCO4)O)C(=O)N[C@H]5c6ccccc6C[C@H]5O

$$$$
