1K6V_XN2_B_252


 53 58  0  0  0  0  0  0  0  0999 V2000
    5.0337   -0.7409   15.4020 C   0  0  0  0  0  0  0  0  0  0  0  0
    5.1042    0.3783   16.2555 O   0  0  0  0  0  0  0  0  0  0  0  0
    5.9312    0.3475   16.7615 H   0  0  0  0  0  0  0  0  0  0  0  0
    5.1100   -1.7057   16.5138 C   0  0  0  0  0  0  0  0  0  0  0  0
    3.4034   -5.6202   16.5677 N   0  0  0  0  0  0  0  0  0  0  0  0
    4.8567   -5.4498   15.9750 C   0  0  0  0  0  0  0  0  0  0  0  0
    5.5751   -4.1976   16.4633 C   0  0  0  0  0  0  0  0  0  0  0  0
    4.5769   -3.0507   16.0713 N   0  0  0  0  0  0  0  0  0  0  0  0
    3.1323   -3.1087   16.5182 C   0  0  0  0  0  0  0  0  0  0  0  0
    2.6052   -4.4835   16.0631 C   0  0  0  0  0  0  0  0  0  0  0  0
    6.8979   -4.1965   15.7949 C   0  0  0  0  0  0  0  0  0  0  0  0
    6.9313   -4.0452   14.5180 O   0  0  0  0  0  0  0  0  0  0  0  0
    8.0233   -4.3414   16.5901 N   0  0  0  0  0  0  0  0  0  0  0  0
    7.8366   -4.4490   17.5508 H   0  0  0  0  0  0  0  0  0  0  0  0
    9.4738   -4.3614   16.2303 C   0  0  0  0  0  0  0  0  0  0  0  0
   10.3135   -4.7921   17.4637 C   0  0  0  0  0  0  0  0  0  0  0  0
    9.9740   -3.0824   15.9154 C   0  0  0  0  0  0  0  0  0  0  0  0
    9.8244   -5.2855   15.0963 C   0  0  0  0  0  0  0  0  0  0  0  0
    2.7706   -6.8340   16.0808 C   0  0  0  0  0  0  0  0  0  0  0  0
    3.5356   -8.1165   16.3450 C   0  0  0  0  0  0  0  0  0  0  0  0
    3.7247   -9.0765   15.2201 C   0  0  0  0  0  0  0  0  0  0  0  0
    4.9855  -10.6270   16.7258 C   0  0  0  0  0  0  0  0  0  0  0  0
    4.8458   -9.7399   17.8815 C   0  0  0  0  0  0  0  0  0  0  0  0
    4.1053   -8.4504   17.6982 C   0  0  0  0  0  0  0  0  0  0  0  0
    5.6981  -11.7433   17.1379 O   0  0  0  0  0  0  0  0  0  0  0  0
    6.1085  -11.7474   18.5590 C   0  0  0  0  0  0  0  0  0  0  0  0
    5.4981  -10.4129   18.9021 O   0  0  0  0  0  0  0  0  0  0  0  0
    4.4501  -10.3734   15.3364 C   0  0  0  0  0  0  0  0  0  0  0  0
    6.2101   -0.5528   14.5182 C   0  0  0  0  0  0  0  0  0  0  0  0
    6.2627    0.6207   13.5551 C   0  0  0  0  0  0  0  0  0  0  0  0
    5.1342    0.5276   12.4161 C   0  0  0  0  0  0  0  0  0  0  0  0
    4.7740   -0.5476   11.7785 O   0  0  0  0  0  0  0  0  0  0  0  0
    4.6361    1.7173   12.1901 N   0  0  0  0  0  0  0  0  0  0  0  0
    4.9706    2.4668   12.7338 H   0  0  0  0  0  0  0  0  0  0  0  0
    3.6256    2.0030   11.1930 C   0  0  0  0  0  0  0  0  0  0  0  0
    3.6468    3.4634   10.7899 C   0  0  0  0  0  0  0  0  0  0  0  0
    3.8887    4.3220   11.9027 O   0  0  0  0  0  0  0  0  0  0  0  0
    2.3392    3.6776   10.0728 C   0  0  0  0  0  0  0  0  0  0  0  0
    1.2716    2.8942   10.7628 C   0  0  0  0  0  0  0  0  0  0  0  0
   -0.1473    2.9146   10.8870 C   0  0  0  0  0  0  0  0  0  0  0  0
   -0.7860    1.8754   11.7267 C   0  0  0  0  0  0  0  0  0  0  0  0
    0.0164    0.8180   12.4362 C   0  0  0  0  0  0  0  0  0  0  0  0
    1.4583    0.7958   12.3115 C   0  0  0  0  0  0  0  0  0  0  0  0
    2.1495    1.7648   11.5225 C   0  0  0  0  0  0  0  0  0  0  0  0
    3.2021    4.1829   12.5737 H   0  0  0  0  0  0  0  0  0  0  0  0
    7.7232    0.5957   12.8044 C   0  0  0  0  0  0  0  0  0  0  0  0
    8.9321    0.5603   13.2752 C   0  0  0  0  0  0  0  0  0  0  0  0
    7.7636    1.7612   11.7340 C   0  0  0  0  0  0  0  0  0  0  0  0
    7.8381    1.4903   10.2114 C   0  0  0  0  0  0  0  0  0  0  0  0
    7.8851    2.6226    9.2675 C   0  0  0  0  0  0  0  0  0  0  0  0
    7.8617    4.0447    9.8176 C   0  0  0  0  0  0  0  0  0  0  0  0
    7.7899    4.2956   11.3029 C   0  0  0  0  0  0  0  0  0  0  0  0
    7.7428    3.1686   12.2400 C   0  0  0  0  0  0  0  0  0  0  0  0
  5  6  1  0  0  0
  5 10  1  0  0  0
  5 19  1  0  0  0
  6  7  1  0  0  0
  7 11  1  0  0  0
  7  8  1  0  0  0
 11 12  2  0  0  0
 11 13  1  0  0  0
 13 15  1  0  0  0
 15 16  1  0  0  0
 15 17  1  0  0  0
 15 18  1  0  0  0
  8  9  1  0  0  0
  8  4  1  0  0  0
  9 10  1  0  0  0
  4  1  1  0  0  0
  1  2  1  0  0  0
  1 29  1  0  0  0
 29 30  1  0  0  0
 30 46  1  0  0  0
 30 31  1  0  0  0
 46 48  1  0  0  0
 46 47  1  0  0  0
 48 49  2  0  0  0
 48 53  1  0  0  0
 49 50  1  0  0  0
 50 51  2  0  0  0
 51 52  1  0  0  0
 52 53  2  0  0  0
 31 32  2  0  0  0
 31 33  1  0  0  0
 33 35  1  0  0  0
 35 36  1  0  0  0
 35 44  1  0  0  0
 36 37  1  0  0  0
 36 38  1  0  0  0
 38 39  1  0  0  0
 39 40  2  0  0  0
 39 44  1  0  0  0
 40 41  1  0  0  0
 41 42  2  0  0  0
 42 43  1  0  0  0
 43 44  2  0  0  0
 19 20  1  0  0  0
 20 21  2  0  0  0
 20 24  1  0  0  0
 21 28  1  0  0  0
 22 23  1  0  0  0
 22 25  1  0  0  0
 22 28  2  0  0  0
 23 24  2  0  0  0
 23 27  1  0  0  0
 25 26  1  0  0  0
 26 27  1  0  0  0
 13 14  1  0  0  0
  2  3  1  0  0  0
 33 34  1  0  0  0
 37 45  1  0  0  0
M  END
> <minimizedAffinity>
-11.87311

$$$$
1K6V_XN2_B_252


 53 58  0  0  0  0  0  0  0  0999 V2000
    4.6067   -3.1002   15.5949 C   0  0  0  0  0  0  0  0  0  0  0  0
    3.8541   -1.9917   16.0319 O   0  0  0  0  0  0  0  0  0  0  0  0
    4.2526   -1.6279   16.8380 H   0  0  0  0  0  0  0  0  0  0  0  0
    4.3995   -3.8482   16.8480 C   0  0  0  0  0  0  0  0  0  0  0  0
    3.6111   -8.0346   17.1498 N   0  0  0  0  0  0  0  0  0  0  0  0
    5.1151   -7.5559   17.1852 C   0  0  0  0  0  0  0  0  0  0  0  0
    5.2856   -6.1004   17.6035 C   0  0  0  0  0  0  0  0  0  0  0  0
    4.3862   -5.3351   16.5687 N   0  0  0  0  0  0  0  0  0  0  0  0
    2.9359   -5.7243   16.3815 C   0  0  0  0  0  0  0  0  0  0  0  0
    2.9390   -7.2397   16.1009 C   0  0  0  0  0  0  0  0  0  0  0  0
    6.7420   -5.8289   17.5600 C   0  0  0  0  0  0  0  0  0  0  0  0
    7.3781   -5.7562   18.6756 O   0  0  0  0  0  0  0  0  0  0  0  0
    7.3354   -5.6867   16.3162 N   0  0  0  0  0  0  0  0  0  0  0  0
    6.7172   -5.7669   15.5542 H   0  0  0  0  0  0  0  0  0  0  0  0
    8.7593   -5.4315   15.9400 C   0  0  0  0  0  0  0  0  0  0  0  0
    8.8661   -5.2219   14.4050 C   0  0  0  0  0  0  0  0  0  0  0  0
    9.5939   -6.5401   16.1850 C   0  0  0  0  0  0  0  0  0  0  0  0
    9.3774   -4.2330   16.6069 C   0  0  0  0  0  0  0  0  0  0  0  0
    3.5072   -9.4299   16.7586 C   0  0  0  0  0  0  0  0  0  0  0  0
    4.6627  -10.3130   17.1885 C   0  0  0  0  0  0  0  0  0  0  0  0
    4.6539  -10.8735   18.5700 C   0  0  0  0  0  0  0  0  0  0  0  0
    6.8344  -12.0235   18.1413 C   0  0  0  0  0  0  0  0  0  0  0  0
    6.9194  -11.5156   16.7713 C   0  0  0  0  0  0  0  0  0  0  0  0
    5.8121  -10.6387   16.2718 C   0  0  0  0  0  0  0  0  0  0  0  0
    7.9605  -12.7999   18.3711 O   0  0  0  0  0  0  0  0  0  0  0  0
    8.9023  -12.9069   17.2356 C   0  0  0  0  0  0  0  0  0  0  0  0
    8.1083  -12.0413   16.2915 O   0  0  0  0  0  0  0  0  0  0  0  0
    5.7226  -11.7507   19.1267 C   0  0  0  0  0  0  0  0  0  0  0  0
    5.9351   -2.5031   15.3136 C   0  0  0  0  0  0  0  0  0  0  0  0
    6.0403   -1.2112   14.5216 C   0  0  0  0  0  0  0  0  0  0  0  0
    5.1294   -1.2293   13.1989 C   0  0  0  0  0  0  0  0  0  0  0  0
    5.2468   -2.0511   12.1973 O   0  0  0  0  0  0  0  0  0  0  0  0
    4.2508   -0.2601   13.2547 N   0  0  0  0  0  0  0  0  0  0  0  0
    4.2374    0.3025   14.0626 H   0  0  0  0  0  0  0  0  0  0  0  0
    3.2975    0.0387   12.2065 C   0  0  0  0  0  0  0  0  0  0  0  0
    3.6416    1.3353   11.5021 C   0  0  0  0  0  0  0  0  0  0  0  0
    4.1174    2.3272   12.4098 O   0  0  0  0  0  0  0  0  0  0  0  0
    2.3934    1.6947   10.7387 C   0  0  0  0  0  0  0  0  0  0  0  0
    1.1998    1.3462   11.5655 C   0  0  0  0  0  0  0  0  0  0  0  0
   -0.1700    1.7243   11.6638 C   0  0  0  0  0  0  0  0  0  0  0  0
   -1.0003    1.0640   12.6969 C   0  0  0  0  0  0  0  0  0  0  0  0
   -0.4390    0.0211   13.6257 C   0  0  0  0  0  0  0  0  0  0  0  0
    0.9528   -0.3642   13.5277 C   0  0  0  0  0  0  0  0  0  0  0  0
    1.8198    0.2279   12.5596 C   0  0  0  0  0  0  0  0  0  0  0  0
    3.4429    2.4970   13.0859 H   0  0  0  0  0  0  0  0  0  0  0  0
    7.6011   -1.0358   14.0420 C   0  0  0  0  0  0  0  0  0  0  0  0
    8.7072   -0.9742   14.7182 C   0  0  0  0  0  0  0  0  0  0  0  0
    7.6917    0.1928   13.0479 C   0  0  0  0  0  0  0  0  0  0  0  0
    7.9288    0.0176   11.5280 C   0  0  0  0  0  0  0  0  0  0  0  0
    8.0149    1.2058   10.6585 C   0  0  0  0  0  0  0  0  0  0  0  0
    7.8700    2.5898   11.2819 C   0  0  0  0  0  0  0  0  0  0  0  0
    7.6401    2.7476   12.7641 C   0  0  0  0  0  0  0  0  0  0  0  0
    7.5543    1.5650   13.6271 C   0  0  0  0  0  0  0  0  0  0  0  0
  5  6  1  0  0  0
  5 10  1  0  0  0
  5 19  1  0  0  0
  6  7  1  0  0  0
  7 11  1  0  0  0
  7  8  1  0  0  0
 11 12  2  0  0  0
 11 13  1  0  0  0
 13 15  1  0  0  0
 15 16  1  0  0  0
 15 17  1  0  0  0
 15 18  1  0  0  0
  8  9  1  0  0  0
  8  4  1  0  0  0
  9 10  1  0  0  0
  4  1  1  0  0  0
  1  2  1  0  0  0
  1 29  1  0  0  0
 29 30  1  0  0  0
 30 46  1  0  0  0
 30 31  1  0  0  0
 46 48  1  0  0  0
 46 47  1  0  0  0
 48 49  2  0  0  0
 48 53  1  0  0  0
 49 50  1  0  0  0
 50 51  2  0  0  0
 51 52  1  0  0  0
 52 53  2  0  0  0
 31 32  2  0  0  0
 31 33  1  0  0  0
 33 35  1  0  0  0
 35 36  1  0  0  0
 35 44  1  0  0  0
 36 37  1  0  0  0
 36 38  1  0  0  0
 38 39  1  0  0  0
 39 40  2  0  0  0
 39 44  1  0  0  0
 40 41  1  0  0  0
 41 42  2  0  0  0
 42 43  1  0  0  0
 43 44  2  0  0  0
 19 20  1  0  0  0
 20 21  2  0  0  0
 20 24  1  0  0  0
 21 28  1  0  0  0
 22 23  1  0  0  0
 22 25  1  0  0  0
 22 28  2  0  0  0
 23 24  2  0  0  0
 23 27  1  0  0  0
 25 26  1  0  0  0
 26 27  1  0  0  0
 13 14  1  0  0  0
  2  3  1  0  0  0
 33 34  1  0  0  0
 37 45  1  0  0  0
M  END
> <minimizedAffinity>
-10.94679

$$$$
1K6V_XN2_B_252


 53 58  0  0  0  0  0  0  0  0999 V2000
    6.4355   -0.7040   14.1673 C   0  0  0  0  0  0  0  0  0  0  0  0
    6.6097   -0.8096   15.5618 O   0  0  0  0  0  0  0  0  0  0  0  0
    7.5481   -0.6967   15.7799 H   0  0  0  0  0  0  0  0  0  0  0  0
    7.3367   -1.8342   13.8791 C   0  0  0  0  0  0  0  0  0  0  0  0
    8.5275   -4.9775   16.5136 N   0  0  0  0  0  0  0  0  0  0  0  0
    6.9874   -4.7984   16.2167 C   0  0  0  0  0  0  0  0  0  0  0  0
    6.6954   -4.0564   14.9179 C   0  0  0  0  0  0  0  0  0  0  0  0
    7.4802   -2.7093   15.1049 N   0  0  0  0  0  0  0  0  0  0  0  0
    8.9530   -2.7244   15.4522 C   0  0  0  0  0  0  0  0  0  0  0  0
    9.0827   -3.6206   16.6993 C   0  0  0  0  0  0  0  0  0  0  0  0
    5.2193   -3.9676   14.8189 C   0  0  0  0  0  0  0  0  0  0  0  0
    4.7043   -3.6986   13.6714 O   0  0  0  0  0  0  0  0  0  0  0  0
    4.4801   -4.1975   15.9680 N   0  0  0  0  0  0  0  0  0  0  0  0
    5.0171   -4.3902   16.7704 H   0  0  0  0  0  0  0  0  0  0  0  0
    3.0022   -4.2012   16.1906 C   0  0  0  0  0  0  0  0  0  0  0  0
    2.3512   -5.3451   15.3662 C   0  0  0  0  0  0  0  0  0  0  0  0
    2.3753   -3.0379   15.7014 C   0  0  0  0  0  0  0  0  0  0  0  0
    2.5860   -4.3805   17.6250 C   0  0  0  0  0  0  0  0  0  0  0  0
    8.7484   -5.7011   17.7539 C   0  0  0  0  0  0  0  0  0  0  0  0
    8.2807   -7.1438   17.7565 C   0  0  0  0  0  0  0  0  0  0  0  0
    9.2155   -8.1954   17.2635 C   0  0  0  0  0  0  0  0  0  0  0  0
    7.4975   -9.9604   17.7039 C   0  0  0  0  0  0  0  0  0  0  0  0
    6.5209   -8.9918   18.2040 C   0  0  0  0  0  0  0  0  0  0  0  0
    6.9112   -7.5457   18.2363 C   0  0  0  0  0  0  0  0  0  0  0  0
    6.9133  -11.2166   17.7691 O   0  0  0  0  0  0  0  0  0  0  0  0
    5.5320  -11.2495   18.2974 C   0  0  0  0  0  0  0  0  0  0  0  0
    5.4186   -9.7651   18.5314 O   0  0  0  0  0  0  0  0  0  0  0  0
    8.8890   -9.6485   17.2060 C   0  0  0  0  0  0  0  0  0  0  0  0
    6.8886    0.6800   13.8851 C   0  0  0  0  0  0  0  0  0  0  0  0
    6.5931    1.3218   12.5405 C   0  0  0  0  0  0  0  0  0  0  0  0
    5.2406    0.7615   11.8798 C   0  0  0  0  0  0  0  0  0  0  0  0
    5.0183   -0.4656   11.5096 O   0  0  0  0  0  0  0  0  0  0  0  0
    4.3828    1.7399   11.7332 N   0  0  0  0  0  0  0  0  0  0  0  0
    4.6443    2.6328   12.0549 H   0  0  0  0  0  0  0  0  0  0  0  0
    3.0748    1.5948   11.1291 C   0  0  0  0  0  0  0  0  0  0  0  0
    2.5541    2.9223   10.6170 C   0  0  0  0  0  0  0  0  0  0  0  0
    2.8765    3.9983   11.4960 O   0  0  0  0  0  0  0  0  0  0  0  0
    1.0841    2.6884   10.3839 C   0  0  0  0  0  0  0  0  0  0  0  0
    0.5531    1.8100   11.4684 C   0  0  0  0  0  0  0  0  0  0  0  0
   -0.7009    1.5148   12.0762 C   0  0  0  0  0  0  0  0  0  0  0  0
   -0.7238    0.5208   13.1736 C   0  0  0  0  0  0  0  0  0  0  0  0
    0.5248   -0.1718   13.6496 C   0  0  0  0  0  0  0  0  0  0  0  0
    1.8000    0.1271   13.0335 C   0  0  0  0  0  0  0  0  0  0  0  0
    1.9063    1.0757   11.9712 C   0  0  0  0  0  0  0  0  0  0  0  0
    2.5021    3.8222   12.3734 H   0  0  0  0  0  0  0  0  0  0  0  0
    7.8274    0.9552   11.5211 C   0  0  0  0  0  0  0  0  0  0  0  0
    9.0971    0.7886   11.7323 C   0  0  0  0  0  0  0  0  0  0  0  0
    7.7716    1.9388   10.2820 C   0  0  0  0  0  0  0  0  0  0  0  0
    7.3473    1.4724    8.8680 C   0  0  0  0  0  0  0  0  0  0  0  0
    7.3283    2.4381    7.7533 C   0  0  0  0  0  0  0  0  0  0  0  0
    7.7326    3.8838    8.0211 C   0  0  0  0  0  0  0  0  0  0  0  0
    8.1449    4.3258    9.4029 C   0  0  0  0  0  0  0  0  0  0  0  0
    8.1628    3.3644   10.5101 C   0  0  0  0  0  0  0  0  0  0  0  0
  5  6  1  0  0  0
  5 10  1  0  0  0
  5 19  1  0  0  0
  6  7  1  0  0  0
  7 11  1  0  0  0
  7  8  1  0  0  0
 11 12  2  0  0  0
 11 13  1  0  0  0
 13 15  1  0  0  0
 15 16  1  0  0  0
 15 17  1  0  0  0
 15 18  1  0  0  0
  8  9  1  0  0  0
  8  4  1  0  0  0
  9 10  1  0  0  0
  4  1  1  0  0  0
  1  2  1  0  0  0
  1 29  1  0  0  0
 29 30  1  0  0  0
 30 46  1  0  0  0
 30 31  1  0  0  0
 46 48  1  0  0  0
 46 47  1  0  0  0
 48 49  2  0  0  0
 48 53  1  0  0  0
 49 50  1  0  0  0
 50 51  2  0  0  0
 51 52  1  0  0  0
 52 53  2  0  0  0
 31 32  2  0  0  0
 31 33  1  0  0  0
 33 35  1  0  0  0
 35 36  1  0  0  0
 35 44  1  0  0  0
 36 37  1  0  0  0
 36 38  1  0  0  0
 38 39  1  0  0  0
 39 40  2  0  0  0
 39 44  1  0  0  0
 40 41  1  0  0  0
 41 42  2  0  0  0
 42 43  1  0  0  0
 43 44  2  0  0  0
 19 20  1  0  0  0
 20 21  2  0  0  0
 20 24  1  0  0  0
 21 28  1  0  0  0
 22 23  1  0  0  0
 22 25  1  0  0  0
 22 28  2  0  0  0
 23 24  2  0  0  0
 23 27  1  0  0  0
 25 26  1  0  0  0
 26 27  1  0  0  0
 13 14  1  0  0  0
  2  3  1  0  0  0
 33 34  1  0  0  0
 37 45  1  0  0  0
M  END
> <minimizedAffinity>
-10.65315

$$$$
1K6V_XN2_B_252


 53 58  0  0  0  0  0  0  0  0999 V2000
    6.1619   -1.7782   14.5054 C   0  0  0  0  0  0  0  0  0  0  0  0
    7.1701   -2.7398   14.2933 O   0  0  0  0  0  0  0  0  0  0  0  0
    6.7762   -3.6262   14.2917 H   0  0  0  0  0  0  0  0  0  0  0  0
    5.7701   -2.3457   15.8081 C   0  0  0  0  0  0  0  0  0  0  0  0
    3.2391   -5.7565   16.2543 N   0  0  0  0  0  0  0  0  0  0  0  0
    4.7953   -5.9562   16.4298 C   0  0  0  0  0  0  0  0  0  0  0  0
    5.5420   -4.6754   16.7823 C   0  0  0  0  0  0  0  0  0  0  0  0
    5.1408   -3.7076   15.6128 N   0  0  0  0  0  0  0  0  0  0  0  0
    3.6829   -3.4647   15.2876 C   0  0  0  0  0  0  0  0  0  0  0  0
    3.0562   -4.8593   15.0943 C   0  0  0  0  0  0  0  0  0  0  0  0
    6.9724   -5.0495   16.8859 C   0  0  0  0  0  0  0  0  0  0  0  0
    7.4792   -5.1862   18.0602 O   0  0  0  0  0  0  0  0  0  0  0  0
    7.6750   -5.2471   15.7082 N   0  0  0  0  0  0  0  0  0  0  0  0
    7.1503   -5.1035   14.8876 H   0  0  0  0  0  0  0  0  0  0  0  0
    9.0980   -5.6422   15.4779 C   0  0  0  0  0  0  0  0  0  0  0  0
   10.0394   -4.4856   15.9111 C   0  0  0  0  0  0  0  0  0  0  0  0
    9.3981   -5.8243   14.1132 C   0  0  0  0  0  0  0  0  0  0  0  0
    9.5303   -6.8807   16.2141 C   0  0  0  0  0  0  0  0  0  0  0  0
    2.5762   -7.0086   15.9327 C   0  0  0  0  0  0  0  0  0  0  0  0
    3.3410   -8.2636   16.3068 C   0  0  0  0  0  0  0  0  0  0  0  0
    3.8076   -9.1644   15.2143 C   0  0  0  0  0  0  0  0  0  0  0  0
    4.8194  -10.7165   16.8960 C   0  0  0  0  0  0  0  0  0  0  0  0
    4.3988   -9.8874   18.0264 C   0  0  0  0  0  0  0  0  0  0  0  0
    3.6411   -8.6278   17.7367 C   0  0  0  0  0  0  0  0  0  0  0  0
    5.4936  -11.8145   17.4094 O   0  0  0  0  0  0  0  0  0  0  0  0
    5.6060  -11.8600   18.8836 C   0  0  0  0  0  0  0  0  0  0  0  0
    4.8660  -10.5719   19.1369 O   0  0  0  0  0  0  0  0  0  0  0  0
    4.5646  -10.4292   15.4352 C   0  0  0  0  0  0  0  0  0  0  0  0
    5.2759   -1.9690   13.3311 C   0  0  0  0  0  0  0  0  0  0  0  0
    4.9964   -0.8112   12.3883 C   0  0  0  0  0  0  0  0  0  0  0  0
    6.3438   -0.1180   11.8555 C   0  0  0  0  0  0  0  0  0  0  0  0
    7.4836   -0.7111   11.6526 O   0  0  0  0  0  0  0  0  0  0  0  0
    6.1406    1.1633   11.6784 N   0  0  0  0  0  0  0  0  0  0  0  0
    5.2371    1.5139   11.8517 H   0  0  0  0  0  0  0  0  0  0  0  0
    7.1574    2.0985   11.2445 C   0  0  0  0  0  0  0  0  0  0  0  0
    6.9177    3.4793   11.8204 C   0  0  0  0  0  0  0  0  0  0  0  0
    5.5315    3.8139   11.8485 O   0  0  0  0  0  0  0  0  0  0  0  0
    7.7920    4.3900   10.9980 C   0  0  0  0  0  0  0  0  0  0  0  0
    7.7704    3.9325    9.5768 C   0  0  0  0  0  0  0  0  0  0  0  0
    8.0111    4.4775    8.2829 C   0  0  0  0  0  0  0  0  0  0  0  0
    7.8528    3.5841    7.1126 C   0  0  0  0  0  0  0  0  0  0  0  0
    7.4526    2.1405    7.2586 C   0  0  0  0  0  0  0  0  0  0  0  0
    7.2073    1.5850    8.5726 C   0  0  0  0  0  0  0  0  0  0  0  0
    7.3362    2.3819    9.7506 C   0  0  0  0  0  0  0  0  0  0  0  0
    5.1707    3.7729   10.9490 H   0  0  0  0  0  0  0  0  0  0  0  0
    4.1524    0.3268   13.2186 C   0  0  0  0  0  0  0  0  0  0  0  0
    4.1562    0.6551   14.4743 C   0  0  0  0  0  0  0  0  0  0  0  0
    2.6162    0.1763   12.8673 C   0  0  0  0  0  0  0  0  0  0  0  0
    1.5611   -0.2528   13.9160 C   0  0  0  0  0  0  0  0  0  0  0  0
    0.1467   -0.3857   13.5196 C   0  0  0  0  0  0  0  0  0  0  0  0
   -0.2461   -0.0978   12.0746 C   0  0  0  0  0  0  0  0  0  0  0  0
    0.7912    0.3187   11.0621 C   0  0  0  0  0  0  0  0  0  0  0  0
    2.1971    0.4508   11.4580 C   0  0  0  0  0  0  0  0  0  0  0  0
  5  6  1  0  0  0
  5 10  1  0  0  0
  5 19  1  0  0  0
  6  7  1  0  0  0
  7 11  1  0  0  0
  7  8  1  0  0  0
 11 12  2  0  0  0
 11 13  1  0  0  0
 13 15  1  0  0  0
 15 16  1  0  0  0
 15 17  1  0  0  0
 15 18  1  0  0  0
  8  9  1  0  0  0
  8  4  1  0  0  0
  9 10  1  0  0  0
  4  1  1  0  0  0
  1  2  1  0  0  0
  1 29  1  0  0  0
 29 30  1  0  0  0
 30 46  1  0  0  0
 30 31  1  0  0  0
 46 48  1  0  0  0
 46 47  1  0  0  0
 48 49  2  0  0  0
 48 53  1  0  0  0
 49 50  1  0  0  0
 50 51  2  0  0  0
 51 52  1  0  0  0
 52 53  2  0  0  0
 31 32  2  0  0  0
 31 33  1  0  0  0
 33 35  1  0  0  0
 35 36  1  0  0  0
 35 44  1  0  0  0
 36 37  1  0  0  0
 36 38  1  0  0  0
 38 39  1  0  0  0
 39 40  2  0  0  0
 39 44  1  0  0  0
 40 41  1  0  0  0
 41 42  2  0  0  0
 42 43  1  0  0  0
 43 44  2  0  0  0
 19 20  1  0  0  0
 20 21  2  0  0  0
 20 24  1  0  0  0
 21 28  1  0  0  0
 22 23  1  0  0  0
 22 25  1  0  0  0
 22 28  2  0  0  0
 23 24  2  0  0  0
 23 27  1  0  0  0
 25 26  1  0  0  0
 26 27  1  0  0  0
 13 14  1  0  0  0
  2  3  1  0  0  0
 33 34  1  0  0  0
 37 45  1  0  0  0
M  END
> <minimizedAffinity>
-10.57405

$$$$
1K6V_XN2_B_252


 53 58  0  0  0  0  0  0  0  0999 V2000
    4.7456   -2.0913   15.5799 C   0  0  0  0  0  0  0  0  0  0  0  0
    4.7364   -0.9084   16.3459 O   0  0  0  0  0  0  0  0  0  0  0  0
    5.5829   -0.8178   16.8109 H   0  0  0  0  0  0  0  0  0  0  0  0
    4.9678   -2.9555   16.7530 C   0  0  0  0  0  0  0  0  0  0  0  0
    3.4223   -6.9365   16.7909 N   0  0  0  0  0  0  0  0  0  0  0  0
    4.9843   -6.7433   16.9133 C   0  0  0  0  0  0  0  0  0  0  0  0
    5.3939   -5.3649   17.4180 C   0  0  0  0  0  0  0  0  0  0  0  0
    4.7001   -4.4001   16.3917 N   0  0  0  0  0  0  0  0  0  0  0  0
    3.2144   -4.5082   16.1249 C   0  0  0  0  0  0  0  0  0  0  0  0
    2.9578   -5.9837   15.7613 C   0  0  0  0  0  0  0  0  0  0  0  0
    6.8757   -5.3626   17.4485 C   0  0  0  0  0  0  0  0  0  0  0  0
    7.4580   -5.3711   18.5953 O   0  0  0  0  0  0  0  0  0  0  0  0
    7.5464   -5.3692   16.2361 N   0  0  0  0  0  0  0  0  0  0  0  0
    6.9626   -5.3603   15.4434 H   0  0  0  0  0  0  0  0  0  0  0  0
    9.0099   -5.3875   15.9330 C   0  0  0  0  0  0  0  0  0  0  0  0
    9.2266   -5.3703   14.3953 C   0  0  0  0  0  0  0  0  0  0  0  0
    9.6361   -6.5805   16.3456 C   0  0  0  0  0  0  0  0  0  0  0  0
    9.7836   -4.2359   16.5144 C   0  0  0  0  0  0  0  0  0  0  0  0
    3.0877   -8.2694   16.3192 C   0  0  0  0  0  0  0  0  0  0  0  0
    2.6931   -9.2601   17.3974 C   0  0  0  0  0  0  0  0  0  0  0  0
    1.3526   -9.1212   18.0349 C   0  0  0  0  0  0  0  0  0  0  0  0
    1.8157  -11.1015   19.4925 C   0  0  0  0  0  0  0  0  0  0  0  0
    3.1459  -11.3084   18.9181 C   0  0  0  0  0  0  0  0  0  0  0  0
    3.6060  -10.3715   17.8433 C   0  0  0  0  0  0  0  0  0  0  0  0
    1.6185  -12.0795   20.4560 O   0  0  0  0  0  0  0  0  0  0  0  0
    2.7409  -13.0247   20.6425 C   0  0  0  0  0  0  0  0  0  0  0  0
    3.6375  -12.4111   19.5982 O   0  0  0  0  0  0  0  0  0  0  0  0
    0.8359  -10.0186   19.1070 C   0  0  0  0  0  0  0  0  0  0  0  0
    5.8579   -1.8553   14.6272 C   0  0  0  0  0  0  0  0  0  0  0  0
    5.9697   -0.5285   13.8962 C   0  0  0  0  0  0  0  0  0  0  0  0
    5.0089   -0.4559   12.6112 C   0  0  0  0  0  0  0  0  0  0  0  0
    4.8596   -1.3830   11.7110 O   0  0  0  0  0  0  0  0  0  0  0  0
    4.4052    0.7055   12.5767 N   0  0  0  0  0  0  0  0  0  0  0  0
    4.5792    1.3363   13.3122 H   0  0  0  0  0  0  0  0  0  0  0  0
    3.4984    1.1231   11.5277 C   0  0  0  0  0  0  0  0  0  0  0  0
    3.7636    2.5545   11.1077 C   0  0  0  0  0  0  0  0  0  0  0  0
    4.0832    3.3878   12.2201 O   0  0  0  0  0  0  0  0  0  0  0  0
    2.5394    2.9527   10.3248 C   0  0  0  0  0  0  0  0  0  0  0  0
    1.3328    2.3565   10.9715 C   0  0  0  0  0  0  0  0  0  0  0  0
   -0.0701    2.5972   11.0256 C   0  0  0  0  0  0  0  0  0  0  0  0
   -0.9000    1.6856   11.8461 C   0  0  0  0  0  0  0  0  0  0  0  0
   -0.3044    0.5318   12.6074 C   0  0  0  0  0  0  0  0  0  0  0  0
    1.1210    0.2858   12.5538 C   0  0  0  0  0  0  0  0  0  0  0  0
    1.9895    1.1211   11.7874 C   0  0  0  0  0  0  0  0  0  0  0  0
    3.3529    3.3694   12.8583 H   0  0  0  0  0  0  0  0  0  0  0  0
    7.5155   -0.3710   13.3646 C   0  0  0  0  0  0  0  0  0  0  0  0
    8.6427   -0.3027   14.0043 C   0  0  0  0  0  0  0  0  0  0  0  0
    7.5808    0.8380   12.3447 C   0  0  0  0  0  0  0  0  0  0  0  0
    7.6689    0.6305   10.8129 C   0  0  0  0  0  0  0  0  0  0  0  0
    7.7389    1.8010    9.9183 C   0  0  0  0  0  0  0  0  0  0  0  0
    7.7256    3.1988   10.5276 C   0  0  0  0  0  0  0  0  0  0  0  0
    7.6404    3.3878   12.0214 C   0  0  0  0  0  0  0  0  0  0  0  0
    7.5703    2.2230   12.9095 C   0  0  0  0  0  0  0  0  0  0  0  0
  5  6  1  0  0  0
  5 10  1  0  0  0
  5 19  1  0  0  0
  6  7  1  0  0  0
  7 11  1  0  0  0
  7  8  1  0  0  0
 11 12  2  0  0  0
 11 13  1  0  0  0
 13 15  1  0  0  0
 15 16  1  0  0  0
 15 17  1  0  0  0
 15 18  1  0  0  0
  8  9  1  0  0  0
  8  4  1  0  0  0
  9 10  1  0  0  0
  4  1  1  0  0  0
  1  2  1  0  0  0
  1 29  1  0  0  0
 29 30  1  0  0  0
 30 46  1  0  0  0
 30 31  1  0  0  0
 46 48  1  0  0  0
 46 47  1  0  0  0
 48 49  2  0  0  0
 48 53  1  0  0  0
 49 50  1  0  0  0
 50 51  2  0  0  0
 51 52  1  0  0  0
 52 53  2  0  0  0
 31 32  2  0  0  0
 31 33  1  0  0  0
 33 35  1  0  0  0
 35 36  1  0  0  0
 35 44  1  0  0  0
 36 37  1  0  0  0
 36 38  1  0  0  0
 38 39  1  0  0  0
 39 40  2  0  0  0
 39 44  1  0  0  0
 40 41  1  0  0  0
 41 42  2  0  0  0
 42 43  1  0  0  0
 43 44  2  0  0  0
 19 20  1  0  0  0
 20 21  2  0  0  0
 20 24  1  0  0  0
 21 28  1  0  0  0
 22 23  1  0  0  0
 22 25  1  0  0  0
 22 28  2  0  0  0
 23 24  2  0  0  0
 23 27  1  0  0  0
 25 26  1  0  0  0
 26 27  1  0  0  0
 13 14  1  0  0  0
  2  3  1  0  0  0
 33 34  1  0  0  0
 37 45  1  0  0  0
M  END
> <minimizedAffinity>
-10.37532

$$$$
1K6V_XN2_B_252


 53 58  0  0  0  0  0  0  0  0999 V2000
    3.5191   -3.3048   16.0892 C   0  0  0  0  0  0  0  0  0  0  0  0
    3.4876   -2.3850   17.1565 O   0  0  0  0  0  0  0  0  0  0  0  0
    4.2963   -1.8494   17.1457 H   0  0  0  0  0  0  0  0  0  0  0  0
    4.7601   -3.9455   16.5602 C   0  0  0  0  0  0  0  0  0  0  0  0
    3.7061   -8.0841   16.5575 N   0  0  0  0  0  0  0  0  0  0  0  0
    5.1854   -7.6930   16.9459 C   0  0  0  0  0  0  0  0  0  0  0  0
    5.3321   -6.2564   17.4329 C   0  0  0  0  0  0  0  0  0  0  0  0
    4.7331   -5.4247   16.2434 N   0  0  0  0  0  0  0  0  0  0  0  0
    3.3451   -5.7272   15.7217 C   0  0  0  0  0  0  0  0  0  0  0  0
    3.3329   -7.2357   15.4065 C   0  0  0  0  0  0  0  0  0  0  0  0
    6.7723   -6.0681   17.7280 C   0  0  0  0  0  0  0  0  0  0  0  0
    7.1269   -5.9401   18.9578 O   0  0  0  0  0  0  0  0  0  0  0  0
    7.6544   -6.0587   16.6596 N   0  0  0  0  0  0  0  0  0  0  0  0
    7.2320   -6.1667   15.7769 H   0  0  0  0  0  0  0  0  0  0  0  0
    9.1414   -5.9117   16.6260 C   0  0  0  0  0  0  0  0  0  0  0  0
    9.8095   -7.2463   17.0553 C   0  0  0  0  0  0  0  0  0  0  0  0
    9.6177   -4.9805   17.5701 C   0  0  0  0  0  0  0  0  0  0  0  0
    9.7025   -5.5337   15.2823 C   0  0  0  0  0  0  0  0  0  0  0  0
    3.6213   -9.4649   16.1136 C   0  0  0  0  0  0  0  0  0  0  0  0
    4.5818  -10.4247   16.7890 C   0  0  0  0  0  0  0  0  0  0  0  0
    5.6225  -11.0929   15.9565 C   0  0  0  0  0  0  0  0  0  0  0  0
    6.4888  -12.3009   17.9692 C   0  0  0  0  0  0  0  0  0  0  0  0
    5.4998  -11.6874   18.8567 C   0  0  0  0  0  0  0  0  0  0  0  0
    4.5179  -10.7239   18.2634 C   0  0  0  0  0  0  0  0  0  0  0  0
    7.2755  -13.1454   18.7383 O   0  0  0  0  0  0  0  0  0  0  0  0
    6.9301  -13.2036   20.1755 C   0  0  0  0  0  0  0  0  0  0  0  0
    5.7855  -12.2262   20.1010 O   0  0  0  0  0  0  0  0  0  0  0  0
    6.6269  -12.0592   16.4847 C   0  0  0  0  0  0  0  0  0  0  0  0
    3.5614   -2.4219   14.8979 C   0  0  0  0  0  0  0  0  0  0  0  0
    4.7259   -1.4681   14.6943 C   0  0  0  0  0  0  0  0  0  0  0  0
    4.2423    0.0446   14.4545 C   0  0  0  0  0  0  0  0  0  0  0  0
    4.5026    1.0640   15.2195 O   0  0  0  0  0  0  0  0  0  0  0  0
    3.5063    0.1065   13.3734 N   0  0  0  0  0  0  0  0  0  0  0  0
    3.3760   -0.7219   12.8576 H   0  0  0  0  0  0  0  0  0  0  0  0
    2.8712    1.3133   12.8864 C   0  0  0  0  0  0  0  0  0  0  0  0
    1.5485    1.0070   12.2139 C   0  0  0  0  0  0  0  0  0  0  0  0
    1.6049   -0.1925   11.4444 O   0  0  0  0  0  0  0  0  0  0  0  0
    1.2148    2.2596   11.4459 C   0  0  0  0  0  0  0  0  0  0  0  0
    2.4701    2.8252   10.8680 C   0  0  0  0  0  0  0  0  0  0  0  0
    2.8525    3.6853    9.7989 C   0  0  0  0  0  0  0  0  0  0  0  0
    4.2949    3.9649    9.6145 C   0  0  0  0  0  0  0  0  0  0  0  0
    5.3445    3.3727   10.5162 C   0  0  0  0  0  0  0  0  0  0  0  0
    4.9579    2.4982   11.6029 C   0  0  0  0  0  0  0  0  0  0  0  0
    3.5876    2.1775   11.8451 C   0  0  0  0  0  0  0  0  0  0  0  0
    2.2979   -0.1121   10.7705 H   0  0  0  0  0  0  0  0  0  0  0  0
    5.5415   -1.9430   13.3503 C   0  0  0  0  0  0  0  0  0  0  0  0
    6.0161   -3.0975   12.9949 C   0  0  0  0  0  0  0  0  0  0  0  0
    6.7449   -0.9436   13.1072 C   0  0  0  0  0  0  0  0  0  0  0  0
    7.7263   -0.5337   14.2323 C   0  0  0  0  0  0  0  0  0  0  0  0
    8.8201    0.4120   13.9414 C   0  0  0  0  0  0  0  0  0  0  0  0
    8.9583    0.9703   12.5291 C   0  0  0  0  0  0  0  0  0  0  0  0
    7.9953    0.5640   11.4418 C   0  0  0  0  0  0  0  0  0  0  0  0
    6.9086   -0.3768   11.7327 C   0  0  0  0  0  0  0  0  0  0  0  0
  5  6  1  0  0  0
  5 10  1  0  0  0
  5 19  1  0  0  0
  6  7  1  0  0  0
  7 11  1  0  0  0
  7  8  1  0  0  0
 11 12  2  0  0  0
 11 13  1  0  0  0
 13 15  1  0  0  0
 15 16  1  0  0  0
 15 17  1  0  0  0
 15 18  1  0  0  0
  8  9  1  0  0  0
  8  4  1  0  0  0
  9 10  1  0  0  0
  4  1  1  0  0  0
  1  2  1  0  0  0
  1 29  1  0  0  0
 29 30  1  0  0  0
 30 46  1  0  0  0
 30 31  1  0  0  0
 46 48  1  0  0  0
 46 47  1  0  0  0
 48 49  2  0  0  0
 48 53  1  0  0  0
 49 50  1  0  0  0
 50 51  2  0  0  0
 51 52  1  0  0  0
 52 53  2  0  0  0
 31 32  2  0  0  0
 31 33  1  0  0  0
 33 35  1  0  0  0
 35 36  1  0  0  0
 35 44  1  0  0  0
 36 37  1  0  0  0
 36 38  1  0  0  0
 38 39  1  0  0  0
 39 40  2  0  0  0
 39 44  1  0  0  0
 40 41  1  0  0  0
 41 42  2  0  0  0
 42 43  1  0  0  0
 43 44  2  0  0  0
 19 20  1  0  0  0
 20 21  2  0  0  0
 20 24  1  0  0  0
 21 28  1  0  0  0
 22 23  1  0  0  0
 22 25  1  0  0  0
 22 28  2  0  0  0
 23 24  2  0  0  0
 23 27  1  0  0  0
 25 26  1  0  0  0
 26 27  1  0  0  0
 13 14  1  0  0  0
  2  3  1  0  0  0
 33 34  1  0  0  0
 37 45  1  0  0  0
M  END
> <minimizedAffinity>
-9.95819

$$$$
1K6V_XN2_B_252


 53 58  0  0  0  0  0  0  0  0999 V2000
    6.1233    1.0365   13.7314 C   0  0  0  0  0  0  0  0  0  0  0  0
    7.3005    1.7743   13.9683 O   0  0  0  0  0  0  0  0  0  0  0  0
    8.0732    1.2239   13.7661 H   0  0  0  0  0  0  0  0  0  0  0  0
    6.4785   -0.0128   14.7036 C   0  0  0  0  0  0  0  0  0  0  0  0
    3.3770   -2.7747   15.6989 N   0  0  0  0  0  0  0  0  0  0  0  0
    4.8069   -3.3516   15.3602 C   0  0  0  0  0  0  0  0  0  0  0  0
    5.9342   -2.3426   15.5431 C   0  0  0  0  0  0  0  0  0  0  0  0
    5.4831   -1.1496   14.6271 N   0  0  0  0  0  0  0  0  0  0  0  0
    4.1118   -0.5324   14.7960 C   0  0  0  0  0  0  0  0  0  0  0  0
    3.1109   -1.7016   14.7184 C   0  0  0  0  0  0  0  0  0  0  0  0
    7.1816   -3.0478   15.1645 C   0  0  0  0  0  0  0  0  0  0  0  0
    7.4261   -3.2163   13.9130 O   0  0  0  0  0  0  0  0  0  0  0  0
    8.0202   -3.4688   16.1839 N   0  0  0  0  0  0  0  0  0  0  0  0
    7.6961   -3.2686   17.0917 H   0  0  0  0  0  0  0  0  0  0  0  0
    9.3355   -4.1767   16.1330 C   0  0  0  0  0  0  0  0  0  0  0  0
    9.6436   -4.8098   17.5172 C   0  0  0  0  0  0  0  0  0  0  0  0
   10.4174   -3.3000   15.9180 C   0  0  0  0  0  0  0  0  0  0  0  0
    9.4176   -5.2710   15.1039 C   0  0  0  0  0  0  0  0  0  0  0  0
    2.3432   -3.7800   15.5207 C   0  0  0  0  0  0  0  0  0  0  0  0
    2.7586   -5.2030   15.8407 C   0  0  0  0  0  0  0  0  0  0  0  0
    2.9165   -5.5933   17.2709 C   0  0  0  0  0  0  0  0  0  0  0  0
    3.5615   -7.9129   16.5897 C   0  0  0  0  0  0  0  0  0  0  0  0
    3.4282   -7.6125   15.1635 C   0  0  0  0  0  0  0  0  0  0  0  0
    3.0167   -6.2273   14.7677 C   0  0  0  0  0  0  0  0  0  0  0  0
    3.9485   -9.2399   16.7042 O   0  0  0  0  0  0  0  0  0  0  0  0
    4.1168   -9.9662   15.4266 C   0  0  0  0  0  0  0  0  0  0  0  0
    3.7516   -8.8056   14.5374 O   0  0  0  0  0  0  0  0  0  0  0  0
    3.3222   -6.9520   17.7302 C   0  0  0  0  0  0  0  0  0  0  0  0
    6.2076    0.7438   12.2796 C   0  0  0  0  0  0  0  0  0  0  0  0
    6.5802    1.8421   11.2987 C   0  0  0  0  0  0  0  0  0  0  0  0
    5.2957    2.4674   10.5645 C   0  0  0  0  0  0  0  0  0  0  0  0
    5.2819    3.5304    9.8148 O   0  0  0  0  0  0  0  0  0  0  0  0
    4.2329    1.7605   10.8565 N   0  0  0  0  0  0  0  0  0  0  0  0
    4.3510    0.9665   11.4265 H   0  0  0  0  0  0  0  0  0  0  0  0
    2.8953    2.0698   10.3961 C   0  0  0  0  0  0  0  0  0  0  0  0
    2.6259    3.5600   10.4473 C   0  0  0  0  0  0  0  0  0  0  0  0
    3.1969    4.1673   11.6045 O   0  0  0  0  0  0  0  0  0  0  0  0
    1.1294    3.6791   10.3193 C   0  0  0  0  0  0  0  0  0  0  0  0
    0.4857    2.5670   11.0797 C   0  0  0  0  0  0  0  0  0  0  0  0
   -0.7720    2.2850   11.6862 C   0  0  0  0  0  0  0  0  0  0  0  0
   -0.9407    0.9767   12.3591 C   0  0  0  0  0  0  0  0  0  0  0  0
    0.1661   -0.0419   12.4130 C   0  0  0  0  0  0  0  0  0  0  0  0
    1.4448    0.2429   11.7976 C   0  0  0  0  0  0  0  0  0  0  0  0
    1.6877    1.4827   11.1317 C   0  0  0  0  0  0  0  0  0  0  0  0
    2.8367    3.7473   12.4012 H   0  0  0  0  0  0  0  0  0  0  0  0
    7.5378    1.1830   10.1388 C   0  0  0  0  0  0  0  0  0  0  0  0
    8.6211    0.4726   10.2186 C   0  0  0  0  0  0  0  0  0  0  0  0
    7.8917    2.3019    9.0764 C   0  0  0  0  0  0  0  0  0  0  0  0
    8.6838    3.5797    9.4463 C   0  0  0  0  0  0  0  0  0  0  0  0
    8.9700    4.5896    8.4102 C   0  0  0  0  0  0  0  0  0  0  0  0
    8.4729    4.3511    6.9885 C   0  0  0  0  0  0  0  0  0  0  0  0
    7.7015    3.1027    6.6407 C   0  0  0  0  0  0  0  0  0  0  0  0
    7.4182    2.0993    7.6721 C   0  0  0  0  0  0  0  0  0  0  0  0
  5  6  1  0  0  0
  5 10  1  0  0  0
  5 19  1  0  0  0
  6  7  1  0  0  0
  7 11  1  0  0  0
  7  8  1  0  0  0
 11 12  2  0  0  0
 11 13  1  0  0  0
 13 15  1  0  0  0
 15 16  1  0  0  0
 15 17  1  0  0  0
 15 18  1  0  0  0
  8  9  1  0  0  0
  8  4  1  0  0  0
  9 10  1  0  0  0
  4  1  1  0  0  0
  1  2  1  0  0  0
  1 29  1  0  0  0
 29 30  1  0  0  0
 30 46  1  0  0  0
 30 31  1  0  0  0
 46 48  1  0  0  0
 46 47  1  0  0  0
 48 49  2  0  0  0
 48 53  1  0  0  0
 49 50  1  0  0  0
 50 51  2  0  0  0
 51 52  1  0  0  0
 52 53  2  0  0  0
 31 32  2  0  0  0
 31 33  1  0  0  0
 33 35  1  0  0  0
 35 36  1  0  0  0
 35 44  1  0  0  0
 36 37  1  0  0  0
 36 38  1  0  0  0
 38 39  1  0  0  0
 39 40  2  0  0  0
 39 44  1  0  0  0
 40 41  1  0  0  0
 41 42  2  0  0  0
 42 43  1  0  0  0
 43 44  2  0  0  0
 19 20  1  0  0  0
 20 21  2  0  0  0
 20 24  1  0  0  0
 21 28  1  0  0  0
 22 23  1  0  0  0
 22 25  1  0  0  0
 22 28  2  0  0  0
 23 24  2  0  0  0
 23 27  1  0  0  0
 25 26  1  0  0  0
 26 27  1  0  0  0
 13 14  1  0  0  0
  2  3  1  0  0  0
 33 34  1  0  0  0
 37 45  1  0  0  0
M  END
> <minimizedAffinity>
-9.92491

$$$$
1K6V_XN2_B_252


 53 58  0  0  0  0  0  0  0  0999 V2000
    4.6457   -3.9778   16.0433 C   0  0  0  0  0  0  0  0  0  0  0  0
    3.4993   -3.6805   15.2793 O   0  0  0  0  0  0  0  0  0  0  0  0
    2.7897   -3.3757   15.8662 H   0  0  0  0  0  0  0  0  0  0  0  0
    3.9525   -4.9973   16.8511 C   0  0  0  0  0  0  0  0  0  0  0  0
    4.3230   -9.2440   16.5922 N   0  0  0  0  0  0  0  0  0  0  0  0
    5.6007   -8.4084   16.9940 C   0  0  0  0  0  0  0  0  0  0  0  0
    5.2789   -7.0349   17.5705 C   0  0  0  0  0  0  0  0  0  0  0  0
    4.4060   -6.3811   16.4408 N   0  0  0  0  0  0  0  0  0  0  0  0
    3.1815   -7.0953   15.9111 C   0  0  0  0  0  0  0  0  0  0  0  0
    3.6588   -8.5019   15.5004 C   0  0  0  0  0  0  0  0  0  0  0  0
    6.5840   -6.3980   17.8664 C   0  0  0  0  0  0  0  0  0  0  0  0
    6.7494   -5.8662   19.0259 O   0  0  0  0  0  0  0  0  0  0  0  0
    7.5562   -6.4291   16.8798 N   0  0  0  0  0  0  0  0  0  0  0  0
    7.2799   -6.8707   16.0444 H   0  0  0  0  0  0  0  0  0  0  0  0
    8.9552   -5.9030   16.8742 C   0  0  0  0  0  0  0  0  0  0  0  0
    9.6473   -6.2693   15.5331 C   0  0  0  0  0  0  0  0  0  0  0  0
    9.7699   -6.5131   17.8486 C   0  0  0  0  0  0  0  0  0  0  0  0
    9.0638   -4.4129   17.0500 C   0  0  0  0  0  0  0  0  0  0  0  0
    4.6860  -10.5470   16.0619 C   0  0  0  0  0  0  0  0  0  0  0  0
    3.8019  -11.0622   14.9426 C   0  0  0  0  0  0  0  0  0  0  0  0
    2.6375  -11.9240   15.2953 C   0  0  0  0  0  0  0  0  0  0  0  0
    2.0252  -12.1245   12.8775 C   0  0  0  0  0  0  0  0  0  0  0  0
    3.1444  -11.2856   12.4465 C   0  0  0  0  0  0  0  0  0  0  0  0
    4.0612  -10.7351   13.4959 C   0  0  0  0  0  0  0  0  0  0  0  0
    1.3293  -12.5110   11.7417 O   0  0  0  0  0  0  0  0  0  0  0  0
    1.8689  -12.0037   10.4613 C   0  0  0  0  0  0  0  0  0  0  0  0
    3.0190  -11.2414   11.0672 O   0  0  0  0  0  0  0  0  0  0  0  0
    1.6894  -12.5018   14.3010 C   0  0  0  0  0  0  0  0  0  0  0  0
    4.9804   -2.6679   16.6537 C   0  0  0  0  0  0  0  0  0  0  0  0
    5.7140   -1.6125   15.8442 C   0  0  0  0  0  0  0  0  0  0  0  0
    4.7440   -0.4244   15.3674 C   0  0  0  0  0  0  0  0  0  0  0  0
    4.9540    0.8493   15.5282 O   0  0  0  0  0  0  0  0  0  0  0  0
    3.6721   -0.9274   14.8084 N   0  0  0  0  0  0  0  0  0  0  0  0
    3.6127   -1.9066   14.7261 H   0  0  0  0  0  0  0  0  0  0  0  0
    2.5682   -0.1379   14.3032 C   0  0  0  0  0  0  0  0  0  0  0  0
    1.2348   -0.7338   14.7064 C   0  0  0  0  0  0  0  0  0  0  0  0
    1.2465   -2.1589   14.6488 O   0  0  0  0  0  0  0  0  0  0  0  0
    0.2300   -0.0531   13.8137 C   0  0  0  0  0  0  0  0  0  0  0  0
    0.8250    0.1212   12.4553 C   0  0  0  0  0  0  0  0  0  0  0  0
    0.3763    0.3033   11.1157 C   0  0  0  0  0  0  0  0  0  0  0  0
    1.3988    0.4334   10.0525 C   0  0  0  0  0  0  0  0  0  0  0  0
    2.8729    0.3802   10.3517 C   0  0  0  0  0  0  0  0  0  0  0  0
    3.3308    0.1949   11.7122 C   0  0  0  0  0  0  0  0  0  0  0  0
    2.4078    0.0586   12.7933 C   0  0  0  0  0  0  0  0  0  0  0  0
    1.4678   -2.4442   13.7485 H   0  0  0  0  0  0  0  0  0  0  0  0
    6.3107   -2.3325   14.4943 C   0  0  0  0  0  0  0  0  0  0  0  0
    7.0554   -3.3839   14.3375 C   0  0  0  0  0  0  0  0  0  0  0  0
    7.0110   -1.2309   13.5987 C   0  0  0  0  0  0  0  0  0  0  0  0
    6.5303   -0.8945   12.1659 C   0  0  0  0  0  0  0  0  0  0  0  0
    7.2352    0.1353   11.3799 C   0  0  0  0  0  0  0  0  0  0  0  0
    8.4319    0.8482   12.0004 C   0  0  0  0  0  0  0  0  0  0  0  0
    8.8912    0.5109   13.3968 C   0  0  0  0  0  0  0  0  0  0  0  0
    8.1888   -0.5129   14.1772 C   0  0  0  0  0  0  0  0  0  0  0  0
  5  6  1  0  0  0
  5 10  1  0  0  0
  5 19  1  0  0  0
  6  7  1  0  0  0
  7 11  1  0  0  0
  7  8  1  0  0  0
 11 12  2  0  0  0
 11 13  1  0  0  0
 13 15  1  0  0  0
 15 16  1  0  0  0
 15 17  1  0  0  0
 15 18  1  0  0  0
  8  9  1  0  0  0
  8  4  1  0  0  0
  9 10  1  0  0  0
  4  1  1  0  0  0
  1  2  1  0  0  0
  1 29  1  0  0  0
 29 30  1  0  0  0
 30 46  1  0  0  0
 30 31  1  0  0  0
 46 48  1  0  0  0
 46 47  1  0  0  0
 48 49  2  0  0  0
 48 53  1  0  0  0
 49 50  1  0  0  0
 50 51  2  0  0  0
 51 52  1  0  0  0
 52 53  2  0  0  0
 31 32  2  0  0  0
 31 33  1  0  0  0
 33 35  1  0  0  0
 35 36  1  0  0  0
 35 44  1  0  0  0
 36 37  1  0  0  0
 36 38  1  0  0  0
 38 39  1  0  0  0
 39 40  2  0  0  0
 39 44  1  0  0  0
 40 41  1  0  0  0
 41 42  2  0  0  0
 42 43  1  0  0  0
 43 44  2  0  0  0
 19 20  1  0  0  0
 20 21  2  0  0  0
 20 24  1  0  0  0
 21 28  1  0  0  0
 22 23  1  0  0  0
 22 25  1  0  0  0
 22 28  2  0  0  0
 23 24  2  0  0  0
 23 27  1  0  0  0
 25 26  1  0  0  0
 26 27  1  0  0  0
 13 14  1  0  0  0
  2  3  1  0  0  0
 33 34  1  0  0  0
 37 45  1  0  0  0
M  END
> <minimizedAffinity>
-9.81808

$$$$
1K6V_XN2_B_252


 53 58  0  0  0  0  0  0  0  0999 V2000
    4.7912   -3.9488   16.5945 C   0  0  0  0  0  0  0  0  0  0  0  0
    5.8351   -4.4435   17.4017 O   0  0  0  0  0  0  0  0  0  0  0  0
    5.7226   -4.1208   18.3095 H   0  0  0  0  0  0  0  0  0  0  0  0
    5.1346   -2.5399   16.8582 C   0  0  0  0  0  0  0  0  0  0  0  0
    4.8371   -1.4792   12.7320 N   0  0  0  0  0  0  0  0  0  0  0  0
    6.2755   -1.5621   13.3775 C   0  0  0  0  0  0  0  0  0  0  0  0
    6.3370   -2.4300   14.6286 C   0  0  0  0  0  0  0  0  0  0  0  0
    5.2478   -1.7805   15.5545 N   0  0  0  0  0  0  0  0  0  0  0  0
    3.8354   -1.5809   15.0493 C   0  0  0  0  0  0  0  0  0  0  0  0
    3.9677   -0.8095   13.7217 C   0  0  0  0  0  0  0  0  0  0  0  0
    7.7414   -2.3730   15.0989 C   0  0  0  0  0  0  0  0  0  0  0  0
    8.3032   -1.2196   15.1903 O   0  0  0  0  0  0  0  0  0  0  0  0
    8.3606   -3.5676   15.4293 N   0  0  0  0  0  0  0  0  0  0  0  0
    7.8015   -4.3684   15.3051 H   0  0  0  0  0  0  0  0  0  0  0  0
    9.7372   -3.8413   15.9432 C   0  0  0  0  0  0  0  0  0  0  0  0
   10.3389   -5.0664   15.2024 C   0  0  0  0  0  0  0  0  0  0  0  0
    9.7449   -4.2322   17.2969 C   0  0  0  0  0  0  0  0  0  0  0  0
   10.7016   -2.6973   15.7883 C   0  0  0  0  0  0  0  0  0  0  0  0
    4.8382   -0.6519   11.5377 C   0  0  0  0  0  0  0  0  0  0  0  0
    3.7659    0.4194   11.4884 C   0  0  0  0  0  0  0  0  0  0  0  0
    4.1695    1.8397   11.6950 C   0  0  0  0  0  0  0  0  0  0  0  0
    1.7940    2.5774   11.4242 C   0  0  0  0  0  0  0  0  0  0  0  0
    1.3146    1.2111   11.2108 C   0  0  0  0  0  0  0  0  0  0  0  0
    2.3160    0.0972   11.2409 C   0  0  0  0  0  0  0  0  0  0  0  0
    0.6965    3.4226   11.3533 O   0  0  0  0  0  0  0  0  0  0  0  0
   -0.6009    2.7606   11.0951 C   0  0  0  0  0  0  0  0  0  0  0  0
   -0.0508    1.3593   11.0269 O   0  0  0  0  0  0  0  0  0  0  0  0
    3.2242    2.9920   11.6770 C   0  0  0  0  0  0  0  0  0  0  0  0
    3.5838   -4.5352   17.2259 C   0  0  0  0  0  0  0  0  0  0  0  0
    3.5107   -6.0283   17.4954 C   0  0  0  0  0  0  0  0  0  0  0  0
    4.7220   -6.5431   18.4161 C   0  0  0  0  0  0  0  0  0  0  0  0
    4.9742   -6.1647   19.6349 O   0  0  0  0  0  0  0  0  0  0  0  0
    5.4564   -7.3937   17.7442 N   0  0  0  0  0  0  0  0  0  0  0  0
    5.1748   -7.6217   16.8288 H   0  0  0  0  0  0  0  0  0  0  0  0
    6.6557   -8.0211   18.2589 C   0  0  0  0  0  0  0  0  0  0  0  0
    7.8921   -7.2207   17.9035 C   0  0  0  0  0  0  0  0  0  0  0  0
    7.8172   -6.6769   16.5871 O   0  0  0  0  0  0  0  0  0  0  0  0
    9.0396   -8.1642   18.1551 C   0  0  0  0  0  0  0  0  0  0  0  0
    8.6401   -9.5398   17.7334 C   0  0  0  0  0  0  0  0  0  0  0  0
    9.2718  -10.7538   17.3383 C   0  0  0  0  0  0  0  0  0  0  0  0
    8.4078  -11.9069   16.9965 C   0  0  0  0  0  0  0  0  0  0  0  0
    6.9061  -11.8252   17.0582 C   0  0  0  0  0  0  0  0  0  0  0  0
    6.2625  -10.5923   17.4591 C   0  0  0  0  0  0  0  0  0  0  0  0
    7.0253   -9.4348   17.8019 C   0  0  0  0  0  0  0  0  0  0  0  0
    7.7037   -7.3960   15.9462 H   0  0  0  0  0  0  0  0  0  0  0  0
    3.6207   -6.8097   16.0552 C   0  0  0  0  0  0  0  0  0  0  0  0
    3.1976   -6.4928   14.8699 C   0  0  0  0  0  0  0  0  0  0  0  0
    3.1318   -8.3028   16.2492 C   0  0  0  0  0  0  0  0  0  0  0  0
    2.1186   -8.7106   17.3466 C   0  0  0  0  0  0  0  0  0  0  0  0
    1.7136  -10.1224   17.4813 C   0  0  0  0  0  0  0  0  0  0  0  0
    2.3088  -11.1558   16.5310 C   0  0  0  0  0  0  0  0  0  0  0  0
    3.2956  -10.7463   15.4666 C   0  0  0  0  0  0  0  0  0  0  0  0
    3.6968   -9.3420   15.3338 C   0  0  0  0  0  0  0  0  0  0  0  0
  5  6  1  0  0  0
  5 10  1  0  0  0
  5 19  1  0  0  0
  6  7  1  0  0  0
  7 11  1  0  0  0
  7  8  1  0  0  0
 11 12  2  0  0  0
 11 13  1  0  0  0
 13 15  1  0  0  0
 15 16  1  0  0  0
 15 17  1  0  0  0
 15 18  1  0  0  0
  8  9  1  0  0  0
  8  4  1  0  0  0
  9 10  1  0  0  0
  4  1  1  0  0  0
  1  2  1  0  0  0
  1 29  1  0  0  0
 29 30  1  0  0  0
 30 46  1  0  0  0
 30 31  1  0  0  0
 46 48  1  0  0  0
 46 47  1  0  0  0
 48 49  2  0  0  0
 48 53  1  0  0  0
 49 50  1  0  0  0
 50 51  2  0  0  0
 51 52  1  0  0  0
 52 53  2  0  0  0
 31 32  2  0  0  0
 31 33  1  0  0  0
 33 35  1  0  0  0
 35 36  1  0  0  0
 35 44  1  0  0  0
 36 37  1  0  0  0
 36 38  1  0  0  0
 38 39  1  0  0  0
 39 40  2  0  0  0
 39 44  1  0  0  0
 40 41  1  0  0  0
 41 42  2  0  0  0
 42 43  1  0  0  0
 43 44  2  0  0  0
 19 20  1  0  0  0
 20 21  2  0  0  0
 20 24  1  0  0  0
 21 28  1  0  0  0
 22 23  1  0  0  0
 22 25  1  0  0  0
 22 28  2  0  0  0
 23 24  2  0  0  0
 23 27  1  0  0  0
 25 26  1  0  0  0
 26 27  1  0  0  0
 13 14  1  0  0  0
  2  3  1  0  0  0
 33 34  1  0  0  0
 37 45  1  0  0  0
M  END
> <minimizedAffinity>
-9.80316

$$$$
1K6V_XN2_B_252


 53 58  0  0  0  0  0  0  0  0999 V2000
    6.2925    0.8308   13.8194 C   0  0  0  0  0  0  0  0  0  0  0  0
    7.4980    1.5587   13.8753 O   0  0  0  0  0  0  0  0  0  0  0  0
    8.0945    1.2505   13.1753 H   0  0  0  0  0  0  0  0  0  0  0  0
    6.9620   -0.4662   14.0248 C   0  0  0  0  0  0  0  0  0  0  0  0
    3.8998   -2.2978   16.3714 N   0  0  0  0  0  0  0  0  0  0  0  0
    5.3335   -2.9586   16.3719 C   0  0  0  0  0  0  0  0  0  0  0  0
    6.4507   -1.9998   15.9781 C   0  0  0  0  0  0  0  0  0  0  0  0
    5.9791   -1.4763   14.5749 N   0  0  0  0  0  0  0  0  0  0  0  0
    4.6021   -0.8710   14.4081 C   0  0  0  0  0  0  0  0  0  0  0  0
    3.6140   -1.9092   14.9745 C   0  0  0  0  0  0  0  0  0  0  0  0
    7.7031   -2.7915   16.0152 C   0  0  0  0  0  0  0  0  0  0  0  0
    8.7997   -2.2061   15.6849 O   0  0  0  0  0  0  0  0  0  0  0  0
    7.6194   -4.1135   16.4213 N   0  0  0  0  0  0  0  0  0  0  0  0
    6.7097   -4.4192   16.6407 H   0  0  0  0  0  0  0  0  0  0  0  0
    8.6823   -5.1521   16.5813 C   0  0  0  0  0  0  0  0  0  0  0  0
    9.2497   -5.5398   15.1887 C   0  0  0  0  0  0  0  0  0  0  0  0
    8.1830   -6.3679   17.0892 C   0  0  0  0  0  0  0  0  0  0  0  0
    9.8412   -4.7334   17.4442 C   0  0  0  0  0  0  0  0  0  0  0  0
    2.8761   -3.2504   16.7660 C   0  0  0  0  0  0  0  0  0  0  0  0
    3.2797   -4.7098   16.6818 C   0  0  0  0  0  0  0  0  0  0  0  0
    3.1965   -5.3957   15.3607 C   0  0  0  0  0  0  0  0  0  0  0  0
    4.0221   -7.5227   16.3878 C   0  0  0  0  0  0  0  0  0  0  0  0
    4.1341   -6.9250   17.7191 C   0  0  0  0  0  0  0  0  0  0  0  0
    3.7570   -5.4841   17.8818 C   0  0  0  0  0  0  0  0  0  0  0  0
    4.4204   -8.8475   16.4883 O   0  0  0  0  0  0  0  0  0  0  0  0
    4.8316   -9.2877   17.8393 C   0  0  0  0  0  0  0  0  0  0  0  0
    4.5980   -7.9607   18.5142 O   0  0  0  0  0  0  0  0  0  0  0  0
    3.5562   -6.8240   15.1324 C   0  0  0  0  0  0  0  0  0  0  0  0
    5.7652    1.1743   12.4762 C   0  0  0  0  0  0  0  0  0  0  0  0
    6.4419    2.2474   11.6408 C   0  0  0  0  0  0  0  0  0  0  0  0
    5.4027    3.3448   11.0972 C   0  0  0  0  0  0  0  0  0  0  0  0
    5.6205    4.6231   10.9936 O   0  0  0  0  0  0  0  0  0  0  0  0
    4.2680    2.7660   10.7942 N   0  0  0  0  0  0  0  0  0  0  0  0
    4.2074    1.7890   10.8998 H   0  0  0  0  0  0  0  0  0  0  0  0
    3.0963    3.4683   10.3140 C   0  0  0  0  0  0  0  0  0  0  0  0
    1.8503    2.6165   10.4468 C   0  0  0  0  0  0  0  0  0  0  0  0
    2.1029    1.2474   10.1369 O   0  0  0  0  0  0  0  0  0  0  0  0
    0.8273    3.3035    9.5800 C   0  0  0  0  0  0  0  0  0  0  0  0
    1.5000    3.8245    8.3529 C   0  0  0  0  0  0  0  0  0  0  0  0
    1.1444    4.1965    7.0247 C   0  0  0  0  0  0  0  0  0  0  0  0
    2.2189    4.6798    6.1276 C   0  0  0  0  0  0  0  0  0  0  0  0
    3.6501    4.7858    6.5812 C   0  0  0  0  0  0  0  0  0  0  0  0
    4.0135    4.4079    7.9304 C   0  0  0  0  0  0  0  0  0  0  0  0
    3.0361    3.9298    8.8553 C   0  0  0  0  0  0  0  0  0  0  0  0
    2.4452    1.1786    9.2320 H   0  0  0  0  0  0  0  0  0  0  0  0
    7.1190    1.5204   10.3331 C   0  0  0  0  0  0  0  0  0  0  0  0
    8.0041    0.5762   10.2357 C   0  0  0  0  0  0  0  0  0  0  0  0
    7.6441    2.6401    9.3450 C   0  0  0  0  0  0  0  0  0  0  0  0
    8.6920    3.6984    9.7681 C   0  0  0  0  0  0  0  0  0  0  0  0
    9.1300    4.7226    8.8014 C   0  0  0  0  0  0  0  0  0  0  0  0
    8.5340    4.7169    7.3978 C   0  0  0  0  0  0  0  0  0  0  0  0
    7.5133    3.6812    6.9979 C   0  0  0  0  0  0  0  0  0  0  0  0
    7.0792    2.6633    7.9602 C   0  0  0  0  0  0  0  0  0  0  0  0
  5  6  1  0  0  0
  5 10  1  0  0  0
  5 19  1  0  0  0
  6  7  1  0  0  0
  7 11  1  0  0  0
  7  8  1  0  0  0
 11 12  2  0  0  0
 11 13  1  0  0  0
 13 15  1  0  0  0
 15 16  1  0  0  0
 15 17  1  0  0  0
 15 18  1  0  0  0
  8  9  1  0  0  0
  8  4  1  0  0  0
  9 10  1  0  0  0
  4  1  1  0  0  0
  1  2  1  0  0  0
  1 29  1  0  0  0
 29 30  1  0  0  0
 30 46  1  0  0  0
 30 31  1  0  0  0
 46 48  1  0  0  0
 46 47  1  0  0  0
 48 49  2  0  0  0
 48 53  1  0  0  0
 49 50  1  0  0  0
 50 51  2  0  0  0
 51 52  1  0  0  0
 52 53  2  0  0  0
 31 32  2  0  0  0
 31 33  1  0  0  0
 33 35  1  0  0  0
 35 36  1  0  0  0
 35 44  1  0  0  0
 36 37  1  0  0  0
 36 38  1  0  0  0
 38 39  1  0  0  0
 39 40  2  0  0  0
 39 44  1  0  0  0
 40 41  1  0  0  0
 41 42  2  0  0  0
 42 43  1  0  0  0
 43 44  2  0  0  0
 19 20  1  0  0  0
 20 21  2  0  0  0
 20 24  1  0  0  0
 21 28  1  0  0  0
 22 23  1  0  0  0
 22 25  1  0  0  0
 22 28  2  0  0  0
 23 24  2  0  0  0
 23 27  1  0  0  0
 25 26  1  0  0  0
 26 27  1  0  0  0
 13 14  1  0  0  0
  2  3  1  0  0  0
 33 34  1  0  0  0
 37 45  1  0  0  0
M  END
> <minimizedAffinity>
-9.77311

$$$$
