4U6W_Q08_A_404


 17 16  0  0  0  0  0  0  0  0999 V2000
   22.8886   -4.1226    9.9542 C   0  0  0  0  0  0  0  0  0  0  0  0
   23.9278   -3.5541    9.0551 N   0  0  0  0  0  0  0  0  0  0  0  0
   24.6927   -3.1775    9.6150 H   0  0  0  0  0  0  0  0  0  0  0  0
   23.5192   -2.8080    8.4922 H   0  0  0  0  0  0  0  0  0  0  0  0
   21.6041   -1.6511   10.3181 O   0  0  0  0  0  0  0  0  0  0  0  0
   22.1614   -2.8095   11.0074 P   0  0  0  0  0  0  0  0  0  0  0  0
   23.2340   -2.4461   12.1421 O   0  0  0  0  0  0  0  0  0  0  0  0
   20.8906   -3.4635   11.6422 O   0  0  0  0  0  0  0  0  0  0  0  0
   20.9668   -1.9482    9.6499 H   0  0  0  0  0  0  0  0  0  0  0  0
   23.5583   -3.2624   12.5537 H   0  0  0  0  0  0  0  0  0  0  0  0
   23.3569   -5.3611   10.7496 C   0  0  0  0  0  0  0  0  0  0  0  0
   24.8729   -5.3320   10.7703 C   0  0  0  0  0  0  0  0  0  0  0  0
   25.4573   -5.6075   12.1363 C   0  0  0  0  0  0  0  0  0  0  0  0
   26.6466   -6.4937   12.0556 C   0  0  0  0  0  0  0  0  0  0  0  0
   22.8571   -6.6921   10.1806 C   0  0  0  0  0  0  0  0  0  0  0  0
   23.0086   -7.9814   11.0308 C   0  0  0  0  0  0  0  0  0  0  0  0
   24.0184   -8.9488   10.5073 C   0  0  0  0  0  0  0  0  0  0  0  0
  2  1  1  0  0  0
 14 13  1  0  0  0
  1 11  1  0  0  0
  1  6  1  0  0  0
 12 11  1  0  0  0
 12 13  1  0  0  0
  8  6  2  0  0  0
 11 15  1  0  0  0
  7  6  1  0  0  0
  6  5  1  0  0  0
 15 16  1  0  0  0
 16 17  1  0  0  0
  5  9  1  0  0  0
  7 10  1  0  0  0
  2  3  1  0  0  0
  2  4  1  0  0  0
M  END
> <minimizedAffinity>
-7.55671

$$$$
4U6W_Q08_A_404


 17 16  0  0  0  0  0  0  0  0999 V2000
   22.8657   -4.1799   10.0106 C   0  0  0  0  0  0  0  0  0  0  0  0
   23.8491   -3.1943    9.4884 N   0  0  0  0  0  0  0  0  0  0  0  0
   24.2816   -2.6996   10.2685 H   0  0  0  0  0  0  0  0  0  0  0  0
   23.3718   -2.5253    8.8842 H   0  0  0  0  0  0  0  0  0  0  0  0
   20.9416   -4.0166   12.0506 O   0  0  0  0  0  0  0  0  0  0  0  0
   21.5078   -3.3251   10.8979 P   0  0  0  0  0  0  0  0  0  0  0  0
   20.4246   -2.8699    9.8072 O   0  0  0  0  0  0  0  0  0  0  0  0
   22.1827   -2.0770   11.5556 O   0  0  0  0  0  0  0  0  0  0  0  0
   21.6532   -4.2596   12.6634 H   0  0  0  0  0  0  0  0  0  0  0  0
   20.8732   -2.4194    9.0745 H   0  0  0  0  0  0  0  0  0  0  0  0
   23.5015   -5.3314   10.8204 C   0  0  0  0  0  0  0  0  0  0  0  0
   24.8187   -4.8180   11.3688 C   0  0  0  0  0  0  0  0  0  0  0  0
   26.0045   -5.6627   10.9643 C   0  0  0  0  0  0  0  0  0  0  0  0
   26.5806   -6.3906   12.1238 C   0  0  0  0  0  0  0  0  0  0  0  0
   23.7240   -6.6126   10.0117 C   0  0  0  0  0  0  0  0  0  0  0  0
   23.1576   -7.9534   10.5498 C   0  0  0  0  0  0  0  0  0  0  0  0
   24.1474   -9.0710   10.5822 C   0  0  0  0  0  0  0  0  0  0  0  0
  2  1  1  0  0  0
 14 13  1  0  0  0
  1 11  1  0  0  0
  1  6  1  0  0  0
 12 11  1  0  0  0
 12 13  1  0  0  0
  8  6  2  0  0  0
 11 15  1  0  0  0
  7  6  1  0  0  0
  6  5  1  0  0  0
 15 16  1  0  0  0
 16 17  1  0  0  0
  5  9  1  0  0  0
  7 10  1  0  0  0
  2  3  1  0  0  0
  2  4  1  0  0  0
M  END
> <minimizedAffinity>
-7.46642

$$$$
4U6W_Q08_A_404


 17 16  0  0  0  0  0  0  0  0999 V2000
   22.8143   -4.9152   11.3881 C   0  0  0  0  0  0  0  0  0  0  0  0
   21.6316   -5.2857   12.2098 N   0  0  0  0  0  0  0  0  0  0  0  0
   20.8324   -5.4539   11.5988 H   0  0  0  0  0  0  0  0  0  0  0  0
   21.4133   -4.5253   12.8537 H   0  0  0  0  0  0  0  0  0  0  0  0
   22.4097   -2.1368   11.3035 O   0  0  0  0  0  0  0  0  0  0  0  0
   22.5084   -3.3449   10.4922 P   0  0  0  0  0  0  0  0  0  0  0  0
   21.2641   -3.5801    9.5091 O   0  0  0  0  0  0  0  0  0  0  0  0
   23.8156   -3.0906    9.6723 O   0  0  0  0  0  0  0  0  0  0  0  0
   23.1939   -2.0625   11.8695 H   0  0  0  0  0  0  0  0  0  0  0  0
   21.4002   -4.3978    9.0052 H   0  0  0  0  0  0  0  0  0  0  0  0
   23.3274   -6.0533   10.4785 C   0  0  0  0  0  0  0  0  0  0  0  0
   22.9281   -7.3621   11.1319 C   0  0  0  0  0  0  0  0  0  0  0  0
   23.1380   -8.5639   10.2402 C   0  0  0  0  0  0  0  0  0  0  0  0
   24.3024   -9.3753   10.6782 C   0  0  0  0  0  0  0  0  0  0  0  0
   24.8384   -6.0201   10.2317 C   0  0  0  0  0  0  0  0  0  0  0  0
   25.7735   -5.4751   11.3437 C   0  0  0  0  0  0  0  0  0  0  0  0
   26.5466   -6.5273   12.0682 C   0  0  0  0  0  0  0  0  0  0  0  0
  2  1  1  0  0  0
 14 13  1  0  0  0
  1 11  1  0  0  0
  1  6  1  0  0  0
 12 11  1  0  0  0
 12 13  1  0  0  0
  8  6  2  0  0  0
 11 15  1  0  0  0
  7  6  1  0  0  0
  6  5  1  0  0  0
 15 16  1  0  0  0
 16 17  1  0  0  0
  5  9  1  0  0  0
  7 10  1  0  0  0
  2  3  1  0  0  0
  2  4  1  0  0  0
M  END
> <minimizedAffinity>
-7.08667

$$$$
4U6W_Q08_A_404


 17 16  0  0  0  0  0  0  0  0999 V2000
   23.0616   -4.2469    9.9455 C   0  0  0  0  0  0  0  0  0  0  0  0
   23.9876   -3.4616    9.0869 N   0  0  0  0  0  0  0  0  0  0  0  0
   24.7517   -3.0970    9.6556 H   0  0  0  0  0  0  0  0  0  0  0  0
   23.4806   -2.6858    8.6608 H   0  0  0  0  0  0  0  0  0  0  0  0
   23.2010   -2.4819   12.1263 O   0  0  0  0  0  0  0  0  0  0  0  0
   22.2933   -3.1701   11.2153 P   0  0  0  0  0  0  0  0  0  0  0  0
   21.1482   -4.0210   11.9466 O   0  0  0  0  0  0  0  0  0  0  0  0
   21.6670   -1.9851   10.4095 O   0  0  0  0  0  0  0  0  0  0  0  0
   23.8626   -1.9912   11.6140 H   0  0  0  0  0  0  0  0  0  0  0  0
   20.5869   -4.4474   11.2802 H   0  0  0  0  0  0  0  0  0  0  0  0
   23.6853   -5.5352   10.5261 C   0  0  0  0  0  0  0  0  0  0  0  0
   22.6896   -6.6559   10.2980 C   0  0  0  0  0  0  0  0  0  0  0  0
   23.0333   -7.9224   11.0471 C   0  0  0  0  0  0  0  0  0  0  0  0
   23.9877   -8.7683   10.2857 C   0  0  0  0  0  0  0  0  0  0  0  0
   24.0469   -5.4376   12.0109 C   0  0  0  0  0  0  0  0  0  0  0  0
   25.4955   -5.7679   12.4587 C   0  0  0  0  0  0  0  0  0  0  0  0
   26.4956   -5.7772   11.3499 C   0  0  0  0  0  0  0  0  0  0  0  0
  2  1  1  0  0  0
 14 13  1  0  0  0
  1 11  1  0  0  0
  1  6  1  0  0  0
 12 11  1  0  0  0
 12 13  1  0  0  0
  8  6  2  0  0  0
 11 15  1  0  0  0
  7  6  1  0  0  0
  6  5  1  0  0  0
 15 16  1  0  0  0
 16 17  1  0  0  0
  5  9  1  0  0  0
  7 10  1  0  0  0
  2  3  1  0  0  0
  2  4  1  0  0  0
M  END
> <minimizedAffinity>
-7.07981

$$$$
4U6W_Q08_A_404


 17 16  0  0  0  0  0  0  0  0999 V2000
   22.5760   -4.3596   10.1467 C   0  0  0  0  0  0  0  0  0  0  0  0
   23.5514   -4.0095    9.0803 N   0  0  0  0  0  0  0  0  0  0  0  0
   24.3852   -3.6011    9.5028 H   0  0  0  0  0  0  0  0  0  0  0  0
   23.1293   -3.3358    8.4413 H   0  0  0  0  0  0  0  0  0  0  0  0
   21.5953   -1.7281   10.2060 O   0  0  0  0  0  0  0  0  0  0  0  0
   22.0222   -2.8522   11.0316 P   0  0  0  0  0  0  0  0  0  0  0  0
   23.1454   -2.4833   12.1144 O   0  0  0  0  0  0  0  0  0  0  0  0
   20.6923   -3.2699   11.7405 O   0  0  0  0  0  0  0  0  0  0  0  0
   20.9185   -2.0265    9.5785 H   0  0  0  0  0  0  0  0  0  0  0  0
   23.3773   -3.2762   12.6226 H   0  0  0  0  0  0  0  0  0  0  0  0
   23.0546   -5.4860   11.0891 C   0  0  0  0  0  0  0  0  0  0  0  0
   23.2621   -6.7233   10.2374 C   0  0  0  0  0  0  0  0  0  0  0  0
   24.4997   -7.5056   10.6111 C   0  0  0  0  0  0  0  0  0  0  0  0
   24.2617   -8.9705   10.5513 C   0  0  0  0  0  0  0  0  0  0  0  0
   22.0903   -5.7868   12.2400 C   0  0  0  0  0  0  0  0  0  0  0  0
   21.7440   -7.2633   12.5690 C   0  0  0  0  0  0  0  0  0  0  0  0
   20.8665   -7.4381   13.7644 C   0  0  0  0  0  0  0  0  0  0  0  0
  2  1  1  0  0  0
 14 13  1  0  0  0
  1 11  1  0  0  0
  1  6  1  0  0  0
 12 11  1  0  0  0
 12 13  1  0  0  0
  8  6  2  0  0  0
 11 15  1  0  0  0
  7  6  1  0  0  0
  6  5  1  0  0  0
 15 16  1  0  0  0
 16 17  1  0  0  0
  5  9  1  0  0  0
  7 10  1  0  0  0
  2  3  1  0  0  0
  2  4  1  0  0  0
M  END
> <minimizedAffinity>
-6.27480

$$$$
4U6W_Q08_A_404


 17 16  0  0  0  0  0  0  0  0999 V2000
   24.8555   -5.5462   10.2150 C   0  0  0  0  0  0  0  0  0  0  0  0
   25.6762   -4.8045   11.2088 N   0  0  0  0  0  0  0  0  0  0  0  0
   25.0635   -4.2704   11.8250 H   0  0  0  0  0  0  0  0  0  0  0  0
   26.3070   -4.1680   10.7216 H   0  0  0  0  0  0  0  0  0  0  0  0
   22.5238   -4.6742    8.9138 O   0  0  0  0  0  0  0  0  0  0  0  0
   23.9337   -4.3788    9.1429 P   0  0  0  0  0  0  0  0  0  0  0  0
   24.7881   -4.1711    7.8023 O   0  0  0  0  0  0  0  0  0  0  0  0
   23.8672   -3.0490    9.9632 O   0  0  0  0  0  0  0  0  0  0  0  0
   22.0743   -4.7863    9.7660 H   0  0  0  0  0  0  0  0  0  0  0  0
   25.7105   -3.9794    8.0333 H   0  0  0  0  0  0  0  0  0  0  0  0
   23.9666   -6.6479   10.8330 C   0  0  0  0  0  0  0  0  0  0  0  0
   23.5019   -6.1414   12.1847 C   0  0  0  0  0  0  0  0  0  0  0  0
   21.9982   -6.1263   12.3326 C   0  0  0  0  0  0  0  0  0  0  0  0
   21.5015   -7.3496   13.0131 C   0  0  0  0  0  0  0  0  0  0  0  0
   24.6665   -8.0016   10.9829 C   0  0  0  0  0  0  0  0  0  0  0  0
   23.9130   -9.2919   10.5639 C   0  0  0  0  0  0  0  0  0  0  0  0
   22.6349   -9.0481    9.8314 C   0  0  0  0  0  0  0  0  0  0  0  0
  2  1  1  0  0  0
 14 13  1  0  0  0
  1 11  1  0  0  0
  1  6  1  0  0  0
 12 11  1  0  0  0
 12 13  1  0  0  0
  8  6  2  0  0  0
 11 15  1  0  0  0
  7  6  1  0  0  0
  6  5  1  0  0  0
 15 16  1  0  0  0
 16 17  1  0  0  0
  5  9  1  0  0  0
  7 10  1  0  0  0
  2  3  1  0  0  0
  2  4  1  0  0  0
M  END
> <minimizedAffinity>
-6.23594

$$$$
4U6W_Q08_A_404


 17 16  0  0  0  0  0  0  0  0999 V2000
   22.7877   -4.6722   11.5955 C   0  0  0  0  0  0  0  0  0  0  0  0
   21.4654   -4.9901   12.1970 N   0  0  0  0  0  0  0  0  0  0  0  0
   20.8937   -5.4905   11.5164 H   0  0  0  0  0  0  0  0  0  0  0  0
   20.9965   -4.1246   12.4641 H   0  0  0  0  0  0  0  0  0  0  0  0
   21.9618   -2.2567   10.4235 O   0  0  0  0  0  0  0  0  0  0  0  0
   22.5880   -3.5477   10.1611 P   0  0  0  0  0  0  0  0  0  0  0  0
   21.8996   -4.3841    8.9793 O   0  0  0  0  0  0  0  0  0  0  0  0
   24.0450   -3.1382    9.7675 O   0  0  0  0  0  0  0  0  0  0  0  0
   22.4300   -1.8113   11.1469 H   0  0  0  0  0  0  0  0  0  0  0  0
   22.3678   -5.2257    8.8636 H   0  0  0  0  0  0  0  0  0  0  0  0
   23.6519   -5.9150   11.2881 C   0  0  0  0  0  0  0  0  0  0  0  0
   24.8805   -5.4317   10.5423 C   0  0  0  0  0  0  0  0  0  0  0  0
   26.0981   -5.2884   11.4257 C   0  0  0  0  0  0  0  0  0  0  0  0
   26.5259   -6.5955   11.9866 C   0  0  0  0  0  0  0  0  0  0  0  0
   22.9264   -6.9930   10.4778 C   0  0  0  0  0  0  0  0  0  0  0  0
   23.7550   -8.1248    9.8141 C   0  0  0  0  0  0  0  0  0  0  0  0
   24.1024   -9.2517   10.7301 C   0  0  0  0  0  0  0  0  0  0  0  0
  2  1  1  0  0  0
 14 13  1  0  0  0
  1 11  1  0  0  0
  1  6  1  0  0  0
 12 11  1  0  0  0
 12 13  1  0  0  0
  8  6  2  0  0  0
 11 15  1  0  0  0
  7  6  1  0  0  0
  6  5  1  0  0  0
 15 16  1  0  0  0
 16 17  1  0  0  0
  5  9  1  0  0  0
  7 10  1  0  0  0
  2  3  1  0  0  0
  2  4  1  0  0  0
M  END
> <minimizedAffinity>
-6.14423

$$$$
4U6W_Q08_A_404


 17 16  0  0  0  0  0  0  0  0999 V2000
   22.7817   -4.3220    9.6351 C   0  0  0  0  0  0  0  0  0  0  0  0
   23.8810   -3.8150    8.7714 N   0  0  0  0  0  0  0  0  0  0  0  0
   24.7323   -3.7203    9.3252 H   0  0  0  0  0  0  0  0  0  0  0  0
   23.6212   -2.9058    8.3890 H   0  0  0  0  0  0  0  0  0  0  0  0
   21.9403   -1.8009   10.5442 O   0  0  0  0  0  0  0  0  0  0  0  0
   22.4023   -3.1187   10.9655 P   0  0  0  0  0  0  0  0  0  0  0  0
   23.6553   -3.0874   11.9651 O   0  0  0  0  0  0  0  0  0  0  0  0
   21.1411   -3.7007   11.6841 O   0  0  0  0  0  0  0  0  0  0  0  0
   21.1844   -1.8998    9.9444 H   0  0  0  0  0  0  0  0  0  0  0  0
   23.9042   -3.9950   12.2000 H   0  0  0  0  0  0  0  0  0  0  0  0
   23.0022   -5.7611   10.1508 C   0  0  0  0  0  0  0  0  0  0  0  0
   22.5892   -5.7813   11.6097 C   0  0  0  0  0  0  0  0  0  0  0  0
   22.1644   -7.1489   12.0919 C   0  0  0  0  0  0  0  0  0  0  0  0
   21.2063   -7.0587   13.2233 C   0  0  0  0  0  0  0  0  0  0  0  0
   24.4404   -6.2642    9.9972 C   0  0  0  0  0  0  0  0  0  0  0  0
   25.2990   -6.4973   11.2686 C   0  0  0  0  0  0  0  0  0  0  0  0
   26.4700   -5.5798   11.3974 C   0  0  0  0  0  0  0  0  0  0  0  0
  2  1  1  0  0  0
 14 13  1  0  0  0
  1 11  1  0  0  0
  1  6  1  0  0  0
 12 11  1  0  0  0
 12 13  1  0  0  0
  8  6  2  0  0  0
 11 15  1  0  0  0
  7  6  1  0  0  0
  6  5  1  0  0  0
 15 16  1  0  0  0
 16 17  1  0  0  0
  5  9  1  0  0  0
  7 10  1  0  0  0
  2  3  1  0  0  0
  2  4  1  0  0  0
M  END
> <minimizedAffinity>
-5.72593

$$$$
4U6W_Q08_A_404


 17 16  0  0  0  0  0  0  0  0999 V2000
   22.5395   -4.6299   11.4297 C   0  0  0  0  0  0  0  0  0  0  0  0
   21.3098   -4.3935   12.2317 N   0  0  0  0  0  0  0  0  0  0  0  0
   20.4976   -4.7336   11.7170 H   0  0  0  0  0  0  0  0  0  0  0  0
   21.2062   -3.3943   12.4086 H   0  0  0  0  0  0  0  0  0  0  0  0
   21.8395   -4.3220    8.7269 O   0  0  0  0  0  0  0  0  0  0  0  0
   22.4808   -3.6746    9.8657 P   0  0  0  0  0  0  0  0  0  0  0  0
   23.9615   -3.1369    9.5682 O   0  0  0  0  0  0  0  0  0  0  0  0
   21.5127   -2.4825   10.1609 O   0  0  0  0  0  0  0  0  0  0  0  0
   20.9520   -4.6194    8.9815 H   0  0  0  0  0  0  0  0  0  0  0  0
   24.3213   -2.7213   10.3674 H   0  0  0  0  0  0  0  0  0  0  0  0
   22.8784   -6.1232   11.2269 C   0  0  0  0  0  0  0  0  0  0  0  0
   22.6941   -6.8094   12.5665 C   0  0  0  0  0  0  0  0  0  0  0  0
   21.4388   -7.6472   12.6412 C   0  0  0  0  0  0  0  0  0  0  0  0
   20.7653   -7.5102   13.9579 C   0  0  0  0  0  0  0  0  0  0  0  0
   24.2903   -6.3740   10.6895 C   0  0  0  0  0  0  0  0  0  0  0  0
   25.4866   -5.6197   11.3282 C   0  0  0  0  0  0  0  0  0  0  0  0
   26.4860   -6.5047   11.9972 C   0  0  0  0  0  0  0  0  0  0  0  0
  2  1  1  0  0  0
 14 13  1  0  0  0
  1 11  1  0  0  0
  1  6  1  0  0  0
 12 11  1  0  0  0
 12 13  1  0  0  0
  8  6  2  0  0  0
 11 15  1  0  0  0
  7  6  1  0  0  0
  6  5  1  0  0  0
 15 16  1  0  0  0
 16 17  1  0  0  0
  5  9  1  0  0  0
  7 10  1  0  0  0
  2  3  1  0  0  0
  2  4  1  0  0  0
M  END
> <minimizedAffinity>
-5.39017

$$$$
4U6W_Q08_A_404


 17 16  0  0  0  0  0  0  0  0999 V2000
   22.6335   -4.5504   11.4205 C   0  0  0  0  0  0  0  0  0  0  0  0
   21.9921   -5.8920   11.4241 N   0  0  0  0  0  0  0  0  0  0  0  0
   21.7040   -6.1336   10.4759 H   0  0  0  0  0  0  0  0  0  0  0  0
   21.1748   -5.8764   12.0342 H   0  0  0  0  0  0  0  0  0  0  0  0
   20.3180   -3.0074   11.8050 O   0  0  0  0  0  0  0  0  0  0  0  0
   21.4333   -3.2652   10.9010 P   0  0  0  0  0  0  0  0  0  0  0  0
   20.9959   -3.5890    9.3931 O   0  0  0  0  0  0  0  0  0  0  0  0
   22.2321   -1.9223   10.9647 O   0  0  0  0  0  0  0  0  0  0  0  0
   20.6587   -2.8204   12.6937 H   0  0  0  0  0  0  0  0  0  0  0  0
   21.7866   -3.7485    8.8543 H   0  0  0  0  0  0  0  0  0  0  0  0
   23.9684   -4.4956   10.6454 C   0  0  0  0  0  0  0  0  0  0  0  0
   23.8495   -5.4606    9.4817 C   0  0  0  0  0  0  0  0  0  0  0  0
   23.8952   -4.7797    8.1335 C   0  0  0  0  0  0  0  0  0  0  0  0
   25.2728   -4.7535    7.5786 C   0  0  0  0  0  0  0  0  0  0  0  0
   25.1964   -4.8343   11.4953 C   0  0  0  0  0  0  0  0  0  0  0  0
   25.6644   -6.3108   11.5916 C   0  0  0  0  0  0  0  0  0  0  0  0
   26.9379   -6.5049   12.3466 C   0  0  0  0  0  0  0  0  0  0  0  0
  2  1  1  0  0  0
 14 13  1  0  0  0
  1 11  1  0  0  0
  1  6  1  0  0  0
 12 11  1  0  0  0
 12 13  1  0  0  0
  8  6  2  0  0  0
 11 15  1  0  0  0
  7  6  1  0  0  0
  6  5  1  0  0  0
 15 16  1  0  0  0
 16 17  1  0  0  0
  5  9  1  0  0  0
  7 10  1  0  0  0
  2  3  1  0  0  0
  2  4  1  0  0  0
M  END
> <minimizedAffinity>
-5.28854

$$$$
