4U6W_Q08_A_404
  RCSB PDB12061715033D
Coordinates from PDB:4U6W:A:404 Model:1 without hydrogens
 13 12  0  0  0  0            999 V2000
   22.0220   -2.2030   12.4430   O 0  0  0  0  0  0  0  0  0  0  0  0
   21.6350   -2.6570   11.1120   P 0  0  0  0  0  0  0  0  0  0  0  0
   20.1820   -3.3310   11.0440   O 0  0  0  0  0  0  0  0  0  0  0  0
   21.6640   -1.3300   10.2850   O 0  0  0  0  0  0  0  0  0  0  0  0
   22.8070   -3.7730   10.2500   C 0  0  0  0  0  0  0  0  0  0  0  0
   23.7650   -2.9880    9.4270   N 0  0  0  0  0  0  0  0  0  0  0  0
   23.4800   -4.8010   11.1860   C 0  0  0  0  0  0  0  0  0  0  0  0
   24.8790   -5.0420   10.6530   C 0  0  0  0  0  0  0  0  0  0  0  0
   25.5980   -6.1730   11.3510   C 0  0  0  0  0  0  0  0  0  0  0  0
   26.9400   -5.7560   11.8320   C 0  0  0  0  0  0  0  0  0  0  0  0
   22.7200   -6.1250   11.3060   C 0  0  0  0  0  0  0  0  0  0  0  0
   23.3580   -7.4170   10.7300   C 0  0  0  0  0  0  0  0  0  0  0  0
   22.3710   -8.4360   10.2640   C 0  0  0  0  0  0  0  0  0  0  0  0
  6  5  1  0  0  0  0
 10  9  1  0  0  0  0
  5  7  1  0  0  0  0
  5  2  1  0  0  0  0
  8  7  1  0  0  0  0
  8  9  1  0  0  0  0
  4  2  2  0  0  0  0
  7 11  1  0  0  0  0
  3  2  1  0  0  0  0
  2  1  1  0  0  0  0
 11 12  1  0  0  0  0
 12 13  1  0  0  0  0
A    1
O2
A    2
P
A    3
O
A    4
O1
A    5
C7
A    6
N
A    7
C3
A    8
C4
A    9
C5
A   10
C6
A   11
C2
A   12
C1
A   13
C
M  END
>  <InstanceId>
4U6W_Q08_A_404

>  <ChemCompId>
Q08

>  <PdbId>
4U6W

>  <ChainId>
A

>  <ResidueNumber>
404

>  <InsertionCode>


>  <Model>
1

>  <AltIds>


>  <MissingHeavyAtoms>
0

>  <ObservedFormula>
C8 N O3 P

>  <Name>
[(1R)-1-amino-2-propylpentyl]phosphonic acid

>  <SystematicName>
[(1R)-1-azanyl-2-propyl-pentyl]phosphonic acid

>  <Synonyms>


>  <Type>
NON-POLYMER

>  <Formula>
C8 H20 N O3 P

>  <MolecularWeight>
209.223

>  <ModifiedDate>
2015-03-20

>  <Parent>


>  <OneLetterCode>


>  <SubcomponentList>


>  <AmbiguousFlag>
N

>  <InChI>
InChI=1S/C8H20NO3P/c1-3-5-7(6-4-2)8(9)13(10,11)12/h7-8H,3-6,9H2,1-2H3,(H2,10,11,12)/t8-/m1/s1

>  <InChIKey>
PERCJHHIZBJKQX-MRVPVSSYSA-N

>  <SMILES>
CCCC(CCC)[C@H](N)P(=O)(O)O

$$$$
