1D09_PAL_A_1311
  RCSB PDB12061702133D
Coordinates from PDB:1D09:A:1311 Model:1 without hydrogens
 16 15  0  0  0  0            999 V2000
   46.0070   29.5840   15.9460   P 0  0  0  0  0  0  0  0  0  0  0  0
   45.9660   30.5120   17.1780   O 0  0  0  0  0  0  0  0  0  0  0  0
   47.0690   28.5590   15.9510   O 0  0  0  0  0  0  0  0  0  0  0  0
   46.3960   30.6030   14.7470   O 0  0  0  0  0  0  0  0  0  0  0  0
   44.3640   29.0280   15.4540   C 0  0  0  0  0  0  0  0  0  0  0  0
   43.2480   29.9560   15.9130   C 0  0  0  0  0  0  0  0  0  0  0  0
   43.0070   31.0150   15.2890   O 0  0  0  0  0  0  0  0  0  0  0  0
   42.6070   29.5920   17.0360   N 0  0  0  0  0  0  0  0  0  0  0  0
   41.5030   30.3420   17.6060   C 0  0  0  0  0  0  0  0  0  0  0  0
   41.8220   31.6970   18.1950   C 0  0  0  0  0  0  0  0  0  0  0  0
   40.8690   32.4270   18.6500   O 0  0  0  0  0  0  0  0  0  0  0  0
   43.0400   31.9800   18.2310   O 0  0  0  0  0  0  0  0  0  0  0  0
   40.7170   29.4480   18.6010   C 0  0  0  0  0  0  0  0  0  0  0  0
   41.4990   29.1320   19.8640   C 0  0  0  0  0  0  0  0  0  0  0  0
   42.5700   29.7540   20.0760   O 0  0  0  0  0  0  0  0  0  0  0  0
   40.9980   28.2940   20.6580   O 0  0  0  0  0  0  0  0  0  0  0  0
  1  2  2  0  0  0  0
  1  3  1  0  0  0  0
  1  4  1  0  0  0  0
  1  5  1  0  0  0  0
  5  6  1  0  0  0  0
  6  7  2  0  0  0  0
  6  8  1  0  0  0  0
  8  9  1  0  0  0  0
  9 10  1  0  0  0  0
  9 13  1  0  0  0  0
 10 11  2  0  0  0  0
 10 12  1  0  0  0  0
 13 14  1  0  0  0  0
 14 15  2  0  0  0  0
 14 16  1  0  0  0  0
A    1
P
A    2
O1P
A    3
O2P
A    4
O3P
A    5
C1P
A    6
C1
A    7
O1
A    8
N2
A    9
C2
A   10
C4
A   11
O2
A   12
O3
A   13
C3
A   14
C5
A   15
O4
A   16
O5
M  END
>  <InstanceId>
1D09_PAL_A_1311

>  <ChemCompId>
PAL

>  <PdbId>
1D09

>  <ChainId>
A

>  <ResidueNumber>
1311

>  <InsertionCode>


>  <Model>
1

>  <AltIds>


>  <MissingHeavyAtoms>
0

>  <ObservedFormula>
C6 N O8 P

>  <Name>
N-(PHOSPHONACETYL)-L-ASPARTIC ACID

>  <SystematicName>
(2S)-2-(2-phosphonoethanoylamino)butanedioic acid

>  <Synonyms>


>  <Type>
NON-POLYMER

>  <Formula>
C6 H10 N O8 P

>  <MolecularWeight>
255.119

>  <ModifiedDate>
2011-06-04

>  <Parent>


>  <OneLetterCode>


>  <SubcomponentList>


>  <AmbiguousFlag>
N

>  <InChI>
InChI=1S/C6H10NO8P/c8-4(2-16(13,14)15)7-3(6(11)12)1-5(9)10/h3H,1-2H2,(H,7,8)(H,9,10)(H,11,12)(H2,13,14,15)/t3-/m0/s1

>  <InChIKey>
ZZKNRXZVGOYGJT-VKHMYHEASA-N

>  <SMILES>
C([C@@H](C(=O)O)NC(=O)CP(=O)(O)O)C(=O)O

$$$$
