1D09_PAL_A_1311


 21 20  0  0  0  0  0  0  0  0999 V2000
   43.2594   29.6346   15.8361 C   0  0  0  0  0  0  0  0  0  0  0  0
   42.9683   30.5629   15.0471 O   0  0  0  0  0  0  0  0  0  0  0  0
   42.6640   29.4564   17.0270 N   0  0  0  0  0  0  0  0  0  0  0  0
   42.9966   28.7375   17.6117 H   0  0  0  0  0  0  0  0  0  0  0  0
   44.3877   28.6676   15.5056 C   0  0  0  0  0  0  0  0  0  0  0  0
   46.0085   29.2462   16.0429 P   0  0  0  0  0  0  0  0  0  0  0  0
   45.9584   29.9225   17.4288 O   0  0  0  0  0  0  0  0  0  0  0  0
   47.1381   28.3224   15.8213 O   0  0  0  0  0  0  0  0  0  0  0  0
   46.2721   30.4974   15.0468 O   0  0  0  0  0  0  0  0  0  0  0  0
   47.9571   28.7297   16.1444 H   0  0  0  0  0  0  0  0  0  0  0  0
   47.1336   30.8950   15.2480 H   0  0  0  0  0  0  0  0  0  0  0  0
   41.5563   30.2677   17.4972 C   0  0  0  0  0  0  0  0  0  0  0  0
   41.8966   31.5958   18.1336 C   0  0  0  0  0  0  0  0  0  0  0  0
   43.1281   31.9212   18.2937 O   0  0  0  0  0  0  0  0  0  0  0  0
   40.9095   32.3099   18.4176 O   0  0  0  0  0  0  0  0  0  0  0  0
   40.0415   31.9908   18.2667 H   0  0  0  0  0  0  0  0  0  0  0  0
   40.6242   29.4152   18.3980 C   0  0  0  0  0  0  0  0  0  0  0  0
   41.2565   29.0451   19.7283 C   0  0  0  0  0  0  0  0  0  0  0  0
   40.5209   28.5678   20.6283 O   0  0  0  0  0  0  0  0  0  0  0  0
   42.5018   29.1916   19.8356 O   0  0  0  0  0  0  0  0  0  0  0  0
   42.9937   29.5547   19.1255 H   0  0  0  0  0  0  0  0  0  0  0  0
  6  7  2  0  0  0
  6  8  1  0  0  0
  6  9  1  0  0  0
  6  5  1  0  0  0
  5  1  1  0  0  0
  1  2  2  0  0  0
  1  3  1  0  0  0
  3 12  1  0  0  0
 12 13  1  0  0  0
 12 17  1  0  0  0
 13 14  2  0  0  0
 13 15  1  0  0  0
 17 18  1  0  0  0
 18 19  2  0  0  0
 18 20  1  0  0  0
  8 10  1  0  0  0
  9 11  1  0  0  0
  3  4  1  0  0  0
 15 16  1  0  0  0
 20 21  1  0  0  0
M  END
> <minimizedAffinity>
-10.15249

$$$$
1D09_PAL_A_1311


 21 20  0  0  0  0  0  0  0  0999 V2000
   43.2340   29.6035   15.9747 C   0  0  0  0  0  0  0  0  0  0  0  0
   42.9832   30.5361   15.1770 O   0  0  0  0  0  0  0  0  0  0  0  0
   42.5962   29.4337   17.1447 N   0  0  0  0  0  0  0  0  0  0  0  0
   42.8984   28.7100   17.7397 H   0  0  0  0  0  0  0  0  0  0  0  0
   44.3586   28.6204   15.6818 C   0  0  0  0  0  0  0  0  0  0  0  0
   46.0028   29.3412   15.8480 P   0  0  0  0  0  0  0  0  0  0  0  0
   47.1122   28.2690   15.8699 O   0  0  0  0  0  0  0  0  0  0  0  0
   46.2799   30.5330   15.0225 O   0  0  0  0  0  0  0  0  0  0  0  0
   45.9905   29.8704   17.3800 O   0  0  0  0  0  0  0  0  0  0  0  0
   47.1859   30.8374   15.1880 H   0  0  0  0  0  0  0  0  0  0  0  0
   46.8427   30.2856   17.5855 H   0  0  0  0  0  0  0  0  0  0  0  0
   41.4851   30.2610   17.5777 C   0  0  0  0  0  0  0  0  0  0  0  0
   41.8213   31.6070   18.1777 C   0  0  0  0  0  0  0  0  0  0  0  0
   40.8881   32.3125   18.7063 O   0  0  0  0  0  0  0  0  0  0  0  0
   43.0353   31.9070   18.1466 O   0  0  0  0  0  0  0  0  0  0  0  0
   43.6502   31.3300   17.7378 H   0  0  0  0  0  0  0  0  0  0  0  0
   40.5410   29.4378   18.4932 C   0  0  0  0  0  0  0  0  0  0  0  0
   41.2172   28.9517   19.7633 C   0  0  0  0  0  0  0  0  0  0  0  0
   42.4167   29.2689   19.9616 O   0  0  0  0  0  0  0  0  0  0  0  0
   40.5148   28.2959   20.5758 O   0  0  0  0  0  0  0  0  0  0  0  0
   39.6245   28.0917   20.3669 H   0  0  0  0  0  0  0  0  0  0  0  0
  6  7  2  0  0  0
  6  8  1  0  0  0
  6  9  1  0  0  0
  6  5  1  0  0  0
  5  1  1  0  0  0
  1  2  2  0  0  0
  1  3  1  0  0  0
  3 12  1  0  0  0
 12 13  1  0  0  0
 12 17  1  0  0  0
 13 14  2  0  0  0
 13 15  1  0  0  0
 17 18  1  0  0  0
 18 19  2  0  0  0
 18 20  1  0  0  0
  8 10  1  0  0  0
  9 11  1  0  0  0
  3  4  1  0  0  0
 15 16  1  0  0  0
 20 21  1  0  0  0
M  END
> <minimizedAffinity>
-10.15175

$$$$
1D09_PAL_A_1311


 21 20  0  0  0  0  0  0  0  0999 V2000
   42.2801   31.2139   17.9611 C   0  0  0  0  0  0  0  0  0  0  0  0
   42.3756   32.2738   17.3004 O   0  0  0  0  0  0  0  0  0  0  0  0
   42.8365   30.0504   17.5852 N   0  0  0  0  0  0  0  0  0  0  0  0
   42.6602   29.2511   18.1322 H   0  0  0  0  0  0  0  0  0  0  0  0
   41.4439   31.1709   19.2324 C   0  0  0  0  0  0  0  0  0  0  0  0
   40.3936   29.7103   19.3509 P   0  0  0  0  0  0  0  0  0  0  0  0
   38.9566   30.0573   19.7928 O   0  0  0  0  0  0  0  0  0  0  0  0
   40.5071   28.7332   18.2504 O   0  0  0  0  0  0  0  0  0  0  0  0
   40.9954   28.9618   20.6566 O   0  0  0  0  0  0  0  0  0  0  0  0
   39.9032   27.9917   18.4128 H   0  0  0  0  0  0  0  0  0  0  0  0
   40.4972   28.1457   20.8198 H   0  0  0  0  0  0  0  0  0  0  0  0
   43.6836   29.9097   16.4153 C   0  0  0  0  0  0  0  0  0  0  0  0
   43.0319   29.4006   15.1501 C   0  0  0  0  0  0  0  0  0  0  0  0
   43.6364   29.5459   14.0269 O   0  0  0  0  0  0  0  0  0  0  0  0
   41.9382   28.8178   15.3210 O   0  0  0  0  0  0  0  0  0  0  0  0
   41.5683   28.7582   16.1798 H   0  0  0  0  0  0  0  0  0  0  0  0
   44.9544   29.0978   16.7798 C   0  0  0  0  0  0  0  0  0  0  0  0
   46.1407   29.4146   15.8859 C   0  0  0  0  0  0  0  0  0  0  0  0
   47.0395   28.5464   15.7544 O   0  0  0  0  0  0  0  0  0  0  0  0
   46.1295   30.5189   15.2826 O   0  0  0  0  0  0  0  0  0  0  0  0
   45.4282   31.1237   15.4253 H   0  0  0  0  0  0  0  0  0  0  0  0
  6  7  2  0  0  0
  6  8  1  0  0  0
  6  9  1  0  0  0
  6  5  1  0  0  0
  5  1  1  0  0  0
  1  2  2  0  0  0
  1  3  1  0  0  0
  3 12  1  0  0  0
 12 13  1  0  0  0
 12 17  1  0  0  0
 13 14  2  0  0  0
 13 15  1  0  0  0
 17 18  1  0  0  0
 18 19  2  0  0  0
 18 20  1  0  0  0
  8 10  1  0  0  0
  9 11  1  0  0  0
  3  4  1  0  0  0
 15 16  1  0  0  0
 20 21  1  0  0  0
M  END
> <minimizedAffinity>
-9.67997

$$$$
1D09_PAL_A_1311


 21 20  0  0  0  0  0  0  0  0999 V2000
   43.0750   30.2688   17.0555 C   0  0  0  0  0  0  0  0  0  0  0  0
   43.5613   31.2829   17.6070 O   0  0  0  0  0  0  0  0  0  0  0  0
   41.9335   29.6819   17.4518 N   0  0  0  0  0  0  0  0  0  0  0  0
   41.6552   28.8519   17.0014 H   0  0  0  0  0  0  0  0  0  0  0  0
   43.8120   29.5852   15.9123 C   0  0  0  0  0  0  0  0  0  0  0  0
   45.6036   29.5828   16.1138 P   0  0  0  0  0  0  0  0  0  0  0  0
   46.3405   29.9152   14.7995 O   0  0  0  0  0  0  0  0  0  0  0  0
   46.1255   30.2440   17.3258 O   0  0  0  0  0  0  0  0  0  0  0  0
   45.9231   28.0059   16.3106 O   0  0  0  0  0  0  0  0  0  0  0  0
   47.0936   30.1853   17.3347 H   0  0  0  0  0  0  0  0  0  0  0  0
   46.8776   27.8819   16.4304 H   0  0  0  0  0  0  0  0  0  0  0  0
   41.0890   30.2068   18.5089 C   0  0  0  0  0  0  0  0  0  0  0  0
   41.5632   30.0112   19.9307 C   0  0  0  0  0  0  0  0  0  0  0  0
   41.3237   28.9004   20.5281 O   0  0  0  0  0  0  0  0  0  0  0  0
   42.2136   30.9695   20.4036 O   0  0  0  0  0  0  0  0  0  0  0  0
   42.3402   31.7461   19.8949 H   0  0  0  0  0  0  0  0  0  0  0  0
   39.6309   29.7150   18.3114 C   0  0  0  0  0  0  0  0  0  0  0  0
   38.6680   30.2751   19.3437 C   0  0  0  0  0  0  0  0  0  0  0  0
   38.3253   31.4804   19.2503 O   0  0  0  0  0  0  0  0  0  0  0  0
   38.2251   29.4784   20.2113 O   0  0  0  0  0  0  0  0  0  0  0  0
   38.5222   28.5899   20.2266 H   0  0  0  0  0  0  0  0  0  0  0  0
  6  7  2  0  0  0
  6  8  1  0  0  0
  6  9  1  0  0  0
  6  5  1  0  0  0
  5  1  1  0  0  0
  1  2  2  0  0  0
  1  3  1  0  0  0
  3 12  1  0  0  0
 12 13  1  0  0  0
 12 17  1  0  0  0
 13 14  2  0  0  0
 13 15  1  0  0  0
 17 18  1  0  0  0
 18 19  2  0  0  0
 18 20  1  0  0  0
  8 10  1  0  0  0
  9 11  1  0  0  0
  3  4  1  0  0  0
 15 16  1  0  0  0
 20 21  1  0  0  0
M  END
> <minimizedAffinity>
-9.47114

$$$$
1D09_PAL_A_1311


 21 20  0  0  0  0  0  0  0  0999 V2000
   42.1328   30.0925   16.6730 C   0  0  0  0  0  0  0  0  0  0  0  0
   42.7681   31.1610   16.8264 O   0  0  0  0  0  0  0  0  0  0  0  0
   42.4066   29.1959   15.7110 N   0  0  0  0  0  0  0  0  0  0  0  0
   41.8179   28.4116   15.6232 H   0  0  0  0  0  0  0  0  0  0  0  0
   40.9338   29.7753   17.5557 C   0  0  0  0  0  0  0  0  0  0  0  0
   41.1123   30.3694   19.2486 P   0  0  0  0  0  0  0  0  0  0  0  0
   42.1414   29.5469   20.0518 O   0  0  0  0  0  0  0  0  0  0  0  0
   41.1857   31.8332   19.4227 O   0  0  0  0  0  0  0  0  0  0  0  0
   39.7039   29.9252   19.9167 O   0  0  0  0  0  0  0  0  0  0  0  0
   41.2803   32.0424   20.3651 H   0  0  0  0  0  0  0  0  0  0  0  0
   39.6868   30.1988   20.8471 H   0  0  0  0  0  0  0  0  0  0  0  0
   43.5244   29.3223   14.7941 C   0  0  0  0  0  0  0  0  0  0  0  0
   43.2922   28.8979   13.3620 C   0  0  0  0  0  0  0  0  0  0  0  0
   43.9741   29.4470   12.4231 O   0  0  0  0  0  0  0  0  0  0  0  0
   42.4556   27.9794   13.2160 O   0  0  0  0  0  0  0  0  0  0  0  0
   42.0016   27.6364   13.9605 H   0  0  0  0  0  0  0  0  0  0  0  0
   44.7828   28.6482   15.4016 C   0  0  0  0  0  0  0  0  0  0  0  0
   45.8664   29.6421   15.7818 C   0  0  0  0  0  0  0  0  0  0  0  0
   45.9860   29.9635   16.9906 O   0  0  0  0  0  0  0  0  0  0  0  0
   46.6220   30.0512   14.8624 O   0  0  0  0  0  0  0  0  0  0  0  0
   46.4784   29.7730   13.9792 H   0  0  0  0  0  0  0  0  0  0  0  0
  6  7  2  0  0  0
  6  8  1  0  0  0
  6  9  1  0  0  0
  6  5  1  0  0  0
  5  1  1  0  0  0
  1  2  2  0  0  0
  1  3  1  0  0  0
  3 12  1  0  0  0
 12 13  1  0  0  0
 12 17  1  0  0  0
 13 14  2  0  0  0
 13 15  1  0  0  0
 17 18  1  0  0  0
 18 19  2  0  0  0
 18 20  1  0  0  0
  8 10  1  0  0  0
  9 11  1  0  0  0
  3  4  1  0  0  0
 15 16  1  0  0  0
 20 21  1  0  0  0
M  END
> <minimizedAffinity>
-9.27361

$$$$
1D09_PAL_A_1311


 21 20  0  0  0  0  0  0  0  0999 V2000
   42.4650   30.0259   16.6424 C   0  0  0  0  0  0  0  0  0  0  0  0
   42.6589   31.2602   16.5542 O   0  0  0  0  0  0  0  0  0  0  0  0
   41.6279   29.4661   17.5315 N   0  0  0  0  0  0  0  0  0  0  0  0
   41.5816   28.4836   17.5739 H   0  0  0  0  0  0  0  0  0  0  0  0
   43.2448   29.0585   15.7630 C   0  0  0  0  0  0  0  0  0  0  0  0
   45.0328   29.2267   15.9219 P   0  0  0  0  0  0  0  0  0  0  0  0
   45.6739   28.0148   16.6298 O   0  0  0  0  0  0  0  0  0  0  0  0
   45.7499   29.7273   14.7329 O   0  0  0  0  0  0  0  0  0  0  0  0
   45.1681   30.3990   17.0331 O   0  0  0  0  0  0  0  0  0  0  0  0
   46.6991   29.7791   14.9258 H   0  0  0  0  0  0  0  0  0  0  0  0
   46.1065   30.5776   17.2021 H   0  0  0  0  0  0  0  0  0  0  0  0
   40.7882   30.2333   18.4328 C   0  0  0  0  0  0  0  0  0  0  0  0
   41.4836   31.1800   19.3841 C   0  0  0  0  0  0  0  0  0  0  0  0
   42.2878   30.7088   20.2670 O   0  0  0  0  0  0  0  0  0  0  0  0
   41.2404   32.3916   19.1901 O   0  0  0  0  0  0  0  0  0  0  0  0
   40.6366   32.6469   18.5205 H   0  0  0  0  0  0  0  0  0  0  0  0
   39.8061   29.2866   19.1719 C   0  0  0  0  0  0  0  0  0  0  0  0
   40.4302   27.9528   19.5435 C   0  0  0  0  0  0  0  0  0  0  0  0
   39.7703   26.9043   19.3340 O   0  0  0  0  0  0  0  0  0  0  0  0
   41.6040   27.9717   19.9968 O   0  0  0  0  0  0  0  0  0  0  0  0
   42.0416   28.7894   20.1303 H   0  0  0  0  0  0  0  0  0  0  0  0
  6  7  2  0  0  0
  6  8  1  0  0  0
  6  9  1  0  0  0
  6  5  1  0  0  0
  5  1  1  0  0  0
  1  2  2  0  0  0
  1  3  1  0  0  0
  3 12  1  0  0  0
 12 13  1  0  0  0
 12 17  1  0  0  0
 13 14  2  0  0  0
 13 15  1  0  0  0
 17 18  1  0  0  0
 18 19  2  0  0  0
 18 20  1  0  0  0
  8 10  1  0  0  0
  9 11  1  0  0  0
  3  4  1  0  0  0
 15 16  1  0  0  0
 20 21  1  0  0  0
M  END
> <minimizedAffinity>
-8.68422

$$$$
1D09_PAL_A_1311


 21 20  0  0  0  0  0  0  0  0999 V2000
   41.9564   30.0175   17.0978 C   0  0  0  0  0  0  0  0  0  0  0  0
   41.1159   29.7787   16.2003 O   0  0  0  0  0  0  0  0  0  0  0  0
   41.6354   30.1885   18.3910 N   0  0  0  0  0  0  0  0  0  0  0  0
   42.3514   30.4339   19.0206 H   0  0  0  0  0  0  0  0  0  0  0  0
   43.4266   30.1999   16.7480 C   0  0  0  0  0  0  0  0  0  0  0  0
   43.8994   29.4058   15.2000 P   0  0  0  0  0  0  0  0  0  0  0  0
   45.3680   29.6901   14.8213 O   0  0  0  0  0  0  0  0  0  0  0  0
   43.4487   28.0124   15.0165 O   0  0  0  0  0  0  0  0  0  0  0  0
   43.0766   30.2735   14.1058 O   0  0  0  0  0  0  0  0  0  0  0  0
   43.7552   27.6840   14.1568 H   0  0  0  0  0  0  0  0  0  0  0  0
   43.2578   29.9290   13.2173 H   0  0  0  0  0  0  0  0  0  0  0  0
   40.2889   30.0304   18.9089 C   0  0  0  0  0  0  0  0  0  0  0  0
   39.5509   31.2887   19.3047 C   0  0  0  0  0  0  0  0  0  0  0  0
   38.2676   31.3030   19.2741 O   0  0  0  0  0  0  0  0  0  0  0  0
   40.2831   32.2283   19.6867 O   0  0  0  0  0  0  0  0  0  0  0  0
   41.2149   32.1306   19.6753 H   0  0  0  0  0  0  0  0  0  0  0  0
   40.2820   28.9730   20.0442 C   0  0  0  0  0  0  0  0  0  0  0  0
   39.1239   27.9958   19.9414 C   0  0  0  0  0  0  0  0  0  0  0  0
   39.3473   26.8501   19.4765 O   0  0  0  0  0  0  0  0  0  0  0  0
   38.0074   28.3767   20.3796 O   0  0  0  0  0  0  0  0  0  0  0  0
   37.9071   29.2464   20.7136 H   0  0  0  0  0  0  0  0  0  0  0  0
  6  7  2  0  0  0
  6  8  1  0  0  0
  6  9  1  0  0  0
  6  5  1  0  0  0
  5  1  1  0  0  0
  1  2  2  0  0  0
  1  3  1  0  0  0
  3 12  1  0  0  0
 12 13  1  0  0  0
 12 17  1  0  0  0
 13 14  2  0  0  0
 13 15  1  0  0  0
 17 18  1  0  0  0
 18 19  2  0  0  0
 18 20  1  0  0  0
  8 10  1  0  0  0
  9 11  1  0  0  0
  3  4  1  0  0  0
 15 16  1  0  0  0
 20 21  1  0  0  0
M  END
> <minimizedAffinity>
-8.28228

$$$$
1D09_PAL_A_1311


 21 20  0  0  0  0  0  0  0  0999 V2000
   42.0803   29.7083   17.3502 C   0  0  0  0  0  0  0  0  0  0  0  0
   42.9733   30.1039   18.1345 O   0  0  0  0  0  0  0  0  0  0  0  0
   40.8649   29.3007   17.7517 N   0  0  0  0  0  0  0  0  0  0  0  0
   40.2443   28.9472   17.0742 H   0  0  0  0  0  0  0  0  0  0  0  0
   42.3580   29.6007   15.8574 C   0  0  0  0  0  0  0  0  0  0  0  0
   44.0825   29.2415   15.4727 P   0  0  0  0  0  0  0  0  0  0  0  0
   44.9953   30.4685   15.6773 O   0  0  0  0  0  0  0  0  0  0  0  0
   44.6106   27.9589   15.9770 O   0  0  0  0  0  0  0  0  0  0  0  0
   44.0481   29.0900   13.8593 O   0  0  0  0  0  0  0  0  0  0  0  0
   45.5402   27.8668   15.7157 H   0  0  0  0  0  0  0  0  0  0  0  0
   44.9402   28.8918   13.5341 H   0  0  0  0  0  0  0  0  0  0  0  0
   40.4185   29.3540   19.1316 C   0  0  0  0  0  0  0  0  0  0  0  0
   40.2239   28.0353   19.8441 C   0  0  0  0  0  0  0  0  0  0  0  0
   39.0440   27.6828   20.2072 O   0  0  0  0  0  0  0  0  0  0  0  0
   41.2644   27.3546   19.9820 O   0  0  0  0  0  0  0  0  0  0  0  0
   42.0873   27.6917   19.6866 H   0  0  0  0  0  0  0  0  0  0  0  0
   39.1676   30.2646   19.2457 C   0  0  0  0  0  0  0  0  0  0  0  0
   39.5129   31.7247   19.4816 C   0  0  0  0  0  0  0  0  0  0  0  0
   40.4425   32.2360   18.8083 O   0  0  0  0  0  0  0  0  0  0  0  0
   38.8072   32.3577   20.3092 O   0  0  0  0  0  0  0  0  0  0  0  0
   38.1280   31.9163   20.7801 H   0  0  0  0  0  0  0  0  0  0  0  0
  6  7  2  0  0  0
  6  8  1  0  0  0
  6  9  1  0  0  0
  6  5  1  0  0  0
  5  1  1  0  0  0
  1  2  2  0  0  0
  1  3  1  0  0  0
  3 12  1  0  0  0
 12 13  1  0  0  0
 12 17  1  0  0  0
 13 14  2  0  0  0
 13 15  1  0  0  0
 17 18  1  0  0  0
 18 19  2  0  0  0
 18 20  1  0  0  0
  8 10  1  0  0  0
  9 11  1  0  0  0
  3  4  1  0  0  0
 15 16  1  0  0  0
 20 21  1  0  0  0
M  END
> <minimizedAffinity>
-8.06954

$$$$
1D09_PAL_A_1311


 21 20  0  0  0  0  0  0  0  0999 V2000
   43.1351   29.8249   16.7460 C   0  0  0  0  0  0  0  0  0  0  0  0
   42.5852   30.8373   16.2544 O   0  0  0  0  0  0  0  0  0  0  0  0
   42.9412   29.4129   18.0098 N   0  0  0  0  0  0  0  0  0  0  0  0
   43.4608   28.6421   18.3339 H   0  0  0  0  0  0  0  0  0  0  0  0
   44.1379   29.0203   15.9309 C   0  0  0  0  0  0  0  0  0  0  0  0
   45.8332   29.6123   16.0928 P   0  0  0  0  0  0  0  0  0  0  0  0
   46.2396   30.5470   14.9344 O   0  0  0  0  0  0  0  0  0  0  0  0
   46.2475   30.0459   17.4414 O   0  0  0  0  0  0  0  0  0  0  0  0
   46.6933   28.2730   15.7866 O   0  0  0  0  0  0  0  0  0  0  0  0
   47.1705   30.3431   17.4162 H   0  0  0  0  0  0  0  0  0  0  0  0
   47.6399   28.4759   15.8467 H   0  0  0  0  0  0  0  0  0  0  0  0
   42.0060   30.0443   18.9225 C   0  0  0  0  0  0  0  0  0  0  0  0
   40.5773   29.5517   18.8948 C   0  0  0  0  0  0  0  0  0  0  0  0
   40.1326   28.9658   17.8426 O   0  0  0  0  0  0  0  0  0  0  0  0
   39.9421   29.7239   19.9586 O   0  0  0  0  0  0  0  0  0  0  0  0
   40.3468   30.1643   20.6799 H   0  0  0  0  0  0  0  0  0  0  0  0
   42.0903   31.5868   18.7793 C   0  0  0  0  0  0  0  0  0  0  0  0
   41.8883   32.3193   20.0944 C   0  0  0  0  0  0  0  0  0  0  0  0
   42.8804   32.4793   20.8486 O   0  0  0  0  0  0  0  0  0  0  0  0
   40.7385   32.7726   20.3313 O   0  0  0  0  0  0  0  0  0  0  0  0
   40.0399   32.6175   19.7264 H   0  0  0  0  0  0  0  0  0  0  0  0
  6  7  2  0  0  0
  6  8  1  0  0  0
  6  9  1  0  0  0
  6  5  1  0  0  0
  5  1  1  0  0  0
  1  2  2  0  0  0
  1  3  1  0  0  0
  3 12  1  0  0  0
 12 13  1  0  0  0
 12 17  1  0  0  0
 13 14  2  0  0  0
 13 15  1  0  0  0
 17 18  1  0  0  0
 18 19  2  0  0  0
 18 20  1  0  0  0
  8 10  1  0  0  0
  9 11  1  0  0  0
  3  4  1  0  0  0
 15 16  1  0  0  0
 20 21  1  0  0  0
M  END
> <minimizedAffinity>
-7.95634

$$$$
1D09_PAL_A_1311


 21 20  0  0  0  0  0  0  0  0999 V2000
   40.7892   28.7353   19.4519 C   0  0  0  0  0  0  0  0  0  0  0  0
   41.7435   28.8485   20.2554 O   0  0  0  0  0  0  0  0  0  0  0  0
   40.7252   29.3833   18.2769 N   0  0  0  0  0  0  0  0  0  0  0  0
   39.9100   29.2846   17.7338 H   0  0  0  0  0  0  0  0  0  0  0  0
   39.5799   27.8817   19.8071 C   0  0  0  0  0  0  0  0  0  0  0  0
   38.0590   28.8328   19.9884 P   0  0  0  0  0  0  0  0  0  0  0  0
   37.3166   28.5045   21.3005 O   0  0  0  0  0  0  0  0  0  0  0  0
   38.1383   30.2644   19.6380 O   0  0  0  0  0  0  0  0  0  0  0  0
   37.1025   28.1651   18.8629 O   0  0  0  0  0  0  0  0  0  0  0  0
   37.2712   30.6783   19.7709 H   0  0  0  0  0  0  0  0  0  0  0  0
   36.2388   28.6067   18.8694 H   0  0  0  0  0  0  0  0  0  0  0  0
   41.7944   30.2211   17.7660 C   0  0  0  0  0  0  0  0  0  0  0  0
   41.6939   31.7055   18.0329 C   0  0  0  0  0  0  0  0  0  0  0  0
   40.8309   32.1369   18.8798 O   0  0  0  0  0  0  0  0  0  0  0  0
   42.5249   32.4072   17.4149 O   0  0  0  0  0  0  0  0  0  0  0  0
   43.1203   32.0067   16.8124 H   0  0  0  0  0  0  0  0  0  0  0  0
   42.0293   29.9171   16.2628 C   0  0  0  0  0  0  0  0  0  0  0  0
   43.4636   29.5276   15.9506 C   0  0  0  0  0  0  0  0  0  0  0  0
   44.3823   30.3248   16.2661 O   0  0  0  0  0  0  0  0  0  0  0  0
   43.6547   28.3956   15.4353 O   0  0  0  0  0  0  0  0  0  0  0  0
   42.9245   27.8481   15.2231 H   0  0  0  0  0  0  0  0  0  0  0  0
  6  7  2  0  0  0
  6  8  1  0  0  0
  6  9  1  0  0  0
  6  5  1  0  0  0
  5  1  1  0  0  0
  1  2  2  0  0  0
  1  3  1  0  0  0
  3 12  1  0  0  0
 12 13  1  0  0  0
 12 17  1  0  0  0
 13 14  2  0  0  0
 13 15  1  0  0  0
 17 18  1  0  0  0
 18 19  2  0  0  0
 18 20  1  0  0  0
  8 10  1  0  0  0
  9 11  1  0  0  0
  3  4  1  0  0  0
 15 16  1  0  0  0
 20 21  1  0  0  0
M  END
> <minimizedAffinity>
-7.80301

$$$$
