2F7P_2SK_A_5009


 22 23  0  0  0  0  0  0  0  0999 V2000
   30.4327   65.9593    8.6949 C   0  0  0  0  0  0  0  0  0  0  0  0
   31.8438   66.3790    9.1213 C   0  0  0  0  0  0  0  0  0  0  0  0
   32.5895   65.3032    9.7076 O   0  0  0  0  0  0  0  0  0  0  0  0
   32.5403   66.9664    7.9084 C   0  0  0  0  0  0  0  0  0  0  0  0
   33.3981   66.0352    7.2694 O   0  0  0  0  0  0  0  0  0  0  0  0
   31.3746   67.2625    6.9595 C   0  0  0  0  0  0  0  0  0  0  0  0
   31.6753   67.5653    5.6061 O   0  0  0  0  0  0  0  0  0  0  0  0
   30.4613   66.0707    7.1801 C   0  0  0  0  0  0  0  0  0  0  0  0
   32.6926   64.5898    9.0584 H   0  0  0  0  0  0  0  0  0  0  0  0
   32.8883   65.2525    7.0079 H   0  0  0  0  0  0  0  0  0  0  0  0
   32.1143   66.8046    5.1945 H   0  0  0  0  0  0  0  0  0  0  0  0
   30.1382   64.5953    9.1537 N   0  0  0  0  0  0  0  0  0  0  0  0
   31.0024   64.0635    9.0500 H   0  0  0  0  0  0  0  0  0  0  0  0
   29.6508   64.3335   10.5140 C   0  0  0  0  0  0  0  0  0  0  0  0
   28.1226   64.4013   10.7182 C   0  0  0  0  0  0  0  0  0  0  0  0
   27.5800   65.5624   11.2499 C   0  0  0  0  0  0  0  0  0  0  0  0
   26.1865   65.6072   11.4373 C   0  0  0  0  0  0  0  0  0  0  0  0
   27.2897   63.3239   10.3825 C   0  0  0  0  0  0  0  0  0  0  0  0
   25.8964   63.3631   10.5781 C   0  0  0  0  0  0  0  0  0  0  0  0
   25.3339   64.5428   11.1189 C   0  0  0  0  0  0  0  0  0  0  0  0
   28.8128   66.1747    6.5241 S   0  0  0  0  0  0  0  0  0  0  0  0
   27.5520   66.5417    7.7531 C   0  0  0  0  0  0  0  0  0  0  0  0
  1 12  1  0  0  0
  1  2  1  0  0  0
  1  8  1  0  0  0
 12 14  1  0  0  0
  2  3  1  0  0  0
  2  4  1  0  0  0
  4  5  1  0  0  0
  4  6  1  0  0  0
  6  7  1  0  0  0
  6  8  1  0  0  0
  8 21  1  0  0  0
 21 22  1  0  0  0
 14 15  1  0  0  0
 15 16  2  0  0  0
 15 18  1  0  0  0
 16 17  1  0  0  0
 17 20  2  0  0  0
 18 19  2  0  0  0
 19 20  1  0  0  0
 12 13  1  0  0  0
  3  9  1  0  0  0
  5 10  1  0  0  0
  7 11  1  0  0  0
M  END
> <minimizedAffinity>
-7.81108

$$$$
2F7P_2SK_A_5009


 22 23  0  0  0  0  0  0  0  0999 V2000
   27.0475   65.2530   10.2590 C   0  0  0  0  0  0  0  0  0  0  0  0
   25.7229   64.6962    9.7254 C   0  0  0  0  0  0  0  0  0  0  0  0
   25.8312   64.1939    8.3864 O   0  0  0  0  0  0  0  0  0  0  0  0
   25.2382   63.6381   10.6983 C   0  0  0  0  0  0  0  0  0  0  0  0
   25.5502   62.3222   10.2711 O   0  0  0  0  0  0  0  0  0  0  0  0
   26.0608   63.9333   11.9566 C   0  0  0  0  0  0  0  0  0  0  0  0
   26.0722   62.9613   12.9904 O   0  0  0  0  0  0  0  0  0  0  0  0
   27.4171   64.3002   11.3830 C   0  0  0  0  0  0  0  0  0  0  0  0
   26.4711   63.4653    8.3652 H   0  0  0  0  0  0  0  0  0  0  0  0
   26.5090   62.2408   10.1487 H   0  0  0  0  0  0  0  0  0  0  0  0
   26.4593   62.1375   12.6554 H   0  0  0  0  0  0  0  0  0  0  0  0
   28.0596   65.2880    9.1950 N   0  0  0  0  0  0  0  0  0  0  0  0
   27.7006   64.7081    8.4366 H   0  0  0  0  0  0  0  0  0  0  0  0
   28.4843   66.5538    8.5836 C   0  0  0  0  0  0  0  0  0  0  0  0
   29.9925   66.7004    8.2911 C   0  0  0  0  0  0  0  0  0  0  0  0
   30.3876   66.9734    6.9894 C   0  0  0  0  0  0  0  0  0  0  0  0
   31.7658   67.0971    6.7361 C   0  0  0  0  0  0  0  0  0  0  0  0
   30.9526   66.5613    9.3041 C   0  0  0  0  0  0  0  0  0  0  0  0
   32.3325   66.6752    9.0511 C   0  0  0  0  0  0  0  0  0  0  0  0
   32.7448   66.9541    7.7272 C   0  0  0  0  0  0  0  0  0  0  0  0
   28.5921   65.0507   12.4852 S   0  0  0  0  0  0  0  0  0  0  0  0
   28.6356   66.8470   12.4046 C   0  0  0  0  0  0  0  0  0  0  0  0
  1 12  1  0  0  0
  1  2  1  0  0  0
  1  8  1  0  0  0
 12 14  1  0  0  0
  2  3  1  0  0  0
  2  4  1  0  0  0
  4  5  1  0  0  0
  4  6  1  0  0  0
  6  7  1  0  0  0
  6  8  1  0  0  0
  8 21  1  0  0  0
 21 22  1  0  0  0
 14 15  1  0  0  0
 15 16  2  0  0  0
 15 18  1  0  0  0
 16 17  1  0  0  0
 17 20  2  0  0  0
 18 19  2  0  0  0
 19 20  1  0  0  0
 12 13  1  0  0  0
  3  9  1  0  0  0
  5 10  1  0  0  0
  7 11  1  0  0  0
M  END
> <minimizedAffinity>
-7.79807

$$$$
2F7P_2SK_A_5009


 22 23  0  0  0  0  0  0  0  0999 V2000
   27.7184   64.7489   10.5035 C   0  0  0  0  0  0  0  0  0  0  0  0
   28.7571   63.7256   10.9759 C   0  0  0  0  0  0  0  0  0  0  0  0
   30.0624   64.2962   11.1425 O   0  0  0  0  0  0  0  0  0  0  0  0
   28.2391   63.0939   12.2540 C   0  0  0  0  0  0  0  0  0  0  0  0
   28.8078   63.6733   13.4168 O   0  0  0  0  0  0  0  0  0  0  0  0
   26.7497   63.4517   12.2286 C   0  0  0  0  0  0  0  0  0  0  0  0
   25.9963   63.2601   13.4158 O   0  0  0  0  0  0  0  0  0  0  0  0
   26.7615   64.8658   11.6777 C   0  0  0  0  0  0  0  0  0  0  0  0
   30.0272   64.9926   11.8168 H   0  0  0  0  0  0  0  0  0  0  0  0
   28.6267   64.6262   13.4250 H   0  0  0  0  0  0  0  0  0  0  0  0
   26.3525   63.8247   14.1195 H   0  0  0  0  0  0  0  0  0  0  0  0
   28.3639   66.0265   10.1739 N   0  0  0  0  0  0  0  0  0  0  0  0
   29.2984   65.9906   10.5812 H   0  0  0  0  0  0  0  0  0  0  0  0
   28.5347   66.4614    8.7818 C   0  0  0  0  0  0  0  0  0  0  0  0
   29.9880   66.6373    8.2932 C   0  0  0  0  0  0  0  0  0  0  0  0
   30.2143   66.7595    6.9297 C   0  0  0  0  0  0  0  0  0  0  0  0
   31.5446   66.9119    6.4983 C   0  0  0  0  0  0  0  0  0  0  0  0
   31.0644   66.6720    9.1918 C   0  0  0  0  0  0  0  0  0  0  0  0
   32.3969   66.8148    8.7616 C   0  0  0  0  0  0  0  0  0  0  0  0
   32.6375   66.9408    7.3735 C   0  0  0  0  0  0  0  0  0  0  0  0
   25.2062   65.5511   11.1581 S   0  0  0  0  0  0  0  0  0  0  0  0
   24.6846   65.0344    9.5162 C   0  0  0  0  0  0  0  0  0  0  0  0
  1 12  1  0  0  0
  1  2  1  0  0  0
  1  8  1  0  0  0
 12 14  1  0  0  0
  2  3  1  0  0  0
  2  4  1  0  0  0
  4  5  1  0  0  0
  4  6  1  0  0  0
  6  7  1  0  0  0
  6  8  1  0  0  0
  8 21  1  0  0  0
 21 22  1  0  0  0
 14 15  1  0  0  0
 15 16  2  0  0  0
 15 18  1  0  0  0
 16 17  1  0  0  0
 17 20  2  0  0  0
 18 19  2  0  0  0
 19 20  1  0  0  0
 12 13  1  0  0  0
  3  9  1  0  0  0
  5 10  1  0  0  0
  7 11  1  0  0  0
M  END
> <minimizedAffinity>
-7.63858

$$$$
2F7P_2SK_A_5009


 22 23  0  0  0  0  0  0  0  0999 V2000
   28.1088   63.4075   11.0067 C   0  0  0  0  0  0  0  0  0  0  0  0
   28.5665   63.1596   12.4483 C   0  0  0  0  0  0  0  0  0  0  0  0
   29.8324   63.7669   12.7410 O   0  0  0  0  0  0  0  0  0  0  0  0
   27.4682   63.6463   13.3746 C   0  0  0  0  0  0  0  0  0  0  0  0
   27.7281   64.9401   13.8942 O   0  0  0  0  0  0  0  0  0  0  0  0
   26.2580   63.7471   12.4406 C   0  0  0  0  0  0  0  0  0  0  0  0
   25.1108   64.4405   12.9063 O   0  0  0  0  0  0  0  0  0  0  0  0
   26.8751   64.2805   11.1608 C   0  0  0  0  0  0  0  0  0  0  0  0
   29.7634   64.7280   12.6295 H   0  0  0  0  0  0  0  0  0  0  0  0
   27.8409   65.5660   13.1618 H   0  0  0  0  0  0  0  0  0  0  0  0
   25.3409   65.3669   13.0790 H   0  0  0  0  0  0  0  0  0  0  0  0
   29.1705   64.0647   10.2330 N   0  0  0  0  0  0  0  0  0  0  0  0
   29.1555   63.6408    9.3054 H   0  0  0  0  0  0  0  0  0  0  0  0
   29.1782   65.5183   10.0246 C   0  0  0  0  0  0  0  0  0  0  0  0
   30.0826   66.0420    8.8891 C   0  0  0  0  0  0  0  0  0  0  0  0
   31.3557   66.4882    9.2136 C   0  0  0  0  0  0  0  0  0  0  0  0
   32.1663   66.9696    8.1696 C   0  0  0  0  0  0  0  0  0  0  0  0
   29.6427   66.0752    7.5577 C   0  0  0  0  0  0  0  0  0  0  0  0
   30.4486   66.5653    6.5129 C   0  0  0  0  0  0  0  0  0  0  0  0
   31.7483   67.0218    6.8340 C   0  0  0  0  0  0  0  0  0  0  0  0
   25.8772   64.2273    9.6911 S   0  0  0  0  0  0  0  0  0  0  0  0
   25.0009   62.6752    9.4507 C   0  0  0  0  0  0  0  0  0  0  0  0
  1 12  1  0  0  0
  1  2  1  0  0  0
  1  8  1  0  0  0
 12 14  1  0  0  0
  2  3  1  0  0  0
  2  4  1  0  0  0
  4  5  1  0  0  0
  4  6  1  0  0  0
  6  7  1  0  0  0
  6  8  1  0  0  0
  8 21  1  0  0  0
 21 22  1  0  0  0
 14 15  1  0  0  0
 15 16  2  0  0  0
 15 18  1  0  0  0
 16 17  1  0  0  0
 17 20  2  0  0  0
 18 19  2  0  0  0
 19 20  1  0  0  0
 12 13  1  0  0  0
  3  9  1  0  0  0
  5 10  1  0  0  0
  7 11  1  0  0  0
M  END
> <minimizedAffinity>
-7.46549

$$$$
2F7P_2SK_A_5009


 22 23  0  0  0  0  0  0  0  0999 V2000
   27.0183   64.0975   10.6719 C   0  0  0  0  0  0  0  0  0  0  0  0
   28.1450   63.0670   10.8053 C   0  0  0  0  0  0  0  0  0  0  0  0
   29.2373   63.3199    9.9110 O   0  0  0  0  0  0  0  0  0  0  0  0
   28.5847   63.0447   12.2570 C   0  0  0  0  0  0  0  0  0  0  0  0
   29.7512   63.8186   12.4842 O   0  0  0  0  0  0  0  0  0  0  0  0
   27.4170   63.7292   12.9746 C   0  0  0  0  0  0  0  0  0  0  0  0
   27.6062   64.1353   14.3211 O   0  0  0  0  0  0  0  0  0  0  0  0
   27.0349   64.8303   12.0025 C   0  0  0  0  0  0  0  0  0  0  0  0
   29.6243   64.1868   10.1103 H   0  0  0  0  0  0  0  0  0  0  0  0
   29.5921   64.7334   12.2036 H   0  0  0  0  0  0  0  0  0  0  0  0
   28.3156   64.7955   14.3631 H   0  0  0  0  0  0  0  0  0  0  0  0
   27.2676   64.9917    9.5335 N   0  0  0  0  0  0  0  0  0  0  0  0
   26.3530   65.2389    9.1556 H   0  0  0  0  0  0  0  0  0  0  0  0
   28.0034   66.2520    9.6966 C   0  0  0  0  0  0  0  0  0  0  0  0
   29.1977   66.4753    8.7451 C   0  0  0  0  0  0  0  0  0  0  0  0
   30.4536   66.6752    9.3001 C   0  0  0  0  0  0  0  0  0  0  0  0
   31.5317   66.8846    8.4210 C   0  0  0  0  0  0  0  0  0  0  0  0
   29.0340   66.4816    7.3521 C   0  0  0  0  0  0  0  0  0  0  0  0
   30.1096   66.7004    6.4710 C   0  0  0  0  0  0  0  0  0  0  0  0
   31.3939   66.9045    7.0275 C   0  0  0  0  0  0  0  0  0  0  0  0
   25.4909   65.6648   12.2822 S   0  0  0  0  0  0  0  0  0  0  0  0
   24.2202   64.6338   13.0287 C   0  0  0  0  0  0  0  0  0  0  0  0
  1 12  1  0  0  0
  1  2  1  0  0  0
  1  8  1  0  0  0
 12 14  1  0  0  0
  2  3  1  0  0  0
  2  4  1  0  0  0
  4  5  1  0  0  0
  4  6  1  0  0  0
  6  7  1  0  0  0
  6  8  1  0  0  0
  8 21  1  0  0  0
 21 22  1  0  0  0
 14 15  1  0  0  0
 15 16  2  0  0  0
 15 18  1  0  0  0
 16 17  1  0  0  0
 17 20  2  0  0  0
 18 19  2  0  0  0
 19 20  1  0  0  0
 12 13  1  0  0  0
  3  9  1  0  0  0
  5 10  1  0  0  0
  7 11  1  0  0  0
M  END
> <minimizedAffinity>
-7.38718

$$$$
2F7P_2SK_A_5009


 22 23  0  0  0  0  0  0  0  0999 V2000
   27.9584   65.2547   11.6369 C   0  0  0  0  0  0  0  0  0  0  0  0
   27.2811   63.8934   11.4438 C   0  0  0  0  0  0  0  0  0  0  0  0
   27.9670   63.0615   10.4980 O   0  0  0  0  0  0  0  0  0  0  0  0
   27.1618   63.2365   12.8059 C   0  0  0  0  0  0  0  0  0  0  0  0
   28.1898   62.2892   13.0452 O   0  0  0  0  0  0  0  0  0  0  0  0
   27.3693   64.4111   13.7672 C   0  0  0  0  0  0  0  0  0  0  0  0
   27.6007   64.1206   15.1368 O   0  0  0  0  0  0  0  0  0  0  0  0
   28.4527   65.2157   13.0728 C   0  0  0  0  0  0  0  0  0  0  0  0
   28.8667   62.8853   10.8150 H   0  0  0  0  0  0  0  0  0  0  0  0
   29.0539   62.7225   12.9645 H   0  0  0  0  0  0  0  0  0  0  0  0
   28.4201   63.6089   15.2248 H   0  0  0  0  0  0  0  0  0  0  0  0
   29.0502   65.4308   10.6701 N   0  0  0  0  0  0  0  0  0  0  0  0
   29.2590   64.5038   10.2994 H   0  0  0  0  0  0  0  0  0  0  0  0
   28.9094   66.3196    9.5096 C   0  0  0  0  0  0  0  0  0  0  0  0
   30.1858   66.5665    8.6780 C   0  0  0  0  0  0  0  0  0  0  0  0
   30.0557   66.7402    7.3076 C   0  0  0  0  0  0  0  0  0  0  0  0
   31.2283   66.9572    6.5613 C   0  0  0  0  0  0  0  0  0  0  0  0
   31.4532   66.6143    9.2770 C   0  0  0  0  0  0  0  0  0  0  0  0
   32.6286   66.8217    8.5309 C   0  0  0  0  0  0  0  0  0  0  0  0
   32.5059   67.0005    7.1332 C   0  0  0  0  0  0  0  0  0  0  0  0
   28.7629   66.8577   13.6780 S   0  0  0  0  0  0  0  0  0  0  0  0
   29.9099   66.9292   15.0615 C   0  0  0  0  0  0  0  0  0  0  0  0
  1 12  1  0  0  0
  1  2  1  0  0  0
  1  8  1  0  0  0
 12 14  1  0  0  0
  2  3  1  0  0  0
  2  4  1  0  0  0
  4  5  1  0  0  0
  4  6  1  0  0  0
  6  7  1  0  0  0
  6  8  1  0  0  0
  8 21  1  0  0  0
 21 22  1  0  0  0
 14 15  1  0  0  0
 15 16  2  0  0  0
 15 18  1  0  0  0
 16 17  1  0  0  0
 17 20  2  0  0  0
 18 19  2  0  0  0
 19 20  1  0  0  0
 12 13  1  0  0  0
  3  9  1  0  0  0
  5 10  1  0  0  0
  7 11  1  0  0  0
M  END
> <minimizedAffinity>
-7.16924

$$$$
2F7P_2SK_A_5009


 22 23  0  0  0  0  0  0  0  0999 V2000
   29.1797   65.5266    9.8070 C   0  0  0  0  0  0  0  0  0  0  0  0
   30.6375   65.9919    9.7192 C   0  0  0  0  0  0  0  0  0  0  0  0
   31.5662   64.9002    9.6659 O   0  0  0  0  0  0  0  0  0  0  0  0
   30.7607   66.9098    8.5179 C   0  0  0  0  0  0  0  0  0  0  0  0
   31.2791   66.2462    7.3767 O   0  0  0  0  0  0  0  0  0  0  0  0
   29.3036   67.2821    8.2259 C   0  0  0  0  0  0  0  0  0  0  0  0
   29.0102   67.9127    6.9890 O   0  0  0  0  0  0  0  0  0  0  0  0
   28.5728   65.9784    8.4897 C   0  0  0  0  0  0  0  0  0  0  0  0
   31.3933   64.3669    8.8743 H   0  0  0  0  0  0  0  0  0  0  0  0
   30.7113   65.4913    7.1560 H   0  0  0  0  0  0  0  0  0  0  0  0
   29.2419   67.3170    6.2594 H   0  0  0  0  0  0  0  0  0  0  0  0
   29.1117   64.0705    9.9884 N   0  0  0  0  0  0  0  0  0  0  0  0
   30.0594   63.7187    9.8525 H   0  0  0  0  0  0  0  0  0  0  0  0
   28.6243   63.4767   11.2398 C   0  0  0  0  0  0  0  0  0  0  0  0
   27.0952   63.4799   11.4488 C   0  0  0  0  0  0  0  0  0  0  0  0
   26.5999   63.8750   12.6832 C   0  0  0  0  0  0  0  0  0  0  0  0
   25.2046   63.8660   12.8617 C   0  0  0  0  0  0  0  0  0  0  0  0
   26.2150   63.0934   10.4275 C   0  0  0  0  0  0  0  0  0  0  0  0
   24.8191   63.0745   10.6070 C   0  0  0  0  0  0  0  0  0  0  0  0
   24.3047   63.4763   11.8619 C   0  0  0  0  0  0  0  0  0  0  0  0
   26.8004   66.0458    8.6020 S   0  0  0  0  0  0  0  0  0  0  0  0
   26.1847   66.6978   10.1611 C   0  0  0  0  0  0  0  0  0  0  0  0
  1 12  1  0  0  0
  1  2  1  0  0  0
  1  8  1  0  0  0
 12 14  1  0  0  0
  2  3  1  0  0  0
  2  4  1  0  0  0
  4  5  1  0  0  0
  4  6  1  0  0  0
  6  7  1  0  0  0
  6  8  1  0  0  0
  8 21  1  0  0  0
 21 22  1  0  0  0
 14 15  1  0  0  0
 15 16  2  0  0  0
 15 18  1  0  0  0
 16 17  1  0  0  0
 17 20  2  0  0  0
 18 19  2  0  0  0
 19 20  1  0  0  0
 12 13  1  0  0  0
  3  9  1  0  0  0
  5 10  1  0  0  0
  7 11  1  0  0  0
M  END
> <minimizedAffinity>
-6.62563

$$$$
2F7P_2SK_A_5009


 22 23  0  0  0  0  0  0  0  0999 V2000
   27.2076   66.8925   11.1096 C   0  0  0  0  0  0  0  0  0  0  0  0
   26.8697   68.0759   12.0232 C   0  0  0  0  0  0  0  0  0  0  0  0
   27.5465   69.2818   11.6426 O   0  0  0  0  0  0  0  0  0  0  0  0
   25.3618   68.2414   12.0304 C   0  0  0  0  0  0  0  0  0  0  0  0
   24.9219   69.2601   11.1472 O   0  0  0  0  0  0  0  0  0  0  0  0
   24.8714   66.8975   11.4825 C   0  0  0  0  0  0  0  0  0  0  0  0
   23.5125   66.7932   11.0869 O   0  0  0  0  0  0  0  0  0  0  0  0
   25.8958   66.5887   10.4062 C   0  0  0  0  0  0  0  0  0  0  0  0
   27.2779   69.5339   10.7453 H   0  0  0  0  0  0  0  0  0  0  0  0
   25.2258   69.0616   10.2477 H   0  0  0  0  0  0  0  0  0  0  0  0
   23.3393   67.4108   10.3593 H   0  0  0  0  0  0  0  0  0  0  0  0
   28.2791   67.2529   10.1716 N   0  0  0  0  0  0  0  0  0  0  0  0
   28.5162   68.2259   10.3652 H   0  0  0  0  0  0  0  0  0  0  0  0
   29.5484   66.5152   10.1392 C   0  0  0  0  0  0  0  0  0  0  0  0
   30.3716   66.6267    8.8386 C   0  0  0  0  0  0  0  0  0  0  0  0
   29.7050   66.5227    7.6261 C   0  0  0  0  0  0  0  0  0  0  0  0
   30.4691   66.6189    6.4489 C   0  0  0  0  0  0  0  0  0  0  0  0
   31.7598   66.8255    8.8644 C   0  0  0  0  0  0  0  0  0  0  0  0
   32.5276   66.9125    7.6879 C   0  0  0  0  0  0  0  0  0  0  0  0
   31.8566   66.8083    6.4471 C   0  0  0  0  0  0  0  0  0  0  0  0
   25.9050   64.9417    9.7383 S   0  0  0  0  0  0  0  0  0  0  0  0
   24.9386   64.7510    8.2334 C   0  0  0  0  0  0  0  0  0  0  0  0
  1 12  1  0  0  0
  1  2  1  0  0  0
  1  8  1  0  0  0
 12 14  1  0  0  0
  2  3  1  0  0  0
  2  4  1  0  0  0
  4  5  1  0  0  0
  4  6  1  0  0  0
  6  7  1  0  0  0
  6  8  1  0  0  0
  8 21  1  0  0  0
 21 22  1  0  0  0
 14 15  1  0  0  0
 15 16  2  0  0  0
 15 18  1  0  0  0
 16 17  1  0  0  0
 17 20  2  0  0  0
 18 19  2  0  0  0
 19 20  1  0  0  0
 12 13  1  0  0  0
  3  9  1  0  0  0
  5 10  1  0  0  0
  7 11  1  0  0  0
M  END
> <minimizedAffinity>
-6.48491

$$$$
2F7P_2SK_A_5009


 22 23  0  0  0  0  0  0  0  0999 V2000
   27.5838   66.4166   11.5012 C   0  0  0  0  0  0  0  0  0  0  0  0
   27.1101   67.7285   12.1367 C   0  0  0  0  0  0  0  0  0  0  0  0
   27.3739   68.8718   11.3119 O   0  0  0  0  0  0  0  0  0  0  0  0
   25.6353   67.5819   12.4605 C   0  0  0  0  0  0  0  0  0  0  0  0
   24.8010   68.1737   11.4781 O   0  0  0  0  0  0  0  0  0  0  0  0
   25.4262   66.0653   12.4059 C   0  0  0  0  0  0  0  0  0  0  0  0
   24.0947   65.5749   12.3853 O   0  0  0  0  0  0  0  0  0  0  0  0
   26.2964   65.6563   11.2317 C   0  0  0  0  0  0  0  0  0  0  0  0
   26.8998   68.7798   10.4706 H   0  0  0  0  0  0  0  0  0  0  0  0
   24.9881   67.7764   10.6132 H   0  0  0  0  0  0  0  0  0  0  0  0
   23.6449   65.8940   11.5874 H   0  0  0  0  0  0  0  0  0  0  0  0
   28.3479   66.6824   10.2752 N   0  0  0  0  0  0  0  0  0  0  0  0
   28.1119   67.6325    9.9889 H   0  0  0  0  0  0  0  0  0  0  0  0
   29.8135   66.5943   10.2522 C   0  0  0  0  0  0  0  0  0  0  0  0
   30.4812   66.6589    8.8623 C   0  0  0  0  0  0  0  0  0  0  0  0
   31.8549   66.8443    8.7995 C   0  0  0  0  0  0  0  0  0  0  0  0
   32.4488   66.9085    7.5259 C   0  0  0  0  0  0  0  0  0  0  0  0
   29.7321   66.5376    7.6828 C   0  0  0  0  0  0  0  0  0  0  0  0
   30.3230   66.6110    6.4074 C   0  0  0  0  0  0  0  0  0  0  0  0
   31.7229   66.7992    6.3333 C   0  0  0  0  0  0  0  0  0  0  0  0
   26.6206   63.9214   11.0228 S   0  0  0  0  0  0  0  0  0  0  0  0
   25.5822   63.1203    9.7920 C   0  0  0  0  0  0  0  0  0  0  0  0
  1 12  1  0  0  0
  1  2  1  0  0  0
  1  8  1  0  0  0
 12 14  1  0  0  0
  2  3  1  0  0  0
  2  4  1  0  0  0
  4  5  1  0  0  0
  4  6  1  0  0  0
  6  7  1  0  0  0
  6  8  1  0  0  0
  8 21  1  0  0  0
 21 22  1  0  0  0
 14 15  1  0  0  0
 15 16  2  0  0  0
 15 18  1  0  0  0
 16 17  1  0  0  0
 17 20  2  0  0  0
 18 19  2  0  0  0
 19 20  1  0  0  0
 12 13  1  0  0  0
  3  9  1  0  0  0
  5 10  1  0  0  0
  7 11  1  0  0  0
M  END
> <minimizedAffinity>
-6.09234

$$$$
2F7P_2SK_A_5009


 22 23  0  0  0  0  0  0  0  0999 V2000
   26.9296   65.6586   12.4786 C   0  0  0  0  0  0  0  0  0  0  0  0
   26.1091   64.6551   13.2965 C   0  0  0  0  0  0  0  0  0  0  0  0
   25.9882   63.3801   12.6508 O   0  0  0  0  0  0  0  0  0  0  0  0
   26.7442   64.5455   14.6698 C   0  0  0  0  0  0  0  0  0  0  0  0
   27.5861   63.4107   14.7910 O   0  0  0  0  0  0  0  0  0  0  0  0
   27.6259   65.7966   14.7354 C   0  0  0  0  0  0  0  0  0  0  0  0
   28.5891   65.8812   15.7741 O   0  0  0  0  0  0  0  0  0  0  0  0
   28.1720   65.8873   13.3223 C   0  0  0  0  0  0  0  0  0  0  0  0
   26.8696   62.9925   12.5329 H   0  0  0  0  0  0  0  0  0  0  0  0
   28.2776   63.4471   14.1117 H   0  0  0  0  0  0  0  0  0  0  0  0
   29.2290   65.1582   15.6813 H   0  0  0  0  0  0  0  0  0  0  0  0
   27.2428   65.1111   11.1520 N   0  0  0  0  0  0  0  0  0  0  0  0
   26.9468   64.1351   11.1660 H   0  0  0  0  0  0  0  0  0  0  0  0
   26.6799   65.6977    9.9291 C   0  0  0  0  0  0  0  0  0  0  0  0
   27.6949   66.1763    8.8698 C   0  0  0  0  0  0  0  0  0  0  0  0
   29.0025   66.4120    9.2696 C   0  0  0  0  0  0  0  0  0  0  0  0
   29.9151   66.8549    8.2949 C   0  0  0  0  0  0  0  0  0  0  0  0
   27.3203   66.3754    7.5329 C   0  0  0  0  0  0  0  0  0  0  0  0
   28.2294   66.8276    6.5581 C   0  0  0  0  0  0  0  0  0  0  0  0
   29.5649   67.0699    6.9561 C   0  0  0  0  0  0  0  0  0  0  0  0
   28.9809   67.3999   12.8568 S   0  0  0  0  0  0  0  0  0  0  0  0
   28.4221   68.8458   13.7688 C   0  0  0  0  0  0  0  0  0  0  0  0
  1 12  1  0  0  0
  1  2  1  0  0  0
  1  8  1  0  0  0
 12 14  1  0  0  0
  2  3  1  0  0  0
  2  4  1  0  0  0
  4  5  1  0  0  0
  4  6  1  0  0  0
  6  7  1  0  0  0
  6  8  1  0  0  0
  8 21  1  0  0  0
 21 22  1  0  0  0
 14 15  1  0  0  0
 15 16  2  0  0  0
 15 18  1  0  0  0
 16 17  1  0  0  0
 17 20  2  0  0  0
 18 19  2  0  0  0
 19 20  1  0  0  0
 12 13  1  0  0  0
  3  9  1  0  0  0
  5 10  1  0  0  0
  7 11  1  0  0  0
M  END
> <minimizedAffinity>
-5.83144

$$$$
