4GU6_10N_A_701


 33 36  0  0  0  0  0  0  0  0999 V2000
   23.7345   -6.7669  -39.9124 N   0  0  0  0  0  0  0  0  0  0  0  0
   23.0833   -5.7392  -39.4575 C   0  0  0  0  0  0  0  0  0  0  0  0
   22.0727   -5.1329  -40.1994 C   0  0  0  0  0  0  0  0  0  0  0  0
   21.7423   -5.6342  -41.4743 C   0  0  0  0  0  0  0  0  0  0  0  0
   22.4794   -6.7479  -41.9310 C   0  0  0  0  0  0  0  0  0  0  0  0
   23.4804   -7.2847  -41.0990 C   0  0  0  0  0  0  0  0  0  0  0  0
   24.0413   -8.3384  -41.7448 N   0  0  0  0  0  0  0  0  0  0  0  0
   23.4567   -8.5160  -42.9624 C   0  0  0  0  0  0  0  0  0  0  0  0
   22.4922   -7.5763  -43.1382 C   0  0  0  0  0  0  0  0  0  0  0  0
   24.7683   -8.8959  -41.3842 H   0  0  0  0  0  0  0  0  0  0  0  0
   23.8569   -9.5866  -43.8968 C   0  0  0  0  0  0  0  0  0  0  0  0
   22.9814  -10.6461  -44.1398 C   0  0  0  0  0  0  0  0  0  0  0  0
   23.3375  -11.6521  -45.0091 C   0  0  0  0  0  0  0  0  0  0  0  0
   24.5594  -11.6080  -45.6462 C   0  0  0  0  0  0  0  0  0  0  0  0
   25.4303  -10.5615  -45.4132 C   0  0  0  0  0  0  0  0  0  0  0  0
   25.0873   -9.5505  -44.5457 C   0  0  0  0  0  0  0  0  0  0  0  0
   20.7346   -5.0044  -42.1894 N   0  0  0  0  0  0  0  0  0  0  0  0
   20.5235   -4.0527  -42.0518 H   0  0  0  0  0  0  0  0  0  0  0  0
   19.9985   -5.8194  -43.1586 C   0  0  0  0  0  0  0  0  0  0  0  0
   18.5223   -5.7341  -42.8371 C   0  0  0  0  0  0  0  0  0  0  0  0
   18.1204   -5.6201  -41.5205 C   0  0  0  0  0  0  0  0  0  0  0  0
   16.7666   -5.5450  -41.2371 C   0  0  0  0  0  0  0  0  0  0  0  0
   15.8599   -5.5831  -42.2695 C   0  0  0  0  0  0  0  0  0  0  0  0
   16.2640   -5.6941  -43.5147 N   0  0  0  0  0  0  0  0  0  0  0  0
   17.5413   -5.7733  -43.8290 C   0  0  0  0  0  0  0  0  0  0  0  0
   17.8601   -5.8789  -45.1763 N   0  0  0  0  0  0  0  0  0  0  0  0
   18.0107   -4.6615  -45.9652 C   0  0  0  0  0  0  0  0  0  0  0  0
   18.0150   -7.3571  -45.9007 S   0  0  0  0  0  0  0  0  0  0  0  0
   19.3563   -7.4329  -46.2856 O   0  0  0  0  0  0  0  0  0  0  0  0
   17.5113   -8.2476  -44.9371 O   0  0  0  0  0  0  0  0  0  0  0  0
   16.9112   -7.2909  -47.3266 C   0  0  0  0  0  0  0  0  0  0  0  0
   21.3919   -4.0127  -39.6387 C   0  0  0  0  0  0  0  0  0  0  0  0
   20.8451   -3.1306  -39.1991 N   0  0  0  0  0  0  0  0  0  0  0  0
 22 23  2  0  0  0
 22 21  1  0  0  0
 23 24  1  0  0  0
 21 20  2  0  0  0
 24 25  2  0  0  0
 15 14  2  0  0  0
 15 16  1  0  0  0
 20 25  1  0  0  0
 20 19  1  0  0  0
 25 26  1  0  0  0
 14 13  1  0  0  0
 16 11  2  0  0  0
 19 17  1  0  0  0
 27 26  1  0  0  0
 26 28  1  0  0  0
 13 12  2  0  0  0
 11 12  1  0  0  0
 11  8  1  0  0  0
  9  8  2  0  0  0
  9  5  1  0  0  0
 17  4  1  0  0  0
  8  7  1  0  0  0
 30 28  2  0  0  0
 28 29  2  0  0  0
 28 31  1  0  0  0
  5  4  2  0  0  0
  5  6  1  0  0  0
  4  3  1  0  0  0
  7  6  1  0  0  0
  6  1  2  0  0  0
  3 32  1  0  0  0
  3  2  2  0  0  0
 32 33  3  0  0  0
  1  2  1  0  0  0
 17 18  1  0  0  0
  7 10  1  0  0  0
M  END
> <minimizedAffinity>
-9.26373

$$$$
4GU6_10N_A_701


 33 36  0  0  0  0  0  0  0  0999 V2000
   23.6405   -6.6041  -39.5323 N   0  0  0  0  0  0  0  0  0  0  0  0
   22.8877   -5.5592  -39.3635 C   0  0  0  0  0  0  0  0  0  0  0  0
   22.0516   -5.0948  -40.3758 C   0  0  0  0  0  0  0  0  0  0  0  0
   22.0150   -5.7629  -41.6159 C   0  0  0  0  0  0  0  0  0  0  0  0
   22.8536   -6.8895  -41.7571 C   0  0  0  0  0  0  0  0  0  0  0  0
   23.6594   -7.2743  -40.6687 C   0  0  0  0  0  0  0  0  0  0  0  0
   24.3661   -8.3726  -41.0383 N   0  0  0  0  0  0  0  0  0  0  0  0
   24.0631   -8.7242  -42.3190 C   0  0  0  0  0  0  0  0  0  0  0  0
   23.1430   -7.8580  -42.8164 C   0  0  0  0  0  0  0  0  0  0  0  0
   25.0072   -8.8481  -40.4620 H   0  0  0  0  0  0  0  0  0  0  0  0
   24.6759   -9.8819  -43.0002 C   0  0  0  0  0  0  0  0  0  0  0  0
   25.9209  -10.3470  -42.5740 C   0  0  0  0  0  0  0  0  0  0  0  0
   26.5062  -11.4260  -43.1966 C   0  0  0  0  0  0  0  0  0  0  0  0
   25.8566  -12.0524  -44.2390 C   0  0  0  0  0  0  0  0  0  0  0  0
   24.6230  -11.5999  -44.6648 C   0  0  0  0  0  0  0  0  0  0  0  0
   24.0276  -10.5217  -44.0522 C   0  0  0  0  0  0  0  0  0  0  0  0
   21.1755   -5.2719  -42.6047 N   0  0  0  0  0  0  0  0  0  0  0  0
   21.0013   -4.3076  -42.6997 H   0  0  0  0  0  0  0  0  0  0  0  0
   20.5597   -6.2530  -43.5011 C   0  0  0  0  0  0  0  0  0  0  0  0
   19.5833   -5.5328  -44.4056 C   0  0  0  0  0  0  0  0  0  0  0  0
   20.0649   -4.7139  -45.4082 C   0  0  0  0  0  0  0  0  0  0  0  0
   19.1625   -4.0575  -46.2289 C   0  0  0  0  0  0  0  0  0  0  0  0
   17.8149   -4.2386  -46.0276 C   0  0  0  0  0  0  0  0  0  0  0  0
   17.3784   -5.0206  -45.0663 N   0  0  0  0  0  0  0  0  0  0  0  0
   18.2012   -5.6602  -44.2598 C   0  0  0  0  0  0  0  0  0  0  0  0
   17.6351   -6.4685  -43.2829 N   0  0  0  0  0  0  0  0  0  0  0  0
   17.4662   -7.8917  -43.5529 C   0  0  0  0  0  0  0  0  0  0  0  0
   17.1053   -5.8305  -41.8525 S   0  0  0  0  0  0  0  0  0  0  0  0
   18.0839   -4.9028  -41.4853 O   0  0  0  0  0  0  0  0  0  0  0  0
   15.8034   -5.3939  -42.1516 O   0  0  0  0  0  0  0  0  0  0  0  0
   17.0484   -7.2301  -40.7151 C   0  0  0  0  0  0  0  0  0  0  0  0
   21.2453   -3.9466  -40.1227 C   0  0  0  0  0  0  0  0  0  0  0  0
   20.6014   -3.0446  -39.9178 N   0  0  0  0  0  0  0  0  0  0  0  0
 22 23  2  0  0  0
 22 21  1  0  0  0
 23 24  1  0  0  0
 21 20  2  0  0  0
 24 25  2  0  0  0
 15 14  2  0  0  0
 15 16  1  0  0  0
 20 25  1  0  0  0
 20 19  1  0  0  0
 25 26  1  0  0  0
 14 13  1  0  0  0
 16 11  2  0  0  0
 19 17  1  0  0  0
 27 26  1  0  0  0
 26 28  1  0  0  0
 13 12  2  0  0  0
 11 12  1  0  0  0
 11  8  1  0  0  0
  9  8  2  0  0  0
  9  5  1  0  0  0
 17  4  1  0  0  0
  8  7  1  0  0  0
 30 28  2  0  0  0
 28 29  2  0  0  0
 28 31  1  0  0  0
  5  4  2  0  0  0
  5  6  1  0  0  0
  4  3  1  0  0  0
  7  6  1  0  0  0
  6  1  2  0  0  0
  3 32  1  0  0  0
  3  2  2  0  0  0
 32 33  3  0  0  0
  1  2  1  0  0  0
 17 18  1  0  0  0
  7 10  1  0  0  0
M  END
> <minimizedAffinity>
-9.23884

$$$$
4GU6_10N_A_701


 33 36  0  0  0  0  0  0  0  0999 V2000
   20.3113   -5.1883  -41.3383 N   0  0  0  0  0  0  0  0  0  0  0  0
   19.0363   -4.9712  -41.2184 C   0  0  0  0  0  0  0  0  0  0  0  0
   18.0970   -5.8176  -41.8021 C   0  0  0  0  0  0  0  0  0  0  0  0
   18.5269   -6.9357  -42.5441 C   0  0  0  0  0  0  0  0  0  0  0  0
   19.9208   -7.1296  -42.6534 C   0  0  0  0  0  0  0  0  0  0  0  0
   20.7833   -6.2129  -42.0225 C   0  0  0  0  0  0  0  0  0  0  0  0
   22.0601   -6.6054  -42.2630 N   0  0  0  0  0  0  0  0  0  0  0  0
   22.0750   -7.7349  -43.0244 C   0  0  0  0  0  0  0  0  0  0  0  0
   20.7984   -8.1088  -43.2974 C   0  0  0  0  0  0  0  0  0  0  0  0
   22.8624   -6.1394  -41.9337 H   0  0  0  0  0  0  0  0  0  0  0  0
   23.3225   -8.4001  -43.4500 C   0  0  0  0  0  0  0  0  0  0  0  0
   23.4015   -8.9535  -44.7289 C   0  0  0  0  0  0  0  0  0  0  0  0
   24.5573   -9.5760  -45.1428 C   0  0  0  0  0  0  0  0  0  0  0  0
   25.6411   -9.6458  -44.2935 C   0  0  0  0  0  0  0  0  0  0  0  0
   25.5718   -9.0982  -43.0274 C   0  0  0  0  0  0  0  0  0  0  0  0
   24.4222   -8.4745  -42.6008 C   0  0  0  0  0  0  0  0  0  0  0  0
   17.5662   -7.7558  -43.1168 N   0  0  0  0  0  0  0  0  0  0  0  0
   16.8084   -8.1038  -42.5934 H   0  0  0  0  0  0  0  0  0  0  0  0
   17.7300   -8.0807  -44.5356 C   0  0  0  0  0  0  0  0  0  0  0  0
   16.8080   -7.1926  -45.3426 C   0  0  0  0  0  0  0  0  0  0  0  0
   15.4465   -7.2447  -45.1162 C   0  0  0  0  0  0  0  0  0  0  0  0
   14.6113   -6.4292  -45.8620 C   0  0  0  0  0  0  0  0  0  0  0  0
   15.1563   -5.5895  -46.8039 C   0  0  0  0  0  0  0  0  0  0  0  0
   16.4544   -5.5575  -47.0046 N   0  0  0  0  0  0  0  0  0  0  0  0
   17.2847   -6.3192  -46.3212 C   0  0  0  0  0  0  0  0  0  0  0  0
   18.6385   -6.2002  -46.6059 N   0  0  0  0  0  0  0  0  0  0  0  0
   19.2952   -7.2523  -47.3733 C   0  0  0  0  0  0  0  0  0  0  0  0
   19.5171   -4.9179  -46.0423 S   0  0  0  0  0  0  0  0  0  0  0  0
   19.4713   -3.9691  -47.0673 O   0  0  0  0  0  0  0  0  0  0  0  0
   18.9236   -4.6360  -44.7999 O   0  0  0  0  0  0  0  0  0  0  0  0
   21.1834   -5.5680  -45.8047 C   0  0  0  0  0  0  0  0  0  0  0  0
   16.7125   -5.5266  -41.6258 C   0  0  0  0  0  0  0  0  0  0  0  0
   15.6158   -5.3057  -41.4891 N   0  0  0  0  0  0  0  0  0  0  0  0
 22 23  2  0  0  0
 22 21  1  0  0  0
 23 24  1  0  0  0
 21 20  2  0  0  0
 24 25  2  0  0  0
 15 14  2  0  0  0
 15 16  1  0  0  0
 20 25  1  0  0  0
 20 19  1  0  0  0
 25 26  1  0  0  0
 14 13  1  0  0  0
 16 11  2  0  0  0
 19 17  1  0  0  0
 27 26  1  0  0  0
 26 28  1  0  0  0
 13 12  2  0  0  0
 11 12  1  0  0  0
 11  8  1  0  0  0
  9  8  2  0  0  0
  9  5  1  0  0  0
 17  4  1  0  0  0
  8  7  1  0  0  0
 30 28  2  0  0  0
 28 29  2  0  0  0
 28 31  1  0  0  0
  5  4  2  0  0  0
  5  6  1  0  0  0
  4  3  1  0  0  0
  7  6  1  0  0  0
  6  1  2  0  0  0
  3 32  1  0  0  0
  3  2  2  0  0  0
 32 33  3  0  0  0
  1  2  1  0  0  0
 17 18  1  0  0  0
  7 10  1  0  0  0
M  END
> <minimizedAffinity>
-8.97415

$$$$
4GU6_10N_A_701


 33 36  0  0  0  0  0  0  0  0999 V2000
   19.9666   -8.4705  -47.8461 N   0  0  0  0  0  0  0  0  0  0  0  0
   19.0456   -8.0824  -48.6758 C   0  0  0  0  0  0  0  0  0  0  0  0
   18.3077   -6.9227  -48.4518 C   0  0  0  0  0  0  0  0  0  0  0  0
   18.5543   -6.1466  -47.3018 C   0  0  0  0  0  0  0  0  0  0  0  0
   19.5593   -6.6090  -46.4252 C   0  0  0  0  0  0  0  0  0  0  0  0
   20.2462   -7.7948  -46.7480 C   0  0  0  0  0  0  0  0  0  0  0  0
   21.1560   -8.0316  -45.7690 N   0  0  0  0  0  0  0  0  0  0  0  0
   21.0958   -7.0579  -44.8182 C   0  0  0  0  0  0  0  0  0  0  0  0
   20.1398   -6.1559  -45.1597 C   0  0  0  0  0  0  0  0  0  0  0  0
   21.7725   -8.7989  -45.7489 H   0  0  0  0  0  0  0  0  0  0  0  0
   21.9666   -7.0449  -43.6260 C   0  0  0  0  0  0  0  0  0  0  0  0
   21.9953   -5.9118  -42.8114 C   0  0  0  0  0  0  0  0  0  0  0  0
   22.8002   -5.8829  -41.6952 C   0  0  0  0  0  0  0  0  0  0  0  0
   23.5738   -6.9793  -41.3783 C   0  0  0  0  0  0  0  0  0  0  0  0
   23.5488   -8.1053  -42.1778 C   0  0  0  0  0  0  0  0  0  0  0  0
   22.7500   -8.1467  -43.2970 C   0  0  0  0  0  0  0  0  0  0  0  0
   17.7985   -5.0003  -47.1057 N   0  0  0  0  0  0  0  0  0  0  0  0
   17.7482   -4.2939  -47.7896 H   0  0  0  0  0  0  0  0  0  0  0  0
   17.0787   -4.8883  -45.8350 C   0  0  0  0  0  0  0  0  0  0  0  0
   15.9068   -5.8455  -45.8594 C   0  0  0  0  0  0  0  0  0  0  0  0
   14.9456   -5.7158  -46.8428 C   0  0  0  0  0  0  0  0  0  0  0  0
   13.8758   -6.5958  -46.8546 C   0  0  0  0  0  0  0  0  0  0  0  0
   13.7988   -7.5743  -45.8923 C   0  0  0  0  0  0  0  0  0  0  0  0
   14.7233   -7.6783  -44.9645 N   0  0  0  0  0  0  0  0  0  0  0  0
   15.7550   -6.8600  -44.9132 C   0  0  0  0  0  0  0  0  0  0  0  0
   16.6790   -7.0635  -43.8969 N   0  0  0  0  0  0  0  0  0  0  0  0
   17.5978   -8.1922  -43.9918 C   0  0  0  0  0  0  0  0  0  0  0  0
   16.7114   -6.0816  -42.5670 S   0  0  0  0  0  0  0  0  0  0  0  0
   17.8500   -5.2879  -42.7306 O   0  0  0  0  0  0  0  0  0  0  0  0
   15.4376   -5.4878  -42.5681 O   0  0  0  0  0  0  0  0  0  0  0  0
   16.8742   -7.2065  -41.1657 C   0  0  0  0  0  0  0  0  0  0  0  0
   17.3165   -6.5490  -49.4059 C   0  0  0  0  0  0  0  0  0  0  0  0
   16.5360   -6.2442  -50.1597 N   0  0  0  0  0  0  0  0  0  0  0  0
 22 23  2  0  0  0
 22 21  1  0  0  0
 23 24  1  0  0  0
 21 20  2  0  0  0
 24 25  2  0  0  0
 15 14  2  0  0  0
 15 16  1  0  0  0
 20 25  1  0  0  0
 20 19  1  0  0  0
 25 26  1  0  0  0
 14 13  1  0  0  0
 16 11  2  0  0  0
 19 17  1  0  0  0
 27 26  1  0  0  0
 26 28  1  0  0  0
 13 12  2  0  0  0
 11 12  1  0  0  0
 11  8  1  0  0  0
  9  8  2  0  0  0
  9  5  1  0  0  0
 17  4  1  0  0  0
  8  7  1  0  0  0
 30 28  2  0  0  0
 28 29  2  0  0  0
 28 31  1  0  0  0
  5  4  2  0  0  0
  5  6  1  0  0  0
  4  3  1  0  0  0
  7  6  1  0  0  0
  6  1  2  0  0  0
  3 32  1  0  0  0
  3  2  2  0  0  0
 32 33  3  0  0  0
  1  2  1  0  0  0
 17 18  1  0  0  0
  7 10  1  0  0  0
M  END
> <minimizedAffinity>
-8.83148

$$$$
4GU6_10N_A_701


 33 36  0  0  0  0  0  0  0  0999 V2000
   24.0286   -8.7042  -42.9497 N   0  0  0  0  0  0  0  0  0  0  0  0
   23.8263   -9.4765  -43.9742 C   0  0  0  0  0  0  0  0  0  0  0  0
   22.7188   -9.3103  -44.8020 C   0  0  0  0  0  0  0  0  0  0  0  0
   21.7884   -8.2874  -44.5306 C   0  0  0  0  0  0  0  0  0  0  0  0
   22.0446   -7.4763  -43.4042 C   0  0  0  0  0  0  0  0  0  0  0  0
   23.1960   -7.7303  -42.6348 C   0  0  0  0  0  0  0  0  0  0  0  0
   23.2287   -6.8297  -41.6199 N   0  0  0  0  0  0  0  0  0  0  0  0
   22.1512   -5.9989  -41.6864 C   0  0  0  0  0  0  0  0  0  0  0  0
   21.3870   -6.3400  -42.7560 C   0  0  0  0  0  0  0  0  0  0  0  0
   23.9320   -6.7835  -40.9325 H   0  0  0  0  0  0  0  0  0  0  0  0
   21.9127   -4.9137  -40.7141 C   0  0  0  0  0  0  0  0  0  0  0  0
   21.2465   -3.7587  -41.1269 C   0  0  0  0  0  0  0  0  0  0  0  0
   21.0143   -2.7378  -40.2334 C   0  0  0  0  0  0  0  0  0  0  0  0
   21.4350   -2.8607  -38.9262 C   0  0  0  0  0  0  0  0  0  0  0  0
   22.0924   -4.0017  -38.5094 C   0  0  0  0  0  0  0  0  0  0  0  0
   22.3321   -5.0289  -39.3925 C   0  0  0  0  0  0  0  0  0  0  0  0
   20.6936   -8.1520  -45.3713 N   0  0  0  0  0  0  0  0  0  0  0  0
   20.7684   -8.3013  -46.3415 H   0  0  0  0  0  0  0  0  0  0  0  0
   19.4213   -7.7770  -44.7501 C   0  0  0  0  0  0  0  0  0  0  0  0
   19.0245   -6.4066  -45.2547 C   0  0  0  0  0  0  0  0  0  0  0  0
   19.8596   -5.7375  -46.1281 C   0  0  0  0  0  0  0  0  0  0  0  0
   19.4880   -4.4826  -46.5821 C   0  0  0  0  0  0  0  0  0  0  0  0
   18.3005   -3.9372  -46.1557 C   0  0  0  0  0  0  0  0  0  0  0  0
   17.5221   -4.5903  -45.3227 N   0  0  0  0  0  0  0  0  0  0  0  0
   17.8389   -5.7837  -44.8624 C   0  0  0  0  0  0  0  0  0  0  0  0
   16.9409   -6.3901  -43.9940 N   0  0  0  0  0  0  0  0  0  0  0  0
   15.9489   -7.3133  -44.5332 C   0  0  0  0  0  0  0  0  0  0  0  0
   16.9491   -6.0374  -42.3786 S   0  0  0  0  0  0  0  0  0  0  0  0
   18.0826   -5.2426  -42.1873 O   0  0  0  0  0  0  0  0  0  0  0  0
   15.6703   -5.4991  -42.1551 O   0  0  0  0  0  0  0  0  0  0  0  0
   17.1053   -7.6364  -41.5572 C   0  0  0  0  0  0  0  0  0  0  0  0
   22.5599  -10.1876  -45.9145 C   0  0  0  0  0  0  0  0  0  0  0  0
   22.4409  -10.8759  -46.7991 N   0  0  0  0  0  0  0  0  0  0  0  0
 22 23  2  0  0  0
 22 21  1  0  0  0
 23 24  1  0  0  0
 21 20  2  0  0  0
 24 25  2  0  0  0
 15 14  2  0  0  0
 15 16  1  0  0  0
 20 25  1  0  0  0
 20 19  1  0  0  0
 25 26  1  0  0  0
 14 13  1  0  0  0
 16 11  2  0  0  0
 19 17  1  0  0  0
 27 26  1  0  0  0
 26 28  1  0  0  0
 13 12  2  0  0  0
 11 12  1  0  0  0
 11  8  1  0  0  0
  9  8  2  0  0  0
  9  5  1  0  0  0
 17  4  1  0  0  0
  8  7  1  0  0  0
 30 28  2  0  0  0
 28 29  2  0  0  0
 28 31  1  0  0  0
  5  4  2  0  0  0
  5  6  1  0  0  0
  4  3  1  0  0  0
  7  6  1  0  0  0
  6  1  2  0  0  0
  3 32  1  0  0  0
  3  2  2  0  0  0
 32 33  3  0  0  0
  1  2  1  0  0  0
 17 18  1  0  0  0
  7 10  1  0  0  0
M  END
> <minimizedAffinity>
-8.71338

$$$$
4GU6_10N_A_701


 33 36  0  0  0  0  0  0  0  0999 V2000
   20.4319   -5.3700  -41.1600 N   0  0  0  0  0  0  0  0  0  0  0  0
   19.1661   -5.0837  -41.1081 C   0  0  0  0  0  0  0  0  0  0  0  0
   18.2370   -5.7507  -41.9027 C   0  0  0  0  0  0  0  0  0  0  0  0
   18.6679   -6.7582  -42.7888 C   0  0  0  0  0  0  0  0  0  0  0  0
   20.0523   -7.0320  -42.8165 C   0  0  0  0  0  0  0  0  0  0  0  0
   20.9048   -6.2982  -41.9697 C   0  0  0  0  0  0  0  0  0  0  0  0
   22.1734   -6.7371  -42.1700 N   0  0  0  0  0  0  0  0  0  0  0  0
   22.1928   -7.7224  -43.1105 C   0  0  0  0  0  0  0  0  0  0  0  0
   20.9272   -7.9518  -43.5461 C   0  0  0  0  0  0  0  0  0  0  0  0
   22.9676   -6.3919  -41.7017 H   0  0  0  0  0  0  0  0  0  0  0  0
   23.4336   -8.3965  -43.5418 C   0  0  0  0  0  0  0  0  0  0  0  0
   23.4968   -8.9655  -44.8147 C   0  0  0  0  0  0  0  0  0  0  0  0
   24.6461   -9.5965  -45.2337 C   0  0  0  0  0  0  0  0  0  0  0  0
   25.7390   -9.6595  -44.3957 C   0  0  0  0  0  0  0  0  0  0  0  0
   25.6853   -9.0965  -43.1356 C   0  0  0  0  0  0  0  0  0  0  0  0
   24.5424   -8.4641  -42.7039 C   0  0  0  0  0  0  0  0  0  0  0  0
   17.7181   -7.3996  -43.5698 N   0  0  0  0  0  0  0  0  0  0  0  0
   16.8801   -7.7423  -43.1830 H   0  0  0  0  0  0  0  0  0  0  0  0
   18.0182   -7.5439  -44.9961 C   0  0  0  0  0  0  0  0  0  0  0  0
   17.1654   -6.5617  -45.7695 C   0  0  0  0  0  0  0  0  0  0  0  0
   17.1591   -5.2310  -45.3996 C   0  0  0  0  0  0  0  0  0  0  0  0
   16.3732   -4.3407  -46.1128 C   0  0  0  0  0  0  0  0  0  0  0  0
   15.6235   -4.8016  -47.1687 C   0  0  0  0  0  0  0  0  0  0  0  0
   15.6426   -6.0723  -47.5022 N   0  0  0  0  0  0  0  0  0  0  0  0
   16.3719   -6.9539  -46.8485 C   0  0  0  0  0  0  0  0  0  0  0  0
   16.3266   -8.2699  -47.2894 N   0  0  0  0  0  0  0  0  0  0  0  0
   17.2552   -8.7003  -48.3283 C   0  0  0  0  0  0  0  0  0  0  0  0
   15.2050   -9.3287  -46.6937 S   0  0  0  0  0  0  0  0  0  0  0  0
   14.5043   -9.7824  -47.8145 O   0  0  0  0  0  0  0  0  0  0  0  0
   15.9748  -10.2289  -45.9372 O   0  0  0  0  0  0  0  0  0  0  0  0
   14.1616   -8.3344  -45.6081 C   0  0  0  0  0  0  0  0  0  0  0  0
   16.8614   -5.3931  -41.7917 C   0  0  0  0  0  0  0  0  0  0  0  0
   15.7721   -5.1188  -41.6991 N   0  0  0  0  0  0  0  0  0  0  0  0
 22 23  2  0  0  0
 22 21  1  0  0  0
 23 24  1  0  0  0
 21 20  2  0  0  0
 24 25  2  0  0  0
 15 14  2  0  0  0
 15 16  1  0  0  0
 20 25  1  0  0  0
 20 19  1  0  0  0
 25 26  1  0  0  0
 14 13  1  0  0  0
 16 11  2  0  0  0
 19 17  1  0  0  0
 27 26  1  0  0  0
 26 28  1  0  0  0
 13 12  2  0  0  0
 11 12  1  0  0  0
 11  8  1  0  0  0
  9  8  2  0  0  0
  9  5  1  0  0  0
 17  4  1  0  0  0
  8  7  1  0  0  0
 30 28  2  0  0  0
 28 29  2  0  0  0
 28 31  1  0  0  0
  5  4  2  0  0  0
  5  6  1  0  0  0
  4  3  1  0  0  0
  7  6  1  0  0  0
  6  1  2  0  0  0
  3 32  1  0  0  0
  3  2  2  0  0  0
 32 33  3  0  0  0
  1  2  1  0  0  0
 17 18  1  0  0  0
  7 10  1  0  0  0
M  END
> <minimizedAffinity>
-8.59018

$$$$
4GU6_10N_A_701


 33 36  0  0  0  0  0  0  0  0999 V2000
   23.9389   -9.0408  -42.8459 N   0  0  0  0  0  0  0  0  0  0  0  0
   23.8097   -9.7571  -43.9216 C   0  0  0  0  0  0  0  0  0  0  0  0
   22.8851   -9.4255  -44.9088 C   0  0  0  0  0  0  0  0  0  0  0  0
   22.0638   -8.2919  -44.7470 C   0  0  0  0  0  0  0  0  0  0  0  0
   22.2340   -7.5465  -43.5606 C   0  0  0  0  0  0  0  0  0  0  0  0
   23.1997   -7.9699  -42.6277 C   0  0  0  0  0  0  0  0  0  0  0  0
   23.1815   -7.1034  -41.5832 N   0  0  0  0  0  0  0  0  0  0  0  0
   22.2471   -6.1332  -41.7866 C   0  0  0  0  0  0  0  0  0  0  0  0
   21.6320   -6.3454  -42.9786 C   0  0  0  0  0  0  0  0  0  0  0  0
   23.7617   -7.1670  -40.7904 H   0  0  0  0  0  0  0  0  0  0  0  0
   21.9947   -5.0461  -40.8199 C   0  0  0  0  0  0  0  0  0  0  0  0
   21.3962   -3.8642  -41.2594 C   0  0  0  0  0  0  0  0  0  0  0  0
   21.1522   -2.8410  -40.3716 C   0  0  0  0  0  0  0  0  0  0  0  0
   21.4937   -2.9883  -39.0440 C   0  0  0  0  0  0  0  0  0  0  0  0
   22.0838   -4.1558  -38.6007 C   0  0  0  0  0  0  0  0  0  0  0  0
   22.3344   -5.1855  -39.4778 C   0  0  0  0  0  0  0  0  0  0  0  0
   21.1498   -7.9922  -45.7462 N   0  0  0  0  0  0  0  0  0  0  0  0
   21.4371   -7.8227  -46.6724 H   0  0  0  0  0  0  0  0  0  0  0  0
   19.7376   -7.9392  -45.3608 C   0  0  0  0  0  0  0  0  0  0  0  0
   19.2149   -6.5463  -45.6375 C   0  0  0  0  0  0  0  0  0  0  0  0
   20.0571   -5.6042  -46.1950 C   0  0  0  0  0  0  0  0  0  0  0  0
   19.5690   -4.3315  -46.4420 C   0  0  0  0  0  0  0  0  0  0  0  0
   18.2627   -4.0394  -46.1296 C   0  0  0  0  0  0  0  0  0  0  0  0
   17.4794   -4.9503  -45.5978 N   0  0  0  0  0  0  0  0  0  0  0  0
   17.9035   -6.1715  -45.3418 C   0  0  0  0  0  0  0  0  0  0  0  0
   16.9909   -7.0592  -44.7875 N   0  0  0  0  0  0  0  0  0  0  0  0
   16.8850   -7.1503  -43.3358 C   0  0  0  0  0  0  0  0  0  0  0  0
   16.0716   -8.0438  -45.7462 S   0  0  0  0  0  0  0  0  0  0  0  0
   16.6511   -9.3098  -45.6262 O   0  0  0  0  0  0  0  0  0  0  0  0
   14.7638   -7.8251  -45.2804 O   0  0  0  0  0  0  0  0  0  0  0  0
   16.2609   -7.3753  -47.4114 C   0  0  0  0  0  0  0  0  0  0  0  0
   22.7991  -10.2499  -46.0688 C   0  0  0  0  0  0  0  0  0  0  0  0
   22.7245  -10.9073  -46.9812 N   0  0  0  0  0  0  0  0  0  0  0  0
 22 23  2  0  0  0
 22 21  1  0  0  0
 23 24  1  0  0  0
 21 20  2  0  0  0
 24 25  2  0  0  0
 15 14  2  0  0  0
 15 16  1  0  0  0
 20 25  1  0  0  0
 20 19  1  0  0  0
 25 26  1  0  0  0
 14 13  1  0  0  0
 16 11  2  0  0  0
 19 17  1  0  0  0
 27 26  1  0  0  0
 26 28  1  0  0  0
 13 12  2  0  0  0
 11 12  1  0  0  0
 11  8  1  0  0  0
  9  8  2  0  0  0
  9  5  1  0  0  0
 17  4  1  0  0  0
  8  7  1  0  0  0
 30 28  2  0  0  0
 28 29  2  0  0  0
 28 31  1  0  0  0
  5  4  2  0  0  0
  5  6  1  0  0  0
  4  3  1  0  0  0
  7  6  1  0  0  0
  6  1  2  0  0  0
  3 32  1  0  0  0
  3  2  2  0  0  0
 32 33  3  0  0  0
  1  2  1  0  0  0
 17 18  1  0  0  0
  7 10  1  0  0  0
M  END
> <minimizedAffinity>
-8.45070

$$$$
4GU6_10N_A_701


 33 36  0  0  0  0  0  0  0  0999 V2000
   16.8719   -5.7574  -42.5086 N   0  0  0  0  0  0  0  0  0  0  0  0
   17.6360   -5.4523  -41.5035 C   0  0  0  0  0  0  0  0  0  0  0  0
   18.9705   -5.0985  -41.6864 C   0  0  0  0  0  0  0  0  0  0  0  0
   19.5162   -5.0704  -42.9852 C   0  0  0  0  0  0  0  0  0  0  0  0
   18.6517   -5.4148  -44.0466 C   0  0  0  0  0  0  0  0  0  0  0  0
   17.3184   -5.7562  -43.7501 C   0  0  0  0  0  0  0  0  0  0  0  0
   16.6895   -6.0420  -44.9185 N   0  0  0  0  0  0  0  0  0  0  0  0
   17.5489   -5.9065  -45.9667 C   0  0  0  0  0  0  0  0  0  0  0  0
   18.7663   -5.5239  -45.5022 C   0  0  0  0  0  0  0  0  0  0  0  0
   15.7453   -6.3094  -44.9973 H   0  0  0  0  0  0  0  0  0  0  0  0
   17.1518   -6.1514  -47.3675 C   0  0  0  0  0  0  0  0  0  0  0  0
   15.8282   -5.9322  -47.7523 C   0  0  0  0  0  0  0  0  0  0  0  0
   15.4409   -6.1540  -49.0544 C   0  0  0  0  0  0  0  0  0  0  0  0
   16.3654   -6.5868  -49.9812 C   0  0  0  0  0  0  0  0  0  0  0  0
   17.6777   -6.8033  -49.6088 C   0  0  0  0  0  0  0  0  0  0  0  0
   18.0776   -6.5869  -48.3105 C   0  0  0  0  0  0  0  0  0  0  0  0
   20.8497   -4.7189  -43.1325 N   0  0  0  0  0  0  0  0  0  0  0  0
   21.1850   -3.8394  -42.8438 H   0  0  0  0  0  0  0  0  0  0  0  0
   21.7367   -5.7156  -43.7370 C   0  0  0  0  0  0  0  0  0  0  0  0
   22.4060   -6.4996  -42.6291 C   0  0  0  0  0  0  0  0  0  0  0  0
   23.0242   -5.8218  -41.5965 C   0  0  0  0  0  0  0  0  0  0  0  0
   23.6358   -6.5492  -40.5886 C   0  0  0  0  0  0  0  0  0  0  0  0
   23.6104   -7.9226  -40.6396 C   0  0  0  0  0  0  0  0  0  0  0  0
   23.0184   -8.5472  -41.6325 N   0  0  0  0  0  0  0  0  0  0  0  0
   22.4286   -7.8950  -42.6140 C   0  0  0  0  0  0  0  0  0  0  0  0
   21.8249   -8.6521  -43.6091 N   0  0  0  0  0  0  0  0  0  0  0  0
   20.3902   -8.5138  -43.8311 C   0  0  0  0  0  0  0  0  0  0  0  0
   22.6975   -9.7386  -44.4991 S   0  0  0  0  0  0  0  0  0  0  0  0
   22.6182  -10.9377  -43.7858 O   0  0  0  0  0  0  0  0  0  0  0  0
   22.1258   -9.6462  -45.7796 O   0  0  0  0  0  0  0  0  0  0  0  0
   24.3769   -9.0790  -44.5165 C   0  0  0  0  0  0  0  0  0  0  0  0
   19.7524   -4.7675  -40.5412 C   0  0  0  0  0  0  0  0  0  0  0  0
   20.3692   -4.4963  -39.6376 N   0  0  0  0  0  0  0  0  0  0  0  0
 22 23  2  0  0  0
 22 21  1  0  0  0
 23 24  1  0  0  0
 21 20  2  0  0  0
 24 25  2  0  0  0
 15 14  2  0  0  0
 15 16  1  0  0  0
 20 25  1  0  0  0
 20 19  1  0  0  0
 25 26  1  0  0  0
 14 13  1  0  0  0
 16 11  2  0  0  0
 19 17  1  0  0  0
 27 26  1  0  0  0
 26 28  1  0  0  0
 13 12  2  0  0  0
 11 12  1  0  0  0
 11  8  1  0  0  0
  9  8  2  0  0  0
  9  5  1  0  0  0
 17  4  1  0  0  0
  8  7  1  0  0  0
 30 28  2  0  0  0
 28 29  2  0  0  0
 28 31  1  0  0  0
  5  4  2  0  0  0
  5  6  1  0  0  0
  4  3  1  0  0  0
  7  6  1  0  0  0
  6  1  2  0  0  0
  3 32  1  0  0  0
  3  2  2  0  0  0
 32 33  3  0  0  0
  1  2  1  0  0  0
 17 18  1  0  0  0
  7 10  1  0  0  0
M  END
> <minimizedAffinity>
-8.16533

$$$$
4GU6_10N_A_701


 33 36  0  0  0  0  0  0  0  0999 V2000
   23.8298   -7.9405  -41.7146 N   0  0  0  0  0  0  0  0  0  0  0  0
   23.1769   -6.9163  -41.2543 C   0  0  0  0  0  0  0  0  0  0  0  0
   22.0190   -6.4540  -41.8749 C   0  0  0  0  0  0  0  0  0  0  0  0
   21.5371   -7.1013  -43.0300 C   0  0  0  0  0  0  0  0  0  0  0  0
   22.2812   -8.2055  -43.4983 C   0  0  0  0  0  0  0  0  0  0  0  0
   23.4379   -8.5903  -42.7939 C   0  0  0  0  0  0  0  0  0  0  0  0
   23.9746   -9.6653  -43.4250 N   0  0  0  0  0  0  0  0  0  0  0  0
   23.2253  -10.0017  -44.5118 C   0  0  0  0  0  0  0  0  0  0  0  0
   22.1736   -9.1486  -44.6132 C   0  0  0  0  0  0  0  0  0  0  0  0
   24.7904  -10.1357  -43.1379 H   0  0  0  0  0  0  0  0  0  0  0  0
   23.5606  -11.1329  -45.3994 C   0  0  0  0  0  0  0  0  0  0  0  0
   23.0850  -12.4087  -45.0921 C   0  0  0  0  0  0  0  0  0  0  0  0
   23.3866  -13.4745  -45.9092 C   0  0  0  0  0  0  0  0  0  0  0  0
   24.1544  -13.2786  -47.0374 C   0  0  0  0  0  0  0  0  0  0  0  0
   24.6266  -12.0187  -47.3498 C   0  0  0  0  0  0  0  0  0  0  0  0
   24.3336  -10.9452  -46.5409 C   0  0  0  0  0  0  0  0  0  0  0  0
   20.3844   -6.6128  -43.6269 N   0  0  0  0  0  0  0  0  0  0  0  0
   20.3209   -5.6807  -43.9371 H   0  0  0  0  0  0  0  0  0  0  0  0
   19.2657   -7.5468  -43.7747 C   0  0  0  0  0  0  0  0  0  0  0  0
   18.0272   -6.9127  -43.1797 C   0  0  0  0  0  0  0  0  0  0  0  0
   17.7668   -7.0673  -41.8321 C   0  0  0  0  0  0  0  0  0  0  0  0
   16.6291   -6.4847  -41.2981 C   0  0  0  0  0  0  0  0  0  0  0  0
   15.7917   -5.7676  -42.1192 C   0  0  0  0  0  0  0  0  0  0  0  0
   16.0574   -5.6350  -43.3990 N   0  0  0  0  0  0  0  0  0  0  0  0
   17.1255   -6.1761  -43.9493 C   0  0  0  0  0  0  0  0  0  0  0  0
   17.3167   -5.9669  -45.3086 N   0  0  0  0  0  0  0  0  0  0  0  0
   17.9903   -4.7508  -45.7494 C   0  0  0  0  0  0  0  0  0  0  0  0
   16.7452   -7.0452  -46.4241 S   0  0  0  0  0  0  0  0  0  0  0  0
   16.2283   -6.2582  -47.4568 O   0  0  0  0  0  0  0  0  0  0  0  0
   17.8487   -7.8813  -46.6658 O   0  0  0  0  0  0  0  0  0  0  0  0
   15.4481   -7.9573  -45.5631 C   0  0  0  0  0  0  0  0  0  0  0  0
   21.3459   -5.3294  -41.3140 C   0  0  0  0  0  0  0  0  0  0  0  0
   20.8221   -4.4375  -40.8662 N   0  0  0  0  0  0  0  0  0  0  0  0
 22 23  2  0  0  0
 22 21  1  0  0  0
 23 24  1  0  0  0
 21 20  2  0  0  0
 24 25  2  0  0  0
 15 14  2  0  0  0
 15 16  1  0  0  0
 20 25  1  0  0  0
 20 19  1  0  0  0
 25 26  1  0  0  0
 14 13  1  0  0  0
 16 11  2  0  0  0
 19 17  1  0  0  0
 27 26  1  0  0  0
 26 28  1  0  0  0
 13 12  2  0  0  0
 11 12  1  0  0  0
 11  8  1  0  0  0
  9  8  2  0  0  0
  9  5  1  0  0  0
 17  4  1  0  0  0
  8  7  1  0  0  0
 30 28  2  0  0  0
 28 29  2  0  0  0
 28 31  1  0  0  0
  5  4  2  0  0  0
  5  6  1  0  0  0
  4  3  1  0  0  0
  7  6  1  0  0  0
  6  1  2  0  0  0
  3 32  1  0  0  0
  3  2  2  0  0  0
 32 33  3  0  0  0
  1  2  1  0  0  0
 17 18  1  0  0  0
  7 10  1  0  0  0
M  END
> <minimizedAffinity>
-7.80431

$$$$
4GU6_10N_A_701


 33 36  0  0  0  0  0  0  0  0999 V2000
   24.5374   -8.4433  -42.5978 N   0  0  0  0  0  0  0  0  0  0  0  0
   24.3881   -9.3758  -43.4895 C   0  0  0  0  0  0  0  0  0  0  0  0
   23.1997   -9.5167  -44.2017 C   0  0  0  0  0  0  0  0  0  0  0  0
   22.1272   -8.6363  -43.9562 C   0  0  0  0  0  0  0  0  0  0  0  0
   22.3314   -7.6424  -42.9749 C   0  0  0  0  0  0  0  0  0  0  0  0
   23.5735   -7.5882  -42.3143 C   0  0  0  0  0  0  0  0  0  0  0  0
   23.5325   -6.5603  -41.4289 N   0  0  0  0  0  0  0  0  0  0  0  0
   22.3207   -5.9398  -41.4763 C   0  0  0  0  0  0  0  0  0  0  0  0
   21.5390   -6.5522  -42.4026 C   0  0  0  0  0  0  0  0  0  0  0  0
   24.2741   -6.2999  -40.8360 H   0  0  0  0  0  0  0  0  0  0  0  0
   21.9769   -4.7834  -40.6253 C   0  0  0  0  0  0  0  0  0  0  0  0
   21.5013   -3.6133  -41.2194 C   0  0  0  0  0  0  0  0  0  0  0  0
   21.1746   -2.5261  -40.4412 C   0  0  0  0  0  0  0  0  0  0  0  0
   21.3111   -2.5969  -39.0711 C   0  0  0  0  0  0  0  0  0  0  0  0
   21.7784   -3.7520  -38.4753 C   0  0  0  0  0  0  0  0  0  0  0  0
   22.1099   -4.8454  -39.2416 C   0  0  0  0  0  0  0  0  0  0  0  0
   20.9557   -8.8068  -44.6787 N   0  0  0  0  0  0  0  0  0  0  0  0
   20.5480   -9.6952  -44.7957 H   0  0  0  0  0  0  0  0  0  0  0  0
   20.3526   -7.6051  -45.2599 C   0  0  0  0  0  0  0  0  0  0  0  0
   18.9735   -7.4223  -44.6642 C   0  0  0  0  0  0  0  0  0  0  0  0
   18.6958   -7.9553  -43.4207 C   0  0  0  0  0  0  0  0  0  0  0  0
   17.4295   -7.7841  -42.8856 C   0  0  0  0  0  0  0  0  0  0  0  0
   16.4849   -7.0884  -43.6019 C   0  0  0  0  0  0  0  0  0  0  0  0
   16.7699   -6.5914  -44.7843 N   0  0  0  0  0  0  0  0  0  0  0  0
   17.9596   -6.7347  -45.3327 C   0  0  0  0  0  0  0  0  0  0  0  0
   18.1578   -6.1623  -46.5821 N   0  0  0  0  0  0  0  0  0  0  0  0
   18.8013   -4.8563  -46.6679 C   0  0  0  0  0  0  0  0  0  0  0  0
   17.6273   -6.9136  -47.9561 S   0  0  0  0  0  0  0  0  0  0  0  0
   18.4798   -6.4627  -48.9676 O   0  0  0  0  0  0  0  0  0  0  0  0
   17.6183   -8.2737  -47.6022 O   0  0  0  0  0  0  0  0  0  0  0  0
   15.9399   -6.3177  -48.1868 C   0  0  0  0  0  0  0  0  0  0  0  0
   23.1041  -10.5568  -45.1721 C   0  0  0  0  0  0  0  0  0  0  0  0
   23.0288  -11.3723  -45.9464 N   0  0  0  0  0  0  0  0  0  0  0  0
 22 23  2  0  0  0
 22 21  1  0  0  0
 23 24  1  0  0  0
 21 20  2  0  0  0
 24 25  2  0  0  0
 15 14  2  0  0  0
 15 16  1  0  0  0
 20 25  1  0  0  0
 20 19  1  0  0  0
 25 26  1  0  0  0
 14 13  1  0  0  0
 16 11  2  0  0  0
 19 17  1  0  0  0
 27 26  1  0  0  0
 26 28  1  0  0  0
 13 12  2  0  0  0
 11 12  1  0  0  0
 11  8  1  0  0  0
  9  8  2  0  0  0
  9  5  1  0  0  0
 17  4  1  0  0  0
  8  7  1  0  0  0
 30 28  2  0  0  0
 28 29  2  0  0  0
 28 31  1  0  0  0
  5  4  2  0  0  0
  5  6  1  0  0  0
  4  3  1  0  0  0
  7  6  1  0  0  0
  6  1  2  0  0  0
  3 32  1  0  0  0
  3  2  2  0  0  0
 32 33  3  0  0  0
  1  2  1  0  0  0
 17 18  1  0  0  0
  7 10  1  0  0  0
M  END
> <minimizedAffinity>
-7.78623

$$$$
