4LEQ_1WK_A_401


 35 38  0  0  0  0  0  0  0  0999 V2000
    9.8019   17.3890   91.2747 C   0  0  0  0  0  0  0  0  0  0  0  0
   10.8180   17.7070   90.3687 C   0  0  0  0  0  0  0  0  0  0  0  0
   10.5360   17.5596   89.0122 C   0  0  0  0  0  0  0  0  0  0  0  0
    9.2922   17.1065   88.5909 C   0  0  0  0  0  0  0  0  0  0  0  0
    8.2510   16.7788   89.4579 C   0  0  0  0  0  0  0  0  0  0  0  0
    8.5436   16.9224   90.8476 C   0  0  0  0  0  0  0  0  0  0  0  0
   10.0329   17.5314   92.7269 C   0  0  0  0  0  0  0  0  0  0  0  0
    7.5436   16.6124   91.7865 N   0  0  0  0  0  0  0  0  0  0  0  0
    7.7674   16.7604   93.0515 C   0  0  0  0  0  0  0  0  0  0  0  0
    6.8065   16.4922   93.9609 N   0  0  0  0  0  0  0  0  0  0  0  0
    8.9687   17.2135   93.5315 N   0  0  0  0  0  0  0  0  0  0  0  0
   11.1037   17.9037   93.1955 O   0  0  0  0  0  0  0  0  0  0  0  0
   11.3345   17.8364   87.9404 N   0  0  0  0  0  0  0  0  0  0  0  0
    9.3672   17.1149   87.2220 N   0  0  0  0  0  0  0  0  0  0  0  0
   10.6217   17.5501   86.8756 C   0  0  0  0  0  0  0  0  0  0  0  0
    5.9265   16.1644   93.6651 H   0  0  0  0  0  0  0  0  0  0  0  0
    6.9856   16.6244   94.9199 H   0  0  0  0  0  0  0  0  0  0  0  0
    9.0731   17.3160   94.5050 H   0  0  0  0  0  0  0  0  0  0  0  0
   12.2566   18.1806   87.9614 H   0  0  0  0  0  0  0  0  0  0  0  0
   11.0037   17.6894   85.5993 N   0  0  0  0  0  0  0  0  0  0  0  0
   10.0957   18.1199   84.5562 C   0  0  0  0  0  0  0  0  0  0  0  0
   11.9382   17.4915   85.3610 H   0  0  0  0  0  0  0  0  0  0  0  0
    6.9346   16.2457   88.9357 C   0  0  0  0  0  0  0  0  0  0  0  0
    6.0386   17.2495   88.2674 C   0  0  0  0  0  0  0  0  0  0  0  0
    3.3412   16.1022   86.0895 C   0  0  0  0  0  0  0  0  0  0  0  0
    2.2890   15.4480   86.7709 O   0  0  0  0  0  0  0  0  0  0  0  0
    4.6988   15.7504   86.6824 C   0  0  0  0  0  0  0  0  0  0  0  0
    4.7122   14.3564   87.0529 O   0  0  0  0  0  0  0  0  0  0  0  0
    4.6826   16.6407   87.9300 C   0  0  0  0  0  0  0  0  0  0  0  0
    3.8528   17.7819   87.6109 O   0  0  0  0  0  0  0  0  0  0  0  0
    3.3283   17.6218   86.2912 C   0  0  0  0  0  0  0  0  0  0  0  0
    2.3326   15.6631   87.7157 H   0  0  0  0  0  0  0  0  0  0  0  0
    3.9628   14.1707   87.6401 H   0  0  0  0  0  0  0  0  0  0  0  0
    4.2341   18.2546   85.3746 O   0  0  0  0  0  0  0  0  0  0  0  0
    4.3720   19.6580   85.6276 C   0  0  0  0  0  0  0  0  0  0  0  0
 21 20  1  0  0  0
 34 35  1  0  0  0
 34 31  1  0  0  0
 20 15  1  0  0  0
 25 31  1  0  0  0
 25 27  1  0  0  0
 25 26  1  0  0  0
 31 30  1  0  0  0
 27 28  1  0  0  0
 27 29  1  0  0  0
 15 14  2  0  0  0
 15 13  1  0  0  0
 14  4  1  0  0  0
 30 29  1  0  0  0
 13  3  1  0  0  0
 29 24  1  0  0  0
 24 23  1  0  0  0
  4  3  2  0  0  0
  4  5  1  0  0  0
 23  5  1  0  0  0
  3  2  1  0  0  0
  5  6  2  0  0  0
  2  1  2  0  0  0
  6  1  1  0  0  0
  6  8  1  0  0  0
  1  7  1  0  0  0
  8  9  2  0  0  0
  7 12  2  0  0  0
  7 11  1  0  0  0
  9 11  1  0  0  0
  9 10  1  0  0  0
 10 16  1  0  0  0
 10 17  1  0  0  0
 11 18  1  0  0  0
 13 19  1  0  0  0
 20 22  1  0  0  0
 26 32  1  0  0  0
 28 33  1  0  0  0
M  END
> <minimizedAffinity>
-10.76043

$$$$
4LEQ_1WK_A_401


 35 38  0  0  0  0  0  0  0  0999 V2000
   10.2158   17.4603   89.0839 C   0  0  0  0  0  0  0  0  0  0  0  0
   10.9917   17.7776   87.9652 C   0  0  0  0  0  0  0  0  0  0  0  0
   10.3676   17.7366   86.7202 C   0  0  0  0  0  0  0  0  0  0  0  0
    9.0282   17.3855   86.6088 C   0  0  0  0  0  0  0  0  0  0  0  0
    8.2174   17.0626   87.6958 C   0  0  0  0  0  0  0  0  0  0  0  0
    8.8598   17.0970   88.9700 C   0  0  0  0  0  0  0  0  0  0  0  0
   10.8143   17.4931   90.4342 C   0  0  0  0  0  0  0  0  0  0  0  0
    8.1083   16.7846   90.1168 N   0  0  0  0  0  0  0  0  0  0  0  0
    8.6532   16.8356   91.2884 C   0  0  0  0  0  0  0  0  0  0  0  0
    7.9349   16.5645   92.3987 N   0  0  0  0  0  0  0  0  0  0  0  0
    9.9664   17.1853   91.4673 N   0  0  0  0  0  0  0  0  0  0  0  0
   11.9928   17.7707   90.6315 O   0  0  0  0  0  0  0  0  0  0  0  0
   10.8889   18.0365   85.4949 N   0  0  0  0  0  0  0  0  0  0  0  0
    8.7568   17.4796   85.2682 N   0  0  0  0  0  0  0  0  0  0  0  0
    9.9122   17.8629   84.6347 C   0  0  0  0  0  0  0  0  0  0  0  0
    6.9874   16.3087   92.3218 H   0  0  0  0  0  0  0  0  0  0  0  0
    8.3587   16.6226   93.2855 H   0  0  0  0  0  0  0  0  0  0  0  0
   10.3195   17.2173   92.3857 H   0  0  0  0  0  0  0  0  0  0  0  0
   11.8093   18.3242   85.2966 H   0  0  0  0  0  0  0  0  0  0  0  0
    9.9701   18.0635   83.3116 N   0  0  0  0  0  0  0  0  0  0  0  0
    9.0168   17.4778   82.3917 C   0  0  0  0  0  0  0  0  0  0  0  0
   10.6887   18.6312   82.9502 H   0  0  0  0  0  0  0  0  0  0  0  0
    6.7767   16.6426   87.5016 C   0  0  0  0  0  0  0  0  0  0  0  0
    5.7429   17.6982   87.7738 C   0  0  0  0  0  0  0  0  0  0  0  0
    3.1914   15.5925   86.2272 C   0  0  0  0  0  0  0  0  0  0  0  0
    1.9014   15.7463   86.7851 O   0  0  0  0  0  0  0  0  0  0  0  0
    4.2761   15.6554   87.2939 C   0  0  0  0  0  0  0  0  0  0  0  0
    3.8178   14.9785   88.4825 O   0  0  0  0  0  0  0  0  0  0  0  0
    4.3353   17.1697   87.5237 C   0  0  0  0  0  0  0  0  0  0  0  0
    3.9410   17.7910   86.2782 O   0  0  0  0  0  0  0  0  0  0  0  0
    3.6003   16.7714   85.3366 C   0  0  0  0  0  0  0  0  0  0  0  0
    1.8624   16.5763   87.2856 H   0  0  0  0  0  0  0  0  0  0  0  0
    2.9668   15.3523   88.7596 H   0  0  0  0  0  0  0  0  0  0  0  0
    4.7818   16.4459   84.5890 O   0  0  0  0  0  0  0  0  0  0  0  0
    5.3640   17.5959   83.9635 C   0  0  0  0  0  0  0  0  0  0  0  0
 21 20  1  0  0  0
 34 35  1  0  0  0
 34 31  1  0  0  0
 20 15  1  0  0  0
 25 31  1  0  0  0
 25 27  1  0  0  0
 25 26  1  0  0  0
 31 30  1  0  0  0
 27 28  1  0  0  0
 27 29  1  0  0  0
 15 14  2  0  0  0
 15 13  1  0  0  0
 14  4  1  0  0  0
 30 29  1  0  0  0
 13  3  1  0  0  0
 29 24  1  0  0  0
 24 23  1  0  0  0
  4  3  2  0  0  0
  4  5  1  0  0  0
 23  5  1  0  0  0
  3  2  1  0  0  0
  5  6  2  0  0  0
  2  1  2  0  0  0
  6  1  1  0  0  0
  6  8  1  0  0  0
  1  7  1  0  0  0
  8  9  2  0  0  0
  7 12  2  0  0  0
  7 11  1  0  0  0
  9 11  1  0  0  0
  9 10  1  0  0  0
 10 16  1  0  0  0
 10 17  1  0  0  0
 11 18  1  0  0  0
 13 19  1  0  0  0
 20 22  1  0  0  0
 26 32  1  0  0  0
 28 33  1  0  0  0
M  END
> <minimizedAffinity>
-9.13555

$$$$
4LEQ_1WK_A_401


 35 38  0  0  0  0  0  0  0  0999 V2000
    5.5720   16.4545   87.1466 C   0  0  0  0  0  0  0  0  0  0  0  0
    6.5098   16.1589   88.1403 C   0  0  0  0  0  0  0  0  0  0  0  0
    7.8046   16.6417   87.9631 C   0  0  0  0  0  0  0  0  0  0  0  0
    8.1387   17.3803   86.8350 C   0  0  0  0  0  0  0  0  0  0  0  0
    7.2370   17.6988   85.8208 C   0  0  0  0  0  0  0  0  0  0  0  0
    5.9128   17.1968   85.9993 C   0  0  0  0  0  0  0  0  0  0  0  0
    4.1791   15.9798   87.2776 C   0  0  0  0  0  0  0  0  0  0  0  0
    4.9438   17.4768   85.0193 N   0  0  0  0  0  0  0  0  0  0  0  0
    3.7279   17.0617   85.1662 C   0  0  0  0  0  0  0  0  0  0  0  0
    2.7826   17.3474   84.2458 N   0  0  0  0  0  0  0  0  0  0  0  0
    3.3315   16.3382   86.2607 N   0  0  0  0  0  0  0  0  0  0  0  0
    3.7944   15.3039   88.2263 O   0  0  0  0  0  0  0  0  0  0  0  0
    8.8798   16.5243   88.7959 N   0  0  0  0  0  0  0  0  0  0  0  0
    9.4591   17.7036   87.0124 N   0  0  0  0  0  0  0  0  0  0  0  0
    9.8667   17.1550   88.2025 C   0  0  0  0  0  0  0  0  0  0  0  0
    3.0185   17.8648   83.4421 H   0  0  0  0  0  0  0  0  0  0  0  0
    1.8573   17.0384   84.3782 H   0  0  0  0  0  0  0  0  0  0  0  0
    2.3886   16.0612   86.3200 H   0  0  0  0  0  0  0  0  0  0  0  0
    8.9092   16.0612   89.6641 H   0  0  0  0  0  0  0  0  0  0  0  0
   11.1108   17.3110   88.6735 N   0  0  0  0  0  0  0  0  0  0  0  0
   11.4107   17.3364   90.0904 C   0  0  0  0  0  0  0  0  0  0  0  0
   11.8504   17.4124   88.0317 H   0  0  0  0  0  0  0  0  0  0  0  0
    7.6768   18.4677   84.5940 C   0  0  0  0  0  0  0  0  0  0  0  0
    7.7056   17.6914   83.3080 C   0  0  0  0  0  0  0  0  0  0  0  0
   11.0417   18.6084   82.1394 C   0  0  0  0  0  0  0  0  0  0  0  0
   11.9367   17.5185   82.0382 O   0  0  0  0  0  0  0  0  0  0  0  0
   10.1397   18.4833   83.3597 C   0  0  0  0  0  0  0  0  0  0  0  0
   10.8999   17.9496   84.4635 O   0  0  0  0  0  0  0  0  0  0  0  0
    9.1364   17.4460   82.8434 C   0  0  0  0  0  0  0  0  0  0  0  0
    9.0746   17.6120   81.4076 O   0  0  0  0  0  0  0  0  0  0  0  0
    9.9985   18.6296   81.0163 C   0  0  0  0  0  0  0  0  0  0  0  0
   11.4353   16.6882   82.0280 H   0  0  0  0  0  0  0  0  0  0  0  0
   11.3206   17.1181   84.1943 H   0  0  0  0  0  0  0  0  0  0  0  0
    9.2994   19.8835   81.0081 O   0  0  0  0  0  0  0  0  0  0  0  0
   10.1277   20.9654   80.5654 C   0  0  0  0  0  0  0  0  0  0  0  0
 21 20  1  0  0  0
 34 35  1  0  0  0
 34 31  1  0  0  0
 20 15  1  0  0  0
 25 31  1  0  0  0
 25 27  1  0  0  0
 25 26  1  0  0  0
 31 30  1  0  0  0
 27 28  1  0  0  0
 27 29  1  0  0  0
 15 14  2  0  0  0
 15 13  1  0  0  0
 14  4  1  0  0  0
 30 29  1  0  0  0
 13  3  1  0  0  0
 29 24  1  0  0  0
 24 23  1  0  0  0
  4  3  2  0  0  0
  4  5  1  0  0  0
 23  5  1  0  0  0
  3  2  1  0  0  0
  5  6  2  0  0  0
  2  1  2  0  0  0
  6  1  1  0  0  0
  6  8  1  0  0  0
  1  7  1  0  0  0
  8  9  2  0  0  0
  7 12  2  0  0  0
  7 11  1  0  0  0
  9 11  1  0  0  0
  9 10  1  0  0  0
 10 16  1  0  0  0
 10 17  1  0  0  0
 11 18  1  0  0  0
 13 19  1  0  0  0
 20 22  1  0  0  0
 26 32  1  0  0  0
 28 33  1  0  0  0
M  END
> <minimizedAffinity>
-9.01223

$$$$
4LEQ_1WK_A_401


 35 38  0  0  0  0  0  0  0  0999 V2000
    7.3945   17.0905   88.0172 C   0  0  0  0  0  0  0  0  0  0  0  0
    6.0118   16.9614   88.1778 C   0  0  0  0  0  0  0  0  0  0  0  0
    5.2025   17.3848   87.1257 C   0  0  0  0  0  0  0  0  0  0  0  0
    5.7607   17.9191   85.9713 C   0  0  0  0  0  0  0  0  0  0  0  0
    7.1319   18.0658   85.7682 C   0  0  0  0  0  0  0  0  0  0  0  0
    7.9598   17.6393   86.8499 C   0  0  0  0  0  0  0  0  0  0  0  0
    8.3092   16.6524   89.0915 C   0  0  0  0  0  0  0  0  0  0  0  0
    9.3556   17.7537   86.7213 N   0  0  0  0  0  0  0  0  0  0  0  0
   10.1341   17.3486   87.6710 C   0  0  0  0  0  0  0  0  0  0  0  0
   11.4760   17.4281   87.5480 N   0  0  0  0  0  0  0  0  0  0  0  0
    9.6472   16.8024   88.8301 N   0  0  0  0  0  0  0  0  0  0  0  0
    7.9106   16.1880   90.1547 O   0  0  0  0  0  0  0  0  0  0  0  0
    3.8426   17.3308   87.0210 N   0  0  0  0  0  0  0  0  0  0  0  0
    4.6874   18.1914   85.1629 N   0  0  0  0  0  0  0  0  0  0  0  0
    3.5510   17.8320   85.8431 C   0  0  0  0  0  0  0  0  0  0  0  0
   11.8737   17.8127   86.7337 H   0  0  0  0  0  0  0  0  0  0  0  0
   12.0570   17.1014   88.2725 H   0  0  0  0  0  0  0  0  0  0  0  0
   10.2919   16.5020   89.5108 H   0  0  0  0  0  0  0  0  0  0  0  0
    3.2097   16.9863   87.6919 H   0  0  0  0  0  0  0  0  0  0  0  0
    2.3285   17.9560   85.3099 N   0  0  0  0  0  0  0  0  0  0  0  0
    1.8936   19.1573   84.6274 C   0  0  0  0  0  0  0  0  0  0  0  0
    1.7009   17.2011   85.3848 H   0  0  0  0  0  0  0  0  0  0  0  0
    7.6739   18.6994   84.5054 C   0  0  0  0  0  0  0  0  0  0  0  0
    7.6768   17.8270   83.2824 C   0  0  0  0  0  0  0  0  0  0  0  0
   11.0075   18.6582   82.0367 C   0  0  0  0  0  0  0  0  0  0  0  0
   11.8875   17.5539   81.9632 O   0  0  0  0  0  0  0  0  0  0  0  0
   10.1210   18.5889   83.2728 C   0  0  0  0  0  0  0  0  0  0  0  0
   10.8897   18.0856   84.3850 O   0  0  0  0  0  0  0  0  0  0  0  0
    9.0979   17.5466   82.8078 C   0  0  0  0  0  0  0  0  0  0  0  0
    9.0183   17.6613   81.3679 O   0  0  0  0  0  0  0  0  0  0  0  0
    9.9493   18.6522   80.9277 C   0  0  0  0  0  0  0  0  0  0  0  0
   11.3758   16.7303   81.9899 H   0  0  0  0  0  0  0  0  0  0  0  0
   11.2963   17.2396   84.1405 H   0  0  0  0  0  0  0  0  0  0  0  0
    9.2657   19.9139   80.8833 O   0  0  0  0  0  0  0  0  0  0  0  0
   10.1337   20.9901   80.5079 C   0  0  0  0  0  0  0  0  0  0  0  0
 21 20  1  0  0  0
 34 35  1  0  0  0
 34 31  1  0  0  0
 20 15  1  0  0  0
 25 31  1  0  0  0
 25 27  1  0  0  0
 25 26  1  0  0  0
 31 30  1  0  0  0
 27 28  1  0  0  0
 27 29  1  0  0  0
 15 14  2  0  0  0
 15 13  1  0  0  0
 14  4  1  0  0  0
 30 29  1  0  0  0
 13  3  1  0  0  0
 29 24  1  0  0  0
 24 23  1  0  0  0
  4  3  2  0  0  0
  4  5  1  0  0  0
 23  5  1  0  0  0
  3  2  1  0  0  0
  5  6  2  0  0  0
  2  1  2  0  0  0
  6  1  1  0  0  0
  6  8  1  0  0  0
  1  7  1  0  0  0
  8  9  2  0  0  0
  7 12  2  0  0  0
  7 11  1  0  0  0
  9 11  1  0  0  0
  9 10  1  0  0  0
 10 16  1  0  0  0
 10 17  1  0  0  0
 11 18  1  0  0  0
 13 19  1  0  0  0
 20 22  1  0  0  0
 26 32  1  0  0  0
 28 33  1  0  0  0
M  END
> <minimizedAffinity>
-8.89367

$$$$
4LEQ_1WK_A_401


 35 38  0  0  0  0  0  0  0  0999 V2000
   10.0399   17.4208   88.8443 C   0  0  0  0  0  0  0  0  0  0  0  0
   10.8270   17.7393   87.7337 C   0  0  0  0  0  0  0  0  0  0  0  0
   10.1966   17.7788   86.4919 C   0  0  0  0  0  0  0  0  0  0  0  0
    8.8400   17.5033   86.3754 C   0  0  0  0  0  0  0  0  0  0  0  0
    8.0177   17.1822   87.4542 C   0  0  0  0  0  0  0  0  0  0  0  0
    8.6662   17.1340   88.7248 C   0  0  0  0  0  0  0  0  0  0  0  0
   10.6448   17.3704   90.1911 C   0  0  0  0  0  0  0  0  0  0  0  0
    7.9038   16.8181   89.8635 N   0  0  0  0  0  0  0  0  0  0  0  0
    8.4555   16.7955   91.0329 C   0  0  0  0  0  0  0  0  0  0  0  0
    7.7284   16.5204   92.1365 N   0  0  0  0  0  0  0  0  0  0  0  0
    9.7860   17.0685   91.2170 N   0  0  0  0  0  0  0  0  0  0  0  0
   11.8372   17.5778   90.3917 O   0  0  0  0  0  0  0  0  0  0  0  0
   10.7280   18.0975   85.2756 N   0  0  0  0  0  0  0  0  0  0  0  0
    8.5686   17.6628   85.0410 N   0  0  0  0  0  0  0  0  0  0  0  0
    9.7401   18.0086   84.4154 C   0  0  0  0  0  0  0  0  0  0  0  0
    6.7683   16.3180   92.0556 H   0  0  0  0  0  0  0  0  0  0  0  0
    8.1582   16.5221   93.0222 H   0  0  0  0  0  0  0  0  0  0  0  0
   10.1440   17.0467   92.1338 H   0  0  0  0  0  0  0  0  0  0  0  0
   11.6615   18.3437   85.0828 H   0  0  0  0  0  0  0  0  0  0  0  0
    9.8031   18.2563   83.1006 N   0  0  0  0  0  0  0  0  0  0  0  0
   11.0579   18.3346   82.3812 C   0  0  0  0  0  0  0  0  0  0  0  0
    8.9639   18.3903   82.6037 H   0  0  0  0  0  0  0  0  0  0  0  0
    6.5560   16.8465   87.2529 C   0  0  0  0  0  0  0  0  0  0  0  0
    5.6076   18.0116   87.2623 C   0  0  0  0  0  0  0  0  0  0  0  0
    3.0390   17.9130   84.6684 C   0  0  0  0  0  0  0  0  0  0  0  0
    3.3951   18.5889   83.4786 O   0  0  0  0  0  0  0  0  0  0  0  0
    3.5340   18.6521   85.9042 C   0  0  0  0  0  0  0  0  0  0  0  0
    3.3898   20.0731   85.7014 O   0  0  0  0  0  0  0  0  0  0  0  0
    5.0130   18.2504   85.8794 C   0  0  0  0  0  0  0  0  0  0  0  0
    5.0772   16.9548   85.2389 O   0  0  0  0  0  0  0  0  0  0  0  0
    3.7623   16.5713   84.8313 C   0  0  0  0  0  0  0  0  0  0  0  0
    4.3561   18.7190   83.4559 H   0  0  0  0  0  0  0  0  0  0  0  0
    3.8374   20.3295   84.8800 H   0  0  0  0  0  0  0  0  0  0  0  0
    3.1717   15.8121   85.8971 O   0  0  0  0  0  0  0  0  0  0  0  0
    3.9662   14.6769   86.2617 C   0  0  0  0  0  0  0  0  0  0  0  0
 21 20  1  0  0  0
 34 35  1  0  0  0
 34 31  1  0  0  0
 20 15  1  0  0  0
 25 31  1  0  0  0
 25 27  1  0  0  0
 25 26  1  0  0  0
 31 30  1  0  0  0
 27 28  1  0  0  0
 27 29  1  0  0  0
 15 14  2  0  0  0
 15 13  1  0  0  0
 14  4  1  0  0  0
 30 29  1  0  0  0
 13  3  1  0  0  0
 29 24  1  0  0  0
 24 23  1  0  0  0
  4  3  2  0  0  0
  4  5  1  0  0  0
 23  5  1  0  0  0
  3  2  1  0  0  0
  5  6  2  0  0  0
  2  1  2  0  0  0
  6  1  1  0  0  0
  6  8  1  0  0  0
  1  7  1  0  0  0
  8  9  2  0  0  0
  7 12  2  0  0  0
  7 11  1  0  0  0
  9 11  1  0  0  0
  9 10  1  0  0  0
 10 16  1  0  0  0
 10 17  1  0  0  0
 11 18  1  0  0  0
 13 19  1  0  0  0
 20 22  1  0  0  0
 26 32  1  0  0  0
 28 33  1  0  0  0
M  END
> <minimizedAffinity>
-8.71774

$$$$
4LEQ_1WK_A_401


 35 38  0  0  0  0  0  0  0  0999 V2000
    7.9289   16.8338   89.0946 C   0  0  0  0  0  0  0  0  0  0  0  0
    6.5626   16.6387   88.8720 C   0  0  0  0  0  0  0  0  0  0  0  0
    6.1139   16.6949   87.5541 C   0  0  0  0  0  0  0  0  0  0  0  0
    6.9993   16.9432   86.5128 C   0  0  0  0  0  0  0  0  0  0  0  0
    8.3677   17.1427   86.6883 C   0  0  0  0  0  0  0  0  0  0  0  0
    8.8250   17.0930   88.0395 C   0  0  0  0  0  0  0  0  0  0  0  0
    8.4711   16.7782   90.4677 C   0  0  0  0  0  0  0  0  0  0  0  0
   10.1939   17.2836   88.2993 N   0  0  0  0  0  0  0  0  0  0  0  0
   10.6444   17.2149   89.5095 C   0  0  0  0  0  0  0  0  0  0  0  0
   11.9603   17.3691   89.7684 N   0  0  0  0  0  0  0  0  0  0  0  0
    9.8256   16.9625   90.5793 N   0  0  0  0  0  0  0  0  0  0  0  0
    7.7658   16.5857   91.4528 O   0  0  0  0  0  0  0  0  0  0  0  0
    4.8505   16.5024   87.0747 N   0  0  0  0  0  0  0  0  0  0  0  0
    6.2244   16.8981   85.3826 N   0  0  0  0  0  0  0  0  0  0  0  0
    4.9335   16.6422   85.7718 C   0  0  0  0  0  0  0  0  0  0  0  0
   12.5886   17.5520   89.0329 H   0  0  0  0  0  0  0  0  0  0  0  0
   12.2916   17.2986   90.6928 H   0  0  0  0  0  0  0  0  0  0  0  0
   10.2311   16.9107   91.4749 H   0  0  0  0  0  0  0  0  0  0  0  0
    4.0421   16.3000   87.5988 H   0  0  0  0  0  0  0  0  0  0  0  0
    3.9322   16.5166   84.8911 N   0  0  0  0  0  0  0  0  0  0  0  0
    3.0671   17.6212   84.5312 C   0  0  0  0  0  0  0  0  0  0  0  0
    3.7781   15.6392   84.4720 H   0  0  0  0  0  0  0  0  0  0  0  0
    9.2709   17.4557   85.5152 C   0  0  0  0  0  0  0  0  0  0  0  0
    9.1705   18.8492   84.9630 C   0  0  0  0  0  0  0  0  0  0  0  0
    9.7696   17.8704   81.4961 C   0  0  0  0  0  0  0  0  0  0  0  0
    8.8041   18.3567   80.5849 O   0  0  0  0  0  0  0  0  0  0  0  0
    9.1363   17.4539   82.8167 C   0  0  0  0  0  0  0  0  0  0  0  0
    7.8676   16.8174   82.5590 O   0  0  0  0  0  0  0  0  0  0  0  0
    8.9294   18.8305   83.4581 C   0  0  0  0  0  0  0  0  0  0  0  0
    9.9613   19.6927   82.9245 O   0  0  0  0  0  0  0  0  0  0  0  0
   10.7376   18.9579   81.9760 C   0  0  0  0  0  0  0  0  0  0  0  0
    8.3143   19.0881   80.9924 H   0  0  0  0  0  0  0  0  0  0  0  0
    7.3141   17.4055   82.0217 H   0  0  0  0  0  0  0  0  0  0  0  0
   11.8457   18.3678   82.6725 O   0  0  0  0  0  0  0  0  0  0  0  0
   12.9287   18.0403   81.7935 C   0  0  0  0  0  0  0  0  0  0  0  0
 21 20  1  0  0  0
 34 35  1  0  0  0
 34 31  1  0  0  0
 20 15  1  0  0  0
 25 31  1  0  0  0
 25 27  1  0  0  0
 25 26  1  0  0  0
 31 30  1  0  0  0
 27 28  1  0  0  0
 27 29  1  0  0  0
 15 14  2  0  0  0
 15 13  1  0  0  0
 14  4  1  0  0  0
 30 29  1  0  0  0
 13  3  1  0  0  0
 29 24  1  0  0  0
 24 23  1  0  0  0
  4  3  2  0  0  0
  4  5  1  0  0  0
 23  5  1  0  0  0
  3  2  1  0  0  0
  5  6  2  0  0  0
  2  1  2  0  0  0
  6  1  1  0  0  0
  6  8  1  0  0  0
  1  7  1  0  0  0
  8  9  2  0  0  0
  7 12  2  0  0  0
  7 11  1  0  0  0
  9 11  1  0  0  0
  9 10  1  0  0  0
 10 16  1  0  0  0
 10 17  1  0  0  0
 11 18  1  0  0  0
 13 19  1  0  0  0
 20 22  1  0  0  0
 26 32  1  0  0  0
 28 33  1  0  0  0
M  END
> <minimizedAffinity>
-8.42620

$$$$
4LEQ_1WK_A_401


 35 38  0  0  0  0  0  0  0  0999 V2000
    8.4949   16.8271   87.6478 C   0  0  0  0  0  0  0  0  0  0  0  0
    9.5363   17.6865   87.2855 C   0  0  0  0  0  0  0  0  0  0  0  0
    9.6176   18.0657   85.9473 C   0  0  0  0  0  0  0  0  0  0  0  0
    8.6978   17.5948   85.0189 C   0  0  0  0  0  0  0  0  0  0  0  0
    7.6447   16.7381   85.3354 C   0  0  0  0  0  0  0  0  0  0  0  0
    7.5670   16.3438   86.7050 C   0  0  0  0  0  0  0  0  0  0  0  0
    8.3468   16.3936   89.0524 C   0  0  0  0  0  0  0  0  0  0  0  0
    6.5309   15.4809   87.1043 N   0  0  0  0  0  0  0  0  0  0  0  0
    6.4154   15.1290   88.3433 C   0  0  0  0  0  0  0  0  0  0  0  0
    5.4091   14.3231   88.7435 N   0  0  0  0  0  0  0  0  0  0  0  0
    7.2830   15.5670   89.3097 N   0  0  0  0  0  0  0  0  0  0  0  0
    9.1210   16.7391   89.9390 O   0  0  0  0  0  0  0  0  0  0  0  0
   10.5066   18.9150   85.3543 N   0  0  0  0  0  0  0  0  0  0  0  0
    9.0645   18.1875   83.8382 N   0  0  0  0  0  0  0  0  0  0  0  0
   10.1680   18.9646   84.0867 C   0  0  0  0  0  0  0  0  0  0  0  0
    4.7600   13.9826   88.0862 H   0  0  0  0  0  0  0  0  0  0  0  0
    5.3241   14.0760   89.6927 H   0  0  0  0  0  0  0  0  0  0  0  0
    7.1349   15.2728   90.2375 H   0  0  0  0  0  0  0  0  0  0  0  0
   11.2498   19.3928   85.7885 H   0  0  0  0  0  0  0  0  0  0  0  0
   10.7584   19.6952   83.1318 N   0  0  0  0  0  0  0  0  0  0  0  0
   10.6759   19.3546   81.7264 C   0  0  0  0  0  0  0  0  0  0  0  0
   11.2684   20.4950   83.3956 H   0  0  0  0  0  0  0  0  0  0  0  0
    6.7044   16.2240   84.2670 C   0  0  0  0  0  0  0  0  0  0  0  0
    5.6319   17.1775   83.8224 C   0  0  0  0  0  0  0  0  0  0  0  0
    2.4875   17.7259   85.5967 C   0  0  0  0  0  0  0  0  0  0  0  0
    2.6478   18.1213   86.9447 O   0  0  0  0  0  0  0  0  0  0  0  0
    3.5232   16.6869   85.1890 C   0  0  0  0  0  0  0  0  0  0  0  0
    3.7414   15.7737   86.2842 O   0  0  0  0  0  0  0  0  0  0  0  0
    4.7438   17.5924   84.9896 C   0  0  0  0  0  0  0  0  0  0  0  0
    4.2349   18.8901   84.6021 O   0  0  0  0  0  0  0  0  0  0  0  0
    2.8064   18.8496   84.6038 C   0  0  0  0  0  0  0  0  0  0  0  0
    3.5517   18.4454   87.0813 H   0  0  0  0  0  0  0  0  0  0  0  0
    3.9746   16.2747   87.0813 H   0  0  0  0  0  0  0  0  0  0  0  0
    2.3718   18.4879   83.2843 O   0  0  0  0  0  0  0  0  0  0  0  0
    2.7475   19.4607   82.3019 C   0  0  0  0  0  0  0  0  0  0  0  0
 21 20  1  0  0  0
 34 35  1  0  0  0
 34 31  1  0  0  0
 20 15  1  0  0  0
 25 31  1  0  0  0
 25 27  1  0  0  0
 25 26  1  0  0  0
 31 30  1  0  0  0
 27 28  1  0  0  0
 27 29  1  0  0  0
 15 14  2  0  0  0
 15 13  1  0  0  0
 14  4  1  0  0  0
 30 29  1  0  0  0
 13  3  1  0  0  0
 29 24  1  0  0  0
 24 23  1  0  0  0
  4  3  2  0  0  0
  4  5  1  0  0  0
 23  5  1  0  0  0
  3  2  1  0  0  0
  5  6  2  0  0  0
  2  1  2  0  0  0
  6  1  1  0  0  0
  6  8  1  0  0  0
  1  7  1  0  0  0
  8  9  2  0  0  0
  7 12  2  0  0  0
  7 11  1  0  0  0
  9 11  1  0  0  0
  9 10  1  0  0  0
 10 16  1  0  0  0
 10 17  1  0  0  0
 11 18  1  0  0  0
 13 19  1  0  0  0
 20 22  1  0  0  0
 26 32  1  0  0  0
 28 33  1  0  0  0
M  END
> <minimizedAffinity>
-8.12982

$$$$
4LEQ_1WK_A_401


 35 38  0  0  0  0  0  0  0  0999 V2000
    8.2245   17.4199   87.0035 C   0  0  0  0  0  0  0  0  0  0  0  0
    9.5097   17.4710   86.4559 C   0  0  0  0  0  0  0  0  0  0  0  0
    9.6471   18.0527   85.1973 C   0  0  0  0  0  0  0  0  0  0  0  0
    8.5408   18.5515   84.5213 C   0  0  0  0  0  0  0  0  0  0  0  0
    7.2429   18.5222   85.0288 C   0  0  0  0  0  0  0  0  0  0  0  0
    7.1020   17.9189   86.3146 C   0  0  0  0  0  0  0  0  0  0  0  0
    8.0111   16.8240   88.3384 C   0  0  0  0  0  0  0  0  0  0  0  0
    5.8231   17.8520   86.8957 N   0  0  0  0  0  0  0  0  0  0  0  0
    5.6666   17.3385   88.0721 C   0  0  0  0  0  0  0  0  0  0  0  0
    4.4482   17.2935   88.6517 N   0  0  0  0  0  0  0  0  0  0  0  0
    6.7181   16.8391   88.7957 N   0  0  0  0  0  0  0  0  0  0  0  0
    8.9216   16.3391   89.0023 O   0  0  0  0  0  0  0  0  0  0  0  0
   10.7852   18.2560   84.4717 N   0  0  0  0  0  0  0  0  0  0  0  0
    9.0501   19.0621   83.3553 N   0  0  0  0  0  0  0  0  0  0  0  0
   10.4058   18.8497   83.3638 C   0  0  0  0  0  0  0  0  0  0  0  0
    3.6617   17.6401   88.1716 H   0  0  0  0  0  0  0  0  0  0  0  0
    4.3462   16.9140   89.5543 H   0  0  0  0  0  0  0  0  0  0  0  0
    6.5357   16.4720   89.6907 H   0  0  0  0  0  0  0  0  0  0  0  0
   11.7032   18.0082   84.7270 H   0  0  0  0  0  0  0  0  0  0  0  0
   11.2001   19.2558   82.3646 N   0  0  0  0  0  0  0  0  0  0  0  0
   12.2002   18.3965   81.7650 C   0  0  0  0  0  0  0  0  0  0  0  0
   11.1003   20.1743   82.0245 H   0  0  0  0  0  0  0  0  0  0  0  0
    6.0734   19.0407   84.2205 C   0  0  0  0  0  0  0  0  0  0  0  0
    5.7563   20.4998   84.3865 C   0  0  0  0  0  0  0  0  0  0  0  0
    2.1752   19.8487   84.0891 C   0  0  0  0  0  0  0  0  0  0  0  0
    1.3737   20.6295   84.9534 O   0  0  0  0  0  0  0  0  0  0  0  0
    3.4690   19.4129   84.7634 C   0  0  0  0  0  0  0  0  0  0  0  0
    3.2027   19.0858   86.1429 O   0  0  0  0  0  0  0  0  0  0  0  0
    4.2727   20.7143   84.6624 C   0  0  0  0  0  0  0  0  0  0  0  0
    3.7911   21.4055   83.4863 O   0  0  0  0  0  0  0  0  0  0  0  0
    2.7282   20.6484   82.9039 C   0  0  0  0  0  0  0  0  0  0  0  0
    1.8856   21.3905   85.2695 H   0  0  0  0  0  0  0  0  0  0  0  0
    2.7637   19.8356   86.5741 H   0  0  0  0  0  0  0  0  0  0  0  0
    3.2977   19.7638   81.9271 O   0  0  0  0  0  0  0  0  0  0  0  0
    2.2991   19.0173   81.2212 C   0  0  0  0  0  0  0  0  0  0  0  0
 21 20  1  0  0  0
 34 35  1  0  0  0
 34 31  1  0  0  0
 20 15  1  0  0  0
 25 31  1  0  0  0
 25 27  1  0  0  0
 25 26  1  0  0  0
 31 30  1  0  0  0
 27 28  1  0  0  0
 27 29  1  0  0  0
 15 14  2  0  0  0
 15 13  1  0  0  0
 14  4  1  0  0  0
 30 29  1  0  0  0
 13  3  1  0  0  0
 29 24  1  0  0  0
 24 23  1  0  0  0
  4  3  2  0  0  0
  4  5  1  0  0  0
 23  5  1  0  0  0
  3  2  1  0  0  0
  5  6  2  0  0  0
  2  1  2  0  0  0
  6  1  1  0  0  0
  6  8  1  0  0  0
  1  7  1  0  0  0
  8  9  2  0  0  0
  7 12  2  0  0  0
  7 11  1  0  0  0
  9 11  1  0  0  0
  9 10  1  0  0  0
 10 16  1  0  0  0
 10 17  1  0  0  0
 11 18  1  0  0  0
 13 19  1  0  0  0
 20 22  1  0  0  0
 26 32  1  0  0  0
 28 33  1  0  0  0
M  END
> <minimizedAffinity>
-8.09783

$$$$
4LEQ_1WK_A_401


 35 38  0  0  0  0  0  0  0  0999 V2000
    8.0225   16.7779   89.3135 C   0  0  0  0  0  0  0  0  0  0  0  0
    6.6673   16.5055   89.1052 C   0  0  0  0  0  0  0  0  0  0  0  0
    6.2143   16.4791   87.7878 C   0  0  0  0  0  0  0  0  0  0  0  0
    7.0846   16.7229   86.7329 C   0  0  0  0  0  0  0  0  0  0  0  0
    8.4417   16.9977   86.8939 C   0  0  0  0  0  0  0  0  0  0  0  0
    8.9030   17.0325   88.2442 C   0  0  0  0  0  0  0  0  0  0  0  0
    8.5690   16.8120   90.6856 C   0  0  0  0  0  0  0  0  0  0  0  0
   10.2612   17.3023   88.4898 N   0  0  0  0  0  0  0  0  0  0  0  0
   10.7165   17.3114   89.7001 C   0  0  0  0  0  0  0  0  0  0  0  0
   12.0235   17.5421   89.9467 N   0  0  0  0  0  0  0  0  0  0  0  0
    9.9129   17.0680   90.7834 N   0  0  0  0  0  0  0  0  0  0  0  0
    7.8756   16.6302   91.6811 O   0  0  0  0  0  0  0  0  0  0  0  0
    4.9612   16.2027   87.3225 N   0  0  0  0  0  0  0  0  0  0  0  0
    6.3112   16.5879   85.6089 N   0  0  0  0  0  0  0  0  0  0  0  0
    5.0352   16.2866   86.0143 C   0  0  0  0  0  0  0  0  0  0  0  0
   12.6408   17.7220   89.2012 H   0  0  0  0  0  0  0  0  0  0  0  0
   12.3594   17.5305   90.8721 H   0  0  0  0  0  0  0  0  0  0  0  0
   10.3218   17.0774   91.6789 H   0  0  0  0  0  0  0  0  0  0  0  0
    4.1646   15.9847   87.8584 H   0  0  0  0  0  0  0  0  0  0  0  0
    4.0399   16.0715   85.1441 N   0  0  0  0  0  0  0  0  0  0  0  0
    3.1898   17.1364   84.6529 C   0  0  0  0  0  0  0  0  0  0  0  0
    3.8799   15.1537   84.8259 H   0  0  0  0  0  0  0  0  0  0  0  0
    9.3265   17.3010   85.7043 C   0  0  0  0  0  0  0  0  0  0  0  0
    9.4449   18.7503   85.3269 C   0  0  0  0  0  0  0  0  0  0  0  0
    9.9873   20.0412   81.9541 C   0  0  0  0  0  0  0  0  0  0  0  0
    9.0678   19.5553   80.9963 O   0  0  0  0  0  0  0  0  0  0  0  0
   10.3809   18.9617   82.9533 C   0  0  0  0  0  0  0  0  0  0  0  0
   10.5117   17.6996   82.2670 O   0  0  0  0  0  0  0  0  0  0  0  0
    9.1372   18.9628   83.8493 C   0  0  0  0  0  0  0  0  0  0  0  0
    8.5893   20.3005   83.7916 O   0  0  0  0  0  0  0  0  0  0  0  0
    9.3741   21.0867   82.8926 C   0  0  0  0  0  0  0  0  0  0  0  0
    8.2926   19.1883   81.4494 H   0  0  0  0  0  0  0  0  0  0  0  0
    9.6946   17.5103   81.7798 H   0  0  0  0  0  0  0  0  0  0  0  0
   10.4022   21.7374   83.6547 O   0  0  0  0  0  0  0  0  0  0  0  0
   11.0440   22.7858   82.9188 C   0  0  0  0  0  0  0  0  0  0  0  0
 21 20  1  0  0  0
 34 35  1  0  0  0
 34 31  1  0  0  0
 20 15  1  0  0  0
 25 31  1  0  0  0
 25 27  1  0  0  0
 25 26  1  0  0  0
 31 30  1  0  0  0
 27 28  1  0  0  0
 27 29  1  0  0  0
 15 14  2  0  0  0
 15 13  1  0  0  0
 14  4  1  0  0  0
 30 29  1  0  0  0
 13  3  1  0  0  0
 29 24  1  0  0  0
 24 23  1  0  0  0
  4  3  2  0  0  0
  4  5  1  0  0  0
 23  5  1  0  0  0
  3  2  1  0  0  0
  5  6  2  0  0  0
  2  1  2  0  0  0
  6  1  1  0  0  0
  6  8  1  0  0  0
  1  7  1  0  0  0
  8  9  2  0  0  0
  7 12  2  0  0  0
  7 11  1  0  0  0
  9 11  1  0  0  0
  9 10  1  0  0  0
 10 16  1  0  0  0
 10 17  1  0  0  0
 11 18  1  0  0  0
 13 19  1  0  0  0
 20 22  1  0  0  0
 26 32  1  0  0  0
 28 33  1  0  0  0
M  END
> <minimizedAffinity>
-7.94946

$$$$
4LEQ_1WK_A_401


 35 38  0  0  0  0  0  0  0  0999 V2000
    5.6805   16.6447   87.1458 C   0  0  0  0  0  0  0  0  0  0  0  0
    6.6049   16.3544   88.1535 C   0  0  0  0  0  0  0  0  0  0  0  0
    7.9161   16.7858   87.9637 C   0  0  0  0  0  0  0  0  0  0  0  0
    8.2783   17.4700   86.8103 C   0  0  0  0  0  0  0  0  0  0  0  0
    7.3909   17.7811   85.7813 C   0  0  0  0  0  0  0  0  0  0  0  0
    6.0498   17.3317   85.9730 C   0  0  0  0  0  0  0  0  0  0  0  0
    4.2719   16.2231   87.2887 C   0  0  0  0  0  0  0  0  0  0  0  0
    5.0936   17.6079   84.9794 N   0  0  0  0  0  0  0  0  0  0  0  0
    3.8638   17.2404   85.1368 C   0  0  0  0  0  0  0  0  0  0  0  0
    2.9314   17.5238   84.2026 N   0  0  0  0  0  0  0  0  0  0  0  0
    3.4398   16.5722   86.2558 N   0  0  0  0  0  0  0  0  0  0  0  0
    3.8616   15.5967   88.2604 O   0  0  0  0  0  0  0  0  0  0  0  0
    8.9843   16.6628   88.8045 N   0  0  0  0  0  0  0  0  0  0  0  0
    9.6087   17.7543   86.9808 N   0  0  0  0  0  0  0  0  0  0  0  0
    9.9939   17.2368   88.1921 C   0  0  0  0  0  0  0  0  0  0  0  0
    3.1872   18.0024   83.3812 H   0  0  0  0  0  0  0  0  0  0  0  0
    1.9957   17.2517   84.3427 H   0  0  0  0  0  0  0  0  0  0  0  0
    2.4878   16.3300   86.3217 H   0  0  0  0  0  0  0  0  0  0  0  0
    8.9954   16.2316   89.6895 H   0  0  0  0  0  0  0  0  0  0  0  0
   11.2414   17.3676   88.6620 N   0  0  0  0  0  0  0  0  0  0  0  0
   11.5455   17.3641   90.0782 C   0  0  0  0  0  0  0  0  0  0  0  0
   11.9804   17.4702   88.0197 H   0  0  0  0  0  0  0  0  0  0  0  0
    7.8603   18.4882   84.5285 C   0  0  0  0  0  0  0  0  0  0  0  0
    7.2957   19.8615   84.2993 C   0  0  0  0  0  0  0  0  0  0  0  0
    9.6587   20.8904   81.7121 C   0  0  0  0  0  0  0  0  0  0  0  0
    9.0498   21.2744   80.4951 O   0  0  0  0  0  0  0  0  0  0  0  0
    8.9454   19.7048   82.3477 C   0  0  0  0  0  0  0  0  0  0  0  0
    8.5372   18.7830   81.3159 O   0  0  0  0  0  0  0  0  0  0  0  0
    7.7282   20.4175   82.9476 C   0  0  0  0  0  0  0  0  0  0  0  0
    8.1463   21.7712   83.2401 O   0  0  0  0  0  0  0  0  0  0  0  0
    9.5003   21.9422   82.8160 C   0  0  0  0  0  0  0  0  0  0  0  0
    8.1108   21.4630   80.6488 H   0  0  0  0  0  0  0  0  0  0  0  0
    8.0096   19.2539   80.6519 H   0  0  0  0  0  0  0  0  0  0  0  0
   10.3552   21.6324   83.9270 O   0  0  0  0  0  0  0  0  0  0  0  0
   11.3126   22.6673   84.1819 C   0  0  0  0  0  0  0  0  0  0  0  0
 21 20  1  0  0  0
 34 35  1  0  0  0
 34 31  1  0  0  0
 20 15  1  0  0  0
 25 31  1  0  0  0
 25 27  1  0  0  0
 25 26  1  0  0  0
 31 30  1  0  0  0
 27 28  1  0  0  0
 27 29  1  0  0  0
 15 14  2  0  0  0
 15 13  1  0  0  0
 14  4  1  0  0  0
 30 29  1  0  0  0
 13  3  1  0  0  0
 29 24  1  0  0  0
 24 23  1  0  0  0
  4  3  2  0  0  0
  4  5  1  0  0  0
 23  5  1  0  0  0
  3  2  1  0  0  0
  5  6  2  0  0  0
  2  1  2  0  0  0
  6  1  1  0  0  0
  6  8  1  0  0  0
  1  7  1  0  0  0
  8  9  2  0  0  0
  7 12  2  0  0  0
  7 11  1  0  0  0
  9 11  1  0  0  0
  9 10  1  0  0  0
 10 16  1  0  0  0
 10 17  1  0  0  0
 11 18  1  0  0  0
 13 19  1  0  0  0
 20 22  1  0  0  0
 26 32  1  0  0  0
 28 33  1  0  0  0
M  END
> <minimizedAffinity>
-7.85385

$$$$
