1CIZ_DPS_A_307
  RCSB PDB12061702103D
Coordinates from PDB:1CIZ:A:307 Model:1 without hydrogens
 36 40  0  0  0  0            999 V2000
   25.4560   51.1780   -2.3930   N 0  0  0  0  0  0  0  0  0  0  0  0
   27.6610   50.2570   -1.9370   C 0  0  0  0  0  0  0  0  0  0  0  0
   28.6140   49.7750   -1.0260   C 0  0  0  0  0  0  0  0  0  0  0  0
   28.2770   49.7360    0.3420   C 0  0  0  0  0  0  0  0  0  0  0  0
   26.9820   50.0630    0.7910   C 0  0  0  0  0  0  0  0  0  0  0  0
   32.5770   44.3250    0.6390   N 0  0  0  0  0  0  0  0  0  0  0  0
   29.0070   46.6580    2.0550   C 0  0  0  0  0  0  0  0  0  0  0  0
   20.9740   54.5130   -6.9150   C 0  0  0  0  0  0  0  0  0  0  0  0
   23.6950   52.6150   -4.2130   C 0  0  0  0  0  0  0  0  0  0  0  0
   21.2610   55.1230   -5.6720   C 0  0  0  0  0  0  0  0  0  0  0  0
   28.9740   49.5700    2.8350   O 0  0  0  0  0  0  0  0  0  0  0  0
   30.7430   49.9880    1.1760   O 0  0  0  0  0  0  0  0  0  0  0  0
   26.3820   50.6810   -1.4920   C 0  0  0  0  0  0  0  0  0  0  0  0
   26.0370   50.5360   -0.1270   C 0  0  0  0  0  0  0  0  0  0  0  0
   29.5300   49.3390    1.5320   S 0  0  0  0  0  0  0  0  0  0  0  0
   25.0140   52.0770   -4.7440   C 0  0  0  0  0  0  0  0  0  0  0  0
   23.4350   52.6960   -2.7220   C 0  0  0  0  0  0  0  0  0  0  0  0
   24.1100   51.5760   -1.9360   C 0  0  0  0  0  0  0  0  0  0  0  0
   25.7170   51.0580   -3.8440   C 0  0  0  0  0  0  0  0  0  0  0  0
   22.1510   54.4840   -4.7830   C 0  0  0  0  0  0  0  0  0  0  0  0
   22.7440   53.2500   -5.1440   C 0  0  0  0  0  0  0  0  0  0  0  0
   22.4440   52.6430   -6.3870   C 0  0  0  0  0  0  0  0  0  0  0  0
   21.5540   53.2750   -7.2800   C 0  0  0  0  0  0  0  0  0  0  0  0
   29.9310   47.6640    1.5190   N 0  0  0  0  0  0  0  0  0  0  0  0
   29.7920   45.5460    2.7920   C 0  0  0  0  0  0  0  0  0  0  0  0
   28.1190   46.1410    0.9550   C 0  0  0  0  0  0  0  0  0  0  0  0
   26.8490   45.7360    1.2070   O 0  0  0  0  0  0  0  0  0  0  0  0
   28.5190   46.0620   -0.1600   O 0  0  0  0  0  0  0  0  0  0  0  0
   30.4940   41.4500   -0.6950   C 0  0  0  0  0  0  0  0  0  0  0  0
   31.6400   42.2650   -0.5800   C 0  0  0  0  0  0  0  0  0  0  0  0
   31.6280   43.3590    0.3160   C 0  0  0  0  0  0  0  0  0  0  0  0
   30.4570   43.6210    1.0980   C 0  0  0  0  0  0  0  0  0  0  0  0
   29.3150   42.7940    0.9730   C 0  0  0  0  0  0  0  0  0  0  0  0
   29.3390   41.7040    0.0760   C 0  0  0  0  0  0  0  0  0  0  0  0
   32.0520   45.1740    1.5630   C 0  0  0  0  0  0  0  0  0  0  0  0
   30.7380   44.8020    1.8830   C 0  0  0  0  0  0  0  0  0  0  0  0
  1 13  1  0  0  0  0
  1 18  1  0  0  0  0
  1 19  1  0  0  0  0
  2  3  2  0  0  0  0
  2 13  1  0  0  0  0
  3  4  1  0  0  0  0
  4  5  2  0  0  0  0
  4 15  1  0  0  0  0
  5 14  1  0  0  0  0
  6 31  1  0  0  0  0
  6 35  1  0  0  0  0
  7 24  1  0  0  0  0
  7 25  1  0  0  0  0
  7 26  1  0  0  0  0
  8 10  2  0  0  0  0
  8 23  1  0  0  0  0
  9 16  1  0  0  0  0
  9 17  1  0  0  0  0
  9 21  1  0  0  0  0
 10 20  1  0  0  0  0
 11 15  2  0  0  0  0
 12 15  2  0  0  0  0
 13 14  2  0  0  0  0
 15 24  1  0  0  0  0
 16 19  1  0  0  0  0
 17 18  1  0  0  0  0
 20 21  2  0  0  0  0
 21 22  1  0  0  0  0
 22 23  2  0  0  0  0
 25 36  1  0  0  0  0
 26 27  2  0  0  0  0
 26 28  1  0  0  0  0
 29 30  2  0  0  0  0
 29 34  1  0  0  0  0
 30 31  1  0  0  0  0
 31 32  2  0  0  0  0
 32 33  1  0  0  0  0
 32 36  1  0  0  0  0
 33 34  2  0  0  0  0
 35 36  2  0  0  0  0
A    1
N1
A    2
C2
A    3
C3
A    4
C4
A    5
C5
A    6
N7
A    7
C8
A    8
C10
A    9
C11
A   10
C12
A   11
O1
A   12
O2
A   13
C1
A   14
C6
A   15
S
A   16
C7
A   17
C13
A   18
C15
A   19
C18
A   20
C14
A   21
C16
A   22
C17
A   23
C19
A   24
N
A   25
C20
A   26
C9
A   27
O3
A   28
O4
A   29
C21
A   30
C22
A   31
C23
A   32
C24
A   33
C25
A   34
C26
A   35
C27
A   36
C28
M  END
>  <InstanceId>
1CIZ_DPS_A_307

>  <ChemCompId>
DPS

>  <PdbId>
1CIZ

>  <ChainId>
A

>  <ResidueNumber>
307

>  <InsertionCode>


>  <Model>
1

>  <AltIds>


>  <MissingHeavyAtoms>
0

>  <ObservedFormula>
C28 N3 O4 S

>  <Name>
3-(1H-INDOL-3-YL)-2-[4-(4-PHENYL-PIPERIDIN-1-YL)-BENZENESULFONYLAMINO]-PROPIONIC ACID

>  <SystematicName>
(2S)-3-(1H-indol-3-yl)-2-[[4-(4-phenylpiperidin-1-yl)phenyl]sulfonylamino]propanoic acid

>  <Synonyms>


>  <Type>
NON-POLYMER

>  <Formula>
C28 H29 N3 O4 S

>  <MolecularWeight>
503.613

>  <ModifiedDate>
2011-06-04

>  <Parent>


>  <OneLetterCode>


>  <SubcomponentList>


>  <AmbiguousFlag>
N

>  <InChI>
InChI=1S/C28H29N3O4S/c32-28(33)27(18-22-19-29-26-9-5-4-8-25(22)26)30-36(34,35)24-12-10-23(11-13-24)31-16-14-21(15-17-31)20-6-2-1-3-7-20/h1-13,19,21,27,29-30H,14-18H2,(H,32,33)/t27-/m0/s1

>  <InChIKey>
ULOTXPTWJAUGGE-MHZLTWQESA-N

>  <SMILES>
c1ccc(cc1)C2CCN(CC2)c3ccc(cc3)S(=O)(=O)N[C@@H](Cc4c[nH]c5c4cccc5)C(=O)O

$$$$
