1XD0_ARE_A_501


 72 76  0  0  0  0  0  0  0  0999 V2000
   10.0064   17.4890   44.9800 C   0  0  0  0  0  0  0  0  0  0  0  0
   10.9574   18.7451   44.8812 C   0  0  0  0  0  0  0  0  0  0  0  0
   11.6136   18.8107   43.4307 C   0  0  0  0  0  0  0  0  0  0  0  0
   12.4168   17.4593   43.0847 C   0  0  0  0  0  0  0  0  0  0  0  0
   11.6786   16.2016   43.5460 C   0  0  0  0  0  0  0  0  0  0  0  0
   10.9822   16.2888   44.6997 C   0  0  0  0  0  0  0  0  0  0  0  0
   10.2662   19.9228   45.1404 O   0  0  0  0  0  0  0  0  0  0  0  0
   12.4617   19.9217   43.3130 O   0  0  0  0  0  0  0  0  0  0  0  0
    9.5636   20.0370   44.4815 H   0  0  0  0  0  0  0  0  0  0  0  0
   13.1904   19.8409   43.9482 H   0  0  0  0  0  0  0  0  0  0  0  0
   12.5898   14.9455   43.5958 C   0  0  0  0  0  0  0  0  0  0  0  0
   13.9831   15.3355   43.6058 O   0  0  0  0  0  0  0  0  0  0  0  0
   14.1849   15.8347   42.7990 H   0  0  0  0  0  0  0  0  0  0  0  0
    8.8341   17.6828   44.0050 N   0  0  0  0  0  0  0  0  0  0  0  0
    8.0578   18.0539   44.5528 H   0  0  0  0  0  0  0  0  0  0  0  0
    6.1529   15.1704   41.7364 C   0  0  0  0  0  0  0  0  0  0  0  0
    6.5440   14.7633   43.1524 C   0  0  0  0  0  0  0  0  0  0  0  0
    7.0754   15.9420   43.9633 C   0  0  0  0  0  0  0  0  0  0  0  0
    8.2980   16.5404   43.2320 C   0  0  0  0  0  0  0  0  0  0  0  0
    7.8022   17.0140   41.8190 C   0  0  0  0  0  0  0  0  0  0  0  0
    8.9505   17.6296   41.0342 C   0  0  0  0  0  0  0  0  0  0  0  0
    5.4274   14.1626   43.7695 O   0  0  0  0  0  0  0  0  0  0  0  0
    7.4463   15.4663   45.2359 O   0  0  0  0  0  0  0  0  0  0  0  0
    7.2716   15.8421   41.0969 O   0  0  0  0  0  0  0  0  0  0  0  0
    4.6985   14.8013   43.8111 H   0  0  0  0  0  0  0  0  0  0  0  0
    8.1209   14.7760   45.1390 H   0  0  0  0  0  0  0  0  0  0  0  0
    5.0265   15.9810   41.6651 O   0  0  0  0  0  0  0  0  0  0  0  0
    1.1908   15.6154   39.9000 C   0  0  0  0  0  0  0  0  0  0  0  0
    1.4554   14.8959   41.2510 C   0  0  0  0  0  0  0  0  0  0  0  0
    2.6660   15.5292   41.9467 C   0  0  0  0  0  0  0  0  0  0  0  0
    3.9015   15.3841   41.0219 C   0  0  0  0  0  0  0  0  0  0  0  0
    3.5986   16.1362   39.6428 C   0  0  0  0  0  0  0  0  0  0  0  0
    0.8201   16.9720   40.0819 O   0  0  0  0  0  0  0  0  0  0  0  0
    0.3037   15.0135   42.0565 O   0  0  0  0  0  0  0  0  0  0  0  0
    2.8823   14.8417   43.1586 O   0  0  0  0  0  0  0  0  0  0  0  0
    2.4007   15.5354   39.0442 O   0  0  0  0  0  0  0  0  0  0  0  0
    1.5453   17.4503   40.5134 H   0  0  0  0  0  0  0  0  0  0  0  0
    0.1101   15.9517   42.2088 H   0  0  0  0  0  0  0  0  0  0  0  0
    3.0341   13.9015   42.9743 H   0  0  0  0  0  0  0  0  0  0  0  0
    4.6950   16.0311   38.7234 C   0  0  0  0  0  0  0  0  0  0  0  0
    5.6301   17.0946   38.8647 O   0  0  0  0  0  0  0  0  0  0  0  0
    5.1903   17.9388   38.6786 H   0  0  0  0  0  0  0  0  0  0  0  0
   12.5278   17.3199   41.6729 O   0  0  0  0  0  0  0  0  0  0  0  0
   13.6377   17.9641   41.0901 C   0  0  0  0  0  0  0  0  0  0  0  0
   13.3358   18.2847   39.6095 C   0  0  0  0  0  0  0  0  0  0  0  0
   13.3837   17.0168   38.7034 C   0  0  0  0  0  0  0  0  0  0  0  0
   14.7618   16.3631   38.8282 C   0  0  0  0  0  0  0  0  0  0  0  0
   14.8892   15.9392   40.3538 C   0  0  0  0  0  0  0  0  0  0  0  0
   12.0451   18.8587   39.5101 O   0  0  0  0  0  0  0  0  0  0  0  0
   13.1283   17.4431   37.3633 O   0  0  0  0  0  0  0  0  0  0  0  0
   14.8070   17.1124   41.1999 O   0  0  0  0  0  0  0  0  0  0  0  0
   11.3833   18.2225   39.8232 H   0  0  0  0  0  0  0  0  0  0  0  0
   13.7921   18.0998   37.1008 H   0  0  0  0  0  0  0  0  0  0  0  0
   16.2085   15.2506   40.6869 C   0  0  0  0  0  0  0  0  0  0  0  0
   17.2947   15.9519   40.1259 O   0  0  0  0  0  0  0  0  0  0  0  0
   17.1995   15.9772   39.1609 H   0  0  0  0  0  0  0  0  0  0  0  0
   14.8270   15.2257   38.0153 O   0  0  0  0  0  0  0  0  0  0  0  0
   15.9793   15.2726   37.1597 C   0  0  0  0  0  0  0  0  0  0  0  0
   15.6196   15.1572   35.6592 C   0  0  0  0  0  0  0  0  0  0  0  0
   14.9890   13.7638   35.3987 C   0  0  0  0  0  0  0  0  0  0  0  0
   16.0435   12.7045   35.7649 C   0  0  0  0  0  0  0  0  0  0  0  0
   16.3971   12.8533   37.2957 C   0  0  0  0  0  0  0  0  0  0  0  0
   14.7192   16.1942   35.3483 O   0  0  0  0  0  0  0  0  0  0  0  0
   14.6712   13.6527   34.0312 O   0  0  0  0  0  0  0  0  0  0  0  0
   15.5115   11.4106   35.5323 O   0  0  0  0  0  0  0  0  0  0  0  0
   16.9144   14.1936   37.5204 O   0  0  0  0  0  0  0  0  0  0  0  0
   13.9301   16.1157   35.9069 H   0  0  0  0  0  0  0  0  0  0  0  0
   15.4748   13.7740   33.5016 H   0  0  0  0  0  0  0  0  0  0  0  0
   14.7155   11.2864   36.0726 H   0  0  0  0  0  0  0  0  0  0  0  0
   17.4696   11.8269   37.7123 C   0  0  0  0  0  0  0  0  0  0  0  0
   16.9480   10.5273   37.7802 O   0  0  0  0  0  0  0  0  0  0  0  0
   16.2429   10.4963   38.4456 H   0  0  0  0  0  0  0  0  0  0  0  0
 58 59  1  0  0  0
 58 66  1  0  0  0
 58 57  1  0  0  0
 59 60  1  0  0  0
 59 63  1  0  0  0
 60 61  1  0  0  0
 60 64  1  0  0  0
 61 62  1  0  0  0
 61 65  1  0  0  0
 62 70  1  0  0  0
 62 66  1  0  0  0
 70 71  1  0  0  0
 44 45  1  0  0  0
 44 51  1  0  0  0
 44 43  1  0  0  0
 45 46  1  0  0  0
 45 49  1  0  0  0
 46 47  1  0  0  0
 46 50  1  0  0  0
 47 48  1  0  0  0
 47 57  1  0  0  0
 48 54  1  0  0  0
 48 51  1  0  0  0
 54 55  1  0  0  0
 16 17  1  0  0  0
 16 24  1  0  0  0
 16 27  1  0  0  0
 17 18  1  0  0  0
 17 22  1  0  0  0
 18 19  1  0  0  0
 18 23  1  0  0  0
 19 20  1  0  0  0
 19 14  1  0  0  0
 20 21  1  0  0  0
 20 24  1  0  0  0
 14  1  1  0  0  0
  1  2  1  0  0  0
  1  6  1  0  0  0
  2  3  1  0  0  0
  2  7  1  0  0  0
  3  4  1  0  0  0
  3  8  1  0  0  0
  4  5  1  0  0  0
  4 43  1  0  0  0
  5  6  2  0  0  0
  5 11  1  0  0  0
 11 12  1  0  0  0
 28 29  1  0  0  0
 28 33  1  0  0  0
 28 36  1  0  0  0
 29 30  1  0  0  0
 29 34  1  0  0  0
 30 31  1  0  0  0
 30 35  1  0  0  0
 31 32  1  0  0  0
 31 27  1  0  0  0
 32 40  1  0  0  0
 32 36  1  0  0  0
 40 41  1  0  0  0
 63 67  1  0  0  0
 64 68  1  0  0  0
 65 69  1  0  0  0
 71 72  1  0  0  0
 49 52  1  0  0  0
 50 53  1  0  0  0
 55 56  1  0  0  0
 22 25  1  0  0  0
 23 26  1  0  0  0
 14 15  1  0  0  0
  7  9  1  0  0  0
  8 10  1  0  0  0
 12 13  1  0  0  0
 33 37  1  0  0  0
 34 38  1  0  0  0
 35 39  1  0  0  0
 41 42  1  0  0  0
M  END
> <minimizedAffinity>
-12.32561

$$$$
1XD0_ARE_A_501


 72 76  0  0  0  0  0  0  0  0999 V2000
    9.9842   17.3879   44.8621 C   0  0  0  0  0  0  0  0  0  0  0  0
   10.9480   18.6381   44.8479 C   0  0  0  0  0  0  0  0  0  0  0  0
   11.7320   18.6977   43.4619 C   0  0  0  0  0  0  0  0  0  0  0  0
   12.5545   17.3409   43.1905 C   0  0  0  0  0  0  0  0  0  0  0  0
   11.7701   16.0884   43.5848 C   0  0  0  0  0  0  0  0  0  0  0  0
   10.9737   16.1815   44.6713 C   0  0  0  0  0  0  0  0  0  0  0  0
   10.2437   19.8203   45.0431 O   0  0  0  0  0  0  0  0  0  0  0  0
   12.5941   19.8033   43.4198 O   0  0  0  0  0  0  0  0  0  0  0  0
    9.6037   19.9380   44.3238 H   0  0  0  0  0  0  0  0  0  0  0  0
   13.2624   19.7189   44.1178 H   0  0  0  0  0  0  0  0  0  0  0  0
   12.6654   14.8268   43.7171 C   0  0  0  0  0  0  0  0  0  0  0  0
   14.0637   15.1954   43.6668 O   0  0  0  0  0  0  0  0  0  0  0  0
   14.2545   15.6250   42.8184 H   0  0  0  0  0  0  0  0  0  0  0  0
    8.9052   17.5876   43.7858 N   0  0  0  0  0  0  0  0  0  0  0  0
    8.1426   18.0996   44.2292 H   0  0  0  0  0  0  0  0  0  0  0  0
    6.0433   15.0653   41.7621 C   0  0  0  0  0  0  0  0  0  0  0  0
    6.4588   14.7318   43.1903 C   0  0  0  0  0  0  0  0  0  0  0  0
    7.0683   15.9335   43.9072 C   0  0  0  0  0  0  0  0  0  0  0  0
    8.2939   16.4248   43.1045 C   0  0  0  0  0  0  0  0  0  0  0  0
    7.7769   16.8298   41.6778 C   0  0  0  0  0  0  0  0  0  0  0  0
    8.9275   17.3384   40.8228 C   0  0  0  0  0  0  0  0  0  0  0  0
    5.3355   14.2258   43.8762 O   0  0  0  0  0  0  0  0  0  0  0  0
    7.4561   15.5232   45.1974 O   0  0  0  0  0  0  0  0  0  0  0  0
    7.1713   15.6406   41.0491 O   0  0  0  0  0  0  0  0  0  0  0  0
    4.6382   14.8998   43.8961 H   0  0  0  0  0  0  0  0  0  0  0  0
    8.0951   14.7968   45.1273 H   0  0  0  0  0  0  0  0  0  0  0  0
    4.9535   15.9225   41.6691 O   0  0  0  0  0  0  0  0  0  0  0  0
    1.1174   15.7109   39.8799 C   0  0  0  0  0  0  0  0  0  0  0  0
    1.3762   14.8929   41.1747 C   0  0  0  0  0  0  0  0  0  0  0  0
    2.5899   15.4660   41.9156 C   0  0  0  0  0  0  0  0  0  0  0  0
    3.8255   15.3812   40.9834 C   0  0  0  0  0  0  0  0  0  0  0  0
    3.5286   16.2341   39.6628 C   0  0  0  0  0  0  0  0  0  0  0  0
    0.7549   17.0528   40.1603 O   0  0  0  0  0  0  0  0  0  0  0  0
    0.2244   14.9584   41.9861 O   0  0  0  0  0  0  0  0  0  0  0  0
    2.8007   14.6904   43.0740 O   0  0  0  0  0  0  0  0  0  0  0  0
    2.3276   15.6862   39.0212 O   0  0  0  0  0  0  0  0  0  0  0  0
    1.4826   17.4937   40.6261 H   0  0  0  0  0  0  0  0  0  0  0  0
    0.0364   15.8842   42.2065 H   0  0  0  0  0  0  0  0  0  0  0  0
    2.9470   13.7653   42.8216 H   0  0  0  0  0  0  0  0  0  0  0  0
    4.6253   16.1897   38.7388 C   0  0  0  0  0  0  0  0  0  0  0  0
    4.4157   17.0199   37.6021 O   0  0  0  0  0  0  0  0  0  0  0  0
    3.6317   16.7150   37.1191 H   0  0  0  0  0  0  0  0  0  0  0  0
   12.7907   17.1989   41.7944 O   0  0  0  0  0  0  0  0  0  0  0  0
   13.9591   17.8247   41.3152 C   0  0  0  0  0  0  0  0  0  0  0  0
   13.6571   18.5392   39.9794 C   0  0  0  0  0  0  0  0  0  0  0  0
   13.5026   17.5414   38.7914 C   0  0  0  0  0  0  0  0  0  0  0  0
   14.7817   16.7108   38.6645 C   0  0  0  0  0  0  0  0  0  0  0  0
   14.8983   15.9077   40.0301 C   0  0  0  0  0  0  0  0  0  0  0  0
   12.4544   19.2760   40.1058 O   0  0  0  0  0  0  0  0  0  0  0  0
   13.2654   18.3167   37.6143 O   0  0  0  0  0  0  0  0  0  0  0  0
   15.0040   16.8337   41.1392 O   0  0  0  0  0  0  0  0  0  0  0  0
   11.7221   18.6693   40.2970 H   0  0  0  0  0  0  0  0  0  0  0  0
   14.0041   18.9301   37.4768 H   0  0  0  0  0  0  0  0  0  0  0  0
   16.1210   14.9990   40.1001 C   0  0  0  0  0  0  0  0  0  0  0  0
   16.8881   15.1005   38.9221 O   0  0  0  0  0  0  0  0  0  0  0  0
   16.3504   14.8293   38.1618 H   0  0  0  0  0  0  0  0  0  0  0  0
   14.6651   15.8130   37.5973 O   0  0  0  0  0  0  0  0  0  0  0  0
   13.6239   14.8555   37.8445 C   0  0  0  0  0  0  0  0  0  0  0  0
   13.8897   13.4895   37.1680 C   0  0  0  0  0  0  0  0  0  0  0  0
   13.8931   13.6826   35.6286 C   0  0  0  0  0  0  0  0  0  0  0  0
   12.5015   14.2018   35.2259 C   0  0  0  0  0  0  0  0  0  0  0  0
   12.2553   15.5885   35.9378 C   0  0  0  0  0  0  0  0  0  0  0  0
   15.1321   13.0124   37.6282 O   0  0  0  0  0  0  0  0  0  0  0  0
   14.1238   12.4382   35.0109 O   0  0  0  0  0  0  0  0  0  0  0  0
   12.4559   14.3842   33.8202 O   0  0  0  0  0  0  0  0  0  0  0  0
   12.3332   15.3877   37.3759 O   0  0  0  0  0  0  0  0  0  0  0  0
   15.8258   13.6545   37.4104 H   0  0  0  0  0  0  0  0  0  0  0  0
   13.4346   11.8109   35.2800 H   0  0  0  0  0  0  0  0  0  0  0  0
   13.1371   15.0216   33.5545 H   0  0  0  0  0  0  0  0  0  0  0  0
   10.8612   16.1451   35.5854 C   0  0  0  0  0  0  0  0  0  0  0  0
   10.8758   16.8603   34.3796 O   0  0  0  0  0  0  0  0  0  0  0  0
   11.4783   17.6162   34.4592 H   0  0  0  0  0  0  0  0  0  0  0  0
 58 59  1  0  0  0
 58 66  1  0  0  0
 58 57  1  0  0  0
 59 60  1  0  0  0
 59 63  1  0  0  0
 60 61  1  0  0  0
 60 64  1  0  0  0
 61 62  1  0  0  0
 61 65  1  0  0  0
 62 70  1  0  0  0
 62 66  1  0  0  0
 70 71  1  0  0  0
 44 45  1  0  0  0
 44 51  1  0  0  0
 44 43  1  0  0  0
 45 46  1  0  0  0
 45 49  1  0  0  0
 46 47  1  0  0  0
 46 50  1  0  0  0
 47 48  1  0  0  0
 47 57  1  0  0  0
 48 54  1  0  0  0
 48 51  1  0  0  0
 54 55  1  0  0  0
 16 17  1  0  0  0
 16 24  1  0  0  0
 16 27  1  0  0  0
 17 18  1  0  0  0
 17 22  1  0  0  0
 18 19  1  0  0  0
 18 23  1  0  0  0
 19 20  1  0  0  0
 19 14  1  0  0  0
 20 21  1  0  0  0
 20 24  1  0  0  0
 14  1  1  0  0  0
  1  2  1  0  0  0
  1  6  1  0  0  0
  2  3  1  0  0  0
  2  7  1  0  0  0
  3  4  1  0  0  0
  3  8  1  0  0  0
  4  5  1  0  0  0
  4 43  1  0  0  0
  5  6  2  0  0  0
  5 11  1  0  0  0
 11 12  1  0  0  0
 28 29  1  0  0  0
 28 33  1  0  0  0
 28 36  1  0  0  0
 29 30  1  0  0  0
 29 34  1  0  0  0
 30 31  1  0  0  0
 30 35  1  0  0  0
 31 32  1  0  0  0
 31 27  1  0  0  0
 32 40  1  0  0  0
 32 36  1  0  0  0
 40 41  1  0  0  0
 63 67  1  0  0  0
 64 68  1  0  0  0
 65 69  1  0  0  0
 71 72  1  0  0  0
 49 52  1  0  0  0
 50 53  1  0  0  0
 55 56  1  0  0  0
 22 25  1  0  0  0
 23 26  1  0  0  0
 14 15  1  0  0  0
  7  9  1  0  0  0
  8 10  1  0  0  0
 12 13  1  0  0  0
 33 37  1  0  0  0
 34 38  1  0  0  0
 35 39  1  0  0  0
 41 42  1  0  0  0
M  END
> <minimizedAffinity>
-9.79473

$$$$
1XD0_ARE_A_501


 72 76  0  0  0  0  0  0  0  0999 V2000
   12.5727   17.1353   41.3481 C   0  0  0  0  0  0  0  0  0  0  0  0
   12.8965   18.1614   40.1930 C   0  0  0  0  0  0  0  0  0  0  0  0
   13.4560   17.3814   38.9211 C   0  0  0  0  0  0  0  0  0  0  0  0
   14.7575   16.5088   39.2896 C   0  0  0  0  0  0  0  0  0  0  0  0
   14.6283   15.8005   40.6390 C   0  0  0  0  0  0  0  0  0  0  0  0
   13.9661   16.4583   41.6149 C   0  0  0  0  0  0  0  0  0  0  0  0
   11.7701   18.8948   39.8392 O   0  0  0  0  0  0  0  0  0  0  0  0
   13.7486   18.2698   37.8759 O   0  0  0  0  0  0  0  0  0  0  0  0
   11.0831   18.2939   39.5107 H   0  0  0  0  0  0  0  0  0  0  0  0
   14.4447   18.8834   38.1584 H   0  0  0  0  0  0  0  0  0  0  0  0
   15.9886   15.3001   41.1958 C   0  0  0  0  0  0  0  0  0  0  0  0
   17.0813   16.0052   40.5614 O   0  0  0  0  0  0  0  0  0  0  0  0
   17.0581   15.8443   39.6052 H   0  0  0  0  0  0  0  0  0  0  0  0
   11.4258   16.2222   40.8864 N   0  0  0  0  0  0  0  0  0  0  0  0
   11.5721   16.0509   39.8916 H   0  0  0  0  0  0  0  0  0  0  0  0
    7.1108   16.1193   41.0207 C   0  0  0  0  0  0  0  0  0  0  0  0
    7.8082   16.8701   39.8923 C   0  0  0  0  0  0  0  0  0  0  0  0
    9.2562   16.4223   39.7126 C   0  0  0  0  0  0  0  0  0  0  0  0
   10.0158   16.6446   41.0397 C   0  0  0  0  0  0  0  0  0  0  0  0
    9.2953   15.7771   42.1328 C   0  0  0  0  0  0  0  0  0  0  0  0
    9.9928   15.9318   43.4757 C   0  0  0  0  0  0  0  0  0  0  0  0
    7.0564   16.7014   38.7113 O   0  0  0  0  0  0  0  0  0  0  0  0
    9.8282   17.1930   38.6820 O   0  0  0  0  0  0  0  0  0  0  0  0
    7.8961   16.2323   42.2382 O   0  0  0  0  0  0  0  0  0  0  0  0
    7.0127   15.7586   38.4877 H   0  0  0  0  0  0  0  0  0  0  0  0
    9.7794   18.1331   38.9161 H   0  0  0  0  0  0  0  0  0  0  0  0
    6.8690   14.7778   40.7510 O   0  0  0  0  0  0  0  0  0  0  0  0
    2.7802   14.8946   41.8600 C   0  0  0  0  0  0  0  0  0  0  0  0
    3.8190   14.4186   42.9121 C   0  0  0  0  0  0  0  0  0  0  0  0
    5.2179   14.9047   42.5155 C   0  0  0  0  0  0  0  0  0  0  0  0
    5.5708   14.3186   41.1245 C   0  0  0  0  0  0  0  0  0  0  0  0
    4.4858   14.8284   40.0652 C   0  0  0  0  0  0  0  0  0  0  0  0
    2.6637   16.3074   41.8268 O   0  0  0  0  0  0  0  0  0  0  0  0
    3.4534   14.9368   44.1719 O   0  0  0  0  0  0  0  0  0  0  0  0
    6.1321   14.4420   43.4842 O   0  0  0  0  0  0  0  0  0  0  0  0
    3.1599   14.3900   40.5169 O   0  0  0  0  0  0  0  0  0  0  0  0
    3.5149   16.6962   41.5716 H   0  0  0  0  0  0  0  0  0  0  0  0
    3.4379   15.9058   44.1308 H   0  0  0  0  0  0  0  0  0  0  0  0
    6.0949   13.4737   43.5273 H   0  0  0  0  0  0  0  0  0  0  0  0
    4.7367   14.3113   38.7506 C   0  0  0  0  0  0  0  0  0  0  0  0
    5.5838   13.1678   38.7659 O   0  0  0  0  0  0  0  0  0  0  0  0
    6.4458   13.4090   39.1398 H   0  0  0  0  0  0  0  0  0  0  0  0
   14.9115   15.4600   38.3403 O   0  0  0  0  0  0  0  0  0  0  0  0
   16.1145   15.4844   37.6065 C   0  0  0  0  0  0  0  0  0  0  0  0
   15.8019   15.5716   36.0962 C   0  0  0  0  0  0  0  0  0  0  0  0
   15.2800   14.2215   35.5167 C   0  0  0  0  0  0  0  0  0  0  0  0
   16.3205   13.1294   35.7749 C   0  0  0  0  0  0  0  0  0  0  0  0
   16.4384   13.0266   37.3557 C   0  0  0  0  0  0  0  0  0  0  0  0
   14.8150   16.5639   35.8805 O   0  0  0  0  0  0  0  0  0  0  0  0
   15.0642   14.4158   34.1172 O   0  0  0  0  0  0  0  0  0  0  0  0
   16.8872   14.2920   37.8999 O   0  0  0  0  0  0  0  0  0  0  0  0
   14.0002   16.3158   36.3446 H   0  0  0  0  0  0  0  0  0  0  0  0
   15.8938   14.6923   33.6974 H   0  0  0  0  0  0  0  0  0  0  0  0
   17.4333   11.9705   37.8252 C   0  0  0  0  0  0  0  0  0  0  0  0
   16.8416   10.6913   37.8272 O   0  0  0  0  0  0  0  0  0  0  0  0
   16.0839   10.6865   38.4328 H   0  0  0  0  0  0  0  0  0  0  0  0
   15.8728   11.9098   35.2546 O   0  0  0  0  0  0  0  0  0  0  0  0
   16.8256   11.3675   34.3272 C   0  0  0  0  0  0  0  0  0  0  0  0
   16.2094   11.0624   32.9410 C   0  0  0  0  0  0  0  0  0  0  0  0
   15.1362    9.9534   33.1005 C   0  0  0  0  0  0  0  0  0  0  0  0
   15.8454    8.7000   33.6431 C   0  0  0  0  0  0  0  0  0  0  0  0
   16.4713    9.0442   35.0502 C   0  0  0  0  0  0  0  0  0  0  0  0
   15.6463   12.2540   32.4452 O   0  0  0  0  0  0  0  0  0  0  0  0
   14.5822    9.6664   31.8379 O   0  0  0  0  0  0  0  0  0  0  0  0
   14.9004    7.6535   33.7959 O   0  0  0  0  0  0  0  0  0  0  0  0
   17.4160   10.1363   34.8790 O   0  0  0  0  0  0  0  0  0  0  0  0
   14.9747   12.5770   33.0661 H   0  0  0  0  0  0  0  0  0  0  0  0
   15.2856    9.3836   31.2329 H   0  0  0  0  0  0  0  0  0  0  0  0
   14.2049    7.9333   34.4114 H   0  0  0  0  0  0  0  0  0  0  0  0
   17.2158    7.8254   35.6314 C   0  0  0  0  0  0  0  0  0  0  0  0
   18.1299    8.1996   36.6265 O   0  0  0  0  0  0  0  0  0  0  0  0
   18.7967    8.7928   36.2465 H   0  0  0  0  0  0  0  0  0  0  0  0
 58 59  1  0  0  0
 58 66  1  0  0  0
 58 57  1  0  0  0
 59 60  1  0  0  0
 59 63  1  0  0  0
 60 61  1  0  0  0
 60 64  1  0  0  0
 61 62  1  0  0  0
 61 65  1  0  0  0
 62 70  1  0  0  0
 62 66  1  0  0  0
 70 71  1  0  0  0
 44 45  1  0  0  0
 44 51  1  0  0  0
 44 43  1  0  0  0
 45 46  1  0  0  0
 45 49  1  0  0  0
 46 47  1  0  0  0
 46 50  1  0  0  0
 47 48  1  0  0  0
 47 57  1  0  0  0
 48 54  1  0  0  0
 48 51  1  0  0  0
 54 55  1  0  0  0
 16 17  1  0  0  0
 16 24  1  0  0  0
 16 27  1  0  0  0
 17 18  1  0  0  0
 17 22  1  0  0  0
 18 19  1  0  0  0
 18 23  1  0  0  0
 19 20  1  0  0  0
 19 14  1  0  0  0
 20 21  1  0  0  0
 20 24  1  0  0  0
 14  1  1  0  0  0
  1  2  1  0  0  0
  1  6  1  0  0  0
  2  3  1  0  0  0
  2  7  1  0  0  0
  3  4  1  0  0  0
  3  8  1  0  0  0
  4  5  1  0  0  0
  4 43  1  0  0  0
  5  6  2  0  0  0
  5 11  1  0  0  0
 11 12  1  0  0  0
 28 29  1  0  0  0
 28 33  1  0  0  0
 28 36  1  0  0  0
 29 30  1  0  0  0
 29 34  1  0  0  0
 30 31  1  0  0  0
 30 35  1  0  0  0
 31 32  1  0  0  0
 31 27  1  0  0  0
 32 40  1  0  0  0
 32 36  1  0  0  0
 40 41  1  0  0  0
 63 67  1  0  0  0
 64 68  1  0  0  0
 65 69  1  0  0  0
 71 72  1  0  0  0
 49 52  1  0  0  0
 50 53  1  0  0  0
 55 56  1  0  0  0
 22 25  1  0  0  0
 23 26  1  0  0  0
 14 15  1  0  0  0
  7  9  1  0  0  0
  8 10  1  0  0  0
 12 13  1  0  0  0
 33 37  1  0  0  0
 34 38  1  0  0  0
 35 39  1  0  0  0
 41 42  1  0  0  0
M  END
> <minimizedAffinity>
-9.66080

$$$$
1XD0_ARE_A_501


 72 76  0  0  0  0  0  0  0  0999 V2000
    8.1622   15.9713   43.3054 C   0  0  0  0  0  0  0  0  0  0  0  0
    8.1608   17.3800   42.5930 C   0  0  0  0  0  0  0  0  0  0  0  0
    9.4127   17.4891   41.6132 C   0  0  0  0  0  0  0  0  0  0  0  0
   10.7980   17.2482   42.3968 C   0  0  0  0  0  0  0  0  0  0  0  0
   10.7074   16.1115   43.4162 C   0  0  0  0  0  0  0  0  0  0  0  0
    9.5351   15.9682   44.0710 C   0  0  0  0  0  0  0  0  0  0  0  0
    6.9848   17.5840   41.8808 O   0  0  0  0  0  0  0  0  0  0  0  0
    9.4342   18.7313   40.9623 O   0  0  0  0  0  0  0  0  0  0  0  0
    6.9039   16.9082   41.1897 H   0  0  0  0  0  0  0  0  0  0  0  0
    9.5283   19.4389   41.6191 H   0  0  0  0  0  0  0  0  0  0  0  0
   11.8677   16.1261   44.4479 C   0  0  0  0  0  0  0  0  0  0  0  0
   12.9986   15.3782   43.9428 O   0  0  0  0  0  0  0  0  0  0  0  0
   12.7337   14.4585   43.7851 H   0  0  0  0  0  0  0  0  0  0  0  0
    7.9497   14.8827   42.2413 N   0  0  0  0  0  0  0  0  0  0  0  0
    8.3403   15.2452   41.3716 H   0  0  0  0  0  0  0  0  0  0  0  0
    3.7661   14.8176   41.1730 C   0  0  0  0  0  0  0  0  0  0  0  0
    4.1837   14.4481   42.5917 C   0  0  0  0  0  0  0  0  0  0  0  0
    5.5758   14.9704   42.9357 C   0  0  0  0  0  0  0  0  0  0  0  0
    6.5899   14.3936   41.9225 C   0  0  0  0  0  0  0  0  0  0  0  0
    6.1464   14.8842   40.4980 C   0  0  0  0  0  0  0  0  0  0  0  0
    7.1054   14.3657   39.4374 C   0  0  0  0  0  0  0  0  0  0  0  0
    3.2061   14.9314   43.4857 O   0  0  0  0  0  0  0  0  0  0  0  0
    5.8908   14.5498   44.2424 O   0  0  0  0  0  0  0  0  0  0  0  0
    4.7859   14.3779   40.2358 O   0  0  0  0  0  0  0  0  0  0  0  0
    3.1490   15.8968   43.4114 H   0  0  0  0  0  0  0  0  0  0  0  0
    5.8599   13.5813   44.2865 H   0  0  0  0  0  0  0  0  0  0  0  0
    3.5196   16.1720   40.9840 O   0  0  0  0  0  0  0  0  0  0  0  0
    0.8306   15.5711   37.7638 C   0  0  0  0  0  0  0  0  0  0  0  0
    2.1419   16.3593   37.4956 C   0  0  0  0  0  0  0  0  0  0  0  0
    3.1664   16.0490   38.5933 C   0  0  0  0  0  0  0  0  0  0  0  0
    2.5701   16.4686   39.9612 C   0  0  0  0  0  0  0  0  0  0  0  0
    1.2247   15.6390   40.2081 C   0  0  0  0  0  0  0  0  0  0  0  0
    1.0237   14.1690   37.6763 O   0  0  0  0  0  0  0  0  0  0  0  0
    2.6418   15.9842   36.2313 O   0  0  0  0  0  0  0  0  0  0  0  0
    4.3341   16.7918   38.3234 O   0  0  0  0  0  0  0  0  0  0  0  0
    0.2997   15.9226   39.1044 O   0  0  0  0  0  0  0  0  0  0  0  0
    1.6597   13.8874   38.3525 H   0  0  0  0  0  0  0  0  0  0  0  0
    2.8166   15.0301   36.2227 H   0  0  0  0  0  0  0  0  0  0  0  0
    4.1179   17.7372   38.3007 H   0  0  0  0  0  0  0  0  0  0  0  0
    0.6021   15.9864   41.4532 C   0  0  0  0  0  0  0  0  0  0  0  0
    0.4762   14.8728   42.3304 O   0  0  0  0  0  0  0  0  0  0  0  0
   -0.0844   14.1976   41.9172 H   0  0  0  0  0  0  0  0  0  0  0  0
   11.7998   16.8330   41.4756 O   0  0  0  0  0  0  0  0  0  0  0  0
   12.9035   17.7013   41.3550 C   0  0  0  0  0  0  0  0  0  0  0  0
   12.9666   18.2674   39.9191 C   0  0  0  0  0  0  0  0  0  0  0  0
   13.4688   17.2143   38.8849 C   0  0  0  0  0  0  0  0  0  0  0  0
   14.8497   16.7112   39.3117 C   0  0  0  0  0  0  0  0  0  0  0  0
   14.6259   16.0157   40.7223 C   0  0  0  0  0  0  0  0  0  0  0  0
   11.6750   18.6980   39.5300 O   0  0  0  0  0  0  0  0  0  0  0  0
   13.5203   17.8614   37.6115 O   0  0  0  0  0  0  0  0  0  0  0  0
   14.1234   16.9843   41.6752 O   0  0  0  0  0  0  0  0  0  0  0  0
   11.0681   17.9413   39.5308 H   0  0  0  0  0  0  0  0  0  0  0  0
   14.1120   18.6283   37.6622 H   0  0  0  0  0  0  0  0  0  0  0  0
   15.9002   15.4313   41.3225 C   0  0  0  0  0  0  0  0  0  0  0  0
   17.0335   15.8526   40.5983 O   0  0  0  0  0  0  0  0  0  0  0  0
   16.9620   15.5482   39.6801 H   0  0  0  0  0  0  0  0  0  0  0  0
   15.3211   15.7691   38.3904 O   0  0  0  0  0  0  0  0  0  0  0  0
   14.6217   14.5226   38.5286 C   0  0  0  0  0  0  0  0  0  0  0  0
   15.4521   13.3099   38.0447 C   0  0  0  0  0  0  0  0  0  0  0  0
   15.7104   13.4526   36.5215 C   0  0  0  0  0  0  0  0  0  0  0  0
   14.3407   13.4598   35.8201 C   0  0  0  0  0  0  0  0  0  0  0  0
   13.5143   14.6994   36.3404 C   0  0  0  0  0  0  0  0  0  0  0  0
   16.6586   13.2933   38.7705 O   0  0  0  0  0  0  0  0  0  0  0  0
   16.4566   12.3439   36.0771 O   0  0  0  0  0  0  0  0  0  0  0  0
   14.5296   13.5793   34.4196 O   0  0  0  0  0  0  0  0  0  0  0  0
   13.3544   14.5744   37.7803 O   0  0  0  0  0  0  0  0  0  0  0  0
   17.1342   14.1263   38.6263 H   0  0  0  0  0  0  0  0  0  0  0  0
   15.9697   11.5277   36.2711 H   0  0  0  0  0  0  0  0  0  0  0  0
   15.0051   14.4024   34.2266 H   0  0  0  0  0  0  0  0  0  0  0  0
   12.1197   14.7423   35.6842 C   0  0  0  0  0  0  0  0  0  0  0  0
   11.3635   15.8318   36.1391 O   0  0  0  0  0  0  0  0  0  0  0  0
   11.2312   15.7561   37.0970 H   0  0  0  0  0  0  0  0  0  0  0  0
 58 59  1  0  0  0
 58 66  1  0  0  0
 58 57  1  0  0  0
 59 60  1  0  0  0
 59 63  1  0  0  0
 60 61  1  0  0  0
 60 64  1  0  0  0
 61 62  1  0  0  0
 61 65  1  0  0  0
 62 70  1  0  0  0
 62 66  1  0  0  0
 70 71  1  0  0  0
 44 45  1  0  0  0
 44 51  1  0  0  0
 44 43  1  0  0  0
 45 46  1  0  0  0
 45 49  1  0  0  0
 46 47  1  0  0  0
 46 50  1  0  0  0
 47 48  1  0  0  0
 47 57  1  0  0  0
 48 54  1  0  0  0
 48 51  1  0  0  0
 54 55  1  0  0  0
 16 17  1  0  0  0
 16 24  1  0  0  0
 16 27  1  0  0  0
 17 18  1  0  0  0
 17 22  1  0  0  0
 18 19  1  0  0  0
 18 23  1  0  0  0
 19 20  1  0  0  0
 19 14  1  0  0  0
 20 21  1  0  0  0
 20 24  1  0  0  0
 14  1  1  0  0  0
  1  2  1  0  0  0
  1  6  1  0  0  0
  2  3  1  0  0  0
  2  7  1  0  0  0
  3  4  1  0  0  0
  3  8  1  0  0  0
  4  5  1  0  0  0
  4 43  1  0  0  0
  5  6  2  0  0  0
  5 11  1  0  0  0
 11 12  1  0  0  0
 28 29  1  0  0  0
 28 33  1  0  0  0
 28 36  1  0  0  0
 29 30  1  0  0  0
 29 34  1  0  0  0
 30 31  1  0  0  0
 30 35  1  0  0  0
 31 32  1  0  0  0
 31 27  1  0  0  0
 32 40  1  0  0  0
 32 36  1  0  0  0
 40 41  1  0  0  0
 63 67  1  0  0  0
 64 68  1  0  0  0
 65 69  1  0  0  0
 71 72  1  0  0  0
 49 52  1  0  0  0
 50 53  1  0  0  0
 55 56  1  0  0  0
 22 25  1  0  0  0
 23 26  1  0  0  0
 14 15  1  0  0  0
  7  9  1  0  0  0
  8 10  1  0  0  0
 12 13  1  0  0  0
 33 37  1  0  0  0
 34 38  1  0  0  0
 35 39  1  0  0  0
 41 42  1  0  0  0
M  END
> <minimizedAffinity>
-9.38749

$$$$
1XD0_ARE_A_501


 72 76  0  0  0  0  0  0  0  0999 V2000
   11.3702   17.6134   41.8984 C   0  0  0  0  0  0  0  0  0  0  0  0
   12.0407   18.6488   40.9135 C   0  0  0  0  0  0  0  0  0  0  0  0
   12.6369   17.8820   39.6504 C   0  0  0  0  0  0  0  0  0  0  0  0
   13.6923   16.7495   40.0917 C   0  0  0  0  0  0  0  0  0  0  0  0
   13.2384   15.9720   41.3281 C   0  0  0  0  0  0  0  0  0  0  0  0
   12.5650   16.6629   42.2729 C   0  0  0  0  0  0  0  0  0  0  0  0
   11.1286   19.6104   40.4948 O   0  0  0  0  0  0  0  0  0  0  0  0
   13.2361   18.7797   38.7547 O   0  0  0  0  0  0  0  0  0  0  0  0
   10.4029   19.1807   40.0156 H   0  0  0  0  0  0  0  0  0  0  0  0
   13.9799   19.2239   39.1911 H   0  0  0  0  0  0  0  0  0  0  0  0
   14.3889   15.1770   42.0028 C   0  0  0  0  0  0  0  0  0  0  0  0
   15.6536   15.4929   41.3748 O   0  0  0  0  0  0  0  0  0  0  0  0
   15.6174   15.2519   40.4359 H   0  0  0  0  0  0  0  0  0  0  0  0
   10.1615   16.9771   41.1936 N   0  0  0  0  0  0  0  0  0  0  0  0
    9.5856   17.7463   40.8514 H   0  0  0  0  0  0  0  0  0  0  0  0
    6.5760   15.0293   42.6071 C   0  0  0  0  0  0  0  0  0  0  0  0
    7.3685   15.9215   43.5556 C   0  0  0  0  0  0  0  0  0  0  0  0
    8.2874   16.8831   42.8073 C   0  0  0  0  0  0  0  0  0  0  0  0
    9.2556   16.0636   41.9248 C   0  0  0  0  0  0  0  0  0  0  0  0
    8.3750   15.2381   40.9201 C   0  0  0  0  0  0  0  0  0  0  0  0
    9.2580   14.4070   40.0018 C   0  0  0  0  0  0  0  0  0  0  0  0
    6.4602   16.6055   44.3896 O   0  0  0  0  0  0  0  0  0  0  0  0
    9.0038   17.6342   43.7591 O   0  0  0  0  0  0  0  0  0  0  0  0
    7.4877   14.3538   41.6992 O   0  0  0  0  0  0  0  0  0  0  0  0
    5.8754   17.1571   43.8469 H   0  0  0  0  0  0  0  0  0  0  0  0
    9.5128   17.0350   44.3273 H   0  0  0  0  0  0  0  0  0  0  0  0
    5.6041   15.6972   41.8721 O   0  0  0  0  0  0  0  0  0  0  0  0
    1.9650   14.5733   40.0132 C   0  0  0  0  0  0  0  0  0  0  0  0
    2.1243   14.3256   41.5383 C   0  0  0  0  0  0  0  0  0  0  0  0
    3.2432   15.2147   42.0934 C   0  0  0  0  0  0  0  0  0  0  0  0
    4.5642   14.8640   41.3621 C   0  0  0  0  0  0  0  0  0  0  0  0
    4.3684   15.1317   39.7971 C   0  0  0  0  0  0  0  0  0  0  0  0
    1.5356   15.8947   39.7295 O   0  0  0  0  0  0  0  0  0  0  0  0
    0.8987   14.6182   42.1721 O   0  0  0  0  0  0  0  0  0  0  0  0
    3.3665   14.9513   43.4731 O   0  0  0  0  0  0  0  0  0  0  0  0
    3.2519   14.3043   39.3247 O   0  0  0  0  0  0  0  0  0  0  0  0
    2.2014   16.5257   40.0449 H   0  0  0  0  0  0  0  0  0  0  0  0
    0.6617   15.5440   42.0059 H   0  0  0  0  0  0  0  0  0  0  0  0
    3.5649   14.0112   43.6063 H   0  0  0  0  0  0  0  0  0  0  0  0
    5.5492   14.8123   39.0473 C   0  0  0  0  0  0  0  0  0  0  0  0
    5.9143   13.4415   39.1611 O   0  0  0  0  0  0  0  0  0  0  0  0
    6.1087   13.2346   40.0887 H   0  0  0  0  0  0  0  0  0  0  0  0
   13.7980   15.7711   39.0639 O   0  0  0  0  0  0  0  0  0  0  0  0
   14.8840   15.9400   38.1816 C   0  0  0  0  0  0  0  0  0  0  0  0
   14.3773   15.9237   36.7224 C   0  0  0  0  0  0  0  0  0  0  0  0
   13.9923   14.4915   36.2412 C   0  0  0  0  0  0  0  0  0  0  0  0
   15.2062   13.5708   36.3854 C   0  0  0  0  0  0  0  0  0  0  0  0
   15.5328   13.5465   37.9398 C   0  0  0  0  0  0  0  0  0  0  0  0
   13.2360   16.7550   36.6155 O   0  0  0  0  0  0  0  0  0  0  0  0
   13.5785   14.5992   34.8774 O   0  0  0  0  0  0  0  0  0  0  0  0
   15.8542   14.8831   38.3970 O   0  0  0  0  0  0  0  0  0  0  0  0
   12.5304   16.4103   37.1849 H   0  0  0  0  0  0  0  0  0  0  0  0
   14.2999   14.9757   34.3494 H   0  0  0  0  0  0  0  0  0  0  0  0
   16.7228   12.6629   38.2986 C   0  0  0  0  0  0  0  0  0  0  0  0
   17.7247   12.7472   37.3110 O   0  0  0  0  0  0  0  0  0  0  0  0
   17.3671   12.4460   36.4611 H   0  0  0  0  0  0  0  0  0  0  0  0
   14.8820   12.2806   35.9509 O   0  0  0  0  0  0  0  0  0  0  0  0
   15.5975   11.9490   34.7508 C   0  0  0  0  0  0  0  0  0  0  0  0
   14.7308   11.1773   33.7273 C   0  0  0  0  0  0  0  0  0  0  0  0
   14.3279    9.8096   34.3391 C   0  0  0  0  0  0  0  0  0  0  0  0
   15.6246    9.0291   34.6178 C   0  0  0  0  0  0  0  0  0  0  0  0
   16.4907    9.8441   35.6550 C   0  0  0  0  0  0  0  0  0  0  0  0
   13.5990   11.9634   33.4377 O   0  0  0  0  0  0  0  0  0  0  0  0
   13.5482    9.1011   33.4045 O   0  0  0  0  0  0  0  0  0  0  0  0
   15.3025    7.7635   35.1709 O   0  0  0  0  0  0  0  0  0  0  0  0
   16.7875   11.1476   35.0830 O   0  0  0  0  0  0  0  0  0  0  0  0
   13.1077   12.1367   34.2560 H   0  0  0  0  0  0  0  0  0  0  0  0
   14.0554    8.9790   32.5868 H   0  0  0  0  0  0  0  0  0  0  0  0
   14.8068    7.8877   35.9954 H   0  0  0  0  0  0  0  0  0  0  0  0
   17.8163    9.1155   35.9539 C   0  0  0  0  0  0  0  0  0  0  0  0
   17.6819    8.2020   37.0090 O   0  0  0  0  0  0  0  0  0  0  0  0
   17.4227    8.6751   37.8152 H   0  0  0  0  0  0  0  0  0  0  0  0
 58 59  1  0  0  0
 58 66  1  0  0  0
 58 57  1  0  0  0
 59 60  1  0  0  0
 59 63  1  0  0  0
 60 61  1  0  0  0
 60 64  1  0  0  0
 61 62  1  0  0  0
 61 65  1  0  0  0
 62 70  1  0  0  0
 62 66  1  0  0  0
 70 71  1  0  0  0
 44 45  1  0  0  0
 44 51  1  0  0  0
 44 43  1  0  0  0
 45 46  1  0  0  0
 45 49  1  0  0  0
 46 47  1  0  0  0
 46 50  1  0  0  0
 47 48  1  0  0  0
 47 57  1  0  0  0
 48 54  1  0  0  0
 48 51  1  0  0  0
 54 55  1  0  0  0
 16 17  1  0  0  0
 16 24  1  0  0  0
 16 27  1  0  0  0
 17 18  1  0  0  0
 17 22  1  0  0  0
 18 19  1  0  0  0
 18 23  1  0  0  0
 19 20  1  0  0  0
 19 14  1  0  0  0
 20 21  1  0  0  0
 20 24  1  0  0  0
 14  1  1  0  0  0
  1  2  1  0  0  0
  1  6  1  0  0  0
  2  3  1  0  0  0
  2  7  1  0  0  0
  3  4  1  0  0  0
  3  8  1  0  0  0
  4  5  1  0  0  0
  4 43  1  0  0  0
  5  6  2  0  0  0
  5 11  1  0  0  0
 11 12  1  0  0  0
 28 29  1  0  0  0
 28 33  1  0  0  0
 28 36  1  0  0  0
 29 30  1  0  0  0
 29 34  1  0  0  0
 30 31  1  0  0  0
 30 35  1  0  0  0
 31 32  1  0  0  0
 31 27  1  0  0  0
 32 40  1  0  0  0
 32 36  1  0  0  0
 40 41  1  0  0  0
 63 67  1  0  0  0
 64 68  1  0  0  0
 65 69  1  0  0  0
 71 72  1  0  0  0
 49 52  1  0  0  0
 50 53  1  0  0  0
 55 56  1  0  0  0
 22 25  1  0  0  0
 23 26  1  0  0  0
 14 15  1  0  0  0
  7  9  1  0  0  0
  8 10  1  0  0  0
 12 13  1  0  0  0
 33 37  1  0  0  0
 34 38  1  0  0  0
 35 39  1  0  0  0
 41 42  1  0  0  0
M  END
> <minimizedAffinity>
-9.35945

$$$$
