1QIN_GIP_A_300


 39 39  0  0  0  0  0  0  0  0999 V2000
   -5.3342    1.7460   35.7540 C   0  0  0  0  0  0  0  0  0  0  0  0
   -3.8276    0.9698   37.4724 C   0  0  0  0  0  0  0  0  0  0  0  0
   -4.6081    1.4239   38.3174 O   0  0  0  0  0  0  0  0  0  0  0  0
   -4.0835    1.0689   36.1725 N   0  0  0  0  0  0  0  0  0  0  0  0
   -3.4593    0.7026   35.5051 H   0  0  0  0  0  0  0  0  0  0  0  0
   -2.5244    0.2840   37.9026 C   0  0  0  0  0  0  0  0  0  0  0  0
   -1.8074   -0.5457   36.7741 C   0  0  0  0  0  0  0  0  0  0  0  0
   -0.8355   -2.8197   36.5676 N   0  0  0  0  0  0  0  0  0  0  0  0
   -2.0654   -2.0813   36.9165 C   0  0  0  0  0  0  0  0  0  0  0  0
   -1.0026   -3.8216   36.6602 H   0  0  0  0  0  0  0  0  0  0  0  0
   -0.0819   -2.5412   37.1960 H   0  0  0  0  0  0  0  0  0  0  0  0
   -3.2874   -2.5157   36.0503 C   0  0  0  0  0  0  0  0  0  0  0  0
   -3.6849   -1.7789   35.1163 O   0  0  0  0  0  0  0  0  0  0  0  0
   -3.8517   -3.6016   36.3118 O   0  0  0  0  0  0  0  0  0  0  0  0
   -3.2466   -0.9700   34.9388 H   0  0  0  0  0  0  0  0  0  0  0  0
   -6.6658    0.9556   36.0326 C   0  0  0  0  0  0  0  0  0  0  0  0
   -6.8860   -0.1018   35.4621 O   0  0  0  0  0  0  0  0  0  0  0  0
   -7.5112    1.5866   36.8600 N   0  0  0  0  0  0  0  0  0  0  0  0
   -7.2478    2.4420   37.2702 H   0  0  0  0  0  0  0  0  0  0  0  0
   -8.8570    0.9961   37.1643 C   0  0  0  0  0  0  0  0  0  0  0  0
   -9.3854    1.6715   38.4482 C   0  0  0  0  0  0  0  0  0  0  0  0
   -9.8005    0.9303   39.3659 O   0  0  0  0  0  0  0  0  0  0  0  0
   -9.3761    2.9138   38.5037 O   0  0  0  0  0  0  0  0  0  0  0  0
   -9.0512    3.4126   37.7801 H   0  0  0  0  0  0  0  0  0  0  0  0
   -5.2329    2.0119   34.2478 C   0  0  0  0  0  0  0  0  0  0  0  0
   -6.0340    3.5731   33.7200 S   0  0  0  0  0  0  0  0  0  0  0  0
   -4.6349    4.5781   33.0679 C   0  0  0  0  0  0  0  0  0  0  0  0
   -3.5325    4.1718   33.4393 O   0  0  0  0  0  0  0  0  0  0  0  0
   -3.4870    3.2097   33.3243 H   0  0  0  0  0  0  0  0  0  0  0  0
   -4.7711    5.5739   32.1836 N   0  0  0  0  0  0  0  0  0  0  0  0
   -4.8325    5.3601   30.9045 O   0  0  0  0  0  0  0  0  0  0  0  0
   -4.8318    4.4049   30.7359 H   0  0  0  0  0  0  0  0  0  0  0  0
   -4.7574    6.9416   32.7179 C   0  0  0  0  0  0  0  0  0  0  0  0
   -5.3488    7.2543   33.9483 C   0  0  0  0  0  0  0  0  0  0  0  0
   -4.0955    7.8962   31.9426 C   0  0  0  0  0  0  0  0  0  0  0  0
   -5.2784    8.5728   34.4128 C   0  0  0  0  0  0  0  0  0  0  0  0
   -4.0277    9.2025   32.4122 C   0  0  0  0  0  0  0  0  0  0  0  0
   -4.6253    9.4927   33.6219 C   0  0  0  0  0  0  0  0  0  0  0  0
   -4.4820   11.5298   34.2822 I   0  0  0  0  0  0  0  0  0  0  0  0
 12 13  1  0  0  0
 12 14  2  0  0  0
 12  9  1  0  0  0
  8  9  1  0  0  0
  9  7  1  0  0  0
  7  6  1  0  0  0
 25 26  1  0  0  0
 25  1  1  0  0  0
 26 27  1  0  0  0
  6  2  1  0  0  0
  2  3  2  0  0  0
  2  4  1  0  0  0
  4  1  1  0  0  0
  1 16  1  0  0  0
 16 17  2  0  0  0
 16 18  1  0  0  0
 18 20  1  0  0  0
 20 21  1  0  0  0
 21 22  2  0  0  0
 21 23  1  0  0  0
 30 31  1  0  0  0
 30 27  1  0  0  0
 30 33  1  0  0  0
 27 28  1  0  0  0
 33 34  2  0  0  0
 33 35  1  0  0  0
 34 36  1  0  0  0
 35 37  2  0  0  0
 36 38  2  0  0  0
 37 38  1  0  0  0
 38 39  1  0  0  0
 13 15  1  0  0  0
  8 10  1  0  0  0
  8 11  1  0  0  0
  4  5  1  0  0  0
 18 19  1  0  0  0
 23 24  1  0  0  0
 31 32  1  0  0  0
 28 29  1  0  0  0
M  END
> <minimizedAffinity>
-8.27821

$$$$
1QIN_GIP_A_300


 39 39  0  0  0  0  0  0  0  0999 V2000
   -4.8367    1.2833   35.4866 C   0  0  0  0  0  0  0  0  0  0  0  0
   -6.6448   -0.3001   35.7073 C   0  0  0  0  0  0  0  0  0  0  0  0
   -6.5250   -0.5565   34.5034 O   0  0  0  0  0  0  0  0  0  0  0  0
   -5.8624    0.5924   36.3042 N   0  0  0  0  0  0  0  0  0  0  0  0
   -5.9610    0.7895   37.2637 H   0  0  0  0  0  0  0  0  0  0  0  0
   -7.7169   -1.0013   36.5515 C   0  0  0  0  0  0  0  0  0  0  0  0
   -9.1290   -0.3071   36.5407 C   0  0  0  0  0  0  0  0  0  0  0  0
  -10.7697    0.2320   38.3227 N   0  0  0  0  0  0  0  0  0  0  0  0
   -9.3977    0.5040   37.8500 C   0  0  0  0  0  0  0  0  0  0  0  0
  -10.9461    0.7607   39.1769 H   0  0  0  0  0  0  0  0  0  0  0  0
  -10.8725   -0.7649   38.5125 H   0  0  0  0  0  0  0  0  0  0  0  0
   -9.1377    2.0242   37.6178 C   0  0  0  0  0  0  0  0  0  0  0  0
   -9.1620    2.8179   38.5887 O   0  0  0  0  0  0  0  0  0  0  0  0
   -8.9101    2.4223   36.4534 O   0  0  0  0  0  0  0  0  0  0  0  0
   -9.3345    2.4969   39.4520 H   0  0  0  0  0  0  0  0  0  0  0  0
   -3.3406    0.9830   35.8698 C   0  0  0  0  0  0  0  0  0  0  0  0
   -2.4413    1.6941   35.4480 O   0  0  0  0  0  0  0  0  0  0  0  0
   -3.1783   -0.1270   36.6041 N   0  0  0  0  0  0  0  0  0  0  0  0
   -3.9659   -0.6413   36.8945 H   0  0  0  0  0  0  0  0  0  0  0  0
   -1.8024   -0.5895   36.9856 C   0  0  0  0  0  0  0  0  0  0  0  0
   -1.5005   -1.8732   36.1825 C   0  0  0  0  0  0  0  0  0  0  0  0
   -1.0324   -2.8514   36.8053 O   0  0  0  0  0  0  0  0  0  0  0  0
   -1.7326   -1.8688   34.9609 O   0  0  0  0  0  0  0  0  0  0  0  0
   -2.0844   -1.1018   34.5536 H   0  0  0  0  0  0  0  0  0  0  0  0
   -5.0794    2.7909   35.6202 C   0  0  0  0  0  0  0  0  0  0  0  0
   -5.8950    3.5378   34.1591 S   0  0  0  0  0  0  0  0  0  0  0  0
   -4.5344    4.4616   33.3295 C   0  0  0  0  0  0  0  0  0  0  0  0
   -3.4130    4.0824   33.6715 O   0  0  0  0  0  0  0  0  0  0  0  0
   -3.3782    3.1133   33.6479 H   0  0  0  0  0  0  0  0  0  0  0  0
   -4.7203    5.3685   32.3625 N   0  0  0  0  0  0  0  0  0  0  0  0
   -4.9061    5.0305   31.1229 O   0  0  0  0  0  0  0  0  0  0  0  0
   -4.9509    4.0639   31.0546 H   0  0  0  0  0  0  0  0  0  0  0  0
   -4.6147    6.7812   32.7493 C   0  0  0  0  0  0  0  0  0  0  0  0
   -3.9807    7.7213   31.9273 C   0  0  0  0  0  0  0  0  0  0  0  0
   -5.2090    7.1305   33.9640 C   0  0  0  0  0  0  0  0  0  0  0  0
   -3.9367    9.0571   32.3428 C   0  0  0  0  0  0  0  0  0  0  0  0
   -5.1634    8.4595   34.3680 C   0  0  0  0  0  0  0  0  0  0  0  0
   -4.5253    9.3687   33.5490 C   0  0  0  0  0  0  0  0  0  0  0  0
   -4.4926   11.4010   34.2382 I   0  0  0  0  0  0  0  0  0  0  0  0
 12 13  1  0  0  0
 12 14  2  0  0  0
 12  9  1  0  0  0
  8  9  1  0  0  0
  9  7  1  0  0  0
  7  6  1  0  0  0
 25 26  1  0  0  0
 25  1  1  0  0  0
 26 27  1  0  0  0
  6  2  1  0  0  0
  2  3  2  0  0  0
  2  4  1  0  0  0
  4  1  1  0  0  0
  1 16  1  0  0  0
 16 17  2  0  0  0
 16 18  1  0  0  0
 18 20  1  0  0  0
 20 21  1  0  0  0
 21 22  2  0  0  0
 21 23  1  0  0  0
 30 31  1  0  0  0
 30 27  1  0  0  0
 30 33  1  0  0  0
 27 28  1  0  0  0
 33 34  2  0  0  0
 33 35  1  0  0  0
 34 36  1  0  0  0
 35 37  2  0  0  0
 36 38  2  0  0  0
 37 38  1  0  0  0
 38 39  1  0  0  0
 13 15  1  0  0  0
  8 10  1  0  0  0
  8 11  1  0  0  0
  4  5  1  0  0  0
 18 19  1  0  0  0
 23 24  1  0  0  0
 31 32  1  0  0  0
 28 29  1  0  0  0
M  END
> <minimizedAffinity>
-8.27545

$$$$
1QIN_GIP_A_300


 39 39  0  0  0  0  0  0  0  0999 V2000
   -4.6828    3.2298   33.9043 C   0  0  0  0  0  0  0  0  0  0  0  0
   -2.6542    2.0490   34.4660 C   0  0  0  0  0  0  0  0  0  0  0  0
   -2.3616    2.0447   33.2644 O   0  0  0  0  0  0  0  0  0  0  0  0
   -3.7777    2.6090   34.9009 N   0  0  0  0  0  0  0  0  0  0  0  0
   -4.0031    2.6117   35.8593 H   0  0  0  0  0  0  0  0  0  0  0  0
   -1.7273    1.3921   35.4971 C   0  0  0  0  0  0  0  0  0  0  0  0
   -2.3758    0.2171   36.3185 C   0  0  0  0  0  0  0  0  0  0  0  0
   -3.1695   -1.6002   34.8266 N   0  0  0  0  0  0  0  0  0  0  0  0
   -2.0548   -1.1826   35.6999 C   0  0  0  0  0  0  0  0  0  0  0  0
   -2.9611   -2.5132   34.4224 H   0  0  0  0  0  0  0  0  0  0  0  0
   -3.2900   -0.9169   34.0789 H   0  0  0  0  0  0  0  0  0  0  0  0
   -1.7546   -2.2234   36.8220 C   0  0  0  0  0  0  0  0  0  0  0  0
   -0.7255   -2.9372   36.7531 O   0  0  0  0  0  0  0  0  0  0  0  0
   -2.5583   -2.3252   37.7757 O   0  0  0  0  0  0  0  0  0  0  0  0
   -0.1379   -2.8434   36.0293 H   0  0  0  0  0  0  0  0  0  0  0  0
   -4.5923    4.7956   33.7802 C   0  0  0  0  0  0  0  0  0  0  0  0
   -4.0857    5.4567   34.6739 O   0  0  0  0  0  0  0  0  0  0  0  0
   -5.1755    5.2898   32.6788 N   0  0  0  0  0  0  0  0  0  0  0  0
   -5.5640    4.6768   32.0136 H   0  0  0  0  0  0  0  0  0  0  0  0
   -5.2392    6.7724   32.4545 C   0  0  0  0  0  0  0  0  0  0  0  0
   -4.6577    7.0594   31.0532 C   0  0  0  0  0  0  0  0  0  0  0  0
   -4.3720    8.2445   30.7744 O   0  0  0  0  0  0  0  0  0  0  0  0
   -4.5073    6.1025   30.2735 O   0  0  0  0  0  0  0  0  0  0  0  0
   -4.7414    5.2364   30.5440 H   0  0  0  0  0  0  0  0  0  0  0  0
   -6.1185    2.8549   34.2888 C   0  0  0  0  0  0  0  0  0  0  0  0
   -6.2560    2.0555   35.9319 S   0  0  0  0  0  0  0  0  0  0  0  0
   -6.1359    0.2577   35.5496 C   0  0  0  0  0  0  0  0  0  0  0  0
   -5.6995    0.0311   34.4197 O   0  0  0  0  0  0  0  0  0  0  0  0
   -4.9144    0.5781   34.2606 H   0  0  0  0  0  0  0  0  0  0  0  0
   -6.3754   -0.7179   36.4343 N   0  0  0  0  0  0  0  0  0  0  0  0
   -5.4375   -1.5029   36.8700 O   0  0  0  0  0  0  0  0  0  0  0  0
   -4.5836   -1.2176   36.5090 H   0  0  0  0  0  0  0  0  0  0  0  0
   -7.7743   -0.9260   36.8293 C   0  0  0  0  0  0  0  0  0  0  0  0
   -8.8225   -0.8034   35.9086 C   0  0  0  0  0  0  0  0  0  0  0  0
   -7.9886   -1.2816   38.1628 C   0  0  0  0  0  0  0  0  0  0  0  0
  -10.1315   -1.0399   36.3439 C   0  0  0  0  0  0  0  0  0  0  0  0
   -9.2911   -1.5176   38.5864 C   0  0  0  0  0  0  0  0  0  0  0  0
  -10.3109   -1.3817   37.6666 C   0  0  0  0  0  0  0  0  0  0  0  0
  -12.2950   -1.7595   38.3925 I   0  0  0  0  0  0  0  0  0  0  0  0
 12 13  1  0  0  0
 12 14  2  0  0  0
 12  9  1  0  0  0
  8  9  1  0  0  0
  9  7  1  0  0  0
  7  6  1  0  0  0
 25 26  1  0  0  0
 25  1  1  0  0  0
 26 27  1  0  0  0
  6  2  1  0  0  0
  2  3  2  0  0  0
  2  4  1  0  0  0
  4  1  1  0  0  0
  1 16  1  0  0  0
 16 17  2  0  0  0
 16 18  1  0  0  0
 18 20  1  0  0  0
 20 21  1  0  0  0
 21 22  2  0  0  0
 21 23  1  0  0  0
 30 31  1  0  0  0
 30 27  1  0  0  0
 30 33  1  0  0  0
 27 28  1  0  0  0
 33 34  2  0  0  0
 33 35  1  0  0  0
 34 36  1  0  0  0
 35 37  2  0  0  0
 36 38  2  0  0  0
 37 38  1  0  0  0
 38 39  1  0  0  0
 13 15  1  0  0  0
  8 10  1  0  0  0
  8 11  1  0  0  0
  4  5  1  0  0  0
 18 19  1  0  0  0
 23 24  1  0  0  0
 31 32  1  0  0  0
 28 29  1  0  0  0
M  END
> <minimizedAffinity>
-8.27137

$$$$
1QIN_GIP_A_300


 39 39  0  0  0  0  0  0  0  0999 V2000
   -4.5037    2.7853   34.2526 C   0  0  0  0  0  0  0  0  0  0  0  0
   -2.5889    1.5443   35.0390 C   0  0  0  0  0  0  0  0  0  0  0  0
   -2.0914    1.6595   33.9126 O   0  0  0  0  0  0  0  0  0  0  0  0
   -3.7781    2.0630   35.3249 N   0  0  0  0  0  0  0  0  0  0  0  0
   -4.1670    1.9703   36.2245 H   0  0  0  0  0  0  0  0  0  0  0  0
   -1.8475    0.7825   36.1452 C   0  0  0  0  0  0  0  0  0  0  0  0
   -2.7387   -0.2114   36.9782 C   0  0  0  0  0  0  0  0  0  0  0  0
   -1.6893   -1.8604   35.4492 N   0  0  0  0  0  0  0  0  0  0  0  0
   -2.8830   -1.6023   36.2788 C   0  0  0  0  0  0  0  0  0  0  0  0
   -1.7824   -2.7676   34.9924 H   0  0  0  0  0  0  0  0  0  0  0  0
   -0.8581   -1.8610   36.0404 H   0  0  0  0  0  0  0  0  0  0  0  0
   -4.2064   -1.6690   35.4562 C   0  0  0  0  0  0  0  0  0  0  0  0
   -5.3121   -1.6076   36.0452 O   0  0  0  0  0  0  0  0  0  0  0  0
   -4.1338   -1.7859   34.2124 O   0  0  0  0  0  0  0  0  0  0  0  0
   -5.3420   -1.5201   36.9776 H   0  0  0  0  0  0  0  0  0  0  0  0
   -4.2022    4.3255   34.1407 C   0  0  0  0  0  0  0  0  0  0  0  0
   -3.7776    4.9424   35.1058 O   0  0  0  0  0  0  0  0  0  0  0  0
   -4.5250    4.8592   32.9540 N   0  0  0  0  0  0  0  0  0  0  0  0
   -4.8672    4.2814   32.2340 H   0  0  0  0  0  0  0  0  0  0  0  0
   -4.3676    6.3329   32.7171 C   0  0  0  0  0  0  0  0  0  0  0  0
   -4.9474    6.6474   31.3211 C   0  0  0  0  0  0  0  0  0  0  0  0
   -5.8856    7.4714   31.2539 O   0  0  0  0  0  0  0  0  0  0  0  0
   -4.4575    6.0646   30.3378 O   0  0  0  0  0  0  0  0  0  0  0  0
   -3.7540    5.4570   30.4559 H   0  0  0  0  0  0  0  0  0  0  0  0
   -6.0041    2.6009   34.5062 C   0  0  0  0  0  0  0  0  0  0  0  0
   -6.3899    1.8637   36.1389 S   0  0  0  0  0  0  0  0  0  0  0  0
   -8.0324    2.5828   36.5608 C   0  0  0  0  0  0  0  0  0  0  0  0
   -8.4258    3.4087   35.7353 O   0  0  0  0  0  0  0  0  0  0  0  0
   -8.3069    3.0534   34.8406 H   0  0  0  0  0  0  0  0  0  0  0  0
   -8.7918    2.1758   37.5854 N   0  0  0  0  0  0  0  0  0  0  0  0
   -9.1561    2.9784   38.5386 O   0  0  0  0  0  0  0  0  0  0  0  0
   -8.8516    3.8773   38.3384 H   0  0  0  0  0  0  0  0  0  0  0  0
   -9.1256    0.7467   37.6365 C   0  0  0  0  0  0  0  0  0  0  0  0
   -8.8679   -0.0265   38.7753 C   0  0  0  0  0  0  0  0  0  0  0  0
   -9.7399    0.2195   36.4983 C   0  0  0  0  0  0  0  0  0  0  0  0
   -9.2340   -1.3774   38.7683 C   0  0  0  0  0  0  0  0  0  0  0  0
  -10.1029   -1.1221   36.5005 C   0  0  0  0  0  0  0  0  0  0  0  0
   -9.8312   -1.8696   37.6284 C   0  0  0  0  0  0  0  0  0  0  0  0
  -10.4179   -3.9329   37.5586 I   0  0  0  0  0  0  0  0  0  0  0  0
 12 13  1  0  0  0
 12 14  2  0  0  0
 12  9  1  0  0  0
  8  9  1  0  0  0
  9  7  1  0  0  0
  7  6  1  0  0  0
 25 26  1  0  0  0
 25  1  1  0  0  0
 26 27  1  0  0  0
  6  2  1  0  0  0
  2  3  2  0  0  0
  2  4  1  0  0  0
  4  1  1  0  0  0
  1 16  1  0  0  0
 16 17  2  0  0  0
 16 18  1  0  0  0
 18 20  1  0  0  0
 20 21  1  0  0  0
 21 22  2  0  0  0
 21 23  1  0  0  0
 30 31  1  0  0  0
 30 27  1  0  0  0
 30 33  1  0  0  0
 27 28  1  0  0  0
 33 34  2  0  0  0
 33 35  1  0  0  0
 34 36  1  0  0  0
 35 37  2  0  0  0
 36 38  2  0  0  0
 37 38  1  0  0  0
 38 39  1  0  0  0
 13 15  1  0  0  0
  8 10  1  0  0  0
  8 11  1  0  0  0
  4  5  1  0  0  0
 18 19  1  0  0  0
 23 24  1  0  0  0
 31 32  1  0  0  0
 28 29  1  0  0  0
M  END
> <minimizedAffinity>
-7.86324

$$$$
1QIN_GIP_A_300


 39 39  0  0  0  0  0  0  0  0999 V2000
   -4.2203    1.5229   34.2004 C   0  0  0  0  0  0  0  0  0  0  0  0
   -2.2714    1.1237   35.5670 C   0  0  0  0  0  0  0  0  0  0  0  0
   -1.6336    1.8768   34.8216 O   0  0  0  0  0  0  0  0  0  0  0  0
   -3.5597    0.8752   35.3589 N   0  0  0  0  0  0  0  0  0  0  0  0
   -4.0623    0.2770   35.9580 H   0  0  0  0  0  0  0  0  0  0  0  0
   -1.5857    0.4389   36.7563 C   0  0  0  0  0  0  0  0  0  0  0  0
   -1.4112   -1.1185   36.6148 C   0  0  0  0  0  0  0  0  0  0  0  0
   -1.0729   -3.0480   38.1382 N   0  0  0  0  0  0  0  0  0  0  0  0
   -1.9451   -1.8882   37.8667 C   0  0  0  0  0  0  0  0  0  0  0  0
   -1.4203   -3.5509   38.9548 H   0  0  0  0  0  0  0  0  0  0  0  0
   -0.1225   -2.7242   38.3173 H   0  0  0  0  0  0  0  0  0  0  0  0
   -3.4363   -2.2980   37.6650 C   0  0  0  0  0  0  0  0  0  0  0  0
   -4.3468   -1.6351   38.2172 O   0  0  0  0  0  0  0  0  0  0  0  0
   -3.6932   -3.2922   36.9499 O   0  0  0  0  0  0  0  0  0  0  0  0
   -4.1306   -0.8942   38.7484 H   0  0  0  0  0  0  0  0  0  0  0  0
   -4.6290    3.0290   34.4004 C   0  0  0  0  0  0  0  0  0  0  0  0
   -5.5626    3.3227   35.1314 O   0  0  0  0  0  0  0  0  0  0  0  0
   -3.9221    3.8894   33.6537 N   0  0  0  0  0  0  0  0  0  0  0  0
   -3.1878    3.5579   33.0879 H   0  0  0  0  0  0  0  0  0  0  0  0
   -4.2441    5.3551   33.6759 C   0  0  0  0  0  0  0  0  0  0  0  0
   -4.9865    5.6913   32.3645 C   0  0  0  0  0  0  0  0  0  0  0  0
   -5.6144    6.7716   32.3129 O   0  0  0  0  0  0  0  0  0  0  0  0
   -4.9270    4.8725   31.4305 O   0  0  0  0  0  0  0  0  0  0  0  0
   -4.4384    4.0795   31.5330 H   0  0  0  0  0  0  0  0  0  0  0  0
   -5.4828    0.7153   33.8787 C   0  0  0  0  0  0  0  0  0  0  0  0
   -5.9095   -0.5251   35.1583 S   0  0  0  0  0  0  0  0  0  0  0  0
   -6.7027    0.4771   36.4846 C   0  0  0  0  0  0  0  0  0  0  0  0
   -5.9836    0.6265   37.4741 O   0  0  0  0  0  0  0  0  0  0  0  0
   -5.0918    0.8815   37.1902 H   0  0  0  0  0  0  0  0  0  0  0  0
   -7.8854    1.0914   36.3589 N   0  0  0  0  0  0  0  0  0  0  0  0
   -7.9887    2.3144   35.9357 O   0  0  0  0  0  0  0  0  0  0  0  0
   -7.1125    2.6436   35.6813 H   0  0  0  0  0  0  0  0  0  0  0  0
   -9.0694    0.3488   36.8096 C   0  0  0  0  0  0  0  0  0  0  0  0
   -9.5523   -0.7602   36.1036 C   0  0  0  0  0  0  0  0  0  0  0  0
   -9.6595    0.7958   37.9939 C   0  0  0  0  0  0  0  0  0  0  0  0
  -10.6703   -1.4396   36.6011 C   0  0  0  0  0  0  0  0  0  0  0  0
  -10.7675    0.1139   38.4826 C   0  0  0  0  0  0  0  0  0  0  0  0
  -11.2342   -0.9700   37.7672 C   0  0  0  0  0  0  0  0  0  0  0  0
  -12.9489   -1.9721   38.5809 I   0  0  0  0  0  0  0  0  0  0  0  0
 12 13  1  0  0  0
 12 14  2  0  0  0
 12  9  1  0  0  0
  8  9  1  0  0  0
  9  7  1  0  0  0
  7  6  1  0  0  0
 25 26  1  0  0  0
 25  1  1  0  0  0
 26 27  1  0  0  0
  6  2  1  0  0  0
  2  3  2  0  0  0
  2  4  1  0  0  0
  4  1  1  0  0  0
  1 16  1  0  0  0
 16 17  2  0  0  0
 16 18  1  0  0  0
 18 20  1  0  0  0
 20 21  1  0  0  0
 21 22  2  0  0  0
 21 23  1  0  0  0
 30 31  1  0  0  0
 30 27  1  0  0  0
 30 33  1  0  0  0
 27 28  1  0  0  0
 33 34  2  0  0  0
 33 35  1  0  0  0
 34 36  1  0  0  0
 35 37  2  0  0  0
 36 38  2  0  0  0
 37 38  1  0  0  0
 38 39  1  0  0  0
 13 15  1  0  0  0
  8 10  1  0  0  0
  8 11  1  0  0  0
  4  5  1  0  0  0
 18 19  1  0  0  0
 23 24  1  0  0  0
 31 32  1  0  0  0
 28 29  1  0  0  0
M  END
> <minimizedAffinity>
-7.80818

$$$$
1QIN_GIP_A_300


 39 39  0  0  0  0  0  0  0  0999 V2000
   -4.0069    1.3475   36.3479 C   0  0  0  0  0  0  0  0  0  0  0  0
   -4.2643    2.9775   34.5867 C   0  0  0  0  0  0  0  0  0  0  0  0
   -4.5065    3.8273   35.4519 O   0  0  0  0  0  0  0  0  0  0  0  0
   -4.0002    1.7169   34.9121 N   0  0  0  0  0  0  0  0  0  0  0  0
   -3.8052    1.0460   34.2184 H   0  0  0  0  0  0  0  0  0  0  0  0
   -4.2738    3.3537   33.0993 C   0  0  0  0  0  0  0  0  0  0  0  0
   -5.2671    4.5117   32.7142 C   0  0  0  0  0  0  0  0  0  0  0  0
   -5.0493    6.6935   33.8762 N   0  0  0  0  0  0  0  0  0  0  0  0
   -4.5712    5.9118   32.7186 C   0  0  0  0  0  0  0  0  0  0  0  0
   -4.5959    7.6072   33.8801 H   0  0  0  0  0  0  0  0  0  0  0  0
   -4.8225    6.1978   34.7383 H   0  0  0  0  0  0  0  0  0  0  0  0
   -4.8081    6.6473   31.3639 C   0  0  0  0  0  0  0  0  0  0  0  0
   -4.4878    6.0909   30.2863 O   0  0  0  0  0  0  0  0  0  0  0  0
   -5.3164    7.7906   31.3834 O   0  0  0  0  0  0  0  0  0  0  0  0
   -4.1085    5.2342   30.2961 H   0  0  0  0  0  0  0  0  0  0  0  0
   -2.7718    0.5084   36.8437 C   0  0  0  0  0  0  0  0  0  0  0  0
   -1.6345    0.8894   36.6123 O   0  0  0  0  0  0  0  0  0  0  0  0
   -3.1015   -0.6446   37.4432 N   0  0  0  0  0  0  0  0  0  0  0  0
   -4.0496   -0.8708   37.5818 H   0  0  0  0  0  0  0  0  0  0  0  0
   -2.0329   -1.5925   37.9042 C   0  0  0  0  0  0  0  0  0  0  0  0
   -1.7397   -2.5678   36.7437 C   0  0  0  0  0  0  0  0  0  0  0  0
   -2.6931   -2.8915   36.0020 O   0  0  0  0  0  0  0  0  0  0  0  0
   -0.5760   -2.9845   36.6078 O   0  0  0  0  0  0  0  0  0  0  0  0
    0.0945   -2.7029   37.1986 H   0  0  0  0  0  0  0  0  0  0  0  0
   -5.2815    0.5373   36.6096 C   0  0  0  0  0  0  0  0  0  0  0  0
   -6.2169    1.0921   38.0844 S   0  0  0  0  0  0  0  0  0  0  0  0
   -7.6101    2.0641   37.3724 C   0  0  0  0  0  0  0  0  0  0  0  0
   -7.3204    2.6195   36.3113 O   0  0  0  0  0  0  0  0  0  0  0  0
   -6.8683    1.9890   35.7292 H   0  0  0  0  0  0  0  0  0  0  0  0
   -8.8513    2.0791   37.8737 N   0  0  0  0  0  0  0  0  0  0  0  0
   -9.3785    3.1498   38.3847 O   0  0  0  0  0  0  0  0  0  0  0  0
   -8.7677    3.8953   38.2744 H   0  0  0  0  0  0  0  0  0  0  0  0
   -9.5691    0.7985   37.9053 C   0  0  0  0  0  0  0  0  0  0  0  0
  -10.0999    0.2842   39.0949 C   0  0  0  0  0  0  0  0  0  0  0  0
   -9.7147    0.1468   36.6786 C   0  0  0  0  0  0  0  0  0  0  0  0
  -10.7955   -0.9296   39.0518 C   0  0  0  0  0  0  0  0  0  0  0  0
  -10.4092   -1.0566   36.6439 C   0  0  0  0  0  0  0  0  0  0  0  0
  -10.9158   -1.5517   37.8283 C   0  0  0  0  0  0  0  0  0  0  0  0
  -11.9741   -3.4143   37.6982 I   0  0  0  0  0  0  0  0  0  0  0  0
 12 13  1  0  0  0
 12 14  2  0  0  0
 12  9  1  0  0  0
  8  9  1  0  0  0
  9  7  1  0  0  0
  7  6  1  0  0  0
 25 26  1  0  0  0
 25  1  1  0  0  0
 26 27  1  0  0  0
  6  2  1  0  0  0
  2  3  2  0  0  0
  2  4  1  0  0  0
  4  1  1  0  0  0
  1 16  1  0  0  0
 16 17  2  0  0  0
 16 18  1  0  0  0
 18 20  1  0  0  0
 20 21  1  0  0  0
 21 22  2  0  0  0
 21 23  1  0  0  0
 30 31  1  0  0  0
 30 27  1  0  0  0
 30 33  1  0  0  0
 27 28  1  0  0  0
 33 34  2  0  0  0
 33 35  1  0  0  0
 34 36  1  0  0  0
 35 37  2  0  0  0
 36 38  2  0  0  0
 37 38  1  0  0  0
 38 39  1  0  0  0
 13 15  1  0  0  0
  8 10  1  0  0  0
  8 11  1  0  0  0
  4  5  1  0  0  0
 18 19  1  0  0  0
 23 24  1  0  0  0
 31 32  1  0  0  0
 28 29  1  0  0  0
M  END
> <minimizedAffinity>
-7.72661

$$$$
1QIN_GIP_A_300


 39 39  0  0  0  0  0  0  0  0999 V2000
   -3.7569    1.3450   34.6401 C   0  0  0  0  0  0  0  0  0  0  0  0
   -6.0546    1.1047   35.3387 C   0  0  0  0  0  0  0  0  0  0  0  0
   -6.1157    0.0656   34.6708 O   0  0  0  0  0  0  0  0  0  0  0  0
   -4.9374    1.8210   35.4003 N   0  0  0  0  0  0  0  0  0  0  0  0
   -4.8946    2.6457   35.9363 H   0  0  0  0  0  0  0  0  0  0  0  0
   -7.2800    1.6084   36.1122 C   0  0  0  0  0  0  0  0  0  0  0  0
   -7.1344    1.5776   37.6787 C   0  0  0  0  0  0  0  0  0  0  0  0
   -7.7384   -0.3329   39.1428 N   0  0  0  0  0  0  0  0  0  0  0  0
   -6.7137    0.1665   38.2046 C   0  0  0  0  0  0  0  0  0  0  0  0
   -7.4649   -1.2535   39.4865 H   0  0  0  0  0  0  0  0  0  0  0  0
   -8.6351   -0.4021   38.6616 H   0  0  0  0  0  0  0  0  0  0  0  0
   -5.2934    0.2204   38.8465 C   0  0  0  0  0  0  0  0  0  0  0  0
   -4.4343    1.0161   38.3971 O   0  0  0  0  0  0  0  0  0  0  0  0
   -5.0397   -0.5424   39.8055 O   0  0  0  0  0  0  0  0  0  0  0  0
   -4.6469    1.5780   37.6780 H   0  0  0  0  0  0  0  0  0  0  0  0
   -2.5171    0.9088   35.5051 C   0  0  0  0  0  0  0  0  0  0  0  0
   -1.4919    1.5729   35.4923 O   0  0  0  0  0  0  0  0  0  0  0  0
   -2.6865   -0.2521   36.1539 N   0  0  0  0  0  0  0  0  0  0  0  0
   -3.5505   -0.7212   36.1007 H   0  0  0  0  0  0  0  0  0  0  0  0
   -1.5663   -0.8405   36.9610 C   0  0  0  0  0  0  0  0  0  0  0  0
   -1.6843   -2.3776   36.8751 C   0  0  0  0  0  0  0  0  0  0  0  0
   -1.0914   -3.0552   37.7430 O   0  0  0  0  0  0  0  0  0  0  0  0
   -2.3565   -2.8632   35.9484 O   0  0  0  0  0  0  0  0  0  0  0  0
   -2.7769   -2.2994   35.3292 H   0  0  0  0  0  0  0  0  0  0  0  0
   -3.3223    2.4794   33.7054 C   0  0  0  0  0  0  0  0  0  0  0  0
   -3.7449    4.1500   34.3286 S   0  0  0  0  0  0  0  0  0  0  0  0
   -5.0875    4.7068   33.1972 C   0  0  0  0  0  0  0  0  0  0  0  0
   -6.1806    4.2008   33.4570 O   0  0  0  0  0  0  0  0  0  0  0  0
   -6.3444    4.2575   34.4114 H   0  0  0  0  0  0  0  0  0  0  0  0
   -4.9401    5.6538   32.2625 N   0  0  0  0  0  0  0  0  0  0  0  0
   -4.8057    5.3684   31.0031 O   0  0  0  0  0  0  0  0  0  0  0  0
   -4.8978    4.4111   30.8769 H   0  0  0  0  0  0  0  0  0  0  0  0
   -4.8448    7.0413   32.7338 C   0  0  0  0  0  0  0  0  0  0  0  0
   -5.4681    7.4587   33.9165 C   0  0  0  0  0  0  0  0  0  0  0  0
   -4.0737    7.9032   31.9508 C   0  0  0  0  0  0  0  0  0  0  0  0
   -5.3167    8.7893   34.3232 C   0  0  0  0  0  0  0  0  0  0  0  0
   -3.9262    9.2223   32.3632 C   0  0  0  0  0  0  0  0  0  0  0  0
   -4.5564    9.6166   33.5259 C   0  0  0  0  0  0  0  0  0  0  0  0
   -4.2855   11.6671   34.0990 I   0  0  0  0  0  0  0  0  0  0  0  0
 12 13  1  0  0  0
 12 14  2  0  0  0
 12  9  1  0  0  0
  8  9  1  0  0  0
  9  7  1  0  0  0
  7  6  1  0  0  0
 25 26  1  0  0  0
 25  1  1  0  0  0
 26 27  1  0  0  0
  6  2  1  0  0  0
  2  3  2  0  0  0
  2  4  1  0  0  0
  4  1  1  0  0  0
  1 16  1  0  0  0
 16 17  2  0  0  0
 16 18  1  0  0  0
 18 20  1  0  0  0
 20 21  1  0  0  0
 21 22  2  0  0  0
 21 23  1  0  0  0
 30 31  1  0  0  0
 30 27  1  0  0  0
 30 33  1  0  0  0
 27 28  1  0  0  0
 33 34  2  0  0  0
 33 35  1  0  0  0
 34 36  1  0  0  0
 35 37  2  0  0  0
 36 38  2  0  0  0
 37 38  1  0  0  0
 38 39  1  0  0  0
 13 15  1  0  0  0
  8 10  1  0  0  0
  8 11  1  0  0  0
  4  5  1  0  0  0
 18 19  1  0  0  0
 23 24  1  0  0  0
 31 32  1  0  0  0
 28 29  1  0  0  0
M  END
> <minimizedAffinity>
-7.71689

$$$$
1QIN_GIP_A_300


 39 39  0  0  0  0  0  0  0  0999 V2000
   -3.9230    0.2957   37.6786 C   0  0  0  0  0  0  0  0  0  0  0  0
   -2.6927    1.3198   35.8723 C   0  0  0  0  0  0  0  0  0  0  0  0
   -1.6455    1.0213   36.4585 O   0  0  0  0  0  0  0  0  0  0  0  0
   -3.8806    1.0097   36.3800 N   0  0  0  0  0  0  0  0  0  0  0  0
   -4.7104    1.2477   35.9066 H   0  0  0  0  0  0  0  0  0  0  0  0
   -2.6516    2.0739   34.5368 C   0  0  0  0  0  0  0  0  0  0  0  0
   -3.2906    3.5115   34.5667 C   0  0  0  0  0  0  0  0  0  0  0  0
   -5.1852    2.1235   33.7653 N   0  0  0  0  0  0  0  0  0  0  0  0
   -4.7908    3.4997   34.1263 C   0  0  0  0  0  0  0  0  0  0  0  0
   -6.1637    2.1146   33.4777 H   0  0  0  0  0  0  0  0  0  0  0  0
   -5.0623    1.5119   34.5723 H   0  0  0  0  0  0  0  0  0  0  0  0
   -5.0303    4.5125   32.9647 C   0  0  0  0  0  0  0  0  0  0  0  0
   -4.5946    4.2603   31.8159 O   0  0  0  0  0  0  0  0  0  0  0  0
   -5.6575    5.5674   33.2090 O   0  0  0  0  0  0  0  0  0  0  0  0
   -4.1275    3.4638   31.6564 H   0  0  0  0  0  0  0  0  0  0  0  0
   -3.8587   -1.2743   37.5981 C   0  0  0  0  0  0  0  0  0  0  0  0
   -2.8214   -1.8632   37.8615 O   0  0  0  0  0  0  0  0  0  0  0  0
   -4.9884   -1.8440   37.1546 N   0  0  0  0  0  0  0  0  0  0  0  0
   -5.7757   -1.2852   36.9619 H   0  0  0  0  0  0  0  0  0  0  0  0
   -5.0593   -3.3292   36.9503 C   0  0  0  0  0  0  0  0  0  0  0  0
   -5.1872   -3.5877   35.4334 C   0  0  0  0  0  0  0  0  0  0  0  0
   -5.1343   -2.5992   34.6692 O   0  0  0  0  0  0  0  0  0  0  0  0
   -5.3403   -4.7605   35.0493 O   0  0  0  0  0  0  0  0  0  0  0  0
   -5.3716   -5.4578   35.6743 H   0  0  0  0  0  0  0  0  0  0  0  0
   -5.2261    0.6934   38.3811 C   0  0  0  0  0  0  0  0  0  0  0  0
   -5.9041    2.3007   37.8204 S   0  0  0  0  0  0  0  0  0  0  0  0
   -7.1460    1.8252   36.5458 C   0  0  0  0  0  0  0  0  0  0  0  0
   -7.5887    2.7887   35.9180 O   0  0  0  0  0  0  0  0  0  0  0  0
   -6.8545    3.3584   35.6399 H   0  0  0  0  0  0  0  0  0  0  0  0
   -7.4584    0.5615   36.2335 N   0  0  0  0  0  0  0  0  0  0  0  0
   -6.7531   -0.1400   35.3993 O   0  0  0  0  0  0  0  0  0  0  0  0
   -5.9755    0.3705   35.1243 H   0  0  0  0  0  0  0  0  0  0  0  0
   -8.6971    0.0231   36.8097 C   0  0  0  0  0  0  0  0  0  0  0  0
   -9.2072    0.4966   38.0250 C   0  0  0  0  0  0  0  0  0  0  0  0
   -9.3453   -0.9607   36.0595 C   0  0  0  0  0  0  0  0  0  0  0  0
  -10.4064   -0.0412   38.5065 C   0  0  0  0  0  0  0  0  0  0  0  0
  -10.5370   -1.4875   36.5433 C   0  0  0  0  0  0  0  0  0  0  0  0
  -11.0178   -1.0151   37.7475 C   0  0  0  0  0  0  0  0  0  0  0  0
  -12.8608   -1.8757   38.4323 I   0  0  0  0  0  0  0  0  0  0  0  0
 12 13  1  0  0  0
 12 14  2  0  0  0
 12  9  1  0  0  0
  8  9  1  0  0  0
  9  7  1  0  0  0
  7  6  1  0  0  0
 25 26  1  0  0  0
 25  1  1  0  0  0
 26 27  1  0  0  0
  6  2  1  0  0  0
  2  3  2  0  0  0
  2  4  1  0  0  0
  4  1  1  0  0  0
  1 16  1  0  0  0
 16 17  2  0  0  0
 16 18  1  0  0  0
 18 20  1  0  0  0
 20 21  1  0  0  0
 21 22  2  0  0  0
 21 23  1  0  0  0
 30 31  1  0  0  0
 30 27  1  0  0  0
 30 33  1  0  0  0
 27 28  1  0  0  0
 33 34  2  0  0  0
 33 35  1  0  0  0
 34 36  1  0  0  0
 35 37  2  0  0  0
 36 38  2  0  0  0
 37 38  1  0  0  0
 38 39  1  0  0  0
 13 15  1  0  0  0
  8 10  1  0  0  0
  8 11  1  0  0  0
  4  5  1  0  0  0
 18 19  1  0  0  0
 23 24  1  0  0  0
 31 32  1  0  0  0
 28 29  1  0  0  0
M  END
> <minimizedAffinity>
-7.54278

$$$$
1QIN_GIP_A_300


 39 39  0  0  0  0  0  0  0  0999 V2000
   -5.1016   -0.0343   39.1096 C   0  0  0  0  0  0  0  0  0  0  0  0
   -2.7508   -0.2360   38.6017 C   0  0  0  0  0  0  0  0  0  0  0  0
   -2.6257   -0.9404   39.6105 O   0  0  0  0  0  0  0  0  0  0  0  0
   -3.9299    0.2668   38.2527 N   0  0  0  0  0  0  0  0  0  0  0  0
   -4.0231    0.8243   37.4466 H   0  0  0  0  0  0  0  0  0  0  0  0
   -1.5365    0.0911   37.7229 C   0  0  0  0  0  0  0  0  0  0  0  0
   -1.8834    0.6367   36.2883 C   0  0  0  0  0  0  0  0  0  0  0  0
   -3.8122   -0.5592   35.2845 N   0  0  0  0  0  0  0  0  0  0  0  0
   -2.3373   -0.5022   35.3179 C   0  0  0  0  0  0  0  0  0  0  0  0
   -4.1095   -1.3019   34.6516 H   0  0  0  0  0  0  0  0  0  0  0  0
   -4.1797    0.3341   34.9567 H   0  0  0  0  0  0  0  0  0  0  0  0
   -1.6974   -1.8632   35.7306 C   0  0  0  0  0  0  0  0  0  0  0  0
   -2.4290   -2.8066   36.1155 O   0  0  0  0  0  0  0  0  0  0  0  0
   -0.4533   -1.9836   35.6698 O   0  0  0  0  0  0  0  0  0  0  0  0
   -3.3584   -2.6935   36.1530 H   0  0  0  0  0  0  0  0  0  0  0  0
   -5.9037   -1.3360   38.7384 C   0  0  0  0  0  0  0  0  0  0  0  0
   -6.9330   -1.6167   39.3334 O   0  0  0  0  0  0  0  0  0  0  0  0
   -5.3120   -2.0926   37.8031 N   0  0  0  0  0  0  0  0  0  0  0  0
   -4.4771   -1.7858   37.3812 H   0  0  0  0  0  0  0  0  0  0  0  0
   -5.9157   -3.4050   37.3957 C   0  0  0  0  0  0  0  0  0  0  0  0
   -5.2628   -3.8267   36.0615 C   0  0  0  0  0  0  0  0  0  0  0  0
   -4.7495   -4.9653   36.0004 O   0  0  0  0  0  0  0  0  0  0  0  0
   -5.2760   -3.0147   35.1198 O   0  0  0  0  0  0  0  0  0  0  0  0
   -5.6778   -2.1754   35.2304 H   0  0  0  0  0  0  0  0  0  0  0  0
   -6.0540    1.1638   39.0261 C   0  0  0  0  0  0  0  0  0  0  0  0
   -5.8939    2.1250   37.4743 S   0  0  0  0  0  0  0  0  0  0  0  0
   -7.3443    1.5815   36.4774 C   0  0  0  0  0  0  0  0  0  0  0  0
   -7.9638    2.5196   35.9727 O   0  0  0  0  0  0  0  0  0  0  0  0
   -7.3384    3.1344   35.5584 H   0  0  0  0  0  0  0  0  0  0  0  0
   -7.6406    0.3028   36.2142 N   0  0  0  0  0  0  0  0  0  0  0  0
   -6.8699   -0.4516   35.4915 O   0  0  0  0  0  0  0  0  0  0  0  0
   -6.0651    0.0372   35.2585 H   0  0  0  0  0  0  0  0  0  0  0  0
   -8.9322   -0.1933   36.7061 C   0  0  0  0  0  0  0  0  0  0  0  0
   -9.6542   -1.1724   36.0124 C   0  0  0  0  0  0  0  0  0  0  0  0
   -9.3758    0.3461   37.9156 C   0  0  0  0  0  0  0  0  0  0  0  0
  -10.8668   -1.6205   36.5489 C   0  0  0  0  0  0  0  0  0  0  0  0
  -10.5795   -0.1062   38.4429 C   0  0  0  0  0  0  0  0  0  0  0  0
  -11.2811   -1.0640   37.7392 C   0  0  0  0  0  0  0  0  0  0  0  0
  -13.1309   -1.7128   38.6130 I   0  0  0  0  0  0  0  0  0  0  0  0
 12 13  1  0  0  0
 12 14  2  0  0  0
 12  9  1  0  0  0
  8  9  1  0  0  0
  9  7  1  0  0  0
  7  6  1  0  0  0
 25 26  1  0  0  0
 25  1  1  0  0  0
 26 27  1  0  0  0
  6  2  1  0  0  0
  2  3  2  0  0  0
  2  4  1  0  0  0
  4  1  1  0  0  0
  1 16  1  0  0  0
 16 17  2  0  0  0
 16 18  1  0  0  0
 18 20  1  0  0  0
 20 21  1  0  0  0
 21 22  2  0  0  0
 21 23  1  0  0  0
 30 31  1  0  0  0
 30 27  1  0  0  0
 30 33  1  0  0  0
 27 28  1  0  0  0
 33 34  2  0  0  0
 33 35  1  0  0  0
 34 36  1  0  0  0
 35 37  2  0  0  0
 36 38  2  0  0  0
 37 38  1  0  0  0
 38 39  1  0  0  0
 13 15  1  0  0  0
  8 10  1  0  0  0
  8 11  1  0  0  0
  4  5  1  0  0  0
 18 19  1  0  0  0
 23 24  1  0  0  0
 31 32  1  0  0  0
 28 29  1  0  0  0
M  END
> <minimizedAffinity>
-7.46774

$$$$
1QIN_GIP_A_300


 39 39  0  0  0  0  0  0  0  0999 V2000
   -4.3297    1.8334   35.6090 C   0  0  0  0  0  0  0  0  0  0  0  0
   -4.4229    3.8244   34.2479 C   0  0  0  0  0  0  0  0  0  0  0  0
   -3.8252    4.4284   35.1465 O   0  0  0  0  0  0  0  0  0  0  0  0
   -4.7248    2.5359   34.3646 N   0  0  0  0  0  0  0  0  0  0  0  0
   -5.1981    2.0603   33.6442 H   0  0  0  0  0  0  0  0  0  0  0  0
   -4.8479    4.5535   32.9666 C   0  0  0  0  0  0  0  0  0  0  0  0
   -4.9656    6.1169   33.1009 C   0  0  0  0  0  0  0  0  0  0  0  0
   -4.5336    6.0459   30.6582 N   0  0  0  0  0  0  0  0  0  0  0  0
   -5.2148    6.8103   31.7219 C   0  0  0  0  0  0  0  0  0  0  0  0
   -4.6956    6.4975   29.7581 H   0  0  0  0  0  0  0  0  0  0  0  0
   -4.9028    5.0954   30.6331 H   0  0  0  0  0  0  0  0  0  0  0  0
   -4.7618    8.3020   31.7673 C   0  0  0  0  0  0  0  0  0  0  0  0
   -5.1953    9.0596   32.6680 O   0  0  0  0  0  0  0  0  0  0  0  0
   -3.9683    8.7144   30.8919 O   0  0  0  0  0  0  0  0  0  0  0  0
   -5.7888    8.7287   33.3131 H   0  0  0  0  0  0  0  0  0  0  0  0
   -2.9303    1.1151   35.5738 C   0  0  0  0  0  0  0  0  0  0  0  0
   -2.2758    1.0902   34.5427 O   0  0  0  0  0  0  0  0  0  0  0  0
   -2.6029    0.5030   36.7208 N   0  0  0  0  0  0  0  0  0  0  0  0
   -3.1987    0.5743   37.5012 H   0  0  0  0  0  0  0  0  0  0  0  0
   -1.3328   -0.2904   36.8214 C   0  0  0  0  0  0  0  0  0  0  0  0
   -1.6110   -1.6948   36.2433 C   0  0  0  0  0  0  0  0  0  0  0  0
   -1.9151   -2.6038   37.0464 O   0  0  0  0  0  0  0  0  0  0  0  0
   -1.5146   -1.8523   35.0135 O   0  0  0  0  0  0  0  0  0  0  0  0
   -1.2825   -1.1287   34.4653 H   0  0  0  0  0  0  0  0  0  0  0  0
   -5.4069    0.7849   35.9084 C   0  0  0  0  0  0  0  0  0  0  0  0
   -6.2686    1.0492   37.5038 S   0  0  0  0  0  0  0  0  0  0  0  0
   -7.7116    2.0990   37.0471 C   0  0  0  0  0  0  0  0  0  0  0  0
   -7.5311    2.7476   36.0151 O   0  0  0  0  0  0  0  0  0  0  0  0
   -7.1613    2.1690   35.3301 H   0  0  0  0  0  0  0  0  0  0  0  0
   -8.8879    2.0812   37.6860 N   0  0  0  0  0  0  0  0  0  0  0  0
   -9.3133    3.0917   38.3814 O   0  0  0  0  0  0  0  0  0  0  0  0
   -8.6902    3.8299   38.2935 H   0  0  0  0  0  0  0  0  0  0  0  0
   -9.6467    0.8248   37.6431 C   0  0  0  0  0  0  0  0  0  0  0  0
   -9.7385    0.0629   36.4716 C   0  0  0  0  0  0  0  0  0  0  0  0
  -10.2399    0.4254   38.8429 C   0  0  0  0  0  0  0  0  0  0  0  0
  -10.4561   -1.1383   36.5048 C   0  0  0  0  0  0  0  0  0  0  0  0
  -10.9483   -0.7701   38.8681 C   0  0  0  0  0  0  0  0  0  0  0  0
  -11.0357   -1.5012   37.7009 C   0  0  0  0  0  0  0  0  0  0  0  0
  -12.1465   -3.3341   37.8149 I   0  0  0  0  0  0  0  0  0  0  0  0
 12 13  1  0  0  0
 12 14  2  0  0  0
 12  9  1  0  0  0
  8  9  1  0  0  0
  9  7  1  0  0  0
  7  6  1  0  0  0
 25 26  1  0  0  0
 25  1  1  0  0  0
 26 27  1  0  0  0
  6  2  1  0  0  0
  2  3  2  0  0  0
  2  4  1  0  0  0
  4  1  1  0  0  0
  1 16  1  0  0  0
 16 17  2  0  0  0
 16 18  1  0  0  0
 18 20  1  0  0  0
 20 21  1  0  0  0
 21 22  2  0  0  0
 21 23  1  0  0  0
 30 31  1  0  0  0
 30 27  1  0  0  0
 30 33  1  0  0  0
 27 28  1  0  0  0
 33 34  2  0  0  0
 33 35  1  0  0  0
 34 36  1  0  0  0
 35 37  2  0  0  0
 36 38  2  0  0  0
 37 38  1  0  0  0
 38 39  1  0  0  0
 13 15  1  0  0  0
  8 10  1  0  0  0
  8 11  1  0  0  0
  4  5  1  0  0  0
 18 19  1  0  0  0
 23 24  1  0  0  0
 31 32  1  0  0  0
 28 29  1  0  0  0
M  END
> <minimizedAffinity>
-7.39566

$$$$
