4DE1_0J6_A_301
  RCSB PDB12061712113D
Coordinates from PDB:4DE1:A:301 Model:1 without hydrogens
 23 26  0  0  0  0            999 V2000
   -9.2120   55.4320   13.8030   O 0  0  0  0  0  0  0  0  0  0  0  0
   -8.8880   55.5960   12.6160   C 0  0  0  0  0  0  0  0  0  0  0  0
   -9.6930   56.5100   11.7420   C 0  0  0  0  0  0  0  0  0  0  0  0
  -10.7160   57.2500   12.3480   C 0  0  0  0  0  0  0  0  0  0  0  0
  -11.4270   58.1590   11.5830   C 0  0  0  0  0  0  0  0  0  0  0  0
  -12.5210   59.0220   11.9410   C 0  0  0  0  0  0  0  0  0  0  0  0
  -12.8350   59.6840   10.8070   N 0  0  0  0  0  0  0  0  0  0  0  0
  -11.9970   59.2600    9.7730   N 0  0  0  0  0  0  0  0  0  0  0  0
  -11.1310   58.3200   10.2380   C 0  0  0  0  0  0  0  0  0  0  0  0
  -10.1190   57.5960    9.6180   C 0  0  0  0  0  0  0  0  0  0  0  0
   -9.3780   56.7000   10.3770   C 0  0  0  0  0  0  0  0  0  0  0  0
   -7.8040   54.9990   12.1030   N 0  0  0  0  0  0  0  0  0  0  0  0
   -6.9440   54.1610   12.8240   C 0  0  0  0  0  0  0  0  0  0  0  0
   -5.6020   54.1490   12.4580   C 0  0  0  0  0  0  0  0  0  0  0  0
   -7.4000   53.3290   13.8610   C 0  0  0  0  0  0  0  0  0  0  0  0
   -6.4710   52.5690   14.5680   C 0  0  0  0  0  0  0  0  0  0  0  0
   -5.1160   52.5580   14.2430   C 0  0  0  0  0  0  0  0  0  0  0  0
   -4.7140   53.3440   13.1770   C 0  0  0  0  0  0  0  0  0  0  0  0
   -3.2930   53.3440   12.8090   C 0  0  0  0  0  0  0  0  0  0  0  0
   -2.8080   53.6280   11.5880   N 0  0  0  0  0  0  0  0  0  0  0  0
   -1.4420   53.4520   11.6620   N 0  0  0  0  0  0  0  0  0  0  0  0
   -1.1290   53.0620   12.9220   N 0  0  0  0  0  0  0  0  0  0  0  0
   -2.2780   53.0180   13.6300   N 0  0  0  0  0  0  0  0  0  0  0  0
 10  9  1  0  0  0  0
 10 11  2  0  0  0  0
  8  9  2  0  0  0  0
  8  7  1  0  0  0  0
  9  5  1  0  0  0  0
 11  3  1  0  0  0  0
  7  6  1  0  0  0  0
  5  6  2  0  0  0  0
  5  4  1  0  0  0  0
 20 21  1  0  0  0  0
 20 19  1  0  0  0  0
 21 22  2  0  0  0  0
  3  4  2  0  0  0  0
  3  2  1  0  0  0  0
 12  2  1  0  0  0  0
 12 13  1  0  0  0  0
 14 13  2  0  0  0  0
 14 18  1  0  0  0  0
  2  1  2  0  0  0  0
 19 18  1  0  0  0  0
 19 23  2  0  0  0  0
 13 15  1  0  0  0  0
 22 23  1  0  0  0  0
 18 17  2  0  0  0  0
 15 16  2  0  0  0  0
 17 16  1  0  0  0  0
A    1
O14
A    2
C13
A    3
C15
A    4
C20
A    5
C19
A    6
C23
A    7
N22
A    8
N21
A    9
C18
A   10
C17
A   11
C16
A   12
N12
A   13
C8
A   14
C7
A   15
C9
A   16
C10
A   17
C11
A   18
C6
A   19
C2
A   20
N3
A   21
N4
A   22
N5
A   23
N1
M  END
>  <InstanceId>
4DE1_0J6_A_301

>  <ChemCompId>
0J6

>  <PdbId>
4DE1

>  <ChainId>
A

>  <ResidueNumber>
301

>  <InsertionCode>


>  <Model>
1

>  <AltIds>


>  <MissingHeavyAtoms>
0

>  <ObservedFormula>
C15 N7 O

>  <Name>
N-[3-(1H-tetrazol-5-yl)phenyl]-2H-indazole-5-carboxamide

>  <SystematicName>
N-[3-(1H-1,2,3,4-tetrazol-5-yl)phenyl]-2H-indazole-5-carboxamide

>  <Synonyms>


>  <Type>
NON-POLYMER

>  <Formula>
C15 H11 N7 O

>  <MolecularWeight>
305.294

>  <ModifiedDate>
2012-03-23

>  <Parent>


>  <OneLetterCode>


>  <SubcomponentList>


>  <AmbiguousFlag>
N

>  <InChI>
InChI=1S/C15H11N7O/c23-15(10-4-5-13-11(6-10)8-16-18-13)17-12-3-1-2-9(7-12)14-19-21-22-20-14/h1-8H,(H,16,18)(H,17,23)(H,19,20,21,22)

>  <InChIKey>
UWMWXBXKWPTZOO-UHFFFAOYSA-N

>  <SMILES>
c1cc(cc(c1)NC(=O)c2ccc3c(c2)c[nH]n3)c4[nH]nnn4

$$$$
