5EDL_VIB_A_201


 21 22  0  0  0  0  0  0  0  0999 V2000
    9.4801   19.8289   58.6730 C   0  0  0  0  0  0  0  0  0  0  0  0
    5.8942   18.7502   63.0507 C   0  0  0  0  0  0  0  0  0  0  0  0
   10.0359   17.5734   60.7243 N   0  0  0  0  0  0  0  0  0  0  0  0
    8.8518   18.3988   60.8231 C   0  0  0  0  0  0  0  0  0  0  0  0
    7.9754   18.2161   61.8129 N   0  0  0  0  0  0  0  0  0  0  0  0
    6.8684   19.0050   61.8879 C   0  0  0  0  0  0  0  0  0  0  0  0
    6.6633   19.9943   60.9610 N   0  0  0  0  0  0  0  0  0  0  0  0
    7.5460   20.1962   59.9490 C   0  0  0  0  0  0  0  0  0  0  0  0
    8.6524   19.3865   59.8935 C   0  0  0  0  0  0  0  0  0  0  0  0
   10.1947   16.8595   61.3834 H   0  0  0  0  0  0  0  0  0  0  0  0
   10.6828   17.7255   59.9979 H   0  0  0  0  0  0  0  0  0  0  0  0
   12.2266   19.2234   57.2330 C   0  0  0  0  0  0  0  0  0  0  0  0
    8.5954   17.8164   57.2366 C   0  0  0  0  0  0  0  0  0  0  0  0
    9.2513   16.8616   56.1832 S   0  0  0  0  0  0  0  0  0  0  0  0
   10.7270   17.3237   56.0726 C   0  0  0  0  0  0  0  0  0  0  0  0
   10.9436   18.4223   56.9827 C   0  0  0  0  0  0  0  0  0  0  0  0
    9.5898   18.7358   57.7120 N   0  0  0  0  0  0  0  0  0  0  0  0
   11.7984   16.7182   55.1836 C   0  0  0  0  0  0  0  0  0  0  0  0
   13.2431   15.7556   56.7933 O   0  0  0  0  0  0  0  0  0  0  0  0
   12.2486   15.4362   55.8405 C   0  0  0  0  0  0  0  0  0  0  0  0
   13.5469   14.9436   57.2282 H   0  0  0  0  0  0  0  0  0  0  0  0
  2  6  1  0  0  0
  3  4  1  0  0  0
 12 16  1  0  0  0
 19 20  1  0  0  0
 20 18  1  0  0  0
 18 15  1  0  0  0
 13 14  1  0  0  0
 13 17  2  0  0  0
 14 15  1  0  0  0
 15 16  2  0  0  0
 16 17  1  0  0  0
 17  1  1  0  0  0
  1  9  1  0  0  0
  4  5  1  0  0  0
  4  9  2  0  0  0
  5  6  2  0  0  0
  6  7  1  0  0  0
  7  8  2  0  0  0
  8  9  1  0  0  0
  3 10  1  0  0  0
  3 11  1  0  0  0
 19 21  1  0  0  0
M  CHG 1  17   1
M  END
> <minimizedAffinity>
-8.50521

$$$$
5EDL_VIB_A_201


 21 22  0  0  0  0  0  0  0  0999 V2000
    9.4540   19.5462   58.4793 C   0  0  0  0  0  0  0  0  0  0  0  0
    6.0423   19.1117   63.1008 C   0  0  0  0  0  0  0  0  0  0  0  0
    9.9803   17.4603   60.7101 N   0  0  0  0  0  0  0  0  0  0  0  0
    8.8541   18.3656   60.7835 C   0  0  0  0  0  0  0  0  0  0  0  0
    8.0210   18.3323   61.8255 N   0  0  0  0  0  0  0  0  0  0  0  0
    6.9683   19.1941   61.8753 C   0  0  0  0  0  0  0  0  0  0  0  0
    6.7745   20.1041   60.8681 N   0  0  0  0  0  0  0  0  0  0  0  0
    7.6140   20.1539   59.8018 C   0  0  0  0  0  0  0  0  0  0  0  0
    8.6660   19.2733   59.7735 C   0  0  0  0  0  0  0  0  0  0  0  0
   10.1304   16.8022   61.4267 H   0  0  0  0  0  0  0  0  0  0  0  0
   10.5966   17.5024   59.9434 H   0  0  0  0  0  0  0  0  0  0  0  0
    7.0241   18.9278   56.5565 C   0  0  0  0  0  0  0  0  0  0  0  0
   10.4377   17.3134   57.5084 C   0  0  0  0  0  0  0  0  0  0  0  0
    9.9258   16.2623   56.4668 S   0  0  0  0  0  0  0  0  0  0  0  0
    8.5419   16.7846   56.0025 C   0  0  0  0  0  0  0  0  0  0  0  0
    8.2624   18.0314   56.6728 C   0  0  0  0  0  0  0  0  0  0  0  0
    9.4617   18.3586   57.6308 N   0  0  0  0  0  0  0  0  0  0  0  0
    7.6234   16.1283   54.9874 C   0  0  0  0  0  0  0  0  0  0  0  0
    6.5441   14.6773   56.5152 O   0  0  0  0  0  0  0  0  0  0  0  0
    7.4366   14.6942   55.4189 C   0  0  0  0  0  0  0  0  0  0  0  0
    6.4100   13.7626   56.8089 H   0  0  0  0  0  0  0  0  0  0  0  0
  2  6  1  0  0  0
  3  4  1  0  0  0
 12 16  1  0  0  0
 19 20  1  0  0  0
 20 18  1  0  0  0
 18 15  1  0  0  0
 13 14  1  0  0  0
 13 17  2  0  0  0
 14 15  1  0  0  0
 15 16  2  0  0  0
 16 17  1  0  0  0
 17  1  1  0  0  0
  1  9  1  0  0  0
  4  5  1  0  0  0
  4  9  2  0  0  0
  5  6  2  0  0  0
  6  7  1  0  0  0
  7  8  2  0  0  0
  8  9  1  0  0  0
  3 10  1  0  0  0
  3 11  1  0  0  0
 19 21  1  0  0  0
M  CHG 1  17   1
M  END
> <minimizedAffinity>
-7.97488

$$$$
5EDL_VIB_A_201


 21 22  0  0  0  0  0  0  0  0999 V2000
    9.7199   19.4435   58.5366 C   0  0  0  0  0  0  0  0  0  0  0  0
    6.0353   19.1609   62.9559 C   0  0  0  0  0  0  0  0  0  0  0  0
    9.9885   17.2959   60.7547 N   0  0  0  0  0  0  0  0  0  0  0  0
    8.9193   18.2703   60.7828 C   0  0  0  0  0  0  0  0  0  0  0  0
    8.0289   18.2751   61.7769 N   0  0  0  0  0  0  0  0  0  0  0  0
    7.0315   19.2018   61.7846 C   0  0  0  0  0  0  0  0  0  0  0  0
    6.9520   20.1368   60.7849 N   0  0  0  0  0  0  0  0  0  0  0  0
    7.8511   20.1483   59.7672 C   0  0  0  0  0  0  0  0  0  0  0  0
    8.8453   19.2027   59.7805 C   0  0  0  0  0  0  0  0  0  0  0  0
   10.0566   16.6192   61.4665 H   0  0  0  0  0  0  0  0  0  0  0  0
   10.6479   17.3097   60.0238 H   0  0  0  0  0  0  0  0  0  0  0  0
   10.0850   20.8569   55.7343 C   0  0  0  0  0  0  0  0  0  0  0  0
    8.1898   17.7842   57.1944 C   0  0  0  0  0  0  0  0  0  0  0  0
    7.7484   17.6833   55.6956 S   0  0  0  0  0  0  0  0  0  0  0  0
    8.4362   18.8764   54.9836 C   0  0  0  0  0  0  0  0  0  0  0  0
    9.2292   19.6025   55.9459 C   0  0  0  0  0  0  0  0  0  0  0  0
    9.0643   18.9122   57.3457 N   0  0  0  0  0  0  0  0  0  0  0  0
    8.3346   19.2291   53.5105 C   0  0  0  0  0  0  0  0  0  0  0  0
    7.1862   20.6662   52.0204 O   0  0  0  0  0  0  0  0  0  0  0  0
    7.2583   20.2788   53.3781 C   0  0  0  0  0  0  0  0  0  0  0  0
    6.4988   21.3420   51.9130 H   0  0  0  0  0  0  0  0  0  0  0  0
  2  6  1  0  0  0
  3  4  1  0  0  0
 12 16  1  0  0  0
 19 20  1  0  0  0
 20 18  1  0  0  0
 18 15  1  0  0  0
 13 14  1  0  0  0
 13 17  2  0  0  0
 14 15  1  0  0  0
 15 16  2  0  0  0
 16 17  1  0  0  0
 17  1  1  0  0  0
  1  9  1  0  0  0
  4  5  1  0  0  0
  4  9  2  0  0  0
  5  6  2  0  0  0
  6  7  1  0  0  0
  7  8  2  0  0  0
  8  9  1  0  0  0
  3 10  1  0  0  0
  3 11  1  0  0  0
 19 21  1  0  0  0
M  CHG 1  17   1
M  END
> <minimizedAffinity>
-7.76638

$$$$
5EDL_VIB_A_201


 21 22  0  0  0  0  0  0  0  0999 V2000
    9.5822   19.5329   58.5530 C   0  0  0  0  0  0  0  0  0  0  0  0
    5.9735   19.1155   63.0240 C   0  0  0  0  0  0  0  0  0  0  0  0
    9.9541   17.3892   60.7599 N   0  0  0  0  0  0  0  0  0  0  0  0
    8.8536   18.3274   60.8066 C   0  0  0  0  0  0  0  0  0  0  0  0
    7.9781   18.2999   61.8134 N   0  0  0  0  0  0  0  0  0  0  0  0
    6.9507   19.1928   61.8385 C   0  0  0  0  0  0  0  0  0  0  0  0
    6.8257   20.1274   60.8432 N   0  0  0  0  0  0  0  0  0  0  0  0
    7.7090   20.1717   59.8127 C   0  0  0  0  0  0  0  0  0  0  0  0
    8.7342   19.2597   59.8086 C   0  0  0  0  0  0  0  0  0  0  0  0
   10.0549   16.7131   61.4684 H   0  0  0  0  0  0  0  0  0  0  0  0
   10.6020   17.4269   60.0196 H   0  0  0  0  0  0  0  0  0  0  0  0
    9.8159   16.6188   57.3539 C   0  0  0  0  0  0  0  0  0  0  0  0
    7.9681   19.9445   56.5230 C   0  0  0  0  0  0  0  0  0  0  0  0
    7.4626   19.0543   55.3382 S   0  0  0  0  0  0  0  0  0  0  0  0
    8.1413   17.6755   55.5418 C   0  0  0  0  0  0  0  0  0  0  0  0
    8.9482   17.7221   56.7372 C   0  0  0  0  0  0  0  0  0  0  0  0
    8.8416   19.1626   57.3509 N   0  0  0  0  0  0  0  0  0  0  0  0
    7.9779   16.4498   54.6609 C   0  0  0  0  0  0  0  0  0  0  0  0
   10.1263   15.8920   53.8376 O   0  0  0  0  0  0  0  0  0  0  0  0
    8.9447   16.5966   53.5114 C   0  0  0  0  0  0  0  0  0  0  0  0
   10.7627   15.9737   53.1102 H   0  0  0  0  0  0  0  0  0  0  0  0
  2  6  1  0  0  0
  3  4  1  0  0  0
 12 16  1  0  0  0
 19 20  1  0  0  0
 20 18  1  0  0  0
 18 15  1  0  0  0
 13 14  1  0  0  0
 13 17  2  0  0  0
 14 15  1  0  0  0
 15 16  2  0  0  0
 16 17  1  0  0  0
 17  1  1  0  0  0
  1  9  1  0  0  0
  4  5  1  0  0  0
  4  9  2  0  0  0
  5  6  2  0  0  0
  6  7  1  0  0  0
  7  8  2  0  0  0
  8  9  1  0  0  0
  3 10  1  0  0  0
  3 11  1  0  0  0
 19 21  1  0  0  0
M  CHG 1  17   1
M  END
> <minimizedAffinity>
-7.41245

$$$$
5EDL_VIB_A_201


 21 22  0  0  0  0  0  0  0  0999 V2000
   10.2371   18.9949   59.0348 C   0  0  0  0  0  0  0  0  0  0  0  0
    5.9207   18.8537   62.8473 C   0  0  0  0  0  0  0  0  0  0  0  0
    7.6181   20.5935   58.5996 N   0  0  0  0  0  0  0  0  0  0  0  0
    7.8112   19.7821   59.7818 C   0  0  0  0  0  0  0  0  0  0  0  0
    6.8555   19.6919   60.7089 N   0  0  0  0  0  0  0  0  0  0  0  0
    7.0574   18.9216   61.8131 C   0  0  0  0  0  0  0  0  0  0  0  0
    8.2302   18.2276   61.9640 N   0  0  0  0  0  0  0  0  0  0  0  0
    9.2122   18.3054   61.0292 C   0  0  0  0  0  0  0  0  0  0  0  0
    8.9859   19.0904   59.9267 C   0  0  0  0  0  0  0  0  0  0  0  0
    6.7806   21.0968   58.4794 H   0  0  0  0  0  0  0  0  0  0  0  0
    8.3243   20.6423   57.9153 H   0  0  0  0  0  0  0  0  0  0  0  0
   12.2952   18.8881   56.6396 C   0  0  0  0  0  0  0  0  0  0  0  0
    8.8041   17.4020   57.5166 C   0  0  0  0  0  0  0  0  0  0  0  0
    9.0087   16.7824   56.0933 S   0  0  0  0  0  0  0  0  0  0  0  0
   10.3843   17.3093   55.6099 C   0  0  0  0  0  0  0  0  0  0  0  0
   10.9590   18.1363   56.6433 C   0  0  0  0  0  0  0  0  0  0  0  0
    9.9520   18.1983   57.8454 N   0  0  0  0  0  0  0  0  0  0  0  0
   11.0551   16.9979   54.2840 C   0  0  0  0  0  0  0  0  0  0  0  0
   12.8755   15.6523   54.9768 O   0  0  0  0  0  0  0  0  0  0  0  0
   11.5958   15.5920   54.3790 C   0  0  0  0  0  0  0  0  0  0  0  0
   13.2419   14.7569   55.0475 H   0  0  0  0  0  0  0  0  0  0  0  0
  2  6  1  0  0  0
  3  4  1  0  0  0
 12 16  1  0  0  0
 19 20  1  0  0  0
 20 18  1  0  0  0
 18 15  1  0  0  0
 13 14  1  0  0  0
 13 17  2  0  0  0
 14 15  1  0  0  0
 15 16  2  0  0  0
 16 17  1  0  0  0
 17  1  1  0  0  0
  1  9  1  0  0  0
  4  5  1  0  0  0
  4  9  2  0  0  0
  5  6  2  0  0  0
  6  7  1  0  0  0
  7  8  2  0  0  0
  8  9  1  0  0  0
  3 10  1  0  0  0
  3 11  1  0  0  0
 19 21  1  0  0  0
M  CHG 1  17   1
M  END
> <minimizedAffinity>
-7.36660

$$$$
5EDL_VIB_A_201


 21 22  0  0  0  0  0  0  0  0999 V2000
   10.2545   15.4920   56.3328 C   0  0  0  0  0  0  0  0  0  0  0  0
   13.1298   15.7086   51.3455 C   0  0  0  0  0  0  0  0  0  0  0  0
   13.3504   15.4034   56.2250 N   0  0  0  0  0  0  0  0  0  0  0  0
   12.5629   15.5104   55.0160 C   0  0  0  0  0  0  0  0  0  0  0  0
   13.1543   15.5590   53.8206 N   0  0  0  0  0  0  0  0  0  0  0  0
   12.3942   15.6582   52.6956 C   0  0  0  0  0  0  0  0  0  0  0  0
   11.0266   15.6906   52.7886 N   0  0  0  0  0  0  0  0  0  0  0  0
   10.4081   15.6392   53.9964 C   0  0  0  0  0  0  0  0  0  0  0  0
   11.1960   15.5420   55.1156 C   0  0  0  0  0  0  0  0  0  0  0  0
   14.3332   15.3794   56.1718 H   0  0  0  0  0  0  0  0  0  0  0  0
   12.9035   15.3547   57.1009 H   0  0  0  0  0  0  0  0  0  0  0  0
    7.3892   16.5375   57.1581 C   0  0  0  0  0  0  0  0  0  0  0  0
   11.0535   17.8558   57.1512 C   0  0  0  0  0  0  0  0  0  0  0  0
   10.3201   19.1071   57.7412 S   0  0  0  0  0  0  0  0  0  0  0  0
    8.8203   18.7181   57.7918 C   0  0  0  0  0  0  0  0  0  0  0  0
    8.6700   17.3666   57.3091 C   0  0  0  0  0  0  0  0  0  0  0  0
   10.0852   16.8272   56.8976 N   0  0  0  0  0  0  0  0  0  0  0  0
    7.6789   19.5856   58.2913 C   0  0  0  0  0  0  0  0  0  0  0  0
    7.1682   20.9136   60.1834 O   0  0  0  0  0  0  0  0  0  0  0  0
    7.8655   19.7519   59.7797 C   0  0  0  0  0  0  0  0  0  0  0  0
    7.2754   21.0393   61.1392 H   0  0  0  0  0  0  0  0  0  0  0  0
  2  6  1  0  0  0
  3  4  1  0  0  0
 12 16  1  0  0  0
 19 20  1  0  0  0
 20 18  1  0  0  0
 18 15  1  0  0  0
 13 14  1  0  0  0
 13 17  2  0  0  0
 14 15  1  0  0  0
 15 16  2  0  0  0
 16 17  1  0  0  0
 17  1  1  0  0  0
  1  9  1  0  0  0
  4  5  1  0  0  0
  4  9  2  0  0  0
  5  6  2  0  0  0
  6  7  1  0  0  0
  7  8  2  0  0  0
  8  9  1  0  0  0
  3 10  1  0  0  0
  3 11  1  0  0  0
 19 21  1  0  0  0
M  CHG 1  17   1
M  END
> <minimizedAffinity>
-6.77939

$$$$
5EDL_VIB_A_201


 21 22  0  0  0  0  0  0  0  0999 V2000
    9.0335   16.6709   56.9772 C   0  0  0  0  0  0  0  0  0  0  0  0
    8.7854   12.9200   52.6119 C   0  0  0  0  0  0  0  0  0  0  0  0
    6.6302   14.7499   56.6066 N   0  0  0  0  0  0  0  0  0  0  0  0
    7.7479   14.7349   55.6881 C   0  0  0  0  0  0  0  0  0  0  0  0
    7.7625   13.8995   54.6475 N   0  0  0  0  0  0  0  0  0  0  0  0
    8.8237   13.9029   53.7946 C   0  0  0  0  0  0  0  0  0  0  0  0
    9.8648   14.7726   53.9936 N   0  0  0  0  0  0  0  0  0  0  0  0
    9.8652   15.6314   55.0455 C   0  0  0  0  0  0  0  0  0  0  0  0
    8.7858   15.6070   55.8923 C   0  0  0  0  0  0  0  0  0  0  0  0
    5.8764   14.1303   56.4749 H   0  0  0  0  0  0  0  0  0  0  0  0
    6.6233   15.3795   57.3634 H   0  0  0  0  0  0  0  0  0  0  0  0
   11.3391   18.6971   57.7273 C   0  0  0  0  0  0  0  0  0  0  0  0
    8.1776   18.6317   55.4546 C   0  0  0  0  0  0  0  0  0  0  0  0
    8.6832   20.0856   55.1679 S   0  0  0  0  0  0  0  0  0  0  0  0
    9.9584   20.2551   56.0332 C   0  0  0  0  0  0  0  0  0  0  0  0
   10.2092   19.0249   56.7443 C   0  0  0  0  0  0  0  0  0  0  0  0
    9.0753   18.0025   56.3809 N   0  0  0  0  0  0  0  0  0  0  0  0
   10.8363   21.4910   56.1149 C   0  0  0  0  0  0  0  0  0  0  0  0
   11.9863   20.9703   54.1122 O   0  0  0  0  0  0  0  0  0  0  0  0
   12.1689   21.1306   55.5050 C   0  0  0  0  0  0  0  0  0  0  0  0
   12.8329   20.7378   53.6998 H   0  0  0  0  0  0  0  0  0  0  0  0
  2  6  1  0  0  0
  3  4  1  0  0  0
 12 16  1  0  0  0
 19 20  1  0  0  0
 20 18  1  0  0  0
 18 15  1  0  0  0
 13 14  1  0  0  0
 13 17  2  0  0  0
 14 15  1  0  0  0
 15 16  2  0  0  0
 16 17  1  0  0  0
 17  1  1  0  0  0
  1  9  1  0  0  0
  4  5  1  0  0  0
  4  9  2  0  0  0
  5  6  2  0  0  0
  6  7  1  0  0  0
  7  8  2  0  0  0
  8  9  1  0  0  0
  3 10  1  0  0  0
  3 11  1  0  0  0
 19 21  1  0  0  0
M  CHG 1  17   1
M  END
> <minimizedAffinity>
-6.71693

$$$$
5EDL_VIB_A_201


 21 22  0  0  0  0  0  0  0  0999 V2000
    9.2274   18.9971   54.2400 C   0  0  0  0  0  0  0  0  0  0  0  0
   13.5058   15.4771   52.6615 C   0  0  0  0  0  0  0  0  0  0  0  0
   12.1041   20.0388   53.7466 N   0  0  0  0  0  0  0  0  0  0  0  0
   11.7768   18.6393   53.5802 C   0  0  0  0  0  0  0  0  0  0  0  0
   12.7140   17.7590   53.2227 N   0  0  0  0  0  0  0  0  0  0  0  0
   12.3846   16.4466   53.0731 C   0  0  0  0  0  0  0  0  0  0  0  0
   11.0999   16.0278   53.3053 N   0  0  0  0  0  0  0  0  0  0  0  0
   10.1343   16.9093   53.6724 C   0  0  0  0  0  0  0  0  0  0  0  0
   10.4905   18.2268   53.8141 C   0  0  0  0  0  0  0  0  0  0  0  0
   13.0229   20.3523   53.5828 H   0  0  0  0  0  0  0  0  0  0  0  0
   11.4081   20.6776   54.0237 H   0  0  0  0  0  0  0  0  0  0  0  0
   10.2912   20.7134   56.6704 C   0  0  0  0  0  0  0  0  0  0  0  0
    8.0577   17.5728   56.1105 C   0  0  0  0  0  0  0  0  0  0  0  0
    8.0143   17.6568   57.6734 S   0  0  0  0  0  0  0  0  0  0  0  0
    8.8882   18.8827   58.0433 C   0  0  0  0  0  0  0  0  0  0  0  0
    9.3831   19.4886   56.8307 C   0  0  0  0  0  0  0  0  0  0  0  0
    8.8610   18.6517   55.6100 N   0  0  0  0  0  0  0  0  0  0  0  0
    9.1696   19.4019   59.4419 C   0  0  0  0  0  0  0  0  0  0  0  0
    7.2831   20.7607   59.8883 O   0  0  0  0  0  0  0  0  0  0  0  0
    7.8440   19.4912   60.1578 C   0  0  0  0  0  0  0  0  0  0  0  0
    6.4284   20.8391   60.3402 H   0  0  0  0  0  0  0  0  0  0  0  0
  2  6  1  0  0  0
  3  4  1  0  0  0
 12 16  1  0  0  0
 19 20  1  0  0  0
 20 18  1  0  0  0
 18 15  1  0  0  0
 13 14  1  0  0  0
 13 17  2  0  0  0
 14 15  1  0  0  0
 15 16  2  0  0  0
 16 17  1  0  0  0
 17  1  1  0  0  0
  1  9  1  0  0  0
  4  5  1  0  0  0
  4  9  2  0  0  0
  5  6  2  0  0  0
  6  7  1  0  0  0
  7  8  2  0  0  0
  8  9  1  0  0  0
  3 10  1  0  0  0
  3 11  1  0  0  0
 19 21  1  0  0  0
M  CHG 1  17   1
M  END
> <minimizedAffinity>
-6.45033

$$$$
5EDL_VIB_A_201


 21 22  0  0  0  0  0  0  0  0999 V2000
   10.3886   17.9578   54.7905 C   0  0  0  0  0  0  0  0  0  0  0  0
    8.7262   13.1778   52.0384 C   0  0  0  0  0  0  0  0  0  0  0  0
   10.6777   15.1501   56.0699 N   0  0  0  0  0  0  0  0  0  0  0  0
   10.1235   15.3140   54.7435 C   0  0  0  0  0  0  0  0  0  0  0  0
    9.7090   14.2559   54.0436 N   0  0  0  0  0  0  0  0  0  0  0  0
    9.1892   14.4328   52.7978 C   0  0  0  0  0  0  0  0  0  0  0  0
    9.0759   15.6937   52.2712 N   0  0  0  0  0  0  0  0  0  0  0  0
    9.4899   16.7817   52.9705 C   0  0  0  0  0  0  0  0  0  0  0  0
   10.0125   16.5772   54.2226 C   0  0  0  0  0  0  0  0  0  0  0  0
   10.7646   14.2501   56.4593 H   0  0  0  0  0  0  0  0  0  0  0  0
   10.9680   15.9386   56.5830 H   0  0  0  0  0  0  0  0  0  0  0  0
   11.4007   18.8113   57.6595 C   0  0  0  0  0  0  0  0  0  0  0  0
    8.0055   18.4174   55.7934 C   0  0  0  0  0  0  0  0  0  0  0  0
    7.4877   18.8847   57.1952 S   0  0  0  0  0  0  0  0  0  0  0  0
    8.7598   19.0739   58.0608 C   0  0  0  0  0  0  0  0  0  0  0  0
    9.9216   18.7783   57.2576 C   0  0  0  0  0  0  0  0  0  0  0  0
    9.4391   18.3559   55.8252 N   0  0  0  0  0  0  0  0  0  0  0  0
    8.8072   19.5250   59.5097 C   0  0  0  0  0  0  0  0  0  0  0  0
    9.9598   18.0592   60.9683 O   0  0  0  0  0  0  0  0  0  0  0  0
    8.7016   18.2857   60.3646 C   0  0  0  0  0  0  0  0  0  0  0  0
    9.9138   17.2652   61.5236 H   0  0  0  0  0  0  0  0  0  0  0  0
  2  6  1  0  0  0
  3  4  1  0  0  0
 12 16  1  0  0  0
 19 20  1  0  0  0
 20 18  1  0  0  0
 18 15  1  0  0  0
 13 14  1  0  0  0
 13 17  2  0  0  0
 14 15  1  0  0  0
 15 16  2  0  0  0
 16 17  1  0  0  0
 17  1  1  0  0  0
  1  9  1  0  0  0
  4  5  1  0  0  0
  4  9  2  0  0  0
  5  6  2  0  0  0
  6  7  1  0  0  0
  7  8  2  0  0  0
  8  9  1  0  0  0
  3 10  1  0  0  0
  3 11  1  0  0  0
 19 21  1  0  0  0
M  CHG 1  17   1
M  END
> <minimizedAffinity>
-6.44921

$$$$
5EDL_VIB_A_201


 21 22  0  0  0  0  0  0  0  0999 V2000
    9.9188   16.6693   55.3904 C   0  0  0  0  0  0  0  0  0  0  0  0
   14.0866   17.6287   51.5310 C   0  0  0  0  0  0  0  0  0  0  0  0
    9.8773   19.1391   53.5189 N   0  0  0  0  0  0  0  0  0  0  0  0
   10.9480   18.1683   53.4523 C   0  0  0  0  0  0  0  0  0  0  0  0
   11.9541   18.3229   52.5891 N   0  0  0  0  0  0  0  0  0  0  0  0
   12.9522   17.3981   52.5440 C   0  0  0  0  0  0  0  0  0  0  0  0
   12.9332   16.3218   53.3932 N   0  0  0  0  0  0  0  0  0  0  0  0
   11.9188   16.1503   54.2796 C   0  0  0  0  0  0  0  0  0  0  0  0
   10.9235   17.0945   54.3041 C   0  0  0  0  0  0  0  0  0  0  0  0
    9.8792   19.9163   52.9146 H   0  0  0  0  0  0  0  0  0  0  0  0
    9.1469   19.0226   54.1686 H   0  0  0  0  0  0  0  0  0  0  0  0
    7.4881   17.1146   57.3596 C   0  0  0  0  0  0  0  0  0  0  0  0
   11.1972   18.2585   57.0444 C   0  0  0  0  0  0  0  0  0  0  0  0
   10.7953   19.0123   58.3566 S   0  0  0  0  0  0  0  0  0  0  0  0
    9.3085   18.6474   58.6010 C   0  0  0  0  0  0  0  0  0  0  0  0
    8.8697   17.7479   57.5615 C   0  0  0  0  0  0  0  0  0  0  0  0
   10.0662   17.5104   56.5742 N   0  0  0  0  0  0  0  0  0  0  0  0
    8.4406   19.1197   59.7536 C   0  0  0  0  0  0  0  0  0  0  0  0
    7.8046   18.3529   61.9011 O   0  0  0  0  0  0  0  0  0  0  0  0
    8.8775   18.3570   60.9805 C   0  0  0  0  0  0  0  0  0  0  0  0
    8.0650   17.8665   62.6989 H   0  0  0  0  0  0  0  0  0  0  0  0
  2  6  1  0  0  0
  3  4  1  0  0  0
 12 16  1  0  0  0
 19 20  1  0  0  0
 20 18  1  0  0  0
 18 15  1  0  0  0
 13 14  1  0  0  0
 13 17  2  0  0  0
 14 15  1  0  0  0
 15 16  2  0  0  0
 16 17  1  0  0  0
 17  1  1  0  0  0
  1  9  1  0  0  0
  4  5  1  0  0  0
  4  9  2  0  0  0
  5  6  2  0  0  0
  6  7  1  0  0  0
  7  8  2  0  0  0
  8  9  1  0  0  0
  3 10  1  0  0  0
  3 11  1  0  0  0
 19 21  1  0  0  0
M  CHG 1  17   1
M  END
> <minimizedAffinity>
-6.43378

$$$$
