3PN4_BB2_A_501


 31 31  0  0  0  0  0  0  0  0999 V2000
    2.7683   19.1038   67.0890 C   0  0  0  0  0  0  0  0  0  0  0  0
    2.7999   18.4551   68.1561 O   0  0  0  0  0  0  0  0  0  0  0  0
    3.4115   20.2621   66.9115 N   0  0  0  0  0  0  0  0  0  0  0  0
    3.4011   20.6878   66.0238 H   0  0  0  0  0  0  0  0  0  0  0  0
    2.0039   18.6365   65.8469 C   0  0  0  0  0  0  0  0  0  0  0  0
    2.4818   17.2320   65.4287 C   0  0  0  0  0  0  0  0  0  0  0  0
    2.1932   17.0416   63.9723 C   0  0  0  0  0  0  0  0  0  0  0  0
    2.6398   17.8031   63.1151 O   0  0  0  0  0  0  0  0  0  0  0  0
    1.3724   16.0417   63.6810 N   0  0  0  0  0  0  0  0  0  0  0  0
    1.0583   15.9036   62.3598 O   0  0  0  0  0  0  0  0  0  0  0  0
    1.0135   15.4390   64.3717 H   0  0  0  0  0  0  0  0  0  0  0  0
    1.5107   16.5910   61.8463 H   0  0  0  0  0  0  0  0  0  0  0  0
    0.4778   18.6520   66.1835 C   0  0  0  0  0  0  0  0  0  0  0  0
   -0.1311   20.0216   65.7574 C   0  0  0  0  0  0  0  0  0  0  0  0
   -1.6222   20.1338   66.1334 C   0  0  0  0  0  0  0  0  0  0  0  0
   -1.8406   21.2466   67.1972 C   0  0  0  0  0  0  0  0  0  0  0  0
   -0.5599   22.0779   67.3348 C   0  0  0  0  0  0  0  0  0  0  0  0
    4.1285   20.9089   68.0050 C   0  0  0  0  0  0  0  0  0  0  0  0
    3.2338   22.1199   68.3795 C   0  0  0  0  0  0  0  0  0  0  0  0
    3.0415   23.0228   67.5599 O   0  0  0  0  0  0  0  0  0  0  0  0
    2.6203   22.1661   69.5840 N   0  0  0  0  0  0  0  0  0  0  0  0
    1.7140   23.2523   70.0483 C   0  0  0  0  0  0  0  0  0  0  0  0
    2.7764   21.0903   70.6134 C   0  0  0  0  0  0  0  0  0  0  0  0
    1.8455   21.4788   71.7757 C   0  0  0  0  0  0  0  0  0  0  0  0
    0.9568   22.6245   71.2414 C   0  0  0  0  0  0  0  0  0  0  0  0
    2.4945   24.5063   70.5109 C   0  0  0  0  0  0  0  0  0  0  0  0
    2.8152   25.3408   69.3850 O   0  0  0  0  0  0  0  0  0  0  0  0
    3.3678   24.8441   68.7615 H   0  0  0  0  0  0  0  0  0  0  0  0
    5.6136   21.2382   67.7123 C   0  0  0  0  0  0  0  0  0  0  0  0
    6.5171   20.9189   68.9142 C   0  0  0  0  0  0  0  0  0  0  0  0
    6.1431   20.5030   66.4918 C   0  0  0  0  0  0  0  0  0  0  0  0
  6  7  1  0  0  0
  6  5  1  0  0  0
  7  8  2  0  0  0
  7  9  1  0  0  0
  9 10  1  0  0  0
  5  1  1  0  0  0
  5 13  1  0  0  0
  1  2  2  0  0  0
  1  3  1  0  0  0
 13 14  1  0  0  0
 14 15  1  0  0  0
 15 16  1  0  0  0
 16 17  1  0  0  0
  3 18  1  0  0  0
 18 29  1  0  0  0
 18 19  1  0  0  0
 29 30  1  0  0  0
 29 31  1  0  0  0
 19 20  2  0  0  0
 19 21  1  0  0  0
 21 22  1  0  0  0
 21 23  1  0  0  0
 22 25  1  0  0  0
 22 26  1  0  0  0
 23 24  1  0  0  0
 24 25  1  0  0  0
 26 27  1  0  0  0
  9 11  1  0  0  0
 10 12  1  0  0  0
  3  4  1  0  0  0
 27 28  1  0  0  0
M  END
> <minimizedAffinity>
-8.25744

$$$$
3PN4_BB2_A_501


 31 31  0  0  0  0  0  0  0  0999 V2000
    3.1983   19.1389   66.7974 C   0  0  0  0  0  0  0  0  0  0  0  0
    3.1820   18.8898   68.0213 O   0  0  0  0  0  0  0  0  0  0  0  0
    4.0987   19.9411   66.2206 N   0  0  0  0  0  0  0  0  0  0  0  0
    4.0976   20.0410   65.2412 H   0  0  0  0  0  0  0  0  0  0  0  0
    2.1986   18.5358   65.8063 C   0  0  0  0  0  0  0  0  0  0  0  0
    2.6575   17.1263   65.3832 C   0  0  0  0  0  0  0  0  0  0  0  0
    2.3091   16.9215   63.9420 C   0  0  0  0  0  0  0  0  0  0  0  0
    2.8040   17.6077   63.0486 O   0  0  0  0  0  0  0  0  0  0  0  0
    1.3848   16.0005   63.7056 N   0  0  0  0  0  0  0  0  0  0  0  0
    1.0201   15.8543   62.3983 O   0  0  0  0  0  0  0  0  0  0  0  0
    0.9879   15.4582   64.4251 H   0  0  0  0  0  0  0  0  0  0  0  0
    1.5234   16.4768   61.8506 H   0  0  0  0  0  0  0  0  0  0  0  0
    0.7948   18.5054   66.4929 C   0  0  0  0  0  0  0  0  0  0  0  0
   -0.2110   19.3447   65.6490 C   0  0  0  0  0  0  0  0  0  0  0  0
   -1.4496   19.7584   66.4687 C   0  0  0  0  0  0  0  0  0  0  0  0
   -1.9770   21.1468   66.0087 C   0  0  0  0  0  0  0  0  0  0  0  0
   -1.3713   22.2409   66.8956 C   0  0  0  0  0  0  0  0  0  0  0  0
    5.0831   20.6716   67.0115 C   0  0  0  0  0  0  0  0  0  0  0  0
    6.3116   19.7249   67.0538 C   0  0  0  0  0  0  0  0  0  0  0  0
    6.3289   18.7698   67.8358 O   0  0  0  0  0  0  0  0  0  0  0  0
    7.3440   19.9110   66.2000 N   0  0  0  0  0  0  0  0  0  0  0  0
    8.5599   19.0556   66.1186 C   0  0  0  0  0  0  0  0  0  0  0  0
    7.3759   21.0242   65.1994 C   0  0  0  0  0  0  0  0  0  0  0  0
    8.6582   20.8149   64.3746 C   0  0  0  0  0  0  0  0  0  0  0  0
    9.1729   19.4051   64.7428 C   0  0  0  0  0  0  0  0  0  0  0  0
    9.5703   19.3679   67.2488 C   0  0  0  0  0  0  0  0  0  0  0  0
    9.3205   18.5303   68.3901 O   0  0  0  0  0  0  0  0  0  0  0  0
    8.4238   18.6946   68.7217 H   0  0  0  0  0  0  0  0  0  0  0  0
    4.5776   21.1751   68.3864 C   0  0  0  0  0  0  0  0  0  0  0  0
    5.7400   21.5445   69.3220 C   0  0  0  0  0  0  0  0  0  0  0  0
    3.6488   22.3719   68.2624 C   0  0  0  0  0  0  0  0  0  0  0  0
  6  7  1  0  0  0
  6  5  1  0  0  0
  7  8  2  0  0  0
  7  9  1  0  0  0
  9 10  1  0  0  0
  5  1  1  0  0  0
  5 13  1  0  0  0
  1  2  2  0  0  0
  1  3  1  0  0  0
 13 14  1  0  0  0
 14 15  1  0  0  0
 15 16  1  0  0  0
 16 17  1  0  0  0
  3 18  1  0  0  0
 18 29  1  0  0  0
 18 19  1  0  0  0
 29 30  1  0  0  0
 29 31  1  0  0  0
 19 20  2  0  0  0
 19 21  1  0  0  0
 21 22  1  0  0  0
 21 23  1  0  0  0
 22 25  1  0  0  0
 22 26  1  0  0  0
 23 24  1  0  0  0
 24 25  1  0  0  0
 26 27  1  0  0  0
  9 11  1  0  0  0
 10 12  1  0  0  0
  3  4  1  0  0  0
 27 28  1  0  0  0
M  END
> <minimizedAffinity>
-7.57804

$$$$
3PN4_BB2_A_501


 31 31  0  0  0  0  0  0  0  0999 V2000
    3.0500   21.1373   67.7878 C   0  0  0  0  0  0  0  0  0  0  0  0
    3.8854   22.0036   67.4529 O   0  0  0  0  0  0  0  0  0  0  0  0
    2.6506   20.9478   69.0494 N   0  0  0  0  0  0  0  0  0  0  0  0
    1.9383   20.2942   69.2361 H   0  0  0  0  0  0  0  0  0  0  0  0
    2.3663   20.2015   66.7868 C   0  0  0  0  0  0  0  0  0  0  0  0
    2.7154   18.7352   67.1094 C   0  0  0  0  0  0  0  0  0  0  0  0
    2.6429   17.9362   65.8457 C   0  0  0  0  0  0  0  0  0  0  0  0
    3.4228   18.1221   64.9123 O   0  0  0  0  0  0  0  0  0  0  0  0
    1.6431   17.0678   65.7783 N   0  0  0  0  0  0  0  0  0  0  0  0
    1.5373   16.3816   64.6030 O   0  0  0  0  0  0  0  0  0  0  0  0
    1.0185   16.9273   66.5262 H   0  0  0  0  0  0  0  0  0  0  0  0
    2.2427   16.6631   63.9997 H   0  0  0  0  0  0  0  0  0  0  0  0
    0.8263   20.4587   66.8576 C   0  0  0  0  0  0  0  0  0  0  0  0
    0.5383   21.9581   66.5459 C   0  0  0  0  0  0  0  0  0  0  0  0
   -0.7212   22.4686   67.2740 C   0  0  0  0  0  0  0  0  0  0  0  0
   -1.8527   21.4030   67.2322 C   0  0  0  0  0  0  0  0  0  0  0  0
   -2.3886   21.2852   65.8006 C   0  0  0  0  0  0  0  0  0  0  0  0
    3.2475   21.6886   70.1553 C   0  0  0  0  0  0  0  0  0  0  0  0
    4.3909   20.7662   70.6544 C   0  0  0  0  0  0  0  0  0  0  0  0
    4.1621   19.5796   70.9064 O   0  0  0  0  0  0  0  0  0  0  0  0
    5.6514   21.2442   70.7655 N   0  0  0  0  0  0  0  0  0  0  0  0
    6.8371   20.4550   71.1992 C   0  0  0  0  0  0  0  0  0  0  0  0
    6.0111   22.6609   70.4418 C   0  0  0  0  0  0  0  0  0  0  0  0
    7.5385   22.7570   70.6033 C   0  0  0  0  0  0  0  0  0  0  0  0
    8.0430   21.3019   70.7309 C   0  0  0  0  0  0  0  0  0  0  0  0
    6.8820   20.2643   72.7345 C   0  0  0  0  0  0  0  0  0  0  0  0
    6.3517   18.9778   73.0956 O   0  0  0  0  0  0  0  0  0  0  0  0
    5.4294   18.9143   72.8022 H   0  0  0  0  0  0  0  0  0  0  0  0
    2.2499   22.1658   71.2400 C   0  0  0  0  0  0  0  0  0  0  0  0
    2.8367   23.2994   72.0966 C   0  0  0  0  0  0  0  0  0  0  0  0
    0.9279   22.6303   70.6510 C   0  0  0  0  0  0  0  0  0  0  0  0
  6  7  1  0  0  0
  6  5  1  0  0  0
  7  8  2  0  0  0
  7  9  1  0  0  0
  9 10  1  0  0  0
  5  1  1  0  0  0
  5 13  1  0  0  0
  1  2  2  0  0  0
  1  3  1  0  0  0
 13 14  1  0  0  0
 14 15  1  0  0  0
 15 16  1  0  0  0
 16 17  1  0  0  0
  3 18  1  0  0  0
 18 29  1  0  0  0
 18 19  1  0  0  0
 29 30  1  0  0  0
 29 31  1  0  0  0
 19 20  2  0  0  0
 19 21  1  0  0  0
 21 22  1  0  0  0
 21 23  1  0  0  0
 22 25  1  0  0  0
 22 26  1  0  0  0
 23 24  1  0  0  0
 24 25  1  0  0  0
 26 27  1  0  0  0
  9 11  1  0  0  0
 10 12  1  0  0  0
  3  4  1  0  0  0
 27 28  1  0  0  0
M  END
> <minimizedAffinity>
-6.61433

$$$$
3PN4_BB2_A_501


 31 31  0  0  0  0  0  0  0  0999 V2000
    4.1735   20.4311   70.4515 C   0  0  0  0  0  0  0  0  0  0  0  0
    4.2542   21.6328   70.1202 O   0  0  0  0  0  0  0  0  0  0  0  0
    4.2264   19.4207   69.5778 N   0  0  0  0  0  0  0  0  0  0  0  0
    4.2258   18.4945   69.9117 H   0  0  0  0  0  0  0  0  0  0  0  0
    4.0255   19.9708   71.9046 C   0  0  0  0  0  0  0  0  0  0  0  0
    5.4000   19.5694   72.4753 C   0  0  0  0  0  0  0  0  0  0  0  0
    5.1861   18.6645   73.6483 C   0  0  0  0  0  0  0  0  0  0  0  0
    5.5689   18.9628   74.7790 O   0  0  0  0  0  0  0  0  0  0  0  0
    4.6202   17.4978   73.3710 N   0  0  0  0  0  0  0  0  0  0  0  0
    4.4799   16.6454   74.4279 O   0  0  0  0  0  0  0  0  0  0  0  0
    4.3210   17.2621   72.4632 H   0  0  0  0  0  0  0  0  0  0  0  0
    4.8344   17.0622   75.2288 H   0  0  0  0  0  0  0  0  0  0  0  0
    3.3795   21.1381   72.7187 C   0  0  0  0  0  0  0  0  0  0  0  0
    1.8373   20.9268   72.7894 C   0  0  0  0  0  0  0  0  0  0  0  0
    1.0839   22.2468   73.0488 C   0  0  0  0  0  0  0  0  0  0  0  0
    0.0617   22.5312   71.9123 C   0  0  0  0  0  0  0  0  0  0  0  0
    0.8096   22.6935   70.5838 C   0  0  0  0  0  0  0  0  0  0  0  0
    4.2851   19.6612   68.1401 C   0  0  0  0  0  0  0  0  0  0  0  0
    2.9036   19.1830   67.6203 C   0  0  0  0  0  0  0  0  0  0  0  0
    2.6367   17.9780   67.5942 O   0  0  0  0  0  0  0  0  0  0  0  0
    1.9689   20.0850   67.2433 N   0  0  0  0  0  0  0  0  0  0  0  0
    0.5995   19.7562   66.7602 C   0  0  0  0  0  0  0  0  0  0  0  0
    2.2076   21.5624   67.2834 C   0  0  0  0  0  0  0  0  0  0  0  0
    0.8759   22.2173   66.8754 C   0  0  0  0  0  0  0  0  0  0  0  0
   -0.1767   21.0862   66.8996 C   0  0  0  0  0  0  0  0  0  0  0  0
    0.5974   19.2883   65.2848 C   0  0  0  0  0  0  0  0  0  0  0  0
    0.4920   17.8563   65.2132 O   0  0  0  0  0  0  0  0  0  0  0  0
    1.2497   17.4533   65.6652 H   0  0  0  0  0  0  0  0  0  0  0  0
    5.5171   19.0552   67.4229 C   0  0  0  0  0  0  0  0  0  0  0  0
    5.6144   19.5223   65.9616 C   0  0  0  0  0  0  0  0  0  0  0  0
    6.8219   19.3830   68.1303 C   0  0  0  0  0  0  0  0  0  0  0  0
  6  7  1  0  0  0
  6  5  1  0  0  0
  7  8  2  0  0  0
  7  9  1  0  0  0
  9 10  1  0  0  0
  5  1  1  0  0  0
  5 13  1  0  0  0
  1  2  2  0  0  0
  1  3  1  0  0  0
 13 14  1  0  0  0
 14 15  1  0  0  0
 15 16  1  0  0  0
 16 17  1  0  0  0
  3 18  1  0  0  0
 18 29  1  0  0  0
 18 19  1  0  0  0
 29 30  1  0  0  0
 29 31  1  0  0  0
 19 20  2  0  0  0
 19 21  1  0  0  0
 21 22  1  0  0  0
 21 23  1  0  0  0
 22 25  1  0  0  0
 22 26  1  0  0  0
 23 24  1  0  0  0
 24 25  1  0  0  0
 26 27  1  0  0  0
  9 11  1  0  0  0
 10 12  1  0  0  0
  3  4  1  0  0  0
 27 28  1  0  0  0
M  END
> <minimizedAffinity>
-6.31061

$$$$
3PN4_BB2_A_501


 31 31  0  0  0  0  0  0  0  0999 V2000
    3.2189   19.6170   68.1638 C   0  0  0  0  0  0  0  0  0  0  0  0
    3.2331   18.7246   69.0378 O   0  0  0  0  0  0  0  0  0  0  0  0
    3.8859   20.7699   68.2771 N   0  0  0  0  0  0  0  0  0  0  0  0
    3.8878   21.4016   67.5219 H   0  0  0  0  0  0  0  0  0  0  0  0
    2.4506   19.4863   66.8455 C   0  0  0  0  0  0  0  0  0  0  0  0
    1.5003   18.2741   66.9045 C   0  0  0  0  0  0  0  0  0  0  0  0
    1.9669   17.2509   65.9165 C   0  0  0  0  0  0  0  0  0  0  0  0
    3.0960   16.7646   65.9670 O   0  0  0  0  0  0  0  0  0  0  0  0
    1.1067   16.9596   64.9503 N   0  0  0  0  0  0  0  0  0  0  0  0
    1.5523   16.0731   64.0128 O   0  0  0  0  0  0  0  0  0  0  0  0
    0.2065   17.3563   64.9117 H   0  0  0  0  0  0  0  0  0  0  0  0
    2.4582   15.8019   64.2291 H   0  0  0  0  0  0  0  0  0  0  0  0
    1.6725   20.8202   66.6045 C   0  0  0  0  0  0  0  0  0  0  0  0
    0.1419   20.5288   66.5843 C   0  0  0  0  0  0  0  0  0  0  0  0
   -0.5792   21.3009   65.4614 C   0  0  0  0  0  0  0  0  0  0  0  0
   -2.0663   21.5580   65.8355 C   0  0  0  0  0  0  0  0  0  0  0  0
   -2.2716   21.2769   67.3286 C   0  0  0  0  0  0  0  0  0  0  0  0
    4.6112   21.1120   69.4958 C   0  0  0  0  0  0  0  0  0  0  0  0
    3.9245   22.4120   69.9917 C   0  0  0  0  0  0  0  0  0  0  0  0
    4.2140   23.4975   69.4801 O   0  0  0  0  0  0  0  0  0  0  0  0
    2.9702   22.3551   70.9485 N   0  0  0  0  0  0  0  0  0  0  0  0
    2.2162   23.5220   71.4840 C   0  0  0  0  0  0  0  0  0  0  0  0
    2.5405   21.0712   71.5876 C   0  0  0  0  0  0  0  0  0  0  0  0
    1.3822   21.4361   72.5329 C   0  0  0  0  0  0  0  0  0  0  0  0
    0.9894   22.8884   72.1799 C   0  0  0  0  0  0  0  0  0  0  0  0
    3.0479   24.3363   72.5042 C   0  0  0  0  0  0  0  0  0  0  0  0
    2.3316   25.5159   72.9071 O   0  0  0  0  0  0  0  0  0  0  0  0
    2.1621   26.0722   72.1308 H   0  0  0  0  0  0  0  0  0  0  0  0
    6.1512   21.1834   69.3451 C   0  0  0  0  0  0  0  0  0  0  0  0
    6.8725   20.6514   70.5940 C   0  0  0  0  0  0  0  0  0  0  0  0
    6.6527   20.4232   68.1281 C   0  0  0  0  0  0  0  0  0  0  0  0
  6  7  1  0  0  0
  6  5  1  0  0  0
  7  8  2  0  0  0
  7  9  1  0  0  0
  9 10  1  0  0  0
  5  1  1  0  0  0
  5 13  1  0  0  0
  1  2  2  0  0  0
  1  3  1  0  0  0
 13 14  1  0  0  0
 14 15  1  0  0  0
 15 16  1  0  0  0
 16 17  1  0  0  0
  3 18  1  0  0  0
 18 29  1  0  0  0
 18 19  1  0  0  0
 29 30  1  0  0  0
 29 31  1  0  0  0
 19 20  2  0  0  0
 19 21  1  0  0  0
 21 22  1  0  0  0
 21 23  1  0  0  0
 22 25  1  0  0  0
 22 26  1  0  0  0
 23 24  1  0  0  0
 24 25  1  0  0  0
 26 27  1  0  0  0
  9 11  1  0  0  0
 10 12  1  0  0  0
  3  4  1  0  0  0
 27 28  1  0  0  0
M  END
> <minimizedAffinity>
-6.16880

$$$$
3PN4_BB2_A_501


 31 31  0  0  0  0  0  0  0  0999 V2000
    2.9278   20.1332   68.8485 C   0  0  0  0  0  0  0  0  0  0  0  0
    3.2094   19.0174   69.3343 O   0  0  0  0  0  0  0  0  0  0  0  0
    2.9989   21.2762   69.5380 N   0  0  0  0  0  0  0  0  0  0  0  0
    2.8291   22.1289   69.0760 H   0  0  0  0  0  0  0  0  0  0  0  0
    2.4871   20.3268   67.3946 C   0  0  0  0  0  0  0  0  0  0  0  0
    1.3812   19.3141   67.0375 C   0  0  0  0  0  0  0  0  0  0  0  0
    1.9836   18.2160   66.2179 C   0  0  0  0  0  0  0  0  0  0  0  0
    2.0004   17.0483   66.6057 O   0  0  0  0  0  0  0  0  0  0  0  0
    2.5542   18.5998   65.0841 N   0  0  0  0  0  0  0  0  0  0  0  0
    3.1585   17.6097   64.3644 O   0  0  0  0  0  0  0  0  0  0  0  0
    2.5428   19.5365   64.7815 H   0  0  0  0  0  0  0  0  0  0  0  0
    3.0590   16.7647   64.8301 H   0  0  0  0  0  0  0  0  0  0  0  0
    1.9963   21.8015   67.2300 C   0  0  0  0  0  0  0  0  0  0  0  0
    0.6020   21.8071   66.5342 C   0  0  0  0  0  0  0  0  0  0  0  0
   -0.4723   22.4988   67.3970 C   0  0  0  0  0  0  0  0  0  0  0  0
   -1.7464   21.6143   67.5056 C   0  0  0  0  0  0  0  0  0  0  0  0
   -2.0856   21.0385   66.1258 C   0  0  0  0  0  0  0  0  0  0  0  0
    3.3225   21.2872   70.9604 C   0  0  0  0  0  0  0  0  0  0  0  0
    1.9693   21.5967   71.6534 C   0  0  0  0  0  0  0  0  0  0  0  0
    1.1279   22.2958   71.0814 O   0  0  0  0  0  0  0  0  0  0  0  0
    1.6855   21.0605   72.8623 N   0  0  0  0  0  0  0  0  0  0  0  0
    0.4145   21.2533   73.6135 C   0  0  0  0  0  0  0  0  0  0  0  0
    2.6408   20.1737   73.5986 C   0  0  0  0  0  0  0  0  0  0  0  0
    1.8969   19.7079   74.8628 C   0  0  0  0  0  0  0  0  0  0  0  0
    0.4198   20.1135   74.6583 C   0  0  0  0  0  0  0  0  0  0  0  0
    0.3579   22.6279   74.3226 C   0  0  0  0  0  0  0  0  0  0  0  0
   -0.2827   22.5053   75.6037 O   0  0  0  0  0  0  0  0  0  0  0  0
   -1.1890   22.1814   75.4823 H   0  0  0  0  0  0  0  0  0  0  0  0
    4.5044   22.2063   71.3577 C   0  0  0  0  0  0  0  0  0  0  0  0
    5.2285   22.7707   70.1247 C   0  0  0  0  0  0  0  0  0  0  0  0
    4.0701   23.3628   72.2433 C   0  0  0  0  0  0  0  0  0  0  0  0
  6  7  1  0  0  0
  6  5  1  0  0  0
  7  8  2  0  0  0
  7  9  1  0  0  0
  9 10  1  0  0  0
  5  1  1  0  0  0
  5 13  1  0  0  0
  1  2  2  0  0  0
  1  3  1  0  0  0
 13 14  1  0  0  0
 14 15  1  0  0  0
 15 16  1  0  0  0
 16 17  1  0  0  0
  3 18  1  0  0  0
 18 29  1  0  0  0
 18 19  1  0  0  0
 29 30  1  0  0  0
 29 31  1  0  0  0
 19 20  2  0  0  0
 19 21  1  0  0  0
 21 22  1  0  0  0
 21 23  1  0  0  0
 22 25  1  0  0  0
 22 26  1  0  0  0
 23 24  1  0  0  0
 24 25  1  0  0  0
 26 27  1  0  0  0
  9 11  1  0  0  0
 10 12  1  0  0  0
  3  4  1  0  0  0
 27 28  1  0  0  0
M  END
> <minimizedAffinity>
-6.09851

$$$$
3PN4_BB2_A_501


 31 31  0  0  0  0  0  0  0  0999 V2000
    4.0981   19.0666   68.7081 C   0  0  0  0  0  0  0  0  0  0  0  0
    3.0876   18.8326   69.4041 O   0  0  0  0  0  0  0  0  0  0  0  0
    5.0630   19.9170   69.0726 N   0  0  0  0  0  0  0  0  0  0  0  0
    5.8662   20.0042   68.5099 H   0  0  0  0  0  0  0  0  0  0  0  0
    4.3626   18.3888   67.3606 C   0  0  0  0  0  0  0  0  0  0  0  0
    3.3390   18.8729   66.3146 C   0  0  0  0  0  0  0  0  0  0  0  0
    2.4395   17.7302   65.9599 C   0  0  0  0  0  0  0  0  0  0  0  0
    1.9277   17.0135   66.8191 O   0  0  0  0  0  0  0  0  0  0  0  0
    2.2902   17.5057   64.6615 N   0  0  0  0  0  0  0  0  0  0  0  0
    1.5203   16.4267   64.3353 O   0  0  0  0  0  0  0  0  0  0  0  0
    2.7069   18.0791   63.9783 H   0  0  0  0  0  0  0  0  0  0  0  0
    1.2055   15.9972   65.1460 H   0  0  0  0  0  0  0  0  0  0  0  0
    5.8286   18.7199   66.9317 C   0  0  0  0  0  0  0  0  0  0  0  0
    5.8036   19.6347   65.6705 C   0  0  0  0  0  0  0  0  0  0  0  0
    7.0987   20.4590   65.5280 C   0  0  0  0  0  0  0  0  0  0  0  0
    8.2723   19.7783   66.2875 C   0  0  0  0  0  0  0  0  0  0  0  0
    9.4379   19.5447   65.3193 C   0  0  0  0  0  0  0  0  0  0  0  0
    4.9514   20.7185   70.2865 C   0  0  0  0  0  0  0  0  0  0  0  0
    3.9717   21.8573   69.8984 C   0  0  0  0  0  0  0  0  0  0  0  0
    4.1726   22.5247   68.8796 O   0  0  0  0  0  0  0  0  0  0  0  0
    2.8678   22.0891   70.6448 N   0  0  0  0  0  0  0  0  0  0  0  0
    1.8374   23.1257   70.3605 C   0  0  0  0  0  0  0  0  0  0  0  0
    2.5391   21.2962   71.8714 C   0  0  0  0  0  0  0  0  0  0  0  0
    1.1701   21.8090   72.3524 C   0  0  0  0  0  0  0  0  0  0  0  0
    0.6192   22.6849   71.2046 C   0  0  0  0  0  0  0  0  0  0  0  0
    2.2991   24.5403   70.7864 C   0  0  0  0  0  0  0  0  0  0  0  0
    2.8872   25.2324   69.6721 O   0  0  0  0  0  0  0  0  0  0  0  0
    3.6583   24.7372   69.3543 H   0  0  0  0  0  0  0  0  0  0  0  0
    6.2994   21.1739   70.8987 C   0  0  0  0  0  0  0  0  0  0  0  0
    6.5647   20.5052   72.2572 C   0  0  0  0  0  0  0  0  0  0  0  0
    7.4783   20.9004   69.9790 C   0  0  0  0  0  0  0  0  0  0  0  0
  6  7  1  0  0  0
  6  5  1  0  0  0
  7  8  2  0  0  0
  7  9  1  0  0  0
  9 10  1  0  0  0
  5  1  1  0  0  0
  5 13  1  0  0  0
  1  2  2  0  0  0
  1  3  1  0  0  0
 13 14  1  0  0  0
 14 15  1  0  0  0
 15 16  1  0  0  0
 16 17  1  0  0  0
  3 18  1  0  0  0
 18 29  1  0  0  0
 18 19  1  0  0  0
 29 30  1  0  0  0
 29 31  1  0  0  0
 19 20  2  0  0  0
 19 21  1  0  0  0
 21 22  1  0  0  0
 21 23  1  0  0  0
 22 25  1  0  0  0
 22 26  1  0  0  0
 23 24  1  0  0  0
 24 25  1  0  0  0
 26 27  1  0  0  0
  9 11  1  0  0  0
 10 12  1  0  0  0
  3  4  1  0  0  0
 27 28  1  0  0  0
M  END
> <minimizedAffinity>
-6.09389

$$$$
3PN4_BB2_A_501


 31 31  0  0  0  0  0  0  0  0999 V2000
    2.2024   20.9718   67.5881 C   0  0  0  0  0  0  0  0  0  0  0  0
    2.0324   20.3028   68.6292 O   0  0  0  0  0  0  0  0  0  0  0  0
    2.8758   20.5214   66.5247 N   0  0  0  0  0  0  0  0  0  0  0  0
    2.9146   21.0729   65.7101 H   0  0  0  0  0  0  0  0  0  0  0  0
    1.6394   22.3832   67.3978 C   0  0  0  0  0  0  0  0  0  0  0  0
    0.1364   22.4039   67.7390 C   0  0  0  0  0  0  0  0  0  0  0  0
   -0.6298   21.8906   66.5599 C   0  0  0  0  0  0  0  0  0  0  0  0
   -0.1054   21.7436   65.4566 O   0  0  0  0  0  0  0  0  0  0  0  0
   -1.9205   21.6724   66.7715 N   0  0  0  0  0  0  0  0  0  0  0  0
   -2.6348   21.2633   65.6825 O   0  0  0  0  0  0  0  0  0  0  0  0
   -2.3361   21.7972   67.6552 H   0  0  0  0  0  0  0  0  0  0  0  0
   -2.0461   21.2021   64.9141 H   0  0  0  0  0  0  0  0  0  0  0  0
    2.4534   23.3561   68.3107 C   0  0  0  0  0  0  0  0  0  0  0  0
    1.6239   23.6796   69.5896 C   0  0  0  0  0  0  0  0  0  0  0  0
    2.3221   23.1852   70.8723 C   0  0  0  0  0  0  0  0  0  0  0  0
    1.5060   22.0419   71.5390 C   0  0  0  0  0  0  0  0  0  0  0  0
    0.1066   22.5565   71.8958 C   0  0  0  0  0  0  0  0  0  0  0  0
    3.5546   19.2302   66.5456 C   0  0  0  0  0  0  0  0  0  0  0  0
    5.0608   19.5939   66.4671 C   0  0  0  0  0  0  0  0  0  0  0  0
    5.6261   19.6521   65.3712 O   0  0  0  0  0  0  0  0  0  0  0  0
    5.7469   19.8987   67.5922 N   0  0  0  0  0  0  0  0  0  0  0  0
    7.1812   20.2944   67.6464 C   0  0  0  0  0  0  0  0  0  0  0  0
    5.1190   19.8860   68.9513 C   0  0  0  0  0  0  0  0  0  0  0  0
    6.2037   20.3837   69.9230 C   0  0  0  0  0  0  0  0  0  0  0  0
    7.3372   20.9497   69.0381 C   0  0  0  0  0  0  0  0  0  0  0  0
    8.1282   19.0766   67.5199 C   0  0  0  0  0  0  0  0  0  0  0  0
    7.5521   17.9250   68.1590 O   0  0  0  0  0  0  0  0  0  0  0  0
    7.4132   18.1133   69.1004 H   0  0  0  0  0  0  0  0  0  0  0  0
    3.0560   18.2094   65.4926 C   0  0  0  0  0  0  0  0  0  0  0  0
    2.9875   16.7848   66.0659 C   0  0  0  0  0  0  0  0  0  0  0  0
    1.6940   18.5760   64.9259 C   0  0  0  0  0  0  0  0  0  0  0  0
  6  7  1  0  0  0
  6  5  1  0  0  0
  7  8  2  0  0  0
  7  9  1  0  0  0
  9 10  1  0  0  0
  5  1  1  0  0  0
  5 13  1  0  0  0
  1  2  2  0  0  0
  1  3  1  0  0  0
 13 14  1  0  0  0
 14 15  1  0  0  0
 15 16  1  0  0  0
 16 17  1  0  0  0
  3 18  1  0  0  0
 18 29  1  0  0  0
 18 19  1  0  0  0
 29 30  1  0  0  0
 29 31  1  0  0  0
 19 20  2  0  0  0
 19 21  1  0  0  0
 21 22  1  0  0  0
 21 23  1  0  0  0
 22 25  1  0  0  0
 22 26  1  0  0  0
 23 24  1  0  0  0
 24 25  1  0  0  0
 26 27  1  0  0  0
  9 11  1  0  0  0
 10 12  1  0  0  0
  3  4  1  0  0  0
 27 28  1  0  0  0
M  END
> <minimizedAffinity>
-6.09268

$$$$
3PN4_BB2_A_501


 31 31  0  0  0  0  0  0  0  0999 V2000
    3.0093   20.3381   67.3613 C   0  0  0  0  0  0  0  0  0  0  0  0
    3.3908   21.4964   67.0909 O   0  0  0  0  0  0  0  0  0  0  0  0
    3.2445   19.7397   68.5334 N   0  0  0  0  0  0  0  0  0  0  0  0
    2.8570   18.8515   68.7071 H   0  0  0  0  0  0  0  0  0  0  0  0
    2.2059   19.4717   66.3870 C   0  0  0  0  0  0  0  0  0  0  0  0
    2.6434   17.9984   66.5045 C   0  0  0  0  0  0  0  0  0  0  0  0
    2.5283   17.3555   65.1576 C   0  0  0  0  0  0  0  0  0  0  0  0
    3.3284   17.5916   64.2531 O   0  0  0  0  0  0  0  0  0  0  0  0
    1.4715   16.5725   64.9894 N   0  0  0  0  0  0  0  0  0  0  0  0
    1.3301   16.0338   63.7432 O   0  0  0  0  0  0  0  0  0  0  0  0
    0.8313   16.3917   65.7152 H   0  0  0  0  0  0  0  0  0  0  0  0
    2.0593   16.3322   63.1773 H   0  0  0  0  0  0  0  0  0  0  0  0
    0.6888   19.6528   66.7163 C   0  0  0  0  0  0  0  0  0  0  0  0
   -0.0569   20.1669   65.4483 C   0  0  0  0  0  0  0  0  0  0  0  0
   -0.4864   21.6411   65.5878 C   0  0  0  0  0  0  0  0  0  0  0  0
   -0.2872   22.1381   67.0475 C   0  0  0  0  0  0  0  0  0  0  0  0
   -1.6319   22.1085   67.7834 C   0  0  0  0  0  0  0  0  0  0  0  0
    4.0630   20.3748   69.5605 C   0  0  0  0  0  0  0  0  0  0  0  0
    3.0295   20.9999   70.5343 C   0  0  0  0  0  0  0  0  0  0  0  0
    2.1272   21.7208   70.0983 O   0  0  0  0  0  0  0  0  0  0  0  0
    3.0815   20.7164   71.8558 N   0  0  0  0  0  0  0  0  0  0  0  0
    2.1320   21.2242   72.8841 C   0  0  0  0  0  0  0  0  0  0  0  0
    4.1235   19.8211   72.4509 C   0  0  0  0  0  0  0  0  0  0  0  0
    3.7648   19.6872   73.9415 C   0  0  0  0  0  0  0  0  0  0  0  0
    2.3458   20.2808   74.0903 C   0  0  0  0  0  0  0  0  0  0  0  0
    2.4367   22.6867   73.2889 C   0  0  0  0  0  0  0  0  0  0  0  0
    1.6746   23.5996   72.4812 O   0  0  0  0  0  0  0  0  0  0  0  0
    1.9109   23.4805   71.5480 H   0  0  0  0  0  0  0  0  0  0  0  0
    5.1515   21.3401   69.0286 C   0  0  0  0  0  0  0  0  0  0  0  0
    5.4336   22.4831   70.0170 C   0  0  0  0  0  0  0  0  0  0  0  0
    6.4578   20.6286   68.7158 C   0  0  0  0  0  0  0  0  0  0  0  0
  6  7  1  0  0  0
  6  5  1  0  0  0
  7  8  2  0  0  0
  7  9  1  0  0  0
  9 10  1  0  0  0
  5  1  1  0  0  0
  5 13  1  0  0  0
  1  2  2  0  0  0
  1  3  1  0  0  0
 13 14  1  0  0  0
 14 15  1  0  0  0
 15 16  1  0  0  0
 16 17  1  0  0  0
  3 18  1  0  0  0
 18 29  1  0  0  0
 18 19  1  0  0  0
 29 30  1  0  0  0
 29 31  1  0  0  0
 19 20  2  0  0  0
 19 21  1  0  0  0
 21 22  1  0  0  0
 21 23  1  0  0  0
 22 25  1  0  0  0
 22 26  1  0  0  0
 23 24  1  0  0  0
 24 25  1  0  0  0
 26 27  1  0  0  0
  9 11  1  0  0  0
 10 12  1  0  0  0
  3  4  1  0  0  0
 27 28  1  0  0  0
M  END
> <minimizedAffinity>
-6.04753

$$$$
3PN4_BB2_A_501


 31 31  0  0  0  0  0  0  0  0999 V2000
    2.8049   22.2650   68.3013 C   0  0  0  0  0  0  0  0  0  0  0  0
    3.5444   23.2227   67.9907 O   0  0  0  0  0  0  0  0  0  0  0  0
    2.4972   21.9509   69.5637 N   0  0  0  0  0  0  0  0  0  0  0  0
    1.8539   21.2260   69.7367 H   0  0  0  0  0  0  0  0  0  0  0  0
    2.1438   21.3478   67.2684 C   0  0  0  0  0  0  0  0  0  0  0  0
    2.4508   19.8733   67.5965 C   0  0  0  0  0  0  0  0  0  0  0  0
    3.9235   19.6470   67.4529 C   0  0  0  0  0  0  0  0  0  0  0  0
    4.5137   19.8541   66.3933 O   0  0  0  0  0  0  0  0  0  0  0  0
    4.5289   19.1464   68.5211 N   0  0  0  0  0  0  0  0  0  0  0  0
    5.8597   18.8810   68.3735 O   0  0  0  0  0  0  0  0  0  0  0  0
    4.0503   18.9773   69.3647 H   0  0  0  0  0  0  0  0  0  0  0  0
    6.1384   19.1159   67.4746 H   0  0  0  0  0  0  0  0  0  0  0  0
    0.6075   21.6351   67.2790 C   0  0  0  0  0  0  0  0  0  0  0  0
    0.0048   21.2727   65.8884 C   0  0  0  0  0  0  0  0  0  0  0  0
   -1.4041   20.6586   66.0110 C   0  0  0  0  0  0  0  0  0  0  0  0
   -1.3189   19.1227   66.2368 C   0  0  0  0  0  0  0  0  0  0  0  0
   -0.1522   18.5522   65.4220 C   0  0  0  0  0  0  0  0  0  0  0  0
    3.0944   22.6593   70.6906 C   0  0  0  0  0  0  0  0  0  0  0  0
    3.8939   21.5641   71.4445 C   0  0  0  0  0  0  0  0  0  0  0  0
    3.3024   20.7464   72.1554 O   0  0  0  0  0  0  0  0  0  0  0  0
    5.2337   21.4685   71.2854 N   0  0  0  0  0  0  0  0  0  0  0  0
    6.1066   20.4455   71.9245 C   0  0  0  0  0  0  0  0  0  0  0  0
    6.0132   22.4004   70.4106 C   0  0  0  0  0  0  0  0  0  0  0  0
    7.4638   21.8869   70.4321 C   0  0  0  0  0  0  0  0  0  0  0  0
    7.4086   20.4904   71.0917 C   0  0  0  0  0  0  0  0  0  0  0  0
    6.4079   20.7781   73.4057 C   0  0  0  0  0  0  0  0  0  0  0  0
    5.4354   20.1610   74.2660 O   0  0  0  0  0  0  0  0  0  0  0  0
    4.5515   20.4952   74.0468 H   0  0  0  0  0  0  0  0  0  0  0  0
    2.1008   23.4768   71.5531 C   0  0  0  0  0  0  0  0  0  0  0  0
    2.0180   24.9418   71.0949 C   0  0  0  0  0  0  0  0  0  0  0  0
    0.7018   22.8823   71.5502 C   0  0  0  0  0  0  0  0  0  0  0  0
  6  7  1  0  0  0
  6  5  1  0  0  0
  7  8  2  0  0  0
  7  9  1  0  0  0
  9 10  1  0  0  0
  5  1  1  0  0  0
  5 13  1  0  0  0
  1  2  2  0  0  0
  1  3  1  0  0  0
 13 14  1  0  0  0
 14 15  1  0  0  0
 15 16  1  0  0  0
 16 17  1  0  0  0
  3 18  1  0  0  0
 18 29  1  0  0  0
 18 19  1  0  0  0
 29 30  1  0  0  0
 29 31  1  0  0  0
 19 20  2  0  0  0
 19 21  1  0  0  0
 21 22  1  0  0  0
 21 23  1  0  0  0
 22 25  1  0  0  0
 22 26  1  0  0  0
 23 24  1  0  0  0
 24 25  1  0  0  0
 26 27  1  0  0  0
  9 11  1  0  0  0
 10 12  1  0  0  0
  3  4  1  0  0  0
 27 28  1  0  0  0
M  END
> <minimizedAffinity>
-5.98062

$$$$
