2XBP_ATP_A_1114


 39 41  0  0  0  0  0  0  0  0999 V2000
   43.0663  -14.0331   54.8421 C   0  0  0  0  0  0  0  0  0  0  0  0
   41.7640  -14.4531   55.2846 O   0  0  0  0  0  0  0  0  0  0  0  0
   43.3364  -12.7546   55.5906 C   0  0  0  0  0  0  0  0  0  0  0  0
   44.3182  -11.9412   55.0043 O   0  0  0  0  0  0  0  0  0  0  0  0
   41.9851  -12.1276   55.6541 C   0  0  0  0  0  0  0  0  0  0  0  0
   41.6673  -11.5450   54.3921 O   0  0  0  0  0  0  0  0  0  0  0  0
   41.1021  -13.3411   55.8921 C   0  0  0  0  0  0  0  0  0  0  0  0
   44.0494  -11.7098   54.1015 H   0  0  0  0  0  0  0  0  0  0  0  0
   41.7447  -12.2171   53.6970 H   0  0  0  0  0  0  0  0  0  0  0  0
   40.8326  -13.6545   57.3019 N   0  0  0  0  0  0  0  0  0  0  0  0
   41.6243  -14.4152   58.1323 C   0  0  0  0  0  0  0  0  0  0  0  0
   41.0600  -14.5784   59.3213 N   0  0  0  0  0  0  0  0  0  0  0  0
   39.8510  -13.9016   59.2267 C   0  0  0  0  0  0  0  0  0  0  0  0
   38.7307  -13.7618   60.0990 C   0  0  0  0  0  0  0  0  0  0  0  0
   38.7011  -14.3153   61.3271 N   0  0  0  0  0  0  0  0  0  0  0  0
   37.6725  -13.0331   59.6829 N   0  0  0  0  0  0  0  0  0  0  0  0
   37.6773  -12.5308   58.4393 C   0  0  0  0  0  0  0  0  0  0  0  0
   38.6661  -12.6101   57.5250 N   0  0  0  0  0  0  0  0  0  0  0  0
   39.7260  -13.3299   57.9728 C   0  0  0  0  0  0  0  0  0  0  0  0
   39.4646  -14.8493   61.6450 H   0  0  0  0  0  0  0  0  0  0  0  0
   37.9158  -14.1856   61.9066 H   0  0  0  0  0  0  0  0  0  0  0  0
   44.0390  -15.1802   54.9877 C   0  0  0  0  0  0  0  0  0  0  0  0
   44.4499  -15.2373   56.3837 O   0  0  0  0  0  0  0  0  0  0  0  0
   44.6647  -16.6781   57.0411 P   0  0  0  0  0  0  0  0  0  0  0  0
   45.7563  -17.3740   56.2809 O   0  0  0  0  0  0  0  0  0  0  0  0
   43.4044  -17.3807   57.2323 O   0  0  0  0  0  0  0  0  0  0  0  0
   43.5750  -18.2479   57.6319 H   0  0  0  0  0  0  0  0  0  0  0  0
   45.2938  -16.1702   58.4401 O   0  0  0  0  0  0  0  0  0  0  0  0
   45.1558  -16.8218   59.8854 P   0  0  0  0  0  0  0  0  0  0  0  0
   44.8716  -18.2811   59.7242 O   0  0  0  0  0  0  0  0  0  0  0  0
   46.3438  -16.4440   60.6810 O   0  0  0  0  0  0  0  0  0  0  0  0
   46.2767  -16.8333   61.5670 H   0  0  0  0  0  0  0  0  0  0  0  0
   43.9051  -16.0568   60.5179 O   0  0  0  0  0  0  0  0  0  0  0  0
   43.6670  -15.6036   62.0938 P   0  0  0  0  0  0  0  0  0  0  0  0
   43.4195  -16.8927   62.8137 O   0  0  0  0  0  0  0  0  0  0  0  0
   42.4831  -14.6989   62.0617 O   0  0  0  0  0  0  0  0  0  0  0  0
   44.9528  -14.9249   62.4982 O   0  0  0  0  0  0  0  0  0  0  0  0
   42.2856  -14.3928   62.9607 H   0  0  0  0  0  0  0  0  0  0  0  0
   44.8865  -14.6295   63.4197 H   0  0  0  0  0  0  0  0  0  0  0  0
 34 35  2  0  0  0
 34 36  1  0  0  0
 34 37  1  0  0  0
 34 33  1  0  0  0
 29 30  2  0  0  0
 29 31  1  0  0  0
 29 33  1  0  0  0
 29 28  1  0  0  0
 24 25  2  0  0  0
 24 26  1  0  0  0
 24 28  1  0  0  0
 24 23  1  0  0  0
 23 22  1  0  0  0
 22  1  1  0  0  0
  1  2  1  0  0  0
  1  3  1  0  0  0
  2  7  1  0  0  0
  3  4  1  0  0  0
  3  5  1  0  0  0
  5  6  1  0  0  0
  5  7  1  0  0  0
  7 10  1  0  0  0
 10 11  1  0  0  0
 10 19  1  0  0  0
 11 12  2  0  0  0
 12 13  1  0  0  0
 13 14  1  0  0  0
 13 19  2  0  0  0
 14 15  1  0  0  0
 14 16  2  0  0  0
 16 17  1  0  0  0
 17 18  2  0  0  0
 18 19  1  0  0  0
 36 38  1  0  0  0
 37 39  1  0  0  0
 31 32  1  0  0  0
 26 27  1  0  0  0
  4  8  1  0  0  0
  6  9  1  0  0  0
 15 20  1  0  0  0
 15 21  1  0  0  0
M  END
> <minimizedAffinity>
-12.02042

$$$$
2XBP_ATP_A_1114


 39 41  0  0  0  0  0  0  0  0999 V2000
   42.8673  -14.0704   54.9369 C   0  0  0  0  0  0  0  0  0  0  0  0
   41.5482  -14.4592   55.3580 O   0  0  0  0  0  0  0  0  0  0  0  0
   43.1512  -12.7930   55.6823 C   0  0  0  0  0  0  0  0  0  0  0  0
   44.1610  -12.0050   55.1091 O   0  0  0  0  0  0  0  0  0  0  0  0
   41.8129  -12.1366   55.7168 C   0  0  0  0  0  0  0  0  0  0  0  0
   41.5311  -11.5557   54.4455 O   0  0  0  0  0  0  0  0  0  0  0  0
   40.8995  -13.3292   55.9461 C   0  0  0  0  0  0  0  0  0  0  0  0
   43.9140  -11.7738   54.2000 H   0  0  0  0  0  0  0  0  0  0  0  0
   41.6066  -12.2340   53.7562 H   0  0  0  0  0  0  0  0  0  0  0  0
   40.5975  -13.6272   57.3526 N   0  0  0  0  0  0  0  0  0  0  0  0
   41.3497  -14.4109   58.1982 C   0  0  0  0  0  0  0  0  0  0  0  0
   40.7616  -14.5497   59.3788 N   0  0  0  0  0  0  0  0  0  0  0  0
   39.5781  -13.8326   59.2625 C   0  0  0  0  0  0  0  0  0  0  0  0
   38.4497  -13.6509   60.1165 C   0  0  0  0  0  0  0  0  0  0  0  0
   38.3819  -14.1978   61.3461 N   0  0  0  0  0  0  0  0  0  0  0  0
   37.4236  -12.8882   59.6812 N   0  0  0  0  0  0  0  0  0  0  0  0
   37.4651  -12.3917   58.4360 C   0  0  0  0  0  0  0  0  0  0  0  0
   38.4648  -12.5086   57.5377 N   0  0  0  0  0  0  0  0  0  0  0  0
   39.4923  -13.2622   58.0048 C   0  0  0  0  0  0  0  0  0  0  0  0
   39.1217  -14.7562   61.6779 H   0  0  0  0  0  0  0  0  0  0  0  0
   37.5926  -14.0390   61.9126 H   0  0  0  0  0  0  0  0  0  0  0  0
   43.8119  -15.2372   55.1077 C   0  0  0  0  0  0  0  0  0  0  0  0
   43.7293  -15.6740   56.4945 O   0  0  0  0  0  0  0  0  0  0  0  0
   44.9862  -16.4446   57.1115 P   0  0  0  0  0  0  0  0  0  0  0  0
   46.1345  -15.4795   57.1724 O   0  0  0  0  0  0  0  0  0  0  0  0
   45.2033  -17.7318   56.4674 O   0  0  0  0  0  0  0  0  0  0  0  0
   45.9718  -18.1679   56.8674 H   0  0  0  0  0  0  0  0  0  0  0  0
   44.4074  -16.6073   58.6113 O   0  0  0  0  0  0  0  0  0  0  0  0
   45.0718  -17.3401   59.8578 P   0  0  0  0  0  0  0  0  0  0  0  0
   46.1221  -16.4439   60.4324 O   0  0  0  0  0  0  0  0  0  0  0  0
   43.9919  -17.7897   60.7627 O   0  0  0  0  0  0  0  0  0  0  0  0
   44.3792  -18.2396   61.5298 H   0  0  0  0  0  0  0  0  0  0  0  0
   45.7200  -18.6498   59.2142 O   0  0  0  0  0  0  0  0  0  0  0  0
   47.3185  -18.9618   58.9090 P   0  0  0  0  0  0  0  0  0  0  0  0
   47.2932  -20.1375   57.9824 O   0  0  0  0  0  0  0  0  0  0  0  0
   47.9155  -19.2621   60.2410 O   0  0  0  0  0  0  0  0  0  0  0  0
   47.8418  -17.7001   58.2672 O   0  0  0  0  0  0  0  0  0  0  0  0
   48.8600  -19.4560   60.1358 H   0  0  0  0  0  0  0  0  0  0  0  0
   48.7826  -17.8099   58.0582 H   0  0  0  0  0  0  0  0  0  0  0  0
 34 35  2  0  0  0
 34 36  1  0  0  0
 34 37  1  0  0  0
 34 33  1  0  0  0
 29 30  2  0  0  0
 29 31  1  0  0  0
 29 33  1  0  0  0
 29 28  1  0  0  0
 24 25  2  0  0  0
 24 26  1  0  0  0
 24 28  1  0  0  0
 24 23  1  0  0  0
 23 22  1  0  0  0
 22  1  1  0  0  0
  1  2  1  0  0  0
  1  3  1  0  0  0
  2  7  1  0  0  0
  3  4  1  0  0  0
  3  5  1  0  0  0
  5  6  1  0  0  0
  5  7  1  0  0  0
  7 10  1  0  0  0
 10 11  1  0  0  0
 10 19  1  0  0  0
 11 12  2  0  0  0
 12 13  1  0  0  0
 13 14  1  0  0  0
 13 19  2  0  0  0
 14 15  1  0  0  0
 14 16  2  0  0  0
 16 17  1  0  0  0
 17 18  2  0  0  0
 18 19  1  0  0  0
 36 38  1  0  0  0
 37 39  1  0  0  0
 31 32  1  0  0  0
 26 27  1  0  0  0
  4  8  1  0  0  0
  6  9  1  0  0  0
 15 20  1  0  0  0
 15 21  1  0  0  0
M  END
> <minimizedAffinity>
-12.01143

$$$$
2XBP_ATP_A_1114


 39 41  0  0  0  0  0  0  0  0999 V2000
   45.0395  -17.3107   59.0668 C   0  0  0  0  0  0  0  0  0  0  0  0
   43.7978  -16.9144   58.4590 O   0  0  0  0  0  0  0  0  0  0  0  0
   46.0858  -17.0525   58.0150 C   0  0  0  0  0  0  0  0  0  0  0  0
   47.2796  -17.7656   58.2040 O   0  0  0  0  0  0  0  0  0  0  0  0
   45.3660  -17.3941   56.7547 C   0  0  0  0  0  0  0  0  0  0  0  0
   45.2979  -18.8110   56.6107 O   0  0  0  0  0  0  0  0  0  0  0  0
   43.9792  -16.8437   57.0426 C   0  0  0  0  0  0  0  0  0  0  0  0
   47.0901  -18.7169   58.2122 H   0  0  0  0  0  0  0  0  0  0  0  0
   44.8892  -19.1971   57.4011 H   0  0  0  0  0  0  0  0  0  0  0  0
   43.7468  -15.4632   56.5972 N   0  0  0  0  0  0  0  0  0  0  0  0
   44.7143  -14.5296   56.3014 C   0  0  0  0  0  0  0  0  0  0  0  0
   44.1767  -13.3530   56.0092 N   0  0  0  0  0  0  0  0  0  0  0  0
   42.8092  -13.5542   56.1433 C   0  0  0  0  0  0  0  0  0  0  0  0
   41.6758  -12.6907   56.0708 C   0  0  0  0  0  0  0  0  0  0  0  0
   41.7873  -11.3789   55.7839 N   0  0  0  0  0  0  0  0  0  0  0  0
   40.4482  -13.2138   56.2792 N   0  0  0  0  0  0  0  0  0  0  0  0
   40.3415  -14.5062   56.6215 C   0  0  0  0  0  0  0  0  0  0  0  0
   41.3359  -15.4107   56.7355 N   0  0  0  0  0  0  0  0  0  0  0  0
   42.5572  -14.8666   56.5024 C   0  0  0  0  0  0  0  0  0  0  0  0
   42.6751  -10.9826   55.6293 H   0  0  0  0  0  0  0  0  0  0  0  0
   40.9809  -10.8168   55.7288 H   0  0  0  0  0  0  0  0  0  0  0  0
   45.1774  -16.6345   60.4110 C   0  0  0  0  0  0  0  0  0  0  0  0
   43.8765  -16.0839   60.7649 O   0  0  0  0  0  0  0  0  0  0  0  0
   43.6098  -15.7234   62.2989 P   0  0  0  0  0  0  0  0  0  0  0  0
   44.7843  -14.9328   62.7979 O   0  0  0  0  0  0  0  0  0  0  0  0
   43.1893  -16.8876   63.0648 O   0  0  0  0  0  0  0  0  0  0  0  0
   43.0376  -16.6300   63.9876 H   0  0  0  0  0  0  0  0  0  0  0  0
   42.3942  -14.6872   62.0547 O   0  0  0  0  0  0  0  0  0  0  0  0
   40.8540  -14.8610   62.4149 P   0  0  0  0  0  0  0  0  0  0  0  0
   40.6328  -16.2593   62.8969 O   0  0  0  0  0  0  0  0  0  0  0  0
   40.4609  -13.7594   63.3198 O   0  0  0  0  0  0  0  0  0  0  0  0
   39.5230  -13.8494   63.5504 H   0  0  0  0  0  0  0  0  0  0  0  0
   40.1176  -14.6082   61.0208 O   0  0  0  0  0  0  0  0  0  0  0  0
   38.5293  -14.2191   60.7530 P   0  0  0  0  0  0  0  0  0  0  0  0
   38.4987  -13.7588   59.3286 O   0  0  0  0  0  0  0  0  0  0  0  0
   38.2234  -13.1424   61.7369 O   0  0  0  0  0  0  0  0  0  0  0  0
   37.7729  -15.5038   60.9873 O   0  0  0  0  0  0  0  0  0  0  0  0
   37.2998  -12.8641   61.6349 H   0  0  0  0  0  0  0  0  0  0  0  0
   36.8253  -15.3512   60.8472 H   0  0  0  0  0  0  0  0  0  0  0  0
 34 35  2  0  0  0
 34 36  1  0  0  0
 34 37  1  0  0  0
 34 33  1  0  0  0
 29 30  2  0  0  0
 29 31  1  0  0  0
 29 33  1  0  0  0
 29 28  1  0  0  0
 24 25  2  0  0  0
 24 26  1  0  0  0
 24 28  1  0  0  0
 24 23  1  0  0  0
 23 22  1  0  0  0
 22  1  1  0  0  0
  1  2  1  0  0  0
  1  3  1  0  0  0
  2  7  1  0  0  0
  3  4  1  0  0  0
  3  5  1  0  0  0
  5  6  1  0  0  0
  5  7  1  0  0  0
  7 10  1  0  0  0
 10 11  1  0  0  0
 10 19  1  0  0  0
 11 12  2  0  0  0
 12 13  1  0  0  0
 13 14  1  0  0  0
 13 19  2  0  0  0
 14 15  1  0  0  0
 14 16  2  0  0  0
 16 17  1  0  0  0
 17 18  2  0  0  0
 18 19  1  0  0  0
 36 38  1  0  0  0
 37 39  1  0  0  0
 31 32  1  0  0  0
 26 27  1  0  0  0
  4  8  1  0  0  0
  6  9  1  0  0  0
 15 20  1  0  0  0
 15 21  1  0  0  0
M  END
> <minimizedAffinity>
-9.67714

$$$$
2XBP_ATP_A_1114


 39 41  0  0  0  0  0  0  0  0999 V2000
   45.0606  -17.3140   59.0676 C   0  0  0  0  0  0  0  0  0  0  0  0
   43.7760  -17.0630   58.4715 O   0  0  0  0  0  0  0  0  0  0  0  0
   46.0539  -17.0822   57.9598 C   0  0  0  0  0  0  0  0  0  0  0  0
   47.3014  -17.6899   58.1693 O   0  0  0  0  0  0  0  0  0  0  0  0
   45.3239  -17.5884   56.7622 C   0  0  0  0  0  0  0  0  0  0  0  0
   45.3547  -19.0138   56.7493 O   0  0  0  0  0  0  0  0  0  0  0  0
   43.9099  -17.1115   57.0490 C   0  0  0  0  0  0  0  0  0  0  0  0
   47.1818  -18.6472   58.2703 H   0  0  0  0  0  0  0  0  0  0  0  0
   44.9986  -19.3525   57.5857 H   0  0  0  0  0  0  0  0  0  0  0  0
   43.5650  -15.7978   56.4893 N   0  0  0  0  0  0  0  0  0  0  0  0
   44.2521  -15.1275   55.5026 C   0  0  0  0  0  0  0  0  0  0  0  0
   43.7312  -13.9282   55.2809 N   0  0  0  0  0  0  0  0  0  0  0  0
   42.6782  -13.8360   56.1815 C   0  0  0  0  0  0  0  0  0  0  0  0
   41.7748  -12.7901   56.5354 C   0  0  0  0  0  0  0  0  0  0  0  0
   41.7963  -11.5854   55.9322 N   0  0  0  0  0  0  0  0  0  0  0  0
   40.8551  -13.0255   57.4960 N   0  0  0  0  0  0  0  0  0  0  0  0
   40.8708  -14.2038   58.1365 C   0  0  0  0  0  0  0  0  0  0  0  0
   41.6817  -15.2560   57.9014 N   0  0  0  0  0  0  0  0  0  0  0  0
   42.5835  -15.0028   56.9193 C   0  0  0  0  0  0  0  0  0  0  0  0
   42.4605  -11.3983   55.2300 H   0  0  0  0  0  0  0  0  0  0  0  0
   41.1478  -10.8924   56.1936 H   0  0  0  0  0  0  0  0  0  0  0  0
   45.1886  -16.5081   60.3394 C   0  0  0  0  0  0  0  0  0  0  0  0
   43.8483  -16.1127   60.7494 O   0  0  0  0  0  0  0  0  0  0  0  0
   43.6226  -15.7133   62.2804 P   0  0  0  0  0  0  0  0  0  0  0  0
   44.7767  -14.8535   62.7078 O   0  0  0  0  0  0  0  0  0  0  0  0
   43.2860  -16.8689   63.0988 O   0  0  0  0  0  0  0  0  0  0  0  0
   43.1570  -16.5875   64.0181 H   0  0  0  0  0  0  0  0  0  0  0  0
   42.3516  -14.7423   62.0506 O   0  0  0  0  0  0  0  0  0  0  0  0
   40.8425  -14.9575   62.5074 P   0  0  0  0  0  0  0  0  0  0  0  0
   39.9572  -14.8061   61.3117 O   0  0  0  0  0  0  0  0  0  0  0  0
   40.7607  -16.2293   63.2577 O   0  0  0  0  0  0  0  0  0  0  0  0
   39.8459  -16.3772   63.5446 H   0  0  0  0  0  0  0  0  0  0  0  0
   40.6020  -13.7779   63.5564 O   0  0  0  0  0  0  0  0  0  0  0  0
   39.1686  -13.2492   64.1979 P   0  0  0  0  0  0  0  0  0  0  0  0
   39.5740  -12.2103   65.1969 O   0  0  0  0  0  0  0  0  0  0  0  0
   38.5490  -14.4586   64.8097 O   0  0  0  0  0  0  0  0  0  0  0  0
   38.4038  -12.6896   63.0235 O   0  0  0  0  0  0  0  0  0  0  0  0
   37.6976  -14.2193   65.2081 H   0  0  0  0  0  0  0  0  0  0  0  0
   37.5441  -12.3575   63.3261 H   0  0  0  0  0  0  0  0  0  0  0  0
 34 35  2  0  0  0
 34 36  1  0  0  0
 34 37  1  0  0  0
 34 33  1  0  0  0
 29 30  2  0  0  0
 29 31  1  0  0  0
 29 33  1  0  0  0
 29 28  1  0  0  0
 24 25  2  0  0  0
 24 26  1  0  0  0
 24 28  1  0  0  0
 24 23  1  0  0  0
 23 22  1  0  0  0
 22  1  1  0  0  0
  1  2  1  0  0  0
  1  3  1  0  0  0
  2  7  1  0  0  0
  3  4  1  0  0  0
  3  5  1  0  0  0
  5  6  1  0  0  0
  5  7  1  0  0  0
  7 10  1  0  0  0
 10 11  1  0  0  0
 10 19  1  0  0  0
 11 12  2  0  0  0
 12 13  1  0  0  0
 13 14  1  0  0  0
 13 19  2  0  0  0
 14 15  1  0  0  0
 14 16  2  0  0  0
 16 17  1  0  0  0
 17 18  2  0  0  0
 18 19  1  0  0  0
 36 38  1  0  0  0
 37 39  1  0  0  0
 31 32  1  0  0  0
 26 27  1  0  0  0
  4  8  1  0  0  0
  6  9  1  0  0  0
 15 20  1  0  0  0
 15 21  1  0  0  0
M  END
> <minimizedAffinity>
-9.42821

$$$$
2XBP_ATP_A_1114


 39 41  0  0  0  0  0  0  0  0999 V2000
   43.8213  -15.4984   56.7331 C   0  0  0  0  0  0  0  0  0  0  0  0
   42.4665  -15.8805   57.0279 O   0  0  0  0  0  0  0  0  0  0  0  0
   43.8166  -13.9930   56.7714 C   0  0  0  0  0  0  0  0  0  0  0  0
   44.8871  -13.3969   56.0874 O   0  0  0  0  0  0  0  0  0  0  0  0
   42.4756  -13.6613   56.2102 C   0  0  0  0  0  0  0  0  0  0  0  0
   42.4979  -13.8148   54.7928 O   0  0  0  0  0  0  0  0  0  0  0  0
   41.6142  -14.7503   56.8274 C   0  0  0  0  0  0  0  0  0  0  0  0
   44.8713  -13.6738   55.1579 H   0  0  0  0  0  0  0  0  0  0  0  0
   42.7950  -14.7107   54.5693 H   0  0  0  0  0  0  0  0  0  0  0  0
   40.9758  -14.3983   58.1029 N   0  0  0  0  0  0  0  0  0  0  0  0
   41.4217  -14.7431   59.3588 C   0  0  0  0  0  0  0  0  0  0  0  0
   40.5756  -14.3429   60.2984 N   0  0  0  0  0  0  0  0  0  0  0  0
   39.5435  -13.7325   59.5978 C   0  0  0  0  0  0  0  0  0  0  0  0
   38.2857  -13.1797   59.9821 C   0  0  0  0  0  0  0  0  0  0  0  0
   37.8825  -13.1321   61.2668 N   0  0  0  0  0  0  0  0  0  0  0  0
   37.4818  -12.6704   59.0237 N   0  0  0  0  0  0  0  0  0  0  0  0
   37.8568  -12.7697   57.7399 C   0  0  0  0  0  0  0  0  0  0  0  0
   39.0078  -13.2820   57.2574 N   0  0  0  0  0  0  0  0  0  0  0  0
   39.8072  -13.7693   58.2399 C   0  0  0  0  0  0  0  0  0  0  0  0
   38.4571  -13.4991   61.9770 H   0  0  0  0  0  0  0  0  0  0  0  0
   37.0133  -12.7303   61.4954 H   0  0  0  0  0  0  0  0  0  0  0  0
   44.7630  -16.2461   57.6481 C   0  0  0  0  0  0  0  0  0  0  0  0
   44.1558  -16.2856   58.9713 O   0  0  0  0  0  0  0  0  0  0  0  0
   44.9907  -16.9576   60.1569 P   0  0  0  0  0  0  0  0  0  0  0  0
   44.0197  -17.3934   61.2156 O   0  0  0  0  0  0  0  0  0  0  0  0
   46.1219  -16.1343   60.5584 O   0  0  0  0  0  0  0  0  0  0  0  0
   46.6025  -16.5736   61.2774 H   0  0  0  0  0  0  0  0  0  0  0  0
   45.4579  -18.2784   59.3518 O   0  0  0  0  0  0  0  0  0  0  0  0
   46.9325  -18.8295   59.1190 P   0  0  0  0  0  0  0  0  0  0  0  0
   47.7769  -17.7177   58.5829 O   0  0  0  0  0  0  0  0  0  0  0  0
   47.3848  -19.4877   60.3636 O   0  0  0  0  0  0  0  0  0  0  0  0
   48.2837  -19.8305   60.2399 H   0  0  0  0  0  0  0  0  0  0  0  0
   46.7300  -19.9777   58.0280 O   0  0  0  0  0  0  0  0  0  0  0  0
   46.5839  -19.8203   56.3850 P   0  0  0  0  0  0  0  0  0  0  0  0
   46.1654  -18.3964   56.1879 O   0  0  0  0  0  0  0  0  0  0  0  0
   45.5416  -20.8105   55.9925 O   0  0  0  0  0  0  0  0  0  0  0  0
   47.9598  -20.1241   55.8448 O   0  0  0  0  0  0  0  0  0  0  0  0
   45.4039  -20.7719   55.0331 H   0  0  0  0  0  0  0  0  0  0  0  0
   47.9509  -20.0507   54.8776 H   0  0  0  0  0  0  0  0  0  0  0  0
 34 35  2  0  0  0
 34 36  1  0  0  0
 34 37  1  0  0  0
 34 33  1  0  0  0
 29 30  2  0  0  0
 29 31  1  0  0  0
 29 33  1  0  0  0
 29 28  1  0  0  0
 24 25  2  0  0  0
 24 26  1  0  0  0
 24 28  1  0  0  0
 24 23  1  0  0  0
 23 22  1  0  0  0
 22  1  1  0  0  0
  1  2  1  0  0  0
  1  3  1  0  0  0
  2  7  1  0  0  0
  3  4  1  0  0  0
  3  5  1  0  0  0
  5  6  1  0  0  0
  5  7  1  0  0  0
  7 10  1  0  0  0
 10 11  1  0  0  0
 10 19  1  0  0  0
 11 12  2  0  0  0
 12 13  1  0  0  0
 13 14  1  0  0  0
 13 19  2  0  0  0
 14 15  1  0  0  0
 14 16  2  0  0  0
 16 17  1  0  0  0
 17 18  2  0  0  0
 18 19  1  0  0  0
 36 38  1  0  0  0
 37 39  1  0  0  0
 31 32  1  0  0  0
 26 27  1  0  0  0
  4  8  1  0  0  0
  6  9  1  0  0  0
 15 20  1  0  0  0
 15 21  1  0  0  0
M  END
> <minimizedAffinity>
-9.25017

$$$$
