3P58_P58_A_263


 13 13  0  0  0  0  0  0  0  0999 V2000
   -3.9971    3.0702   14.8838 C   0  0  0  0  0  0  0  0  0  0  0  0
   -7.1267    1.3438   17.3772 C   0  0  0  0  0  0  0  0  0  0  0  0
   -5.8566    0.6890   17.3099 C   0  0  0  0  0  0  0  0  0  0  0  0
   -7.3095    2.5552   16.6569 C   0  0  0  0  0  0  0  0  0  0  0  0
   -4.8338    1.2199   16.4964 C   0  0  0  0  0  0  0  0  0  0  0  0
   -6.2796    3.0936   15.8483 C   0  0  0  0  0  0  0  0  0  0  0  0
   -5.0496    2.4324   15.7955 C   0  0  0  0  0  0  0  0  0  0  0  0
   -4.3178    1.3516   13.0242 C   0  0  0  0  0  0  0  0  0  0  0  0
   -4.3084    2.7525   13.4757 N   0  0  0  0  0  0  0  0  0  0  0  0
   -4.6091    5.4278   13.2492 S   0  0  0  0  0  0  0  0  0  0  0  0
   -3.9117    3.7475   10.8903 S   0  0  0  0  0  0  0  0  0  0  0  0
   -4.4875    3.8269   12.5645 C   0  0  0  0  0  0  0  0  0  0  0  0
   -4.7767    6.3363   12.2511 H   0  0  0  0  0  0  0  0  0  0  0  0
  8  9  1  0  0  0
 12 10  1  0  0  0
 12 11  2  0  0  0
  2  3  2  0  0  0
  2  4  1  0  0  0
  3  5  1  0  0  0
  4  6  2  0  0  0
  5  7  2  0  0  0
  6  7  1  0  0  0
  7  1  1  0  0  0
  1  9  1  0  0  0
  9 12  1  0  0  0
 10 13  1  0  0  0
M  END
> <minimizedAffinity>
-5.58594

$$$$
3P58_P58_A_263


 13 13  0  0  0  0  0  0  0  0999 V2000
   -3.9774    3.0677   14.9023 C   0  0  0  0  0  0  0  0  0  0  0  0
   -7.0610    1.3202   17.4380 C   0  0  0  0  0  0  0  0  0  0  0  0
   -7.3625    2.5101   16.7035 C   0  0  0  0  0  0  0  0  0  0  0  0
   -5.7774    0.7299   17.2848 C   0  0  0  0  0  0  0  0  0  0  0  0
   -6.3751    3.1033   15.8893 C   0  0  0  0  0  0  0  0  0  0  0  0
   -4.7895    1.3196   16.4597 C   0  0  0  0  0  0  0  0  0  0  0  0
   -5.1071    2.4846   15.7564 C   0  0  0  0  0  0  0  0  0  0  0  0
   -4.3273    1.4671   12.9451 C   0  0  0  0  0  0  0  0  0  0  0  0
   -4.2732    2.8398   13.4735 N   0  0  0  0  0  0  0  0  0  0  0  0
   -4.2296    5.5389   13.3643 S   0  0  0  0  0  0  0  0  0  0  0  0
   -4.0000    3.8899   10.8939 S   0  0  0  0  0  0  0  0  0  0  0  0
   -4.3934    3.9686   12.6201 C   0  0  0  0  0  0  0  0  0  0  0  0
   -4.3694    6.5057   12.4180 H   0  0  0  0  0  0  0  0  0  0  0  0
  8  9  1  0  0  0
 12 10  1  0  0  0
 12 11  2  0  0  0
  2  3  2  0  0  0
  2  4  1  0  0  0
  3  5  1  0  0  0
  4  6  2  0  0  0
  5  7  2  0  0  0
  6  7  1  0  0  0
  7  1  1  0  0  0
  1  9  1  0  0  0
  9 12  1  0  0  0
 10 13  1  0  0  0
M  END
> <minimizedAffinity>
-5.52539

$$$$
3P58_P58_A_263


 13 13  0  0  0  0  0  0  0  0999 V2000
   -5.8976    3.7782   14.1907 C   0  0  0  0  0  0  0  0  0  0  0  0
   -5.9882    1.1860   17.6927 C   0  0  0  0  0  0  0  0  0  0  0  0
   -5.0690    0.8901   16.6373 C   0  0  0  0  0  0  0  0  0  0  0  0
   -6.8131    2.3375   17.5771 C   0  0  0  0  0  0  0  0  0  0  0  0
   -5.0333    1.7051   15.4865 C   0  0  0  0  0  0  0  0  0  0  0  0
   -6.7702    3.1614   16.4265 C   0  0  0  0  0  0  0  0  0  0  0  0
   -5.8671    2.8481   15.4071 C   0  0  0  0  0  0  0  0  0  0  0  0
   -3.5887    4.8151   14.5198 C   0  0  0  0  0  0  0  0  0  0  0  0
   -4.5193    4.0090   13.7133 N   0  0  0  0  0  0  0  0  0  0  0  0
   -2.5832    3.9773   11.8293 S   0  0  0  0  0  0  0  0  0  0  0  0
   -4.8441    2.0389   11.7525 S   0  0  0  0  0  0  0  0  0  0  0  0
   -4.1614    3.5296   12.4254 C   0  0  0  0  0  0  0  0  0  0  0  0
   -2.3971    3.4424   10.5929 H   0  0  0  0  0  0  0  0  0  0  0  0
  8  9  1  0  0  0
 12 10  1  0  0  0
 12 11  2  0  0  0
  2  3  2  0  0  0
  2  4  1  0  0  0
  3  5  1  0  0  0
  4  6  2  0  0  0
  5  7  2  0  0  0
  6  7  1  0  0  0
  7  1  1  0  0  0
  1  9  1  0  0  0
  9 12  1  0  0  0
 10 13  1  0  0  0
M  END
> <minimizedAffinity>
-5.30028

$$$$
3P58_P58_A_263


 13 13  0  0  0  0  0  0  0  0999 V2000
   -5.5517    3.6425   14.0421 C   0  0  0  0  0  0  0  0  0  0  0  0
   -6.1067    1.2835   17.6641 C   0  0  0  0  0  0  0  0  0  0  0  0
   -5.1307    0.8615   16.7072 C   0  0  0  0  0  0  0  0  0  0  0  0
   -6.8344    2.4787   17.4158 C   0  0  0  0  0  0  0  0  0  0  0  0
   -4.9450    1.5997   15.5195 C   0  0  0  0  0  0  0  0  0  0  0  0
   -6.6410    3.2252   16.2284 C   0  0  0  0  0  0  0  0  0  0  0  0
   -5.6850    2.7894   15.3070 C   0  0  0  0  0  0  0  0  0  0  0  0
   -3.1401    4.3652   14.4626 C   0  0  0  0  0  0  0  0  0  0  0  0
   -4.1364    3.6816   13.6221 N   0  0  0  0  0  0  0  0  0  0  0  0
   -4.8609    1.9283   11.6986 S   0  0  0  0  0  0  0  0  0  0  0  0
   -2.8518    4.0622   11.1652 S   0  0  0  0  0  0  0  0  0  0  0  0
   -3.7933    3.1441   12.3532 C   0  0  0  0  0  0  0  0  0  0  0  0
   -4.3948    1.5201   10.4879 H   0  0  0  0  0  0  0  0  0  0  0  0
  8  9  1  0  0  0
 12 10  1  0  0  0
 12 11  2  0  0  0
  2  3  2  0  0  0
  2  4  1  0  0  0
  3  5  1  0  0  0
  4  6  2  0  0  0
  5  7  2  0  0  0
  6  7  1  0  0  0
  7  1  1  0  0  0
  1  9  1  0  0  0
  9 12  1  0  0  0
 10 13  1  0  0  0
M  END
> <minimizedAffinity>
-5.29655

$$$$
3P58_P58_A_263


 13 13  0  0  0  0  0  0  0  0999 V2000
   -4.4694    2.2430   13.9006 C   0  0  0  0  0  0  0  0  0  0  0  0
   -6.6432    2.1727   17.6770 C   0  0  0  0  0  0  0  0  0  0  0  0
   -6.9413    3.1997   16.7268 C   0  0  0  0  0  0  0  0  0  0  0  0
   -5.6742    1.1898   17.3387 C   0  0  0  0  0  0  0  0  0  0  0  0
   -6.2389    3.2527   15.5047 C   0  0  0  0  0  0  0  0  0  0  0  0
   -4.9763    1.2370   16.1078 C   0  0  0  0  0  0  0  0  0  0  0  0
   -5.2822    2.2531   15.1986 C   0  0  0  0  0  0  0  0  0  0  0  0
   -3.0189    4.1271   14.8285 C   0  0  0  0  0  0  0  0  0  0  0  0
   -3.8050    3.5503   13.7260 N   0  0  0  0  0  0  0  0  0  0  0  0
   -4.1271    3.3341   11.0523 S   0  0  0  0  0  0  0  0  0  0  0  0
   -4.8884    5.8222   12.5028 S   0  0  0  0  0  0  0  0  0  0  0  0
   -4.0346    4.2694   12.5231 C   0  0  0  0  0  0  0  0  0  0  0  0
   -4.3490    4.1658    9.9994 H   0  0  0  0  0  0  0  0  0  0  0  0
  8  9  1  0  0  0
 12 10  1  0  0  0
 12 11  2  0  0  0
  2  3  2  0  0  0
  2  4  1  0  0  0
  3  5  1  0  0  0
  4  6  2  0  0  0
  5  7  2  0  0  0
  6  7  1  0  0  0
  7  1  1  0  0  0
  1  9  1  0  0  0
  9 12  1  0  0  0
 10 13  1  0  0  0
M  END
> <minimizedAffinity>
-5.11904

$$$$
3P58_P58_A_263


 13 13  0  0  0  0  0  0  0  0999 V2000
   -4.8063    3.3930   13.7714 C   0  0  0  0  0  0  0  0  0  0  0  0
   -6.6028    2.0236   17.4982 C   0  0  0  0  0  0  0  0  0  0  0  0
   -5.5714    1.2352   16.8975 C   0  0  0  0  0  0  0  0  0  0  0  0
   -6.9784    3.2451   16.8765 C   0  0  0  0  0  0  0  0  0  0  0  0
   -4.9868    1.6496   15.6824 C   0  0  0  0  0  0  0  0  0  0  0  0
   -6.3845    3.6663   15.6622 C   0  0  0  0  0  0  0  0  0  0  0  0
   -5.3826    2.8759   15.0928 C   0  0  0  0  0  0  0  0  0  0  0  0
   -2.6143    4.0523   14.9008 C   0  0  0  0  0  0  0  0  0  0  0  0
   -3.7639    4.4012   14.0505 N   0  0  0  0  0  0  0  0  0  0  0  0
   -2.6961    6.8793   13.9163 S   0  0  0  0  0  0  0  0  0  0  0  0
   -4.9530    6.0728   12.1469 S   0  0  0  0  0  0  0  0  0  0  0  0
   -3.9582    5.7239   13.5715 C   0  0  0  0  0  0  0  0  0  0  0  0
   -3.0333    8.0886   13.3933 H   0  0  0  0  0  0  0  0  0  0  0  0
  8  9  1  0  0  0
 12 10  1  0  0  0
 12 11  2  0  0  0
  2  3  2  0  0  0
  2  4  1  0  0  0
  3  5  1  0  0  0
  4  6  2  0  0  0
  5  7  2  0  0  0
  6  7  1  0  0  0
  7  1  1  0  0  0
  1  9  1  0  0  0
  9 12  1  0  0  0
 10 13  1  0  0  0
M  END
> <minimizedAffinity>
-4.74193

$$$$
3P58_P58_A_263


 13 13  0  0  0  0  0  0  0  0999 V2000
   -3.7706    5.2731   14.1180 C   0  0  0  0  0  0  0  0  0  0  0  0
   -5.9713    2.2344   16.3351 C   0  0  0  0  0  0  0  0  0  0  0  0
   -6.6638    3.4062   15.8951 C   0  0  0  0  0  0  0  0  0  0  0  0
   -4.5980    2.0867   16.0005 C   0  0  0  0  0  0  0  0  0  0  0  0
   -5.9686    4.4112   15.1904 C   0  0  0  0  0  0  0  0  0  0  0  0
   -3.9025    3.0907   15.2844 C   0  0  0  0  0  0  0  0  0  0  0  0
   -4.6004    4.2283   14.8700 C   0  0  0  0  0  0  0  0  0  0  0  0
   -5.1069    6.1459   12.1263 C   0  0  0  0  0  0  0  0  0  0  0  0
   -4.1028    5.2231   12.6800 N   0  0  0  0  0  0  0  0  0  0  0  0
   -1.7910    3.9771   12.0459 S   0  0  0  0  0  0  0  0  0  0  0  0
   -4.4298    2.7863   11.3434 S   0  0  0  0  0  0  0  0  0  0  0  0
   -3.5143    4.2035   11.8858 C   0  0  0  0  0  0  0  0  0  0  0  0
   -1.3878    2.9709   11.2246 H   0  0  0  0  0  0  0  0  0  0  0  0
  8  9  1  0  0  0
 12 10  1  0  0  0
 12 11  2  0  0  0
  2  3  2  0  0  0
  2  4  1  0  0  0
  3  5  1  0  0  0
  4  6  2  0  0  0
  5  7  2  0  0  0
  6  7  1  0  0  0
  7  1  1  0  0  0
  1  9  1  0  0  0
  9 12  1  0  0  0
 10 13  1  0  0  0
M  END
> <minimizedAffinity>
-4.70270

$$$$
3P58_P58_A_263


 13 13  0  0  0  0  0  0  0  0999 V2000
   -5.4719    3.1423   13.9305 C   0  0  0  0  0  0  0  0  0  0  0  0
   -2.6626    6.4209   13.3383 C   0  0  0  0  0  0  0  0  0  0  0  0
   -2.2884    5.3356   14.1919 C   0  0  0  0  0  0  0  0  0  0  0  0
   -3.9235    6.3720   12.6845 C   0  0  0  0  0  0  0  0  0  0  0  0
   -3.1878    4.2714   14.4120 C   0  0  0  0  0  0  0  0  0  0  0  0
   -4.8222    5.2990   12.8974 C   0  0  0  0  0  0  0  0  0  0  0  0
   -4.4351    4.2533   13.7397 C   0  0  0  0  0  0  0  0  0  0  0  0
   -6.5740    4.3247   15.9059 C   0  0  0  0  0  0  0  0  0  0  0  0
   -5.9285    3.1315   15.3349 N   0  0  0  0  0  0  0  0  0  0  0  0
   -6.9031    1.4150   17.1795 S   0  0  0  0  0  0  0  0  0  0  0  0
   -4.4273    0.7902   15.6450 S   0  0  0  0  0  0  0  0  0  0  0  0
   -5.6324    1.9947   16.1327 C   0  0  0  0  0  0  0  0  0  0  0  0
   -6.4619    0.3295   17.8699 H   0  0  0  0  0  0  0  0  0  0  0  0
  8  9  1  0  0  0
 12 10  1  0  0  0
 12 11  2  0  0  0
  2  3  2  0  0  0
  2  4  1  0  0  0
  3  5  1  0  0  0
  4  6  2  0  0  0
  5  7  2  0  0  0
  6  7  1  0  0  0
  7  1  1  0  0  0
  1  9  1  0  0  0
  9 12  1  0  0  0
 10 13  1  0  0  0
M  END
> <minimizedAffinity>
-4.55232

$$$$
3P58_P58_A_263


 13 13  0  0  0  0  0  0  0  0999 V2000
   -3.7703    3.6604   14.7930 C   0  0  0  0  0  0  0  0  0  0  0  0
   -1.4570    7.0623   13.3548 C   0  0  0  0  0  0  0  0  0  0  0  0
   -1.0195    5.7405   13.0266 C   0  0  0  0  0  0  0  0  0  0  0  0
   -2.6523    7.2188   14.1074 C   0  0  0  0  0  0  0  0  0  0  0  0
   -1.7425    4.6235   13.4950 C   0  0  0  0  0  0  0  0  0  0  0  0
   -3.3838    6.0979   14.5691 C   0  0  0  0  0  0  0  0  0  0  0  0
   -2.9328    4.8171   14.2392 C   0  0  0  0  0  0  0  0  0  0  0  0
   -6.2236    4.0191   14.1870 C   0  0  0  0  0  0  0  0  0  0  0  0
   -4.9161    3.4092   13.8959 N   0  0  0  0  0  0  0  0  0  0  0  0
   -4.3485    3.1647   11.2659 S   0  0  0  0  0  0  0  0  0  0  0  0
   -4.2353    0.8157   13.0946 S   0  0  0  0  0  0  0  0  0  0  0  0
   -4.7474    2.4909   12.8258 C   0  0  0  0  0  0  0  0  0  0  0  0
   -4.2223    2.1606   10.3572 H   0  0  0  0  0  0  0  0  0  0  0  0
  8  9  1  0  0  0
 12 10  1  0  0  0
 12 11  2  0  0  0
  2  3  2  0  0  0
  2  4  1  0  0  0
  3  5  1  0  0  0
  4  6  2  0  0  0
  5  7  2  0  0  0
  6  7  1  0  0  0
  7  1  1  0  0  0
  1  9  1  0  0  0
  9 12  1  0  0  0
 10 13  1  0  0  0
M  END
> <minimizedAffinity>
-4.06908

$$$$
3P58_P58_A_263


 13 13  0  0  0  0  0  0  0  0999 V2000
   -4.6334    4.4993   13.7313 C   0  0  0  0  0  0  0  0  0  0  0  0
   -4.3725    0.4198   15.2418 C   0  0  0  0  0  0  0  0  0  0  0  0
   -4.3278    0.6378   13.8287 C   0  0  0  0  0  0  0  0  0  0  0  0
   -4.4631    1.5458   16.1040 C   0  0  0  0  0  0  0  0  0  0  0  0
   -4.4273    1.9481   13.3156 C   0  0  0  0  0  0  0  0  0  0  0  0
   -4.5529    2.8618   15.5895 C   0  0  0  0  0  0  0  0  0  0  0  0
   -4.5119    3.0479   14.2052 C   0  0  0  0  0  0  0  0  0  0  0  0
   -2.1299    4.9663   13.5611 C   0  0  0  0  0  0  0  0  0  0  0  0
   -3.4504    4.8529   12.9211 N   0  0  0  0  0  0  0  0  0  0  0  0
   -4.5615    6.6241   11.2102 S   0  0  0  0  0  0  0  0  0  0  0  0
   -2.4979    4.6801   10.2954 S   0  0  0  0  0  0  0  0  0  0  0  0
   -3.6424    5.1804   11.5527 C   0  0  0  0  0  0  0  0  0  0  0  0
   -4.6532    6.7944    9.8640 H   0  0  0  0  0  0  0  0  0  0  0  0
  8  9  1  0  0  0
 12 10  1  0  0  0
 12 11  2  0  0  0
  2  3  2  0  0  0
  2  4  1  0  0  0
  3  5  1  0  0  0
  4  6  2  0  0  0
  5  7  2  0  0  0
  6  7  1  0  0  0
  7  1  1  0  0  0
  1  9  1  0  0  0
  9 12  1  0  0  0
 10 13  1  0  0  0
M  END
> <minimizedAffinity>
-4.04612

$$$$
