5OSL_A9K_A_406
  RCSB PDB02231823433D
Coordinates from PDB:5OSL:A:406 Model:1 without hydrogens
 16 17  0  0  0  0            999 V2000
 -112.8420 -175.4510  307.5610   C 0  0  0  0  0  0  0  0  0  0  0  0
 -112.4170 -176.7240  307.9050   C 0  0  0  0  0  0  0  0  0  0  0  0
 -111.0740 -177.0130  308.0650   C 0  0  0  0  0  0  0  0  0  0  0  0
 -110.1050 -176.0270  307.8780   C 0  0  0  0  0  0  0  0  0  0  0  0
 -110.5410 -174.7590  307.5070   C 0  0  0  0  0  0  0  0  0  0  0  0
 -111.8820 -174.4690  307.3570   C 0  0  0  0  0  0  0  0  0  0  0  0
 -109.3910 -173.5040  307.1800  Cl 0  0  0  0  0  0  0  0  0  0  0  0
 -114.2910 -175.0720  307.4150   C 0  0  0  0  0  0  0  0  0  0  0  0
 -115.1010 -175.9450  306.6040   N 0  0  0  0  0  0  0  0  0  0  0  0
 -108.6700 -176.3610  308.1230   C 0  0  0  0  0  0  0  0  0  0  0  0
 -107.7580 -176.6600  307.1020   C 0  0  0  0  0  0  0  0  0  0  0  0
 -108.1660 -176.6260  305.8090   O 0  0  0  0  0  0  0  0  0  0  0  0
 -106.4370 -176.9730  307.4040   C 0  0  0  0  0  0  0  0  0  0  0  0
 -106.0120 -176.9850  308.7190   C 0  0  0  0  0  0  0  0  0  0  0  0
 -106.8930 -176.6870  309.7320   C 0  0  0  0  0  0  0  0  0  0  0  0
 -108.2110 -176.3800  309.4410   C 0  0  0  0  0  0  0  0  0  0  0  0
 12 11  1  0  0  0  0
  9  8  1  0  0  0  0
 11 13  2  0  0  0  0
 11 10  1  0  0  0  0
  7  5  1  0  0  0  0
  6  5  2  0  0  0  0
  6  1  1  0  0  0  0
 13 14  1  0  0  0  0
  8  1  1  0  0  0  0
  5  4  1  0  0  0  0
  1  2  2  0  0  0  0
  4  3  2  0  0  0  0
  4 10  1  0  0  0  0
  2  3  1  0  0  0  0
 10 16  2  0  0  0  0
 14 15  2  0  0  0  0
 16 15  1  0  0  0  0
A    1
C1
A    2
C2
A    3
C3
A    4
C4
A    5
C5
A    6
C6
A    7
CL
A    8
C
A    9
N
A   10
C7
A   11
C12
A   12
O
A   13
C11
A   14
C10
A   15
C9
A   16
C8
M  END
>  <InstanceId>
5OSL_A9K_A_406

>  <ChemCompId>
A9K

>  <PdbId>
5OSL

>  <ChainId>
A

>  <ResidueNumber>
406

>  <InsertionCode>


>  <Model>
1

>  <AltIds>


>  <MissingHeavyAtoms>
0

>  <ObservedFormula>
C13 N O Cl

>  <Name>
2-[4-(aminomethyl)-2-chloranyl-phenyl]phenol

>  <SystematicName>
2-[4-(aminomethyl)-2-chloranyl-phenyl]phenol

>  <Synonyms>


>  <Type>
NON-POLYMER

>  <Formula>
C13 H12 Cl N O

>  <MolecularWeight>
233.693

>  <ModifiedDate>
2018-02-23

>  <Parent>


>  <OneLetterCode>


>  <SubcomponentList>


>  <AmbiguousFlag>
N

>  <InChI>
InChI=1S/C13H12ClNO/c14-12-7-9(8-15)5-6-10(12)11-3-1-2-4-13(11)16/h1-7,16H,8,15H2

>  <InChIKey>
IUGTZBMBEJSWNV-UHFFFAOYSA-N

>  <SMILES>
c1ccc(c(c1)c2ccc(cc2Cl)CN)O

$$$$
