2XDA_JPS_A_1151


 24 26  0  0  0  0  0  0  0  0999 V2000
    2.3608   15.4811   24.6402 C   0  0  0  0  0  0  0  0  0  0  0  0
    2.1823   14.2082   25.0391 C   0  0  0  0  0  0  0  0  0  0  0  0
    2.3650   15.5289   22.9947 S   0  0  0  0  0  0  0  0  0  0  0  0
    2.1259   13.8891   22.7954 C   0  0  0  0  0  0  0  0  0  0  0  0
    2.0467   13.2884   24.0540 C   0  0  0  0  0  0  0  0  0  0  0  0
    1.8079   11.7583   24.1821 C   0  0  0  0  0  0  0  0  0  0  0  0
    3.0560   11.0532   24.4105 O   0  0  0  0  0  0  0  0  0  0  0  0
    1.1940   11.1738   22.8951 C   0  0  0  0  0  0  0  0  0  0  0  0
    2.0271   11.6468   21.6774 C   0  0  0  0  0  0  0  0  0  0  0  0
    1.4766   11.0753   20.4765 O   0  0  0  0  0  0  0  0  0  0  0  0
    1.9505   13.1564   21.5055 C   0  0  0  0  0  0  0  0  0  0  0  0
    2.8684   13.6926   20.5218 O   0  0  0  0  0  0  0  0  0  0  0  0
    3.4767   11.3929   25.2158 H   0  0  0  0  0  0  0  0  0  0  0  0
    0.5612   11.3762   20.3655 H   0  0  0  0  0  0  0  0  0  0  0  0
    3.7804   13.5611   20.8250 H   0  0  0  0  0  0  0  0  0  0  0  0
    0.9526   11.4929   25.4213 C   0  0  0  0  0  0  0  0  0  0  0  0
    1.5969   11.3988   26.4666 O   0  0  0  0  0  0  0  0  0  0  0  0
   -0.2885   11.3785   25.3296 O   0  0  0  0  0  0  0  0  0  0  0  0
   -0.7065   11.4636   24.4954 H   0  0  0  0  0  0  0  0  0  0  0  0
    2.5485   16.7375   25.4901 C   0  0  0  0  0  0  0  0  0  0  0  0
    1.2087   17.0438   26.1842 C   0  0  0  0  0  0  0  0  0  0  0  0
    1.1793   18.3908   26.9249 C   0  0  0  0  0  0  0  0  0  0  0  0
   -0.1155   19.1968   26.7777 C   0  0  0  0  0  0  0  0  0  0  0  0
    1.1292   19.6364   26.0425 C   0  0  0  0  0  0  0  0  0  0  0  0
 22 21  1  0  0  0
 22 23  1  0  0  0
 22 24  1  0  0  0
 21 20  1  0  0  0
 20  1  1  0  0  0
  1  2  2  0  0  0
  1  3  1  0  0  0
  2  5  1  0  0  0
  3  4  1  0  0  0
  4  5  2  0  0  0
  4 11  1  0  0  0
  5  6  1  0  0  0
  6 16  1  0  0  0
  6  7  1  0  0  0
  6  8  1  0  0  0
 16 17  2  0  0  0
 16 18  1  0  0  0
  8  9  1  0  0  0
  9 10  1  0  0  0
  9 11  1  0  0  0
 11 12  1  0  0  0
 23 24  1  0  0  0
 18 19  1  0  0  0
  7 13  1  0  0  0
 10 14  1  0  0  0
 12 15  1  0  0  0
M  END
> <minimizedAffinity>
-11.63765

$$$$
2XDA_JPS_A_1151


 24 26  0  0  0  0  0  0  0  0999 V2000
    1.9546   15.0379   25.9846 C   0  0  0  0  0  0  0  0  0  0  0  0
    2.2313   15.4419   24.7310 C   0  0  0  0  0  0  0  0  0  0  0  0
    1.5879   13.4332   25.9591 S   0  0  0  0  0  0  0  0  0  0  0  0
    1.7965   13.2568   24.3126 C   0  0  0  0  0  0  0  0  0  0  0  0
    2.1577   14.4917   23.7686 C   0  0  0  0  0  0  0  0  0  0  0  0
    2.4367   14.6296   22.2461 C   0  0  0  0  0  0  0  0  0  0  0  0
    1.2777   15.1574   21.5494 O   0  0  0  0  0  0  0  0  0  0  0  0
    2.7591   13.2652   21.6061 C   0  0  0  0  0  0  0  0  0  0  0  0
    1.6731   12.2418   22.0229 C   0  0  0  0  0  0  0  0  0  0  0  0
    1.9525   10.9749   21.3997 O   0  0  0  0  0  0  0  0  0  0  0  0
    1.6923   11.9927   23.5235 C   0  0  0  0  0  0  0  0  0  0  0  0
    0.5743   11.2133   24.0137 O   0  0  0  0  0  0  0  0  0  0  0  0
    1.0405   16.0202   21.9238 H   0  0  0  0  0  0  0  0  0  0  0  0
    2.8175   10.6521   21.6971 H   0  0  0  0  0  0  0  0  0  0  0  0
   -0.2470   11.7153   23.8940 H   0  0  0  0  0  0  0  0  0  0  0  0
    3.5467   15.6601   22.0377 C   0  0  0  0  0  0  0  0  0  0  0  0
    3.1389   16.7996   21.8094 O   0  0  0  0  0  0  0  0  0  0  0  0
    4.7494   15.3252   22.0933 O   0  0  0  0  0  0  0  0  0  0  0  0
    4.9800   14.4349   22.2726 H   0  0  0  0  0  0  0  0  0  0  0  0
    1.9438   15.8535   27.2771 C   0  0  0  0  0  0  0  0  0  0  0  0
    2.0378   17.3428   26.8978 C   0  0  0  0  0  0  0  0  0  0  0  0
    0.6789   18.0068   26.6215 C   0  0  0  0  0  0  0  0  0  0  0  0
    0.5619   18.7374   25.2798 C   0  0  0  0  0  0  0  0  0  0  0  0
    0.6825   19.5328   26.5588 C   0  0  0  0  0  0  0  0  0  0  0  0
 22 21  1  0  0  0
 22 23  1  0  0  0
 22 24  1  0  0  0
 21 20  1  0  0  0
 20  1  1  0  0  0
  1  2  2  0  0  0
  1  3  1  0  0  0
  2  5  1  0  0  0
  3  4  1  0  0  0
  4  5  2  0  0  0
  4 11  1  0  0  0
  5  6  1  0  0  0
  6 16  1  0  0  0
  6  7  1  0  0  0
  6  8  1  0  0  0
 16 17  2  0  0  0
 16 18  1  0  0  0
  8  9  1  0  0  0
  9 10  1  0  0  0
  9 11  1  0  0  0
 11 12  1  0  0  0
 23 24  1  0  0  0
 18 19  1  0  0  0
  7 13  1  0  0  0
 10 14  1  0  0  0
 12 15  1  0  0  0
M  END
> <minimizedAffinity>
-9.97576

$$$$
2XDA_JPS_A_1151


 24 26  0  0  0  0  0  0  0  0999 V2000
    2.3365   15.3384   24.7545 C   0  0  0  0  0  0  0  0  0  0  0  0
    2.2551   14.8827   23.4908 C   0  0  0  0  0  0  0  0  0  0  0  0
    1.8070   14.1644   25.7799 S   0  0  0  0  0  0  0  0  0  0  0  0
    1.4764   13.0531   24.5793 C   0  0  0  0  0  0  0  0  0  0  0  0
    1.7846   13.6214   23.3411 C   0  0  0  0  0  0  0  0  0  0  0  0
    1.5933   12.8067   22.0317 C   0  0  0  0  0  0  0  0  0  0  0  0
    0.3407   13.1493   21.3829 O   0  0  0  0  0  0  0  0  0  0  0  0
    1.5513   11.2917   22.3114 C   0  0  0  0  0  0  0  0  0  0  0  0
    0.5421   11.0162   23.4542 C   0  0  0  0  0  0  0  0  0  0  0  0
    0.4753    9.5988   23.6952 O   0  0  0  0  0  0  0  0  0  0  0  0
    0.9963   11.6502   24.7603 C   0  0  0  0  0  0  0  0  0  0  0  0
    0.0062   11.6157   25.8168 O   0  0  0  0  0  0  0  0  0  0  0  0
    0.3265   14.0995   21.1887 H   0  0  0  0  0  0  0  0  0  0  0  0
    1.3491    9.2750   23.9644 H   0  0  0  0  0  0  0  0  0  0  0  0
   -0.7520   12.1670   25.5676 H   0  0  0  0  0  0  0  0  0  0  0  0
    2.6903   13.1972   21.0410 C   0  0  0  0  0  0  0  0  0  0  0  0
    2.8840   12.3672   20.1520 O   0  0  0  0  0  0  0  0  0  0  0  0
    3.3159   14.2714   21.1697 O   0  0  0  0  0  0  0  0  0  0  0  0
    3.1091   14.8524   21.8751 H   0  0  0  0  0  0  0  0  0  0  0  0
    2.8145   16.7006   25.2563 C   0  0  0  0  0  0  0  0  0  0  0  0
    1.8111   17.1936   26.3150 C   0  0  0  0  0  0  0  0  0  0  0  0
    0.7958   18.2204   25.7869 C   0  0  0  0  0  0  0  0  0  0  0  0
    1.1259   19.6872   26.0825 C   0  0  0  0  0  0  0  0  0  0  0  0
    0.0203   18.9983   26.8481 C   0  0  0  0  0  0  0  0  0  0  0  0
 22 21  1  0  0  0
 22 23  1  0  0  0
 22 24  1  0  0  0
 21 20  1  0  0  0
 20  1  1  0  0  0
  1  2  2  0  0  0
  1  3  1  0  0  0
  2  5  1  0  0  0
  3  4  1  0  0  0
  4  5  2  0  0  0
  4 11  1  0  0  0
  5  6  1  0  0  0
  6 16  1  0  0  0
  6  7  1  0  0  0
  6  8  1  0  0  0
 16 17  2  0  0  0
 16 18  1  0  0  0
  8  9  1  0  0  0
  9 10  1  0  0  0
  9 11  1  0  0  0
 11 12  1  0  0  0
 23 24  1  0  0  0
 18 19  1  0  0  0
  7 13  1  0  0  0
 10 14  1  0  0  0
 12 15  1  0  0  0
M  END
> <minimizedAffinity>
-9.50908

$$$$
