2J7F_GI3_A_1446


 23 24  0  0  0  0  0  0  0  0999 V2000
   33.8071   24.1474   38.8321 C   0  0  0  0  0  0  0  0  0  0  0  0
   34.7177   23.1900   38.1549 C   0  0  0  0  0  0  0  0  0  0  0  0
   35.8058   22.8944   39.0543 O   0  0  0  0  0  0  0  0  0  0  0  0
   35.2091   23.8176   36.8437 C   0  0  0  0  0  0  0  0  0  0  0  0
   32.6779   25.9613   39.3092 C   0  0  0  0  0  0  0  0  0  0  0  0
   35.5674   22.7363   35.9878 O   0  0  0  0  0  0  0  0  0  0  0  0
   34.1450   24.8306   36.2949 C   0  0  0  0  0  0  0  0  0  0  0  0
   33.5414   25.4049   38.4467 N   0  0  0  0  0  0  0  0  0  0  0  0
   34.2690   25.2924   34.9334 O   0  0  0  0  0  0  0  0  0  0  0  0
   34.0971   26.0232   37.2357 C   0  0  0  0  0  0  0  0  0  0  0  0
   33.1115   23.9001   39.9599 N   0  0  0  0  0  0  0  0  0  0  0  0
   32.4164   25.0102   40.2749 C   0  0  0  0  0  0  0  0  0  0  0  0
   36.2676   23.7159   39.2842 H   0  0  0  0  0  0  0  0  0  0  0  0
   34.7998   22.1571   35.8600 H   0  0  0  0  0  0  0  0  0  0  0  0
   35.0728   25.8282   34.8456 H   0  0  0  0  0  0  0  0  0  0  0  0
   33.1116   23.0553   40.4655 H   0  0  0  0  0  0  0  0  0  0  0  0
   31.5496   25.1711   41.4525 C   0  0  0  0  0  0  0  0  0  0  0  0
   31.0383   26.2473   41.6934 O   0  0  0  0  0  0  0  0  0  0  0  0
   31.3890   24.1335   42.2469 O   0  0  0  0  0  0  0  0  0  0  0  0
   31.1693   26.9692   41.1106 H   0  0  0  0  0  0  0  0  0  0  0  0
   33.1892   27.1494   36.7791 C   0  0  0  0  0  0  0  0  0  0  0  0
   31.8269   26.7268   36.6840 O   0  0  0  0  0  0  0  0  0  0  0  0
   31.7547   26.0128   36.0314 H   0  0  0  0  0  0  0  0  0  0  0  0
  1  2  1  0  0  0
  1  8  2  0  0  0
  1 11  1  0  0  0
  2  3  1  0  0  0
  2  4  1  0  0  0
  4  6  1  0  0  0
  4  7  1  0  0  0
  5  8  1  0  0  0
  5 12  2  0  0  0
  7  9  1  0  0  0
  7 10  1  0  0  0
  8 10  1  0  0  0
 10 21  1  0  0  0
 21 22  1  0  0  0
 11 12  1  0  0  0
 12 17  1  0  0  0
 17 18  1  0  0  0
 17 19  2  0  0  0
  3 13  1  0  0  0
  6 14  1  0  0  0
  9 15  1  0  0  0
 22 23  1  0  0  0
 11 16  1  0  0  0
 18 20  1  0  0  0
M  CHG 1   8   1
M  END
> <minimizedAffinity>
-9.01453

$$$$
2J7F_GI3_A_1446


 23 24  0  0  0  0  0  0  0  0999 V2000
   30.5709   26.0845   43.6469 C   0  0  0  0  0  0  0  0  0  0  0  0
   30.4026   27.3535   44.3991 C   0  0  0  0  0  0  0  0  0  0  0  0
   31.7128   27.8388   44.7572 O   0  0  0  0  0  0  0  0  0  0  0  0
   29.5311   27.0853   45.6333 C   0  0  0  0  0  0  0  0  0  0  0  0
   30.4866   23.9680   43.0934 C   0  0  0  0  0  0  0  0  0  0  0  0
   28.9293   28.3292   45.9807 O   0  0  0  0  0  0  0  0  0  0  0  0
   28.5617   25.8827   45.3618 C   0  0  0  0  0  0  0  0  0  0  0  0
   30.1481   24.8692   44.0274 N   0  0  0  0  0  0  0  0  0  0  0  0
   27.4584   25.6672   46.2665 O   0  0  0  0  0  0  0  0  0  0  0  0
   29.3951   24.6156   45.2629 C   0  0  0  0  0  0  0  0  0  0  0  0
   31.1951   25.9570   42.4591 N   0  0  0  0  0  0  0  0  0  0  0  0
   31.1615   24.6573   42.1060 C   0  0  0  0  0  0  0  0  0  0  0  0
   32.1699   27.1711   45.2922 H   0  0  0  0  0  0  0  0  0  0  0  0
   28.4173   28.6623   45.2272 H   0  0  0  0  0  0  0  0  0  0  0  0
   27.7999   25.4150   47.1387 H   0  0  0  0  0  0  0  0  0  0  0  0
   31.6044   26.6865   41.9400 H   0  0  0  0  0  0  0  0  0  0  0  0
   31.7580   24.0862   40.8886 C   0  0  0  0  0  0  0  0  0  0  0  0
   31.3328   23.0439   40.4299 O   0  0  0  0  0  0  0  0  0  0  0  0
   32.7829   24.7138   40.3508 O   0  0  0  0  0  0  0  0  0  0  0  0
   30.6017   22.6184   40.8330 H   0  0  0  0  0  0  0  0  0  0  0  0
   28.5872   23.3407   45.1115 C   0  0  0  0  0  0  0  0  0  0  0  0
   28.3796   22.6920   46.3683 O   0  0  0  0  0  0  0  0  0  0  0  0
   29.2366   22.4489   46.7521 H   0  0  0  0  0  0  0  0  0  0  0  0
  1  2  1  0  0  0
  1  8  2  0  0  0
  1 11  1  0  0  0
  2  3  1  0  0  0
  2  4  1  0  0  0
  4  6  1  0  0  0
  4  7  1  0  0  0
  5  8  1  0  0  0
  5 12  2  0  0  0
  7  9  1  0  0  0
  7 10  1  0  0  0
  8 10  1  0  0  0
 10 21  1  0  0  0
 21 22  1  0  0  0
 11 12  1  0  0  0
 12 17  1  0  0  0
 17 18  1  0  0  0
 17 19  2  0  0  0
  3 13  1  0  0  0
  6 14  1  0  0  0
  9 15  1  0  0  0
 22 23  1  0  0  0
 11 16  1  0  0  0
 18 20  1  0  0  0
M  CHG 1   8   1
M  END
> <minimizedAffinity>
-8.49001

$$$$
2J7F_GI3_A_1446


 23 24  0  0  0  0  0  0  0  0999 V2000
   31.1585   23.5872   38.1584 C   0  0  0  0  0  0  0  0  0  0  0  0
   30.0204   22.6362   38.2268 C   0  0  0  0  0  0  0  0  0  0  0  0
   29.1256   22.9293   37.1342 O   0  0  0  0  0  0  0  0  0  0  0  0
   29.3322   22.7854   39.5902 C   0  0  0  0  0  0  0  0  0  0  0  0
   32.5627   25.1900   38.6609 C   0  0  0  0  0  0  0  0  0  0  0  0
   28.6772   21.5469   39.8496 O   0  0  0  0  0  0  0  0  0  0  0  0
   30.3609   23.2797   40.6659 C   0  0  0  0  0  0  0  0  0  0  0  0
   31.4759   24.5188   39.0704 N   0  0  0  0  0  0  0  0  0  0  0  0
   29.9993   23.1893   42.0599 O   0  0  0  0  0  0  0  0  0  0  0  0
   30.7459   24.7111   40.3305 C   0  0  0  0  0  0  0  0  0  0  0  0
   32.0483   23.6699   37.1493 N   0  0  0  0  0  0  0  0  0  0  0  0
   32.9166   24.6589   37.4369 C   0  0  0  0  0  0  0  0  0  0  0  0
   28.8208   23.8476   37.2033 H   0  0  0  0  0  0  0  0  0  0  0  0
   29.3281   20.8279   39.8366 H   0  0  0  0  0  0  0  0  0  0  0  0
   29.2618   23.7923   42.2424 H   0  0  0  0  0  0  0  0  0  0  0  0
   32.0613   23.1058   36.3425 H   0  0  0  0  0  0  0  0  0  0  0  0
   34.0296   25.0958   36.5799 C   0  0  0  0  0  0  0  0  0  0  0  0
   34.1376   24.6629   35.4492 O   0  0  0  0  0  0  0  0  0  0  0  0
   34.9145   25.9250   37.0927 O   0  0  0  0  0  0  0  0  0  0  0  0
   33.4929   24.0740   35.1095 H   0  0  0  0  0  0  0  0  0  0  0  0
   31.6559   25.3732   41.3476 C   0  0  0  0  0  0  0  0  0  0  0  0
   32.4689   24.4179   42.0330 O   0  0  0  0  0  0  0  0  0  0  0  0
   31.9009   23.7954   42.5134 H   0  0  0  0  0  0  0  0  0  0  0  0
  1  2  1  0  0  0
  1  8  2  0  0  0
  1 11  1  0  0  0
  2  3  1  0  0  0
  2  4  1  0  0  0
  4  6  1  0  0  0
  4  7  1  0  0  0
  5  8  1  0  0  0
  5 12  2  0  0  0
  7  9  1  0  0  0
  7 10  1  0  0  0
  8 10  1  0  0  0
 10 21  1  0  0  0
 21 22  1  0  0  0
 11 12  1  0  0  0
 12 17  1  0  0  0
 17 18  1  0  0  0
 17 19  2  0  0  0
  3 13  1  0  0  0
  6 14  1  0  0  0
  9 15  1  0  0  0
 22 23  1  0  0  0
 11 16  1  0  0  0
 18 20  1  0  0  0
M  CHG 1   8   1
M  END
> <minimizedAffinity>
-8.20294

$$$$
2J7F_GI3_A_1446


 23 24  0  0  0  0  0  0  0  0999 V2000
   30.6604   23.8825   42.3322 C   0  0  0  0  0  0  0  0  0  0  0  0
   29.7157   23.0684   43.1380 C   0  0  0  0  0  0  0  0  0  0  0  0
   28.5497   22.8058   42.3307 O   0  0  0  0  0  0  0  0  0  0  0  0
   29.3673   23.8381   44.4189 C   0  0  0  0  0  0  0  0  0  0  0  0
   31.9100   25.5424   41.6419 C   0  0  0  0  0  0  0  0  0  0  0  0
   28.9726   22.8639   45.3808 O   0  0  0  0  0  0  0  0  0  0  0  0
   30.5492   24.7881   44.8193 C   0  0  0  0  0  0  0  0  0  0  0  0
   31.0592   25.1362   42.5961 N   0  0  0  0  0  0  0  0  0  0  0  0
   30.5549   25.3632   46.1428 O   0  0  0  0  0  0  0  0  0  0  0  0
   30.6396   25.8949   43.7818 C   0  0  0  0  0  0  0  0  0  0  0  0
   31.2567   23.4857   41.1904 N   0  0  0  0  0  0  0  0  0  0  0  0
   32.0241   24.4994   40.7448 C   0  0  0  0  0  0  0  0  0  0  0  0
   28.1474   23.6461   42.0606 H   0  0  0  0  0  0  0  0  0  0  0  0
   29.6935   22.2281   45.5115 H   0  0  0  0  0  0  0  0  0  0  0  0
   29.8084   25.9760   46.2323 H   0  0  0  0  0  0  0  0  0  0  0  0
   31.1501   22.6080   40.7574 H   0  0  0  0  0  0  0  0  0  0  0  0
   32.8231   24.4882   39.5097 C   0  0  0  0  0  0  0  0  0  0  0  0
   32.3280   24.1149   38.4641 O   0  0  0  0  0  0  0  0  0  0  0  0
   34.0868   24.8488   39.5890 O   0  0  0  0  0  0  0  0  0  0  0  0
   31.4256   23.8640   38.4363 H   0  0  0  0  0  0  0  0  0  0  0  0
   31.6701   26.9645   44.0901 C   0  0  0  0  0  0  0  0  0  0  0  0
   32.7863   26.4341   44.8086 O   0  0  0  0  0  0  0  0  0  0  0  0
   32.4828   26.0706   45.6551 H   0  0  0  0  0  0  0  0  0  0  0  0
  1  2  1  0  0  0
  1  8  2  0  0  0
  1 11  1  0  0  0
  2  3  1  0  0  0
  2  4  1  0  0  0
  4  6  1  0  0  0
  4  7  1  0  0  0
  5  8  1  0  0  0
  5 12  2  0  0  0
  7  9  1  0  0  0
  7 10  1  0  0  0
  8 10  1  0  0  0
 10 21  1  0  0  0
 21 22  1  0  0  0
 11 12  1  0  0  0
 12 17  1  0  0  0
 17 18  1  0  0  0
 17 19  2  0  0  0
  3 13  1  0  0  0
  6 14  1  0  0  0
  9 15  1  0  0  0
 22 23  1  0  0  0
 11 16  1  0  0  0
 18 20  1  0  0  0
M  CHG 1   8   1
M  END
> <minimizedAffinity>
-8.12926

$$$$
2J7F_GI3_A_1446


 23 24  0  0  0  0  0  0  0  0999 V2000
   32.3204   24.8106   39.3585 C   0  0  0  0  0  0  0  0  0  0  0  0
   31.9008   25.3564   40.6739 C   0  0  0  0  0  0  0  0  0  0  0  0
   32.9082   25.0078   41.6454 O   0  0  0  0  0  0  0  0  0  0  0  0
   30.5273   24.7754   41.0353 C   0  0  0  0  0  0  0  0  0  0  0  0
   32.3646   23.6314   37.5144 C   0  0  0  0  0  0  0  0  0  0  0  0
   29.9212   25.7005   41.9337 O   0  0  0  0  0  0  0  0  0  0  0  0
   29.7260   24.4268   39.7329 C   0  0  0  0  0  0  0  0  0  0  0  0
   31.6831   23.8699   38.6448 N   0  0  0  0  0  0  0  0  0  0  0  0
   28.3117   24.1619   39.8423 O   0  0  0  0  0  0  0  0  0  0  0  0
   30.4136   23.2541   39.0534 C   0  0  0  0  0  0  0  0  0  0  0  0
   33.4278   25.1714   38.6799 N   0  0  0  0  0  0  0  0  0  0  0  0
   33.4771   24.4482   37.5444 C   0  0  0  0  0  0  0  0  0  0  0  0
   33.0042   24.0431   41.6797 H   0  0  0  0  0  0  0  0  0  0  0  0
   29.8587   26.5702   41.5088 H   0  0  0  0  0  0  0  0  0  0  0  0
   28.1738   23.3461   40.3485 H   0  0  0  0  0  0  0  0  0  0  0  0
   34.0859   25.8460   38.9646 H   0  0  0  0  0  0  0  0  0  0  0  0
   34.5434   24.5155   36.5332 C   0  0  0  0  0  0  0  0  0  0  0  0
   34.2643   24.5396   35.3504 O   0  0  0  0  0  0  0  0  0  0  0  0
   35.7918   24.5026   36.9512 O   0  0  0  0  0  0  0  0  0  0  0  0
   33.3669   24.5483   35.0808 H   0  0  0  0  0  0  0  0  0  0  0  0
   29.6908   22.7231   37.8301 C   0  0  0  0  0  0  0  0  0  0  0  0
   29.0599   23.7710   37.0904 O   0  0  0  0  0  0  0  0  0  0  0  0
   28.4000   24.2097   37.6499 H   0  0  0  0  0  0  0  0  0  0  0  0
  1  2  1  0  0  0
  1  8  2  0  0  0
  1 11  1  0  0  0
  2  3  1  0  0  0
  2  4  1  0  0  0
  4  6  1  0  0  0
  4  7  1  0  0  0
  5  8  1  0  0  0
  5 12  2  0  0  0
  7  9  1  0  0  0
  7 10  1  0  0  0
  8 10  1  0  0  0
 10 21  1  0  0  0
 21 22  1  0  0  0
 11 12  1  0  0  0
 12 17  1  0  0  0
 17 18  1  0  0  0
 17 19  2  0  0  0
  3 13  1  0  0  0
  6 14  1  0  0  0
  9 15  1  0  0  0
 22 23  1  0  0  0
 11 16  1  0  0  0
 18 20  1  0  0  0
M  CHG 1   8   1
M  END
> <minimizedAffinity>
-8.02640

$$$$
2J7F_GI3_A_1446


 23 24  0  0  0  0  0  0  0  0999 V2000
   31.4176   25.3315   42.9953 C   0  0  0  0  0  0  0  0  0  0  0  0
   31.3153   26.0891   44.2680 C   0  0  0  0  0  0  0  0  0  0  0  0
   32.6229   26.1221   44.8758 O   0  0  0  0  0  0  0  0  0  0  0  0
   30.2788   25.4048   45.1692 C   0  0  0  0  0  0  0  0  0  0  0  0
   31.1461   23.7892   41.4653 C   0  0  0  0  0  0  0  0  0  0  0  0
   29.7937   26.4061   46.0592 O   0  0  0  0  0  0  0  0  0  0  0  0
   29.2111   24.6571   44.2971 C   0  0  0  0  0  0  0  0  0  0  0  0
   30.8105   24.1702   42.7068 N   0  0  0  0  0  0  0  0  0  0  0  0
   27.9912   24.2145   44.9282 O   0  0  0  0  0  0  0  0  0  0  0  0
   29.8925   23.4786   43.6215 C   0  0  0  0  0  0  0  0  0  0  0  0
   32.1574   25.6928   41.9280 N   0  0  0  0  0  0  0  0  0  0  0  0
   32.0101   24.7492   40.9778 C   0  0  0  0  0  0  0  0  0  0  0  0
   32.9305   25.2153   45.0304 H   0  0  0  0  0  0  0  0  0  0  0  0
   29.4174   27.1390   45.5472 H   0  0  0  0  0  0  0  0  0  0  0  0
   28.1951   23.5217   45.5758 H   0  0  0  0  0  0  0  0  0  0  0  0
   32.7093   26.5048   41.8555 H   0  0  0  0  0  0  0  0  0  0  0  0
   32.6729   24.7472   39.6646 C   0  0  0  0  0  0  0  0  0  0  0  0
   33.2946   23.7704   39.2945 O   0  0  0  0  0  0  0  0  0  0  0  0
   32.6057   25.8430   38.9378 O   0  0  0  0  0  0  0  0  0  0  0  0
   33.3257   23.0035   39.8320 H   0  0  0  0  0  0  0  0  0  0  0  0
   28.9612   22.5846   42.8250 C   0  0  0  0  0  0  0  0  0  0  0  0
   27.8307   23.3049   42.3284 O   0  0  0  0  0  0  0  0  0  0  0  0
   27.3229   23.6631   43.0732 H   0  0  0  0  0  0  0  0  0  0  0  0
  1  2  1  0  0  0
  1  8  2  0  0  0
  1 11  1  0  0  0
  2  3  1  0  0  0
  2  4  1  0  0  0
  4  6  1  0  0  0
  4  7  1  0  0  0
  5  8  1  0  0  0
  5 12  2  0  0  0
  7  9  1  0  0  0
  7 10  1  0  0  0
  8 10  1  0  0  0
 10 21  1  0  0  0
 21 22  1  0  0  0
 11 12  1  0  0  0
 12 17  1  0  0  0
 17 18  1  0  0  0
 17 19  2  0  0  0
  3 13  1  0  0  0
  6 14  1  0  0  0
  9 15  1  0  0  0
 22 23  1  0  0  0
 11 16  1  0  0  0
 18 20  1  0  0  0
M  CHG 1   8   1
M  END
> <minimizedAffinity>
-7.64857

$$$$
2J7F_GI3_A_1446


 23 24  0  0  0  0  0  0  0  0999 V2000
   32.4558   24.6207   39.9586 C   0  0  0  0  0  0  0  0  0  0  0  0
   33.4550   24.3473   38.8950 C   0  0  0  0  0  0  0  0  0  0  0  0
   34.3092   25.5033   38.7754 O   0  0  0  0  0  0  0  0  0  0  0  0
   32.7138   24.0416   37.5866 C   0  0  0  0  0  0  0  0  0  0  0  0
   30.5546   24.9763   40.9845 C   0  0  0  0  0  0  0  0  0  0  0  0
   33.5989   23.2534   36.7958 O   0  0  0  0  0  0  0  0  0  0  0  0
   31.3034   23.4279   37.8928 C   0  0  0  0  0  0  0  0  0  0  0  0
   31.1267   24.7150   39.7997 N   0  0  0  0  0  0  0  0  0  0  0  0
   30.5795   22.7910   36.8191 O   0  0  0  0  0  0  0  0  0  0  0  0
   30.4405   24.5122   38.5169 C   0  0  0  0  0  0  0  0  0  0  0  0
   32.7374   24.8333   41.2595 N   0  0  0  0  0  0  0  0  0  0  0  0
   31.5784   25.0636   41.9065 C   0  0  0  0  0  0  0  0  0  0  0  0
   33.7717   26.2818   38.5608 H   0  0  0  0  0  0  0  0  0  0  0  0
   33.8411   22.4510   37.2841 H   0  0  0  0  0  0  0  0  0  0  0  0
   30.3341   23.4551   36.1561 H   0  0  0  0  0  0  0  0  0  0  0  0
   33.6339   24.8221   41.6661 H   0  0  0  0  0  0  0  0  0  0  0  0
   31.4449   25.3697   43.3391 C   0  0  0  0  0  0  0  0  0  0  0  0
   32.3019   26.0165   43.9090 O   0  0  0  0  0  0  0  0  0  0  0  0
   30.4012   24.8852   43.9790 O   0  0  0  0  0  0  0  0  0  0  0  0
   33.0344   26.3495   43.4288 H   0  0  0  0  0  0  0  0  0  0  0  0
   29.0017   24.1038   38.7706 C   0  0  0  0  0  0  0  0  0  0  0  0
   28.1707   24.3568   37.6354 O   0  0  0  0  0  0  0  0  0  0  0  0
   28.1726   25.3066   37.4386 H   0  0  0  0  0  0  0  0  0  0  0  0
  1  2  1  0  0  0
  1  8  2  0  0  0
  1 11  1  0  0  0
  2  3  1  0  0  0
  2  4  1  0  0  0
  4  6  1  0  0  0
  4  7  1  0  0  0
  5  8  1  0  0  0
  5 12  2  0  0  0
  7  9  1  0  0  0
  7 10  1  0  0  0
  8 10  1  0  0  0
 10 21  1  0  0  0
 21 22  1  0  0  0
 11 12  1  0  0  0
 12 17  1  0  0  0
 17 18  1  0  0  0
 17 19  2  0  0  0
  3 13  1  0  0  0
  6 14  1  0  0  0
  9 15  1  0  0  0
 22 23  1  0  0  0
 11 16  1  0  0  0
 18 20  1  0  0  0
M  CHG 1   8   1
M  END
> <minimizedAffinity>
-7.56519

$$$$
2J7F_GI3_A_1446


 23 24  0  0  0  0  0  0  0  0999 V2000
   32.2417   24.8271   40.2383 C   0  0  0  0  0  0  0  0  0  0  0  0
   31.9208   25.2443   41.6266 C   0  0  0  0  0  0  0  0  0  0  0  0
   33.1310   25.1694   42.4077 O   0  0  0  0  0  0  0  0  0  0  0  0
   30.8222   24.3256   42.1778 C   0  0  0  0  0  0  0  0  0  0  0  0
   32.2799   23.7009   38.3612 C   0  0  0  0  0  0  0  0  0  0  0  0
   30.1571   25.0606   43.2013 O   0  0  0  0  0  0  0  0  0  0  0  0
   29.9323   23.7811   41.0068 C   0  0  0  0  0  0  0  0  0  0  0  0
   31.7577   23.7532   39.5956 N   0  0  0  0  0  0  0  0  0  0  0  0
   28.6719   23.1571   41.3299 O   0  0  0  0  0  0  0  0  0  0  0  0
   30.7749   22.8281   40.1753 C   0  0  0  0  0  0  0  0  0  0  0  0
   33.0907   25.4640   39.4073 N   0  0  0  0  0  0  0  0  0  0  0  0
   33.1345   24.7791   38.2481 C   0  0  0  0  0  0  0  0  0  0  0  0
   33.4756   24.2630   42.3840 H   0  0  0  0  0  0  0  0  0  0  0  0
   29.8038   25.8842   42.8304 H   0  0  0  0  0  0  0  0  0  0  0  0
   28.8341   22.3332   41.8156 H   0  0  0  0  0  0  0  0  0  0  0  0
   33.5916   26.2865   39.6120 H   0  0  0  0  0  0  0  0  0  0  0  0
   33.9644   25.1221   37.0829 C   0  0  0  0  0  0  0  0  0  0  0  0
   34.8414   25.9581   37.1812 O   0  0  0  0  0  0  0  0  0  0  0  0
   33.6945   24.5312   35.9377 O   0  0  0  0  0  0  0  0  0  0  0  0
   35.0122   26.3628   38.0088 H   0  0  0  0  0  0  0  0  0  0  0  0
   30.0197   22.1277   39.0617 C   0  0  0  0  0  0  0  0  0  0  0  0
   28.9160   22.9083   38.5969 O   0  0  0  0  0  0  0  0  0  0  0  0
   28.2919   23.0518   39.3255 H   0  0  0  0  0  0  0  0  0  0  0  0
  1  2  1  0  0  0
  1  8  2  0  0  0
  1 11  1  0  0  0
  2  3  1  0  0  0
  2  4  1  0  0  0
  4  6  1  0  0  0
  4  7  1  0  0  0
  5  8  1  0  0  0
  5 12  2  0  0  0
  7  9  1  0  0  0
  7 10  1  0  0  0
  8 10  1  0  0  0
 10 21  1  0  0  0
 21 22  1  0  0  0
 11 12  1  0  0  0
 12 17  1  0  0  0
 17 18  1  0  0  0
 17 19  2  0  0  0
  3 13  1  0  0  0
  6 14  1  0  0  0
  9 15  1  0  0  0
 22 23  1  0  0  0
 11 16  1  0  0  0
 18 20  1  0  0  0
M  CHG 1   8   1
M  END
> <minimizedAffinity>
-7.47753

$$$$
2J7F_GI3_A_1446


 23 24  0  0  0  0  0  0  0  0999 V2000
   30.4101   24.6501   41.3054 C   0  0  0  0  0  0  0  0  0  0  0  0
   29.2689   24.1355   40.5072 C   0  0  0  0  0  0  0  0  0  0  0  0
   28.7159   22.9971   41.1990 O   0  0  0  0  0  0  0  0  0  0  0  0
   29.7719   23.7680   39.1048 C   0  0  0  0  0  0  0  0  0  0  0  0
   32.4369   25.2097   41.9156 C   0  0  0  0  0  0  0  0  0  0  0  0
   28.6431   23.8429   38.2385 O   0  0  0  0  0  0  0  0  0  0  0  0
   31.0132   24.6483   38.7258 C   0  0  0  0  0  0  0  0  0  0  0  0
   31.6977   24.6808   40.9291 N   0  0  0  0  0  0  0  0  0  0  0  0
   31.4430   24.6797   37.3486 O   0  0  0  0  0  0  0  0  0  0  0  0
   32.1756   24.2353   39.6135 C   0  0  0  0  0  0  0  0  0  0  0  0
   30.3266   25.1575   42.5514 N   0  0  0  0  0  0  0  0  0  0  0  0
   31.5677   25.4996   42.9482 C   0  0  0  0  0  0  0  0  0  0  0  0
   29.4021   22.3203   41.3080 H   0  0  0  0  0  0  0  0  0  0  0  0
   28.2643   24.7350   38.2775 H   0  0  0  0  0  0  0  0  0  0  0  0
   31.7728   23.8041   37.0927 H   0  0  0  0  0  0  0  0  0  0  0  0
   29.5021   25.2603   43.0795 H   0  0  0  0  0  0  0  0  0  0  0  0
   31.9210   26.0648   44.2596 C   0  0  0  0  0  0  0  0  0  0  0  0
   31.0491   26.3622   45.0526 O   0  0  0  0  0  0  0  0  0  0  0  0
   33.1948   26.2747   44.5181 O   0  0  0  0  0  0  0  0  0  0  0  0
   30.1502   26.2015   44.8426 H   0  0  0  0  0  0  0  0  0  0  0  0
   33.4890   24.9226   39.2917 C   0  0  0  0  0  0  0  0  0  0  0  0
   34.5558   23.9833   39.1401 O   0  0  0  0  0  0  0  0  0  0  0  0
   34.6785   23.4965   39.9701 H   0  0  0  0  0  0  0  0  0  0  0  0
  1  2  1  0  0  0
  1  8  2  0  0  0
  1 11  1  0  0  0
  2  3  1  0  0  0
  2  4  1  0  0  0
  4  6  1  0  0  0
  4  7  1  0  0  0
  5  8  1  0  0  0
  5 12  2  0  0  0
  7  9  1  0  0  0
  7 10  1  0  0  0
  8 10  1  0  0  0
 10 21  1  0  0  0
 21 22  1  0  0  0
 11 12  1  0  0  0
 12 17  1  0  0  0
 17 18  1  0  0  0
 17 19  2  0  0  0
  3 13  1  0  0  0
  6 14  1  0  0  0
  9 15  1  0  0  0
 22 23  1  0  0  0
 11 16  1  0  0  0
 18 20  1  0  0  0
M  CHG 1   8   1
M  END
> <minimizedAffinity>
-7.41433

$$$$
2J7F_GI3_A_1446


 23 24  0  0  0  0  0  0  0  0999 V2000
   30.8238   24.5614   42.7087 C   0  0  0  0  0  0  0  0  0  0  0  0
   31.7608   25.6717   43.0145 C   0  0  0  0  0  0  0  0  0  0  0  0
   33.1033   25.2053   42.7684 O   0  0  0  0  0  0  0  0  0  0  0  0
   31.5593   26.1015   44.4737 C   0  0  0  0  0  0  0  0  0  0  0  0
   29.3226   22.9842   42.9371 C   0  0  0  0  0  0  0  0  0  0  0  0
   32.0001   27.4536   44.5610 O   0  0  0  0  0  0  0  0  0  0  0  0
   30.0871   25.8075   44.9274 C   0  0  0  0  0  0  0  0  0  0  0  0
   30.0158   23.9366   43.5788 N   0  0  0  0  0  0  0  0  0  0  0  0
   29.6069   26.4107   46.1472 O   0  0  0  0  0  0  0  0  0  0  0  0
   29.9052   24.3003   44.9977 C   0  0  0  0  0  0  0  0  0  0  0  0
   30.6514   23.9954   41.4976 N   0  0  0  0  0  0  0  0  0  0  0  0
   29.7362   23.0145   41.6204 C   0  0  0  0  0  0  0  0  0  0  0  0
   33.2833   24.4306   43.3237 H   0  0  0  0  0  0  0  0  0  0  0  0
   31.4952   27.9992   43.9379 H   0  0  0  0  0  0  0  0  0  0  0  0
   30.0926   26.0436   46.9024 H   0  0  0  0  0  0  0  0  0  0  0  0
   31.1137   24.2538   40.6677 H   0  0  0  0  0  0  0  0  0  0  0  0
   29.2810   22.1290   40.5375 C   0  0  0  0  0  0  0  0  0  0  0  0
   28.3605   21.3573   40.7242 O   0  0  0  0  0  0  0  0  0  0  0  0
   29.9285   22.1721   39.3919 O   0  0  0  0  0  0  0  0  0  0  0  0
   27.9171   21.3480   41.5496 H   0  0  0  0  0  0  0  0  0  0  0  0
   28.5580   23.8528   45.5323 C   0  0  0  0  0  0  0  0  0  0  0  0
   28.6919   22.8142   46.5053 O   0  0  0  0  0  0  0  0  0  0  0  0
   29.1137   22.0417   46.0976 H   0  0  0  0  0  0  0  0  0  0  0  0
  1  2  1  0  0  0
  1  8  2  0  0  0
  1 11  1  0  0  0
  2  3  1  0  0  0
  2  4  1  0  0  0
  4  6  1  0  0  0
  4  7  1  0  0  0
  5  8  1  0  0  0
  5 12  2  0  0  0
  7  9  1  0  0  0
  7 10  1  0  0  0
  8 10  1  0  0  0
 10 21  1  0  0  0
 21 22  1  0  0  0
 11 12  1  0  0  0
 12 17  1  0  0  0
 17 18  1  0  0  0
 17 19  2  0  0  0
  3 13  1  0  0  0
  6 14  1  0  0  0
  9 15  1  0  0  0
 22 23  1  0  0  0
 11 16  1  0  0  0
 18 20  1  0  0  0
M  CHG 1   8   1
M  END
> <minimizedAffinity>
-7.32296

$$$$
