3ML2_SU0_A_263


 30 32  0  0  0  0  0  0  0  0999 V2000
   -4.8279    4.7973   11.7003 O   0  0  0  0  0  0  0  0  0  0  0  0
   -4.2056    5.7580   12.1632 C   0  0  0  0  0  0  0  0  0  0  0  0
   -4.1349    5.8954   13.5811 N   0  0  0  0  0  0  0  0  0  0  0  0
   -3.8535    6.7553   13.9690 H   0  0  0  0  0  0  0  0  0  0  0  0
   -5.5231    2.8259   16.1406 C   0  0  0  0  0  0  0  0  0  0  0  0
   -6.3640    3.9907   15.7680 C   0  0  0  0  0  0  0  0  0  0  0  0
   -5.8408    4.9450   14.9473 C   0  0  0  0  0  0  0  0  0  0  0  0
   -4.4673    4.8006   14.4570 C   0  0  0  0  0  0  0  0  0  0  0  0
   -3.6573    3.7398   14.8152 C   0  0  0  0  0  0  0  0  0  0  0  0
   -4.2307    2.6894   15.7077 C   0  0  0  0  0  0  0  0  0  0  0  0
   -5.3182    0.4047   17.0844 N   0  0  0  0  0  0  0  0  0  0  0  0
   -7.6263    1.4158   16.8074 O   0  0  0  0  0  0  0  0  0  0  0  0
   -6.2921    1.6582   17.2207 S   0  0  0  0  0  0  0  0  0  0  0  0
   -6.1617    2.2376   18.5337 O   0  0  0  0  0  0  0  0  0  0  0  0
   -5.4147   -0.0012   16.1536 H   0  0  0  0  0  0  0  0  0  0  0  0
   -5.5625   -0.2936   17.7867 H   0  0  0  0  0  0  0  0  0  0  0  0
   -3.7087    6.9517   11.3615 C   0  0  0  0  0  0  0  0  0  0  0  0
   -3.1701    5.5232    6.7671 O   0  0  0  0  0  0  0  0  0  0  0  0
   -4.1435    6.8072    9.9314 C   0  0  0  0  0  0  0  0  0  0  0  0
   -3.3363    6.2546    8.9323 C   0  0  0  0  0  0  0  0  0  0  0  0
   -3.8556    6.0358    7.6475 C   0  0  0  0  0  0  0  0  0  0  0  0
   -5.1555    6.3173    7.2465 O   0  0  0  0  0  0  0  0  0  0  0  0
   -5.9362    7.0187    8.2024 C   0  0  0  0  0  0  0  0  0  0  0  0
   -7.2364    7.5367    7.7382 C   0  0  0  0  0  0  0  0  0  0  0  0
   -8.0339    8.2569    8.5901 C   0  0  0  0  0  0  0  0  0  0  0  0
   -7.5314    8.5837    9.9722 C   0  0  0  0  0  0  0  0  0  0  0  0
   -6.3119    8.1198   10.4096 C   0  0  0  0  0  0  0  0  0  0  0  0
   -5.4600    7.3203    9.4855 C   0  0  0  0  0  0  0  0  0  0  0  0
   -9.3055    8.6950    8.1740 O   0  0  0  0  0  0  0  0  0  0  0  0
   -9.5357    9.8212    7.2963 C   0  0  0  0  0  0  0  0  0  0  0  0
 10  5  2  0  0  0
  6  5  1  0  0  0
  5 13  1  0  0  0
 11 13  1  0  0  0
 12 13  2  0  0  0
 13 14  2  0  0  0
  7  6  2  0  0  0
  8  7  1  0  0  0
  2  1  2  0  0  0
  3  8  1  0  0  0
  8  9  2  0  0  0
 21 18  2  0  0  0
  9 10  1  0  0  0
 17  2  1  0  0  0
  2  3  1  0  0  0
 17 19  1  0  0  0
 28 19  1  0  0  0
 19 20  2  0  0  0
 20 21  1  0  0  0
 22 21  1  0  0  0
 23 22  1  0  0  0
 28 23  2  0  0  0
 24 23  1  0  0  0
 25 24  2  0  0  0
 26 25  1  0  0  0
 29 25  1  0  0  0
 26 27  2  0  0  0
 27 28  1  0  0  0
 29 30  1  0  0  0
 11 15  1  0  0  0
 11 16  1  0  0  0
  3  4  1  0  0  0
M  END
> <minimizedAffinity>
-8.83795

$$$$
3ML2_SU0_A_263


 30 32  0  0  0  0  0  0  0  0999 V2000
   -4.9448    5.4805   11.7760 O   0  0  0  0  0  0  0  0  0  0  0  0
   -4.2417    6.2908   12.3870 C   0  0  0  0  0  0  0  0  0  0  0  0
   -4.2789    6.2753   13.8127 N   0  0  0  0  0  0  0  0  0  0  0  0
   -3.9191    7.0430   14.3131 H   0  0  0  0  0  0  0  0  0  0  0  0
   -5.5005    2.8313   15.9451 C   0  0  0  0  0  0  0  0  0  0  0  0
   -4.1484    2.9570   15.3460 C   0  0  0  0  0  0  0  0  0  0  0  0
   -3.8337    4.0941   14.6632 C   0  0  0  0  0  0  0  0  0  0  0  0
   -4.8328    5.1584   14.5352 C   0  0  0  0  0  0  0  0  0  0  0  0
   -6.1069    5.0496   15.0594 C   0  0  0  0  0  0  0  0  0  0  0  0
   -6.4513    3.8086   15.8144 C   0  0  0  0  0  0  0  0  0  0  0  0
   -4.8443    0.3096   16.0168 N   0  0  0  0  0  0  0  0  0  0  0  0
   -7.1857    0.9822   16.7182 O   0  0  0  0  0  0  0  0  0  0  0  0
   -5.8089    1.3123   16.7929 S   0  0  0  0  0  0  0  0  0  0  0  0
   -5.3119    1.5339   18.1272 O   0  0  0  0  0  0  0  0  0  0  0  0
   -5.2008    0.1565   15.0735 H   0  0  0  0  0  0  0  0  0  0  0  0
   -4.8068   -0.5799   16.5147 H   0  0  0  0  0  0  0  0  0  0  0  0
   -3.5186    7.4741   11.7613 C   0  0  0  0  0  0  0  0  0  0  0  0
    0.7687    5.2596   11.3683 O   0  0  0  0  0  0  0  0  0  0  0  0
   -2.0418    7.3367   11.9968 C   0  0  0  0  0  0  0  0  0  0  0  0
   -1.2983    6.2211   11.5999 C   0  0  0  0  0  0  0  0  0  0  0  0
    0.0977    6.2183   11.7399 C   0  0  0  0  0  0  0  0  0  0  0  0
    0.8571    7.2639   12.2496 O   0  0  0  0  0  0  0  0  0  0  0  0
    0.1050    8.3361   12.7973 C   0  0  0  0  0  0  0  0  0  0  0  0
    0.8612    9.3538   13.5502 C   0  0  0  0  0  0  0  0  0  0  0  0
    0.2036   10.4017   14.1417 C   0  0  0  0  0  0  0  0  0  0  0  0
   -1.3010   10.4549   14.0858 C   0  0  0  0  0  0  0  0  0  0  0  0
   -2.0176    9.5008   13.4004 C   0  0  0  0  0  0  0  0  0  0  0  0
   -1.2949    8.3766   12.7426 C   0  0  0  0  0  0  0  0  0  0  0  0
    0.9266   11.4126   14.8030 O   0  0  0  0  0  0  0  0  0  0  0  0
    2.0003   11.1698   15.7411 C   0  0  0  0  0  0  0  0  0  0  0  0
 10  5  2  0  0  0
  6  5  1  0  0  0
  5 13  1  0  0  0
 11 13  1  0  0  0
 12 13  2  0  0  0
 13 14  2  0  0  0
  7  6  2  0  0  0
  8  7  1  0  0  0
  2  1  2  0  0  0
  3  8  1  0  0  0
  8  9  2  0  0  0
 21 18  2  0  0  0
  9 10  1  0  0  0
 17  2  1  0  0  0
  2  3  1  0  0  0
 17 19  1  0  0  0
 28 19  1  0  0  0
 19 20  2  0  0  0
 20 21  1  0  0  0
 22 21  1  0  0  0
 23 22  1  0  0  0
 28 23  2  0  0  0
 24 23  1  0  0  0
 25 24  2  0  0  0
 26 25  1  0  0  0
 29 25  1  0  0  0
 26 27  2  0  0  0
 27 28  1  0  0  0
 29 30  1  0  0  0
 11 15  1  0  0  0
 11 16  1  0  0  0
  3  4  1  0  0  0
M  END
> <minimizedAffinity>
-7.96901

$$$$
3ML2_SU0_A_263


 30 32  0  0  0  0  0  0  0  0999 V2000
   -4.7483    4.5947   11.5184 O   0  0  0  0  0  0  0  0  0  0  0  0
   -4.0897    5.5650   11.9044 C   0  0  0  0  0  0  0  0  0  0  0  0
   -4.0076    5.8091   13.3072 N   0  0  0  0  0  0  0  0  0  0  0  0
   -3.6935    6.6857   13.6268 H   0  0  0  0  0  0  0  0  0  0  0  0
   -5.4932    3.0020   16.1024 C   0  0  0  0  0  0  0  0  0  0  0  0
   -6.2891    4.1699   15.6496 C   0  0  0  0  0  0  0  0  0  0  0  0
   -5.7360    5.0370   14.7549 C   0  0  0  0  0  0  0  0  0  0  0  0
   -4.3753    4.7983   14.2660 C   0  0  0  0  0  0  0  0  0  0  0  0
   -3.6060    3.7341   14.6968 C   0  0  0  0  0  0  0  0  0  0  0  0
   -4.2125    2.7789   15.6706 C   0  0  0  0  0  0  0  0  0  0  0  0
   -5.2577    0.7517   17.3969 N   0  0  0  0  0  0  0  0  0  0  0  0
   -7.5778    1.5763   16.7940 O   0  0  0  0  0  0  0  0  0  0  0  0
   -6.2978    1.9523   17.2737 S   0  0  0  0  0  0  0  0  0  0  0  0
   -6.3105    2.7150   18.4962 O   0  0  0  0  0  0  0  0  0  0  0  0
   -5.2530    0.2155   16.5292 H   0  0  0  0  0  0  0  0  0  0  0  0
   -5.5293    0.1446   18.1703 H   0  0  0  0  0  0  0  0  0  0  0  0
   -3.5536    6.6742   11.0117 C   0  0  0  0  0  0  0  0  0  0  0  0
   -7.7408    6.8784    8.5899 O   0  0  0  0  0  0  0  0  0  0  0  0
   -4.7026    7.3854   10.3565 C   0  0  0  0  0  0  0  0  0  0  0  0
   -5.7183    6.7273    9.6563 C   0  0  0  0  0  0  0  0  0  0  0  0
   -6.8253    7.4455    9.1798 C   0  0  0  0  0  0  0  0  0  0  0  0
   -7.0320    8.8090    9.3467 O   0  0  0  0  0  0  0  0  0  0  0  0
   -5.9395    9.5128    9.9176 C   0  0  0  0  0  0  0  0  0  0  0  0
   -6.0240   10.9849    9.9021 C   0  0  0  0  0  0  0  0  0  0  0  0
   -4.9929   11.7386   10.4012 C   0  0  0  0  0  0  0  0  0  0  0  0
   -3.7429   11.0508   10.8851 C   0  0  0  0  0  0  0  0  0  0  0  0
   -3.6466    9.6781   10.8879 C   0  0  0  0  0  0  0  0  0  0  0  0
   -4.7793    8.8651   10.3635 C   0  0  0  0  0  0  0  0  0  0  0  0
   -5.0973   13.1416   10.4518 O   0  0  0  0  0  0  0  0  0  0  0  0
   -6.3474   13.8677   10.4932 C   0  0  0  0  0  0  0  0  0  0  0  0
 10  5  2  0  0  0
  6  5  1  0  0  0
  5 13  1  0  0  0
 11 13  1  0  0  0
 12 13  2  0  0  0
 13 14  2  0  0  0
  7  6  2  0  0  0
  8  7  1  0  0  0
  2  1  2  0  0  0
  3  8  1  0  0  0
  8  9  2  0  0  0
 21 18  2  0  0  0
  9 10  1  0  0  0
 17  2  1  0  0  0
  2  3  1  0  0  0
 17 19  1  0  0  0
 28 19  1  0  0  0
 19 20  2  0  0  0
 20 21  1  0  0  0
 22 21  1  0  0  0
 23 22  1  0  0  0
 28 23  2  0  0  0
 24 23  1  0  0  0
 25 24  2  0  0  0
 26 25  1  0  0  0
 29 25  1  0  0  0
 26 27  2  0  0  0
 27 28  1  0  0  0
 29 30  1  0  0  0
 11 15  1  0  0  0
 11 16  1  0  0  0
  3  4  1  0  0  0
M  END
> <minimizedAffinity>
-7.85914

$$$$
3ML2_SU0_A_263


 30 32  0  0  0  0  0  0  0  0999 V2000
   -5.9931    6.9753   12.0798 O   0  0  0  0  0  0  0  0  0  0  0  0
   -4.9225    7.1967   11.5061 C   0  0  0  0  0  0  0  0  0  0  0  0
   -3.7986    6.3840   11.8388 N   0  0  0  0  0  0  0  0  0  0  0  0
   -2.8961    6.6788   11.5786 H   0  0  0  0  0  0  0  0  0  0  0  0
   -4.1943    2.9575   14.2888 C   0  0  0  0  0  0  0  0  0  0  0  0
   -3.6861    4.2515   14.8085 C   0  0  0  0  0  0  0  0  0  0  0  0
   -3.5763    5.3072   13.9532 C   0  0  0  0  0  0  0  0  0  0  0  0
   -3.9580    5.1400   12.5482 C   0  0  0  0  0  0  0  0  0  0  0  0
   -4.4052    3.9364   12.0371 C   0  0  0  0  0  0  0  0  0  0  0  0
   -4.5337    2.7809   12.9736 C   0  0  0  0  0  0  0  0  0  0  0  0
   -4.4206    0.3725   14.5377 N   0  0  0  0  0  0  0  0  0  0  0  0
   -5.3751    1.8620   16.3534 O   0  0  0  0  0  0  0  0  0  0  0  0
   -4.2811    1.6523   15.4764 S   0  0  0  0  0  0  0  0  0  0  0  0
   -2.9879    1.6533   16.1121 O   0  0  0  0  0  0  0  0  0  0  0  0
   -5.3373    0.3771   14.0906 H   0  0  0  0  0  0  0  0  0  0  0  0
   -4.3201   -0.4733   15.0988 H   0  0  0  0  0  0  0  0  0  0  0  0
   -4.6203    8.4177   10.6503 C   0  0  0  0  0  0  0  0  0  0  0  0
   -6.9793    6.4725    6.8965 O   0  0  0  0  0  0  0  0  0  0  0  0
   -5.5625    8.4523    9.4814 C   0  0  0  0  0  0  0  0  0  0  0  0
   -5.7725    7.3649    8.6279 C   0  0  0  0  0  0  0  0  0  0  0  0
   -6.7609    7.4293    7.6344 C   0  0  0  0  0  0  0  0  0  0  0  0
   -7.6005    8.5118    7.4040 O   0  0  0  0  0  0  0  0  0  0  0  0
   -7.2953    9.6750    8.1582 C   0  0  0  0  0  0  0  0  0  0  0  0
   -8.0091   10.9094    7.7827 C   0  0  0  0  0  0  0  0  0  0  0  0
   -7.7438   12.0842    8.4384 C   0  0  0  0  0  0  0  0  0  0  0  0
   -6.6593   12.1173    9.4836 C   0  0  0  0  0  0  0  0  0  0  0  0
   -5.9750   10.9747    9.8295 C   0  0  0  0  0  0  0  0  0  0  0  0
   -6.2832    9.6976    9.1274 C   0  0  0  0  0  0  0  0  0  0  0  0
   -8.4708   13.2499    8.1310 O   0  0  0  0  0  0  0  0  0  0  0  0
   -9.6570   13.2797    7.3041 C   0  0  0  0  0  0  0  0  0  0  0  0
 10  5  2  0  0  0
  6  5  1  0  0  0
  5 13  1  0  0  0
 11 13  1  0  0  0
 12 13  2  0  0  0
 13 14  2  0  0  0
  7  6  2  0  0  0
  8  7  1  0  0  0
  2  1  2  0  0  0
  3  8  1  0  0  0
  8  9  2  0  0  0
 21 18  2  0  0  0
  9 10  1  0  0  0
 17  2  1  0  0  0
  2  3  1  0  0  0
 17 19  1  0  0  0
 28 19  1  0  0  0
 19 20  2  0  0  0
 20 21  1  0  0  0
 22 21  1  0  0  0
 23 22  1  0  0  0
 28 23  2  0  0  0
 24 23  1  0  0  0
 25 24  2  0  0  0
 26 25  1  0  0  0
 29 25  1  0  0  0
 26 27  2  0  0  0
 27 28  1  0  0  0
 29 30  1  0  0  0
 11 15  1  0  0  0
 11 16  1  0  0  0
  3  4  1  0  0  0
M  END
> <minimizedAffinity>
-7.84338

$$$$
3ML2_SU0_A_263


 30 32  0  0  0  0  0  0  0  0999 V2000
   -4.8778    3.6603   11.4459 O   0  0  0  0  0  0  0  0  0  0  0  0
   -4.1413    4.6321   11.6394 C   0  0  0  0  0  0  0  0  0  0  0  0
   -3.9312    5.0618   12.9831 N   0  0  0  0  0  0  0  0  0  0  0  0
   -3.5478    5.9531   13.1502 H   0  0  0  0  0  0  0  0  0  0  0  0
   -5.3312    2.7338   16.2266 C   0  0  0  0  0  0  0  0  0  0  0  0
   -6.1504    3.8036   15.6044 C   0  0  0  0  0  0  0  0  0  0  0  0
   -5.6242    4.5185   14.5699 C   0  0  0  0  0  0  0  0  0  0  0  0
   -4.2689    4.2175   14.1008 C   0  0  0  0  0  0  0  0  0  0  0  0
   -3.4782    3.2462   14.6850 C   0  0  0  0  0  0  0  0  0  0  0  0
   -4.0552    2.4567   15.8129 C   0  0  0  0  0  0  0  0  0  0  0  0
   -7.4737    1.4140   16.9069 N   0  0  0  0  0  0  0  0  0  0  0  0
   -6.2487    2.7502   18.6791 O   0  0  0  0  0  0  0  0  0  0  0  0
   -6.1017    1.8813   17.5686 S   0  0  0  0  0  0  0  0  0  0  0  0
   -5.2582    0.7369   17.8038 O   0  0  0  0  0  0  0  0  0  0  0  0
   -8.0665    2.2277   16.7427 H   0  0  0  0  0  0  0  0  0  0  0  0
   -7.9508    0.7669   17.5346 H   0  0  0  0  0  0  0  0  0  0  0  0
   -3.6255    5.5725   10.5604 C   0  0  0  0  0  0  0  0  0  0  0  0
   -2.1250    9.6373   12.7201 O   0  0  0  0  0  0  0  0  0  0  0  0
   -2.5902    6.4868   11.1497 C   0  0  0  0  0  0  0  0  0  0  0  0
   -2.8751    7.7721   11.6207 C   0  0  0  0  0  0  0  0  0  0  0  0
   -1.8833    8.5195   12.2733 C   0  0  0  0  0  0  0  0  0  0  0  0
   -0.5851    8.0912   12.5200 O   0  0  0  0  0  0  0  0  0  0  0  0
   -0.2388    6.8556   11.9132 C   0  0  0  0  0  0  0  0  0  0  0  0
    1.1858    6.4771   11.9562 C   0  0  0  0  0  0  0  0  0  0  0  0
    1.6076    5.3163   11.3605 C   0  0  0  0  0  0  0  0  0  0  0  0
    0.6183    4.4793   10.5922 C   0  0  0  0  0  0  0  0  0  0  0  0
   -0.7103    4.8324   10.5311 C   0  0  0  0  0  0  0  0  0  0  0  0
   -1.1652    6.0840   11.1985 C   0  0  0  0  0  0  0  0  0  0  0  0
    2.9538    4.9158   11.4573 O   0  0  0  0  0  0  0  0  0  0  0  0
    3.9136    5.4892   12.3748 C   0  0  0  0  0  0  0  0  0  0  0  0
 10  5  2  0  0  0
  6  5  1  0  0  0
  5 13  1  0  0  0
 11 13  1  0  0  0
 12 13  2  0  0  0
 13 14  2  0  0  0
  7  6  2  0  0  0
  8  7  1  0  0  0
  2  1  2  0  0  0
  3  8  1  0  0  0
  8  9  2  0  0  0
 21 18  2  0  0  0
  9 10  1  0  0  0
 17  2  1  0  0  0
  2  3  1  0  0  0
 17 19  1  0  0  0
 28 19  1  0  0  0
 19 20  2  0  0  0
 20 21  1  0  0  0
 22 21  1  0  0  0
 23 22  1  0  0  0
 28 23  2  0  0  0
 24 23  1  0  0  0
 25 24  2  0  0  0
 26 25  1  0  0  0
 29 25  1  0  0  0
 26 27  2  0  0  0
 27 28  1  0  0  0
 29 30  1  0  0  0
 11 15  1  0  0  0
 11 16  1  0  0  0
  3  4  1  0  0  0
M  END
> <minimizedAffinity>
-7.82726

$$$$
3ML2_SU0_A_263


 30 32  0  0  0  0  0  0  0  0999 V2000
   -4.9171    5.1698   11.6566 O   0  0  0  0  0  0  0  0  0  0  0  0
   -4.1118    5.9493   12.1745 C   0  0  0  0  0  0  0  0  0  0  0  0
   -4.0905    6.0499   13.5971 N   0  0  0  0  0  0  0  0  0  0  0  0
   -3.6353    6.8136   14.0199 H   0  0  0  0  0  0  0  0  0  0  0  0
   -5.5558    2.9313   16.0521 C   0  0  0  0  0  0  0  0  0  0  0  0
   -4.2167    2.8781   15.4144 C   0  0  0  0  0  0  0  0  0  0  0  0
   -3.8204    3.9178   14.6270 C   0  0  0  0  0  0  0  0  0  0  0  0
   -4.7218    5.0559   14.4276 C   0  0  0  0  0  0  0  0  0  0  0  0
   -5.9840    5.1122   14.9875 C   0  0  0  0  0  0  0  0  0  0  0  0
   -6.4171    3.9784   15.8567 C   0  0  0  0  0  0  0  0  0  0  0  0
   -5.0062    0.4127   16.4390 N   0  0  0  0  0  0  0  0  0  0  0  0
   -7.3574    1.2355   16.9097 O   0  0  0  0  0  0  0  0  0  0  0  0
   -5.9757    1.5263   17.0376 S   0  0  0  0  0  0  0  0  0  0  0  0
   -5.5526    1.8776   18.3695 O   0  0  0  0  0  0  0  0  0  0  0  0
   -5.3103    0.1681   15.4966 H   0  0  0  0  0  0  0  0  0  0  0  0
   -5.0347   -0.4170   17.0316 H   0  0  0  0  0  0  0  0  0  0  0  0
   -3.3016    6.9993   11.4291 C   0  0  0  0  0  0  0  0  0  0  0  0
   -3.2358    5.4501    6.8427 O   0  0  0  0  0  0  0  0  0  0  0  0
   -2.6625    6.3722   10.2235 C   0  0  0  0  0  0  0  0  0  0  0  0
   -3.3480    6.1192    9.0314 C   0  0  0  0  0  0  0  0  0  0  0  0
   -2.6549    5.6483    7.9062 C   0  0  0  0  0  0  0  0  0  0  0  0
   -1.2889    5.4027    7.8474 O   0  0  0  0  0  0  0  0  0  0  0  0
   -0.6098    5.5069    9.0896 C   0  0  0  0  0  0  0  0  0  0  0  0
    0.7868    5.0346    9.1183 C   0  0  0  0  0  0  0  0  0  0  0  0
    1.5003    5.0672   10.2889 C   0  0  0  0  0  0  0  0  0  0  0  0
    0.8177    5.5091   11.5571 C   0  0  0  0  0  0  0  0  0  0  0  0
   -0.4906    5.9355   11.5448 C   0  0  0  0  0  0  0  0  0  0  0  0
   -1.2531    5.9170   10.2653 C   0  0  0  0  0  0  0  0  0  0  0  0
    2.8544    4.6822   10.3073 O   0  0  0  0  0  0  0  0  0  0  0  0
    3.9025    5.4107   10.9872 C   0  0  0  0  0  0  0  0  0  0  0  0
 10  5  2  0  0  0
  6  5  1  0  0  0
  5 13  1  0  0  0
 11 13  1  0  0  0
 12 13  2  0  0  0
 13 14  2  0  0  0
  7  6  2  0  0  0
  8  7  1  0  0  0
  2  1  2  0  0  0
  3  8  1  0  0  0
  8  9  2  0  0  0
 21 18  2  0  0  0
  9 10  1  0  0  0
 17  2  1  0  0  0
  2  3  1  0  0  0
 17 19  1  0  0  0
 28 19  1  0  0  0
 19 20  2  0  0  0
 20 21  1  0  0  0
 22 21  1  0  0  0
 23 22  1  0  0  0
 28 23  2  0  0  0
 24 23  1  0  0  0
 25 24  2  0  0  0
 26 25  1  0  0  0
 29 25  1  0  0  0
 26 27  2  0  0  0
 27 28  1  0  0  0
 29 30  1  0  0  0
 11 15  1  0  0  0
 11 16  1  0  0  0
  3  4  1  0  0  0
M  END
> <minimizedAffinity>
-7.70914

$$$$
3ML2_SU0_A_263


 30 32  0  0  0  0  0  0  0  0999 V2000
   -2.5397    7.4965   11.6260 O   0  0  0  0  0  0  0  0  0  0  0  0
   -3.0725    6.4584   12.0293 C   0  0  0  0  0  0  0  0  0  0  0  0
   -4.4376    6.2248   11.6883 N   0  0  0  0  0  0  0  0  0  0  0  0
   -4.9465    5.5387   12.1777 H   0  0  0  0  0  0  0  0  0  0  0  0
   -6.4450    8.7174    8.9212 C   0  0  0  0  0  0  0  0  0  0  0  0
   -6.5202    8.9357   10.3872 C   0  0  0  0  0  0  0  0  0  0  0  0
   -5.8545    8.0817   11.2153 C   0  0  0  0  0  0  0  0  0  0  0  0
   -5.0866    6.9730   10.6418 C   0  0  0  0  0  0  0  0  0  0  0  0
   -5.0275    6.7341    9.2820 C   0  0  0  0  0  0  0  0  0  0  0  0
   -5.7493    7.6726    8.3727 C   0  0  0  0  0  0  0  0  0  0  0  0
   -8.7567    9.1255    7.7879 N   0  0  0  0  0  0  0  0  0  0  0  0
   -6.6816   10.1144    6.7190 O   0  0  0  0  0  0  0  0  0  0  0  0
   -7.3569    9.8707    7.9415 S   0  0  0  0  0  0  0  0  0  0  0  0
   -7.5091   11.0263    8.7889 O   0  0  0  0  0  0  0  0  0  0  0  0
   -8.6431    8.3088    7.1875 H   0  0  0  0  0  0  0  0  0  0  0  0
   -9.4367    9.7617    7.3715 H   0  0  0  0  0  0  0  0  0  0  0  0
   -2.4829    5.5133   13.0655 C   0  0  0  0  0  0  0  0  0  0  0  0
   -2.3166    1.7514   10.0225 O   0  0  0  0  0  0  0  0  0  0  0  0
   -2.7518    4.0939   12.6553 C   0  0  0  0  0  0  0  0  0  0  0  0
   -2.4462    3.5862   11.3889 C   0  0  0  0  0  0  0  0  0  0  0  0
   -2.6091    2.2191   11.1195 C   0  0  0  0  0  0  0  0  0  0  0  0
   -3.0570    1.2680   12.0276 O   0  0  0  0  0  0  0  0  0  0  0  0
   -3.5159    1.7930   13.2640 C   0  0  0  0  0  0  0  0  0  0  0  0
   -4.2082    0.8513   14.1630 C   0  0  0  0  0  0  0  0  0  0  0  0
   -4.7140    1.2886   15.3602 C   0  0  0  0  0  0  0  0  0  0  0  0
   -4.6297    2.7524   15.7064 C   0  0  0  0  0  0  0  0  0  0  0  0
   -4.0009    3.6429   14.8666 C   0  0  0  0  0  0  0  0  0  0  0  0
   -3.4353    3.1567   13.5772 C   0  0  0  0  0  0  0  0  0  0  0  0
   -5.3150    0.3805   16.2525 O   0  0  0  0  0  0  0  0  0  0  0  0
   -6.1119    0.7644   17.3967 C   0  0  0  0  0  0  0  0  0  0  0  0
 10  5  2  0  0  0
  6  5  1  0  0  0
  5 13  1  0  0  0
 11 13  1  0  0  0
 12 13  2  0  0  0
 13 14  2  0  0  0
  7  6  2  0  0  0
  8  7  1  0  0  0
  2  1  2  0  0  0
  3  8  1  0  0  0
  8  9  2  0  0  0
 21 18  2  0  0  0
  9 10  1  0  0  0
 17  2  1  0  0  0
  2  3  1  0  0  0
 17 19  1  0  0  0
 28 19  1  0  0  0
 19 20  2  0  0  0
 20 21  1  0  0  0
 22 21  1  0  0  0
 23 22  1  0  0  0
 28 23  2  0  0  0
 24 23  1  0  0  0
 25 24  2  0  0  0
 26 25  1  0  0  0
 29 25  1  0  0  0
 26 27  2  0  0  0
 27 28  1  0  0  0
 29 30  1  0  0  0
 11 15  1  0  0  0
 11 16  1  0  0  0
  3  4  1  0  0  0
M  END
> <minimizedAffinity>
-7.47530

$$$$
3ML2_SU0_A_263


 30 32  0  0  0  0  0  0  0  0999 V2000
   -4.7567    4.0322   11.4168 O   0  0  0  0  0  0  0  0  0  0  0  0
   -3.8936    4.8345   11.7851 C   0  0  0  0  0  0  0  0  0  0  0  0
   -3.8857    5.2350   13.1540 N   0  0  0  0  0  0  0  0  0  0  0  0
   -3.3712    6.0309   13.4208 H   0  0  0  0  0  0  0  0  0  0  0  0
   -5.6529    2.8681   16.1829 C   0  0  0  0  0  0  0  0  0  0  0  0
   -4.2817    2.6144   15.6748 C   0  0  0  0  0  0  0  0  0  0  0  0
   -3.7864    3.4143   14.6884 C   0  0  0  0  0  0  0  0  0  0  0  0
   -4.6156    4.4980   14.1541 C   0  0  0  0  0  0  0  0  0  0  0  0
   -5.9052    4.7329   14.5917 C   0  0  0  0  0  0  0  0  0  0  0  0
   -6.4470    3.8631   15.6774 C   0  0  0  0  0  0  0  0  0  0  0  0
   -6.1859    2.7103   18.7297 N   0  0  0  0  0  0  0  0  0  0  0  0
   -5.3350    0.6454   17.5303 O   0  0  0  0  0  0  0  0  0  0  0  0
   -6.2022    1.7639   17.4480 S   0  0  0  0  0  0  0  0  0  0  0  0
   -7.5621    1.4495   17.0902 O   0  0  0  0  0  0  0  0  0  0  0  0
   -5.2213    2.9294   18.9783 H   0  0  0  0  0  0  0  0  0  0  0  0
   -6.6383    2.2338   19.5099 H   0  0  0  0  0  0  0  0  0  0  0  0
   -2.9819    5.6295   10.8624 C   0  0  0  0  0  0  0  0  0  0  0  0
   -2.0437   10.0204   12.6731 O   0  0  0  0  0  0  0  0  0  0  0  0
   -3.2394    7.0969   11.0508 C   0  0  0  0  0  0  0  0  0  0  0  0
   -2.4943    7.9058   11.9143 C   0  0  0  0  0  0  0  0  0  0  0  0
   -2.7101    9.2917   11.9433 C   0  0  0  0  0  0  0  0  0  0  0  0
   -3.6268    9.9798   11.1585 O   0  0  0  0  0  0  0  0  0  0  0  0
   -4.4938    9.1566   10.3931 C   0  0  0  0  0  0  0  0  0  0  0  0
   -5.6240    9.8303    9.7274 C   0  0  0  0  0  0  0  0  0  0  0  0
   -6.5280    9.1002    8.9993 C   0  0  0  0  0  0  0  0  0  0  0  0
   -6.4022    7.5995    8.9581 C   0  0  0  0  0  0  0  0  0  0  0  0
   -5.3611    6.9591    9.5903 C   0  0  0  0  0  0  0  0  0  0  0  0
   -4.3709    7.7608   10.3620 C   0  0  0  0  0  0  0  0  0  0  0  0
   -7.5691    9.7457    8.3054 O   0  0  0  0  0  0  0  0  0  0  0  0
   -8.7726    9.0907    7.8427 C   0  0  0  0  0  0  0  0  0  0  0  0
 10  5  2  0  0  0
  6  5  1  0  0  0
  5 13  1  0  0  0
 11 13  1  0  0  0
 12 13  2  0  0  0
 13 14  2  0  0  0
  7  6  2  0  0  0
  8  7  1  0  0  0
  2  1  2  0  0  0
  3  8  1  0  0  0
  8  9  2  0  0  0
 21 18  2  0  0  0
  9 10  1  0  0  0
 17  2  1  0  0  0
  2  3  1  0  0  0
 17 19  1  0  0  0
 28 19  1  0  0  0
 19 20  2  0  0  0
 20 21  1  0  0  0
 22 21  1  0  0  0
 23 22  1  0  0  0
 28 23  2  0  0  0
 24 23  1  0  0  0
 25 24  2  0  0  0
 26 25  1  0  0  0
 29 25  1  0  0  0
 26 27  2  0  0  0
 27 28  1  0  0  0
 29 30  1  0  0  0
 11 15  1  0  0  0
 11 16  1  0  0  0
  3  4  1  0  0  0
M  END
> <minimizedAffinity>
-7.45281

$$$$
3ML2_SU0_A_263


 30 32  0  0  0  0  0  0  0  0999 V2000
   -1.7812    5.9723   12.4632 O   0  0  0  0  0  0  0  0  0  0  0  0
   -2.9616    6.3310   12.4140 C   0  0  0  0  0  0  0  0  0  0  0  0
   -3.3489    7.4802   13.1646 N   0  0  0  0  0  0  0  0  0  0  0  0
   -4.3047    7.6495   13.3289 H   0  0  0  0  0  0  0  0  0  0  0  0
   -0.5244   10.4061   14.3311 C   0  0  0  0  0  0  0  0  0  0  0  0
   -1.0788   10.3406   12.9560 C   0  0  0  0  0  0  0  0  0  0  0  0
   -1.9767    9.3605   12.6538 C   0  0  0  0  0  0  0  0  0  0  0  0
   -2.3691    8.3984   13.6872 C   0  0  0  0  0  0  0  0  0  0  0  0
   -1.8430    8.4231   14.9649 C   0  0  0  0  0  0  0  0  0  0  0  0
   -0.8655    9.5004   15.3004 C   0  0  0  0  0  0  0  0  0  0  0  0
    1.8379   11.2725   13.6497 N   0  0  0  0  0  0  0  0  0  0  0  0
    0.9836   11.7654   15.9850 O   0  0  0  0  0  0  0  0  0  0  0  0
    0.6421   11.7033   14.6105 S   0  0  0  0  0  0  0  0  0  0  0  0
    0.0013   12.8856   14.0927 O   0  0  0  0  0  0  0  0  0  0  0  0
    2.2876   10.4355   14.0209 H   0  0  0  0  0  0  0  0  0  0  0  0
    2.5197   12.0291   13.5952 H   0  0  0  0  0  0  0  0  0  0  0  0
   -4.1026    5.5189   11.8196 C   0  0  0  0  0  0  0  0  0  0  0  0
   -2.3849    1.3164   10.1379 O   0  0  0  0  0  0  0  0  0  0  0  0
   -3.7765    4.0562   11.9171 C   0  0  0  0  0  0  0  0  0  0  0  0
   -3.2644    3.3079   10.8527 C   0  0  0  0  0  0  0  0  0  0  0  0
   -2.8651    1.9781   11.0539 C   0  0  0  0  0  0  0  0  0  0  0  0
   -2.9206    1.2956   12.2626 O   0  0  0  0  0  0  0  0  0  0  0  0
   -3.5796    1.9903   13.3105 C   0  0  0  0  0  0  0  0  0  0  0  0
   -3.8630    1.2197   14.5353 C   0  0  0  0  0  0  0  0  0  0  0  0
   -4.5293    1.8078   15.5796 C   0  0  0  0  0  0  0  0  0  0  0  0
   -5.0408    3.2168   15.4288 C   0  0  0  0  0  0  0  0  0  0  0  0
   -4.7969    3.9391   14.2832 C   0  0  0  0  0  0  0  0  0  0  0  0
   -4.0541    3.3006   13.1610 C   0  0  0  0  0  0  0  0  0  0  0  0
   -4.7420    1.0986   16.7771 O   0  0  0  0  0  0  0  0  0  0  0  0
   -6.0441    0.8110   17.3369 C   0  0  0  0  0  0  0  0  0  0  0  0
 10  5  2  0  0  0
  6  5  1  0  0  0
  5 13  1  0  0  0
 11 13  1  0  0  0
 12 13  2  0  0  0
 13 14  2  0  0  0
  7  6  2  0  0  0
  8  7  1  0  0  0
  2  1  2  0  0  0
  3  8  1  0  0  0
  8  9  2  0  0  0
 21 18  2  0  0  0
  9 10  1  0  0  0
 17  2  1  0  0  0
  2  3  1  0  0  0
 17 19  1  0  0  0
 28 19  1  0  0  0
 19 20  2  0  0  0
 20 21  1  0  0  0
 22 21  1  0  0  0
 23 22  1  0  0  0
 28 23  2  0  0  0
 24 23  1  0  0  0
 25 24  2  0  0  0
 26 25  1  0  0  0
 29 25  1  0  0  0
 26 27  2  0  0  0
 27 28  1  0  0  0
 29 30  1  0  0  0
 11 15  1  0  0  0
 11 16  1  0  0  0
  3  4  1  0  0  0
M  END
> <minimizedAffinity>
-7.38615

$$$$
3ML2_SU0_A_263


 30 32  0  0  0  0  0  0  0  0999 V2000
   -0.3990    7.8999   12.5019 O   0  0  0  0  0  0  0  0  0  0  0  0
   -1.0568    7.4615   13.4503 C   0  0  0  0  0  0  0  0  0  0  0  0
   -1.3546    8.3448   14.5297 N   0  0  0  0  0  0  0  0  0  0  0  0
   -1.6674    7.9724   15.3857 H   0  0  0  0  0  0  0  0  0  0  0  0
   -0.5170   12.4849   14.2873 C   0  0  0  0  0  0  0  0  0  0  0  0
    0.3711   11.5350   15.0027 C   0  0  0  0  0  0  0  0  0  0  0  0
    0.0266   10.2169   15.0466 C   0  0  0  0  0  0  0  0  0  0  0  0
   -1.2067    9.7716   14.3924 C   0  0  0  0  0  0  0  0  0  0  0  0
   -2.0628   10.6434   13.7467 C   0  0  0  0  0  0  0  0  0  0  0  0
   -1.6837   12.0862   13.6905 C   0  0  0  0  0  0  0  0  0  0  0  0
   -0.0765   14.5184   15.8576 N   0  0  0  0  0  0  0  0  0  0  0  0
   -0.8250   14.9552   13.4753 O   0  0  0  0  0  0  0  0  0  0  0  0
    0.0139   14.1698   14.3056 S   0  0  0  0  0  0  0  0  0  0  0  0
    1.3945   14.1200   13.8957 O   0  0  0  0  0  0  0  0  0  0  0  0
   -1.0555   14.5524   16.1420 H   0  0  0  0  0  0  0  0  0  0  0  0
    0.3588   15.4249   16.0284 H   0  0  0  0  0  0  0  0  0  0  0  0
   -1.3758    5.9941   13.6946 C   0  0  0  0  0  0  0  0  0  0  0  0
   -5.8172    7.1022   12.1183 O   0  0  0  0  0  0  0  0  0  0  0  0
   -2.8558    5.7772   13.5614 C   0  0  0  0  0  0  0  0  0  0  0  0
   -3.7106    6.6719   12.9104 C   0  0  0  0  0  0  0  0  0  0  0  0
   -5.0600    6.3417   12.7148 C   0  0  0  0  0  0  0  0  0  0  0  0
   -5.6638    5.1556   13.1130 O   0  0  0  0  0  0  0  0  0  0  0  0
   -4.8485    4.3085   13.9083 C   0  0  0  0  0  0  0  0  0  0  0  0
   -5.5163    3.1558   14.5405 C   0  0  0  0  0  0  0  0  0  0  0  0
   -4.8063    2.3104   15.3539 C   0  0  0  0  0  0  0  0  0  0  0  0
   -3.3642    2.6197   15.6608 C   0  0  0  0  0  0  0  0  0  0  0  0
   -2.7359    3.7028   15.0899 C   0  0  0  0  0  0  0  0  0  0  0  0
   -3.5081    4.6050   14.1905 C   0  0  0  0  0  0  0  0  0  0  0  0
   -5.4216    1.1702   15.9047 O   0  0  0  0  0  0  0  0  0  0  0  0
   -6.3283    1.1940   17.0312 C   0  0  0  0  0  0  0  0  0  0  0  0
 10  5  2  0  0  0
  6  5  1  0  0  0
  5 13  1  0  0  0
 11 13  1  0  0  0
 12 13  2  0  0  0
 13 14  2  0  0  0
  7  6  2  0  0  0
  8  7  1  0  0  0
  2  1  2  0  0  0
  3  8  1  0  0  0
  8  9  2  0  0  0
 21 18  2  0  0  0
  9 10  1  0  0  0
 17  2  1  0  0  0
  2  3  1  0  0  0
 17 19  1  0  0  0
 28 19  1  0  0  0
 19 20  2  0  0  0
 20 21  1  0  0  0
 22 21  1  0  0  0
 23 22  1  0  0  0
 28 23  2  0  0  0
 24 23  1  0  0  0
 25 24  2  0  0  0
 26 25  1  0  0  0
 29 25  1  0  0  0
 26 27  2  0  0  0
 27 28  1  0  0  0
 29 30  1  0  0  0
 11 15  1  0  0  0
 11 16  1  0  0  0
  3  4  1  0  0  0
M  END
> <minimizedAffinity>
-7.29480

$$$$
