4WOV_3SM_A_901


 31 34  0  0  0  0  0  0  0  0999 V2000
    6.0934    3.3047    6.7772 N   0  0  0  0  0  0  0  0  0  0  0  0
    5.3739    4.3303    7.3020 C   0  0  0  0  0  0  0  0  0  0  0  0
    5.4988    5.4710    6.6663 N   0  0  0  0  0  0  0  0  0  0  0  0
    6.3858    5.1837    5.6407 C   0  0  0  0  0  0  0  0  0  0  0  0
    6.7569    3.8297    5.6927 C   0  0  0  0  0  0  0  0  0  0  0  0
    7.6608    3.2321    4.8012 C   0  0  0  0  0  0  0  0  0  0  0  0
    8.1767    4.1435    3.8669 C   0  0  0  0  0  0  0  0  0  0  0  0
    9.0889    3.4844    3.0719 N   0  0  0  0  0  0  0  0  0  0  0  0
    9.1194    2.1537    3.4518 C   0  0  0  0  0  0  0  0  0  0  0  0
    8.2723    1.9742    4.5089 C   0  0  0  0  0  0  0  0  0  0  0  0
    7.8413    5.4449    3.7730 N   0  0  0  0  0  0  0  0  0  0  0  0
    6.9622    5.9951    4.6297 C   0  0  0  0  0  0  0  0  0  0  0  0
    6.1397    1.9200    7.2377 C   0  0  0  0  0  0  0  0  0  0  0  0
    9.6277    3.8910    2.3553 H   0  0  0  0  0  0  0  0  0  0  0  0
   10.3771   -1.0241    2.2168 C   0  0  0  0  0  0  0  0  0  0  0  0
   11.3051    1.5476    2.4179 C   0  0  0  0  0  0  0  0  0  0  0  0
   12.1345    0.5599    1.9059 C   0  0  0  0  0  0  0  0  0  0  0  0
   10.0486    1.1778    2.8674 C   0  0  0  0  0  0  0  0  0  0  0  0
    9.5780   -0.0749    2.7554 N   0  0  0  0  0  0  0  0  0  0  0  0
   11.6719   -0.7434    1.7989 C   0  0  0  0  0  0  0  0  0  0  0  0
    9.7663   -2.3969    2.0613 C   0  0  0  0  0  0  0  0  0  0  0  0
   10.3367   -4.6122    1.1436 C   0  0  0  0  0  0  0  0  0  0  0  0
   10.5893   -3.3039    1.2749 N   0  0  0  0  0  0  0  0  0  0  0  0
    9.3886   -5.1833    1.6802 O   0  0  0  0  0  0  0  0  0  0  0  0
   11.3764   -2.9345    0.8132 H   0  0  0  0  0  0  0  0  0  0  0  0
   11.2831   -5.4089    0.2779 C   0  0  0  0  0  0  0  0  0  0  0  0
   13.2348   -4.5098   -0.7601 C   0  0  0  0  0  0  0  0  0  0  0  0
   12.5359   -4.7676    0.4554 O   0  0  0  0  0  0  0  0  0  0  0  0
    5.5684    7.8201    3.7606 C   0  0  0  0  0  0  0  0  0  0  0  0
    6.6793    7.3012    4.5321 N   0  0  0  0  0  0  0  0  0  0  0  0
    7.2559    7.9409    5.0092 H   0  0  0  0  0  0  0  0  0  0  0  0
 24 22  2  0  0  0
 28 26  1  0  0  0
 28 27  1  0  0  0
 26 22  1  0  0  0
 22 23  1  0  0  0
 29 30  1  0  0  0
 23 21  1  0  0  0
 21 15  1  0  0  0
 30 12  1  0  0  0
 11 12  2  0  0  0
 11  7  1  0  0  0
 12  4  1  0  0  0
 15 19  2  0  0  0
 15 20  1  0  0  0
 19 18  1  0  0  0
  8  7  1  0  0  0
  8  9  1  0  0  0
  7  6  2  0  0  0
  4  3  1  0  0  0
  4  5  2  0  0  0
 20 17  2  0  0  0
  9 18  1  0  0  0
  9 10  2  0  0  0
 18 16  2  0  0  0
  3  2  2  0  0  0
  6  5  1  0  0  0
  6 10  1  0  0  0
  5  1  1  0  0  0
 17 16  1  0  0  0
  2  1  1  0  0  0
  1 13  1  0  0  0
  8 14  1  0  0  0
 23 25  1  0  0  0
 30 31  1  0  0  0
M  END
> <minimizedAffinity>
-8.83050

$$$$
4WOV_3SM_A_901


 31 34  0  0  0  0  0  0  0  0999 V2000
   11.0516    2.6787    2.0309 N   0  0  0  0  0  0  0  0  0  0  0  0
   10.5242    3.8432    2.4901 C   0  0  0  0  0  0  0  0  0  0  0  0
    9.4066    3.7122    3.1644 N   0  0  0  0  0  0  0  0  0  0  0  0
    9.1629    2.3479    3.1406 C   0  0  0  0  0  0  0  0  0  0  0  0
   10.1899    1.6893    2.4439 C   0  0  0  0  0  0  0  0  0  0  0  0
   10.2234    0.3034    2.2271 C   0  0  0  0  0  0  0  0  0  0  0  0
    9.1018   -0.3514    2.7591 C   0  0  0  0  0  0  0  0  0  0  0  0
    9.1938   -1.6921    2.4546 N   0  0  0  0  0  0  0  0  0  0  0  0
   10.3856   -1.9078    1.7844 C   0  0  0  0  0  0  0  0  0  0  0  0
   11.0252   -0.7115    1.6199 C   0  0  0  0  0  0  0  0  0  0  0  0
    8.1011    0.2369    3.4429 N   0  0  0  0  0  0  0  0  0  0  0  0
    8.0950    1.5658    3.6513 C   0  0  0  0  0  0  0  0  0  0  0  0
   12.2904    2.4950    1.2805 C   0  0  0  0  0  0  0  0  0  0  0  0
    8.5252   -2.3800    2.6761 H   0  0  0  0  0  0  0  0  0  0  0  0
   12.3427   -4.4163    0.0288 C   0  0  0  0  0  0  0  0  0  0  0  0
   10.0012   -4.3482    1.4528 C   0  0  0  0  0  0  0  0  0  0  0  0
   10.4144   -5.5397    0.8738 C   0  0  0  0  0  0  0  0  0  0  0  0
   10.7669   -3.2152    1.2345 C   0  0  0  0  0  0  0  0  0  0  0  0
   11.9249   -3.2424    0.5551 N   0  0  0  0  0  0  0  0  0  0  0  0
   11.5989   -5.5830    0.1534 C   0  0  0  0  0  0  0  0  0  0  0  0
   13.6824   -4.3924   -0.6686 C   0  0  0  0  0  0  0  0  0  0  0  0
   13.8415   -4.4758   -3.1269 C   0  0  0  0  0  0  0  0  0  0  0  0
   13.6270   -3.7944   -1.9945 N   0  0  0  0  0  0  0  0  0  0  0  0
   14.1153   -5.6745   -3.1628 O   0  0  0  0  0  0  0  0  0  0  0  0
   13.4200   -2.8344   -2.0626 H   0  0  0  0  0  0  0  0  0  0  0  0
   13.7307   -3.7058   -4.4210 C   0  0  0  0  0  0  0  0  0  0  0  0
   12.6972   -1.6360   -5.0060 C   0  0  0  0  0  0  0  0  0  0  0  0
   13.3849   -2.3922   -4.0124 O   0  0  0  0  0  0  0  0  0  0  0  0
    7.1671    2.6542    5.6469 C   0  0  0  0  0  0  0  0  0  0  0  0
    7.0657    2.1240    4.3026 N   0  0  0  0  0  0  0  0  0  0  0  0
    6.1960    2.1764    3.8441 H   0  0  0  0  0  0  0  0  0  0  0  0
 24 22  2  0  0  0
 28 26  1  0  0  0
 28 27  1  0  0  0
 26 22  1  0  0  0
 22 23  1  0  0  0
 29 30  1  0  0  0
 23 21  1  0  0  0
 21 15  1  0  0  0
 30 12  1  0  0  0
 11 12  2  0  0  0
 11  7  1  0  0  0
 12  4  1  0  0  0
 15 19  2  0  0  0
 15 20  1  0  0  0
 19 18  1  0  0  0
  8  7  1  0  0  0
  8  9  1  0  0  0
  7  6  2  0  0  0
  4  3  1  0  0  0
  4  5  2  0  0  0
 20 17  2  0  0  0
  9 18  1  0  0  0
  9 10  2  0  0  0
 18 16  2  0  0  0
  3  2  2  0  0  0
  6  5  1  0  0  0
  6 10  1  0  0  0
  5  1  1  0  0  0
 17 16  1  0  0  0
  2  1  1  0  0  0
  1 13  1  0  0  0
  8 14  1  0  0  0
 23 25  1  0  0  0
 30 31  1  0  0  0
M  END
> <minimizedAffinity>
-8.70620

$$$$
4WOV_3SM_A_901


 31 34  0  0  0  0  0  0  0  0999 V2000
   10.5018   -4.5970    1.2301 N   0  0  0  0  0  0  0  0  0  0  0  0
   10.9933   -5.6785    0.5716 C   0  0  0  0  0  0  0  0  0  0  0  0
   12.0249   -5.4301   -0.1999 N   0  0  0  0  0  0  0  0  0  0  0  0
   12.2285   -4.0671   -0.0527 C   0  0  0  0  0  0  0  0  0  0  0  0
   11.2893   -3.5362    0.8472 C   0  0  0  0  0  0  0  0  0  0  0  0
   11.2186   -2.1781    1.1927 C   0  0  0  0  0  0  0  0  0  0  0  0
   12.1731   -1.4012    0.5179 C   0  0  0  0  0  0  0  0  0  0  0  0
   11.9957   -0.0828    0.8770 N   0  0  0  0  0  0  0  0  0  0  0  0
   10.9778   -0.0173    1.8128 C   0  0  0  0  0  0  0  0  0  0  0  0
   10.4780   -1.2731    2.0137 C   0  0  0  0  0  0  0  0  0  0  0  0
   13.0984   -1.8683   -0.3426 N   0  0  0  0  0  0  0  0  0  0  0  0
   13.1575   -3.1766   -0.6501 C   0  0  0  0  0  0  0  0  0  0  0  0
    9.3896   -4.5574    2.1750 C   0  0  0  0  0  0  0  0  0  0  0  0
   12.5062    0.6829    0.5272 H   0  0  0  0  0  0  0  0  0  0  0  0
    8.8537    2.2826    3.6578 C   0  0  0  0  0  0  0  0  0  0  0  0
   11.1109    2.4539    2.1115 C   0  0  0  0  0  0  0  0  0  0  0  0
   10.5481    3.6117    2.6297 C   0  0  0  0  0  0  0  0  0  0  0  0
   10.4676    1.2510    2.3498 C   0  0  0  0  0  0  0  0  0  0  0  0
    9.3729    1.1545    3.1217 N   0  0  0  0  0  0  0  0  0  0  0  0
    9.4072    3.5334    3.4147 C   0  0  0  0  0  0  0  0  0  0  0  0
    7.6611    2.0985    4.5663 C   0  0  0  0  0  0  0  0  0  0  0  0
    6.6640    4.0611    5.6752 C   0  0  0  0  0  0  0  0  0  0  0  0
    6.7879    3.2624    4.6078 N   0  0  0  0  0  0  0  0  0  0  0  0
    7.2686    3.8890    6.7325 O   0  0  0  0  0  0  0  0  0  0  0  0
    6.2584    3.4743    3.8054 H   0  0  0  0  0  0  0  0  0  0  0  0
    5.7247    5.2362    5.5458 C   0  0  0  0  0  0  0  0  0  0  0  0
    4.7674    5.9409    3.4766 C   0  0  0  0  0  0  0  0  0  0  0  0
    4.9011    4.8997    4.4410 O   0  0  0  0  0  0  0  0  0  0  0  0
   13.9747   -3.3371   -2.9597 C   0  0  0  0  0  0  0  0  0  0  0  0
   14.0657   -3.6023   -1.5384 N   0  0  0  0  0  0  0  0  0  0  0  0
   14.8341   -4.1218   -1.2085 H   0  0  0  0  0  0  0  0  0  0  0  0
 24 22  2  0  0  0
 28 26  1  0  0  0
 28 27  1  0  0  0
 26 22  1  0  0  0
 22 23  1  0  0  0
 29 30  1  0  0  0
 23 21  1  0  0  0
 21 15  1  0  0  0
 30 12  1  0  0  0
 11 12  2  0  0  0
 11  7  1  0  0  0
 12  4  1  0  0  0
 15 19  2  0  0  0
 15 20  1  0  0  0
 19 18  1  0  0  0
  8  7  1  0  0  0
  8  9  1  0  0  0
  7  6  2  0  0  0
  4  3  1  0  0  0
  4  5  2  0  0  0
 20 17  2  0  0  0
  9 18  1  0  0  0
  9 10  2  0  0  0
 18 16  2  0  0  0
  3  2  2  0  0  0
  6  5  1  0  0  0
  6 10  1  0  0  0
  5  1  1  0  0  0
 17 16  1  0  0  0
  2  1  1  0  0  0
  1 13  1  0  0  0
  8 14  1  0  0  0
 23 25  1  0  0  0
 30 31  1  0  0  0
M  END
> <minimizedAffinity>
-8.67720

$$$$
4WOV_3SM_A_901


 31 34  0  0  0  0  0  0  0  0999 V2000
   10.8827   -4.4143    0.5406 N   0  0  0  0  0  0  0  0  0  0  0  0
   10.5129   -5.7088    0.7207 C   0  0  0  0  0  0  0  0  0  0  0  0
    9.6501   -5.9041    1.6895 N   0  0  0  0  0  0  0  0  0  0  0  0
    9.4384   -4.6353    2.2058 C   0  0  0  0  0  0  0  0  0  0  0  0
   10.1953   -3.6934    1.4891 C   0  0  0  0  0  0  0  0  0  0  0  0
   10.2149   -2.3211    1.7811 C   0  0  0  0  0  0  0  0  0  0  0  0
    9.4158   -1.9953    2.8878 C   0  0  0  0  0  0  0  0  0  0  0  0
    9.5372   -0.6445    3.1314 N   0  0  0  0  0  0  0  0  0  0  0  0
   10.3588   -0.0971    2.1613 C   0  0  0  0  0  0  0  0  0  0  0  0
   10.7964   -1.0942    1.3357 C   0  0  0  0  0  0  0  0  0  0  0  0
    8.6657   -2.8618    3.5960 N   0  0  0  0  0  0  0  0  0  0  0  0
    8.6508   -4.1719    3.2910 C   0  0  0  0  0  0  0  0  0  0  0  0
   11.7951   -3.8790   -0.4657 C   0  0  0  0  0  0  0  0  0  0  0  0
    9.1117   -0.1523    3.8703 H   0  0  0  0  0  0  0  0  0  0  0  0
   10.1781    3.4954    2.6780 C   0  0  0  0  0  0  0  0  0  0  0  0
   12.0393    1.7011    1.7661 C   0  0  0  0  0  0  0  0  0  0  0  0
   12.3421    3.0553    1.7737 C   0  0  0  0  0  0  0  0  0  0  0  0
   10.7725    1.3122    2.1680 C   0  0  0  0  0  0  0  0  0  0  0  0
    9.8610    2.1811    2.6343 N   0  0  0  0  0  0  0  0  0  0  0  0
   11.4066    3.9695    2.2354 C   0  0  0  0  0  0  0  0  0  0  0  0
    9.1337    4.4114    3.2711 C   0  0  0  0  0  0  0  0  0  0  0  0
    7.1037    4.3059    4.6651 C   0  0  0  0  0  0  0  0  0  0  0  0
    8.1573    3.7107    4.0921 N   0  0  0  0  0  0  0  0  0  0  0  0
    6.8573    5.5067    4.5635 O   0  0  0  0  0  0  0  0  0  0  0  0
    8.2784    2.7440    4.2341 H   0  0  0  0  0  0  0  0  0  0  0  0
    6.1779    3.4291    5.4738 C   0  0  0  0  0  0  0  0  0  0  0  0
    6.5926    1.9240    7.2786 C   0  0  0  0  0  0  0  0  0  0  0  0
    7.0328    2.4404    6.0250 O   0  0  0  0  0  0  0  0  0  0  0  0
    6.6141   -4.6819    4.5638 C   0  0  0  0  0  0  0  0  0  0  0  0
    7.9234   -5.0124    4.0391 N   0  0  0  0  0  0  0  0  0  0  0  0
    8.2978   -5.8998    4.2427 H   0  0  0  0  0  0  0  0  0  0  0  0
 24 22  2  0  0  0
 28 26  1  0  0  0
 28 27  1  0  0  0
 26 22  1  0  0  0
 22 23  1  0  0  0
 29 30  1  0  0  0
 23 21  1  0  0  0
 21 15  1  0  0  0
 30 12  1  0  0  0
 11 12  2  0  0  0
 11  7  1  0  0  0
 12  4  1  0  0  0
 15 19  2  0  0  0
 15 20  1  0  0  0
 19 18  1  0  0  0
  8  7  1  0  0  0
  8  9  1  0  0  0
  7  6  2  0  0  0
  4  3  1  0  0  0
  4  5  2  0  0  0
 20 17  2  0  0  0
  9 18  1  0  0  0
  9 10  2  0  0  0
 18 16  2  0  0  0
  3  2  2  0  0  0
  6  5  1  0  0  0
  6 10  1  0  0  0
  5  1  1  0  0  0
 17 16  1  0  0  0
  2  1  1  0  0  0
  1 13  1  0  0  0
  8 14  1  0  0  0
 23 25  1  0  0  0
 30 31  1  0  0  0
M  END
> <minimizedAffinity>
-8.34224

$$$$
4WOV_3SM_A_901


 31 34  0  0  0  0  0  0  0  0999 V2000
   11.1399    2.7651    2.0232 N   0  0  0  0  0  0  0  0  0  0  0  0
   10.5602    3.8891    2.5188 C   0  0  0  0  0  0  0  0  0  0  0  0
    9.4301    3.6900    3.1545 N   0  0  0  0  0  0  0  0  0  0  0  0
    9.2348    2.3208    3.0629 C   0  0  0  0  0  0  0  0  0  0  0  0
   10.3024    1.7295    2.3669 C   0  0  0  0  0  0  0  0  0  0  0  0
   10.3900    0.3569    2.0894 C   0  0  0  0  0  0  0  0  0  0  0  0
    9.2781   -0.3588    2.5596 C   0  0  0  0  0  0  0  0  0  0  0  0
    9.4249   -1.6804    2.1982 N   0  0  0  0  0  0  0  0  0  0  0  0
   10.6410   -1.8251    1.5532 C   0  0  0  0  0  0  0  0  0  0  0  0
   11.2427   -0.6017    1.4605 C   0  0  0  0  0  0  0  0  0  0  0  0
    8.2395    0.1637    3.2403 N   0  0  0  0  0  0  0  0  0  0  0  0
    8.1815    1.4808    3.5076 C   0  0  0  0  0  0  0  0  0  0  0  0
   12.4040    2.6576    1.3008 C   0  0  0  0  0  0  0  0  0  0  0  0
    8.7750   -2.3997    2.3697 H   0  0  0  0  0  0  0  0  0  0  0  0
   12.6609   -4.1547   -0.3699 C   0  0  0  0  0  0  0  0  0  0  0  0
   10.4197   -4.2832    1.2035 C   0  0  0  0  0  0  0  0  0  0  0  0
   10.8821   -5.4322    0.5777 C   0  0  0  0  0  0  0  0  0  0  0  0
   11.0823   -3.0926    0.9565 C   0  0  0  0  0  0  0  0  0  0  0  0
   12.1918   -3.0228    0.2033 N   0  0  0  0  0  0  0  0  0  0  0  0
   12.0166   -5.3761   -0.2184 C   0  0  0  0  0  0  0  0  0  0  0  0
   13.9463   -4.0199   -1.1519 C   0  0  0  0  0  0  0  0  0  0  0  0
   14.9489   -4.8475   -3.2460 C   0  0  0  0  0  0  0  0  0  0  0  0
   14.0333   -4.9431   -2.2738 N   0  0  0  0  0  0  0  0  0  0  0  0
   15.8050   -3.9657   -3.2953 O   0  0  0  0  0  0  0  0  0  0  0  0
   13.3818   -5.6798   -2.3205 H   0  0  0  0  0  0  0  0  0  0  0  0
   14.9092   -5.8979   -4.3299 C   0  0  0  0  0  0  0  0  0  0  0  0
   16.0450   -7.9359   -4.8312 C   0  0  0  0  0  0  0  0  0  0  0  0
   15.9332   -6.8092   -3.9651 O   0  0  0  0  0  0  0  0  0  0  0  0
    7.1371    2.3506    5.5523 C   0  0  0  0  0  0  0  0  0  0  0  0
    7.1162    1.9737    4.1537 N   0  0  0  0  0  0  0  0  0  0  0  0
    6.2764    2.0855    3.6523 H   0  0  0  0  0  0  0  0  0  0  0  0
 24 22  2  0  0  0
 28 26  1  0  0  0
 28 27  1  0  0  0
 26 22  1  0  0  0
 22 23  1  0  0  0
 29 30  1  0  0  0
 23 21  1  0  0  0
 21 15  1  0  0  0
 30 12  1  0  0  0
 11 12  2  0  0  0
 11  7  1  0  0  0
 12  4  1  0  0  0
 15 19  2  0  0  0
 15 20  1  0  0  0
 19 18  1  0  0  0
  8  7  1  0  0  0
  8  9  1  0  0  0
  7  6  2  0  0  0
  4  3  1  0  0  0
  4  5  2  0  0  0
 20 17  2  0  0  0
  9 18  1  0  0  0
  9 10  2  0  0  0
 18 16  2  0  0  0
  3  2  2  0  0  0
  6  5  1  0  0  0
  6 10  1  0  0  0
  5  1  1  0  0  0
 17 16  1  0  0  0
  2  1  1  0  0  0
  1 13  1  0  0  0
  8 14  1  0  0  0
 23 25  1  0  0  0
 30 31  1  0  0  0
M  END
> <minimizedAffinity>
-8.23464

$$$$
4WOV_3SM_A_901


 31 34  0  0  0  0  0  0  0  0999 V2000
   15.1908   -1.4641   -2.2543 N   0  0  0  0  0  0  0  0  0  0  0  0
   16.2004   -1.4724   -3.1629 C   0  0  0  0  0  0  0  0  0  0  0  0
   16.3556   -2.6077   -3.8015 N   0  0  0  0  0  0  0  0  0  0  0  0
   15.3761   -3.4275   -3.2635 C   0  0  0  0  0  0  0  0  0  0  0  0
   14.6339   -2.7209   -2.3024 C   0  0  0  0  0  0  0  0  0  0  0  0
   13.5818   -3.2799   -1.5612 C   0  0  0  0  0  0  0  0  0  0  0  0
   13.3695   -4.6335   -1.8653 C   0  0  0  0  0  0  0  0  0  0  0  0
   12.3597   -5.1092   -1.0575 N   0  0  0  0  0  0  0  0  0  0  0  0
   11.8893   -4.0629   -0.2829 C   0  0  0  0  0  0  0  0  0  0  0  0
   12.6222   -2.9428   -0.5576 C   0  0  0  0  0  0  0  0  0  0  0  0
   14.0476   -5.3464   -2.7856 N   0  0  0  0  0  0  0  0  0  0  0  0
   15.0444   -4.7874   -3.4951 C   0  0  0  0  0  0  0  0  0  0  0  0
   14.7546   -0.3516   -1.4155 C   0  0  0  0  0  0  0  0  0  0  0  0
   12.0289   -6.0362   -1.0350 H   0  0  0  0  0  0  0  0  0  0  0  0
    9.7281   -3.2604    2.5261 C   0  0  0  0  0  0  0  0  0  0  0  0
   10.1267   -5.4026    0.8625 C   0  0  0  0  0  0  0  0  0  0  0  0
    9.1987   -5.4985    1.8898 C   0  0  0  0  0  0  0  0  0  0  0  0
   10.8652   -4.2360    0.7556 C   0  0  0  0  0  0  0  0  0  0  0  0
   10.6638   -3.1746    1.5531 N   0  0  0  0  0  0  0  0  0  0  0  0
    8.9896   -4.4185    2.7347 C   0  0  0  0  0  0  0  0  0  0  0  0
    9.5068   -2.0119    3.3470 C   0  0  0  0  0  0  0  0  0  0  0  0
    9.5873    0.4395    3.1032 C   0  0  0  0  0  0  0  0  0  0  0  0
    9.8245   -0.7884    2.6254 N   0  0  0  0  0  0  0  0  0  0  0  0
    9.0695    0.6599    4.1970 O   0  0  0  0  0  0  0  0  0  0  0  0
   10.2374   -0.8684    1.7352 H   0  0  0  0  0  0  0  0  0  0  0  0
    9.9923    1.6038    2.2313 C   0  0  0  0  0  0  0  0  0  0  0  0
   12.3744    1.6937    2.3437 C   0  0  0  0  0  0  0  0  0  0  0  0
   11.1326    2.1416    2.8817 O   0  0  0  0  0  0  0  0  0  0  0  0
   16.9947   -6.1614   -4.0751 C   0  0  0  0  0  0  0  0  0  0  0  0
   15.7235   -5.5350   -4.3755 N   0  0  0  0  0  0  0  0  0  0  0  0
   15.3390   -5.6652   -5.2724 H   0  0  0  0  0  0  0  0  0  0  0  0
 24 22  2  0  0  0
 28 26  1  0  0  0
 28 27  1  0  0  0
 26 22  1  0  0  0
 22 23  1  0  0  0
 29 30  1  0  0  0
 23 21  1  0  0  0
 21 15  1  0  0  0
 30 12  1  0  0  0
 11 12  2  0  0  0
 11  7  1  0  0  0
 12  4  1  0  0  0
 15 19  2  0  0  0
 15 20  1  0  0  0
 19 18  1  0  0  0
  8  7  1  0  0  0
  8  9  1  0  0  0
  7  6  2  0  0  0
  4  3  1  0  0  0
  4  5  2  0  0  0
 20 17  2  0  0  0
  9 18  1  0  0  0
  9 10  2  0  0  0
 18 16  2  0  0  0
  3  2  2  0  0  0
  6  5  1  0  0  0
  6 10  1  0  0  0
  5  1  1  0  0  0
 17 16  1  0  0  0
  2  1  1  0  0  0
  1 13  1  0  0  0
  8 14  1  0  0  0
 23 25  1  0  0  0
 30 31  1  0  0  0
M  END
> <minimizedAffinity>
-8.05748

$$$$
4WOV_3SM_A_901


 31 34  0  0  0  0  0  0  0  0999 V2000
   12.6433    2.4958    0.1808 N   0  0  0  0  0  0  0  0  0  0  0  0
   12.6589    3.8417    0.3635 C   0  0  0  0  0  0  0  0  0  0  0  0
   11.8847    4.2741    1.3303 N   0  0  0  0  0  0  0  0  0  0  0  0
   11.2945    3.1210    1.8234 C   0  0  0  0  0  0  0  0  0  0  0  0
   11.7686    2.0009    1.1201 C   0  0  0  0  0  0  0  0  0  0  0  0
   11.3463    0.6860    1.3678 C   0  0  0  0  0  0  0  0  0  0  0  0
   10.3752    0.6145    2.3785 C   0  0  0  0  0  0  0  0  0  0  0  0
    9.9840   -0.6995    2.5159 N   0  0  0  0  0  0  0  0  0  0  0  0
   10.7328   -1.4723    1.6451 C   0  0  0  0  0  0  0  0  0  0  0  0
   11.5588   -0.6558    0.9252 C   0  0  0  0  0  0  0  0  0  0  0  0
    9.9008    1.6584    3.0858 N   0  0  0  0  0  0  0  0  0  0  0  0
   10.3290    2.9100    2.8413 C   0  0  0  0  0  0  0  0  0  0  0  0
   13.4122    1.7178   -0.7860 C   0  0  0  0  0  0  0  0  0  0  0  0
    9.2896   -1.0324    3.1294 H   0  0  0  0  0  0  0  0  0  0  0  0
   11.1852   -4.8472    0.3760 C   0  0  0  0  0  0  0  0  0  0  0  0
    9.5713   -3.6041    2.2106 C   0  0  0  0  0  0  0  0  0  0  0  0
    9.4065   -4.9596    1.9628 C   0  0  0  0  0  0  0  0  0  0  0  0
   10.5153   -2.9141    1.4687 C   0  0  0  0  0  0  0  0  0  0  0  0
   11.3235   -3.5175    0.5821 N   0  0  0  0  0  0  0  0  0  0  0  0
   10.2203   -5.5964    1.0375 C   0  0  0  0  0  0  0  0  0  0  0  0
   12.1655   -5.4758   -0.5860 C   0  0  0  0  0  0  0  0  0  0  0  0
   13.6470   -4.5281   -2.3129 C   0  0  0  0  0  0  0  0  0  0  0  0
   13.1809   -4.5459   -1.0580 N   0  0  0  0  0  0  0  0  0  0  0  0
   13.2712   -5.3005   -3.1935 O   0  0  0  0  0  0  0  0  0  0  0  0
   13.5457   -3.8928   -0.4179 H   0  0  0  0  0  0  0  0  0  0  0  0
   14.6904   -3.4873   -2.6414 C   0  0  0  0  0  0  0  0  0  0  0  0
   16.8469   -4.5079   -2.6905 C   0  0  0  0  0  0  0  0  0  0  0  0
   15.6542   -4.1940   -3.4054 O   0  0  0  0  0  0  0  0  0  0  0  0
    8.3925    4.0695    3.8076 C   0  0  0  0  0  0  0  0  0  0  0  0
    9.8089    3.9300    3.5372 N   0  0  0  0  0  0  0  0  0  0  0  0
   10.4205    4.6199    3.8823 H   0  0  0  0  0  0  0  0  0  0  0  0
 24 22  2  0  0  0
 28 26  1  0  0  0
 28 27  1  0  0  0
 26 22  1  0  0  0
 22 23  1  0  0  0
 29 30  1  0  0  0
 23 21  1  0  0  0
 21 15  1  0  0  0
 30 12  1  0  0  0
 11 12  2  0  0  0
 11  7  1  0  0  0
 12  4  1  0  0  0
 15 19  2  0  0  0
 15 20  1  0  0  0
 19 18  1  0  0  0
  8  7  1  0  0  0
  8  9  1  0  0  0
  7  6  2  0  0  0
  4  3  1  0  0  0
  4  5  2  0  0  0
 20 17  2  0  0  0
  9 18  1  0  0  0
  9 10  2  0  0  0
 18 16  2  0  0  0
  3  2  2  0  0  0
  6  5  1  0  0  0
  6 10  1  0  0  0
  5  1  1  0  0  0
 17 16  1  0  0  0
  2  1  1  0  0  0
  1 13  1  0  0  0
  8 14  1  0  0  0
 23 25  1  0  0  0
 30 31  1  0  0  0
M  END
> <minimizedAffinity>
-8.04351

$$$$
4WOV_3SM_A_901


 31 34  0  0  0  0  0  0  0  0999 V2000
   14.2612   -3.7195   -2.7152 N   0  0  0  0  0  0  0  0  0  0  0  0
   15.2789   -3.3787   -3.5478 C   0  0  0  0  0  0  0  0  0  0  0  0
   15.7608   -2.1729   -3.3616 N   0  0  0  0  0  0  0  0  0  0  0  0
   14.9907   -1.6639   -2.3277 C   0  0  0  0  0  0  0  0  0  0  0  0
   14.0563   -2.6252   -1.9074 C   0  0  0  0  0  0  0  0  0  0  0  0
   13.1154   -2.4080   -0.8894 C   0  0  0  0  0  0  0  0  0  0  0  0
   13.1912   -1.1126   -0.3545 C   0  0  0  0  0  0  0  0  0  0  0  0
   12.2023   -0.9739    0.5949 N   0  0  0  0  0  0  0  0  0  0  0  0
   11.5343   -2.1807    0.7106 C   0  0  0  0  0  0  0  0  0  0  0  0
   12.0584   -3.0662   -0.1886 C   0  0  0  0  0  0  0  0  0  0  0  0
   14.0765   -0.1645   -0.7180 N   0  0  0  0  0  0  0  0  0  0  0  0
   14.9793   -0.3978   -1.6875 C   0  0  0  0  0  0  0  0  0  0  0  0
   13.5441   -4.9898   -2.6563 C   0  0  0  0  0  0  0  0  0  0  0  0
   12.0043   -0.1551    1.1046 H   0  0  0  0  0  0  0  0  0  0  0  0
    8.4348   -1.4067    2.4424 C   0  0  0  0  0  0  0  0  0  0  0  0
   10.1014   -3.5702    2.2038 C   0  0  0  0  0  0  0  0  0  0  0  0
    8.9880   -3.6529    3.0279 C   0  0  0  0  0  0  0  0  0  0  0  0
   10.3611   -2.3641    1.5750 C   0  0  0  0  0  0  0  0  0  0  0  0
    9.5407   -1.3052    1.6702 N   0  0  0  0  0  0  0  0  0  0  0  0
    8.1386   -2.5634    3.1526 C   0  0  0  0  0  0  0  0  0  0  0  0
    7.5219   -0.2034    2.4569 C   0  0  0  0  0  0  0  0  0  0  0  0
    8.6752    1.7791    3.3598 C   0  0  0  0  0  0  0  0  0  0  0  0
    8.2352    1.0581    2.3210 N   0  0  0  0  0  0  0  0  0  0  0  0
    8.5149    1.4539    4.5352 O   0  0  0  0  0  0  0  0  0  0  0  0
    8.4038    1.4006    1.4135 H   0  0  0  0  0  0  0  0  0  0  0  0
    9.4114    3.0587    3.0426 C   0  0  0  0  0  0  0  0  0  0  0  0
   11.6557    2.3222    2.7030 C   0  0  0  0  0  0  0  0  0  0  0  0
   10.6979    2.8659    3.6081 O   0  0  0  0  0  0  0  0  0  0  0  0
   15.4651    1.6316   -2.9812 C   0  0  0  0  0  0  0  0  0  0  0  0
   15.8207    0.5796   -2.0508 N   0  0  0  0  0  0  0  0  0  0  0  0
   16.7268    0.5830   -1.6659 H   0  0  0  0  0  0  0  0  0  0  0  0
 24 22  2  0  0  0
 28 26  1  0  0  0
 28 27  1  0  0  0
 26 22  1  0  0  0
 22 23  1  0  0  0
 29 30  1  0  0  0
 23 21  1  0  0  0
 21 15  1  0  0  0
 30 12  1  0  0  0
 11 12  2  0  0  0
 11  7  1  0  0  0
 12  4  1  0  0  0
 15 19  2  0  0  0
 15 20  1  0  0  0
 19 18  1  0  0  0
  8  7  1  0  0  0
  8  9  1  0  0  0
  7  6  2  0  0  0
  4  3  1  0  0  0
  4  5  2  0  0  0
 20 17  2  0  0  0
  9 18  1  0  0  0
  9 10  2  0  0  0
 18 16  2  0  0  0
  3  2  2  0  0  0
  6  5  1  0  0  0
  6 10  1  0  0  0
  5  1  1  0  0  0
 17 16  1  0  0  0
  2  1  1  0  0  0
  1 13  1  0  0  0
  8 14  1  0  0  0
 23 25  1  0  0  0
 30 31  1  0  0  0
M  END
> <minimizedAffinity>
-8.03474

$$$$
4WOV_3SM_A_901


 31 34  0  0  0  0  0  0  0  0999 V2000
    8.8115    1.9022    3.2296 N   0  0  0  0  0  0  0  0  0  0  0  0
    8.7672    3.2108    3.5913 C   0  0  0  0  0  0  0  0  0  0  0  0
    9.7583    3.9403    3.1370 N   0  0  0  0  0  0  0  0  0  0  0  0
   10.5341    3.0392    2.4247 C   0  0  0  0  0  0  0  0  0  0  0  0
    9.9471    1.7634    2.4660 C   0  0  0  0  0  0  0  0  0  0  0  0
   10.5018    0.6276    1.8569 C   0  0  0  0  0  0  0  0  0  0  0  0
   11.7245    0.8999    1.2239 C   0  0  0  0  0  0  0  0  0  0  0  0
   12.2177   -0.2764    0.7027 N   0  0  0  0  0  0  0  0  0  0  0  0
   11.2990   -1.2825    0.9473 C   0  0  0  0  0  0  0  0  0  0  0  0
   10.2533   -0.7654    1.6587 C   0  0  0  0  0  0  0  0  0  0  0  0
   12.3174    2.1073    1.1494 N   0  0  0  0  0  0  0  0  0  0  0  0
   11.7619    3.1865    1.7293 C   0  0  0  0  0  0  0  0  0  0  0  0
    7.8463    0.8549    3.5504 C   0  0  0  0  0  0  0  0  0  0  0  0
   13.0777   -0.3832    0.2355 H   0  0  0  0  0  0  0  0  0  0  0  0
   12.9125   -4.1901   -0.5184 C   0  0  0  0  0  0  0  0  0  0  0  0
   10.7405   -3.7080    1.0833 C   0  0  0  0  0  0  0  0  0  0  0  0
   11.0209   -5.0074    0.6849 C   0  0  0  0  0  0  0  0  0  0  0  0
   11.5440   -2.6886    0.6007 C   0  0  0  0  0  0  0  0  0  0  0  0
   12.6211   -2.9164   -0.1682 N   0  0  0  0  0  0  0  0  0  0  0  0
   12.1191   -5.2600   -0.1238 C   0  0  0  0  0  0  0  0  0  0  0  0
   14.1711   -4.3843   -1.3308 C   0  0  0  0  0  0  0  0  0  0  0  0
   14.3376   -4.9571   -3.7223 C   0  0  0  0  0  0  0  0  0  0  0  0
   13.9860   -4.1088   -2.7480 N   0  0  0  0  0  0  0  0  0  0  0  0
   14.8602   -6.0523   -3.5206 O   0  0  0  0  0  0  0  0  0  0  0  0
   13.5791   -3.2499   -3.0047 H   0  0  0  0  0  0  0  0  0  0  0  0
   14.0618   -4.5221   -5.1417 C   0  0  0  0  0  0  0  0  0  0  0  0
   13.7339   -2.4337   -6.2488 C   0  0  0  0  0  0  0  0  0  0  0  0
   13.7018   -3.1554   -5.0199 O   0  0  0  0  0  0  0  0  0  0  0  0
   13.1714    4.7940    0.5221 C   0  0  0  0  0  0  0  0  0  0  0  0
   12.3967    4.3649    1.6686 N   0  0  0  0  0  0  0  0  0  0  0  0
   12.3335    4.9699    2.4426 H   0  0  0  0  0  0  0  0  0  0  0  0
 24 22  2  0  0  0
 28 26  1  0  0  0
 28 27  1  0  0  0
 26 22  1  0  0  0
 22 23  1  0  0  0
 29 30  1  0  0  0
 23 21  1  0  0  0
 21 15  1  0  0  0
 30 12  1  0  0  0
 11 12  2  0  0  0
 11  7  1  0  0  0
 12  4  1  0  0  0
 15 19  2  0  0  0
 15 20  1  0  0  0
 19 18  1  0  0  0
  8  7  1  0  0  0
  8  9  1  0  0  0
  7  6  2  0  0  0
  4  3  1  0  0  0
  4  5  2  0  0  0
 20 17  2  0  0  0
  9 18  1  0  0  0
  9 10  2  0  0  0
 18 16  2  0  0  0
  3  2  2  0  0  0
  6  5  1  0  0  0
  6 10  1  0  0  0
  5  1  1  0  0  0
 17 16  1  0  0  0
  2  1  1  0  0  0
  1 13  1  0  0  0
  8 14  1  0  0  0
 23 25  1  0  0  0
 30 31  1  0  0  0
M  END
> <minimizedAffinity>
-7.97351

$$$$
4WOV_3SM_A_901


 31 34  0  0  0  0  0  0  0  0999 V2000
   10.9666   -4.5030    0.5391 N   0  0  0  0  0  0  0  0  0  0  0  0
   10.5246   -5.7615    0.7956 C   0  0  0  0  0  0  0  0  0  0  0  0
    9.6507   -5.8491    1.7701 N   0  0  0  0  0  0  0  0  0  0  0  0
    9.5095   -4.5415    2.2074 C   0  0  0  0  0  0  0  0  0  0  0  0
   10.3191   -3.6885    1.4387 C   0  0  0  0  0  0  0  0  0  0  0  0
   10.4150   -2.3042    1.6470 C   0  0  0  0  0  0  0  0  0  0  0  0
    9.6336   -1.8676    2.7280 C   0  0  0  0  0  0  0  0  0  0  0  0
    9.8300   -0.5135    2.8898 N   0  0  0  0  0  0  0  0  0  0  0  0
   10.6826   -0.0727    1.8924 C   0  0  0  0  0  0  0  0  0  0  0  0
   11.0649   -1.1411    1.1310 C   0  0  0  0  0  0  0  0  0  0  0  0
    8.8351   -2.6463    3.4836 N   0  0  0  0  0  0  0  0  0  0  0  0
    8.7473   -3.9696    3.2586 C   0  0  0  0  0  0  0  0  0  0  0  0
   11.9091   -4.0816   -0.4931 C   0  0  0  0  0  0  0  0  0  0  0  0
    9.4315    0.0458    3.5953 H   0  0  0  0  0  0  0  0  0  0  0  0
   12.2590    2.9025    0.5256 C   0  0  0  0  0  0  0  0  0  0  0  0
   10.9668    2.2139    2.8432 C   0  0  0  0  0  0  0  0  0  0  0  0
   11.4893    3.4922    2.7060 C   0  0  0  0  0  0  0  0  0  0  0  0
   11.1744    1.3091    1.8157 C   0  0  0  0  0  0  0  0  0  0  0  0
   11.7889    1.6423    0.6690 N   0  0  0  0  0  0  0  0  0  0  0  0
   12.1428    3.8491    1.5357 C   0  0  0  0  0  0  0  0  0  0  0  0
   12.8829    3.2308   -0.8104 C   0  0  0  0  0  0  0  0  0  0  0  0
   13.7351    1.3429   -2.1464 C   0  0  0  0  0  0  0  0  0  0  0  0
   13.9128    2.2829   -1.2096 N   0  0  0  0  0  0  0  0  0  0  0  0
   12.6816    1.1786   -2.7597 O   0  0  0  0  0  0  0  0  0  0  0  0
   14.7899    2.3359   -0.7656 H   0  0  0  0  0  0  0  0  0  0  0  0
   14.9131    0.4489   -2.4516 C   0  0  0  0  0  0  0  0  0  0  0  0
   14.9819   -1.9214   -2.7191 C   0  0  0  0  0  0  0  0  0  0  0  0
   14.3302   -0.6975   -3.0501 O   0  0  0  0  0  0  0  0  0  0  0  0
    6.6557   -4.3138    4.4975 C   0  0  0  0  0  0  0  0  0  0  0  0
    7.9728   -4.7212    4.0527 N   0  0  0  0  0  0  0  0  0  0  0  0
    8.3164   -5.5949    4.3490 H   0  0  0  0  0  0  0  0  0  0  0  0
 24 22  2  0  0  0
 28 26  1  0  0  0
 28 27  1  0  0  0
 26 22  1  0  0  0
 22 23  1  0  0  0
 29 30  1  0  0  0
 23 21  1  0  0  0
 21 15  1  0  0  0
 30 12  1  0  0  0
 11 12  2  0  0  0
 11  7  1  0  0  0
 12  4  1  0  0  0
 15 19  2  0  0  0
 15 20  1  0  0  0
 19 18  1  0  0  0
  8  7  1  0  0  0
  8  9  1  0  0  0
  7  6  2  0  0  0
  4  3  1  0  0  0
  4  5  2  0  0  0
 20 17  2  0  0  0
  9 18  1  0  0  0
  9 10  2  0  0  0
 18 16  2  0  0  0
  3  2  2  0  0  0
  6  5  1  0  0  0
  6 10  1  0  0  0
  5  1  1  0  0  0
 17 16  1  0  0  0
  2  1  1  0  0  0
  1 13  1  0  0  0
  8 14  1  0  0  0
 23 25  1  0  0  0
 30 31  1  0  0  0
M  END
> <minimizedAffinity>
-7.92445

$$$$
