5NXP_9DH_A_302


 25 26  0  0  0  0  0  0  0  0999 V2000
   -3.8116    6.7917   13.3886 N   0  0  0  0  0  0  0  0  0  0  0  0
   -3.2834    7.9836   13.6402 C   0  0  0  0  0  0  0  0  0  0  0  0
   -3.1894    8.4488   14.7703 O   0  0  0  0  0  0  0  0  0  0  0  0
   -3.7137    6.4278   12.4790 H   0  0  0  0  0  0  0  0  0  0  0  0
   -5.7965    6.2051   14.7989 C   0  0  0  0  0  0  0  0  0  0  0  0
   -6.2856    5.3127   15.7745 C   0  0  0  0  0  0  0  0  0  0  0  0
   -5.4979    4.2916   16.2818 C   0  0  0  0  0  0  0  0  0  0  0  0
   -4.1900    4.1580   15.7854 C   0  0  0  0  0  0  0  0  0  0  0  0
   -3.7015    5.0332   14.8216 C   0  0  0  0  0  0  0  0  0  0  0  0
   -4.4840    6.0350   14.3123 C   0  0  0  0  0  0  0  0  0  0  0  0
   -6.0849    3.1402   17.4505 S   0  0  0  0  0  0  0  0  0  0  0  0
   -5.1596    2.0152   17.4503 O   0  0  0  0  0  0  0  0  0  0  0  0
   -6.1731    3.9013   18.7176 O   0  0  0  0  0  0  0  0  0  0  0  0
   -7.4795    2.6550   16.9728 N   0  0  0  0  0  0  0  0  0  0  0  0
   -8.1306    3.4402   16.9715 H   0  0  0  0  0  0  0  0  0  0  0  0
   -7.8219    1.9304   17.6037 H   0  0  0  0  0  0  0  0  0  0  0  0
   -2.6544    8.7736   12.4578 C   0  0  0  0  0  0  0  0  0  0  0  0
   -3.3542    8.8062   11.1177 N   0  0  0  0  0  0  0  0  0  0  0  0
   -2.8761    7.9636    9.9946 C   0  0  0  0  0  0  0  0  0  0  0  0
   -4.5357    9.4340   10.9390 C   0  0  0  0  0  0  0  0  0  0  0  0
   -5.7987    8.8878   11.2695 C   0  0  0  0  0  0  0  0  0  0  0  0
   -6.9630    9.6305   11.0740 C   0  0  0  0  0  0  0  0  0  0  0  0
   -6.9039   10.9259   10.5620 C   0  0  0  0  0  0  0  0  0  0  0  0
   -5.6662   11.4648   10.2228 C   0  0  0  0  0  0  0  0  0  0  0  0
   -4.5173   10.7315   10.4117 C   0  0  0  0  0  0  0  0  0  0  0  0
 19 18  1  0  0  0
 17 18  1  0  0  0
 17  2  1  0  0  0
 18 20  1  0  0  0
  3  2  2  0  0  0
  2  1  1  0  0  0
 21 20  2  0  0  0
 21 22  1  0  0  0
 20 25  1  0  0  0
  1 10  1  0  0  0
 22 23  2  0  0  0
 25 24  2  0  0  0
 10  5  2  0  0  0
 10  9  1  0  0  0
  5  6  1  0  0  0
  9  8  2  0  0  0
 23 24  1  0  0  0
  6  7  2  0  0  0
  8  7  1  0  0  0
  7 11  1  0  0  0
 14 11  1  0  0  0
 13 11  2  0  0  0
 11 12  2  0  0  0
 14 15  1  0  0  0
 14 16  1  0  0  0
  1  4  1  0  0  0
M  END
> <minimizedAffinity>
-7.55931

$$$$
5NXP_9DH_A_302


 25 26  0  0  0  0  0  0  0  0999 V2000
   -4.3127    7.2833   13.5941 N   0  0  0  0  0  0  0  0  0  0  0  0
   -4.2282    7.1812   12.2730 C   0  0  0  0  0  0  0  0  0  0  0  0
   -4.5686    6.1783   11.6561 O   0  0  0  0  0  0  0  0  0  0  0  0
   -4.1631    8.1687   13.9977 H   0  0  0  0  0  0  0  0  0  0  0  0
   -3.7517    5.1783   14.8298 C   0  0  0  0  0  0  0  0  0  0  0  0
   -4.2599    4.1857   15.6925 C   0  0  0  0  0  0  0  0  0  0  0  0
   -5.5726    4.2144   16.1356 C   0  0  0  0  0  0  0  0  0  0  0  0
   -6.3899    5.2753   15.7101 C   0  0  0  0  0  0  0  0  0  0  0  0
   -5.8951    6.2590   14.8611 C   0  0  0  0  0  0  0  0  0  0  0  0
   -4.5947    6.2366   14.4325 C   0  0  0  0  0  0  0  0  0  0  0  0
   -6.2202    3.0334   17.2412 S   0  0  0  0  0  0  0  0  0  0  0  0
   -6.0465    3.5617   18.5875 O   0  0  0  0  0  0  0  0  0  0  0  0
   -7.6206    2.8353   16.8028 O   0  0  0  0  0  0  0  0  0  0  0  0
   -5.3809    1.7369   17.0885 N   0  0  0  0  0  0  0  0  0  0  0  0
   -5.4999    1.3637   16.1467 H   0  0  0  0  0  0  0  0  0  0  0  0
   -5.6952    1.0462   17.7702 H   0  0  0  0  0  0  0  0  0  0  0  0
   -3.7828    8.4334   11.4657 C   0  0  0  0  0  0  0  0  0  0  0  0
   -4.2038    8.5864   10.0213 N   0  0  0  0  0  0  0  0  0  0  0  0
   -3.2848    8.2043    8.9217 C   0  0  0  0  0  0  0  0  0  0  0  0
   -5.4733    8.8812    9.6702 C   0  0  0  0  0  0  0  0  0  0  0  0
   -6.4146    9.5245   10.5087 C   0  0  0  0  0  0  0  0  0  0  0  0
   -7.6965    9.8132   10.0410 C   0  0  0  0  0  0  0  0  0  0  0  0
   -8.0700    9.4854    8.7384 C   0  0  0  0  0  0  0  0  0  0  0  0
   -7.1536    8.8410    7.9124 C   0  0  0  0  0  0  0  0  0  0  0  0
   -5.8900    8.5524    8.3740 C   0  0  0  0  0  0  0  0  0  0  0  0
 19 18  1  0  0  0
 17 18  1  0  0  0
 17  2  1  0  0  0
 18 20  1  0  0  0
  3  2  2  0  0  0
  2  1  1  0  0  0
 21 20  2  0  0  0
 21 22  1  0  0  0
 20 25  1  0  0  0
  1 10  1  0  0  0
 22 23  2  0  0  0
 25 24  2  0  0  0
 10  5  2  0  0  0
 10  9  1  0  0  0
  5  6  1  0  0  0
  9  8  2  0  0  0
 23 24  1  0  0  0
  6  7  2  0  0  0
  8  7  1  0  0  0
  7 11  1  0  0  0
 14 11  1  0  0  0
 13 11  2  0  0  0
 11 12  2  0  0  0
 14 15  1  0  0  0
 14 16  1  0  0  0
  1  4  1  0  0  0
M  END
> <minimizedAffinity>
-7.54713

$$$$
5NXP_9DH_A_302


 25 26  0  0  0  0  0  0  0  0999 V2000
   -4.1493    7.2498   13.6785 N   0  0  0  0  0  0  0  0  0  0  0  0
   -4.0597    7.1578   12.3570 C   0  0  0  0  0  0  0  0  0  0  0  0
   -4.6469    6.3025   11.7044 O   0  0  0  0  0  0  0  0  0  0  0  0
   -3.7720    8.0499   14.1107 H   0  0  0  0  0  0  0  0  0  0  0  0
   -6.0314    6.2985   15.0296 C   0  0  0  0  0  0  0  0  0  0  0  0
   -6.4214    5.2229   15.8535 C   0  0  0  0  0  0  0  0  0  0  0  0
   -5.5500    4.1881   16.1541 C   0  0  0  0  0  0  0  0  0  0  0  0
   -4.2588    4.2308   15.6014 C   0  0  0  0  0  0  0  0  0  0  0  0
   -3.8678    5.2872   14.7863 C   0  0  0  0  0  0  0  0  0  0  0  0
   -4.7328    6.3038   14.4802 C   0  0  0  0  0  0  0  0  0  0  0  0
   -6.0131    2.8187   17.1271 S   0  0  0  0  0  0  0  0  0  0  0  0
   -5.6024    3.1029   18.4954 O   0  0  0  0  0  0  0  0  0  0  0  0
   -7.4707    2.6770   16.9084 O   0  0  0  0  0  0  0  0  0  0  0  0
   -5.2304    1.5847   16.6043 N   0  0  0  0  0  0  0  0  0  0  0  0
   -5.5153    1.3823   15.6461 H   0  0  0  0  0  0  0  0  0  0  0  0
   -5.4316    0.7787   17.1962 H   0  0  0  0  0  0  0  0  0  0  0  0
   -3.2632    8.2552   11.5958 C   0  0  0  0  0  0  0  0  0  0  0  0
   -1.8973    8.6739   12.0915 N   0  0  0  0  0  0  0  0  0  0  0  0
   -0.6688    8.0622   11.5289 C   0  0  0  0  0  0  0  0  0  0  0  0
   -1.7226    9.7372   12.9044 C   0  0  0  0  0  0  0  0  0  0  0  0
   -1.7366   11.0878   12.4819 C   0  0  0  0  0  0  0  0  0  0  0  0
   -1.5764   12.1194   13.4068 C   0  0  0  0  0  0  0  0  0  0  0  0
   -1.4118   11.8408   14.7629 C   0  0  0  0  0  0  0  0  0  0  0  0
   -1.3841   10.5144   15.1839 C   0  0  0  0  0  0  0  0  0  0  0  0
   -1.5384    9.4959   14.2718 C   0  0  0  0  0  0  0  0  0  0  0  0
 19 18  1  0  0  0
 17 18  1  0  0  0
 17  2  1  0  0  0
 18 20  1  0  0  0
  3  2  2  0  0  0
  2  1  1  0  0  0
 21 20  2  0  0  0
 21 22  1  0  0  0
 20 25  1  0  0  0
  1 10  1  0  0  0
 22 23  2  0  0  0
 25 24  2  0  0  0
 10  5  2  0  0  0
 10  9  1  0  0  0
  5  6  1  0  0  0
  9  8  2  0  0  0
 23 24  1  0  0  0
  6  7  2  0  0  0
  8  7  1  0  0  0
  7 11  1  0  0  0
 14 11  1  0  0  0
 13 11  2  0  0  0
 11 12  2  0  0  0
 14 15  1  0  0  0
 14 16  1  0  0  0
  1  4  1  0  0  0
M  END
> <minimizedAffinity>
-7.49920

$$$$
5NXP_9DH_A_302


 25 26  0  0  0  0  0  0  0  0999 V2000
   -4.2508    7.3884   13.9036 N   0  0  0  0  0  0  0  0  0  0  0  0
   -4.2677    7.4612   12.5780 C   0  0  0  0  0  0  0  0  0  0  0  0
   -4.6813    6.5554   11.8633 O   0  0  0  0  0  0  0  0  0  0  0  0
   -4.0467    8.2095   14.4070 H   0  0  0  0  0  0  0  0  0  0  0  0
   -3.5995    5.2180   14.9704 C   0  0  0  0  0  0  0  0  0  0  0  0
   -4.0786    4.1089   15.6970 C   0  0  0  0  0  0  0  0  0  0  0  0
   -5.4145    3.9951   16.0474 C   0  0  0  0  0  0  0  0  0  0  0  0
   -6.2869    5.0292   15.6679 C   0  0  0  0  0  0  0  0  0  0  0  0
   -5.8212    6.1272   14.9530 C   0  0  0  0  0  0  0  0  0  0  0  0
   -4.4989    6.2449   14.6169 C   0  0  0  0  0  0  0  0  0  0  0  0
   -6.0323    2.6643   16.9874 S   0  0  0  0  0  0  0  0  0  0  0  0
   -7.4819    2.6711   16.8445 O   0  0  0  0  0  0  0  0  0  0  0  0
   -5.3380    1.4709   16.4523 O   0  0  0  0  0  0  0  0  0  0  0  0
   -5.6638    2.9266   18.4721 N   0  0  0  0  0  0  0  0  0  0  0  0
   -4.6492    2.9225   18.5764 H   0  0  0  0  0  0  0  0  0  0  0  0
   -6.0687    2.1957   19.0571 H   0  0  0  0  0  0  0  0  0  0  0  0
   -3.8486    8.8012   11.9097 C   0  0  0  0  0  0  0  0  0  0  0  0
   -2.4124    9.2672   11.9942 N   0  0  0  0  0  0  0  0  0  0  0  0
   -1.4704    9.0195   10.8757 C   0  0  0  0  0  0  0  0  0  0  0  0
   -1.9786   10.0843   12.9772 C   0  0  0  0  0  0  0  0  0  0  0  0
   -1.6389    9.6645   14.2852 C   0  0  0  0  0  0  0  0  0  0  0  0
   -1.1702   10.5841   15.2233 C   0  0  0  0  0  0  0  0  0  0  0  0
   -1.0164   11.9285   14.8874 C   0  0  0  0  0  0  0  0  0  0  0  0
   -1.3607   12.3507   13.6066 C   0  0  0  0  0  0  0  0  0  0  0  0
   -1.8268   11.4450   12.6817 C   0  0  0  0  0  0  0  0  0  0  0  0
 19 18  1  0  0  0
 17 18  1  0  0  0
 17  2  1  0  0  0
 18 20  1  0  0  0
  3  2  2  0  0  0
  2  1  1  0  0  0
 21 20  2  0  0  0
 21 22  1  0  0  0
 20 25  1  0  0  0
  1 10  1  0  0  0
 22 23  2  0  0  0
 25 24  2  0  0  0
 10  5  2  0  0  0
 10  9  1  0  0  0
  5  6  1  0  0  0
  9  8  2  0  0  0
 23 24  1  0  0  0
  6  7  2  0  0  0
  8  7  1  0  0  0
  7 11  1  0  0  0
 14 11  1  0  0  0
 13 11  2  0  0  0
 11 12  2  0  0  0
 14 15  1  0  0  0
 14 16  1  0  0  0
  1  4  1  0  0  0
M  END
> <minimizedAffinity>
-7.45172

$$$$
5NXP_9DH_A_302


 25 26  0  0  0  0  0  0  0  0999 V2000
   -3.9626    7.3559   13.8306 N   0  0  0  0  0  0  0  0  0  0  0  0
   -4.1036    7.5169   12.5203 C   0  0  0  0  0  0  0  0  0  0  0  0
   -4.9358    6.9088   11.8570 O   0  0  0  0  0  0  0  0  0  0  0  0
   -3.3793    7.9866   14.3116 H   0  0  0  0  0  0  0  0  0  0  0  0
   -5.9095    6.3144   15.0129 C   0  0  0  0  0  0  0  0  0  0  0  0
   -6.3282    5.2021   15.7713 C   0  0  0  0  0  0  0  0  0  0  0  0
   -5.4535    4.1782   16.0987 C   0  0  0  0  0  0  0  0  0  0  0  0
   -4.1283    4.2704   15.6406 C   0  0  0  0  0  0  0  0  0  0  0  0
   -3.7087    5.3633   14.8904 C   0  0  0  0  0  0  0  0  0  0  0  0
   -4.5761    6.3693   14.5573 C   0  0  0  0  0  0  0  0  0  0  0  0
   -5.9479    2.7654   16.9908 S   0  0  0  0  0  0  0  0  0  0  0  0
   -5.4745    2.9310   18.3583 O   0  0  0  0  0  0  0  0  0  0  0  0
   -7.4177    2.7077   16.8205 O   0  0  0  0  0  0  0  0  0  0  0  0
   -5.2464    1.5371   16.3523 N   0  0  0  0  0  0  0  0  0  0  0  0
   -5.5753    1.4176   15.3942 H   0  0  0  0  0  0  0  0  0  0  0  0
   -5.4655    0.7009   16.8937 H   0  0  0  0  0  0  0  0  0  0  0  0
   -3.2491    8.6095   11.8175 C   0  0  0  0  0  0  0  0  0  0  0  0
   -2.0150    8.2139   11.0381 N   0  0  0  0  0  0  0  0  0  0  0  0
   -1.1192    9.2479   10.4651 C   0  0  0  0  0  0  0  0  0  0  0  0
   -1.5695    6.9405   10.9955 C   0  0  0  0  0  0  0  0  0  0  0  0
   -0.8736    6.2927   12.0438 C   0  0  0  0  0  0  0  0  0  0  0  0
   -0.4806    4.9608   11.9140 C   0  0  0  0  0  0  0  0  0  0  0  0
   -0.7756    4.2407   10.7572 C   0  0  0  0  0  0  0  0  0  0  0  0
   -1.4484    4.8751    9.7170 C   0  0  0  0  0  0  0  0  0  0  0  0
   -1.8333    6.1901    9.8425 C   0  0  0  0  0  0  0  0  0  0  0  0
 19 18  1  0  0  0
 17 18  1  0  0  0
 17  2  1  0  0  0
 18 20  1  0  0  0
  3  2  2  0  0  0
  2  1  1  0  0  0
 21 20  2  0  0  0
 21 22  1  0  0  0
 20 25  1  0  0  0
  1 10  1  0  0  0
 22 23  2  0  0  0
 25 24  2  0  0  0
 10  5  2  0  0  0
 10  9  1  0  0  0
  5  6  1  0  0  0
  9  8  2  0  0  0
 23 24  1  0  0  0
  6  7  2  0  0  0
  8  7  1  0  0  0
  7 11  1  0  0  0
 14 11  1  0  0  0
 13 11  2  0  0  0
 11 12  2  0  0  0
 14 15  1  0  0  0
 14 16  1  0  0  0
  1  4  1  0  0  0
M  END
> <minimizedAffinity>
-7.13803

$$$$
5NXP_9DH_A_302


 25 26  0  0  0  0  0  0  0  0999 V2000
   -2.2597    6.5668   12.3318 N   0  0  0  0  0  0  0  0  0  0  0  0
   -2.6443    6.0042   13.4712 C   0  0  0  0  0  0  0  0  0  0  0  0
   -1.8675    5.7353   14.3805 O   0  0  0  0  0  0  0  0  0  0  0  0
   -2.9593    6.8871   11.7177 H   0  0  0  0  0  0  0  0  0  0  0  0
   -0.1044    7.8338   12.1832 C   0  0  0  0  0  0  0  0  0  0  0  0
    1.2132    7.7993   11.6826 C   0  0  0  0  0  0  0  0  0  0  0  0
    1.6819    6.7193   10.9516 C   0  0  0  0  0  0  0  0  0  0  0  0
    0.8070    5.6423   10.7302 C   0  0  0  0  0  0  0  0  0  0  0  0
   -0.4931    5.6683   11.2226 C   0  0  0  0  0  0  0  0  0  0  0  0
   -0.9524    6.7306   11.9547 C   0  0  0  0  0  0  0  0  0  0  0  0
    3.3182    6.6202   10.3606 S   0  0  0  0  0  0  0  0  0  0  0  0
    3.4102    5.4169    9.5449 O   0  0  0  0  0  0  0  0  0  0  0  0
    3.5396    7.8994    9.6486 O   0  0  0  0  0  0  0  0  0  0  0  0
    4.2542    6.4769   11.5903 N   0  0  0  0  0  0  0  0  0  0  0  0
    4.1925    7.3179   12.1643 H   0  0  0  0  0  0  0  0  0  0  0  0
    5.2154    6.3515   11.2731 H   0  0  0  0  0  0  0  0  0  0  0  0
   -4.1654    5.7811   13.7045 C   0  0  0  0  0  0  0  0  0  0  0  0
   -4.6868    4.3907   13.9907 N   0  0  0  0  0  0  0  0  0  0  0  0
   -4.3710    3.2629   13.0808 C   0  0  0  0  0  0  0  0  0  0  0  0
   -5.2814    4.0728   15.1600 C   0  0  0  0  0  0  0  0  0  0  0  0
   -6.2081    4.8945   15.8447 C   0  0  0  0  0  0  0  0  0  0  0  0
   -6.7918    4.4616   17.0351 C   0  0  0  0  0  0  0  0  0  0  0  0
   -6.4835    3.2097   17.5654 C   0  0  0  0  0  0  0  0  0  0  0  0
   -5.5632    2.4014   16.9042 C   0  0  0  0  0  0  0  0  0  0  0  0
   -4.9840    2.8291   15.7317 C   0  0  0  0  0  0  0  0  0  0  0  0
 19 18  1  0  0  0
 17 18  1  0  0  0
 17  2  1  0  0  0
 18 20  1  0  0  0
  3  2  2  0  0  0
  2  1  1  0  0  0
 21 20  2  0  0  0
 21 22  1  0  0  0
 20 25  1  0  0  0
  1 10  1  0  0  0
 22 23  2  0  0  0
 25 24  2  0  0  0
 10  5  2  0  0  0
 10  9  1  0  0  0
  5  6  1  0  0  0
  9  8  2  0  0  0
 23 24  1  0  0  0
  6  7  2  0  0  0
  8  7  1  0  0  0
  7 11  1  0  0  0
 14 11  1  0  0  0
 13 11  2  0  0  0
 11 12  2  0  0  0
 14 15  1  0  0  0
 14 16  1  0  0  0
  1  4  1  0  0  0
M  END
> <minimizedAffinity>
-6.87689

$$$$
5NXP_9DH_A_302


 25 26  0  0  0  0  0  0  0  0999 V2000
   -3.9587    6.6684   13.2505 N   0  0  0  0  0  0  0  0  0  0  0  0
   -3.3712    7.8389   13.4683 C   0  0  0  0  0  0  0  0  0  0  0  0
   -3.1986    8.3027   14.5897 O   0  0  0  0  0  0  0  0  0  0  0  0
   -3.9241    6.2988   12.3387 H   0  0  0  0  0  0  0  0  0  0  0  0
   -5.8886    6.1619   14.7644 C   0  0  0  0  0  0  0  0  0  0  0  0
   -6.3594    5.2923   15.7693 C   0  0  0  0  0  0  0  0  0  0  0  0
   -5.5847    4.2448   16.2417 C   0  0  0  0  0  0  0  0  0  0  0  0
   -4.3100    4.0607   15.6797 C   0  0  0  0  0  0  0  0  0  0  0  0
   -3.8398    4.9130   14.6868 C   0  0  0  0  0  0  0  0  0  0  0  0
   -4.6101    5.9410   14.2121 C   0  0  0  0  0  0  0  0  0  0  0  0
   -6.1528    3.1209   17.4461 S   0  0  0  0  0  0  0  0  0  0  0  0
   -7.4930    2.7076   17.0527 O   0  0  0  0  0  0  0  0  0  0  0  0
   -5.1306    2.0499   17.4737 O   0  0  0  0  0  0  0  0  0  0  0  0
   -6.2279    3.8791   18.7982 N   0  0  0  0  0  0  0  0  0  0  0  0
   -5.2911    4.1703   19.0772 H   0  0  0  0  0  0  0  0  0  0  0  0
   -6.6195    3.2642   19.5115 H   0  0  0  0  0  0  0  0  0  0  0  0
   -2.7756    8.6007   12.2506 C   0  0  0  0  0  0  0  0  0  0  0  0
   -1.3463    8.3443   11.8284 N   0  0  0  0  0  0  0  0  0  0  0  0
   -0.2427    9.1910   12.3430 C   0  0  0  0  0  0  0  0  0  0  0  0
   -0.9875    7.2402   11.1398 C   0  0  0  0  0  0  0  0  0  0  0  0
   -1.8311    6.5333   10.2503 C   0  0  0  0  0  0  0  0  0  0  0  0
   -1.3555    5.4179    9.5610 C   0  0  0  0  0  0  0  0  0  0  0  0
   -0.0400    4.9866    9.7257 C   0  0  0  0  0  0  0  0  0  0  0  0
    0.7916    5.6692   10.6088 C   0  0  0  0  0  0  0  0  0  0  0  0
    0.3222    6.7675   11.2920 C   0  0  0  0  0  0  0  0  0  0  0  0
 19 18  1  0  0  0
 17 18  1  0  0  0
 17  2  1  0  0  0
 18 20  1  0  0  0
  3  2  2  0  0  0
  2  1  1  0  0  0
 21 20  2  0  0  0
 21 22  1  0  0  0
 20 25  1  0  0  0
  1 10  1  0  0  0
 22 23  2  0  0  0
 25 24  2  0  0  0
 10  5  2  0  0  0
 10  9  1  0  0  0
  5  6  1  0  0  0
  9  8  2  0  0  0
 23 24  1  0  0  0
  6  7  2  0  0  0
  8  7  1  0  0  0
  7 11  1  0  0  0
 14 11  1  0  0  0
 13 11  2  0  0  0
 11 12  2  0  0  0
 14 15  1  0  0  0
 14 16  1  0  0  0
  1  4  1  0  0  0
M  END
> <minimizedAffinity>
-6.74162

$$$$
5NXP_9DH_A_302


 25 26  0  0  0  0  0  0  0  0999 V2000
   -1.9297    7.7488   14.0212 N   0  0  0  0  0  0  0  0  0  0  0  0
   -3.0317    7.1154   14.4047 C   0  0  0  0  0  0  0  0  0  0  0  0
   -4.1097    7.6790   14.5549 O   0  0  0  0  0  0  0  0  0  0  0  0
   -1.1464    7.2039   13.7788 H   0  0  0  0  0  0  0  0  0  0  0  0
   -1.6296   10.0405   14.9862 C   0  0  0  0  0  0  0  0  0  0  0  0
   -1.5539   11.4137   14.6761 C   0  0  0  0  0  0  0  0  0  0  0  0
   -1.6795   11.8698   13.3735 C   0  0  0  0  0  0  0  0  0  0  0  0
   -1.8733   10.9192   12.3570 C   0  0  0  0  0  0  0  0  0  0  0  0
   -1.9470    9.5631   12.6550 C   0  0  0  0  0  0  0  0  0  0  0  0
   -1.8113    9.1117   13.9408 C   0  0  0  0  0  0  0  0  0  0  0  0
   -1.5413   13.5537   12.9471 S   0  0  0  0  0  0  0  0  0  0  0  0
   -1.4906   14.3109   14.1904 O   0  0  0  0  0  0  0  0  0  0  0  0
   -0.3310   13.6289   12.0974 O   0  0  0  0  0  0  0  0  0  0  0  0
   -2.8209   13.9461   12.1615 N   0  0  0  0  0  0  0  0  0  0  0  0
   -2.8601   13.4178   11.2898 H   0  0  0  0  0  0  0  0  0  0  0  0
   -2.7993   14.9444   11.9533 H   0  0  0  0  0  0  0  0  0  0  0  0
   -2.9749    5.5692   14.5601 C   0  0  0  0  0  0  0  0  0  0  0  0
   -4.2260    4.7456   14.3522 N   0  0  0  0  0  0  0  0  0  0  0  0
   -4.5327    4.1586   13.0250 C   0  0  0  0  0  0  0  0  0  0  0  0
   -5.0027    4.3462   15.3813 C   0  0  0  0  0  0  0  0  0  0  0  0
   -6.1673    5.0183   15.8226 C   0  0  0  0  0  0  0  0  0  0  0  0
   -6.9208    4.5072   16.8791 C   0  0  0  0  0  0  0  0  0  0  0  0
   -6.5488    3.3214   17.5109 C   0  0  0  0  0  0  0  0  0  0  0  0
   -5.3975    2.6618   17.0907 C   0  0  0  0  0  0  0  0  0  0  0  0
   -4.6513    3.1672   16.0509 C   0  0  0  0  0  0  0  0  0  0  0  0
 19 18  1  0  0  0
 17 18  1  0  0  0
 17  2  1  0  0  0
 18 20  1  0  0  0
  3  2  2  0  0  0
  2  1  1  0  0  0
 21 20  2  0  0  0
 21 22  1  0  0  0
 20 25  1  0  0  0
  1 10  1  0  0  0
 22 23  2  0  0  0
 25 24  2  0  0  0
 10  5  2  0  0  0
 10  9  1  0  0  0
  5  6  1  0  0  0
  9  8  2  0  0  0
 23 24  1  0  0  0
  6  7  2  0  0  0
  8  7  1  0  0  0
  7 11  1  0  0  0
 14 11  1  0  0  0
 13 11  2  0  0  0
 11 12  2  0  0  0
 14 15  1  0  0  0
 14 16  1  0  0  0
  1  4  1  0  0  0
M  END
> <minimizedAffinity>
-6.50961

$$$$
5NXP_9DH_A_302


 25 26  0  0  0  0  0  0  0  0999 V2000
    0.6817    5.3816   10.4384 N   0  0  0  0  0  0  0  0  0  0  0  0
    1.3134    5.5204    9.2788 C   0  0  0  0  0  0  0  0  0  0  0  0
    0.7548    5.4033    8.1942 O   0  0  0  0  0  0  0  0  0  0  0  0
    1.1629    5.6382   11.2581 H   0  0  0  0  0  0  0  0  0  0  0  0
   -1.8034    5.6311   10.6246 C   0  0  0  0  0  0  0  0  0  0  0  0
   -3.0167    4.9312   10.7847 C   0  0  0  0  0  0  0  0  0  0  0  0
   -3.0452    3.5517   10.9135 C   0  0  0  0  0  0  0  0  0  0  0  0
   -1.8235    2.8589   10.8672 C   0  0  0  0  0  0  0  0  0  0  0  0
   -0.6232    3.5423   10.7074 C   0  0  0  0  0  0  0  0  0  0  0  0
   -0.5963    4.9044   10.5687 C   0  0  0  0  0  0  0  0  0  0  0  0
   -4.5285    2.6495   11.0626 S   0  0  0  0  0  0  0  0  0  0  0  0
   -4.5710    1.7029    9.9563 O   0  0  0  0  0  0  0  0  0  0  0  0
   -4.4729    2.0546   12.4175 O   0  0  0  0  0  0  0  0  0  0  0  0
   -5.7047    3.6523   10.9226 N   0  0  0  0  0  0  0  0  0  0  0  0
   -5.6785    4.3172   11.6958 H   0  0  0  0  0  0  0  0  0  0  0  0
   -6.5889    3.1441   10.9411 H   0  0  0  0  0  0  0  0  0  0  0  0
    2.8040    5.9626    9.3018 C   0  0  0  0  0  0  0  0  0  0  0  0
    3.1541    7.4172    9.5218 N   0  0  0  0  0  0  0  0  0  0  0  0
    2.8343    8.4357    8.4921 C   0  0  0  0  0  0  0  0  0  0  0  0
    3.5814    7.8810   10.7152 C   0  0  0  0  0  0  0  0  0  0  0  0
    3.6286    9.2473   11.0809 C   0  0  0  0  0  0  0  0  0  0  0  0
    4.0590    9.6240   12.3530 C   0  0  0  0  0  0  0  0  0  0  0  0
    4.4385    8.6638   13.2898 C   0  0  0  0  0  0  0  0  0  0  0  0
    4.4070    7.3189   12.9328 C   0  0  0  0  0  0  0  0  0  0  0  0
    3.9860    6.9464   11.6769 C   0  0  0  0  0  0  0  0  0  0  0  0
 19 18  1  0  0  0
 17 18  1  0  0  0
 17  2  1  0  0  0
 18 20  1  0  0  0
  3  2  2  0  0  0
  2  1  1  0  0  0
 21 20  2  0  0  0
 21 22  1  0  0  0
 20 25  1  0  0  0
  1 10  1  0  0  0
 22 23  2  0  0  0
 25 24  2  0  0  0
 10  5  2  0  0  0
 10  9  1  0  0  0
  5  6  1  0  0  0
  9  8  2  0  0  0
 23 24  1  0  0  0
  6  7  2  0  0  0
  8  7  1  0  0  0
  7 11  1  0  0  0
 14 11  1  0  0  0
 13 11  2  0  0  0
 11 12  2  0  0  0
 14 15  1  0  0  0
 14 16  1  0  0  0
  1  4  1  0  0  0
M  END
> <minimizedAffinity>
-6.46186

$$$$
5NXP_9DH_A_302


 25 26  0  0  0  0  0  0  0  0999 V2000
   -3.7989    7.5325   13.6475 N   0  0  0  0  0  0  0  0  0  0  0  0
   -3.5472    6.2313   13.7283 C   0  0  0  0  0  0  0  0  0  0  0  0
   -2.5250    5.7772   14.2293 O   0  0  0  0  0  0  0  0  0  0  0  0
   -4.7020    7.8102   13.3709 H   0  0  0  0  0  0  0  0  0  0  0  0
   -2.6584    9.1866   15.1429 C   0  0  0  0  0  0  0  0  0  0  0  0
   -1.6686   10.1890   15.1986 C   0  0  0  0  0  0  0  0  0  0  0  0
   -0.9331   10.5434   14.0789 C   0  0  0  0  0  0  0  0  0  0  0  0
   -1.1917    9.8633   12.8767 C   0  0  0  0  0  0  0  0  0  0  0  0
   -2.1649    8.8721   12.8146 C   0  0  0  0  0  0  0  0  0  0  0  0
   -2.8835    8.5141   13.9240 C   0  0  0  0  0  0  0  0  0  0  0  0
    0.3315   11.7415   14.1223 S   0  0  0  0  0  0  0  0  0  0  0  0
   -0.0259   12.7810   13.1666 O   0  0  0  0  0  0  0  0  0  0  0  0
    0.4002   12.1654   15.5394 O   0  0  0  0  0  0  0  0  0  0  0  0
    1.6454   11.0548   13.6631 N   0  0  0  0  0  0  0  0  0  0  0  0
    1.8991   10.3259   14.3299 H   0  0  0  0  0  0  0  0  0  0  0  0
    2.3926   11.7475   13.6159 H   0  0  0  0  0  0  0  0  0  0  0  0
   -4.6520    5.2387   13.2676 C   0  0  0  0  0  0  0  0  0  0  0  0
   -4.8312    3.9233   13.9917 N   0  0  0  0  0  0  0  0  0  0  0  0
   -4.2401    2.6755   13.4499 C   0  0  0  0  0  0  0  0  0  0  0  0
   -5.3521    3.8525   15.2350 C   0  0  0  0  0  0  0  0  0  0  0  0
   -5.0228    2.8650   16.1937 C   0  0  0  0  0  0  0  0  0  0  0  0
   -5.5948    2.8959   17.4653 C   0  0  0  0  0  0  0  0  0  0  0  0
   -6.4902    3.9043   17.8191 C   0  0  0  0  0  0  0  0  0  0  0  0
   -6.8286    4.8715   16.8771 C   0  0  0  0  0  0  0  0  0  0  0  0
   -6.2676    4.8397   15.6211 C   0  0  0  0  0  0  0  0  0  0  0  0
 19 18  1  0  0  0
 17 18  1  0  0  0
 17  2  1  0  0  0
 18 20  1  0  0  0
  3  2  2  0  0  0
  2  1  1  0  0  0
 21 20  2  0  0  0
 21 22  1  0  0  0
 20 25  1  0  0  0
  1 10  1  0  0  0
 22 23  2  0  0  0
 25 24  2  0  0  0
 10  5  2  0  0  0
 10  9  1  0  0  0
  5  6  1  0  0  0
  9  8  2  0  0  0
 23 24  1  0  0  0
  6  7  2  0  0  0
  8  7  1  0  0  0
  7 11  1  0  0  0
 14 11  1  0  0  0
 13 11  2  0  0  0
 11 12  2  0  0  0
 14 15  1  0  0  0
 14 16  1  0  0  0
  1  4  1  0  0  0
M  END
> <minimizedAffinity>
-6.43645

$$$$
