2O4N_TPV_A_300
  RCSB PDB12061706283D
Coordinates from PDB:2O4N:A:300 Model:1 without hydrogens
 42 45  0  0  0  0            999 V2000
   13.4390   22.0880   17.3250   O 0  0  0  0  0  0  0  0  0  0  0  0
   12.2400   21.3430   17.4820   C 0  0  0  0  0  0  0  0  0  0  0  0
   12.2880   19.9940   18.0750   C 0  0  0  0  0  0  0  0  0  0  0  0
   13.5220   19.4490   18.2960   C 0  0  0  0  0  0  0  0  0  0  0  0
   14.8020   20.1640   17.9180   C 0  0  0  0  0  0  0  0  0  0  0  0
   14.6990   21.7010   17.8940   C 0  0  0  0  0  0  0  0  0  0  0  0
   11.2280   21.9170   17.1000   O 0  0  0  0  0  0  0  0  0  0  0  0
   13.6870   18.2290   18.7820   O 0  0  0  0  0  0  0  0  0  0  0  0
   14.8250   22.2280   19.3320   C 0  0  0  0  0  0  0  0  0  0  0  0
   14.4450   23.7110   19.5160   C 0  0  0  0  0  0  0  0  0  0  0  0
   14.5990   24.0380   21.0030   C 0  0  0  0  0  0  0  0  0  0  0  0
   15.7950   22.3330   17.0180   C 0  0  0  0  0  0  0  0  0  0  0  0
   15.6390   22.0370   15.5170   C 0  0  0  0  0  0  0  0  0  0  0  0
   16.7670   22.7170   14.7500   C 0  0  0  0  0  0  0  0  0  0  0  0
   16.4990   23.8410   13.9580   C 0  0  0  0  0  0  0  0  0  0  0  0
   17.5210   24.4830   13.2410   C 0  0  0  0  0  0  0  0  0  0  0  0
   18.8210   23.9890   13.3560   C 0  0  0  0  0  0  0  0  0  0  0  0
   19.1220   22.8720   14.1570   C 0  0  0  0  0  0  0  0  0  0  0  0
   18.0800   22.2340   14.8530   C 0  0  0  0  0  0  0  0  0  0  0  0
   10.9530   19.2680   18.2700   C 0  0  0  0  0  0  0  0  0  0  0  0
   10.8480   18.4350   19.5670   C 0  0  0  0  0  0  0  0  0  0  0  0
   10.9560   19.2550   20.8480   C 0  0  0  0  0  0  0  0  0  0  0  0
   10.6340   18.4070   17.0850   C 0  0  0  0  0  0  0  0  0  0  0  0
   11.6200   17.9050   16.2240   C 0  0  0  0  0  0  0  0  0  0  0  0
   11.2600   17.1140   15.1180   C 0  0  0  0  0  0  0  0  0  0  0  0
    9.9160   16.7880   14.9010   C 0  0  0  0  0  0  0  0  0  0  0  0
    8.9110   17.2650   15.7460   C 0  0  0  0  0  0  0  0  0  0  0  0
    7.5750   16.9820   15.5310   N 0  0  0  0  0  0  0  0  0  0  0  0
    9.2900   18.0730   16.8220   C 0  0  0  0  0  0  0  0  0  0  0  0
    6.8810   15.6480   16.1240   S 0  0  0  0  0  0  0  0  0  0  0  0
    7.6780   14.5190   15.6970   O 0  0  0  0  0  0  0  0  0  0  0  0
    5.5130   15.5280   15.7180   O 0  0  0  0  0  0  0  0  0  0  0  0
    6.9500   15.8740   17.7350   C 0  0  0  0  0  0  0  0  0  0  0  0
    8.0500   15.4610   18.4170   N 0  0  0  0  0  0  0  0  0  0  0  0
    8.1990   15.7020   19.7520   C 0  0  0  0  0  0  0  0  0  0  0  0
    7.2030   16.3550   20.4990   C 0  0  0  0  0  0  0  0  0  0  0  0
    6.0520   16.7900   19.8200   C 0  0  0  0  0  0  0  0  0  0  0  0
    5.9140   16.5380   18.4360   C 0  0  0  0  0  0  0  0  0  0  0  0
    7.3830   16.6610   21.9620   C 0  0  0  0  0  0  0  0  0  0  0  0
    7.9860   15.7200   22.6680   F 0  0  0  0  0  0  0  0  0  0  0  0
    6.2520   17.0630   22.4930   F 0  0  0  0  0  0  0  0  0  0  0  0
    8.1600   17.7280   22.0300   F 0  0  0  0  0  0  0  0  0  0  0  0
  1  2  1  0  0  0  0
  1  6  1  0  0  0  0
  2  3  1  0  0  0  0
  2  7  2  0  0  0  0
  3  4  2  0  0  0  0
  3 20  1  0  0  0  0
  4  5  1  0  0  0  0
  4  8  1  0  0  0  0
  5  6  1  0  0  0  0
  6  9  1  0  0  0  0
  6 12  1  0  0  0  0
  9 10  1  0  0  0  0
 10 11  1  0  0  0  0
 12 13  1  0  0  0  0
 13 14  1  0  0  0  0
 14 15  2  0  0  0  0
 14 19  1  0  0  0  0
 15 16  1  0  0  0  0
 16 17  2  0  0  0  0
 17 18  1  0  0  0  0
 18 19  2  0  0  0  0
 20 21  1  0  0  0  0
 20 23  1  0  0  0  0
 21 22  1  0  0  0  0
 23 24  2  0  0  0  0
 23 29  1  0  0  0  0
 24 25  1  0  0  0  0
 25 26  2  0  0  0  0
 26 27  1  0  0  0  0
 27 28  1  0  0  0  0
 27 29  2  0  0  0  0
 28 30  1  0  0  0  0
 30 31  2  0  0  0  0
 30 32  2  0  0  0  0
 30 33  1  0  0  0  0
 33 34  2  0  0  0  0
 33 38  1  0  0  0  0
 34 35  1  0  0  0  0
 35 36  2  0  0  0  0
 36 37  1  0  0  0  0
 36 39  1  0  0  0  0
 37 38  2  0  0  0  0
 39 40  1  0  0  0  0
 39 41  1  0  0  0  0
 39 42  1  0  0  0  0
A    1
O1
A    2
C2
A    3
C3
A    4
C4
A    5
C5
A    6
C6
A    7
O7
A    8
O8
A    9
C9
A   10
C10
A   11
C11
A   12
C12
A   13
C13
A   14
C14
A   15
C15
A   16
C16
A   17
C17
A   18
C18
A   19
C19
A   20
C20
A   21
C21
A   22
C22
A   23
C23
A   24
C24
A   25
C25
A   26
C26
A   27
C27
A   28
N28
A   29
C29
A   30
S30
A   31
O31
A   32
O32
A   33
C33
A   34
N34
A   35
C35
A   36
C36
A   37
C37
A   38
C38
A   39
C39
A   40
F40
A   41
F41
A   42
F42
M  END
>  <InstanceId>
2O4N_TPV_A_300

>  <ChemCompId>
TPV

>  <PdbId>
2O4N

>  <ChainId>
A

>  <ResidueNumber>
300

>  <InsertionCode>


>  <Model>
1

>  <AltIds>


>  <MissingHeavyAtoms>
0

>  <ObservedFormula>
C31 N2 O5 S F3

>  <Name>
N-(3-{(1R)-1-[(6R)-4-HYDROXY-2-OXO-6-PHENETHYL-6-PROPYL-5,6-DIHYDRO-2H-PYRAN-3-YL]PROPYL}PHENYL)-5-(TRIFLUOROMETHYL)-2-PYRIDINESULFONAMIDE

>  <SystematicName>
N-[3-[(1R)-1-[(6R)-4-hydroxy-2-oxo-6-phenethyl-6-propyl-5H-pyran-3-yl]propyl]phenyl]-5-(trifluoromethyl)pyridine-2-sulfonamide

>  <Synonyms>
TIPRANAVIR

>  <Type>
NON-POLYMER

>  <Formula>
C31 H33 F3 N2 O5 S

>  <MolecularWeight>
602.664

>  <ModifiedDate>
2011-06-04

>  <Parent>


>  <OneLetterCode>


>  <SubcomponentList>


>  <AmbiguousFlag>
N

>  <InChI>
InChI=1S/C31H33F3N2O5S/c1-3-16-30(17-15-21-9-6-5-7-10-21)19-26(37)28(29(38)41-30)25(4-2)22-11-8-12-24(18-22)36-42(39,40)27-14-13-23(20-35-27)31(32,33)34/h5-14,18,20,25,36-37H,3-4,15-17,19H2,1-2H3/t25-,30-/m1/s1

>  <InChIKey>
SUJUHGSWHZTSEU-FYBSXPHGSA-N

>  <SMILES>
CCC[C@]1(CC(=C(C(=O)O1)[C@H](CC)c2cccc(c2)NS(=O)(=O)c3ccc(cn3)C(F)(F)F)O)CCc4ccccc4

$$$$
