2O4N_TPV_A_300


 44 47  0  0  0  0  0  0  0  0999 V2000
   10.8926   19.3844   18.1983 C   0  0  0  0  0  0  0  0  0  0  0  0
   13.3923   22.2090   17.3044 O   0  0  0  0  0  0  0  0  0  0  0  0
   12.1921   21.4608   17.4347 C   0  0  0  0  0  0  0  0  0  0  0  0
   12.2297   20.1139   18.0333 C   0  0  0  0  0  0  0  0  0  0  0  0
   13.4596   19.5735   18.2862 C   0  0  0  0  0  0  0  0  0  0  0  0
   14.7463   20.2912   17.9370 C   0  0  0  0  0  0  0  0  0  0  0  0
   14.6392   21.8278   17.9052 C   0  0  0  0  0  0  0  0  0  0  0  0
   11.1879   22.0303   17.0262 O   0  0  0  0  0  0  0  0  0  0  0  0
   13.6164   18.3557   18.7802 O   0  0  0  0  0  0  0  0  0  0  0  0
   12.8668   17.8475   19.0207 H   0  0  0  0  0  0  0  0  0  0  0  0
   14.7285   22.3600   19.3440 C   0  0  0  0  0  0  0  0  0  0  0  0
   14.5229   23.8814   19.4878 C   0  0  0  0  0  0  0  0  0  0  0  0
   14.6187   24.2136   20.9785 C   0  0  0  0  0  0  0  0  0  0  0  0
   15.7543   22.4603   17.0539 C   0  0  0  0  0  0  0  0  0  0  0  0
   15.4357   22.5110   15.5503 C   0  0  0  0  0  0  0  0  0  0  0  0
   16.6802   22.9483   14.7867 C   0  0  0  0  0  0  0  0  0  0  0  0
   17.9049   22.3077   15.0151 C   0  0  0  0  0  0  0  0  0  0  0  0
   19.0649   22.6940   14.3254 C   0  0  0  0  0  0  0  0  0  0  0  0
   18.9645   23.7188   13.3836 C   0  0  0  0  0  0  0  0  0  0  0  0
   17.7442   24.3687   13.1218 C   0  0  0  0  0  0  0  0  0  0  0  0
   16.5984   23.9771   13.8366 C   0  0  0  0  0  0  0  0  0  0  0  0
   10.6180   18.4977   17.0211 C   0  0  0  0  0  0  0  0  0  0  0  0
   11.6243   18.0631   16.1470 C   0  0  0  0  0  0  0  0  0  0  0  0
   11.3050   17.2436   15.0493 C   0  0  0  0  0  0  0  0  0  0  0  0
    9.9844   16.8221   14.8537 C   0  0  0  0  0  0  0  0  0  0  0  0
    8.9607   17.2304   15.7122 C   0  0  0  0  0  0  0  0  0  0  0  0
    9.2973   18.0680   16.7796 C   0  0  0  0  0  0  0  0  0  0  0  0
    7.6452   16.8524   15.5184 N   0  0  0  0  0  0  0  0  0  0  0  0
    7.0601   17.4202   14.9666 H   0  0  0  0  0  0  0  0  0  0  0  0
    7.0415   15.5034   16.1731 S   0  0  0  0  0  0  0  0  0  0  0  0
    7.9485   14.4232   15.8525 O   0  0  0  0  0  0  0  0  0  0  0  0
    5.7071   15.2393   15.7255 O   0  0  0  0  0  0  0  0  0  0  0  0
    7.0222   15.8363   17.7668 C   0  0  0  0  0  0  0  0  0  0  0  0
    8.0945   15.4974   18.5290 N   0  0  0  0  0  0  0  0  0  0  0  0
    8.1690   15.8293   19.8507 C   0  0  0  0  0  0  0  0  0  0  0  0
    7.1215   16.5041   20.5016 C   0  0  0  0  0  0  0  0  0  0  0  0
    5.9976   16.8638   19.7384 C   0  0  0  0  0  0  0  0  0  0  0  0
    5.9369   16.5181   18.3692 C   0  0  0  0  0  0  0  0  0  0  0  0
    7.2189   16.9099   21.9481 C   0  0  0  0  0  0  0  0  0  0  0  0
    8.0719   16.2109   22.6769 F   0  0  0  0  0  0  0  0  0  0  0  0
    6.0247   16.9942   22.4862 F   0  0  0  0  0  0  0  0  0  0  0  0
    7.6586   18.1563   21.9599 F   0  0  0  0  0  0  0  0  0  0  0  0
   10.7481   18.5774   19.5078 C   0  0  0  0  0  0  0  0  0  0  0  0
   10.7468   19.4303   20.7718 C   0  0  0  0  0  0  0  0  0  0  0  0
  2  3  1  0  0  0
  2  7  1  0  0  0
  3  4  1  0  0  0
  3  8  2  0  0  0
  4  5  2  0  0  0
  4  1  1  0  0  0
  5  6  1  0  0  0
  5  9  1  0  0  0
  6  7  1  0  0  0
  7 11  1  0  0  0
  7 14  1  0  0  0
 11 12  1  0  0  0
 12 13  1  0  0  0
 14 15  1  0  0  0
 15 16  1  0  0  0
 16 17  2  0  0  0
 16 21  1  0  0  0
 17 18  1  0  0  0
 18 19  2  0  0  0
 19 20  1  0  0  0
 20 21  2  0  0  0
  1 43  1  0  0  0
  1 22  1  0  0  0
 43 44  1  0  0  0
 22 23  2  0  0  0
 22 27  1  0  0  0
 23 24  1  0  0  0
 24 25  2  0  0  0
 25 26  1  0  0  0
 26 28  1  0  0  0
 26 27  2  0  0  0
 28 30  1  0  0  0
 30 31  2  0  0  0
 30 32  2  0  0  0
 30 33  1  0  0  0
 33 34  2  0  0  0
 33 38  1  0  0  0
 34 35  1  0  0  0
 35 36  2  0  0  0
 36 37  1  0  0  0
 36 39  1  0  0  0
 37 38  2  0  0  0
 39 40  1  0  0  0
 39 41  1  0  0  0
 39 42  1  0  0  0
  9 10  1  0  0  0
 28 29  1  0  0  0
M  END
> <minimizedAffinity>
-11.70878

$$$$
2O4N_TPV_A_300


 44 47  0  0  0  0  0  0  0  0999 V2000
   11.0490   19.3600   18.1715 C   0  0  0  0  0  0  0  0  0  0  0  0
   13.4037   22.3060   17.2757 O   0  0  0  0  0  0  0  0  0  0  0  0
   12.2421   21.4996   17.4088 C   0  0  0  0  0  0  0  0  0  0  0  0
   12.3482   20.1545   18.0031 C   0  0  0  0  0  0  0  0  0  0  0  0
   13.6041   19.6741   18.2490 C   0  0  0  0  0  0  0  0  0  0  0  0
   14.8526   20.4549   17.8965 C   0  0  0  0  0  0  0  0  0  0  0  0
   14.6704   21.9845   17.8700 C   0  0  0  0  0  0  0  0  0  0  0  0
   11.2095   22.0206   17.0064 O   0  0  0  0  0  0  0  0  0  0  0  0
   13.8225   18.4640   18.7386 O   0  0  0  0  0  0  0  0  0  0  0  0
   13.0996   17.9191   18.9807 H   0  0  0  0  0  0  0  0  0  0  0  0
   14.7400   22.5163   19.3101 C   0  0  0  0  0  0  0  0  0  0  0  0
   14.4136   24.0152   19.4655 C   0  0  0  0  0  0  0  0  0  0  0  0
   14.7531   24.4068   20.9054 C   0  0  0  0  0  0  0  0  0  0  0  0
   15.7495   22.6732   17.0159 C   0  0  0  0  0  0  0  0  0  0  0  0
   15.4728   22.6212   15.5041 C   0  0  0  0  0  0  0  0  0  0  0  0
   16.7491   22.9682   14.7466 C   0  0  0  0  0  0  0  0  0  0  0  0
   16.7383   23.9836   13.7816 C   0  0  0  0  0  0  0  0  0  0  0  0
   17.9007   24.3197   13.0699 C   0  0  0  0  0  0  0  0  0  0  0  0
   19.0792   23.6332   13.3651 C   0  0  0  0  0  0  0  0  0  0  0  0
   19.1231   22.6202   14.3408 C   0  0  0  0  0  0  0  0  0  0  0  0
   17.9430   22.2882   15.0295 C   0  0  0  0  0  0  0  0  0  0  0  0
   10.7945   18.4910   16.9768 C   0  0  0  0  0  0  0  0  0  0  0  0
   11.8229   18.0150   16.1514 C   0  0  0  0  0  0  0  0  0  0  0  0
   11.5228   17.2149   15.0342 C   0  0  0  0  0  0  0  0  0  0  0  0
   10.1963   16.8539   14.7703 C   0  0  0  0  0  0  0  0  0  0  0  0
    9.1501   17.3044   15.5791 C   0  0  0  0  0  0  0  0  0  0  0  0
    9.4698   18.1220   16.6670 C   0  0  0  0  0  0  0  0  0  0  0  0
    7.8303   16.9866   15.3175 N   0  0  0  0  0  0  0  0  0  0  0  0
    7.2361   17.6776   14.9450 H   0  0  0  0  0  0  0  0  0  0  0  0
    7.2363   15.5113   15.6066 S   0  0  0  0  0  0  0  0  0  0  0  0
    8.2728   14.7491   16.2675 O   0  0  0  0  0  0  0  0  0  0  0  0
    6.7761   14.8733   14.4100 O   0  0  0  0  0  0  0  0  0  0  0  0
    5.9691   15.8029   16.5865 C   0  0  0  0  0  0  0  0  0  0  0  0
    6.1837   15.9702   17.9176 N   0  0  0  0  0  0  0  0  0  0  0  0
    5.1720   16.3019   18.7714 C   0  0  0  0  0  0  0  0  0  0  0  0
    3.8473   16.4479   18.3236 C   0  0  0  0  0  0  0  0  0  0  0  0
    3.5953   16.2766   16.9517 C   0  0  0  0  0  0  0  0  0  0  0  0
    4.6541   15.9385   16.0785 C   0  0  0  0  0  0  0  0  0  0  0  0
    2.7370   16.8562   19.2547 C   0  0  0  0  0  0  0  0  0  0  0  0
    2.0704   15.8605   19.8129 F   0  0  0  0  0  0  0  0  0  0  0  0
    1.9587   17.7458   18.6842 F   0  0  0  0  0  0  0  0  0  0  0  0
    3.3035   17.5222   20.2458 F   0  0  0  0  0  0  0  0  0  0  0  0
   10.9651   18.5149   19.4622 C   0  0  0  0  0  0  0  0  0  0  0  0
   10.1091   19.1345   20.5615 C   0  0  0  0  0  0  0  0  0  0  0  0
  2  3  1  0  0  0
  2  7  1  0  0  0
  3  4  1  0  0  0
  3  8  2  0  0  0
  4  5  2  0  0  0
  4  1  1  0  0  0
  5  6  1  0  0  0
  5  9  1  0  0  0
  6  7  1  0  0  0
  7 11  1  0  0  0
  7 14  1  0  0  0
 11 12  1  0  0  0
 12 13  1  0  0  0
 14 15  1  0  0  0
 15 16  1  0  0  0
 16 17  2  0  0  0
 16 21  1  0  0  0
 17 18  1  0  0  0
 18 19  2  0  0  0
 19 20  1  0  0  0
 20 21  2  0  0  0
  1 43  1  0  0  0
  1 22  1  0  0  0
 43 44  1  0  0  0
 22 23  2  0  0  0
 22 27  1  0  0  0
 23 24  1  0  0  0
 24 25  2  0  0  0
 25 26  1  0  0  0
 26 28  1  0  0  0
 26 27  2  0  0  0
 28 30  1  0  0  0
 30 31  2  0  0  0
 30 32  2  0  0  0
 30 33  1  0  0  0
 33 34  2  0  0  0
 33 38  1  0  0  0
 34 35  1  0  0  0
 35 36  2  0  0  0
 36 37  1  0  0  0
 36 39  1  0  0  0
 37 38  2  0  0  0
 39 40  1  0  0  0
 39 41  1  0  0  0
 39 42  1  0  0  0
  9 10  1  0  0  0
 28 29  1  0  0  0
M  END
> <minimizedAffinity>
-10.70784

$$$$
2O4N_TPV_A_300


 44 47  0  0  0  0  0  0  0  0999 V2000
   10.2454   19.1456   17.8139 C   0  0  0  0  0  0  0  0  0  0  0  0
   14.0189   19.7085   18.4989 O   0  0  0  0  0  0  0  0  0  0  0  0
   12.7206   19.1326   18.4891 C   0  0  0  0  0  0  0  0  0  0  0  0
   11.6067   19.8481   17.8404 C   0  0  0  0  0  0  0  0  0  0  0  0
   11.8429   21.1267   17.4183 C   0  0  0  0  0  0  0  0  0  0  0  0
   13.1731   21.8172   17.6333 C   0  0  0  0  0  0  0  0  0  0  0  0
   14.3828   20.8687   17.7356 C   0  0  0  0  0  0  0  0  0  0  0  0
   12.6415   18.0413   19.0390 O   0  0  0  0  0  0  0  0  0  0  0  0
   10.9066   21.8798   16.8635 O   0  0  0  0  0  0  0  0  0  0  0  0
   10.0558   21.5236   16.6981 H   0  0  0  0  0  0  0  0  0  0  0  0
   14.8171   20.4658   16.3176 C   0  0  0  0  0  0  0  0  0  0  0  0
   14.9432   21.6348   15.3201 C   0  0  0  0  0  0  0  0  0  0  0  0
   16.3922   21.6576   14.8283 C   0  0  0  0  0  0  0  0  0  0  0  0
   15.5655   21.5284   18.4664 C   0  0  0  0  0  0  0  0  0  0  0  0
   15.6988   23.0368   18.1980 C   0  0  0  0  0  0  0  0  0  0  0  0
   15.7826   23.7789   19.5267 C   0  0  0  0  0  0  0  0  0  0  0  0
   14.7611   23.6378   20.4749 C   0  0  0  0  0  0  0  0  0  0  0  0
   14.8152   24.3126   21.7047 C   0  0  0  0  0  0  0  0  0  0  0  0
   15.9277   25.1111   21.9730 C   0  0  0  0  0  0  0  0  0  0  0  0
   16.9762   25.2581   21.0462 C   0  0  0  0  0  0  0  0  0  0  0  0
   16.8932   24.5865   19.8136 C   0  0  0  0  0  0  0  0  0  0  0  0
   10.2279   18.0513   16.7894 C   0  0  0  0  0  0  0  0  0  0  0  0
   11.1642   17.9704   15.7490 C   0  0  0  0  0  0  0  0  0  0  0  0
   11.0893   16.9286   14.8069 C   0  0  0  0  0  0  0  0  0  0  0  0
   10.1042   15.9422   14.9338 C   0  0  0  0  0  0  0  0  0  0  0  0
    9.1624   15.9897   15.9646 C   0  0  0  0  0  0  0  0  0  0  0  0
    9.2390   17.0502   16.8722 C   0  0  0  0  0  0  0  0  0  0  0  0
    8.1616   15.0441   16.0892 N   0  0  0  0  0  0  0  0  0  0  0  0
    8.3902   14.0905   16.0013 H   0  0  0  0  0  0  0  0  0  0  0  0
    6.6265   15.4616   16.3751 S   0  0  0  0  0  0  0  0  0  0  0  0
    5.8109   14.2866   16.1595 O   0  0  0  0  0  0  0  0  0  0  0  0
    6.2095   16.5651   15.5633 O   0  0  0  0  0  0  0  0  0  0  0  0
    6.6467   15.9165   17.9384 C   0  0  0  0  0  0  0  0  0  0  0  0
    7.6289   15.4502   18.7530 N   0  0  0  0  0  0  0  0  0  0  0  0
    7.7447   15.8658   20.0478 C   0  0  0  0  0  0  0  0  0  0  0  0
    6.8290   16.7676   20.6175 C   0  0  0  0  0  0  0  0  0  0  0  0
    5.7999   17.2634   19.7989 C   0  0  0  0  0  0  0  0  0  0  0  0
    5.6956   16.8281   18.4581 C   0  0  0  0  0  0  0  0  0  0  0  0
    6.9791   17.2613   22.0317 C   0  0  0  0  0  0  0  0  0  0  0  0
    8.1032   16.9167   22.6362 F   0  0  0  0  0  0  0  0  0  0  0  0
    5.9062   16.9837   22.7349 F   0  0  0  0  0  0  0  0  0  0  0  0
    6.9831   18.5816   21.9705 F   0  0  0  0  0  0  0  0  0  0  0  0
    9.7697   18.5954   19.1770 C   0  0  0  0  0  0  0  0  0  0  0  0
    9.4478   19.6714   20.2083 C   0  0  0  0  0  0  0  0  0  0  0  0
  2  3  1  0  0  0
  2  7  1  0  0  0
  3  4  1  0  0  0
  3  8  2  0  0  0
  4  5  2  0  0  0
  4  1  1  0  0  0
  5  6  1  0  0  0
  5  9  1  0  0  0
  6  7  1  0  0  0
  7 11  1  0  0  0
  7 14  1  0  0  0
 11 12  1  0  0  0
 12 13  1  0  0  0
 14 15  1  0  0  0
 15 16  1  0  0  0
 16 17  2  0  0  0
 16 21  1  0  0  0
 17 18  1  0  0  0
 18 19  2  0  0  0
 19 20  1  0  0  0
 20 21  2  0  0  0
  1 43  1  0  0  0
  1 22  1  0  0  0
 43 44  1  0  0  0
 22 23  2  0  0  0
 22 27  1  0  0  0
 23 24  1  0  0  0
 24 25  2  0  0  0
 25 26  1  0  0  0
 26 28  1  0  0  0
 26 27  2  0  0  0
 28 30  1  0  0  0
 30 31  2  0  0  0
 30 32  2  0  0  0
 30 33  1  0  0  0
 33 34  2  0  0  0
 33 38  1  0  0  0
 34 35  1  0  0  0
 35 36  2  0  0  0
 36 37  1  0  0  0
 36 39  1  0  0  0
 37 38  2  0  0  0
 39 40  1  0  0  0
 39 41  1  0  0  0
 39 42  1  0  0  0
  9 10  1  0  0  0
 28 29  1  0  0  0
M  END
> <minimizedAffinity>
-10.63682

$$$$
2O4N_TPV_A_300


 44 47  0  0  0  0  0  0  0  0999 V2000
   11.1965   18.6154   17.8433 C   0  0  0  0  0  0  0  0  0  0  0  0
   12.9905   21.9701   17.1001 O   0  0  0  0  0  0  0  0  0  0  0  0
   12.0031   20.9505   17.1509 C   0  0  0  0  0  0  0  0  0  0  0  0
   12.3234   19.6506   17.7685 C   0  0  0  0  0  0  0  0  0  0  0  0
   13.6254   19.4261   18.1193 C   0  0  0  0  0  0  0  0  0  0  0  0
   14.7203   20.4385   17.8571 C   0  0  0  0  0  0  0  0  0  0  0  0
   14.2439   21.9024   17.7970 C   0  0  0  0  0  0  0  0  0  0  0  0
   10.9240   21.2593   16.6613 O   0  0  0  0  0  0  0  0  0  0  0  0
   14.0373   18.2810   18.6398 O   0  0  0  0  0  0  0  0  0  0  0  0
   13.4186   17.6037   18.8306 H   0  0  0  0  0  0  0  0  0  0  0  0
   14.0919   22.4327   19.2313 C   0  0  0  0  0  0  0  0  0  0  0  0
   14.7746   23.7893   19.4980 C   0  0  0  0  0  0  0  0  0  0  0  0
   14.5554   24.1252   20.9748 C   0  0  0  0  0  0  0  0  0  0  0  0
   15.2316   22.7928   17.0227 C   0  0  0  0  0  0  0  0  0  0  0  0
   15.1607   22.6187   15.4964 C   0  0  0  0  0  0  0  0  0  0  0  0
   16.5192   22.9475   14.8886 C   0  0  0  0  0  0  0  0  0  0  0  0
   17.6272   22.1368   15.1671 C   0  0  0  0  0  0  0  0  0  0  0  0
   18.8888   22.4206   14.6206 C   0  0  0  0  0  0  0  0  0  0  0  0
   19.0090   23.5195   13.7689 C   0  0  0  0  0  0  0  0  0  0  0  0
   17.9099   24.3413   13.4586 C   0  0  0  0  0  0  0  0  0  0  0  0
   16.6592   24.0485   14.0307 C   0  0  0  0  0  0  0  0  0  0  0  0
   10.2949   18.8891   19.0093 C   0  0  0  0  0  0  0  0  0  0  0  0
   10.7430   19.5021   20.1879 C   0  0  0  0  0  0  0  0  0  0  0  0
    9.8543   19.7202   21.2561 C   0  0  0  0  0  0  0  0  0  0  0  0
    8.5063   19.3657   21.1260 C   0  0  0  0  0  0  0  0  0  0  0  0
    8.0269   18.7616   19.9611 C   0  0  0  0  0  0  0  0  0  0  0  0
    8.9348   18.5287   18.9239 C   0  0  0  0  0  0  0  0  0  0  0  0
    6.7069   18.3741   19.8245 N   0  0  0  0  0  0  0  0  0  0  0  0
    6.0136   19.0649   19.7180 H   0  0  0  0  0  0  0  0  0  0  0  0
    6.2710   16.8176   19.8346 S   0  0  0  0  0  0  0  0  0  0  0  0
    4.8419   16.7697   20.0531 O   0  0  0  0  0  0  0  0  0  0  0  0
    6.9929   16.0637   20.8150 O   0  0  0  0  0  0  0  0  0  0  0  0
    6.6820   16.3034   18.3454 C   0  0  0  0  0  0  0  0  0  0  0  0
    5.7793   16.4049   17.3352 N   0  0  0  0  0  0  0  0  0  0  0  0
    6.0987   16.0704   16.0512 C   0  0  0  0  0  0  0  0  0  0  0  0
    7.3667   15.5650   15.7146 C   0  0  0  0  0  0  0  0  0  0  0  0
    8.3196   15.4456   16.7407 C   0  0  0  0  0  0  0  0  0  0  0  0
    7.9760   15.8010   18.0649 C   0  0  0  0  0  0  0  0  0  0  0  0
    7.7363   15.2362   14.2928 C   0  0  0  0  0  0  0  0  0  0  0  0
    6.8359   14.5412   13.6192 F   0  0  0  0  0  0  0  0  0  0  0  0
    8.9405   14.7172   14.2361 F   0  0  0  0  0  0  0  0  0  0  0  0
    7.8603   16.3901   13.6602 F   0  0  0  0  0  0  0  0  0  0  0  0
   10.3574   18.4717   16.5540 C   0  0  0  0  0  0  0  0  0  0  0  0
   10.9697   17.5457   15.5087 C   0  0  0  0  0  0  0  0  0  0  0  0
  2  3  1  0  0  0
  2  7  1  0  0  0
  3  4  1  0  0  0
  3  8  2  0  0  0
  4  5  2  0  0  0
  4  1  1  0  0  0
  5  6  1  0  0  0
  5  9  1  0  0  0
  6  7  1  0  0  0
  7 11  1  0  0  0
  7 14  1  0  0  0
 11 12  1  0  0  0
 12 13  1  0  0  0
 14 15  1  0  0  0
 15 16  1  0  0  0
 16 17  2  0  0  0
 16 21  1  0  0  0
 17 18  1  0  0  0
 18 19  2  0  0  0
 19 20  1  0  0  0
 20 21  2  0  0  0
  1 43  1  0  0  0
  1 22  1  0  0  0
 43 44  1  0  0  0
 22 23  2  0  0  0
 22 27  1  0  0  0
 23 24  1  0  0  0
 24 25  2  0  0  0
 25 26  1  0  0  0
 26 28  1  0  0  0
 26 27  2  0  0  0
 28 30  1  0  0  0
 30 31  2  0  0  0
 30 32  2  0  0  0
 30 33  1  0  0  0
 33 34  2  0  0  0
 33 38  1  0  0  0
 34 35  1  0  0  0
 35 36  2  0  0  0
 36 37  1  0  0  0
 36 39  1  0  0  0
 37 38  2  0  0  0
 39 40  1  0  0  0
 39 41  1  0  0  0
 39 42  1  0  0  0
  9 10  1  0  0  0
 28 29  1  0  0  0
M  END
> <minimizedAffinity>
-10.29400

$$$$
2O4N_TPV_A_300


 44 47  0  0  0  0  0  0  0  0999 V2000
   10.4373   18.2762   17.8224 C   0  0  0  0  0  0  0  0  0  0  0  0
   14.0479   19.5543   18.4188 O   0  0  0  0  0  0  0  0  0  0  0  0
   12.8934   18.7271   18.4119 C   0  0  0  0  0  0  0  0  0  0  0  0
   11.6287   19.2390   17.8529 C   0  0  0  0  0  0  0  0  0  0  0  0
   11.5823   20.5626   17.5143 C   0  0  0  0  0  0  0  0  0  0  0  0
   12.7546   21.4955   17.7329 C   0  0  0  0  0  0  0  0  0  0  0  0
   14.1341   20.8096   17.7275 C   0  0  0  0  0  0  0  0  0  0  0  0
   13.0618   17.6106   18.8857 O   0  0  0  0  0  0  0  0  0  0  0  0
   10.4883   21.1416   17.0456 O   0  0  0  0  0  0  0  0  0  0  0  0
    9.7200   20.6302   16.8841 H   0  0  0  0  0  0  0  0  0  0  0  0
   14.5734   20.5930   16.2709 C   0  0  0  0  0  0  0  0  0  0  0  0
   15.8087   21.4074   15.8370 C   0  0  0  0  0  0  0  0  0  0  0  0
   15.3297   22.4592   14.8340 C   0  0  0  0  0  0  0  0  0  0  0  0
   15.1926   21.6502   18.4630 C   0  0  0  0  0  0  0  0  0  0  0  0
   14.6118   22.8537   19.2241 C   0  0  0  0  0  0  0  0  0  0  0  0
   15.7372   23.8223   19.5683 C   0  0  0  0  0  0  0  0  0  0  0  0
   15.7103   24.5278   20.7782 C   0  0  0  0  0  0  0  0  0  0  0  0
   16.7344   25.4266   21.1163 C   0  0  0  0  0  0  0  0  0  0  0  0
   17.7981   25.5828   20.2267 C   0  0  0  0  0  0  0  0  0  0  0  0
   17.8595   24.8750   19.0122 C   0  0  0  0  0  0  0  0  0  0  0  0
   16.8144   23.9927   18.6859 C   0  0  0  0  0  0  0  0  0  0  0  0
    9.5824   18.4439   19.0423 C   0  0  0  0  0  0  0  0  0  0  0  0
   10.1055   18.4341   20.3430 C   0  0  0  0  0  0  0  0  0  0  0  0
    9.2524   18.5809   21.4517 C   0  0  0  0  0  0  0  0  0  0  0  0
    7.8812   18.7836   21.2553 C   0  0  0  0  0  0  0  0  0  0  0  0
    7.3307   18.8076   19.9716 C   0  0  0  0  0  0  0  0  0  0  0  0
    8.1940   18.6308   18.8863 C   0  0  0  0  0  0  0  0  0  0  0  0
    5.9752   18.9738   19.7567 N   0  0  0  0  0  0  0  0  0  0  0  0
    5.6337   19.8663   19.5201 H   0  0  0  0  0  0  0  0  0  0  0  0
    4.9357   17.7424   19.8835 S   0  0  0  0  0  0  0  0  0  0  0  0
    3.6005   18.2938   19.8110 O   0  0  0  0  0  0  0  0  0  0  0  0
    5.1432   16.9850   21.0809 O   0  0  0  0  0  0  0  0  0  0  0  0
    5.2895   16.8186   18.5902 C   0  0  0  0  0  0  0  0  0  0  0  0
    4.4032   16.7467   17.5630 N   0  0  0  0  0  0  0  0  0  0  0  0
    4.6851   16.0583   16.4189 C   0  0  0  0  0  0  0  0  0  0  0  0
    5.8914   15.3540   16.2604 C   0  0  0  0  0  0  0  0  0  0  0  0
    6.8257   15.4075   17.3089 C   0  0  0  0  0  0  0  0  0  0  0  0
    6.5220   16.1291   18.4859 C   0  0  0  0  0  0  0  0  0  0  0  0
    6.2239   14.6300   14.9830 C   0  0  0  0  0  0  0  0  0  0  0  0
    6.9396   15.3189   14.1107 F   0  0  0  0  0  0  0  0  0  0  0  0
    5.1455   14.0943   14.4609 F   0  0  0  0  0  0  0  0  0  0  0  0
    6.9611   13.5871   15.3231 F   0  0  0  0  0  0  0  0  0  0  0  0
    9.5618   18.3635   16.5524 C   0  0  0  0  0  0  0  0  0  0  0  0
    9.8206   17.2563   15.5364 C   0  0  0  0  0  0  0  0  0  0  0  0
  2  3  1  0  0  0
  2  7  1  0  0  0
  3  4  1  0  0  0
  3  8  2  0  0  0
  4  5  2  0  0  0
  4  1  1  0  0  0
  5  6  1  0  0  0
  5  9  1  0  0  0
  6  7  1  0  0  0
  7 11  1  0  0  0
  7 14  1  0  0  0
 11 12  1  0  0  0
 12 13  1  0  0  0
 14 15  1  0  0  0
 15 16  1  0  0  0
 16 17  2  0  0  0
 16 21  1  0  0  0
 17 18  1  0  0  0
 18 19  2  0  0  0
 19 20  1  0  0  0
 20 21  2  0  0  0
  1 43  1  0  0  0
  1 22  1  0  0  0
 43 44  1  0  0  0
 22 23  2  0  0  0
 22 27  1  0  0  0
 23 24  1  0  0  0
 24 25  2  0  0  0
 25 26  1  0  0  0
 26 28  1  0  0  0
 26 27  2  0  0  0
 28 30  1  0  0  0
 30 31  2  0  0  0
 30 32  2  0  0  0
 30 33  1  0  0  0
 33 34  2  0  0  0
 33 38  1  0  0  0
 34 35  1  0  0  0
 35 36  2  0  0  0
 36 37  1  0  0  0
 36 39  1  0  0  0
 37 38  2  0  0  0
 39 40  1  0  0  0
 39 41  1  0  0  0
 39 42  1  0  0  0
  9 10  1  0  0  0
 28 29  1  0  0  0
M  END
> <minimizedAffinity>
-10.22030

$$$$
2O4N_TPV_A_300


 44 47  0  0  0  0  0  0  0  0999 V2000
   14.2084   20.4766   18.4571 C   0  0  0  0  0  0  0  0  0  0  0  0
   11.1608   18.0838   18.3454 O   0  0  0  0  0  0  0  0  0  0  0  0
   12.4859   18.5753   18.4869 C   0  0  0  0  0  0  0  0  0  0  0  0
   12.7705   19.9989   18.2298 C   0  0  0  0  0  0  0  0  0  0  0  0
   11.7629   20.7545   17.6983 C   0  0  0  0  0  0  0  0  0  0  0  0
   10.4136   20.1679   17.3409 C   0  0  0  0  0  0  0  0  0  0  0  0
   10.0131   18.9260   18.1598 C   0  0  0  0  0  0  0  0  0  0  0  0
   13.3081   17.7360   18.8320 O   0  0  0  0  0  0  0  0  0  0  0  0
   11.9170   22.0312   17.3852 O   0  0  0  0  0  0  0  0  0  0  0  0
   12.7251   22.4659   17.5748 H   0  0  0  0  0  0  0  0  0  0  0  0
    9.4577   19.3860   19.5168 C   0  0  0  0  0  0  0  0  0  0  0  0
    9.8932   18.5279   20.7216 C   0  0  0  0  0  0  0  0  0  0  0  0
   10.8270   19.3871   21.5770 C   0  0  0  0  0  0  0  0  0  0  0  0
    8.9538   18.0795   17.4321 C   0  0  0  0  0  0  0  0  0  0  0  0
    9.4716   17.4011   16.1528 C   0  0  0  0  0  0  0  0  0  0  0  0
    8.4339   16.4000   15.6587 C   0  0  0  0  0  0  0  0  0  0  0  0
    8.5663   15.8205   14.3902 C   0  0  0  0  0  0  0  0  0  0  0  0
    7.6224   14.8976   13.9126 C   0  0  0  0  0  0  0  0  0  0  0  0
    6.5576   14.5496   14.7447 C   0  0  0  0  0  0  0  0  0  0  0  0
    6.4084   15.1033   16.0296 C   0  0  0  0  0  0  0  0  0  0  0  0
    7.3564   16.0386   16.4810 C   0  0  0  0  0  0  0  0  0  0  0  0
   14.8552   20.8626   17.1610 C   0  0  0  0  0  0  0  0  0  0  0  0
   14.7850   20.0648   16.0103 C   0  0  0  0  0  0  0  0  0  0  0  0
   15.4250   20.4711   14.8255 C   0  0  0  0  0  0  0  0  0  0  0  0
   16.0965   21.6986   14.7805 C   0  0  0  0  0  0  0  0  0  0  0  0
   16.1766   22.5204   15.9073 C   0  0  0  0  0  0  0  0  0  0  0  0
   15.5574   22.0824   17.0816 C   0  0  0  0  0  0  0  0  0  0  0  0
   16.8622   23.7208   15.8937 N   0  0  0  0  0  0  0  0  0  0  0  0
   16.3944   24.5426   16.1673 H   0  0  0  0  0  0  0  0  0  0  0  0
   18.4112   23.8115   15.4406 S   0  0  0  0  0  0  0  0  0  0  0  0
   18.8515   22.4687   15.1323 O   0  0  0  0  0  0  0  0  0  0  0  0
   19.2280   24.4318   16.4400 O   0  0  0  0  0  0  0  0  0  0  0  0
   18.3600   24.7597   14.1180 C   0  0  0  0  0  0  0  0  0  0  0  0
   19.4699   24.8802   13.3438 N   0  0  0  0  0  0  0  0  0  0  0  0
   19.4586   25.5911   12.1789 C   0  0  0  0  0  0  0  0  0  0  0  0
   18.3079   26.2692   11.7402 C   0  0  0  0  0  0  0  0  0  0  0  0
   17.1457   26.1654   12.5235 C   0  0  0  0  0  0  0  0  0  0  0  0
   17.1710   25.4211   13.7249 C   0  0  0  0  0  0  0  0  0  0  0  0
   18.2794   27.0179   10.4344 C   0  0  0  0  0  0  0  0  0  0  0  0
   18.0579   26.2781    9.3615 F   0  0  0  0  0  0  0  0  0  0  0  0
   19.3335   27.7918   10.3219 F   0  0  0  0  0  0  0  0  0  0  0  0
   17.2706   27.8684   10.5107 F   0  0  0  0  0  0  0  0  0  0  0  0
   14.3593   21.6239   19.4808 C   0  0  0  0  0  0  0  0  0  0  0  0
   13.7650   21.3215   20.8521 C   0  0  0  0  0  0  0  0  0  0  0  0
  2  3  1  0  0  0
  2  7  1  0  0  0
  3  4  1  0  0  0
  3  8  2  0  0  0
  4  5  2  0  0  0
  4  1  1  0  0  0
  5  6  1  0  0  0
  5  9  1  0  0  0
  6  7  1  0  0  0
  7 11  1  0  0  0
  7 14  1  0  0  0
 11 12  1  0  0  0
 12 13  1  0  0  0
 14 15  1  0  0  0
 15 16  1  0  0  0
 16 17  2  0  0  0
 16 21  1  0  0  0
 17 18  1  0  0  0
 18 19  2  0  0  0
 19 20  1  0  0  0
 20 21  2  0  0  0
  1 43  1  0  0  0
  1 22  1  0  0  0
 43 44  1  0  0  0
 22 23  2  0  0  0
 22 27  1  0  0  0
 23 24  1  0  0  0
 24 25  2  0  0  0
 25 26  1  0  0  0
 26 28  1  0  0  0
 26 27  2  0  0  0
 28 30  1  0  0  0
 30 31  2  0  0  0
 30 32  2  0  0  0
 30 33  1  0  0  0
 33 34  2  0  0  0
 33 38  1  0  0  0
 34 35  1  0  0  0
 35 36  2  0  0  0
 36 37  1  0  0  0
 36 39  1  0  0  0
 37 38  2  0  0  0
 39 40  1  0  0  0
 39 41  1  0  0  0
 39 42  1  0  0  0
  9 10  1  0  0  0
 28 29  1  0  0  0
M  END
> <minimizedAffinity>
-10.03018

$$$$
2O4N_TPV_A_300


 44 47  0  0  0  0  0  0  0  0999 V2000
   14.1386   20.4860   18.4879 C   0  0  0  0  0  0  0  0  0  0  0  0
   11.1468   18.0424   18.1665 O   0  0  0  0  0  0  0  0  0  0  0  0
   12.4539   18.5537   18.3844 C   0  0  0  0  0  0  0  0  0  0  0  0
   12.7227   19.9888   18.1792 C   0  0  0  0  0  0  0  0  0  0  0  0
   11.7271   20.7403   17.6202 C   0  0  0  0  0  0  0  0  0  0  0  0
   10.4079   20.1394   17.1829 C   0  0  0  0  0  0  0  0  0  0  0  0
    9.9931   18.8684   17.9484 C   0  0  0  0  0  0  0  0  0  0  0  0
   13.2749   17.7204   18.7463 O   0  0  0  0  0  0  0  0  0  0  0  0
   11.8710   22.0277   17.3488 O   0  0  0  0  0  0  0  0  0  0  0  0
   12.6606   22.4716   17.5885 H   0  0  0  0  0  0  0  0  0  0  0  0
    9.3650   19.2809   19.2889 C   0  0  0  0  0  0  0  0  0  0  0  0
    9.8172   18.4445   20.5028 C   0  0  0  0  0  0  0  0  0  0  0  0
   10.6369   19.3658   21.4089 C   0  0  0  0  0  0  0  0  0  0  0  0
    8.9862   18.0232   17.1485 C   0  0  0  0  0  0  0  0  0  0  0  0
    9.5732   16.7126   16.5983 C   0  0  0  0  0  0  0  0  0  0  0  0
    8.4699   15.9161   15.9117 C   0  0  0  0  0  0  0  0  0  0  0  0
    7.3162   15.5595   16.6218 C   0  0  0  0  0  0  0  0  0  0  0  0
    6.2875   14.8245   16.0116 C   0  0  0  0  0  0  0  0  0  0  0  0
    6.4297   14.4776   14.6674 C   0  0  0  0  0  0  0  0  0  0  0  0
    7.5700   14.8365   13.9252 C   0  0  0  0  0  0  0  0  0  0  0  0
    8.5958   15.5579   14.5613 C   0  0  0  0  0  0  0  0  0  0  0  0
   14.8602   20.8620   17.2288 C   0  0  0  0  0  0  0  0  0  0  0  0
   14.8965   20.0335   16.0984 C   0  0  0  0  0  0  0  0  0  0  0  0
   15.6028   20.4323   14.9492 C   0  0  0  0  0  0  0  0  0  0  0  0
   16.2342   21.6812   14.9163 C   0  0  0  0  0  0  0  0  0  0  0  0
   16.2085   22.5334   16.0230 C   0  0  0  0  0  0  0  0  0  0  0  0
   15.5247   22.1035   17.1639 C   0  0  0  0  0  0  0  0  0  0  0  0
   16.8528   23.7566   16.0231 N   0  0  0  0  0  0  0  0  0  0  0  0
   16.4950   24.4864   15.4675 H   0  0  0  0  0  0  0  0  0  0  0  0
   18.1777   24.0211   16.9105 S   0  0  0  0  0  0  0  0  0  0  0  0
   18.9406   25.0580   16.2510 O   0  0  0  0  0  0  0  0  0  0  0  0
   18.9432   22.8263   17.1026 O   0  0  0  0  0  0  0  0  0  0  0  0
   17.5779   24.5160   18.3411 C   0  0  0  0  0  0  0  0  0  0  0  0
   16.3946   24.0098   18.7760 N   0  0  0  0  0  0  0  0  0  0  0  0
   15.8881   24.3228   20.0040 C   0  0  0  0  0  0  0  0  0  0  0  0
   16.5456   25.2174   20.8665 C   0  0  0  0  0  0  0  0  0  0  0  0
   17.7703   25.7597   20.4409 C   0  0  0  0  0  0  0  0  0  0  0  0
   18.2851   25.4221   19.1685 C   0  0  0  0  0  0  0  0  0  0  0  0
   16.0120   25.5310   22.2388 C   0  0  0  0  0  0  0  0  0  0  0  0
   16.6292   26.5106   22.8768 F   0  0  0  0  0  0  0  0  0  0  0  0
   15.9013   24.4356   22.9535 F   0  0  0  0  0  0  0  0  0  0  0  0
   14.7621   25.9278   22.0745 F   0  0  0  0  0  0  0  0  0  0  0  0
   14.2138   21.6487   19.5026 C   0  0  0  0  0  0  0  0  0  0  0  0
   13.7522   21.2828   20.9091 C   0  0  0  0  0  0  0  0  0  0  0  0
  2  3  1  0  0  0
  2  7  1  0  0  0
  3  4  1  0  0  0
  3  8  2  0  0  0
  4  5  2  0  0  0
  4  1  1  0  0  0
  5  6  1  0  0  0
  5  9  1  0  0  0
  6  7  1  0  0  0
  7 11  1  0  0  0
  7 14  1  0  0  0
 11 12  1  0  0  0
 12 13  1  0  0  0
 14 15  1  0  0  0
 15 16  1  0  0  0
 16 17  2  0  0  0
 16 21  1  0  0  0
 17 18  1  0  0  0
 18 19  2  0  0  0
 19 20  1  0  0  0
 20 21  2  0  0  0
  1 43  1  0  0  0
  1 22  1  0  0  0
 43 44  1  0  0  0
 22 23  2  0  0  0
 22 27  1  0  0  0
 23 24  1  0  0  0
 24 25  2  0  0  0
 25 26  1  0  0  0
 26 28  1  0  0  0
 26 27  2  0  0  0
 28 30  1  0  0  0
 30 31  2  0  0  0
 30 32  2  0  0  0
 30 33  1  0  0  0
 33 34  2  0  0  0
 33 38  1  0  0  0
 34 35  1  0  0  0
 35 36  2  0  0  0
 36 37  1  0  0  0
 36 39  1  0  0  0
 37 38  2  0  0  0
 39 40  1  0  0  0
 39 41  1  0  0  0
 39 42  1  0  0  0
  9 10  1  0  0  0
 28 29  1  0  0  0
M  END
> <minimizedAffinity>
-9.81321

$$$$
2O4N_TPV_A_300


 44 47  0  0  0  0  0  0  0  0999 V2000
   13.9749   20.4058   18.3676 C   0  0  0  0  0  0  0  0  0  0  0  0
   10.3689   19.7003   17.1328 O   0  0  0  0  0  0  0  0  0  0  0  0
   11.5653   20.3791   17.4866 C   0  0  0  0  0  0  0  0  0  0  0  0
   12.6931   19.6240   18.0626 C   0  0  0  0  0  0  0  0  0  0  0  0
   12.4710   18.3151   18.3883 C   0  0  0  0  0  0  0  0  0  0  0  0
   11.1195   17.6555   18.2129 C   0  0  0  0  0  0  0  0  0  0  0  0
   10.2405   18.2707   17.1072 C   0  0  0  0  0  0  0  0  0  0  0  0
   11.5544   21.5833   17.2648 O   0  0  0  0  0  0  0  0  0  0  0  0
   13.3949   17.5529   18.9516 O   0  0  0  0  0  0  0  0  0  0  0  0
   14.2574   17.8901   19.0941 H   0  0  0  0  0  0  0  0  0  0  0  0
   10.6927   17.7136   15.7482 C   0  0  0  0  0  0  0  0  0  0  0  0
    9.5572   17.1665   14.8601 C   0  0  0  0  0  0  0  0  0  0  0  0
    9.6791   15.6411   14.8557 C   0  0  0  0  0  0  0  0  0  0  0  0
    8.7497   17.9546   17.3209 C   0  0  0  0  0  0  0  0  0  0  0  0
    8.4961   16.6836   18.1488 C   0  0  0  0  0  0  0  0  0  0  0  0
    7.9174   17.0728   19.5040 C   0  0  0  0  0  0  0  0  0  0  0  0
    7.8405   16.1248   20.5326 C   0  0  0  0  0  0  0  0  0  0  0  0
    7.3098   16.4592   21.7885 C   0  0  0  0  0  0  0  0  0  0  0  0
    6.8819   17.7708   21.9982 C   0  0  0  0  0  0  0  0  0  0  0  0
    6.9624   18.7477   20.9887 C   0  0  0  0  0  0  0  0  0  0  0  0
    7.4816   18.3864   19.7329 C   0  0  0  0  0  0  0  0  0  0  0  0
   14.6880   20.7789   17.1028 C   0  0  0  0  0  0  0  0  0  0  0  0
   14.7685   19.9224   15.9958 C   0  0  0  0  0  0  0  0  0  0  0  0
   15.4645   20.3205   14.8402 C   0  0  0  0  0  0  0  0  0  0  0  0
   16.0407   21.5947   14.7767 C   0  0  0  0  0  0  0  0  0  0  0  0
   15.9700   22.4747   15.8593 C   0  0  0  0  0  0  0  0  0  0  0  0
   15.2979   22.0462   17.0077 C   0  0  0  0  0  0  0  0  0  0  0  0
   16.5600   23.7246   15.8296 N   0  0  0  0  0  0  0  0  0  0  0  0
   16.1386   24.4406   15.3013 H   0  0  0  0  0  0  0  0  0  0  0  0
   17.9228   24.0425   16.6385 S   0  0  0  0  0  0  0  0  0  0  0  0
   18.5892   25.1286   15.9541 O   0  0  0  0  0  0  0  0  0  0  0  0
   18.7587   22.8859   16.7587 O   0  0  0  0  0  0  0  0  0  0  0  0
   17.3898   24.4811   18.1132 C   0  0  0  0  0  0  0  0  0  0  0  0
   16.0960   24.2403   18.4504 N   0  0  0  0  0  0  0  0  0  0  0  0
   15.6186   24.5076   19.7007 C   0  0  0  0  0  0  0  0  0  0  0  0
   16.4314   25.0837   20.6926 C   0  0  0  0  0  0  0  0  0  0  0  0
   17.7737   25.3473   20.3704 C   0  0  0  0  0  0  0  0  0  0  0  0
   18.2554   25.0602   19.0729 C   0  0  0  0  0  0  0  0  0  0  0  0
   15.9202   25.3394   22.0854 C   0  0  0  0  0  0  0  0  0  0  0  0
   16.5406   26.2994   22.7495 F   0  0  0  0  0  0  0  0  0  0  0  0
   15.8319   24.2165   22.7591 F   0  0  0  0  0  0  0  0  0  0  0  0
   14.6642   25.7308   21.9588 F   0  0  0  0  0  0  0  0  0  0  0  0
   13.7789   21.6598   19.2486 C   0  0  0  0  0  0  0  0  0  0  0  0
   13.7913   21.3798   20.7475 C   0  0  0  0  0  0  0  0  0  0  0  0
  2  3  1  0  0  0
  2  7  1  0  0  0
  3  4  1  0  0  0
  3  8  2  0  0  0
  4  5  2  0  0  0
  4  1  1  0  0  0
  5  6  1  0  0  0
  5  9  1  0  0  0
  6  7  1  0  0  0
  7 11  1  0  0  0
  7 14  1  0  0  0
 11 12  1  0  0  0
 12 13  1  0  0  0
 14 15  1  0  0  0
 15 16  1  0  0  0
 16 17  2  0  0  0
 16 21  1  0  0  0
 17 18  1  0  0  0
 18 19  2  0  0  0
 19 20  1  0  0  0
 20 21  2  0  0  0
  1 43  1  0  0  0
  1 22  1  0  0  0
 43 44  1  0  0  0
 22 23  2  0  0  0
 22 27  1  0  0  0
 23 24  1  0  0  0
 24 25  2  0  0  0
 25 26  1  0  0  0
 26 28  1  0  0  0
 26 27  2  0  0  0
 28 30  1  0  0  0
 30 31  2  0  0  0
 30 32  2  0  0  0
 30 33  1  0  0  0
 33 34  2  0  0  0
 33 38  1  0  0  0
 34 35  1  0  0  0
 35 36  2  0  0  0
 36 37  1  0  0  0
 36 39  1  0  0  0
 37 38  2  0  0  0
 39 40  1  0  0  0
 39 41  1  0  0  0
 39 42  1  0  0  0
  9 10  1  0  0  0
 28 29  1  0  0  0
M  END
> <minimizedAffinity>
-9.60152

$$$$
2O4N_TPV_A_300


 44 47  0  0  0  0  0  0  0  0999 V2000
    8.2686   16.5775   19.6370 C   0  0  0  0  0  0  0  0  0  0  0  0
    4.5636   17.4687   18.9270 O   0  0  0  0  0  0  0  0  0  0  0  0
    5.8121   16.7916   18.9280 C   0  0  0  0  0  0  0  0  0  0  0  0
    6.9675   17.3865   19.6243 C   0  0  0  0  0  0  0  0  0  0  0  0
    6.8254   18.6595   20.1017 C   0  0  0  0  0  0  0  0  0  0  0  0
    5.5576   19.4625   19.9006 C   0  0  0  0  0  0  0  0  0  0  0  0
    4.2790   18.6186   19.7380 C   0  0  0  0  0  0  0  0  0  0  0  0
    5.8146   15.7233   18.3294 O   0  0  0  0  0  0  0  0  0  0  0  0
    7.8084   19.3101   20.7035 O   0  0  0  0  0  0  0  0  0  0  0  0
    8.6255   18.8804   20.8639 H   0  0  0  0  0  0  0  0  0  0  0  0
    3.7898   18.1882   21.1298 C   0  0  0  0  0  0  0  0  0  0  0  0
    4.6418   18.7052   22.3064 C   0  0  0  0  0  0  0  0  0  0  0  0
    4.3898   17.7729   23.4935 C   0  0  0  0  0  0  0  0  0  0  0  0
    3.1648   19.4024   19.0223 C   0  0  0  0  0  0  0  0  0  0  0  0
    2.1938   20.1156   19.9781 C   0  0  0  0  0  0  0  0  0  0  0  0
    2.5877   21.5835   20.0928 C   0  0  0  0  0  0  0  0  0  0  0  0
    2.0416   22.3793   21.1081 C   0  0  0  0  0  0  0  0  0  0  0  0
    2.3877   23.7341   21.2327 C   0  0  0  0  0  0  0  0  0  0  0  0
    3.3124   24.2663   20.3332 C   0  0  0  0  0  0  0  0  0  0  0  0
    3.8894   23.4864   19.3140 C   0  0  0  0  0  0  0  0  0  0  0  0
    3.5154   22.1360   19.1971 C   0  0  0  0  0  0  0  0  0  0  0  0
    9.2040   17.0515   18.5657 C   0  0  0  0  0  0  0  0  0  0  0  0
    9.0525   16.7019   17.2165 C   0  0  0  0  0  0  0  0  0  0  0  0
    9.9707   17.1645   16.2566 C   0  0  0  0  0  0  0  0  0  0  0  0
   11.0141   18.0146   16.6416 C   0  0  0  0  0  0  0  0  0  0  0  0
   11.1866   18.3887   17.9765 C   0  0  0  0  0  0  0  0  0  0  0  0
   10.2786   17.8934   18.9170 C   0  0  0  0  0  0  0  0  0  0  0  0
   12.2290   19.2007   18.3829 N   0  0  0  0  0  0  0  0  0  0  0  0
   12.6573   19.0307   19.2529 H   0  0  0  0  0  0  0  0  0  0  0  0
   12.7638   20.4216   17.4685 S   0  0  0  0  0  0  0  0  0  0  0  0
   11.6251   20.9618   16.7586 O   0  0  0  0  0  0  0  0  0  0  0  0
   13.8087   20.0101   16.5800 O   0  0  0  0  0  0  0  0  0  0  0  0
   13.3624   21.4723   18.5588 C   0  0  0  0  0  0  0  0  0  0  0  0
   13.6049   21.0479   19.8264 N   0  0  0  0  0  0  0  0  0  0  0  0
   14.1860   21.8604   20.7563 C   0  0  0  0  0  0  0  0  0  0  0  0
   14.5268   23.1921   20.4618 C   0  0  0  0  0  0  0  0  0  0  0  0
   14.2835   23.6596   19.1590 C   0  0  0  0  0  0  0  0  0  0  0  0
   13.6860   22.8048   18.2048 C   0  0  0  0  0  0  0  0  0  0  0  0
   15.2074   24.0772   21.4717 C   0  0  0  0  0  0  0  0  0  0  0  0
   16.4088   24.5092   21.1285 F   0  0  0  0  0  0  0  0  0  0  0  0
   15.1744   23.5291   22.6638 F   0  0  0  0  0  0  0  0  0  0  0  0
   14.4509   25.1535   21.5985 F   0  0  0  0  0  0  0  0  0  0  0  0
    9.0018   16.5447   20.9966 C   0  0  0  0  0  0  0  0  0  0  0  0
    8.1370   16.0791   22.1630 C   0  0  0  0  0  0  0  0  0  0  0  0
  2  3  1  0  0  0
  2  7  1  0  0  0
  3  4  1  0  0  0
  3  8  2  0  0  0
  4  5  2  0  0  0
  4  1  1  0  0  0
  5  6  1  0  0  0
  5  9  1  0  0  0
  6  7  1  0  0  0
  7 11  1  0  0  0
  7 14  1  0  0  0
 11 12  1  0  0  0
 12 13  1  0  0  0
 14 15  1  0  0  0
 15 16  1  0  0  0
 16 17  2  0  0  0
 16 21  1  0  0  0
 17 18  1  0  0  0
 18 19  2  0  0  0
 19 20  1  0  0  0
 20 21  2  0  0  0
  1 43  1  0  0  0
  1 22  1  0  0  0
 43 44  1  0  0  0
 22 23  2  0  0  0
 22 27  1  0  0  0
 23 24  1  0  0  0
 24 25  2  0  0  0
 25 26  1  0  0  0
 26 28  1  0  0  0
 26 27  2  0  0  0
 28 30  1  0  0  0
 30 31  2  0  0  0
 30 32  2  0  0  0
 30 33  1  0  0  0
 33 34  2  0  0  0
 33 38  1  0  0  0
 34 35  1  0  0  0
 35 36  2  0  0  0
 36 37  1  0  0  0
 36 39  1  0  0  0
 37 38  2  0  0  0
 39 40  1  0  0  0
 39 41  1  0  0  0
 39 42  1  0  0  0
  9 10  1  0  0  0
 28 29  1  0  0  0
M  END
> <minimizedAffinity>
-9.41670

$$$$
2O4N_TPV_A_300


 44 47  0  0  0  0  0  0  0  0999 V2000
   10.0374   17.6340   19.5656 C   0  0  0  0  0  0  0  0  0  0  0  0
    6.3977   16.5517   20.3446 O   0  0  0  0  0  0  0  0  0  0  0  0
    7.7821   16.5027   20.0309 C   0  0  0  0  0  0  0  0  0  0  0  0
    8.5358   17.7560   19.8442 C   0  0  0  0  0  0  0  0  0  0  0  0
    7.8204   18.9205   19.8170 C   0  0  0  0  0  0  0  0  0  0  0  0
    6.3108   18.9459   19.9305 C   0  0  0  0  0  0  0  0  0  0  0  0
    5.7019   17.7568   20.6979 C   0  0  0  0  0  0  0  0  0  0  0  0
    8.2474   15.3730   19.9472 O   0  0  0  0  0  0  0  0  0  0  0  0
    8.3844   20.1002   19.6115 O   0  0  0  0  0  0  0  0  0  0  0  0
    9.3155   20.1665   19.5302 H   0  0  0  0  0  0  0  0  0  0  0  0
    5.8235   18.0264   22.2058 C   0  0  0  0  0  0  0  0  0  0  0  0
    4.6337   17.5310   23.0523 C   0  0  0  0  0  0  0  0  0  0  0  0
    4.2721   18.6531   24.0279 C   0  0  0  0  0  0  0  0  0  0  0  0
    4.2229   17.5391   20.3331 C   0  0  0  0  0  0  0  0  0  0  0  0
    3.7115   18.4748   19.2250 C   0  0  0  0  0  0  0  0  0  0  0  0
    3.1100   19.7237   19.8587 C   0  0  0  0  0  0  0  0  0  0  0  0
    2.2979   19.6125   20.9947 C   0  0  0  0  0  0  0  0  0  0  0  0
    1.7313   20.7482   21.5947 C   0  0  0  0  0  0  0  0  0  0  0  0
    2.0177   21.9989   21.0463 C   0  0  0  0  0  0  0  0  0  0  0  0
    2.8433   22.1418   19.9159 C   0  0  0  0  0  0  0  0  0  0  0  0
    3.3864   20.9894   19.3207 C   0  0  0  0  0  0  0  0  0  0  0  0
   10.3093   17.6262   18.0914 C   0  0  0  0  0  0  0  0  0  0  0  0
   11.5564   17.9648   17.5477 C   0  0  0  0  0  0  0  0  0  0  0  0
   11.7491   17.9545   16.1544 C   0  0  0  0  0  0  0  0  0  0  0  0
   10.7057   17.5606   15.3084 C   0  0  0  0  0  0  0  0  0  0  0  0
    9.4542   17.2085   15.8198 C   0  0  0  0  0  0  0  0  0  0  0  0
    9.2776   17.2540   17.2058 C   0  0  0  0  0  0  0  0  0  0  0  0
    8.4008   16.8480   15.0002 N   0  0  0  0  0  0  0  0  0  0  0  0
    7.8565   17.5536   14.5818 H   0  0  0  0  0  0  0  0  0  0  0  0
    8.0387   15.2996   14.7103 S   0  0  0  0  0  0  0  0  0  0  0  0
    9.0258   14.4896   15.3900 O   0  0  0  0  0  0  0  0  0  0  0  0
    7.9790   15.0150   13.3082 O   0  0  0  0  0  0  0  0  0  0  0  0
    6.5552   15.1335   15.3604 C   0  0  0  0  0  0  0  0  0  0  0  0
    5.9415   13.9223   15.3138 N   0  0  0  0  0  0  0  0  0  0  0  0
    4.7372   13.7044   15.9176 C   0  0  0  0  0  0  0  0  0  0  0  0
    4.0501   14.7335   16.5850 C   0  0  0  0  0  0  0  0  0  0  0  0
    4.6596   15.9983   16.6456 C   0  0  0  0  0  0  0  0  0  0  0  0
    5.9098   16.2077   16.0201 C   0  0  0  0  0  0  0  0  0  0  0  0
    2.7427   14.4858   17.2891 C   0  0  0  0  0  0  0  0  0  0  0  0
    2.7787   13.5769   18.2484 F   0  0  0  0  0  0  0  0  0  0  0  0
    1.7801   14.2844   16.4199 F   0  0  0  0  0  0  0  0  0  0  0  0
    2.4082   15.6240   17.8719 F   0  0  0  0  0  0  0  0  0  0  0  0
   10.9165   18.7009   20.2554 C   0  0  0  0  0  0  0  0  0  0  0  0
   10.6676   18.8442   21.7530 C   0  0  0  0  0  0  0  0  0  0  0  0
  2  3  1  0  0  0
  2  7  1  0  0  0
  3  4  1  0  0  0
  3  8  2  0  0  0
  4  5  2  0  0  0
  4  1  1  0  0  0
  5  6  1  0  0  0
  5  9  1  0  0  0
  6  7  1  0  0  0
  7 11  1  0  0  0
  7 14  1  0  0  0
 11 12  1  0  0  0
 12 13  1  0  0  0
 14 15  1  0  0  0
 15 16  1  0  0  0
 16 17  2  0  0  0
 16 21  1  0  0  0
 17 18  1  0  0  0
 18 19  2  0  0  0
 19 20  1  0  0  0
 20 21  2  0  0  0
  1 43  1  0  0  0
  1 22  1  0  0  0
 43 44  1  0  0  0
 22 23  2  0  0  0
 22 27  1  0  0  0
 23 24  1  0  0  0
 24 25  2  0  0  0
 25 26  1  0  0  0
 26 28  1  0  0  0
 26 27  2  0  0  0
 28 30  1  0  0  0
 30 31  2  0  0  0
 30 32  2  0  0  0
 30 33  1  0  0  0
 33 34  2  0  0  0
 33 38  1  0  0  0
 34 35  1  0  0  0
 35 36  2  0  0  0
 36 37  1  0  0  0
 36 39  1  0  0  0
 37 38  2  0  0  0
 39 40  1  0  0  0
 39 41  1  0  0  0
 39 42  1  0  0  0
  9 10  1  0  0  0
 28 29  1  0  0  0
M  END
> <minimizedAffinity>
-9.39845

$$$$
