5O9Y_9PN_A_601


 57 61  0  0  0  0  0  0  0  0999 V2000
   -9.1478   13.1401   21.5809 C   0  0  0  0  0  0  0  0  0  0  0  0
   -9.6452   11.7124   21.8318 C   0  0  0  0  0  0  0  0  0  0  0  0
  -10.2902   14.0018   21.0503 C   0  0  0  0  0  0  0  0  0  0  0  0
  -11.8861   12.4654   22.1742 C   0  0  0  0  0  0  0  0  0  0  0  0
  -11.4910   13.9203   21.9881 C   0  0  0  0  0  0  0  0  0  0  0  0
  -12.6091   14.6457   21.4474 O   0  0  0  0  0  0  0  0  0  0  0  0
  -10.7758   11.7423   22.7163 O   0  0  0  0  0  0  0  0  0  0  0  0
   -8.0771   13.1168   20.6235 O   0  0  0  0  0  0  0  0  0  0  0  0
  -12.8626   14.2601   20.5942 H   0  0  0  0  0  0  0  0  0  0  0  0
   -8.3978   12.7410   19.7888 H   0  0  0  0  0  0  0  0  0  0  0  0
   -8.5657   10.8695   22.5175 C   0  0  0  0  0  0  0  0  0  0  0  0
   -7.7220   11.7127   23.3057 O   0  0  0  0  0  0  0  0  0  0  0  0
   -7.2975   12.3710   22.7336 H   0  0  0  0  0  0  0  0  0  0  0  0
  -12.9874   12.4157   23.0861 O   0  0  0  0  0  0  0  0  0  0  0  0
  -15.4269    9.5709   22.6997 C   0  0  0  0  0  0  0  0  0  0  0  0
  -14.6591   10.8479   22.3166 C   0  0  0  0  0  0  0  0  0  0  0  0
  -14.1218   10.7030   20.9888 O   0  0  0  0  0  0  0  0  0  0  0  0
  -15.8189    9.6226   24.0784 O   0  0  0  0  0  0  0  0  0  0  0  0
  -14.7035    9.7345   24.9789 C   0  0  0  0  0  0  0  0  0  0  0  0
  -14.0404   11.0781   24.7454 C   0  0  0  0  0  0  0  0  0  0  0  0
  -12.9373   11.2743   25.6484 O   0  0  0  0  0  0  0  0  0  0  0  0
  -13.5232   11.1081   23.3128 C   0  0  0  0  0  0  0  0  0  0  0  0
  -13.5125    9.9486   20.9671 H   0  0  0  0  0  0  0  0  0  0  0  0
  -12.2780   10.5764   25.5099 H   0  0  0  0  0  0  0  0  0  0  0  0
  -18.3321    8.8013   20.8491 C   0  0  0  0  0  0  0  0  0  0  0  0
  -17.0537    8.5615   21.0790 C   0  0  0  0  0  0  0  0  0  0  0  0
  -18.7155    9.7658   21.6719 N   0  0  0  0  0  0  0  0  0  0  0  0
  -17.7627   10.0883   22.3430 N   0  0  0  0  0  0  0  0  0  0  0  0
  -16.7382    9.4279   22.0410 N   0  0  0  0  0  0  0  0  0  0  0  0
  -19.2601    8.1119   19.8360 C   0  0  0  0  0  0  0  0  0  0  0  0
  -18.5806    8.2193   18.4891 C   0  0  0  0  0  0  0  0  0  0  0  0
  -19.7167    8.5339   17.5388 C   0  0  0  0  0  0  0  0  0  0  0  0
  -20.8303    7.5396   15.5688 C   0  0  0  0  0  0  0  0  0  0  0  0
  -20.8340    6.8830   14.3426 C   0  0  0  0  0  0  0  0  0  0  0  0
  -19.6298    6.5035   13.7570 C   0  0  0  0  0  0  0  0  0  0  0  0
  -18.4179    6.7756   14.3943 C   0  0  0  0  0  0  0  0  0  0  0  0
  -18.3979    7.4340   15.6258 C   0  0  0  0  0  0  0  0  0  0  0  0
  -19.6209    7.8246   16.2303 N   0  0  0  0  0  0  0  0  0  0  0  0
  -15.1693    9.5609   26.4340 C   0  0  0  0  0  0  0  0  0  0  0  0
  -15.5636    8.2127   26.6531 O   0  0  0  0  0  0  0  0  0  0  0  0
  -16.2928    7.9877   26.0543 H   0  0  0  0  0  0  0  0  0  0  0  0
   -9.8387   15.3626   20.9816 O   0  0  0  0  0  0  0  0  0  0  0  0
  -10.0271   15.9917   19.7045 C   0  0  0  0  0  0  0  0  0  0  0  0
   -9.2153   15.3331   18.7258 O   0  0  0  0  0  0  0  0  0  0  0  0
   -9.4273   15.8588   17.4066 C   0  0  0  0  0  0  0  0  0  0  0  0
   -8.9627   17.3133   17.3673 C   0  0  0  0  0  0  0  0  0  0  0  0
   -9.2659   17.8776   16.0813 O   0  0  0  0  0  0  0  0  0  0  0  0
   -9.6939   18.1227   18.4456 C   0  0  0  0  0  0  0  0  0  0  0  0
   -9.1151   19.4246   18.5396 O   0  0  0  0  0  0  0  0  0  0  0  0
   -9.5897   17.4455   19.8103 C   0  0  0  0  0  0  0  0  0  0  0  0
  -10.4072   18.1546   20.7523 O   0  0  0  0  0  0  0  0  0  0  0  0
  -10.2234   17.8424   15.9304 H   0  0  0  0  0  0  0  0  0  0  0  0
   -8.1819   19.3460   18.7924 H   0  0  0  0  0  0  0  0  0  0  0  0
  -11.3301   18.1414   20.4538 H   0  0  0  0  0  0  0  0  0  0  0  0
   -8.6454   14.9782   16.4233 C   0  0  0  0  0  0  0  0  0  0  0  0
   -8.9056   15.3946   15.0794 O   0  0  0  0  0  0  0  0  0  0  0  0
   -8.6273   16.3170   14.9671 H   0  0  0  0  0  0  0  0  0  0  0  0
 35 36  2  0  0  0
 35 34  1  0  0  0
 36 37  1  0  0  0
 34 33  2  0  0  0
 47 46  1  0  0  0
 55 56  1  0  0  0
 55 45  1  0  0  0
 37 38  2  0  0  0
 33 38  1  0  0  0
 46 45  1  0  0  0
 46 48  1  0  0  0
 45 44  1  0  0  0
 38 32  1  0  0  0
 48 49  1  0  0  0
 48 50  1  0  0  0
 44 43  1  0  0  0
 32 31  1  0  0  0
 31 30  1  0  0  0
 43 50  1  0  0  0
 43 42  1  0  0  0
 50 51  1  0  0  0
 17 16  1  0  0  0
 30 25  1  0  0  0
 42  3  1  0  0  0
  6  5  1  0  0  0
  3  5  1  0  0  0
  3  1  1  0  0  0
  8  1  1  0  0  0
 25 27  1  0  0  0
 25 26  2  0  0  0
 27 28  2  0  0  0
 26 29  1  0  0  0
 28 29  1  0  0  0
  5  4  1  0  0  0
  1  2  1  0  0  0
 29 15  1  0  0  0
  4 14  1  0  0  0
  4  7  1  0  0  0
 16 15  1  0  0  0
 16 22  1  0  0  0
  2  7  1  0  0  0
  2 11  1  0  0  0
 15 18  1  0  0  0
 14 22  1  0  0  0
 22 20  1  0  0  0
 11 12  1  0  0  0
 18 19  1  0  0  0
 20 19  1  0  0  0
 20 21  1  0  0  0
 19 39  1  0  0  0
 39 40  1  0  0  0
 17 23  1  0  0  0
 40 41  1  0  0  0
 21 24  1  0  0  0
  6  9  1  0  0  0
 12 13  1  0  0  0
  8 10  1  0  0  0
 56 57  1  0  0  0
 47 52  1  0  0  0
 49 53  1  0  0  0
 51 54  1  0  0  0
M  CHG 1  38   1
M  END
> <minimizedAffinity>
-10.61990

$$$$
5O9Y_9PN_A_601


 57 61  0  0  0  0  0  0  0  0999 V2000
   -9.3389   13.3009   20.2238 C   0  0  0  0  0  0  0  0  0  0  0  0
   -9.4269   12.4873   21.5195 C   0  0  0  0  0  0  0  0  0  0  0  0
  -10.4257   12.8488   19.2524 C   0  0  0  0  0  0  0  0  0  0  0  0
  -11.7591   12.0798   21.2022 C   0  0  0  0  0  0  0  0  0  0  0  0
  -11.7928   12.9058   19.9278 C   0  0  0  0  0  0  0  0  0  0  0  0
  -12.8126   12.3856   19.0571 O   0  0  0  0  0  0  0  0  0  0  0  0
  -10.7474   12.5987   22.0722 O   0  0  0  0  0  0  0  0  0  0  0  0
   -8.0475   13.1136   19.6230 O   0  0  0  0  0  0  0  0  0  0  0  0
  -12.6159   11.4595   18.8459 H   0  0  0  0  0  0  0  0  0  0  0  0
   -7.9198   12.1743   19.4175 H   0  0  0  0  0  0  0  0  0  0  0  0
   -8.4562   13.0295   22.5730 C   0  0  0  0  0  0  0  0  0  0  0  0
   -7.9645   11.9540   23.3765 O   0  0  0  0  0  0  0  0  0  0  0  0
   -8.7074   11.5171   23.8217 H   0  0  0  0  0  0  0  0  0  0  0  0
  -13.0388   12.1821   21.8335 O   0  0  0  0  0  0  0  0  0  0  0  0
  -15.6004    9.4650   22.3332 C   0  0  0  0  0  0  0  0  0  0  0  0
  -14.8844   10.6332   21.6335 C   0  0  0  0  0  0  0  0  0  0  0  0
  -14.6348   10.2868   20.2586 O   0  0  0  0  0  0  0  0  0  0  0  0
  -15.7008    9.7169   23.7417 O   0  0  0  0  0  0  0  0  0  0  0  0
  -14.4218    9.8751   24.3796 C   0  0  0  0  0  0  0  0  0  0  0  0
  -13.7754   11.1348   23.8365 C   0  0  0  0  0  0  0  0  0  0  0  0
  -12.5052   11.3777   24.4677 O   0  0  0  0  0  0  0  0  0  0  0  0
  -13.5609   10.9493   22.3397 C   0  0  0  0  0  0  0  0  0  0  0  0
  -14.0685    9.5002   20.2210 H   0  0  0  0  0  0  0  0  0  0  0  0
  -11.9120   10.6290   24.2991 H   0  0  0  0  0  0  0  0  0  0  0  0
  -18.8509    8.6303   21.2399 C   0  0  0  0  0  0  0  0  0  0  0  0
  -17.5647    8.3306   21.2623 C   0  0  0  0  0  0  0  0  0  0  0  0
  -19.0163    9.7478   21.9314 N   0  0  0  0  0  0  0  0  0  0  0  0
  -17.9342   10.1013   22.3392 N   0  0  0  0  0  0  0  0  0  0  0  0
  -17.0226    9.3188   21.9730 N   0  0  0  0  0  0  0  0  0  0  0  0
  -19.9943    7.8566   20.5642 C   0  0  0  0  0  0  0  0  0  0  0  0
  -19.8543    8.0953   19.0774 C   0  0  0  0  0  0  0  0  0  0  0  0
  -21.2126    7.7179   18.5244 C   0  0  0  0  0  0  0  0  0  0  0  0
  -20.0317    7.7737   16.3537 C   0  0  0  0  0  0  0  0  0  0  0  0
  -19.9480    7.5806   14.9788 C   0  0  0  0  0  0  0  0  0  0  0  0
  -21.0473    7.0897   14.2806 C   0  0  0  0  0  0  0  0  0  0  0  0
  -22.2349    6.7925   14.9517 C   0  0  0  0  0  0  0  0  0  0  0  0
  -22.3344    6.9811   16.3319 C   0  0  0  0  0  0  0  0  0  0  0  0
  -21.2184    7.4812   17.0519 N   0  0  0  0  0  0  0  0  0  0  0  0
  -14.5863    9.9183   25.9077 C   0  0  0  0  0  0  0  0  0  0  0  0
  -15.8043   10.5720   26.2401 O   0  0  0  0  0  0  0  0  0  0  0  0
  -15.7899   11.4780   25.8938 H   0  0  0  0  0  0  0  0  0  0  0  0
  -10.4222   13.7341   18.1226 O   0  0  0  0  0  0  0  0  0  0  0  0
  -10.2706   15.1237   18.4518 C   0  0  0  0  0  0  0  0  0  0  0  0
  -11.5515   15.7630   18.4164 O   0  0  0  0  0  0  0  0  0  0  0  0
  -11.4801   17.1375   18.8255 C   0  0  0  0  0  0  0  0  0  0  0  0
  -10.6400   17.9168   17.8156 C   0  0  0  0  0  0  0  0  0  0  0  0
  -10.4776   19.2696   18.2712 O   0  0  0  0  0  0  0  0  0  0  0  0
   -9.2547   17.2717   17.6829 C   0  0  0  0  0  0  0  0  0  0  0  0
   -8.5488   17.8760   16.5988 O   0  0  0  0  0  0  0  0  0  0  0  0
   -9.3669   15.7728   17.4135 C   0  0  0  0  0  0  0  0  0  0  0  0
   -8.0568   15.1887   17.4443 O   0  0  0  0  0  0  0  0  0  0  0  0
  -10.0279   19.2696   19.1307 H   0  0  0  0  0  0  0  0  0  0  0  0
   -9.0374   17.7304   15.7736 H   0  0  0  0  0  0  0  0  0  0  0  0
   -7.6593   15.3320   18.3174 H   0  0  0  0  0  0  0  0  0  0  0  0
  -12.9154   17.6721   18.9142 C   0  0  0  0  0  0  0  0  0  0  0  0
  -13.2460   18.3883   17.7205 O   0  0  0  0  0  0  0  0  0  0  0  0
  -13.1772   17.7938   16.9572 H   0  0  0  0  0  0  0  0  0  0  0  0
 35 36  2  0  0  0
 35 34  1  0  0  0
 36 37  1  0  0  0
 34 33  2  0  0  0
 47 46  1  0  0  0
 55 56  1  0  0  0
 55 45  1  0  0  0
 37 38  2  0  0  0
 33 38  1  0  0  0
 46 45  1  0  0  0
 46 48  1  0  0  0
 45 44  1  0  0  0
 38 32  1  0  0  0
 48 49  1  0  0  0
 48 50  1  0  0  0
 44 43  1  0  0  0
 32 31  1  0  0  0
 31 30  1  0  0  0
 43 50  1  0  0  0
 43 42  1  0  0  0
 50 51  1  0  0  0
 17 16  1  0  0  0
 30 25  1  0  0  0
 42  3  1  0  0  0
  6  5  1  0  0  0
  3  5  1  0  0  0
  3  1  1  0  0  0
  8  1  1  0  0  0
 25 27  1  0  0  0
 25 26  2  0  0  0
 27 28  2  0  0  0
 26 29  1  0  0  0
 28 29  1  0  0  0
  5  4  1  0  0  0
  1  2  1  0  0  0
 29 15  1  0  0  0
  4 14  1  0  0  0
  4  7  1  0  0  0
 16 15  1  0  0  0
 16 22  1  0  0  0
  2  7  1  0  0  0
  2 11  1  0  0  0
 15 18  1  0  0  0
 14 22  1  0  0  0
 22 20  1  0  0  0
 11 12  1  0  0  0
 18 19  1  0  0  0
 20 19  1  0  0  0
 20 21  1  0  0  0
 19 39  1  0  0  0
 39 40  1  0  0  0
 17 23  1  0  0  0
 40 41  1  0  0  0
 21 24  1  0  0  0
  6  9  1  0  0  0
 12 13  1  0  0  0
  8 10  1  0  0  0
 56 57  1  0  0  0
 47 52  1  0  0  0
 49 53  1  0  0  0
 51 54  1  0  0  0
M  CHG 1  38   1
M  END
> <minimizedAffinity>
-10.40974

$$$$
5O9Y_9PN_A_601


 57 61  0  0  0  0  0  0  0  0999 V2000
   -8.9968   13.3533   21.5087 C   0  0  0  0  0  0  0  0  0  0  0  0
   -9.4107   11.9156   21.8408 C   0  0  0  0  0  0  0  0  0  0  0  0
  -10.2299   14.1793   21.1532 C   0  0  0  0  0  0  0  0  0  0  0  0
  -11.5934   12.6127   22.5160 C   0  0  0  0  0  0  0  0  0  0  0  0
  -11.2715   14.0755   22.2634 C   0  0  0  0  0  0  0  0  0  0  0  0
  -12.4783   14.7659   21.8949 O   0  0  0  0  0  0  0  0  0  0  0  0
  -10.3941   11.9245   22.8870 O   0  0  0  0  0  0  0  0  0  0  0  0
   -8.0838   13.3486   20.3996 O   0  0  0  0  0  0  0  0  0  0  0  0
  -12.8479   14.3652   21.0926 H   0  0  0  0  0  0  0  0  0  0  0  0
   -8.5173   12.9562   19.6257 H   0  0  0  0  0  0  0  0  0  0  0  0
   -8.2167   11.1083   22.3591 C   0  0  0  0  0  0  0  0  0  0  0  0
   -7.5340   10.4964   21.2620 O   0  0  0  0  0  0  0  0  0  0  0  0
   -8.1415    9.9028   20.7937 H   0  0  0  0  0  0  0  0  0  0  0  0
  -12.5414   12.5432   23.5852 O   0  0  0  0  0  0  0  0  0  0  0  0
  -14.6271    9.5352   22.6932 C   0  0  0  0  0  0  0  0  0  0  0  0
  -13.7559   10.7815   22.4598 C   0  0  0  0  0  0  0  0  0  0  0  0
  -12.7148   10.4677   21.5161 O   0  0  0  0  0  0  0  0  0  0  0  0
  -15.5585    9.7734   23.7577 O   0  0  0  0  0  0  0  0  0  0  0  0
  -14.9198   10.0861   25.0075 C   0  0  0  0  0  0  0  0  0  0  0  0
  -14.2054   11.4148   24.8538 C   0  0  0  0  0  0  0  0  0  0  0  0
  -13.5780   11.8104   26.0870 O   0  0  0  0  0  0  0  0  0  0  0  0
  -13.1369   11.2563   23.7795 C   0  0  0  0  0  0  0  0  0  0  0  0
  -12.1602    9.7556   21.8715 H   0  0  0  0  0  0  0  0  0  0  0  0
  -12.9287   11.1392   26.3493 H   0  0  0  0  0  0  0  0  0  0  0  0
  -17.2328    8.8660   20.4085 C   0  0  0  0  0  0  0  0  0  0  0  0
  -16.8740    9.1451   21.6486 C   0  0  0  0  0  0  0  0  0  0  0  0
  -16.1313    8.7988   19.6759 N   0  0  0  0  0  0  0  0  0  0  0  0
  -15.1858    9.0154   20.3978 N   0  0  0  0  0  0  0  0  0  0  0  0
  -15.5450    9.2173   21.5841 N   0  0  0  0  0  0  0  0  0  0  0  0
  -18.6515    8.6592   19.8543 C   0  0  0  0  0  0  0  0  0  0  0  0
  -19.3882    7.8103   20.8662 C   0  0  0  0  0  0  0  0  0  0  0  0
  -20.8472    8.0970   20.5799 C   0  0  0  0  0  0  0  0  0  0  0  0
  -22.2045   10.1600   20.4726 C   0  0  0  0  0  0  0  0  0  0  0  0
  -22.7279   11.3328   21.0066 C   0  0  0  0  0  0  0  0  0  0  0  0
  -22.4155   11.6984   22.3126 C   0  0  0  0  0  0  0  0  0  0  0  0
  -21.5776   10.8962   23.0893 C   0  0  0  0  0  0  0  0  0  0  0  0
  -21.0443    9.7157   22.5672 C   0  0  0  0  0  0  0  0  0  0  0  0
  -21.3574    9.3352   21.2365 N   0  0  0  0  0  0  0  0  0  0  0  0
  -15.9524   10.1093   26.1465 C   0  0  0  0  0  0  0  0  0  0  0  0
  -16.5377   11.4019   26.2361 O   0  0  0  0  0  0  0  0  0  0  0  0
  -15.8465   12.0580   26.4170 H   0  0  0  0  0  0  0  0  0  0  0  0
   -9.8318   15.5507   21.0085 O   0  0  0  0  0  0  0  0  0  0  0  0
   -9.9625   16.0745   19.6777 C   0  0  0  0  0  0  0  0  0  0  0  0
   -9.1714   15.2897   18.7783 O   0  0  0  0  0  0  0  0  0  0  0  0
   -9.3306   15.7082   17.4140 C   0  0  0  0  0  0  0  0  0  0  0  0
   -8.7854   17.1265   17.2591 C   0  0  0  0  0  0  0  0  0  0  0  0
   -9.0341   17.5912   15.9225 O   0  0  0  0  0  0  0  0  0  0  0  0
   -9.4894   18.0656   18.2465 C   0  0  0  0  0  0  0  0  0  0  0  0
   -8.8409   19.3377   18.2402 O   0  0  0  0  0  0  0  0  0  0  0  0
   -9.4469   17.5063   19.6668 C   0  0  0  0  0  0  0  0  0  0  0  0
  -10.2403   18.3383   20.5252 O   0  0  0  0  0  0  0  0  0  0  0  0
   -9.9893   17.5944   15.7539 H   0  0  0  0  0  0  0  0  0  0  0  0
   -7.9181   19.2316   18.5197 H   0  0  0  0  0  0  0  0  0  0  0  0
  -11.1570   18.3486   20.2084 H   0  0  0  0  0  0  0  0  0  0  0  0
   -8.5817   14.7039   16.5285 C   0  0  0  0  0  0  0  0  0  0  0  0
   -8.3245   13.5018   17.2607 O   0  0  0  0  0  0  0  0  0  0  0  0
   -9.1653   13.1086   17.5424 H   0  0  0  0  0  0  0  0  0  0  0  0
 35 36  2  0  0  0
 35 34  1  0  0  0
 36 37  1  0  0  0
 34 33  2  0  0  0
 47 46  1  0  0  0
 55 56  1  0  0  0
 55 45  1  0  0  0
 37 38  2  0  0  0
 33 38  1  0  0  0
 46 45  1  0  0  0
 46 48  1  0  0  0
 45 44  1  0  0  0
 38 32  1  0  0  0
 48 49  1  0  0  0
 48 50  1  0  0  0
 44 43  1  0  0  0
 32 31  1  0  0  0
 31 30  1  0  0  0
 43 50  1  0  0  0
 43 42  1  0  0  0
 50 51  1  0  0  0
 17 16  1  0  0  0
 30 25  1  0  0  0
 42  3  1  0  0  0
  6  5  1  0  0  0
  3  5  1  0  0  0
  3  1  1  0  0  0
  8  1  1  0  0  0
 25 27  1  0  0  0
 25 26  2  0  0  0
 27 28  2  0  0  0
 26 29  1  0  0  0
 28 29  1  0  0  0
  5  4  1  0  0  0
  1  2  1  0  0  0
 29 15  1  0  0  0
  4 14  1  0  0  0
  4  7  1  0  0  0
 16 15  1  0  0  0
 16 22  1  0  0  0
  2  7  1  0  0  0
  2 11  1  0  0  0
 15 18  1  0  0  0
 14 22  1  0  0  0
 22 20  1  0  0  0
 11 12  1  0  0  0
 18 19  1  0  0  0
 20 19  1  0  0  0
 20 21  1  0  0  0
 19 39  1  0  0  0
 39 40  1  0  0  0
 17 23  1  0  0  0
 40 41  1  0  0  0
 21 24  1  0  0  0
  6  9  1  0  0  0
 12 13  1  0  0  0
  8 10  1  0  0  0
 56 57  1  0  0  0
 47 52  1  0  0  0
 49 53  1  0  0  0
 51 54  1  0  0  0
M  CHG 1  38   1
M  END
> <minimizedAffinity>
-10.16806

$$$$
5O9Y_9PN_A_601


 57 61  0  0  0  0  0  0  0  0999 V2000
   -9.2281   13.2463   20.5291 C   0  0  0  0  0  0  0  0  0  0  0  0
   -9.3917   12.2642   21.6942 C   0  0  0  0  0  0  0  0  0  0  0  0
  -10.2900   12.9733   19.4675 C   0  0  0  0  0  0  0  0  0  0  0  0
  -11.7214   11.9896   21.2435 C   0  0  0  0  0  0  0  0  0  0  0  0
  -11.6798   12.9853   20.0971 C   0  0  0  0  0  0  0  0  0  0  0  0
  -12.6807   12.6285   19.1278 O   0  0  0  0  0  0  0  0  0  0  0  0
  -10.7286   12.3455   22.2117 O   0  0  0  0  0  0  0  0  0  0  0  0
   -7.9209   13.0975   19.9524 O   0  0  0  0  0  0  0  0  0  0  0  0
  -12.5049   11.7342   18.7957 H   0  0  0  0  0  0  0  0  0  0  0  0
   -7.8146   12.1919   19.6217 H   0  0  0  0  0  0  0  0  0  0  0  0
   -8.4463   12.6192   22.8458 C   0  0  0  0  0  0  0  0  0  0  0  0
   -7.7192   11.4565   23.2504 O   0  0  0  0  0  0  0  0  0  0  0  0
   -8.3408   10.7733   23.5467 H   0  0  0  0  0  0  0  0  0  0  0  0
  -13.0209   12.0494   21.8389 O   0  0  0  0  0  0  0  0  0  0  0  0
  -15.5195    9.2301   21.8793 C   0  0  0  0  0  0  0  0  0  0  0  0
  -14.7540   10.4441   21.3251 C   0  0  0  0  0  0  0  0  0  0  0  0
  -14.2898   10.1503   19.9944 O   0  0  0  0  0  0  0  0  0  0  0  0
  -15.8375    9.4336   23.2630 O   0  0  0  0  0  0  0  0  0  0  0  0
  -14.6746    9.6163   24.0887 C   0  0  0  0  0  0  0  0  0  0  0  0
  -14.0048   10.9143   23.6814 C   0  0  0  0  0  0  0  0  0  0  0  0
  -12.8528   11.1814   24.5014 O   0  0  0  0  0  0  0  0  0  0  0  0
  -13.5634   10.7838   22.2292 C   0  0  0  0  0  0  0  0  0  0  0  0
  -13.6938    9.3855   20.0214 H   0  0  0  0  0  0  0  0  0  0  0  0
  -12.2122   10.4596   24.4039 H   0  0  0  0  0  0  0  0  0  0  0  0
  -18.9234    9.0629   20.9610 C   0  0  0  0  0  0  0  0  0  0  0  0
  -18.0215    9.4086   21.8619 C   0  0  0  0  0  0  0  0  0  0  0  0
  -18.2811    8.5350   19.9299 N   0  0  0  0  0  0  0  0  0  0  0  0
  -17.0971    8.5540   20.1747 N   0  0  0  0  0  0  0  0  0  0  0  0
  -16.8657    9.0457   21.3069 N   0  0  0  0  0  0  0  0  0  0  0  0
  -20.4497    9.2293   21.0332 C   0  0  0  0  0  0  0  0  0  0  0  0
  -20.7130   10.7096   21.1965 C   0  0  0  0  0  0  0  0  0  0  0  0
  -21.8209   10.7649   22.2273 C   0  0  0  0  0  0  0  0  0  0  0  0
  -20.2705   11.4197   24.0376 C   0  0  0  0  0  0  0  0  0  0  0  0
  -19.8966   12.1833   25.1384 C   0  0  0  0  0  0  0  0  0  0  0  0
  -20.7518   13.1705   25.6187 C   0  0  0  0  0  0  0  0  0  0  0  0
  -21.9845   13.3974   25.0038 C   0  0  0  0  0  0  0  0  0  0  0  0
  -22.3740   12.6390   23.8977 C   0  0  0  0  0  0  0  0  0  0  0  0
  -21.5083   11.6302   23.4012 N   0  0  0  0  0  0  0  0  0  0  0  0
  -15.0656    9.6053   25.5758 C   0  0  0  0  0  0  0  0  0  0  0  0
  -15.4077   10.9213   25.9908 O   0  0  0  0  0  0  0  0  0  0  0  0
  -14.6461   11.5085   25.8642 H   0  0  0  0  0  0  0  0  0  0  0  0
  -10.2150   14.0062   18.4737 O   0  0  0  0  0  0  0  0  0  0  0  0
   -9.7639   15.2779   18.9654 C   0  0  0  0  0  0  0  0  0  0  0  0
  -10.8822   16.0161   19.4705 O   0  0  0  0  0  0  0  0  0  0  0  0
  -10.4837   17.2630   20.0604 C   0  0  0  0  0  0  0  0  0  0  0  0
   -9.8941   18.1632   18.9765 C   0  0  0  0  0  0  0  0  0  0  0  0
   -9.3990   19.3716   19.5755 O   0  0  0  0  0  0  0  0  0  0  0  0
   -8.7311   17.4459   18.2797 C   0  0  0  0  0  0  0  0  0  0  0  0
   -8.3166   18.2026   17.1421 O   0  0  0  0  0  0  0  0  0  0  0  0
   -9.1428   16.0519   17.8117 C   0  0  0  0  0  0  0  0  0  0  0  0
   -7.9903   15.3660   17.3020 O   0  0  0  0  0  0  0  0  0  0  0  0
   -8.7091   19.1532   20.2214 H   0  0  0  0  0  0  0  0  0  0  0  0
   -9.0539   18.2753   16.5160 H   0  0  0  0  0  0  0  0  0  0  0  0
   -7.3240   15.2887   18.0027 H   0  0  0  0  0  0  0  0  0  0  0  0
  -11.7238   17.8862   20.7142 C   0  0  0  0  0  0  0  0  0  0  0  0
  -11.3294   18.7821   21.7577 O   0  0  0  0  0  0  0  0  0  0  0  0
  -10.7795   19.4894   21.3859 H   0  0  0  0  0  0  0  0  0  0  0  0
 35 36  2  0  0  0
 35 34  1  0  0  0
 36 37  1  0  0  0
 34 33  2  0  0  0
 47 46  1  0  0  0
 55 56  1  0  0  0
 55 45  1  0  0  0
 37 38  2  0  0  0
 33 38  1  0  0  0
 46 45  1  0  0  0
 46 48  1  0  0  0
 45 44  1  0  0  0
 38 32  1  0  0  0
 48 49  1  0  0  0
 48 50  1  0  0  0
 44 43  1  0  0  0
 32 31  1  0  0  0
 31 30  1  0  0  0
 43 50  1  0  0  0
 43 42  1  0  0  0
 50 51  1  0  0  0
 17 16  1  0  0  0
 30 25  1  0  0  0
 42  3  1  0  0  0
  6  5  1  0  0  0
  3  5  1  0  0  0
  3  1  1  0  0  0
  8  1  1  0  0  0
 25 27  1  0  0  0
 25 26  2  0  0  0
 27 28  2  0  0  0
 26 29  1  0  0  0
 28 29  1  0  0  0
  5  4  1  0  0  0
  1  2  1  0  0  0
 29 15  1  0  0  0
  4 14  1  0  0  0
  4  7  1  0  0  0
 16 15  1  0  0  0
 16 22  1  0  0  0
  2  7  1  0  0  0
  2 11  1  0  0  0
 15 18  1  0  0  0
 14 22  1  0  0  0
 22 20  1  0  0  0
 11 12  1  0  0  0
 18 19  1  0  0  0
 20 19  1  0  0  0
 20 21  1  0  0  0
 19 39  1  0  0  0
 39 40  1  0  0  0
 17 23  1  0  0  0
 40 41  1  0  0  0
 21 24  1  0  0  0
  6  9  1  0  0  0
 12 13  1  0  0  0
  8 10  1  0  0  0
 56 57  1  0  0  0
 47 52  1  0  0  0
 49 53  1  0  0  0
 51 54  1  0  0  0
M  CHG 1  38   1
M  END
> <minimizedAffinity>
-9.68443

$$$$
5O9Y_9PN_A_601


 57 61  0  0  0  0  0  0  0  0999 V2000
  -13.7269   14.3696   18.8550 C   0  0  0  0  0  0  0  0  0  0  0  0
  -14.7246   13.2163   19.0076 C   0  0  0  0  0  0  0  0  0  0  0  0
  -12.9671   14.5746   20.1626 C   0  0  0  0  0  0  0  0  0  0  0  0
  -13.4068   12.1935   20.7173 C   0  0  0  0  0  0  0  0  0  0  0  0
  -12.3326   13.2626   20.6146 C   0  0  0  0  0  0  0  0  0  0  0  0
  -11.7001   13.4185   21.8969 O   0  0  0  0  0  0  0  0  0  0  0  0
  -14.0348   12.0338   19.4408 O   0  0  0  0  0  0  0  0  0  0  0  0
  -14.4306   15.5742   18.5127 O   0  0  0  0  0  0  0  0  0  0  0  0
  -12.3634   13.6783   22.5552 H   0  0  0  0  0  0  0  0  0  0  0  0
  -15.0616   15.7912   19.2166 H   0  0  0  0  0  0  0  0  0  0  0  0
  -15.3828   12.8812   17.6658 C   0  0  0  0  0  0  0  0  0  0  0  0
  -14.4411   13.0655   16.6059 O   0  0  0  0  0  0  0  0  0  0  0  0
  -14.1442   13.9889   16.5940 H   0  0  0  0  0  0  0  0  0  0  0  0
  -12.7796   10.9673   21.1045 O   0  0  0  0  0  0  0  0  0  0  0  0
  -15.8666    9.1275   22.2355 C   0  0  0  0  0  0  0  0  0  0  0  0
  -14.8913    9.7997   21.2538 C   0  0  0  0  0  0  0  0  0  0  0  0
  -14.6487    8.9184   20.1415 O   0  0  0  0  0  0  0  0  0  0  0  0
  -15.9845    9.9103   23.4316 O   0  0  0  0  0  0  0  0  0  0  0  0
  -14.7343   10.0783   24.1220 C   0  0  0  0  0  0  0  0  0  0  0  0
  -13.8163   10.9052   23.2429 C   0  0  0  0  0  0  0  0  0  0  0  0
  -12.5569   11.1490   23.8952 O   0  0  0  0  0  0  0  0  0  0  0  0
  -13.5687   10.1296   21.9553 C   0  0  0  0  0  0  0  0  0  0  0  0
  -14.2549    8.0924   20.4634 H   0  0  0  0  0  0  0  0  0  0  0  0
  -12.1224   10.3029   24.0858 H   0  0  0  0  0  0  0  0  0  0  0  0
  -19.0928    8.5693   20.9174 C   0  0  0  0  0  0  0  0  0  0  0  0
  -17.8398    8.1649   21.0223 C   0  0  0  0  0  0  0  0  0  0  0  0
  -19.2130    9.6923   21.6094 N   0  0  0  0  0  0  0  0  0  0  0  0
  -18.1358    9.9532   22.0928 N   0  0  0  0  0  0  0  0  0  0  0  0
  -17.2684    9.1009   21.7793 N   0  0  0  0  0  0  0  0  0  0  0  0
  -20.2472    7.8964   20.1576 C   0  0  0  0  0  0  0  0  0  0  0  0
  -21.2847    8.9696   19.9148 C   0  0  0  0  0  0  0  0  0  0  0  0
  -20.9239    9.5142   18.5486 C   0  0  0  0  0  0  0  0  0  0  0  0
  -20.3172    8.3786   16.4387 C   0  0  0  0  0  0  0  0  0  0  0  0
  -20.5788    7.5471   15.3548 C   0  0  0  0  0  0  0  0  0  0  0  0
  -21.8218    6.9319   15.2384 C   0  0  0  0  0  0  0  0  0  0  0  0
  -22.8090    7.1466   16.2019 C   0  0  0  0  0  0  0  0  0  0  0  0
  -22.5614    7.9788   17.2959 C   0  0  0  0  0  0  0  0  0  0  0  0
  -21.2969    8.6101   17.4226 N   0  0  0  0  0  0  0  0  0  0  0  0
  -14.9638   10.7280   25.4966 C   0  0  0  0  0  0  0  0  0  0  0  0
  -14.7376   12.1287   25.4081 O   0  0  0  0  0  0  0  0  0  0  0  0
  -13.8241   12.2915   25.1254 H   0  0  0  0  0  0  0  0  0  0  0  0
  -11.9331   15.5448   19.9398 O   0  0  0  0  0  0  0  0  0  0  0  0
  -11.0182   15.2125   18.8838 C   0  0  0  0  0  0  0  0  0  0  0  0
   -9.9373   14.4394   19.4172 O   0  0  0  0  0  0  0  0  0  0  0  0
   -9.0328   13.9980   18.3931 C   0  0  0  0  0  0  0  0  0  0  0  0
   -8.3550   15.2147   17.7662 C   0  0  0  0  0  0  0  0  0  0  0  0
   -7.5263   14.7897   16.6721 O   0  0  0  0  0  0  0  0  0  0  0  0
   -9.4166   16.1848   17.2327 C   0  0  0  0  0  0  0  0  0  0  0  0
   -8.7907   17.4041   16.8325 O   0  0  0  0  0  0  0  0  0  0  0  0
  -10.4607   16.5028   18.3006 C   0  0  0  0  0  0  0  0  0  0  0  0
  -11.5081   17.2903   17.7164 O   0  0  0  0  0  0  0  0  0  0  0  0
   -8.0739   14.3480   16.0044 H   0  0  0  0  0  0  0  0  0  0  0  0
   -8.3574   17.8118   17.5986 H   0  0  0  0  0  0  0  0  0  0  0  0
  -11.9237   16.7919   16.9955 H   0  0  0  0  0  0  0  0  0  0  0  0
   -8.0202   13.0472   19.0444 C   0  0  0  0  0  0  0  0  0  0  0  0
   -7.9757   13.2717   20.4568 O   0  0  0  0  0  0  0  0  0  0  0  0
   -8.8526   13.1083   20.8380 H   0  0  0  0  0  0  0  0  0  0  0  0
 35 36  2  0  0  0
 35 34  1  0  0  0
 36 37  1  0  0  0
 34 33  2  0  0  0
 47 46  1  0  0  0
 55 56  1  0  0  0
 55 45  1  0  0  0
 37 38  2  0  0  0
 33 38  1  0  0  0
 46 45  1  0  0  0
 46 48  1  0  0  0
 45 44  1  0  0  0
 38 32  1  0  0  0
 48 49  1  0  0  0
 48 50  1  0  0  0
 44 43  1  0  0  0
 32 31  1  0  0  0
 31 30  1  0  0  0
 43 50  1  0  0  0
 43 42  1  0  0  0
 50 51  1  0  0  0
 17 16  1  0  0  0
 30 25  1  0  0  0
 42  3  1  0  0  0
  6  5  1  0  0  0
  3  5  1  0  0  0
  3  1  1  0  0  0
  8  1  1  0  0  0
 25 27  1  0  0  0
 25 26  2  0  0  0
 27 28  2  0  0  0
 26 29  1  0  0  0
 28 29  1  0  0  0
  5  4  1  0  0  0
  1  2  1  0  0  0
 29 15  1  0  0  0
  4 14  1  0  0  0
  4  7  1  0  0  0
 16 15  1  0  0  0
 16 22  1  0  0  0
  2  7  1  0  0  0
  2 11  1  0  0  0
 15 18  1  0  0  0
 14 22  1  0  0  0
 22 20  1  0  0  0
 11 12  1  0  0  0
 18 19  1  0  0  0
 20 19  1  0  0  0
 20 21  1  0  0  0
 19 39  1  0  0  0
 39 40  1  0  0  0
 17 23  1  0  0  0
 40 41  1  0  0  0
 21 24  1  0  0  0
  6  9  1  0  0  0
 12 13  1  0  0  0
  8 10  1  0  0  0
 56 57  1  0  0  0
 47 52  1  0  0  0
 49 53  1  0  0  0
 51 54  1  0  0  0
M  CHG 1  38   1
M  END
> <minimizedAffinity>
-9.61142

$$$$
5O9Y_9PN_A_601


 57 61  0  0  0  0  0  0  0  0999 V2000
   -9.3753   13.8820   22.3028 C   0  0  0  0  0  0  0  0  0  0  0  0
   -9.8494   12.5204   22.8224 C   0  0  0  0  0  0  0  0  0  0  0  0
  -10.4965   14.5565   21.5172 C   0  0  0  0  0  0  0  0  0  0  0  0
  -12.1314   13.2263   22.8320 C   0  0  0  0  0  0  0  0  0  0  0  0
  -11.7653   14.6237   22.3622 C   0  0  0  0  0  0  0  0  0  0  0  0
  -12.8575   15.1642   21.5982 O   0  0  0  0  0  0  0  0  0  0  0  0
  -11.0471   12.6880   23.5964 O   0  0  0  0  0  0  0  0  0  0  0  0
   -8.2317   13.7024   21.4523 O   0  0  0  0  0  0  0  0  0  0  0  0
  -13.0310   14.5931   20.8336 H   0  0  0  0  0  0  0  0  0  0  0  0
   -8.4740   13.1417   20.6987 H   0  0  0  0  0  0  0  0  0  0  0  0
   -8.8037   11.8947   23.7504 C   0  0  0  0  0  0  0  0  0  0  0  0
   -7.7572   11.3074   22.9732 O   0  0  0  0  0  0  0  0  0  0  0  0
   -8.1280   10.6186   22.3997 H   0  0  0  0  0  0  0  0  0  0  0  0
  -13.2997   13.3236   23.6520 O   0  0  0  0  0  0  0  0  0  0  0  0
  -16.5159   11.3630   23.5729 C   0  0  0  0  0  0  0  0  0  0  0  0
  -15.5604   12.5390   23.3069 C   0  0  0  0  0  0  0  0  0  0  0  0
  -15.6315   12.9084   21.9172 O   0  0  0  0  0  0  0  0  0  0  0  0
  -16.3316   10.8659   24.9057 O   0  0  0  0  0  0  0  0  0  0  0  0
  -14.9962   10.3931   25.1524 C   0  0  0  0  0  0  0  0  0  0  0  0
  -14.0540   11.5791   25.0800 C   0  0  0  0  0  0  0  0  0  0  0  0
  -12.6999   11.1818   25.3618 O   0  0  0  0  0  0  0  0  0  0  0  0
  -14.1221   12.1523   23.6702 C   0  0  0  0  0  0  0  0  0  0  0  0
  -15.3660   12.1542   21.3681 H   0  0  0  0  0  0  0  0  0  0  0  0
  -12.4148   10.5209   24.7116 H   0  0  0  0  0  0  0  0  0  0  0  0
  -19.8747   12.3420   23.1067 C   0  0  0  0  0  0  0  0  0  0  0  0
  -18.6695   12.1901   22.5880 C   0  0  0  0  0  0  0  0  0  0  0  0
  -19.8176   11.9662   24.3755 N   0  0  0  0  0  0  0  0  0  0  0  0
  -18.6846   11.6173   24.6137 N   0  0  0  0  0  0  0  0  0  0  0  0
  -17.9426   11.7331   23.6071 N   0  0  0  0  0  0  0  0  0  0  0  0
  -21.1504   12.8451   22.4124 C   0  0  0  0  0  0  0  0  0  0  0  0
  -21.0952   12.3343   20.9900 C   0  0  0  0  0  0  0  0  0  0  0  0
  -22.2167   11.3186   20.9302 C   0  0  0  0  0  0  0  0  0  0  0  0
  -21.0248    9.1938   21.3476 C   0  0  0  0  0  0  0  0  0  0  0  0
  -20.5823    7.9252   20.9875 C   0  0  0  0  0  0  0  0  0  0  0  0
  -20.8946    7.4139   19.7313 C   0  0  0  0  0  0  0  0  0  0  0  0
  -21.6473    8.1679   18.8291 C   0  0  0  0  0  0  0  0  0  0  0  0
  -22.0987    9.4432   19.1760 C   0  0  0  0  0  0  0  0  0  0  0  0
  -21.7850    9.9725   20.4547 N   0  0  0  0  0  0  0  0  0  0  0  0
  -14.9238    9.6750   26.5101 C   0  0  0  0  0  0  0  0  0  0  0  0
  -15.6067    8.4305   26.4307 O   0  0  0  0  0  0  0  0  0  0  0  0
  -16.5359    8.5858   26.1996 H   0  0  0  0  0  0  0  0  0  0  0  0
  -10.0809   15.8898   21.1862 O   0  0  0  0  0  0  0  0  0  0  0  0
  -10.1269   16.2004   19.7848 C   0  0  0  0  0  0  0  0  0  0  0  0
   -9.3012   15.2773   19.0661 O   0  0  0  0  0  0  0  0  0  0  0  0
   -9.3758   15.4789   17.6464 C   0  0  0  0  0  0  0  0  0  0  0  0
   -8.7967   16.8503   17.3049 C   0  0  0  0  0  0  0  0  0  0  0  0
   -8.9614   17.1027   15.9001 O   0  0  0  0  0  0  0  0  0  0  0  0
   -9.5376   17.9389   18.0916 C   0  0  0  0  0  0  0  0  0  0  0  0
   -8.8665   19.1882   17.9254 O   0  0  0  0  0  0  0  0  0  0  0  0
   -9.5853   17.6080   19.5815 C   0  0  0  0  0  0  0  0  0  0  0  0
  -10.4102   18.5713   20.2524 O   0  0  0  0  0  0  0  0  0  0  0  0
   -9.9054   17.0886   15.6776 H   0  0  0  0  0  0  0  0  0  0  0  0
   -7.9630   19.1183   18.2713 H   0  0  0  0  0  0  0  0  0  0  0  0
  -11.3073   18.5406   19.8849 H   0  0  0  0  0  0  0  0  0  0  0  0
   -8.5969   14.3415   16.9730 C   0  0  0  0  0  0  0  0  0  0  0  0
   -7.2195   14.7043   16.8375 O   0  0  0  0  0  0  0  0  0  0  0  0
   -6.8409   14.8697   17.7151 H   0  0  0  0  0  0  0  0  0  0  0  0
 35 36  2  0  0  0
 35 34  1  0  0  0
 36 37  1  0  0  0
 34 33  2  0  0  0
 47 46  1  0  0  0
 55 56  1  0  0  0
 55 45  1  0  0  0
 37 38  2  0  0  0
 33 38  1  0  0  0
 46 45  1  0  0  0
 46 48  1  0  0  0
 45 44  1  0  0  0
 38 32  1  0  0  0
 48 49  1  0  0  0
 48 50  1  0  0  0
 44 43  1  0  0  0
 32 31  1  0  0  0
 31 30  1  0  0  0
 43 50  1  0  0  0
 43 42  1  0  0  0
 50 51  1  0  0  0
 17 16  1  0  0  0
 30 25  1  0  0  0
 42  3  1  0  0  0
  6  5  1  0  0  0
  3  5  1  0  0  0
  3  1  1  0  0  0
  8  1  1  0  0  0
 25 27  1  0  0  0
 25 26  2  0  0  0
 27 28  2  0  0  0
 26 29  1  0  0  0
 28 29  1  0  0  0
  5  4  1  0  0  0
  1  2  1  0  0  0
 29 15  1  0  0  0
  4 14  1  0  0  0
  4  7  1  0  0  0
 16 15  1  0  0  0
 16 22  1  0  0  0
  2  7  1  0  0  0
  2 11  1  0  0  0
 15 18  1  0  0  0
 14 22  1  0  0  0
 22 20  1  0  0  0
 11 12  1  0  0  0
 18 19  1  0  0  0
 20 19  1  0  0  0
 20 21  1  0  0  0
 19 39  1  0  0  0
 39 40  1  0  0  0
 17 23  1  0  0  0
 40 41  1  0  0  0
 21 24  1  0  0  0
  6  9  1  0  0  0
 12 13  1  0  0  0
  8 10  1  0  0  0
 56 57  1  0  0  0
 47 52  1  0  0  0
 49 53  1  0  0  0
 51 54  1  0  0  0
M  CHG 1  38   1
M  END
> <minimizedAffinity>
-9.39297

$$$$
5O9Y_9PN_A_601


 57 61  0  0  0  0  0  0  0  0999 V2000
  -12.8668   14.8180   19.0939 C   0  0  0  0  0  0  0  0  0  0  0  0
  -14.3614   14.6858   18.7816 C   0  0  0  0  0  0  0  0  0  0  0  0
  -12.6785   15.4221   20.4826 C   0  0  0  0  0  0  0  0  0  0  0  0
  -14.9170   14.5399   21.1002 C   0  0  0  0  0  0  0  0  0  0  0  0
  -13.4585   14.6168   21.5177 C   0  0  0  0  0  0  0  0  0  0  0  0
  -13.3723   15.2349   22.8136 O   0  0  0  0  0  0  0  0  0  0  0  0
  -15.0054   13.9211   19.8122 O   0  0  0  0  0  0  0  0  0  0  0  0
  -12.2416   15.6608   18.1130 O   0  0  0  0  0  0  0  0  0  0  0  0
  -13.7521   16.1265   22.7725 H   0  0  0  0  0  0  0  0  0  0  0  0
  -12.6497   16.5405   18.1352 H   0  0  0  0  0  0  0  0  0  0  0  0
  -14.5809   13.9331   17.4658 C   0  0  0  0  0  0  0  0  0  0  0  0
  -15.3054   12.7258   17.7145 O   0  0  0  0  0  0  0  0  0  0  0  0
  -14.7994   12.1646   18.3227 H   0  0  0  0  0  0  0  0  0  0  0  0
  -15.6158   13.7486   22.0658 O   0  0  0  0  0  0  0  0  0  0  0  0
  -16.1935   10.0462   21.6762 C   0  0  0  0  0  0  0  0  0  0  0  0
  -16.4138   11.5516   21.4483 C   0  0  0  0  0  0  0  0  0  0  0  0
  -16.4870   11.8159   20.0349 O   0  0  0  0  0  0  0  0  0  0  0  0
  -15.9424    9.7863   23.0643 O   0  0  0  0  0  0  0  0  0  0  0  0
  -14.7788   10.4669   23.5647 C   0  0  0  0  0  0  0  0  0  0  0  0
  -15.0497   11.9584   23.5239 C   0  0  0  0  0  0  0  0  0  0  0  0
  -13.9368   12.7008   24.0542 O   0  0  0  0  0  0  0  0  0  0  0  0
  -15.2696   12.3599   22.0709 C   0  0  0  0  0  0  0  0  0  0  0  0
  -15.6551   11.5500   19.6128 H   0  0  0  0  0  0  0  0  0  0  0  0
  -13.1441   12.5164   23.5264 H   0  0  0  0  0  0  0  0  0  0  0  0
  -19.3430    8.5299   21.1874 C   0  0  0  0  0  0  0  0  0  0  0  0
  -18.6579    9.6196   21.4835 C   0  0  0  0  0  0  0  0  0  0  0  0
  -18.4744    7.5516   20.9805 N   0  0  0  0  0  0  0  0  0  0  0  0
  -17.3614    7.9980   21.1355 N   0  0  0  0  0  0  0  0  0  0  0  0
  -17.3890    9.2142   21.4476 N   0  0  0  0  0  0  0  0  0  0  0  0
  -20.8675    8.3681   21.0754 C   0  0  0  0  0  0  0  0  0  0  0  0
  -21.1167    7.4538   19.8967 C   0  0  0  0  0  0  0  0  0  0  0  0
  -21.3971    8.4089   18.7555 C   0  0  0  0  0  0  0  0  0  0  0  0
  -19.2477    8.1714   17.5584 C   0  0  0  0  0  0  0  0  0  0  0  0
  -18.4733    7.8864   16.4387 C   0  0  0  0  0  0  0  0  0  0  0  0
  -19.0892    7.5101   15.2487 C   0  0  0  0  0  0  0  0  0  0  0  0
  -20.4802    7.4197   15.1713 C   0  0  0  0  0  0  0  0  0  0  0  0
  -21.2712    7.7028   16.2869 C   0  0  0  0  0  0  0  0  0  0  0  0
  -20.6517    8.0872   17.5043 N   0  0  0  0  0  0  0  0  0  0  0  0
  -14.4384    9.9763   24.9817 C   0  0  0  0  0  0  0  0  0  0  0  0
  -15.6088    9.4637   25.6051 O   0  0  0  0  0  0  0  0  0  0  0  0
  -16.2784   10.1633   25.6607 H   0  0  0  0  0  0  0  0  0  0  0  0
  -11.2816   15.3810   20.8102 O   0  0  0  0  0  0  0  0  0  0  0  0
  -10.7090   14.0641   20.8254 C   0  0  0  0  0  0  0  0  0  0  0  0
  -10.4572   13.6709   22.1791 O   0  0  0  0  0  0  0  0  0  0  0  0
   -9.9669   12.3243   22.2676 C   0  0  0  0  0  0  0  0  0  0  0  0
   -8.6006   12.2439   21.5895 C   0  0  0  0  0  0  0  0  0  0  0  0
   -8.1495   10.8799   21.5827 O   0  0  0  0  0  0  0  0  0  0  0  0
   -8.7091   12.7346   20.1402 C   0  0  0  0  0  0  0  0  0  0  0  0
   -7.4024   12.8482   19.5759 O   0  0  0  0  0  0  0  0  0  0  0  0
   -9.3891   14.0999   20.0688 C   0  0  0  0  0  0  0  0  0  0  0  0
   -9.6013   14.4497   18.6936 O   0  0  0  0  0  0  0  0  0  0  0  0
   -8.7832   10.3322   21.0934 H   0  0  0  0  0  0  0  0  0  0  0  0
   -6.8864   13.4946   20.0828 H   0  0  0  0  0  0  0  0  0  0  0  0
  -10.1679   13.7833   18.2742 H   0  0  0  0  0  0  0  0  0  0  0  0
   -9.8942   11.9519   23.7541 C   0  0  0  0  0  0  0  0  0  0  0  0
   -8.5405   12.0243   24.2116 O   0  0  0  0  0  0  0  0  0  0  0  0
   -8.2081   12.9282   24.0960 H   0  0  0  0  0  0  0  0  0  0  0  0
 35 36  2  0  0  0
 35 34  1  0  0  0
 36 37  1  0  0  0
 34 33  2  0  0  0
 47 46  1  0  0  0
 55 56  1  0  0  0
 55 45  1  0  0  0
 37 38  2  0  0  0
 33 38  1  0  0  0
 46 45  1  0  0  0
 46 48  1  0  0  0
 45 44  1  0  0  0
 38 32  1  0  0  0
 48 49  1  0  0  0
 48 50  1  0  0  0
 44 43  1  0  0  0
 32 31  1  0  0  0
 31 30  1  0  0  0
 43 50  1  0  0  0
 43 42  1  0  0  0
 50 51  1  0  0  0
 17 16  1  0  0  0
 30 25  1  0  0  0
 42  3  1  0  0  0
  6  5  1  0  0  0
  3  5  1  0  0  0
  3  1  1  0  0  0
  8  1  1  0  0  0
 25 27  1  0  0  0
 25 26  2  0  0  0
 27 28  2  0  0  0
 26 29  1  0  0  0
 28 29  1  0  0  0
  5  4  1  0  0  0
  1  2  1  0  0  0
 29 15  1  0  0  0
  4 14  1  0  0  0
  4  7  1  0  0  0
 16 15  1  0  0  0
 16 22  1  0  0  0
  2  7  1  0  0  0
  2 11  1  0  0  0
 15 18  1  0  0  0
 14 22  1  0  0  0
 22 20  1  0  0  0
 11 12  1  0  0  0
 18 19  1  0  0  0
 20 19  1  0  0  0
 20 21  1  0  0  0
 19 39  1  0  0  0
 39 40  1  0  0  0
 17 23  1  0  0  0
 40 41  1  0  0  0
 21 24  1  0  0  0
  6  9  1  0  0  0
 12 13  1  0  0  0
  8 10  1  0  0  0
 56 57  1  0  0  0
 47 52  1  0  0  0
 49 53  1  0  0  0
 51 54  1  0  0  0
M  CHG 1  38   1
M  END
> <minimizedAffinity>
-9.22263

$$$$
5O9Y_9PN_A_601


 57 61  0  0  0  0  0  0  0  0999 V2000
  -13.7357   14.0742   18.1470 C   0  0  0  0  0  0  0  0  0  0  0  0
  -14.9787   13.3077   17.6821 C   0  0  0  0  0  0  0  0  0  0  0  0
  -13.4877   13.8102   19.6296 C   0  0  0  0  0  0  0  0  0  0  0  0
  -14.6955   11.6536   19.3821 C   0  0  0  0  0  0  0  0  0  0  0  0
  -13.4242   12.3087   19.8939 C   0  0  0  0  0  0  0  0  0  0  0  0
  -13.2931   12.0450   21.3017 O   0  0  0  0  0  0  0  0  0  0  0  0
  -14.8257   11.9114   17.9798 O   0  0  0  0  0  0  0  0  0  0  0  0
  -13.9290   15.4817   17.9341 O   0  0  0  0  0  0  0  0  0  0  0  0
  -14.0623   12.4042   21.7709 H   0  0  0  0  0  0  0  0  0  0  0  0
  -14.6972   15.7833   18.4438 H   0  0  0  0  0  0  0  0  0  0  0  0
  -15.1566   13.4225   16.1652 C   0  0  0  0  0  0  0  0  0  0  0  0
  -15.3318   14.7940   15.8013 O   0  0  0  0  0  0  0  0  0  0  0  0
  -16.1198   15.1476   16.2428 H   0  0  0  0  0  0  0  0  0  0  0  0
  -14.5925   10.2445   19.6072 O   0  0  0  0  0  0  0  0  0  0  0  0
  -17.9424    8.5529   19.2752 C   0  0  0  0  0  0  0  0  0  0  0  0
  -16.5281    8.9994   18.8666 C   0  0  0  0  0  0  0  0  0  0  0  0
  -15.7911    7.8643   18.3755 O   0  0  0  0  0  0  0  0  0  0  0  0
  -18.6323    9.6272   19.9289 O   0  0  0  0  0  0  0  0  0  0  0  0
  -17.9688   10.0819   21.1208 C   0  0  0  0  0  0  0  0  0  0  0  0
  -16.6443   10.7006   20.7178 C   0  0  0  0  0  0  0  0  0  0  0  0
  -15.9450   11.2179   21.8642 O   0  0  0  0  0  0  0  0  0  0  0  0
  -15.7959    9.6179   20.0631 C   0  0  0  0  0  0  0  0  0  0  0  0
  -15.7225    7.1961   19.0752 H   0  0  0  0  0  0  0  0  0  0  0  0
  -15.7714   10.4970   22.4895 H   0  0  0  0  0  0  0  0  0  0  0  0
  -19.6455    7.8912   16.2554 C   0  0  0  0  0  0  0  0  0  0  0  0
  -18.5005    8.1409   16.8646 C   0  0  0  0  0  0  0  0  0  0  0  0
  -20.5986    7.8864   17.1752 N   0  0  0  0  0  0  0  0  0  0  0  0
  -20.0874    8.1124   18.2475 N   0  0  0  0  0  0  0  0  0  0  0  0
  -18.8482    8.2868   18.1427 N   0  0  0  0  0  0  0  0  0  0  0  0
  -19.8886    7.6325   14.7599 C   0  0  0  0  0  0  0  0  0  0  0  0
  -18.5609    7.2021   14.1773 C   0  0  0  0  0  0  0  0  0  0  0  0
  -18.5995    7.7397   12.7622 C   0  0  0  0  0  0  0  0  0  0  0  0
  -17.4792    9.8160   13.4991 C   0  0  0  0  0  0  0  0  0  0  0  0
  -17.2753   11.1919   13.4821 C   0  0  0  0  0  0  0  0  0  0  0  0
  -18.0409   11.9947   12.6418 C   0  0  0  0  0  0  0  0  0  0  0  0
  -19.0146   11.4277   11.8176 C   0  0  0  0  0  0  0  0  0  0  0  0
  -19.2312   10.0480   11.8235 C   0  0  0  0  0  0  0  0  0  0  0  0
  -18.4551    9.2217   12.6771 N   0  0  0  0  0  0  0  0  0  0  0  0
  -18.8626   11.0699   21.8884 C   0  0  0  0  0  0  0  0  0  0  0  0
  -18.5732   10.9972   23.2785 O   0  0  0  0  0  0  0  0  0  0  0  0
  -18.7433   10.0971   23.5975 H   0  0  0  0  0  0  0  0  0  0  0  0
  -12.2332   14.4052   19.9933 O   0  0  0  0  0  0  0  0  0  0  0  0
  -11.0760   13.6925   19.5291 C   0  0  0  0  0  0  0  0  0  0  0  0
  -10.4252   13.0674   20.6410 O   0  0  0  0  0  0  0  0  0  0  0  0
   -9.3092   12.2627   20.2303 C   0  0  0  0  0  0  0  0  0  0  0  0
   -8.2377   13.1662   19.6234 C   0  0  0  0  0  0  0  0  0  0  0  0
   -7.1625   12.3592   19.1165 O   0  0  0  0  0  0  0  0  0  0  0  0
   -8.8343   13.9761   18.4655 C   0  0  0  0  0  0  0  0  0  0  0  0
   -7.8920   14.9587   18.0351 O   0  0  0  0  0  0  0  0  0  0  0  0
  -10.1166   14.6873   18.8920 C   0  0  0  0  0  0  0  0  0  0  0  0
  -10.7156   15.3075   17.7453 O   0  0  0  0  0  0  0  0  0  0  0  0
   -7.5021   11.7604   18.4331 H   0  0  0  0  0  0  0  0  0  0  0  0
   -7.6988   15.5642   18.7679 H   0  0  0  0  0  0  0  0  0  0  0  0
  -10.9258   14.6298   17.0839 H   0  0  0  0  0  0  0  0  0  0  0  0
   -8.7965   11.5121   21.4662 C   0  0  0  0  0  0  0  0  0  0  0  0
   -7.7552   10.6052   21.0914 O   0  0  0  0  0  0  0  0  0  0  0  0
   -7.0212   11.1012   20.6963 H   0  0  0  0  0  0  0  0  0  0  0  0
 35 36  2  0  0  0
 35 34  1  0  0  0
 36 37  1  0  0  0
 34 33  2  0  0  0
 47 46  1  0  0  0
 55 56  1  0  0  0
 55 45  1  0  0  0
 37 38  2  0  0  0
 33 38  1  0  0  0
 46 45  1  0  0  0
 46 48  1  0  0  0
 45 44  1  0  0  0
 38 32  1  0  0  0
 48 49  1  0  0  0
 48 50  1  0  0  0
 44 43  1  0  0  0
 32 31  1  0  0  0
 31 30  1  0  0  0
 43 50  1  0  0  0
 43 42  1  0  0  0
 50 51  1  0  0  0
 17 16  1  0  0  0
 30 25  1  0  0  0
 42  3  1  0  0  0
  6  5  1  0  0  0
  3  5  1  0  0  0
  3  1  1  0  0  0
  8  1  1  0  0  0
 25 27  1  0  0  0
 25 26  2  0  0  0
 27 28  2  0  0  0
 26 29  1  0  0  0
 28 29  1  0  0  0
  5  4  1  0  0  0
  1  2  1  0  0  0
 29 15  1  0  0  0
  4 14  1  0  0  0
  4  7  1  0  0  0
 16 15  1  0  0  0
 16 22  1  0  0  0
  2  7  1  0  0  0
  2 11  1  0  0  0
 15 18  1  0  0  0
 14 22  1  0  0  0
 22 20  1  0  0  0
 11 12  1  0  0  0
 18 19  1  0  0  0
 20 19  1  0  0  0
 20 21  1  0  0  0
 19 39  1  0  0  0
 39 40  1  0  0  0
 17 23  1  0  0  0
 40 41  1  0  0  0
 21 24  1  0  0  0
  6  9  1  0  0  0
 12 13  1  0  0  0
  8 10  1  0  0  0
 56 57  1  0  0  0
 47 52  1  0  0  0
 49 53  1  0  0  0
 51 54  1  0  0  0
M  CHG 1  38   1
M  END
> <minimizedAffinity>
-9.12754

$$$$
5O9Y_9PN_A_601


 57 61  0  0  0  0  0  0  0  0999 V2000
  -11.8014   14.3309   18.6330 C   0  0  0  0  0  0  0  0  0  0  0  0
  -12.7402   13.6449   19.6314 C   0  0  0  0  0  0  0  0  0  0  0  0
  -10.5380   14.8015   19.3481 C   0  0  0  0  0  0  0  0  0  0  0  0
  -10.9182   13.0315   21.0491 C   0  0  0  0  0  0  0  0  0  0  0  0
   -9.8972   13.6412   20.1040 C   0  0  0  0  0  0  0  0  0  0  0  0
   -8.7636   14.0937   20.8648 O   0  0  0  0  0  0  0  0  0  0  0  0
  -12.0457   12.5766   20.2933 O   0  0  0  0  0  0  0  0  0  0  0  0
  -12.4673   15.4572   18.0400 O   0  0  0  0  0  0  0  0  0  0  0  0
   -9.0521   14.7561   21.5120 H   0  0  0  0  0  0  0  0  0  0  0  0
  -12.7112   16.0903   18.7332 H   0  0  0  0  0  0  0  0  0  0  0  0
  -13.9394   13.0186   18.9132 C   0  0  0  0  0  0  0  0  0  0  0  0
  -13.9982   11.6192   19.2004 O   0  0  0  0  0  0  0  0  0  0  0  0
  -13.1834   11.1916   18.8936 H   0  0  0  0  0  0  0  0  0  0  0  0
  -10.3037   11.9243   21.7150 O   0  0  0  0  0  0  0  0  0  0  0  0
  -13.3311   10.9027   23.7112 C   0  0  0  0  0  0  0  0  0  0  0  0
  -12.4783   11.1753   22.4601 C   0  0  0  0  0  0  0  0  0  0  0  0
  -12.5532   10.0431   21.5740 O   0  0  0  0  0  0  0  0  0  0  0  0
  -13.1310   11.9384   24.6831 O   0  0  0  0  0  0  0  0  0  0  0  0
  -11.7644   12.0502   25.1161 C   0  0  0  0  0  0  0  0  0  0  0  0
  -10.9297   12.5035   23.9339 C   0  0  0  0  0  0  0  0  0  0  0  0
   -9.5518   12.6783   24.3105 O   0  0  0  0  0  0  0  0  0  0  0  0
  -11.0192   11.4335   22.8532 C   0  0  0  0  0  0  0  0  0  0  0  0
  -12.2106    9.2559   22.0255 H   0  0  0  0  0  0  0  0  0  0  0  0
   -9.1960   11.8363   24.6349 H   0  0  0  0  0  0  0  0  0  0  0  0
  -16.6792   11.2680   22.6555 C   0  0  0  0  0  0  0  0  0  0  0  0
  -15.3949   11.3622   22.3615 C   0  0  0  0  0  0  0  0  0  0  0  0
  -16.7760   10.8549   23.9102 N   0  0  0  0  0  0  0  0  0  0  0  0
  -15.6573   10.7098   24.3457 N   0  0  0  0  0  0  0  0  0  0  0  0
  -14.7854   11.0030   23.4907 N   0  0  0  0  0  0  0  0  0  0  0  0
  -17.8848   11.5579   21.7472 C   0  0  0  0  0  0  0  0  0  0  0  0
  -17.5334   11.0137   20.3805 C   0  0  0  0  0  0  0  0  0  0  0  0
  -17.5038    9.5141   20.5888 C   0  0  0  0  0  0  0  0  0  0  0  0
  -19.6186    8.3206   21.0502 C   0  0  0  0  0  0  0  0  0  0  0  0
  -20.7792    7.6554   20.6692 C   0  0  0  0  0  0  0  0  0  0  0  0
  -21.0612    7.4737   19.3186 C   0  0  0  0  0  0  0  0  0  0  0  0
  -20.1845    7.9527   18.3434 C   0  0  0  0  0  0  0  0  0  0  0  0
  -19.0152    8.6225   18.7102 C   0  0  0  0  0  0  0  0  0  0  0  0
  -18.7197    8.8124   20.0850 N   0  0  0  0  0  0  0  0  0  0  0  0
  -11.6567   13.0153   26.3082 C   0  0  0  0  0  0  0  0  0  0  0  0
  -12.2243   12.4135   27.4645 O   0  0  0  0  0  0  0  0  0  0  0  0
  -13.1586   12.2123   27.2986 H   0  0  0  0  0  0  0  0  0  0  0  0
   -9.6139   15.2891   18.3641 O   0  0  0  0  0  0  0  0  0  0  0  0
   -9.4117   16.7108   18.3857 C   0  0  0  0  0  0  0  0  0  0  0  0
  -10.3667   17.3134   19.2663 O   0  0  0  0  0  0  0  0  0  0  0  0
  -10.1587   18.7276   19.4017 C   0  0  0  0  0  0  0  0  0  0  0  0
  -10.4088   19.4011   18.0539 C   0  0  0  0  0  0  0  0  0  0  0  0
  -10.1031   20.8013   18.1549 O   0  0  0  0  0  0  0  0  0  0  0  0
   -9.5056   18.7753   16.9836 C   0  0  0  0  0  0  0  0  0  0  0  0
   -9.8828   19.2636   15.6960 O   0  0  0  0  0  0  0  0  0  0  0  0
   -9.6265   17.2531   16.9801 C   0  0  0  0  0  0  0  0  0  0  0  0
   -8.6607   16.7055   16.0713 O   0  0  0  0  0  0  0  0  0  0  0  0
   -9.1714   20.9120   18.4009 H   0  0  0  0  0  0  0  0  0  0  0  0
  -10.8010   19.0115   15.5108 H   0  0  0  0  0  0  0  0  0  0  0  0
   -7.7688   16.9589   16.3561 H   0  0  0  0  0  0  0  0  0  0  0  0
  -11.1166   19.2374   20.4862 C   0  0  0  0  0  0  0  0  0  0  0  0
  -10.6477   20.4849   21.0068 O   0  0  0  0  0  0  0  0  0  0  0  0
  -10.6047   21.1383   20.2911 H   0  0  0  0  0  0  0  0  0  0  0  0
 35 36  2  0  0  0
 35 34  1  0  0  0
 36 37  1  0  0  0
 34 33  2  0  0  0
 47 46  1  0  0  0
 55 56  1  0  0  0
 55 45  1  0  0  0
 37 38  2  0  0  0
 33 38  1  0  0  0
 46 45  1  0  0  0
 46 48  1  0  0  0
 45 44  1  0  0  0
 38 32  1  0  0  0
 48 49  1  0  0  0
 48 50  1  0  0  0
 44 43  1  0  0  0
 32 31  1  0  0  0
 31 30  1  0  0  0
 43 50  1  0  0  0
 43 42  1  0  0  0
 50 51  1  0  0  0
 17 16  1  0  0  0
 30 25  1  0  0  0
 42  3  1  0  0  0
  6  5  1  0  0  0
  3  5  1  0  0  0
  3  1  1  0  0  0
  8  1  1  0  0  0
 25 27  1  0  0  0
 25 26  2  0  0  0
 27 28  2  0  0  0
 26 29  1  0  0  0
 28 29  1  0  0  0
  5  4  1  0  0  0
  1  2  1  0  0  0
 29 15  1  0  0  0
  4 14  1  0  0  0
  4  7  1  0  0  0
 16 15  1  0  0  0
 16 22  1  0  0  0
  2  7  1  0  0  0
  2 11  1  0  0  0
 15 18  1  0  0  0
 14 22  1  0  0  0
 22 20  1  0  0  0
 11 12  1  0  0  0
 18 19  1  0  0  0
 20 19  1  0  0  0
 20 21  1  0  0  0
 19 39  1  0  0  0
 39 40  1  0  0  0
 17 23  1  0  0  0
 40 41  1  0  0  0
 21 24  1  0  0  0
  6  9  1  0  0  0
 12 13  1  0  0  0
  8 10  1  0  0  0
 56 57  1  0  0  0
 47 52  1  0  0  0
 49 53  1  0  0  0
 51 54  1  0  0  0
M  CHG 1  38   1
M  END
> <minimizedAffinity>
-9.08939

$$$$
5O9Y_9PN_A_601


 57 61  0  0  0  0  0  0  0  0999 V2000
  -11.2702   14.3110   18.7730 C   0  0  0  0  0  0  0  0  0  0  0  0
  -12.2764   13.4085   19.4953 C   0  0  0  0  0  0  0  0  0  0  0  0
  -10.2987   14.9167   19.7822 C   0  0  0  0  0  0  0  0  0  0  0  0
  -10.7401   12.9797   21.2735 C   0  0  0  0  0  0  0  0  0  0  0  0
   -9.6538   13.8157   20.6190 C   0  0  0  0  0  0  0  0  0  0  0  0
   -8.8140   14.3796   21.6415 O   0  0  0  0  0  0  0  0  0  0  0  0
  -11.5747   12.4140   20.2571 O   0  0  0  0  0  0  0  0  0  0  0  0
  -11.9698   15.3616   18.0872 O   0  0  0  0  0  0  0  0  0  0  0  0
   -9.3494   14.9347   22.2298 H   0  0  0  0  0  0  0  0  0  0  0  0
  -12.4676   15.8914   18.7294 H   0  0  0  0  0  0  0  0  0  0  0  0
  -13.1587   12.6599   18.4917 C   0  0  0  0  0  0  0  0  0  0  0  0
  -12.3753   12.2569   17.3657 O   0  0  0  0  0  0  0  0  0  0  0  0
  -11.9985   13.0411   16.9367 H   0  0  0  0  0  0  0  0  0  0  0  0
  -10.1094   11.9340   22.0188 O   0  0  0  0  0  0  0  0  0  0  0  0
  -13.1768   11.2523   24.0973 C   0  0  0  0  0  0  0  0  0  0  0  0
  -12.3436   11.4824   22.8246 C   0  0  0  0  0  0  0  0  0  0  0  0
  -12.6368   10.4478   21.8673 O   0  0  0  0  0  0  0  0  0  0  0  0
  -12.7723   12.1655   25.1268 O   0  0  0  0  0  0  0  0  0  0  0  0
  -11.3888   12.0266   25.4932 C   0  0  0  0  0  0  0  0  0  0  0  0
  -10.5415   12.4321   24.3027 C   0  0  0  0  0  0  0  0  0  0  0  0
   -9.1391   12.3578   24.6168 O   0  0  0  0  0  0  0  0  0  0  0  0
  -10.8470   11.4761   23.1567 C   0  0  0  0  0  0  0  0  0  0  0  0
  -12.4072    9.5840   22.2443 H   0  0  0  0  0  0  0  0  0  0  0  0
   -8.9106   11.4477   24.8626 H   0  0  0  0  0  0  0  0  0  0  0  0
  -16.6377   11.9128   24.3049 C   0  0  0  0  0  0  0  0  0  0  0  0
  -15.5528   11.4285   24.8819 C   0  0  0  0  0  0  0  0  0  0  0  0
  -16.2938   12.3496   23.1027 N   0  0  0  0  0  0  0  0  0  0  0  0
  -15.1100   12.1518   22.9552 N   0  0  0  0  0  0  0  0  0  0  0  0
  -14.6038   11.5975   23.9619 N   0  0  0  0  0  0  0  0  0  0  0  0
  -18.0618   11.9939   24.8775 C   0  0  0  0  0  0  0  0  0  0  0  0
  -18.2313   13.3995   25.4094 C   0  0  0  0  0  0  0  0  0  0  0  0
  -19.6173   13.3871   26.0193 C   0  0  0  0  0  0  0  0  0  0  0  0
  -20.5179   13.6615   28.3046 C   0  0  0  0  0  0  0  0  0  0  0  0
  -20.6790   14.3488   29.5031 C   0  0  0  0  0  0  0  0  0  0  0  0
  -20.0569   15.5806   29.6836 C   0  0  0  0  0  0  0  0  0  0  0  0
  -19.2741   16.1320   28.6676 C   0  0  0  0  0  0  0  0  0  0  0  0
  -19.1030   15.4540   27.4586 C   0  0  0  0  0  0  0  0  0  0  0  0
  -19.7336   14.1975   27.2659 N   0  0  0  0  0  0  0  0  0  0  0  0
  -11.0776   12.8679   26.7420 C   0  0  0  0  0  0  0  0  0  0  0  0
  -11.7933   12.3527   27.8572 O   0  0  0  0  0  0  0  0  0  0  0  0
  -12.7454   12.3894   27.6753 H   0  0  0  0  0  0  0  0  0  0  0  0
   -9.2758   15.6204   19.0622 O   0  0  0  0  0  0  0  0  0  0  0  0
   -9.3251   17.0494   19.1959 C   0  0  0  0  0  0  0  0  0  0  0  0
  -10.4722   17.4149   19.9713 O   0  0  0  0  0  0  0  0  0  0  0  0
  -10.5289   18.8283   20.2179 C   0  0  0  0  0  0  0  0  0  0  0  0
  -10.7200   19.5601   18.8910 C   0  0  0  0  0  0  0  0  0  0  0  0
  -10.6746   20.9784   19.1161 O   0  0  0  0  0  0  0  0  0  0  0  0
   -9.5958   19.1789   17.9196 C   0  0  0  0  0  0  0  0  0  0  0  0
   -9.8869   19.7030   16.6237 O   0  0  0  0  0  0  0  0  0  0  0  0
   -9.4520   17.6627   17.8089 C   0  0  0  0  0  0  0  0  0  0  0  0
   -8.3003   17.3553   17.0104 O   0  0  0  0  0  0  0  0  0  0  0  0
   -9.8140   21.2184   19.4939 H   0  0  0  0  0  0  0  0  0  0  0  0
  -10.7176   19.3211   16.2995 H   0  0  0  0  0  0  0  0  0  0  0  0
   -7.5080   17.7261   17.4295 H   0  0  0  0  0  0  0  0  0  0  0  0
  -11.6884   19.0854   21.1890 C   0  0  0  0  0  0  0  0  0  0  0  0
  -11.3250   20.1024   22.1275 O   0  0  0  0  0  0  0  0  0  0  0  0
  -11.1232   20.9237   21.6523 H   0  0  0  0  0  0  0  0  0  0  0  0
 35 36  2  0  0  0
 35 34  1  0  0  0
 36 37  1  0  0  0
 34 33  2  0  0  0
 47 46  1  0  0  0
 55 56  1  0  0  0
 55 45  1  0  0  0
 37 38  2  0  0  0
 33 38  1  0  0  0
 46 45  1  0  0  0
 46 48  1  0  0  0
 45 44  1  0  0  0
 38 32  1  0  0  0
 48 49  1  0  0  0
 48 50  1  0  0  0
 44 43  1  0  0  0
 32 31  1  0  0  0
 31 30  1  0  0  0
 43 50  1  0  0  0
 43 42  1  0  0  0
 50 51  1  0  0  0
 17 16  1  0  0  0
 30 25  1  0  0  0
 42  3  1  0  0  0
  6  5  1  0  0  0
  3  5  1  0  0  0
  3  1  1  0  0  0
  8  1  1  0  0  0
 25 27  1  0  0  0
 25 26  2  0  0  0
 27 28  2  0  0  0
 26 29  1  0  0  0
 28 29  1  0  0  0
  5  4  1  0  0  0
  1  2  1  0  0  0
 29 15  1  0  0  0
  4 14  1  0  0  0
  4  7  1  0  0  0
 16 15  1  0  0  0
 16 22  1  0  0  0
  2  7  1  0  0  0
  2 11  1  0  0  0
 15 18  1  0  0  0
 14 22  1  0  0  0
 22 20  1  0  0  0
 11 12  1  0  0  0
 18 19  1  0  0  0
 20 19  1  0  0  0
 20 21  1  0  0  0
 19 39  1  0  0  0
 39 40  1  0  0  0
 17 23  1  0  0  0
 40 41  1  0  0  0
 21 24  1  0  0  0
  6  9  1  0  0  0
 12 13  1  0  0  0
  8 10  1  0  0  0
 56 57  1  0  0  0
 47 52  1  0  0  0
 49 53  1  0  0  0
 51 54  1  0  0  0
M  CHG 1  38   1
M  END
> <minimizedAffinity>
-9.00276

$$$$
