1N4K_I3P_A_1000
  RCSB PDB12061703223D
Coordinates from PDB:1N4K:A:1000 Model:1 without hydrogens
 24 24  0  0  0  0            999 V2000
   23.1630   -2.1100   10.2630   C 0  0  0  0  0  0  0  0  0  0  0  0
   22.5710   -3.4900   10.6800   C 0  0  0  0  0  0  0  0  0  0  0  0
   22.9430   -3.8020   12.1310   C 0  0  0  0  0  0  0  0  0  0  0  0
   22.3860   -2.6940   13.0500   C 0  0  0  0  0  0  0  0  0  0  0  0
   22.9670   -1.3280   12.6370   C 0  0  0  0  0  0  0  0  0  0  0  0
   22.6040   -0.9950   11.1750   C 0  0  0  0  0  0  0  0  0  0  0  0
   22.8100   -1.7080    8.8800   O 0  0  0  0  0  0  0  0  0  0  0  0
   21.1440   -3.4870   10.5450   O 0  0  0  0  0  0  0  0  0  0  0  0
   22.3880   -5.0460   12.4990   O 0  0  0  0  0  0  0  0  0  0  0  0
   22.7500   -3.0220   14.4480   O 0  0  0  0  0  0  0  0  0  0  0  0
   22.4040   -0.2860   13.5190   O 0  0  0  0  0  0  0  0  0  0  0  0
   23.1590    0.2590   10.7890   O 0  0  0  0  0  0  0  0  0  0  0  0
   23.6820   -2.0580    7.5940   P 0  0  0  0  0  0  0  0  0  0  0  0
   22.9530   -1.4340    6.4570   O 0  0  0  0  0  0  0  0  0  0  0  0
   23.7090   -3.5430    7.5680   O 0  0  0  0  0  0  0  0  0  0  0  0
   24.9660   -1.4700    7.9690   O 0  0  0  0  0  0  0  0  0  0  0  0
   21.7740   -3.5700   15.5870   P 0  0  0  0  0  0  0  0  0  0  0  0
   20.7220   -2.5200   15.5470   O 0  0  0  0  0  0  0  0  0  0  0  0
   21.3360   -4.8620   15.0640   O 0  0  0  0  0  0  0  0  0  0  0  0
   22.5570   -3.6840   16.8440   O 0  0  0  0  0  0  0  0  0  0  0  0
   23.1580    0.9460   14.2040   P 0  0  0  0  0  0  0  0  0  0  0  0
   22.0260    1.5670   14.9390   O 0  0  0  0  0  0  0  0  0  0  0  0
   24.2190    0.3100   15.0370   O 0  0  0  0  0  0  0  0  0  0  0  0
   23.6350    1.6890   13.0430   O 0  0  0  0  0  0  0  0  0  0  0  0
  1  2  1  0  0  0  0
  1  6  1  0  0  0  0
  1  7  1  0  0  0  0
  2  3  1  0  0  0  0
  2  8  1  0  0  0  0
  3  4  1  0  0  0  0
  3  9  1  0  0  0  0
  4  5  1  0  0  0  0
  4 10  1  0  0  0  0
  5  6  1  0  0  0  0
  5 11  1  0  0  0  0
  6 12  1  0  0  0  0
  7 13  1  0  0  0  0
 10 17  1  0  0  0  0
 11 21  1  0  0  0  0
 13 14  2  0  0  0  0
 13 15  1  0  0  0  0
 13 16  1  0  0  0  0
 17 18  2  0  0  0  0
 17 19  1  0  0  0  0
 17 20  1  0  0  0  0
 21 22  2  0  0  0  0
 21 23  1  0  0  0  0
 21 24  1  0  0  0  0
A    1
C1
A    2
C2
A    3
C3
A    4
C4
A    5
C5
A    6
C6
A    7
O1
A    8
O2
A    9
O3
A   10
O4
A   11
O5
A   12
O6
A   13
P1
A   14
O11
A   15
O12
A   16
O13
A   17
P4
A   18
O41
A   19
O42
A   20
O43
A   21
P5
A   22
O51
A   23
O52
A   24
O53
M  END
>  <InstanceId>
1N4K_I3P_A_1000

>  <ChemCompId>
I3P

>  <PdbId>
1N4K

>  <ChainId>
A

>  <ResidueNumber>
1000

>  <InsertionCode>


>  <Model>
1

>  <AltIds>


>  <MissingHeavyAtoms>
0

>  <ObservedFormula>
C6 O15 P3

>  <Name>
D-MYO-INOSITOL-1,4,5-TRIPHOSPHATE

>  <SystematicName>
[(1R,2R,3S,4R,5R,6S)-2,3,6-trihydroxy-4,5-diphosphonooxy-cyclohexyl] dihydrogen phosphate

>  <Synonyms>


>  <Type>
NON-POLYMER

>  <Formula>
C6 H15 O15 P3

>  <MolecularWeight>
420.096

>  <ModifiedDate>
2011-06-04

>  <Parent>


>  <OneLetterCode>


>  <SubcomponentList>


>  <AmbiguousFlag>
N

>  <InChI>
InChI=1S/C6H15O15P3/c7-1-2(8)5(20-23(13,14)15)6(21-24(16,17)18)3(9)4(1)19-22(10,11)12/h1-9H,(H2,10,11,12)(H2,13,14,15)(H2,16,17,18)/t1-,2+,3+,4-,5-,6-/m1/s1

>  <InChIKey>
MMWCIQZXVOZEGG-XJTPDSDZSA-N

>  <SMILES>
[C@H]1([C@@H]([C@H]([C@@H]([C@H]([C@@H]1OP(=O)(O)O)O)OP(=O)(O)O)OP(=O)(O)O)O)O

$$$$
