3ZSO_O2N_A_1219


 46 50  0  0  0  0  0  0  0  0999 V2000
  -10.9189   48.7143    5.6095 C   0  0  0  0  0  0  0  0  0  0  0  0
  -11.8159   49.3382    4.7712 C   0  0  0  0  0  0  0  0  0  0  0  0
   -9.8191   48.0943    5.0296 C   0  0  0  0  0  0  0  0  0  0  0  0
  -11.6410   49.3678    3.3967 C   0  0  0  0  0  0  0  0  0  0  0  0
   -9.6278   48.1099    3.6594 C   0  0  0  0  0  0  0  0  0  0  0  0
  -10.5440   48.7515    2.8272 C   0  0  0  0  0  0  0  0  0  0  0  0
   -8.4229   47.4596    3.1000 C   0  0  0  0  0  0  0  0  0  0  0  0
   -8.3979   46.0659    3.0389 N   0  0  0  0  0  0  0  0  0  0  0  0
   -7.4949   48.1894    2.7401 O   0  0  0  0  0  0  0  0  0  0  0  0
   -9.1617   45.5602    3.3999 H   0  0  0  0  0  0  0  0  0  0  0  0
   -7.2842   45.3367    2.4614 C   0  0  0  0  0  0  0  0  0  0  0  0
   -9.1864   44.1093    1.3026 C   0  0  0  0  0  0  0  0  0  0  0  0
   -7.0035   43.1690    1.1501 C   0  0  0  0  0  0  0  0  0  0  0  0
   -9.7257   43.0611    0.5462 C   0  0  0  0  0  0  0  0  0  0  0  0
   -7.4707   42.1013    0.3688 C   0  0  0  0  0  0  0  0  0  0  0  0
   -7.8324   44.1797    1.6069 C   0  0  0  0  0  0  0  0  0  0  0  0
   -8.8199   42.0869    0.0538 C   0  0  0  0  0  0  0  0  0  0  0  0
  -10.3831   41.3227   -1.6978 C   0  0  0  0  0  0  0  0  0  0  0  0
   -9.3677   41.0429   -0.7103 O   0  0  0  0  0  0  0  0  0  0  0  0
   -4.9516   45.0794    3.2858 C   0  0  0  0  0  0  0  0  0  0  0  0
   -6.6536   44.5953    4.8684 C   0  0  0  0  0  0  0  0  0  0  0  0
   -4.0187   44.7952    4.2808 C   0  0  0  0  0  0  0  0  0  0  0  0
   -5.7382   44.2597    5.8955 C   0  0  0  0  0  0  0  0  0  0  0  0
   -6.3063   44.9714    3.5755 C   0  0  0  0  0  0  0  0  0  0  0  0
   -4.4057   44.3904    5.5536 C   0  0  0  0  0  0  0  0  0  0  0  0
   -2.4267   45.1899    6.5234 C   0  0  0  0  0  0  0  0  0  0  0  0
   -3.3643   44.1168    6.4400 O   0  0  0  0  0  0  0  0  0  0  0  0
  -10.3842   48.8248    1.3444 C   0  0  0  0  0  0  0  0  0  0  0  0
  -11.4251   48.0625    0.5385 N   0  0  0  0  0  0  0  0  0  0  0  0
  -11.3926   46.5011    0.6502 C   0  0  0  0  0  0  0  0  0  0  0  0
  -11.4999   45.4336   -1.7134 C   0  0  0  0  0  0  0  0  0  0  0  0
  -12.2264   44.8657   -2.8083 C   0  0  0  0  0  0  0  0  0  0  0  0
  -13.5433   45.8381   -0.4245 C   0  0  0  0  0  0  0  0  0  0  0  0
  -12.1409   45.9078   -0.5348 C   0  0  0  0  0  0  0  0  0  0  0  0
  -13.5925   44.8439   -2.6629 C   0  0  0  0  0  0  0  0  0  0  0  0
  -14.2219   45.2911   -1.5145 C   0  0  0  0  0  0  0  0  0  0  0  0
  -15.7551   44.5284   -2.8715 C   0  0  0  0  0  0  0  0  0  0  0  0
  -14.5004   44.3752   -3.5629 O   0  0  0  0  0  0  0  0  0  0  0  0
  -15.6155   45.1684   -1.5859 O   0  0  0  0  0  0  0  0  0  0  0  0
  -14.3460   46.2376    0.7932 C   0  0  0  0  0  0  0  0  0  0  0  0
  -14.6617   47.4701    0.8400 O   0  0  0  0  0  0  0  0  0  0  0  0
  -14.8229   45.4337    1.6575 O   0  0  0  0  0  0  0  0  0  0  0  0
  -14.3143   48.0671    0.2069 H   0  0  0  0  0  0  0  0  0  0  0  0
  -11.3318   48.5006   -0.8910 C   0  0  0  0  0  0  0  0  0  0  0  0
   -9.7636   49.9349   -2.1657 C   0  0  0  0  0  0  0  0  0  0  0  0
   -9.9652   48.8298   -1.4262 C   0  0  0  0  0  0  0  0  0  0  0  0
  1  2  1  0  0  0
  1  3  2  0  0  0
  2  4  2  0  0  0
  3  5  1  0  0  0
  4  6  1  0  0  0
 31 32  1  0  0  0
 31 34  2  0  0  0
 12 14  1  0  0  0
 12 16  2  0  0  0
 13 15  2  0  0  0
 13 16  1  0  0  0
 20 22  1  0  0  0
 20 24  2  0  0  0
 21 23  2  0  0  0
 21 24  1  0  0  0
 32 35  2  0  0  0
 14 17  2  0  0  0
 15 17  1  0  0  0
 22 25  2  0  0  0
 23 25  1  0  0  0
  5  6  2  0  0  0
  5  7  1  0  0  0
 33 34  1  0  0  0
 33 36  2  0  0  0
 33 40  1  0  0  0
 16 11  1  0  0  0
 24 11  1  0  0  0
  6 28  1  0  0  0
 34 30  1  0  0  0
 35 36  1  0  0  0
 35 38  1  0  0  0
 36 39  1  0  0  0
 17 19  1  0  0  0
 25 27  1  0  0  0
 45 46  2  0  0  0
 46 44  1  0  0  0
  7  8  1  0  0  0
  7  9  2  0  0  0
 40 41  1  0  0  0
 40 42  2  0  0  0
 37 38  1  0  0  0
 37 39  1  0  0  0
 18 19  1  0  0  0
 26 27  1  0  0  0
 28 29  1  0  0  0
 30 29  1  0  0  0
 44 29  1  0  0  0
 11  8  1  0  0  0
  8 10  1  0  0  0
 41 43  1  0  0  0
M  END
> <minimizedAffinity>
-8.42831

$$$$
3ZSO_O2N_A_1219


 46 50  0  0  0  0  0  0  0  0999 V2000
   -8.3527   40.9892    0.4047 C   0  0  0  0  0  0  0  0  0  0  0  0
   -9.3571   40.6711   -0.4822 C   0  0  0  0  0  0  0  0  0  0  0  0
   -7.8975   42.3017    0.4186 C   0  0  0  0  0  0  0  0  0  0  0  0
   -9.9152   41.6135   -1.3313 C   0  0  0  0  0  0  0  0  0  0  0  0
   -8.4393   43.2569   -0.4229 C   0  0  0  0  0  0  0  0  0  0  0  0
   -9.4595   42.9172   -1.3103 C   0  0  0  0  0  0  0  0  0  0  0  0
   -7.9364   44.6457   -0.3432 C   0  0  0  0  0  0  0  0  0  0  0  0
   -8.0948   45.3328    0.8607 N   0  0  0  0  0  0  0  0  0  0  0  0
   -7.4252   45.1271   -1.3582 O   0  0  0  0  0  0  0  0  0  0  0  0
   -8.5644   44.8890    1.6035 H   0  0  0  0  0  0  0  0  0  0  0  0
   -7.5905   46.6796    1.0549 C   0  0  0  0  0  0  0  0  0  0  0  0
   -5.3273   47.6494    1.6910 C   0  0  0  0  0  0  0  0  0  0  0  0
   -5.8914   45.4980    2.5429 C   0  0  0  0  0  0  0  0  0  0  0  0
   -4.0813   47.6111    2.3295 C   0  0  0  0  0  0  0  0  0  0  0  0
   -4.6706   45.4011    3.2276 C   0  0  0  0  0  0  0  0  0  0  0  0
   -6.2413   46.6077    1.7921 C   0  0  0  0  0  0  0  0  0  0  0  0
   -3.8021   46.4767    3.1341 C   0  0  0  0  0  0  0  0  0  0  0  0
   -1.3603   46.1269    3.0306 C   0  0  0  0  0  0  0  0  0  0  0  0
   -2.5534   46.4492    3.7771 O   0  0  0  0  0  0  0  0  0  0  0  0
   -9.7069   46.8456    2.3511 C   0  0  0  0  0  0  0  0  0  0  0  0
   -8.7217   48.9156    1.7343 C   0  0  0  0  0  0  0  0  0  0  0  0
  -10.7103   47.5731    2.9878 C   0  0  0  0  0  0  0  0  0  0  0  0
   -9.7427   49.6916    2.3348 C   0  0  0  0  0  0  0  0  0  0  0  0
   -8.6865   47.5259    1.6978 C   0  0  0  0  0  0  0  0  0  0  0  0
  -10.7279   48.9635    2.9742 C   0  0  0  0  0  0  0  0  0  0  0  0
  -12.1350   50.8352    3.0873 C   0  0  0  0  0  0  0  0  0  0  0  0
  -11.8050   49.5574    3.6315 O   0  0  0  0  0  0  0  0  0  0  0  0
  -10.1025   43.9044   -2.2277 C   0  0  0  0  0  0  0  0  0  0  0  0
  -11.4764   44.3951   -1.7971 N   0  0  0  0  0  0  0  0  0  0  0  0
  -11.5914   44.9733   -0.3465 C   0  0  0  0  0  0  0  0  0  0  0  0
  -10.8669   47.3841   -0.9794 C   0  0  0  0  0  0  0  0  0  0  0  0
  -11.1095   48.7925   -1.0627 C   0  0  0  0  0  0  0  0  0  0  0  0
  -13.0423   46.9600    0.0635 C   0  0  0  0  0  0  0  0  0  0  0  0
  -11.8163   46.4760   -0.4327 C   0  0  0  0  0  0  0  0  0  0  0  0
  -12.3080   49.2172   -0.5423 C   0  0  0  0  0  0  0  0  0  0  0  0
  -13.2416   48.3387   -0.0209 C   0  0  0  0  0  0  0  0  0  0  0  0
  -14.0798   50.3538    0.0811 C   0  0  0  0  0  0  0  0  0  0  0  0
  -12.7631   50.4992   -0.4854 O   0  0  0  0  0  0  0  0  0  0  0  0
  -14.3891   48.9925    0.4459 O   0  0  0  0  0  0  0  0  0  0  0  0
  -14.1662   46.1046    0.6039 C   0  0  0  0  0  0  0  0  0  0  0  0
  -15.1045   45.8750   -0.2254 O   0  0  0  0  0  0  0  0  0  0  0  0
  -14.1650   45.5123    1.7308 O   0  0  0  0  0  0  0  0  0  0  0  0
  -15.1114   46.3076   -1.0566 H   0  0  0  0  0  0  0  0  0  0  0  0
  -12.4641   43.2900   -2.0144 C   0  0  0  0  0  0  0  0  0  0  0  0
  -14.0172   44.8088   -3.2070 C   0  0  0  0  0  0  0  0  0  0  0  0
  -13.8306   43.6713   -2.5140 C   0  0  0  0  0  0  0  0  0  0  0  0
  1  2  1  0  0  0
  1  3  2  0  0  0
  2  4  2  0  0  0
  3  5  1  0  0  0
  4  6  1  0  0  0
 31 32  1  0  0  0
 31 34  2  0  0  0
 12 14  1  0  0  0
 12 16  2  0  0  0
 13 15  2  0  0  0
 13 16  1  0  0  0
 20 22  1  0  0  0
 20 24  2  0  0  0
 21 23  2  0  0  0
 21 24  1  0  0  0
 32 35  2  0  0  0
 14 17  2  0  0  0
 15 17  1  0  0  0
 22 25  2  0  0  0
 23 25  1  0  0  0
  5  6  2  0  0  0
  5  7  1  0  0  0
 33 34  1  0  0  0
 33 36  2  0  0  0
 33 40  1  0  0  0
 16 11  1  0  0  0
 24 11  1  0  0  0
  6 28  1  0  0  0
 34 30  1  0  0  0
 35 36  1  0  0  0
 35 38  1  0  0  0
 36 39  1  0  0  0
 17 19  1  0  0  0
 25 27  1  0  0  0
 45 46  2  0  0  0
 46 44  1  0  0  0
  7  8  1  0  0  0
  7  9  2  0  0  0
 40 41  1  0  0  0
 40 42  2  0  0  0
 37 38  1  0  0  0
 37 39  1  0  0  0
 18 19  1  0  0  0
 26 27  1  0  0  0
 28 29  1  0  0  0
 30 29  1  0  0  0
 44 29  1  0  0  0
 11  8  1  0  0  0
  8 10  1  0  0  0
 41 43  1  0  0  0
M  END
> <minimizedAffinity>
-8.29668

$$$$
3ZSO_O2N_A_1219


 46 50  0  0  0  0  0  0  0  0999 V2000
   -9.2190   40.4676   -0.5983 C   0  0  0  0  0  0  0  0  0  0  0  0
   -8.1727   40.4804    0.2970 C   0  0  0  0  0  0  0  0  0  0  0  0
   -9.7044   41.6923   -1.0394 C   0  0  0  0  0  0  0  0  0  0  0  0
   -7.6025   41.6610    0.7461 C   0  0  0  0  0  0  0  0  0  0  0  0
   -9.1511   42.8822   -0.6010 C   0  0  0  0  0  0  0  0  0  0  0  0
   -8.0884   42.8750    0.3014 C   0  0  0  0  0  0  0  0  0  0  0  0
   -9.6885   44.1556   -1.1278 C   0  0  0  0  0  0  0  0  0  0  0  0
  -10.8486   44.6686   -0.5468 N   0  0  0  0  0  0  0  0  0  0  0  0
   -9.0907   44.6810   -2.0711 O   0  0  0  0  0  0  0  0  0  0  0  0
  -11.2911   44.1539    0.1663 H   0  0  0  0  0  0  0  0  0  0  0  0
  -11.4250   45.9352   -0.9583 C   0  0  0  0  0  0  0  0  0  0  0  0
  -11.2164   46.4661    1.5201 C   0  0  0  0  0  0  0  0  0  0  0  0
  -11.4258   48.2940    0.0077 C   0  0  0  0  0  0  0  0  0  0  0  0
  -11.1602   47.3370    2.6155 C   0  0  0  0  0  0  0  0  0  0  0  0
  -11.3537   49.2251    1.0548 C   0  0  0  0  0  0  0  0  0  0  0  0
  -11.3430   46.9275    0.2155 C   0  0  0  0  0  0  0  0  0  0  0  0
  -11.1883   48.7277    2.3375 C   0  0  0  0  0  0  0  0  0  0  0  0
  -11.6566   49.1833    4.7184 C   0  0  0  0  0  0  0  0  0  0  0  0
  -11.1240   49.5947    3.4410 O   0  0  0  0  0  0  0  0  0  0  0  0
  -12.8556   45.0823   -2.8057 C   0  0  0  0  0  0  0  0  0  0  0  0
  -14.0210   45.9296   -0.9189 C   0  0  0  0  0  0  0  0  0  0  0  0
  -14.0939   44.7887   -3.3727 C   0  0  0  0  0  0  0  0  0  0  0  0
  -15.2994   45.6838   -1.4763 C   0  0  0  0  0  0  0  0  0  0  0  0
  -12.8082   45.6756   -1.5501 C   0  0  0  0  0  0  0  0  0  0  0  0
  -15.2864   45.0881   -2.7231 C   0  0  0  0  0  0  0  0  0  0  0  0
  -16.4334   45.2468   -4.7616 C   0  0  0  0  0  0  0  0  0  0  0  0
  -16.4492   44.7601   -3.4198 O   0  0  0  0  0  0  0  0  0  0  0  0
   -7.4318   44.1217    0.7955 C   0  0  0  0  0  0  0  0  0  0  0  0
   -7.8700   44.5856    2.1763 N   0  0  0  0  0  0  0  0  0  0  0  0
   -7.5485   46.0713    2.5516 C   0  0  0  0  0  0  0  0  0  0  0  0
   -7.9483   47.0710    0.1899 C   0  0  0  0  0  0  0  0  0  0  0  0
   -7.5023   47.7799   -0.9711 C   0  0  0  0  0  0  0  0  0  0  0  0
   -5.7564   47.2403    1.2702 C   0  0  0  0  0  0  0  0  0  0  0  0
   -7.0966   46.8080    1.2990 C   0  0  0  0  0  0  0  0  0  0  0  0
   -6.1813   48.1575   -0.9613 C   0  0  0  0  0  0  0  0  0  0  0  0
   -5.3505   47.9167    0.1189 C   0  0  0  0  0  0  0  0  0  0  0  0
   -4.2049   49.0155   -1.3824 C   0  0  0  0  0  0  0  0  0  0  0  0
   -5.5165   48.8221   -1.9463 O   0  0  0  0  0  0  0  0  0  0  0  0
   -4.0500   48.3935   -0.0897 O   0  0  0  0  0  0  0  0  0  0  0  0
   -4.7650   47.0923    2.4024 C   0  0  0  0  0  0  0  0  0  0  0  0
   -3.7927   46.3077    2.1574 O   0  0  0  0  0  0  0  0  0  0  0  0
   -4.7646   47.7768    3.4757 O   0  0  0  0  0  0  0  0  0  0  0  0
   -3.7868   45.8010    1.3692 H   0  0  0  0  0  0  0  0  0  0  0  0
   -7.3080   43.6410    3.1942 C   0  0  0  0  0  0  0  0  0  0  0  0
   -5.2391   43.9409    4.5250 C   0  0  0  0  0  0  0  0  0  0  0  0
   -5.8129   43.6068    3.3554 C   0  0  0  0  0  0  0  0  0  0  0  0
  1  2  1  0  0  0
  1  3  2  0  0  0
  2  4  2  0  0  0
  3  5  1  0  0  0
  4  6  1  0  0  0
 31 32  1  0  0  0
 31 34  2  0  0  0
 12 14  1  0  0  0
 12 16  2  0  0  0
 13 15  2  0  0  0
 13 16  1  0  0  0
 20 22  1  0  0  0
 20 24  2  0  0  0
 21 23  2  0  0  0
 21 24  1  0  0  0
 32 35  2  0  0  0
 14 17  2  0  0  0
 15 17  1  0  0  0
 22 25  2  0  0  0
 23 25  1  0  0  0
  5  6  2  0  0  0
  5  7  1  0  0  0
 33 34  1  0  0  0
 33 36  2  0  0  0
 33 40  1  0  0  0
 16 11  1  0  0  0
 24 11  1  0  0  0
  6 28  1  0  0  0
 34 30  1  0  0  0
 35 36  1  0  0  0
 35 38  1  0  0  0
 36 39  1  0  0  0
 17 19  1  0  0  0
 25 27  1  0  0  0
 45 46  2  0  0  0
 46 44  1  0  0  0
  7  8  1  0  0  0
  7  9  2  0  0  0
 40 41  1  0  0  0
 40 42  2  0  0  0
 37 38  1  0  0  0
 37 39  1  0  0  0
 18 19  1  0  0  0
 26 27  1  0  0  0
 28 29  1  0  0  0
 30 29  1  0  0  0
 44 29  1  0  0  0
 11  8  1  0  0  0
  8 10  1  0  0  0
 41 43  1  0  0  0
M  END
> <minimizedAffinity>
-8.12622

$$$$
3ZSO_O2N_A_1219


 46 50  0  0  0  0  0  0  0  0999 V2000
   -7.1284   42.1258    0.9356 C   0  0  0  0  0  0  0  0  0  0  0  0
   -8.0347   42.0412   -0.0978 C   0  0  0  0  0  0  0  0  0  0  0  0
   -6.9100   43.3762    1.5001 C   0  0  0  0  0  0  0  0  0  0  0  0
   -8.7231   43.1493   -0.5658 C   0  0  0  0  0  0  0  0  0  0  0  0
   -7.5848   44.4953    1.0456 C   0  0  0  0  0  0  0  0  0  0  0  0
   -8.5029   44.3890    0.0019 C   0  0  0  0  0  0  0  0  0  0  0  0
   -7.3347   45.7957    1.7047 C   0  0  0  0  0  0  0  0  0  0  0  0
   -8.1433   46.1501    2.7850 N   0  0  0  0  0  0  0  0  0  0  0  0
   -6.4370   46.5063    1.2437 O   0  0  0  0  0  0  0  0  0  0  0  0
   -8.8730   45.5453    3.0515 H   0  0  0  0  0  0  0  0  0  0  0  0
   -7.9451   47.3800    3.5290 C   0  0  0  0  0  0  0  0  0  0  0  0
   -7.9184   47.8693    6.0245 C   0  0  0  0  0  0  0  0  0  0  0  0
   -6.8086   45.9026    5.2677 C   0  0  0  0  0  0  0  0  0  0  0  0
   -7.5635   47.5976    7.3518 C   0  0  0  0  0  0  0  0  0  0  0  0
   -6.4371   45.5564    6.5756 C   0  0  0  0  0  0  0  0  0  0  0  0
   -7.5547   47.0322    4.9767 C   0  0  0  0  0  0  0  0  0  0  0  0
   -6.8517   46.3954    7.5974 C   0  0  0  0  0  0  0  0  0  0  0  0
   -5.2148   45.5621    9.2471 C   0  0  0  0  0  0  0  0  0  0  0  0
   -6.5059   46.1265    8.9321 O   0  0  0  0  0  0  0  0  0  0  0  0
   -8.9438   49.5581    2.8614 C   0  0  0  0  0  0  0  0  0  0  0  0
  -10.4905   47.8915    3.5440 C   0  0  0  0  0  0  0  0  0  0  0  0
  -10.0310   50.3986    2.6323 C   0  0  0  0  0  0  0  0  0  0  0  0
  -11.6195   48.7267    3.3620 C   0  0  0  0  0  0  0  0  0  0  0  0
   -9.1691   48.2722    3.3374 C   0  0  0  0  0  0  0  0  0  0  0  0
  -11.3370   49.9915    2.8823 C   0  0  0  0  0  0  0  0  0  0  0  0
  -13.0276   50.6889    1.4155 C   0  0  0  0  0  0  0  0  0  0  0  0
  -12.3227   50.9453    2.6300 O   0  0  0  0  0  0  0  0  0  0  0  0
   -9.2805   45.5522   -0.5195 C   0  0  0  0  0  0  0  0  0  0  0  0
  -10.3562   46.0875    0.4134 N   0  0  0  0  0  0  0  0  0  0  0  0
  -11.5816   45.1504    0.6814 C   0  0  0  0  0  0  0  0  0  0  0  0
  -11.9010   44.3545   -1.7684 C   0  0  0  0  0  0  0  0  0  0  0  0
  -12.6836   44.2252   -2.9601 C   0  0  0  0  0  0  0  0  0  0  0  0
  -13.6756   45.5773   -0.6042 C   0  0  0  0  0  0  0  0  0  0  0  0
  -12.3854   45.0126   -0.6034 C   0  0  0  0  0  0  0  0  0  0  0  0
  -13.9240   44.8147   -2.9189 C   0  0  0  0  0  0  0  0  0  0  0  0
  -14.4069   45.4449   -1.7855 C   0  0  0  0  0  0  0  0  0  0  0  0
  -15.9659   45.5174   -3.3146 C   0  0  0  0  0  0  0  0  0  0  0  0
  -14.8445   44.8468   -3.9217 O   0  0  0  0  0  0  0  0  0  0  0  0
  -15.6936   45.9666   -1.9707 O   0  0  0  0  0  0  0  0  0  0  0  0
  -14.3413   46.2398    0.5810 C   0  0  0  0  0  0  0  0  0  0  0  0
  -14.5226   47.4937    0.4556 O   0  0  0  0  0  0  0  0  0  0  0  0
  -14.8350   45.6309    1.5841 O   0  0  0  0  0  0  0  0  0  0  0  0
  -14.1619   47.9479   -0.2803 H   0  0  0  0  0  0  0  0  0  0  0  0
  -10.8033   47.4235   -0.0960 C   0  0  0  0  0  0  0  0  0  0  0  0
   -9.9505   49.1917   -1.6085 C   0  0  0  0  0  0  0  0  0  0  0  0
   -9.7382   48.3802   -0.5571 C   0  0  0  0  0  0  0  0  0  0  0  0
  1  2  1  0  0  0
  1  3  2  0  0  0
  2  4  2  0  0  0
  3  5  1  0  0  0
  4  6  1  0  0  0
 31 32  1  0  0  0
 31 34  2  0  0  0
 12 14  1  0  0  0
 12 16  2  0  0  0
 13 15  2  0  0  0
 13 16  1  0  0  0
 20 22  1  0  0  0
 20 24  2  0  0  0
 21 23  2  0  0  0
 21 24  1  0  0  0
 32 35  2  0  0  0
 14 17  2  0  0  0
 15 17  1  0  0  0
 22 25  2  0  0  0
 23 25  1  0  0  0
  5  6  2  0  0  0
  5  7  1  0  0  0
 33 34  1  0  0  0
 33 36  2  0  0  0
 33 40  1  0  0  0
 16 11  1  0  0  0
 24 11  1  0  0  0
  6 28  1  0  0  0
 34 30  1  0  0  0
 35 36  1  0  0  0
 35 38  1  0  0  0
 36 39  1  0  0  0
 17 19  1  0  0  0
 25 27  1  0  0  0
 45 46  2  0  0  0
 46 44  1  0  0  0
  7  8  1  0  0  0
  7  9  2  0  0  0
 40 41  1  0  0  0
 40 42  2  0  0  0
 37 38  1  0  0  0
 37 39  1  0  0  0
 18 19  1  0  0  0
 26 27  1  0  0  0
 28 29  1  0  0  0
 30 29  1  0  0  0
 44 29  1  0  0  0
 11  8  1  0  0  0
  8 10  1  0  0  0
 41 43  1  0  0  0
M  END
> <minimizedAffinity>
-8.06483

$$$$
3ZSO_O2N_A_1219


 46 50  0  0  0  0  0  0  0  0999 V2000
   -9.0791   40.9690   -1.0352 C   0  0  0  0  0  0  0  0  0  0  0  0
  -10.2709   41.0663   -1.7181 C   0  0  0  0  0  0  0  0  0  0  0  0
   -8.7560   41.9933   -0.1540 C   0  0  0  0  0  0  0  0  0  0  0  0
  -11.1367   42.1337   -1.5395 C   0  0  0  0  0  0  0  0  0  0  0  0
   -9.6051   43.0689    0.0364 C   0  0  0  0  0  0  0  0  0  0  0  0
  -10.8103   43.1474   -0.6599 C   0  0  0  0  0  0  0  0  0  0  0  0
   -9.2237   44.1153    1.0099 C   0  0  0  0  0  0  0  0  0  0  0  0
   -8.0054   44.7699    0.8260 N   0  0  0  0  0  0  0  0  0  0  0  0
   -9.9972   44.3331    1.9467 O   0  0  0  0  0  0  0  0  0  0  0  0
   -7.4246   44.4934    0.0807 H   0  0  0  0  0  0  0  0  0  0  0  0
   -7.5655   45.8445    1.6963 C   0  0  0  0  0  0  0  0  0  0  0  0
   -6.9106   46.9203   -0.5131 C   0  0  0  0  0  0  0  0  0  0  0  0
   -5.8562   47.7214    1.4665 C   0  0  0  0  0  0  0  0  0  0  0  0
   -6.1826   47.8189   -1.3031 C   0  0  0  0  0  0  0  0  0  0  0  0
   -5.1100   48.6621    0.7406 C   0  0  0  0  0  0  0  0  0  0  0  0
   -6.7631   46.8636    0.8675 C   0  0  0  0  0  0  0  0  0  0  0  0
   -5.3135   48.7147   -0.6290 C   0  0  0  0  0  0  0  0  0  0  0  0
   -3.3330   50.1502   -0.9643 C   0  0  0  0  0  0  0  0  0  0  0  0
   -4.5925   49.6178   -1.4278 O   0  0  0  0  0  0  0  0  0  0  0  0
   -7.1759   45.7816    4.1522 C   0  0  0  0  0  0  0  0  0  0  0  0
   -5.9963   44.1543    2.8887 C   0  0  0  0  0  0  0  0  0  0  0  0
   -6.5956   45.2375    5.2960 C   0  0  0  0  0  0  0  0  0  0  0  0
   -5.3550   43.5978    4.0220 C   0  0  0  0  0  0  0  0  0  0  0  0
   -6.8678   45.2377    2.9112 C   0  0  0  0  0  0  0  0  0  0  0  0
   -5.7026   44.1737    5.2291 C   0  0  0  0  0  0  0  0  0  0  0  0
   -5.2331   44.7689    7.4476 C   0  0  0  0  0  0  0  0  0  0  0  0
   -5.1819   43.7482    6.4510 O   0  0  0  0  0  0  0  0  0  0  0  0
  -11.7809   44.2682   -0.4833 C   0  0  0  0  0  0  0  0  0  0  0  0
  -11.5064   45.5062   -1.3235 N   0  0  0  0  0  0  0  0  0  0  0  0
  -12.1614   46.8428   -0.8374 C   0  0  0  0  0  0  0  0  0  0  0  0
  -10.3628   48.5363   -1.6338 C   0  0  0  0  0  0  0  0  0  0  0  0
   -9.3437   49.5077   -1.3751 C   0  0  0  0  0  0  0  0  0  0  0  0
  -10.7499   48.1457    0.7532 C   0  0  0  0  0  0  0  0  0  0  0  0
  -11.0633   47.8673   -0.5914 C   0  0  0  0  0  0  0  0  0  0  0  0
   -9.0574   49.7247   -0.0489 C   0  0  0  0  0  0  0  0  0  0  0  0
   -9.7432   49.0877    0.9703 C   0  0  0  0  0  0  0  0  0  0  0  0
   -8.3032   50.4571    1.8784 C   0  0  0  0  0  0  0  0  0  0  0  0
   -8.1240   50.5789    0.4540 O   0  0  0  0  0  0  0  0  0  0  0  0
   -9.2874   49.4659    2.2397 O   0  0  0  0  0  0  0  0  0  0  0  0
  -11.4595   47.5643    1.9553 C   0  0  0  0  0  0  0  0  0  0  0  0
  -10.7244   46.8524    2.7128 O   0  0  0  0  0  0  0  0  0  0  0  0
  -12.6481   47.8439    2.3158 O   0  0  0  0  0  0  0  0  0  0  0  0
   -9.8487   46.6429    2.4535 H   0  0  0  0  0  0  0  0  0  0  0  0
  -11.8829   45.2090   -2.7427 C   0  0  0  0  0  0  0  0  0  0  0  0
  -14.3049   45.2042   -3.2671 C   0  0  0  0  0  0  0  0  0  0  0  0
  -13.1918   44.5065   -2.9789 C   0  0  0  0  0  0  0  0  0  0  0  0
  1  2  1  0  0  0
  1  3  2  0  0  0
  2  4  2  0  0  0
  3  5  1  0  0  0
  4  6  1  0  0  0
 31 32  1  0  0  0
 31 34  2  0  0  0
 12 14  1  0  0  0
 12 16  2  0  0  0
 13 15  2  0  0  0
 13 16  1  0  0  0
 20 22  1  0  0  0
 20 24  2  0  0  0
 21 23  2  0  0  0
 21 24  1  0  0  0
 32 35  2  0  0  0
 14 17  2  0  0  0
 15 17  1  0  0  0
 22 25  2  0  0  0
 23 25  1  0  0  0
  5  6  2  0  0  0
  5  7  1  0  0  0
 33 34  1  0  0  0
 33 36  2  0  0  0
 33 40  1  0  0  0
 16 11  1  0  0  0
 24 11  1  0  0  0
  6 28  1  0  0  0
 34 30  1  0  0  0
 35 36  1  0  0  0
 35 38  1  0  0  0
 36 39  1  0  0  0
 17 19  1  0  0  0
 25 27  1  0  0  0
 45 46  2  0  0  0
 46 44  1  0  0  0
  7  8  1  0  0  0
  7  9  2  0  0  0
 40 41  1  0  0  0
 40 42  2  0  0  0
 37 38  1  0  0  0
 37 39  1  0  0  0
 18 19  1  0  0  0
 26 27  1  0  0  0
 28 29  1  0  0  0
 30 29  1  0  0  0
 44 29  1  0  0  0
 11  8  1  0  0  0
  8 10  1  0  0  0
 41 43  1  0  0  0
M  END
> <minimizedAffinity>
-8.04472

$$$$
3ZSO_O2N_A_1219


 46 50  0  0  0  0  0  0  0  0999 V2000
   -8.6434   40.4797    0.3402 C   0  0  0  0  0  0  0  0  0  0  0  0
   -9.4410   40.7080   -0.7590 C   0  0  0  0  0  0  0  0  0  0  0  0
   -7.9533   41.5622    0.8713 C   0  0  0  0  0  0  0  0  0  0  0  0
   -9.5733   41.9666   -1.3239 C   0  0  0  0  0  0  0  0  0  0  0  0
   -8.0694   42.8260    0.3204 C   0  0  0  0  0  0  0  0  0  0  0  0
   -8.8862   43.0388   -0.7892 C   0  0  0  0  0  0  0  0  0  0  0  0
   -7.3351   43.9472    0.9462 C   0  0  0  0  0  0  0  0  0  0  0  0
   -8.0358   45.1243    1.2104 N   0  0  0  0  0  0  0  0  0  0  0  0
   -6.1337   43.7847    1.1774 O   0  0  0  0  0  0  0  0  0  0  0  0
   -8.9811   45.1856    0.9422 H   0  0  0  0  0  0  0  0  0  0  0  0
   -7.4183   46.2614    1.8673 C   0  0  0  0  0  0  0  0  0  0  0  0
   -9.7843   47.0592    2.3504 C   0  0  0  0  0  0  0  0  0  0  0  0
   -8.1092   47.5007    3.9849 C   0  0  0  0  0  0  0  0  0  0  0  0
  -10.7582   47.6965    3.1296 C   0  0  0  0  0  0  0  0  0  0  0  0
   -9.0361   48.1332    4.8272 C   0  0  0  0  0  0  0  0  0  0  0  0
   -8.4626   46.9490    2.7650 C   0  0  0  0  0  0  0  0  0  0  0  0
  -10.3519   48.1888    4.3963 C   0  0  0  0  0  0  0  0  0  0  0  0
  -11.2800   50.2453    5.3989 C   0  0  0  0  0  0  0  0  0  0  0  0
  -11.3362   48.8200    5.1749 O   0  0  0  0  0  0  0  0  0  0  0  0
   -7.4722   47.4304   -0.3275 C   0  0  0  0  0  0  0  0  0  0  0  0
   -5.4655   47.6831    0.9155 C   0  0  0  0  0  0  0  0  0  0  0  0
   -6.9087   48.2496   -1.3035 C   0  0  0  0  0  0  0  0  0  0  0  0
   -4.8417   48.4864   -0.0698 C   0  0  0  0  0  0  0  0  0  0  0  0
   -6.7358   47.1272    0.8112 C   0  0  0  0  0  0  0  0  0  0  0  0
   -5.6215   48.7603   -1.1772 C   0  0  0  0  0  0  0  0  0  0  0  0
   -4.9395   50.8983   -1.8557 C   0  0  0  0  0  0  0  0  0  0  0  0
   -5.1790   49.5451   -2.2419 O   0  0  0  0  0  0  0  0  0  0  0  0
   -9.0732   44.3807   -1.4168 C   0  0  0  0  0  0  0  0  0  0  0  0
  -10.5180   44.7937   -1.6531 N   0  0  0  0  0  0  0  0  0  0  0  0
  -11.3487   45.1942   -0.3877 C   0  0  0  0  0  0  0  0  0  0  0  0
  -10.7722   47.6579   -0.9665 C   0  0  0  0  0  0  0  0  0  0  0  0
  -11.1085   49.0474   -1.0403 C   0  0  0  0  0  0  0  0  0  0  0  0
  -12.9456   47.0705   -0.0013 C   0  0  0  0  0  0  0  0  0  0  0  0
  -11.6738   46.6790   -0.4627 C   0  0  0  0  0  0  0  0  0  0  0  0
  -12.3496   49.3813   -0.5546 C   0  0  0  0  0  0  0  0  0  0  0  0
  -13.2366   48.4334   -0.0753 C   0  0  0  0  0  0  0  0  0  0  0  0
  -14.2147   50.3846    0.0239 C   0  0  0  0  0  0  0  0  0  0  0  0
  -12.8937   50.6281   -0.4970 O   0  0  0  0  0  0  0  0  0  0  0  0
  -14.4409   49.0002    0.3614 O   0  0  0  0  0  0  0  0  0  0  0  0
  -14.0245   46.1323    0.4910 C   0  0  0  0  0  0  0  0  0  0  0  0
  -14.2209   46.1624    1.7486 O   0  0  0  0  0  0  0  0  0  0  0  0
  -14.8059   45.4541   -0.2507 O   0  0  0  0  0  0  0  0  0  0  0  0
  -13.6496   46.6596    2.3002 H   0  0  0  0  0  0  0  0  0  0  0  0
  -11.2024   43.7055   -2.4222 C   0  0  0  0  0  0  0  0  0  0  0  0
  -13.4129   44.5785   -3.1241 C   0  0  0  0  0  0  0  0  0  0  0  0
  -12.7063   43.6873   -2.4063 C   0  0  0  0  0  0  0  0  0  0  0  0
  1  2  1  0  0  0
  1  3  2  0  0  0
  2  4  2  0  0  0
  3  5  1  0  0  0
  4  6  1  0  0  0
 31 32  1  0  0  0
 31 34  2  0  0  0
 12 14  1  0  0  0
 12 16  2  0  0  0
 13 15  2  0  0  0
 13 16  1  0  0  0
 20 22  1  0  0  0
 20 24  2  0  0  0
 21 23  2  0  0  0
 21 24  1  0  0  0
 32 35  2  0  0  0
 14 17  2  0  0  0
 15 17  1  0  0  0
 22 25  2  0  0  0
 23 25  1  0  0  0
  5  6  2  0  0  0
  5  7  1  0  0  0
 33 34  1  0  0  0
 33 36  2  0  0  0
 33 40  1  0  0  0
 16 11  1  0  0  0
 24 11  1  0  0  0
  6 28  1  0  0  0
 34 30  1  0  0  0
 35 36  1  0  0  0
 35 38  1  0  0  0
 36 39  1  0  0  0
 17 19  1  0  0  0
 25 27  1  0  0  0
 45 46  2  0  0  0
 46 44  1  0  0  0
  7  8  1  0  0  0
  7  9  2  0  0  0
 40 41  1  0  0  0
 40 42  2  0  0  0
 37 38  1  0  0  0
 37 39  1  0  0  0
 18 19  1  0  0  0
 26 27  1  0  0  0
 28 29  1  0  0  0
 30 29  1  0  0  0
 44 29  1  0  0  0
 11  8  1  0  0  0
  8 10  1  0  0  0
 41 43  1  0  0  0
M  END
> <minimizedAffinity>
-7.97875

$$$$
3ZSO_O2N_A_1219


 46 50  0  0  0  0  0  0  0  0999 V2000
   -9.7582   41.2490   -1.7256 C   0  0  0  0  0  0  0  0  0  0  0  0
  -11.1306   41.3552   -1.7665 C   0  0  0  0  0  0  0  0  0  0  0  0
   -9.0426   42.3331   -1.2330 C   0  0  0  0  0  0  0  0  0  0  0  0
  -11.7947   42.4894   -1.3269 C   0  0  0  0  0  0  0  0  0  0  0  0
   -9.6863   43.4756   -0.7919 C   0  0  0  0  0  0  0  0  0  0  0  0
  -11.0770   43.5625   -0.8359 C   0  0  0  0  0  0  0  0  0  0  0  0
   -8.8750   44.5870   -0.2492 C   0  0  0  0  0  0  0  0  0  0  0  0
   -8.9721   44.8651    1.1146 N   0  0  0  0  0  0  0  0  0  0  0  0
   -8.1742   45.2226   -1.0417 O   0  0  0  0  0  0  0  0  0  0  0  0
   -9.5991   44.3410    1.6635 H   0  0  0  0  0  0  0  0  0  0  0  0
   -8.1798   45.9010    1.7511 C   0  0  0  0  0  0  0  0  0  0  0  0
   -7.4452   43.9120    3.1553 C   0  0  0  0  0  0  0  0  0  0  0  0
   -6.4963   46.0373    3.6601 C   0  0  0  0  0  0  0  0  0  0  0  0
   -6.7158   43.3056    4.1859 C   0  0  0  0  0  0  0  0  0  0  0  0
   -5.7189   45.4934    4.6938 C   0  0  0  0  0  0  0  0  0  0  0  0
   -7.3425   45.2697    2.8779 C   0  0  0  0  0  0  0  0  0  0  0  0
   -5.8196   44.1292    4.9144 C   0  0  0  0  0  0  0  0  0  0  0  0
   -3.8786   44.1262    6.4402 C   0  0  0  0  0  0  0  0  0  0  0  0
   -5.0864   43.5119    5.9415 O   0  0  0  0  0  0  0  0  0  0  0  0
   -8.5473   48.3303    2.1390 C   0  0  0  0  0  0  0  0  0  0  0  0
  -10.4559   46.9489    2.4311 C   0  0  0  0  0  0  0  0  0  0  0  0
   -9.3561   49.4224    2.4460 C   0  0  0  0  0  0  0  0  0  0  0  0
  -11.3023   48.0271    2.7868 C   0  0  0  0  0  0  0  0  0  0  0  0
   -9.1009   47.0558    2.1370 C   0  0  0  0  0  0  0  0  0  0  0  0
  -10.7006   49.2710    2.7668 C   0  0  0  0  0  0  0  0  0  0  0  0
  -12.4349   50.2356    4.0150 C   0  0  0  0  0  0  0  0  0  0  0  0
  -11.3813   50.4484    3.0758 O   0  0  0  0  0  0  0  0  0  0  0  0
  -11.8335   44.7565   -0.3545 C   0  0  0  0  0  0  0  0  0  0  0  0
  -11.9042   45.9204   -1.3315 N   0  0  0  0  0  0  0  0  0  0  0  0
  -12.5054   47.2589   -0.7850 C   0  0  0  0  0  0  0  0  0  0  0  0
  -10.1134   48.1180   -1.3119 C   0  0  0  0  0  0  0  0  0  0  0  0
   -9.1508   49.1702   -1.4364 C   0  0  0  0  0  0  0  0  0  0  0  0
  -11.8760   49.6654   -0.6054 C   0  0  0  0  0  0  0  0  0  0  0  0
  -11.4577   48.3555   -0.9101 C   0  0  0  0  0  0  0  0  0  0  0  0
   -9.6008   50.4249   -1.1034 C   0  0  0  0  0  0  0  0  0  0  0  0
  -10.9098   50.6655   -0.7245 C   0  0  0  0  0  0  0  0  0  0  0  0
   -9.8540   52.5781   -0.7576 C   0  0  0  0  0  0  0  0  0  0  0  0
   -8.8803   51.5801   -1.1207 O   0  0  0  0  0  0  0  0  0  0  0  0
  -11.1440   52.0165   -0.4378 O   0  0  0  0  0  0  0  0  0  0  0  0
  -13.2855   50.0701   -0.2364 C   0  0  0  0  0  0  0  0  0  0  0  0
  -13.9253   50.6683   -1.1604 O   0  0  0  0  0  0  0  0  0  0  0  0
  -13.8899   49.7412    0.8347 O   0  0  0  0  0  0  0  0  0  0  0  0
  -13.4864   50.9131   -1.9512 H   0  0  0  0  0  0  0  0  0  0  0  0
  -12.6336   45.4656   -2.5584 C   0  0  0  0  0  0  0  0  0  0  0  0
  -14.8154   44.7220   -3.4684 C   0  0  0  0  0  0  0  0  0  0  0  0
  -14.1061   45.1889   -2.4255 C   0  0  0  0  0  0  0  0  0  0  0  0
  1  2  1  0  0  0
  1  3  2  0  0  0
  2  4  2  0  0  0
  3  5  1  0  0  0
  4  6  1  0  0  0
 31 32  1  0  0  0
 31 34  2  0  0  0
 12 14  1  0  0  0
 12 16  2  0  0  0
 13 15  2  0  0  0
 13 16  1  0  0  0
 20 22  1  0  0  0
 20 24  2  0  0  0
 21 23  2  0  0  0
 21 24  1  0  0  0
 32 35  2  0  0  0
 14 17  2  0  0  0
 15 17  1  0  0  0
 22 25  2  0  0  0
 23 25  1  0  0  0
  5  6  2  0  0  0
  5  7  1  0  0  0
 33 34  1  0  0  0
 33 36  2  0  0  0
 33 40  1  0  0  0
 16 11  1  0  0  0
 24 11  1  0  0  0
  6 28  1  0  0  0
 34 30  1  0  0  0
 35 36  1  0  0  0
 35 38  1  0  0  0
 36 39  1  0  0  0
 17 19  1  0  0  0
 25 27  1  0  0  0
 45 46  2  0  0  0
 46 44  1  0  0  0
  7  8  1  0  0  0
  7  9  2  0  0  0
 40 41  1  0  0  0
 40 42  2  0  0  0
 37 38  1  0  0  0
 37 39  1  0  0  0
 18 19  1  0  0  0
 26 27  1  0  0  0
 28 29  1  0  0  0
 30 29  1  0  0  0
 44 29  1  0  0  0
 11  8  1  0  0  0
  8 10  1  0  0  0
 41 43  1  0  0  0
M  END
> <minimizedAffinity>
-7.94411

$$$$
3ZSO_O2N_A_1219


 46 50  0  0  0  0  0  0  0  0999 V2000
   -9.6135   51.2483    2.7829 C   0  0  0  0  0  0  0  0  0  0  0  0
  -10.8939   50.8594    2.4578 C   0  0  0  0  0  0  0  0  0  0  0  0
   -8.6798   50.2494    3.0290 C   0  0  0  0  0  0  0  0  0  0  0  0
  -11.2565   49.5251    2.3634 C   0  0  0  0  0  0  0  0  0  0  0  0
   -9.0222   48.9117    2.9429 C   0  0  0  0  0  0  0  0  0  0  0  0
  -10.3224   48.5372    2.6069 C   0  0  0  0  0  0  0  0  0  0  0  0
   -7.9792   47.8913    3.1857 C   0  0  0  0  0  0  0  0  0  0  0  0
   -7.2252   47.4518    2.0972 N   0  0  0  0  0  0  0  0  0  0  0  0
   -7.8517   47.4679    4.3380 O   0  0  0  0  0  0  0  0  0  0  0  0
   -7.4321   47.8047    1.2017 H   0  0  0  0  0  0  0  0  0  0  0  0
   -6.1462   46.4921    2.2406 C   0  0  0  0  0  0  0  0  0  0  0  0
   -4.9260   48.0535    0.6466 C   0  0  0  0  0  0  0  0  0  0  0  0
   -3.6092   46.6752    2.0745 C   0  0  0  0  0  0  0  0  0  0  0  0
   -3.7769   48.6087    0.0694 C   0  0  0  0  0  0  0  0  0  0  0  0
   -2.4168   47.2037    1.5574 C   0  0  0  0  0  0  0  0  0  0  0  0
   -4.8587   47.0940    1.6495 C   0  0  0  0  0  0  0  0  0  0  0  0
   -2.5254   48.1864    0.5866 C   0  0  0  0  0  0  0  0  0  0  0  0
   -0.9919   48.3955   -1.3370 C   0  0  0  0  0  0  0  0  0  0  0  0
   -1.3779   48.7533    0.0074 O   0  0  0  0  0  0  0  0  0  0  0  0
   -6.1080   44.0055    2.2880 C   0  0  0  0  0  0  0  0  0  0  0  0
   -7.5188   44.9742    0.6428 C   0  0  0  0  0  0  0  0  0  0  0  0
   -6.5268   42.7560    1.8358 C   0  0  0  0  0  0  0  0  0  0  0  0
   -7.9393   43.7240    0.1274 C   0  0  0  0  0  0  0  0  0  0  0  0
   -6.6053   45.1498    1.6764 C   0  0  0  0  0  0  0  0  0  0  0  0
   -7.4179   42.6213    0.7768 C   0  0  0  0  0  0  0  0  0  0  0  0
   -8.9597   41.2232   -0.3024 C   0  0  0  0  0  0  0  0  0  0  0  0
   -7.7295   41.3105    0.4164 O   0  0  0  0  0  0  0  0  0  0  0  0
  -10.7507   47.1129    2.4746 C   0  0  0  0  0  0  0  0  0  0  0  0
  -11.1489   46.6801    1.0718 N   0  0  0  0  0  0  0  0  0  0  0  0
  -11.5517   45.1780    0.8894 C   0  0  0  0  0  0  0  0  0  0  0  0
  -11.7224   44.3809   -1.5749 C   0  0  0  0  0  0  0  0  0  0  0  0
  -12.4385   44.2346   -2.8058 C   0  0  0  0  0  0  0  0  0  0  0  0
  -13.5866   45.5537   -0.5027 C   0  0  0  0  0  0  0  0  0  0  0  0
  -12.2838   45.0228   -0.4358 C   0  0  0  0  0  0  0  0  0  0  0  0
  -13.6944   44.7914   -2.8284 C   0  0  0  0  0  0  0  0  0  0  0  0
  -14.2518   45.4056   -1.7207 C   0  0  0  0  0  0  0  0  0  0  0  0
  -15.7307   45.4417   -3.3286 C   0  0  0  0  0  0  0  0  0  0  0  0
  -14.5621   44.8023   -3.8776 O   0  0  0  0  0  0  0  0  0  0  0  0
  -15.5405   45.8941   -1.9717 O   0  0  0  0  0  0  0  0  0  0  0  0
  -14.3300   46.1952    0.6472 C   0  0  0  0  0  0  0  0  0  0  0  0
  -14.5710   47.4364    0.4972 O   0  0  0  0  0  0  0  0  0  0  0  0
  -14.8293   45.5740    1.6399 O   0  0  0  0  0  0  0  0  0  0  0  0
  -14.2066   47.8996   -0.2313 H   0  0  0  0  0  0  0  0  0  0  0  0
  -10.0486   47.0592    0.1285 C   0  0  0  0  0  0  0  0  0  0  0  0
  -11.5421   48.6884   -0.9926 C   0  0  0  0  0  0  0  0  0  0  0  0
  -10.3978   47.9818   -1.0070 C   0  0  0  0  0  0  0  0  0  0  0  0
  1  2  1  0  0  0
  1  3  2  0  0  0
  2  4  2  0  0  0
  3  5  1  0  0  0
  4  6  1  0  0  0
 31 32  1  0  0  0
 31 34  2  0  0  0
 12 14  1  0  0  0
 12 16  2  0  0  0
 13 15  2  0  0  0
 13 16  1  0  0  0
 20 22  1  0  0  0
 20 24  2  0  0  0
 21 23  2  0  0  0
 21 24  1  0  0  0
 32 35  2  0  0  0
 14 17  2  0  0  0
 15 17  1  0  0  0
 22 25  2  0  0  0
 23 25  1  0  0  0
  5  6  2  0  0  0
  5  7  1  0  0  0
 33 34  1  0  0  0
 33 36  2  0  0  0
 33 40  1  0  0  0
 16 11  1  0  0  0
 24 11  1  0  0  0
  6 28  1  0  0  0
 34 30  1  0  0  0
 35 36  1  0  0  0
 35 38  1  0  0  0
 36 39  1  0  0  0
 17 19  1  0  0  0
 25 27  1  0  0  0
 45 46  2  0  0  0
 46 44  1  0  0  0
  7  8  1  0  0  0
  7  9  2  0  0  0
 40 41  1  0  0  0
 40 42  2  0  0  0
 37 38  1  0  0  0
 37 39  1  0  0  0
 18 19  1  0  0  0
 26 27  1  0  0  0
 28 29  1  0  0  0
 30 29  1  0  0  0
 44 29  1  0  0  0
 11  8  1  0  0  0
  8 10  1  0  0  0
 41 43  1  0  0  0
M  END
> <minimizedAffinity>
-7.68755

$$$$
3ZSO_O2N_A_1219


 46 50  0  0  0  0  0  0  0  0999 V2000
  -11.1458   50.8677   -0.8897 C   0  0  0  0  0  0  0  0  0  0  0  0
   -9.7827   50.7395   -1.0379 C   0  0  0  0  0  0  0  0  0  0  0  0
  -11.8781   49.7136   -0.6411 C   0  0  0  0  0  0  0  0  0  0  0  0
   -9.1431   49.5143   -0.9356 C   0  0  0  0  0  0  0  0  0  0  0  0
  -11.2591   48.4805   -0.5383 C   0  0  0  0  0  0  0  0  0  0  0  0
   -9.8771   48.3713   -0.6858 C   0  0  0  0  0  0  0  0  0  0  0  0
  -12.0855   47.2900   -0.2424 C   0  0  0  0  0  0  0  0  0  0  0  0
  -12.1908   46.3039   -1.2237 N   0  0  0  0  0  0  0  0  0  0  0  0
  -12.6564   47.2485    0.8511 O   0  0  0  0  0  0  0  0  0  0  0  0
  -11.7448   46.4453   -2.0900 H   0  0  0  0  0  0  0  0  0  0  0  0
  -12.9355   45.0768   -1.0106 C   0  0  0  0  0  0  0  0  0  0  0  0
  -12.3136   42.7304   -1.7693 C   0  0  0  0  0  0  0  0  0  0  0  0
  -10.7425   43.9155   -0.4277 C   0  0  0  0  0  0  0  0  0  0  0  0
  -11.4665   41.6169   -1.8346 C   0  0  0  0  0  0  0  0  0  0  0  0
   -9.8349   42.8464   -0.4692 C   0  0  0  0  0  0  0  0  0  0  0  0
  -11.9649   43.8840   -1.0774 C   0  0  0  0  0  0  0  0  0  0  0  0
  -10.2020   41.7289   -1.2015 C   0  0  0  0  0  0  0  0  0  0  0  0
   -8.6734   40.1353   -0.0973 C   0  0  0  0  0  0  0  0  0  0  0  0
   -9.3553   40.6105   -1.2779 O   0  0  0  0  0  0  0  0  0  0  0  0
  -15.3893   44.9428   -1.3947 C   0  0  0  0  0  0  0  0  0  0  0  0
  -14.0618   45.1908   -3.3471 C   0  0  0  0  0  0  0  0  0  0  0  0
  -16.5118   44.9568   -2.2199 C   0  0  0  0  0  0  0  0  0  0  0  0
  -15.1739   45.1696   -4.2237 C   0  0  0  0  0  0  0  0  0  0  0  0
  -14.1271   45.0539   -1.9648 C   0  0  0  0  0  0  0  0  0  0  0  0
  -16.4034   45.0629   -3.6021 C   0  0  0  0  0  0  0  0  0  0  0  0
  -17.6256   45.9706   -5.3850 C   0  0  0  0  0  0  0  0  0  0  0  0
  -17.6088   45.0395   -4.3032 O   0  0  0  0  0  0  0  0  0  0  0  0
   -9.1455   47.0754   -0.5636 C   0  0  0  0  0  0  0  0  0  0  0  0
   -8.2794   46.9309    0.6785 N   0  0  0  0  0  0  0  0  0  0  0  0
   -7.3537   45.6697    0.7450 C   0  0  0  0  0  0  0  0  0  0  0  0
   -5.4341   47.0936    1.7574 C   0  0  0  0  0  0  0  0  0  0  0  0
   -4.4086   47.3169    2.7309 C   0  0  0  0  0  0  0  0  0  0  0  0
   -6.0434   44.9316    2.7345 C   0  0  0  0  0  0  0  0  0  0  0  0
   -6.2466   45.9254    1.7574 C   0  0  0  0  0  0  0  0  0  0  0  0
   -4.2329   46.3072    3.6460 C   0  0  0  0  0  0  0  0  0  0  0  0
   -5.0276   45.1745    3.6603 C   0  0  0  0  0  0  0  0  0  0  0  0
   -3.6264   45.0373    5.3311 C   0  0  0  0  0  0  0  0  0  0  0  0
   -3.3183   46.2712    4.6540 O   0  0  0  0  0  0  0  0  0  0  0  0
   -4.6725   44.2847    4.6822 O   0  0  0  0  0  0  0  0  0  0  0  0
   -6.8760   43.6795    2.8952 C   0  0  0  0  0  0  0  0  0  0  0  0
   -7.7287   43.7266    3.8394 O   0  0  0  0  0  0  0  0  0  0  0  0
   -6.8764   42.6875    2.0973 O   0  0  0  0  0  0  0  0  0  0  0  0
   -7.7339   44.4539    4.4302 H   0  0  0  0  0  0  0  0  0  0  0  0
   -9.1636   47.0120    1.8851 C   0  0  0  0  0  0  0  0  0  0  0  0
  -10.1096   49.0072    3.0102 C   0  0  0  0  0  0  0  0  0  0  0  0
   -9.0395   48.2341    2.7532 C   0  0  0  0  0  0  0  0  0  0  0  0
  1  2  1  0  0  0
  1  3  2  0  0  0
  2  4  2  0  0  0
  3  5  1  0  0  0
  4  6  1  0  0  0
 31 32  1  0  0  0
 31 34  2  0  0  0
 12 14  1  0  0  0
 12 16  2  0  0  0
 13 15  2  0  0  0
 13 16  1  0  0  0
 20 22  1  0  0  0
 20 24  2  0  0  0
 21 23  2  0  0  0
 21 24  1  0  0  0
 32 35  2  0  0  0
 14 17  2  0  0  0
 15 17  1  0  0  0
 22 25  2  0  0  0
 23 25  1  0  0  0
  5  6  2  0  0  0
  5  7  1  0  0  0
 33 34  1  0  0  0
 33 36  2  0  0  0
 33 40  1  0  0  0
 16 11  1  0  0  0
 24 11  1  0  0  0
  6 28  1  0  0  0
 34 30  1  0  0  0
 35 36  1  0  0  0
 35 38  1  0  0  0
 36 39  1  0  0  0
 17 19  1  0  0  0
 25 27  1  0  0  0
 45 46  2  0  0  0
 46 44  1  0  0  0
  7  8  1  0  0  0
  7  9  2  0  0  0
 40 41  1  0  0  0
 40 42  2  0  0  0
 37 38  1  0  0  0
 37 39  1  0  0  0
 18 19  1  0  0  0
 26 27  1  0  0  0
 28 29  1  0  0  0
 30 29  1  0  0  0
 44 29  1  0  0  0
 11  8  1  0  0  0
  8 10  1  0  0  0
 41 43  1  0  0  0
M  END
> <minimizedAffinity>
-7.60427

$$$$
3ZSO_O2N_A_1219


 46 50  0  0  0  0  0  0  0  0999 V2000
  -11.7116   48.6248    3.2453 C   0  0  0  0  0  0  0  0  0  0  0  0
  -10.4871   48.6663    3.8740 C   0  0  0  0  0  0  0  0  0  0  0  0
  -11.7566   48.1087    1.9561 C   0  0  0  0  0  0  0  0  0  0  0  0
   -9.3308   48.2051    3.2650 C   0  0  0  0  0  0  0  0  0  0  0  0
  -10.6134   47.6459    1.3294 C   0  0  0  0  0  0  0  0  0  0  0  0
   -9.3833   47.6910    1.9841 C   0  0  0  0  0  0  0  0  0  0  0  0
  -10.7260   47.0790   -0.0322 C   0  0  0  0  0  0  0  0  0  0  0  0
  -11.2628   45.7983   -0.1674 N   0  0  0  0  0  0  0  0  0  0  0  0
  -10.3145   47.7648   -0.9722 O   0  0  0  0  0  0  0  0  0  0  0  0
  -11.5153   45.3003    0.6435 H   0  0  0  0  0  0  0  0  0  0  0  0
  -11.4614   45.1756   -1.4629 C   0  0  0  0  0  0  0  0  0  0  0  0
  -13.8947   45.6619   -0.9060 C   0  0  0  0  0  0  0  0  0  0  0  0
  -13.3781   44.9966   -3.1337 C   0  0  0  0  0  0  0  0  0  0  0  0
  -15.2573   45.7564   -1.2159 C   0  0  0  0  0  0  0  0  0  0  0  0
  -14.7234   45.0918   -3.5205 C   0  0  0  0  0  0  0  0  0  0  0  0
  -12.9464   45.2902   -1.8513 C   0  0  0  0  0  0  0  0  0  0  0  0
  -15.6334   45.5032   -2.5600 C   0  0  0  0  0  0  0  0  0  0  0  0
  -17.4285   46.3151   -4.0480 C   0  0  0  0  0  0  0  0  0  0  0  0
  -17.0009   45.6072   -2.8644 O   0  0  0  0  0  0  0  0  0  0  0  0
   -9.5420   43.6607   -1.0070 C   0  0  0  0  0  0  0  0  0  0  0  0
  -11.5350   42.5944   -1.7326 C   0  0  0  0  0  0  0  0  0  0  0  0
   -8.9598   42.3978   -0.9219 C   0  0  0  0  0  0  0  0  0  0  0  0
  -10.9688   41.2968   -1.6978 C   0  0  0  0  0  0  0  0  0  0  0  0
  -10.8608   43.7723   -1.4302 C   0  0  0  0  0  0  0  0  0  0  0  0
   -9.6577   41.2449   -1.2646 C   0  0  0  0  0  0  0  0  0  0  0  0
   -8.4573   39.8326    0.1709 C   0  0  0  0  0  0  0  0  0  0  0  0
   -8.9415   40.0533   -1.1536 O   0  0  0  0  0  0  0  0  0  0  0  0
   -8.1173   47.1870    1.3735 C   0  0  0  0  0  0  0  0  0  0  0  0
   -7.3194   46.2190    2.2338 N   0  0  0  0  0  0  0  0  0  0  0  0
   -5.9735   46.7547    2.8281 C   0  0  0  0  0  0  0  0  0  0  0  0
   -6.6956   46.1533    5.2476 C   0  0  0  0  0  0  0  0  0  0  0  0
   -6.4634   45.5267    6.5136 C   0  0  0  0  0  0  0  0  0  0  0  0
   -4.5192   45.4457    4.3744 C   0  0  0  0  0  0  0  0  0  0  0  0
   -5.7462   46.1115    4.1885 C   0  0  0  0  0  0  0  0  0  0  0  0
   -5.2422   44.9128    6.6536 C   0  0  0  0  0  0  0  0  0  0  0  0
   -4.3193   44.8569    5.6240 C   0  0  0  0  0  0  0  0  0  0  0  0
   -3.4972   43.7638    7.3278 C   0  0  0  0  0  0  0  0  0  0  0  0
   -4.7770   44.2665    7.7580 O   0  0  0  0  0  0  0  0  0  0  0  0
   -3.1501   44.1778    5.9898 O   0  0  0  0  0  0  0  0  0  0  0  0
   -3.4538   45.2631    3.3169 C   0  0  0  0  0  0  0  0  0  0  0  0
   -2.3897   45.9338    3.5140 O   0  0  0  0  0  0  0  0  0  0  0  0
   -3.4958   44.4163    2.3673 O   0  0  0  0  0  0  0  0  0  0  0  0
   -2.3522   46.5587    4.2111 H   0  0  0  0  0  0  0  0  0  0  0  0
   -7.0977   44.9612    1.4509 C   0  0  0  0  0  0  0  0  0  0  0  0
   -6.6260   42.8903    2.7277 C   0  0  0  0  0  0  0  0  0  0  0  0
   -7.5196   43.6657    2.0883 C   0  0  0  0  0  0  0  0  0  0  0  0
  1  2  1  0  0  0
  1  3  2  0  0  0
  2  4  2  0  0  0
  3  5  1  0  0  0
  4  6  1  0  0  0
 31 32  1  0  0  0
 31 34  2  0  0  0
 12 14  1  0  0  0
 12 16  2  0  0  0
 13 15  2  0  0  0
 13 16  1  0  0  0
 20 22  1  0  0  0
 20 24  2  0  0  0
 21 23  2  0  0  0
 21 24  1  0  0  0
 32 35  2  0  0  0
 14 17  2  0  0  0
 15 17  1  0  0  0
 22 25  2  0  0  0
 23 25  1  0  0  0
  5  6  2  0  0  0
  5  7  1  0  0  0
 33 34  1  0  0  0
 33 36  2  0  0  0
 33 40  1  0  0  0
 16 11  1  0  0  0
 24 11  1  0  0  0
  6 28  1  0  0  0
 34 30  1  0  0  0
 35 36  1  0  0  0
 35 38  1  0  0  0
 36 39  1  0  0  0
 17 19  1  0  0  0
 25 27  1  0  0  0
 45 46  2  0  0  0
 46 44  1  0  0  0
  7  8  1  0  0  0
  7  9  2  0  0  0
 40 41  1  0  0  0
 40 42  2  0  0  0
 37 38  1  0  0  0
 37 39  1  0  0  0
 18 19  1  0  0  0
 26 27  1  0  0  0
 28 29  1  0  0  0
 30 29  1  0  0  0
 44 29  1  0  0  0
 11  8  1  0  0  0
  8 10  1  0  0  0
 41 43  1  0  0  0
M  END
> <minimizedAffinity>
-7.60328

$$$$
