5KBY_6RL_A_1510


 28 30  0  0  0  0  0  0  0  0999 V2000
   44.0517   32.2881   14.4267 C   0  0  0  0  0  0  0  0  0  0  0  0
   43.5058   33.5374   14.6276 C   0  0  0  0  0  0  0  0  0  0  0  0
   42.1048   33.2470   12.7343 C   0  0  0  0  0  0  0  0  0  0  0  0
   42.2020   31.1866   11.3701 C   0  0  0  0  0  0  0  0  0  0  0  0
   42.6374   32.0156   12.5122 N   0  0  0  0  0  0  0  0  0  0  0  0
   43.5903   31.5204   13.3443 C   0  0  0  0  0  0  0  0  0  0  0  0
   44.0526   30.4120   13.1352 O   0  0  0  0  0  0  0  0  0  0  0  0
   42.5078   33.9940   13.7835 N   0  0  0  0  0  0  0  0  0  0  0  0
   41.2282   33.6927   11.9934 O   0  0  0  0  0  0  0  0  0  0  0  0
   45.1123   35.1487   15.2463 C   0  0  0  0  0  0  0  0  0  0  0  0
   45.4998   35.6909   17.6609 C   0  0  0  0  0  0  0  0  0  0  0  0
   43.9375   34.3501   15.6486 N   0  0  0  0  0  0  0  0  0  0  0  0
   45.2701   36.3104   16.2581 C   0  0  0  0  0  0  0  0  0  0  0  0
   44.2913   34.8205   18.0300 C   0  0  0  0  0  0  0  0  0  0  0  0
   43.0769   35.6602   18.0624 N   0  0  0  0  0  0  0  0  0  0  0  0
   44.1387   33.7039   16.9666 C   0  0  0  0  0  0  0  0  0  0  0  0
   42.9336   36.0861   17.1467 H   0  0  0  0  0  0  0  0  0  0  0  0
   43.1881   36.3920   18.7642 H   0  0  0  0  0  0  0  0  0  0  0  0
   41.9172   35.3377   13.9990 C   0  0  0  0  0  0  0  0  0  0  0  0
   40.4021   35.3565   13.9456 C   0  0  0  0  0  0  0  0  0  0  0  0
   37.6068   35.5182   13.7830 C   0  0  0  0  0  0  0  0  0  0  0  0
   38.1786   34.6538   14.6912 C   0  0  0  0  0  0  0  0  0  0  0  0
   39.8109   36.2297   13.0557 C   0  0  0  0  0  0  0  0  0  0  0  0
   38.4297   36.3032   12.9824 C   0  0  0  0  0  0  0  0  0  0  0  0
   37.8694   37.1587   12.1075 F   0  0  0  0  0  0  0  0  0  0  0  0
   39.5843   34.5668   14.7858 C   0  0  0  0  0  0  0  0  0  0  0  0
   40.1110   33.6456   15.7578 C   0  0  0  0  0  0  0  0  0  0  0  0
   40.4897   32.9170   16.5437 N   0  0  0  0  0  0  0  0  0  0  0  0
  4  5  1  0  0  0
  9  3  2  0  0  0
 25 24  1  0  0  0
  5  3  1  0  0  0
  5  6  1  0  0  0
  3  8  1  0  0  0
 23 24  2  0  0  0
 23 20  1  0  0  0
 24 21  1  0  0  0
  7  6  2  0  0  0
  6  1  1  0  0  0
  8 19  1  0  0  0
  8  2  1  0  0  0
 19 20  1  0  0  0
 20 26  2  0  0  0
 21 22  2  0  0  0
  1  2  2  0  0  0
  2 12  1  0  0  0
 26 22  1  0  0  0
 26 27  1  0  0  0
 10 12  1  0  0  0
 10 13  1  0  0  0
 12 16  1  0  0  0
 27 28  3  0  0  0
 13 11  1  0  0  0
 16 14  1  0  0  0
 11 14  1  0  0  0
 14 15  1  0  0  0
 15 17  1  0  0  0
 15 18  1  0  0  0
M  END
> <minimizedAffinity>
-9.73712

$$$$
5KBY_6RL_A_1510


 28 30  0  0  0  0  0  0  0  0999 V2000
   44.2568   35.0239   15.3272 C   0  0  0  0  0  0  0  0  0  0  0  0
   43.1268   34.2465   15.1928 C   0  0  0  0  0  0  0  0  0  0  0  0
   44.2404   32.4219   16.2233 C   0  0  0  0  0  0  0  0  0  0  0  0
   46.5940   32.6055   16.9601 C   0  0  0  0  0  0  0  0  0  0  0  0
   45.3692   33.1684   16.3565 N   0  0  0  0  0  0  0  0  0  0  0  0
   45.3921   34.4586   15.9315 C   0  0  0  0  0  0  0  0  0  0  0  0
   46.4099   35.1163   16.0645 O   0  0  0  0  0  0  0  0  0  0  0  0
   43.1260   32.9481   15.6735 N   0  0  0  0  0  0  0  0  0  0  0  0
   44.2092   31.2577   16.6231 O   0  0  0  0  0  0  0  0  0  0  0  0
   42.2499   35.0832   13.1703 C   0  0  0  0  0  0  0  0  0  0  0  0
   40.0807   36.3356   13.1505 C   0  0  0  0  0  0  0  0  0  0  0  0
   41.9951   34.7306   14.5811 N   0  0  0  0  0  0  0  0  0  0  0  0
   40.8826   35.2062   12.4536 C   0  0  0  0  0  0  0  0  0  0  0  0
   39.8796   35.9717   14.6274 C   0  0  0  0  0  0  0  0  0  0  0  0
   39.1205   34.7083   14.7197 N   0  0  0  0  0  0  0  0  0  0  0  0
   41.2691   35.8080   15.2934 C   0  0  0  0  0  0  0  0  0  0  0  0
   39.6351   33.9669   14.2445 H   0  0  0  0  0  0  0  0  0  0  0  0
   38.2087   34.8264   14.2779 H   0  0  0  0  0  0  0  0  0  0  0  0
   41.9101   32.1101   15.5318 C   0  0  0  0  0  0  0  0  0  0  0  0
   41.9951   31.0920   14.4115 C   0  0  0  0  0  0  0  0  0  0  0  0
   42.1366   29.3153   12.2460 C   0  0  0  0  0  0  0  0  0  0  0  0
   41.8250   28.8276   13.4966 C   0  0  0  0  0  0  0  0  0  0  0  0
   42.2872   31.5639   13.1482 C   0  0  0  0  0  0  0  0  0  0  0  0
   42.3547   30.6793   12.0845 C   0  0  0  0  0  0  0  0  0  0  0  0
   42.6429   31.1561   10.8594 F   0  0  0  0  0  0  0  0  0  0  0  0
   41.7461   29.7124   14.5935 C   0  0  0  0  0  0  0  0  0  0  0  0
   41.4133   29.1338   15.8683 C   0  0  0  0  0  0  0  0  0  0  0  0
   41.1902   28.6652   16.8796 N   0  0  0  0  0  0  0  0  0  0  0  0
  4  5  1  0  0  0
  9  3  2  0  0  0
 25 24  1  0  0  0
  5  3  1  0  0  0
  5  6  1  0  0  0
  3  8  1  0  0  0
 23 24  2  0  0  0
 23 20  1  0  0  0
 24 21  1  0  0  0
  7  6  2  0  0  0
  6  1  1  0  0  0
  8 19  1  0  0  0
  8  2  1  0  0  0
 19 20  1  0  0  0
 20 26  2  0  0  0
 21 22  2  0  0  0
  1  2  2  0  0  0
  2 12  1  0  0  0
 26 22  1  0  0  0
 26 27  1  0  0  0
 10 12  1  0  0  0
 10 13  1  0  0  0
 12 16  1  0  0  0
 27 28  3  0  0  0
 13 11  1  0  0  0
 16 14  1  0  0  0
 11 14  1  0  0  0
 14 15  1  0  0  0
 15 17  1  0  0  0
 15 18  1  0  0  0
M  END
> <minimizedAffinity>
-8.02841

$$$$
5KBY_6RL_A_1510


 28 30  0  0  0  0  0  0  0  0999 V2000
   45.1120   37.5674   17.2438 C   0  0  0  0  0  0  0  0  0  0  0  0
   45.0585   36.1974   17.1049 C   0  0  0  0  0  0  0  0  0  0  0  0
   47.1178   35.9838   18.2647 C   0  0  0  0  0  0  0  0  0  0  0  0
   48.3435   37.9709   19.0800 C   0  0  0  0  0  0  0  0  0  0  0  0
   47.1952   37.3343   18.4038 N   0  0  0  0  0  0  0  0  0  0  0  0
   46.2084   38.1313   17.9174 C   0  0  0  0  0  0  0  0  0  0  0  0
   46.2895   39.3397   18.0564 O   0  0  0  0  0  0  0  0  0  0  0  0
   46.0618   35.4129   17.6482 N   0  0  0  0  0  0  0  0  0  0  0  0
   48.0009   35.2561   18.7196 O   0  0  0  0  0  0  0  0  0  0  0  0
   44.1891   35.7184   14.9662 C   0  0  0  0  0  0  0  0  0  0  0  0
   41.8043   35.0007   14.6983 C   0  0  0  0  0  0  0  0  0  0  0  0
   44.0295   35.5874   16.4280 N   0  0  0  0  0  0  0  0  0  0  0  0
   43.2644   34.6771   14.2888 C   0  0  0  0  0  0  0  0  0  0  0  0
   41.6794   34.9139   16.2250 C   0  0  0  0  0  0  0  0  0  0  0  0
   42.0157   33.5449   16.6652 N   0  0  0  0  0  0  0  0  0  0  0  0
   42.6561   35.9336   16.8632 C   0  0  0  0  0  0  0  0  0  0  0  0
   42.9688   33.3205   16.3796 H   0  0  0  0  0  0  0  0  0  0  0  0
   41.3680   32.8821   16.2391 H   0  0  0  0  0  0  0  0  0  0  0  0
   46.0053   33.9378   17.5019 C   0  0  0  0  0  0  0  0  0  0  0  0
   46.4817   33.4375   16.1521 C   0  0  0  0  0  0  0  0  0  0  0  0
   47.4261   32.6379   13.6353 C   0  0  0  0  0  0  0  0  0  0  0  0
   46.3660   31.9633   14.2011 C   0  0  0  0  0  0  0  0  0  0  0  0
   47.5299   34.1124   15.5609 C   0  0  0  0  0  0  0  0  0  0  0  0
   47.9896   33.7108   14.3176 C   0  0  0  0  0  0  0  0  0  0  0  0
   49.0143   34.3787   13.7562 F   0  0  0  0  0  0  0  0  0  0  0  0
   45.8785   32.3592   15.4651 C   0  0  0  0  0  0  0  0  0  0  0  0
   44.7680   31.6117   15.9929 C   0  0  0  0  0  0  0  0  0  0  0  0
   43.8678   31.0342   16.3776 N   0  0  0  0  0  0  0  0  0  0  0  0
  4  5  1  0  0  0
  9  3  2  0  0  0
 25 24  1  0  0  0
  5  3  1  0  0  0
  5  6  1  0  0  0
  3  8  1  0  0  0
 23 24  2  0  0  0
 23 20  1  0  0  0
 24 21  1  0  0  0
  7  6  2  0  0  0
  6  1  1  0  0  0
  8 19  1  0  0  0
  8  2  1  0  0  0
 19 20  1  0  0  0
 20 26  2  0  0  0
 21 22  2  0  0  0
  1  2  2  0  0  0
  2 12  1  0  0  0
 26 22  1  0  0  0
 26 27  1  0  0  0
 10 12  1  0  0  0
 10 13  1  0  0  0
 12 16  1  0  0  0
 27 28  3  0  0  0
 13 11  1  0  0  0
 16 14  1  0  0  0
 11 14  1  0  0  0
 14 15  1  0  0  0
 15 17  1  0  0  0
 15 18  1  0  0  0
M  END
> <minimizedAffinity>
-8.01541

$$$$
5KBY_6RL_A_1510


 28 30  0  0  0  0  0  0  0  0999 V2000
   42.8195   33.9074   16.9889 C   0  0  0  0  0  0  0  0  0  0  0  0
   44.1619   34.1542   16.7989 C   0  0  0  0  0  0  0  0  0  0  0  0
   43.6661   35.4623   14.8820 C   0  0  0  0  0  0  0  0  0  0  0  0
   41.3386   35.7691   14.1047 C   0  0  0  0  0  0  0  0  0  0  0  0
   42.3375   35.2229   15.0454 N   0  0  0  0  0  0  0  0  0  0  0  0
   41.8999   34.4681   16.0867 C   0  0  0  0  0  0  0  0  0  0  0  0
   40.7050   34.2684   16.2229 O   0  0  0  0  0  0  0  0  0  0  0  0
   44.5696   34.9611   15.7502 N   0  0  0  0  0  0  0  0  0  0  0  0
   44.0663   36.1606   13.9500 O   0  0  0  0  0  0  0  0  0  0  0  0
   45.6082   32.3177   17.1074 C   0  0  0  0  0  0  0  0  0  0  0  0
   46.6287   31.8699   19.3506 C   0  0  0  0  0  0  0  0  0  0  0  0
   45.1131   33.6078   17.6271 N   0  0  0  0  0  0  0  0  0  0  0  0
   46.9344   31.9862   17.8349 C   0  0  0  0  0  0  0  0  0  0  0  0
   46.0621   33.2045   19.8529 C   0  0  0  0  0  0  0  0  0  0  0  0
   47.0616   34.2704   19.6390 N   0  0  0  0  0  0  0  0  0  0  0  0
   44.7665   33.5233   19.0651 C   0  0  0  0  0  0  0  0  0  0  0  0
   47.2809   34.3363   18.6450 H   0  0  0  0  0  0  0  0  0  0  0  0
   47.9101   34.0505   20.1605 H   0  0  0  0  0  0  0  0  0  0  0  0
   46.0139   35.2299   15.5449 C   0  0  0  0  0  0  0  0  0  0  0  0
   46.6246   36.1332   16.5985 C   0  0  0  0  0  0  0  0  0  0  0  0
   47.6533   37.9001   18.5184 C   0  0  0  0  0  0  0  0  0  0  0  0
   48.4604   36.8971   18.0268 C   0  0  0  0  0  0  0  0  0  0  0  0
   45.8381   37.1553   17.0890 C   0  0  0  0  0  0  0  0  0  0  0  0
   46.3545   38.0234   18.0367 C   0  0  0  0  0  0  0  0  0  0  0  0
   45.5731   39.0136   18.5060 F   0  0  0  0  0  0  0  0  0  0  0  0
   47.9557   36.0044   17.0568 C   0  0  0  0  0  0  0  0  0  0  0  0
   48.8552   34.9842   16.5868 C   0  0  0  0  0  0  0  0  0  0  0  0
   49.5329   34.1578   16.2001 N   0  0  0  0  0  0  0  0  0  0  0  0
  4  5  1  0  0  0
  9  3  2  0  0  0
 25 24  1  0  0  0
  5  3  1  0  0  0
  5  6  1  0  0  0
  3  8  1  0  0  0
 23 24  2  0  0  0
 23 20  1  0  0  0
 24 21  1  0  0  0
  7  6  2  0  0  0
  6  1  1  0  0  0
  8 19  1  0  0  0
  8  2  1  0  0  0
 19 20  1  0  0  0
 20 26  2  0  0  0
 21 22  2  0  0  0
  1  2  2  0  0  0
  2 12  1  0  0  0
 26 22  1  0  0  0
 26 27  1  0  0  0
 10 12  1  0  0  0
 10 13  1  0  0  0
 12 16  1  0  0  0
 27 28  3  0  0  0
 13 11  1  0  0  0
 16 14  1  0  0  0
 11 14  1  0  0  0
 14 15  1  0  0  0
 15 17  1  0  0  0
 15 18  1  0  0  0
M  END
> <minimizedAffinity>
-7.96333

$$$$
5KBY_6RL_A_1510


 28 30  0  0  0  0  0  0  0  0999 V2000
   41.4759   29.7712   15.5213 C   0  0  0  0  0  0  0  0  0  0  0  0
   41.8006   30.3850   14.3309 C   0  0  0  0  0  0  0  0  0  0  0  0
   41.1900   28.4274   13.1368 C   0  0  0  0  0  0  0  0  0  0  0  0
   40.3923   26.4034   14.3128 C   0  0  0  0  0  0  0  0  0  0  0  0
   40.8734   27.7996   14.3008 N   0  0  0  0  0  0  0  0  0  0  0  0
   40.9962   28.4512   15.4866 C   0  0  0  0  0  0  0  0  0  0  0  0
   40.7017   27.8765   16.5205 O   0  0  0  0  0  0  0  0  0  0  0  0
   41.6250   29.7048   13.1378 N   0  0  0  0  0  0  0  0  0  0  0  0
   41.0634   27.8470   12.0582 O   0  0  0  0  0  0  0  0  0  0  0  0
   43.6448   31.7316   14.9185 C   0  0  0  0  0  0  0  0  0  0  0  0
   43.4234   34.2256   14.9871 C   0  0  0  0  0  0  0  0  0  0  0  0
   42.3058   31.6629   14.3005 N   0  0  0  0  0  0  0  0  0  0  0  0
   44.3083   33.0592   14.4764 C   0  0  0  0  0  0  0  0  0  0  0  0
   42.0219   34.0984   14.3757 C   0  0  0  0  0  0  0  0  0  0  0  0
   42.1228   34.1730   12.9042 N   0  0  0  0  0  0  0  0  0  0  0  0
   41.4156   32.7370   14.7996 C   0  0  0  0  0  0  0  0  0  0  0  0
   42.7210   33.4193   12.5658 H   0  0  0  0  0  0  0  0  0  0  0  0
   42.5237   35.0717   12.6360 H   0  0  0  0  0  0  0  0  0  0  0  0
   41.9719   30.3642   11.8551 C   0  0  0  0  0  0  0  0  0  0  0  0
   43.2225   29.8108   11.2004 C   0  0  0  0  0  0  0  0  0  0  0  0
   45.6132   28.8702   10.0753 C   0  0  0  0  0  0  0  0  0  0  0  0
   44.4363   28.7230    9.3737 C   0  0  0  0  0  0  0  0  0  0  0  0
   44.4138   29.9658   11.8792 C   0  0  0  0  0  0  0  0  0  0  0  0
   45.5897   29.4986   11.3158 C   0  0  0  0  0  0  0  0  0  0  0  0
   46.7424   29.6560   11.9923 F   0  0  0  0  0  0  0  0  0  0  0  0
   43.2273   29.1965    9.9272 C   0  0  0  0  0  0  0  0  0  0  0  0
   42.0385   29.0116    9.1377 C   0  0  0  0  0  0  0  0  0  0  0  0
   41.1235   28.8629    8.4800 N   0  0  0  0  0  0  0  0  0  0  0  0
  4  5  1  0  0  0
  9  3  2  0  0  0
 25 24  1  0  0  0
  5  3  1  0  0  0
  5  6  1  0  0  0
  3  8  1  0  0  0
 23 24  2  0  0  0
 23 20  1  0  0  0
 24 21  1  0  0  0
  7  6  2  0  0  0
  6  1  1  0  0  0
  8 19  1  0  0  0
  8  2  1  0  0  0
 19 20  1  0  0  0
 20 26  2  0  0  0
 21 22  2  0  0  0
  1  2  2  0  0  0
  2 12  1  0  0  0
 26 22  1  0  0  0
 26 27  1  0  0  0
 10 12  1  0  0  0
 10 13  1  0  0  0
 12 16  1  0  0  0
 27 28  3  0  0  0
 13 11  1  0  0  0
 16 14  1  0  0  0
 11 14  1  0  0  0
 14 15  1  0  0  0
 15 17  1  0  0  0
 15 18  1  0  0  0
M  END
> <minimizedAffinity>
-7.77609

$$$$
5KBY_6RL_A_1510


 28 30  0  0  0  0  0  0  0  0999 V2000
   44.5114   36.6591   16.5020 C   0  0  0  0  0  0  0  0  0  0  0  0
   43.9205   35.4348   16.2764 C   0  0  0  0  0  0  0  0  0  0  0  0
   45.5772   34.3731   17.6028 C   0  0  0  0  0  0  0  0  0  0  0  0
   47.4100   35.6661   18.6443 C   0  0  0  0  0  0  0  0  0  0  0  0
   46.1819   35.5698   17.8297 N   0  0  0  0  0  0  0  0  0  0  0  0
   45.6631   36.7105   17.3050 C   0  0  0  0  0  0  0  0  0  0  0  0
   46.2134   37.7761   17.5235 O   0  0  0  0  0  0  0  0  0  0  0  0
   44.4532   34.2978   16.8598 N   0  0  0  0  0  0  0  0  0  0  0  0
   46.0335   33.3388   18.0909 O   0  0  0  0  0  0  0  0  0  0  0  0
   43.1611   35.4334   14.0441 C   0  0  0  0  0  0  0  0  0  0  0  0
   40.7278   35.7348   13.5321 C   0  0  0  0  0  0  0  0  0  0  0  0
   42.8115   35.3138   15.4735 N   0  0  0  0  0  0  0  0  0  0  0  0
   41.9787   34.8756   13.2141 C   0  0  0  0  0  0  0  0  0  0  0  0
   40.4204   35.6392   15.0323 C   0  0  0  0  0  0  0  0  0  0  0  0
   40.1460   34.2317   15.3855 N   0  0  0  0  0  0  0  0  0  0  0  0
   41.6460   36.1581   15.8257 C   0  0  0  0  0  0  0  0  0  0  0  0
   40.9593   33.6595   15.1586 H   0  0  0  0  0  0  0  0  0  0  0  0
   39.3388   33.8999   14.8575 H   0  0  0  0  0  0  0  0  0  0  0  0
   43.8176   32.9790   16.6201 C   0  0  0  0  0  0  0  0  0  0  0  0
   44.2296   32.3289   15.3137 C   0  0  0  0  0  0  0  0  0  0  0  0
   45.1002   31.2181   12.8901 C   0  0  0  0  0  0  0  0  0  0  0  0
   43.8019   31.0045   13.2997 C   0  0  0  0  0  0  0  0  0  0  0  0
   45.5202   32.5473   14.8775 C   0  0  0  0  0  0  0  0  0  0  0  0
   45.9416   31.9951   13.6791 C   0  0  0  0  0  0  0  0  0  0  0  0
   47.2043   32.2162   13.2695 F   0  0  0  0  0  0  0  0  0  0  0  0
   43.3505   31.5622   14.5152 C   0  0  0  0  0  0  0  0  0  0  0  0
   41.9828   31.3004   14.8781 C   0  0  0  0  0  0  0  0  0  0  0  0
   40.9122   31.1022   15.2044 N   0  0  0  0  0  0  0  0  0  0  0  0
  4  5  1  0  0  0
  9  3  2  0  0  0
 25 24  1  0  0  0
  5  3  1  0  0  0
  5  6  1  0  0  0
  3  8  1  0  0  0
 23 24  2  0  0  0
 23 20  1  0  0  0
 24 21  1  0  0  0
  7  6  2  0  0  0
  6  1  1  0  0  0
  8 19  1  0  0  0
  8  2  1  0  0  0
 19 20  1  0  0  0
 20 26  2  0  0  0
 21 22  2  0  0  0
  1  2  2  0  0  0
  2 12  1  0  0  0
 26 22  1  0  0  0
 26 27  1  0  0  0
 10 12  1  0  0  0
 10 13  1  0  0  0
 12 16  1  0  0  0
 27 28  3  0  0  0
 13 11  1  0  0  0
 16 14  1  0  0  0
 11 14  1  0  0  0
 14 15  1  0  0  0
 15 17  1  0  0  0
 15 18  1  0  0  0
M  END
> <minimizedAffinity>
-7.67332

$$$$
5KBY_6RL_A_1510


 28 30  0  0  0  0  0  0  0  0999 V2000
   42.4467   33.3984   13.4240 C   0  0  0  0  0  0  0  0  0  0  0  0
   43.0149   33.2569   14.6715 C   0  0  0  0  0  0  0  0  0  0  0  0
   41.5987   34.9582   15.5268 C   0  0  0  0  0  0  0  0  0  0  0  0
   39.9781   36.1303   14.0723 C   0  0  0  0  0  0  0  0  0  0  0  0
   41.0316   35.1210   14.3016 N   0  0  0  0  0  0  0  0  0  0  0  0
   41.4284   34.3515   13.2547 C   0  0  0  0  0  0  0  0  0  0  0  0
   40.9052   34.5054   12.1644 O   0  0  0  0  0  0  0  0  0  0  0  0
   42.5580   34.0300   15.7253 N   0  0  0  0  0  0  0  0  0  0  0  0
   41.2300   35.6409   16.4829 O   0  0  0  0  0  0  0  0  0  0  0  0
   45.3238   32.8771   14.3814 C   0  0  0  0  0  0  0  0  0  0  0  0
   46.2674   30.5678   14.6071 C   0  0  0  0  0  0  0  0  0  0  0  0
   44.0373   32.3656   14.8940 N   0  0  0  0  0  0  0  0  0  0  0  0
   46.4603   32.0476   15.0284 C   0  0  0  0  0  0  0  0  0  0  0  0
   44.8999   30.0786   15.1018 C   0  0  0  0  0  0  0  0  0  0  0  0
   44.8504   30.1752   16.5745 N   0  0  0  0  0  0  0  0  0  0  0  0
   43.7964   30.9658   14.4724 C   0  0  0  0  0  0  0  0  0  0  0  0
   44.9974   31.1443   16.8568 H   0  0  0  0  0  0  0  0  0  0  0  0
   45.5808   29.5889   16.9785 H   0  0  0  0  0  0  0  0  0  0  0  0
   43.1667   33.8780   17.0695 C   0  0  0  0  0  0  0  0  0  0  0  0
   44.3833   34.7547   17.2938 C   0  0  0  0  0  0  0  0  0  0  0  0
   46.5867   36.4619   17.6049 C   0  0  0  0  0  0  0  0  0  0  0  0
   46.6620   35.1724   18.0852 C   0  0  0  0  0  0  0  0  0  0  0  0
   44.3340   36.0433   16.8030 C   0  0  0  0  0  0  0  0  0  0  0  0
   45.4269   36.8794   16.9608 C   0  0  0  0  0  0  0  0  0  0  0  0
   45.3613   38.1339   16.4779 F   0  0  0  0  0  0  0  0  0  0  0  0
   45.5615   34.3022   17.9305 C   0  0  0  0  0  0  0  0  0  0  0  0
   45.7121   32.9701   18.4536 C   0  0  0  0  0  0  0  0  0  0  0  0
   45.7941   31.9219   18.8855 N   0  0  0  0  0  0  0  0  0  0  0  0
  4  5  1  0  0  0
  9  3  2  0  0  0
 25 24  1  0  0  0
  5  3  1  0  0  0
  5  6  1  0  0  0
  3  8  1  0  0  0
 23 24  2  0  0  0
 23 20  1  0  0  0
 24 21  1  0  0  0
  7  6  2  0  0  0
  6  1  1  0  0  0
  8 19  1  0  0  0
  8  2  1  0  0  0
 19 20  1  0  0  0
 20 26  2  0  0  0
 21 22  2  0  0  0
  1  2  2  0  0  0
  2 12  1  0  0  0
 26 22  1  0  0  0
 26 27  1  0  0  0
 10 12  1  0  0  0
 10 13  1  0  0  0
 12 16  1  0  0  0
 27 28  3  0  0  0
 13 11  1  0  0  0
 16 14  1  0  0  0
 11 14  1  0  0  0
 14 15  1  0  0  0
 15 17  1  0  0  0
 15 18  1  0  0  0
M  END
> <minimizedAffinity>
-7.56591

$$$$
5KBY_6RL_A_1510


 28 30  0  0  0  0  0  0  0  0999 V2000
   42.5619   31.5075   15.4188 C   0  0  0  0  0  0  0  0  0  0  0  0
   43.2416   32.6054   14.9374 C   0  0  0  0  0  0  0  0  0  0  0  0
   45.3052   31.4643   15.2035 C   0  0  0  0  0  0  0  0  0  0  0  0
   45.3935   29.1696   16.1213 C   0  0  0  0  0  0  0  0  0  0  0  0
   44.6549   30.3738   15.6906 N   0  0  0  0  0  0  0  0  0  0  0  0
   43.3002   30.3720   15.7923 C   0  0  0  0  0  0  0  0  0  0  0  0
   42.7320   29.3839   16.2246 O   0  0  0  0  0  0  0  0  0  0  0  0
   44.6194   32.5577   14.8095 N   0  0  0  0  0  0  0  0  0  0  0  0
   46.5315   31.4641   15.0927 O   0  0  0  0  0  0  0  0  0  0  0  0
   41.9387   34.3926   15.7549 C   0  0  0  0  0  0  0  0  0  0  0  0
   40.6078   35.8155   14.1808 C   0  0  0  0  0  0  0  0  0  0  0  0
   42.5800   33.7579   14.5863 N   0  0  0  0  0  0  0  0  0  0  0  0
   41.5943   35.8542   15.3764 C   0  0  0  0  0  0  0  0  0  0  0  0
   41.2772   35.1007   12.9996 C   0  0  0  0  0  0  0  0  0  0  0  0
   42.4911   35.8430   12.6044 N   0  0  0  0  0  0  0  0  0  0  0  0
   41.6512   33.6617   13.4359 C   0  0  0  0  0  0  0  0  0  0  0  0
   43.1342   35.8885   13.3948 H   0  0  0  0  0  0  0  0  0  0  0  0
   42.2342   36.7883   12.3203 H   0  0  0  0  0  0  0  0  0  0  0  0
   45.3530   33.7376   14.2896 C   0  0  0  0  0  0  0  0  0  0  0  0
   46.1001   34.5134   15.3568 C   0  0  0  0  0  0  0  0  0  0  0  0
   47.3592   36.0106   17.3666 C   0  0  0  0  0  0  0  0  0  0  0  0
   48.1212   35.4700   16.3536 C   0  0  0  0  0  0  0  0  0  0  0  0
   45.3519   35.0784   16.3691 C   0  0  0  0  0  0  0  0  0  0  0  0
   45.9820   35.8165   17.3574 C   0  0  0  0  0  0  0  0  0  0  0  0
   45.2375   36.3589   18.3386 F   0  0  0  0  0  0  0  0  0  0  0  0
   47.4986   34.7186   15.3338 C   0  0  0  0  0  0  0  0  0  0  0  0
   48.3557   34.1871   14.3073 C   0  0  0  0  0  0  0  0  0  0  0  0
   49.0179   33.7962   13.4703 N   0  0  0  0  0  0  0  0  0  0  0  0
  4  5  1  0  0  0
  9  3  2  0  0  0
 25 24  1  0  0  0
  5  3  1  0  0  0
  5  6  1  0  0  0
  3  8  1  0  0  0
 23 24  2  0  0  0
 23 20  1  0  0  0
 24 21  1  0  0  0
  7  6  2  0  0  0
  6  1  1  0  0  0
  8 19  1  0  0  0
  8  2  1  0  0  0
 19 20  1  0  0  0
 20 26  2  0  0  0
 21 22  2  0  0  0
  1  2  2  0  0  0
  2 12  1  0  0  0
 26 22  1  0  0  0
 26 27  1  0  0  0
 10 12  1  0  0  0
 10 13  1  0  0  0
 12 16  1  0  0  0
 27 28  3  0  0  0
 13 11  1  0  0  0
 16 14  1  0  0  0
 11 14  1  0  0  0
 14 15  1  0  0  0
 15 17  1  0  0  0
 15 18  1  0  0  0
M  END
> <minimizedAffinity>
-7.49104

$$$$
5KBY_6RL_A_1510


 28 30  0  0  0  0  0  0  0  0999 V2000
   45.8625   31.3939   15.8924 C   0  0  0  0  0  0  0  0  0  0  0  0
   44.8286   32.2876   16.0703 C   0  0  0  0  0  0  0  0  0  0  0  0
   43.2484   30.5649   15.6619 C   0  0  0  0  0  0  0  0  0  0  0  0
   43.9711   28.2603   15.1303 C   0  0  0  0  0  0  0  0  0  0  0  0
   44.2538   29.6689   15.4725 N   0  0  0  0  0  0  0  0  0  0  0  0
   45.5500   30.0569   15.5946 C   0  0  0  0  0  0  0  0  0  0  0  0
   46.4393   29.2399   15.4283 O   0  0  0  0  0  0  0  0  0  0  0  0
   43.5187   31.8487   15.9781 N   0  0  0  0  0  0  0  0  0  0  0  0
   42.0717   30.2139   15.5700 O   0  0  0  0  0  0  0  0  0  0  0  0
   45.4576   34.3465   15.1087 C   0  0  0  0  0  0  0  0  0  0  0  0
   46.2428   36.2346   16.5553 C   0  0  0  0  0  0  0  0  0  0  0  0
   45.0689   33.6155   16.3311 N   0  0  0  0  0  0  0  0  0  0  0  0
   45.2958   35.8616   15.3855 C   0  0  0  0  0  0  0  0  0  0  0  0
   45.8544   35.4197   17.7960 C   0  0  0  0  0  0  0  0  0  0  0  0
   44.4637   35.7408   18.1750 N   0  0  0  0  0  0  0  0  0  0  0  0
   45.9805   33.9121   17.4608 C   0  0  0  0  0  0  0  0  0  0  0  0
   43.8395   35.5159   17.4003 H   0  0  0  0  0  0  0  0  0  0  0  0
   44.3914   36.7347   18.3925 H   0  0  0  0  0  0  0  0  0  0  0  0
   42.4042   32.8084   16.1713 C   0  0  0  0  0  0  0  0  0  0  0  0
   42.0022   33.5428   14.9071 C   0  0  0  0  0  0  0  0  0  0  0  0
   41.3183   34.7964   12.4932 C   0  0  0  0  0  0  0  0  0  0  0  0
   41.3542   35.5420   13.6516 C   0  0  0  0  0  0  0  0  0  0  0  0
   41.9790   32.8171   13.7338 C   0  0  0  0  0  0  0  0  0  0  0  0
   41.6405   33.4445   12.5462 C   0  0  0  0  0  0  0  0  0  0  0  0
   41.6207   32.7215   11.4113 F   0  0  0  0  0  0  0  0  0  0  0  0
   41.7016   34.9236   14.8719 C   0  0  0  0  0  0  0  0  0  0  0  0
   41.7214   35.7639   16.0399 C   0  0  0  0  0  0  0  0  0  0  0  0
   41.7778   36.4339   16.9563 N   0  0  0  0  0  0  0  0  0  0  0  0
  4  5  1  0  0  0
  9  3  2  0  0  0
 25 24  1  0  0  0
  5  3  1  0  0  0
  5  6  1  0  0  0
  3  8  1  0  0  0
 23 24  2  0  0  0
 23 20  1  0  0  0
 24 21  1  0  0  0
  7  6  2  0  0  0
  6  1  1  0  0  0
  8 19  1  0  0  0
  8  2  1  0  0  0
 19 20  1  0  0  0
 20 26  2  0  0  0
 21 22  2  0  0  0
  1  2  2  0  0  0
  2 12  1  0  0  0
 26 22  1  0  0  0
 26 27  1  0  0  0
 10 12  1  0  0  0
 10 13  1  0  0  0
 12 16  1  0  0  0
 27 28  3  0  0  0
 13 11  1  0  0  0
 16 14  1  0  0  0
 11 14  1  0  0  0
 14 15  1  0  0  0
 15 17  1  0  0  0
 15 18  1  0  0  0
M  END
> <minimizedAffinity>
-7.42365

$$$$
5KBY_6RL_A_1510


 28 30  0  0  0  0  0  0  0  0999 V2000
   41.9138   30.8861   13.3185 C   0  0  0  0  0  0  0  0  0  0  0  0
   42.3983   31.7977   14.2314 C   0  0  0  0  0  0  0  0  0  0  0  0
   43.5431   30.0643   15.3785 C   0  0  0  0  0  0  0  0  0  0  0  0
   43.3964   27.7130   14.6264 C   0  0  0  0  0  0  0  0  0  0  0  0
   43.0676   29.1467   14.4946 N   0  0  0  0  0  0  0  0  0  0  0  0
   42.2723   29.5355   13.4640 C   0  0  0  0  0  0  0  0  0  0  0  0
   41.8600   28.7014   12.6764 O   0  0  0  0  0  0  0  0  0  0  0  0
   43.2390   31.3724   15.2459 N   0  0  0  0  0  0  0  0  0  0  0  0
   44.2787   29.7193   16.3038 O   0  0  0  0  0  0  0  0  0  0  0  0
   40.9648   33.4565   15.0993 C   0  0  0  0  0  0  0  0  0  0  0  0
   40.6525   35.6248   13.8848 C   0  0  0  0  0  0  0  0  0  0  0  0
   42.0577   33.1276   14.1628 N   0  0  0  0  0  0  0  0  0  0  0  0
   40.9312   34.9949   15.2740 C   0  0  0  0  0  0  0  0  0  0  0  0
   41.7715   35.2207   12.9159 C   0  0  0  0  0  0  0  0  0  0  0  0
   43.0635   35.7217   13.4265 N   0  0  0  0  0  0  0  0  0  0  0  0
   41.8040   33.6752   12.8096 C   0  0  0  0  0  0  0  0  0  0  0  0
   43.2410   35.3255   14.3495 H   0  0  0  0  0  0  0  0  0  0  0  0
   43.0313   36.7390   13.4936 H   0  0  0  0  0  0  0  0  0  0  0  0
   43.7635   32.3522   16.2284 C   0  0  0  0  0  0  0  0  0  0  0  0
   44.8943   33.2096   15.6946 C   0  0  0  0  0  0  0  0  0  0  0  0
   47.0534   34.6763   14.6683 C   0  0  0  0  0  0  0  0  0  0  0  0
   46.2052   35.2738   15.5752 C   0  0  0  0  0  0  0  0  0  0  0  0
   45.7654   32.6228   14.7998 C   0  0  0  0  0  0  0  0  0  0  0  0
   46.8292   33.3545   14.2983 C   0  0  0  0  0  0  0  0  0  0  0  0
   47.6681   32.7675   13.4248 F   0  0  0  0  0  0  0  0  0  0  0  0
   45.1178   34.5445   16.1026 C   0  0  0  0  0  0  0  0  0  0  0  0
   44.2760   35.2309   17.0464 C   0  0  0  0  0  0  0  0  0  0  0  0
   43.5903   35.7900   17.7600 N   0  0  0  0  0  0  0  0  0  0  0  0
  4  5  1  0  0  0
  9  3  2  0  0  0
 25 24  1  0  0  0
  5  3  1  0  0  0
  5  6  1  0  0  0
  3  8  1  0  0  0
 23 24  2  0  0  0
 23 20  1  0  0  0
 24 21  1  0  0  0
  7  6  2  0  0  0
  6  1  1  0  0  0
  8 19  1  0  0  0
  8  2  1  0  0  0
 19 20  1  0  0  0
 20 26  2  0  0  0
 21 22  2  0  0  0
  1  2  2  0  0  0
  2 12  1  0  0  0
 26 22  1  0  0  0
 26 27  1  0  0  0
 10 12  1  0  0  0
 10 13  1  0  0  0
 12 16  1  0  0  0
 27 28  3  0  0  0
 13 11  1  0  0  0
 16 14  1  0  0  0
 11 14  1  0  0  0
 14 15  1  0  0  0
 15 17  1  0  0  0
 15 18  1  0  0  0
M  END
> <minimizedAffinity>
-7.38849

$$$$
