3KEK_3EK_A_801


 35 38  0  0  0  0  0  0  0  0999 V2000
   44.3715   21.7750   19.2251 C   0  0  0  0  0  0  0  0  0  0  0  0
   43.1197   21.9397   18.6655 C   0  0  0  0  0  0  0  0  0  0  0  0
   42.5856   23.2087   18.5926 C   0  0  0  0  0  0  0  0  0  0  0  0
   43.2033   24.3063   19.0382 N   0  0  0  0  0  0  0  0  0  0  0  0
   44.4107   24.1098   19.5917 C   0  0  0  0  0  0  0  0  0  0  0  0
   45.0397   22.8836   19.7018 C   0  0  0  0  0  0  0  0  0  0  0  0
   41.2382   23.3919   17.9886 C   0  0  0  0  0  0  0  0  0  0  0  0
   45.4067   18.4992   18.7999 N   0  0  0  0  0  0  0  0  0  0  0  0
   44.5367   19.4691   18.4740 N   0  0  0  0  0  0  0  0  0  0  0  0
   44.9741   20.4662   19.2460 C   0  0  0  0  0  0  0  0  0  0  0  0
   46.0680   20.1546   20.0108 N   0  0  0  0  0  0  0  0  0  0  0  0
   46.3299   18.9126   19.7100 C   0  0  0  0  0  0  0  0  0  0  0  0
   45.3690   17.1833   18.1931 C   0  0  0  0  0  0  0  0  0  0  0  0
   45.8381   17.1913   16.7446 C   0  0  0  0  0  0  0  0  0  0  0  0
   45.9960   15.7677   16.2451 C   0  0  0  0  0  0  0  0  0  0  0  0
   46.3904   15.7381   14.7779 C   0  0  0  0  0  0  0  0  0  0  0  0
   47.7232   16.4442   14.6748 C   0  0  0  0  0  0  0  0  0  0  0  0
   47.6242   17.9042   15.0597 C   0  0  0  0  0  0  0  0  0  0  0  0
   47.0733   18.0459   16.4767 C   0  0  0  0  0  0  0  0  0  0  0  0
   48.1261   16.4318   13.2036 C   0  0  0  0  0  0  0  0  0  0  0  0
   47.4041   15.6616   12.5207 O   0  0  0  0  0  0  0  0  0  0  0  0
   49.0869   17.1594   12.8245 O   0  0  0  0  0  0  0  0  0  0  0  0
   49.5449   17.6913   13.4452 H   0  0  0  0  0  0  0  0  0  0  0  0
   45.1049   25.3214   20.0779 C   0  0  0  0  0  0  0  0  0  0  0  0
   45.8226   25.2882   21.0686 O   0  0  0  0  0  0  0  0  0  0  0  0
   44.8866   26.4296   19.2995 N   0  0  0  0  0  0  0  0  0  0  0  0
   44.2126   26.3766   18.5839 H   0  0  0  0  0  0  0  0  0  0  0  0
   45.6041   27.6747   19.4842 C   0  0  0  0  0  0  0  0  0  0  0  0
   46.7572   27.9215   18.5606 C   0  0  0  0  0  0  0  0  0  0  0  0
   47.4211   29.1284   18.6580 C   0  0  0  0  0  0  0  0  0  0  0  0
   48.4895   29.4003   17.8303 C   0  0  0  0  0  0  0  0  0  0  0  0
   48.8863   28.4684   16.8993 C   0  0  0  0  0  0  0  0  0  0  0  0
   48.2310   27.2617   16.7815 C   0  0  0  0  0  0  0  0  0  0  0  0
   47.1645   26.9949   17.6188 C   0  0  0  0  0  0  0  0  0  0  0  0
   49.9256   28.7556   16.0969 F   0  0  0  0  0  0  0  0  0  0  0  0
 13 14  1  0  0  0
 15 14  1  0  0  0
 14 19  1  0  0  0
 15 16  1  0  0  0
 16 17  1  0  0  0
 17 18  1  0  0  0
 17 20  1  0  0  0
 19 18  1  0  0  0
 13  8  1  0  0  0
 12  8  1  0  0  0
  8  9  1  0  0  0
 10  9  2  0  0  0
 11 10  1  0  0  0
 10  1  1  0  0  0
 12 11  2  0  0  0
  6  1  2  0  0  0
  1  2  1  0  0  0
  2  3  2  0  0  0
  3  4  1  0  0  0
  3  7  1  0  0  0
  5  4  2  0  0  0
  6  5  1  0  0  0
  5 24  1  0  0  0
 25 24  2  0  0  0
 24 26  1  0  0  0
 26 28  1  0  0  0
 28 29  1  0  0  0
 29 30  2  0  0  0
 29 34  1  0  0  0
 30 31  1  0  0  0
 31 32  2  0  0  0
 33 32  1  0  0  0
 32 35  1  0  0  0
 34 33  2  0  0  0
 20 21  2  0  0  0
 20 22  1  0  0  0
 26 27  1  0  0  0
 22 23  1  0  0  0
M  END
> <minimizedAffinity>
-12.95869

$$$$
3KEK_3EK_A_801


 35 38  0  0  0  0  0  0  0  0999 V2000
   44.0668   23.0436   20.4834 C   0  0  0  0  0  0  0  0  0  0  0  0
   43.6983   23.7684   21.5997 C   0  0  0  0  0  0  0  0  0  0  0  0
   44.3100   24.9810   21.8370 C   0  0  0  0  0  0  0  0  0  0  0  0
   45.2536   25.5084   21.0519 N   0  0  0  0  0  0  0  0  0  0  0  0
   45.6011   24.7712   19.9848 C   0  0  0  0  0  0  0  0  0  0  0  0
   45.0417   23.5520   19.6504 C   0  0  0  0  0  0  0  0  0  0  0  0
   43.9150   25.7669   23.0371 C   0  0  0  0  0  0  0  0  0  0  0  0
   43.0005   19.8993   19.5037 N   0  0  0  0  0  0  0  0  0  0  0  0
   43.9721   20.8265   19.4915 N   0  0  0  0  0  0  0  0  0  0  0  0
   43.3887   21.8083   20.1822 C   0  0  0  0  0  0  0  0  0  0  0  0
   42.1227   21.5197   20.6210 N   0  0  0  0  0  0  0  0  0  0  0  0
   41.8989   20.3091   20.1894 C   0  0  0  0  0  0  0  0  0  0  0  0
   43.1591   18.5969   18.8875 C   0  0  0  0  0  0  0  0  0  0  0  0
   44.5603   18.3763   18.3341 C   0  0  0  0  0  0  0  0  0  0  0  0
   44.7915   19.2806   17.1384 C   0  0  0  0  0  0  0  0  0  0  0  0
   46.2083   19.1414   16.6068 C   0  0  0  0  0  0  0  0  0  0  0  0
   46.3662   17.7025   16.1705 C   0  0  0  0  0  0  0  0  0  0  0  0
   46.2510   16.7404   17.3326 C   0  0  0  0  0  0  0  0  0  0  0  0
   44.9114   16.9202   18.0431 C   0  0  0  0  0  0  0  0  0  0  0  0
   47.7895   17.5456   15.6446 C   0  0  0  0  0  0  0  0  0  0  0  0
   48.2341   16.3826   15.8194 O   0  0  0  0  0  0  0  0  0  0  0  0
   48.3570   18.5373   15.1055 O   0  0  0  0  0  0  0  0  0  0  0  0
   47.9063   19.3560   15.0392 H   0  0  0  0  0  0  0  0  0  0  0  0
   46.6376   25.3533   19.1056 C   0  0  0  0  0  0  0  0  0  0  0  0
   47.8283   25.1642   19.3153 O   0  0  0  0  0  0  0  0  0  0  0  0
   46.1266   26.0691   18.0528 N   0  0  0  0  0  0  0  0  0  0  0  0
   45.1587   26.2475   18.0307 H   0  0  0  0  0  0  0  0  0  0  0  0
   46.9487   26.5741   16.9719 C   0  0  0  0  0  0  0  0  0  0  0  0
   47.7781   27.7837   17.2759 C   0  0  0  0  0  0  0  0  0  0  0  0
   48.9704   27.9415   16.5974 C   0  0  0  0  0  0  0  0  0  0  0  0
   49.7670   29.0397   16.8421 C   0  0  0  0  0  0  0  0  0  0  0  0
   49.3744   29.9739   17.7726 C   0  0  0  0  0  0  0  0  0  0  0  0
   48.1920   29.8296   18.4657 C   0  0  0  0  0  0  0  0  0  0  0  0
   47.3969   28.7287   18.2103 C   0  0  0  0  0  0  0  0  0  0  0  0
   50.1687   31.0338   18.0018 F   0  0  0  0  0  0  0  0  0  0  0  0
 13 14  1  0  0  0
 15 14  1  0  0  0
 14 19  1  0  0  0
 15 16  1  0  0  0
 16 17  1  0  0  0
 17 18  1  0  0  0
 17 20  1  0  0  0
 19 18  1  0  0  0
 13  8  1  0  0  0
 12  8  1  0  0  0
  8  9  1  0  0  0
 10  9  2  0  0  0
 11 10  1  0  0  0
 10  1  1  0  0  0
 12 11  2  0  0  0
  6  1  2  0  0  0
  1  2  1  0  0  0
  2  3  2  0  0  0
  3  4  1  0  0  0
  3  7  1  0  0  0
  5  4  2  0  0  0
  6  5  1  0  0  0
  5 24  1  0  0  0
 25 24  2  0  0  0
 24 26  1  0  0  0
 26 28  1  0  0  0
 28 29  1  0  0  0
 29 30  2  0  0  0
 29 34  1  0  0  0
 30 31  1  0  0  0
 31 32  2  0  0  0
 33 32  1  0  0  0
 32 35  1  0  0  0
 34 33  2  0  0  0
 20 21  2  0  0  0
 20 22  1  0  0  0
 26 27  1  0  0  0
 22 23  1  0  0  0
M  END
> <minimizedAffinity>
-11.59737

$$$$
3KEK_3EK_A_801


 35 38  0  0  0  0  0  0  0  0999 V2000
   43.9278   23.3096   20.1521 C   0  0  0  0  0  0  0  0  0  0  0  0
   43.2454   23.4234   21.3473 C   0  0  0  0  0  0  0  0  0  0  0  0
   42.4500   22.3760   21.7612 C   0  0  0  0  0  0  0  0  0  0  0  0
   42.2872   21.2433   21.0718 N   0  0  0  0  0  0  0  0  0  0  0  0
   42.9507   21.1713   19.9067 C   0  0  0  0  0  0  0  0  0  0  0  0
   43.7819   22.1572   19.4082 C   0  0  0  0  0  0  0  0  0  0  0  0
   41.7142   22.4927   23.0492 C   0  0  0  0  0  0  0  0  0  0  0  0
   45.8392   25.7229   18.5691 N   0  0  0  0  0  0  0  0  0  0  0  0
   44.9807   24.6963   18.4559 N   0  0  0  0  0  0  0  0  0  0  0  0
   44.8178   24.3648   19.7385 C   0  0  0  0  0  0  0  0  0  0  0  0
   45.5217   25.1431   20.6202 N   0  0  0  0  0  0  0  0  0  0  0  0
   46.1535   25.9979   19.8642 C   0  0  0  0  0  0  0  0  0  0  0  0
   46.3197   26.4665   17.4212 C   0  0  0  0  0  0  0  0  0  0  0  0
   47.4982   27.3696   17.7585 C   0  0  0  0  0  0  0  0  0  0  0  0
   46.9963   28.7371   18.1815 C   0  0  0  0  0  0  0  0  0  0  0  0
   48.1440   29.6415   18.5986 C   0  0  0  0  0  0  0  0  0  0  0  0
   49.0322   29.7993   17.3855 C   0  0  0  0  0  0  0  0  0  0  0  0
   49.6560   28.4871   16.9632 C   0  0  0  0  0  0  0  0  0  0  0  0
   48.5731   27.4490   16.6784 C   0  0  0  0  0  0  0  0  0  0  0  0
   50.1961   30.6969   17.7938 C   0  0  0  0  0  0  0  0  0  0  0  0
   50.7400   31.2481   16.8033 O   0  0  0  0  0  0  0  0  0  0  0  0
   50.4866   30.8054   19.0185 O   0  0  0  0  0  0  0  0  0  0  0  0
   49.9940   30.3332   19.6605 H   0  0  0  0  0  0  0  0  0  0  0  0
   42.7835   19.9164   19.1430 C   0  0  0  0  0  0  0  0  0  0  0  0
   41.7356   19.6582   18.5662 O   0  0  0  0  0  0  0  0  0  0  0  0
   43.9059   19.1278   19.1290 N   0  0  0  0  0  0  0  0  0  0  0  0
   44.6626   19.3760   19.7078 H   0  0  0  0  0  0  0  0  0  0  0  0
   44.0269   17.9458   18.2999 C   0  0  0  0  0  0  0  0  0  0  0  0
   45.1494   17.9406   17.3082 C   0  0  0  0  0  0  0  0  0  0  0  0
   45.7160   19.1513   16.9617 C   0  0  0  0  0  0  0  0  0  0  0  0
   46.7530   19.1967   16.0544 C   0  0  0  0  0  0  0  0  0  0  0  0
   47.2152   18.0316   15.4873 C   0  0  0  0  0  0  0  0  0  0  0  0
   46.6571   16.8148   15.8142 C   0  0  0  0  0  0  0  0  0  0  0  0
   45.6217   16.7777   16.7288 C   0  0  0  0  0  0  0  0  0  0  0  0
   48.2222   18.0980   14.5994 F   0  0  0  0  0  0  0  0  0  0  0  0
 13 14  1  0  0  0
 15 14  1  0  0  0
 14 19  1  0  0  0
 15 16  1  0  0  0
 16 17  1  0  0  0
 17 18  1  0  0  0
 17 20  1  0  0  0
 19 18  1  0  0  0
 13  8  1  0  0  0
 12  8  1  0  0  0
  8  9  1  0  0  0
 10  9  2  0  0  0
 11 10  1  0  0  0
 10  1  1  0  0  0
 12 11  2  0  0  0
  6  1  2  0  0  0
  1  2  1  0  0  0
  2  3  2  0  0  0
  3  4  1  0  0  0
  3  7  1  0  0  0
  5  4  2  0  0  0
  6  5  1  0  0  0
  5 24  1  0  0  0
 25 24  2  0  0  0
 24 26  1  0  0  0
 26 28  1  0  0  0
 28 29  1  0  0  0
 29 30  2  0  0  0
 29 34  1  0  0  0
 30 31  1  0  0  0
 31 32  2  0  0  0
 33 32  1  0  0  0
 32 35  1  0  0  0
 34 33  2  0  0  0
 20 21  2  0  0  0
 20 22  1  0  0  0
 26 27  1  0  0  0
 22 23  1  0  0  0
M  END
> <minimizedAffinity>
-11.47182

$$$$
3KEK_3EK_A_801


 35 38  0  0  0  0  0  0  0  0999 V2000
   44.2851   21.3239   19.7238 C   0  0  0  0  0  0  0  0  0  0  0  0
   42.9695   20.9876   19.9752 C   0  0  0  0  0  0  0  0  0  0  0  0
   42.1399   21.9294   20.5461 C   0  0  0  0  0  0  0  0  0  0  0  0
   42.5292   23.1622   20.8831 N   0  0  0  0  0  0  0  0  0  0  0  0
   43.8178   23.4516   20.6412 C   0  0  0  0  0  0  0  0  0  0  0  0
   44.7271   22.5860   20.0622 C   0  0  0  0  0  0  0  0  0  0  0  0
   40.7210   21.5730   20.8172 C   0  0  0  0  0  0  0  0  0  0  0  0
   46.2238   19.3868   17.6089 N   0  0  0  0  0  0  0  0  0  0  0  0
   45.3411   20.3900   17.7435 N   0  0  0  0  0  0  0  0  0  0  0  0
   45.1473   20.3763   19.0640 C   0  0  0  0  0  0  0  0  0  0  0  0
   45.8740   19.4274   19.7350 N   0  0  0  0  0  0  0  0  0  0  0  0
   46.5517   18.8188   18.8012 C   0  0  0  0  0  0  0  0  0  0  0  0
   46.7837   19.0089   16.3263 C   0  0  0  0  0  0  0  0  0  0  0  0
   46.9598   17.5033   16.1836 C   0  0  0  0  0  0  0  0  0  0  0  0
   48.0586   17.2047   15.1814 C   0  0  0  0  0  0  0  0  0  0  0  0
   48.3135   15.7107   15.0704 C   0  0  0  0  0  0  0  0  0  0  0  0
   47.0246   15.0878   14.5844 C   0  0  0  0  0  0  0  0  0  0  0  0
   45.9004   15.2550   15.5832 C   0  0  0  0  0  0  0  0  0  0  0  0
   45.6753   16.7337   15.8903 C   0  0  0  0  0  0  0  0  0  0  0  0
   47.2630   13.5848   14.4793 C   0  0  0  0  0  0  0  0  0  0  0  0
   47.6171   13.2406   13.3230 O   0  0  0  0  0  0  0  0  0  0  0  0
   47.1006   12.8648   15.5046 O   0  0  0  0  0  0  0  0  0  0  0  0
   46.8310   13.2546   16.3129 H   0  0  0  0  0  0  0  0  0  0  0  0
   44.2533   24.8177   21.0021 C   0  0  0  0  0  0  0  0  0  0  0  0
   44.3236   25.1745   22.1705 O   0  0  0  0  0  0  0  0  0  0  0  0
   44.5887   25.5915   19.9201 N   0  0  0  0  0  0  0  0  0  0  0  0
   44.4002   25.2458   19.0178 H   0  0  0  0  0  0  0  0  0  0  0  0
   45.2082   26.8951   20.0468 C   0  0  0  0  0  0  0  0  0  0  0  0
   46.2590   27.2337   19.0345 C   0  0  0  0  0  0  0  0  0  0  0  0
   46.6621   26.2437   18.1602 C   0  0  0  0  0  0  0  0  0  0  0  0
   47.6251   26.5084   17.2100 C   0  0  0  0  0  0  0  0  0  0  0  0
   48.1908   27.7606   17.1419 C   0  0  0  0  0  0  0  0  0  0  0  0
   47.8075   28.7591   18.0110 C   0  0  0  0  0  0  0  0  0  0  0  0
   46.8376   28.4868   18.9569 C   0  0  0  0  0  0  0  0  0  0  0  0
   49.1333   27.9965   16.2130 F   0  0  0  0  0  0  0  0  0  0  0  0
 13 14  1  0  0  0
 15 14  1  0  0  0
 14 19  1  0  0  0
 15 16  1  0  0  0
 16 17  1  0  0  0
 17 18  1  0  0  0
 17 20  1  0  0  0
 19 18  1  0  0  0
 13  8  1  0  0  0
 12  8  1  0  0  0
  8  9  1  0  0  0
 10  9  2  0  0  0
 11 10  1  0  0  0
 10  1  1  0  0  0
 12 11  2  0  0  0
  6  1  2  0  0  0
  1  2  1  0  0  0
  2  3  2  0  0  0
  3  4  1  0  0  0
  3  7  1  0  0  0
  5  4  2  0  0  0
  6  5  1  0  0  0
  5 24  1  0  0  0
 25 24  2  0  0  0
 24 26  1  0  0  0
 26 28  1  0  0  0
 28 29  1  0  0  0
 29 30  2  0  0  0
 29 34  1  0  0  0
 30 31  1  0  0  0
 31 32  2  0  0  0
 33 32  1  0  0  0
 32 35  1  0  0  0
 34 33  2  0  0  0
 20 21  2  0  0  0
 20 22  1  0  0  0
 26 27  1  0  0  0
 22 23  1  0  0  0
M  END
> <minimizedAffinity>
-11.35627

$$$$
3KEK_3EK_A_801


 35 38  0  0  0  0  0  0  0  0999 V2000
   44.9232   25.3035   20.0559 C   0  0  0  0  0  0  0  0  0  0  0  0
   44.6797   25.3482   21.4146 C   0  0  0  0  0  0  0  0  0  0  0  0
   43.9070   24.3586   21.9845 C   0  0  0  0  0  0  0  0  0  0  0  0
   43.3647   23.3470   21.3008 N   0  0  0  0  0  0  0  0  0  0  0  0
   43.6063   23.3421   19.9801 C   0  0  0  0  0  0  0  0  0  0  0  0
   44.3764   24.2773   19.3139 C   0  0  0  0  0  0  0  0  0  0  0  0
   43.6434   24.4008   23.4483 C   0  0  0  0  0  0  0  0  0  0  0  0
   47.2348   27.1749   18.2845 N   0  0  0  0  0  0  0  0  0  0  0  0
   46.7492   25.9612   18.5923 N   0  0  0  0  0  0  0  0  0  0  0  0
   45.7857   26.2896   19.4557 C   0  0  0  0  0  0  0  0  0  0  0  0
   45.6555   27.6361   19.6764 N   0  0  0  0  0  0  0  0  0  0  0  0
   46.5730   28.1775   18.9235 C   0  0  0  0  0  0  0  0  0  0  0  0
   48.3130   27.3642   17.3343 C   0  0  0  0  0  0  0  0  0  0  0  0
   48.6324   28.8334   17.0942 C   0  0  0  0  0  0  0  0  0  0  0  0
   49.5070   28.9772   15.8632 C   0  0  0  0  0  0  0  0  0  0  0  0
   49.7830   30.4383   15.5497 C   0  0  0  0  0  0  0  0  0  0  0  0
   50.5193   31.0042   16.7427 C   0  0  0  0  0  0  0  0  0  0  0  0
   49.6691   30.9904   17.9943 C   0  0  0  0  0  0  0  0  0  0  0  0
   49.1986   29.5711   18.3038 C   0  0  0  0  0  0  0  0  0  0  0  0
   50.7929   32.4753   16.4460 C   0  0  0  0  0  0  0  0  0  0  0  0
   49.7808   33.1949   16.6428 O   0  0  0  0  0  0  0  0  0  0  0  0
   51.9455   32.8190   16.0596 O   0  0  0  0  0  0  0  0  0  0  0  0
   52.6159   32.1731   15.9528 H   0  0  0  0  0  0  0  0  0  0  0  0
   43.0178   22.2198   19.2184 C   0  0  0  0  0  0  0  0  0  0  0  0
   42.2059   22.4153   18.3239 O   0  0  0  0  0  0  0  0  0  0  0  0
   43.4964   20.9901   19.5936 N   0  0  0  0  0  0  0  0  0  0  0  0
   44.0700   20.9319   20.3916 H   0  0  0  0  0  0  0  0  0  0  0  0
   43.1950   19.7733   18.8671 C   0  0  0  0  0  0  0  0  0  0  0  0
   44.3482   19.1010   18.1877 C   0  0  0  0  0  0  0  0  0  0  0  0
   44.3690   17.7206   18.1562 C   0  0  0  0  0  0  0  0  0  0  0  0
   45.4089   17.0571   17.5407 C   0  0  0  0  0  0  0  0  0  0  0  0
   46.4319   17.7753   16.9660 C   0  0  0  0  0  0  0  0  0  0  0  0
   46.4330   19.1531   16.9945 C   0  0  0  0  0  0  0  0  0  0  0  0
   45.3840   19.8104   17.6087 C   0  0  0  0  0  0  0  0  0  0  0  0
   47.4402   17.1094   16.3772 F   0  0  0  0  0  0  0  0  0  0  0  0
 13 14  1  0  0  0
 15 14  1  0  0  0
 14 19  1  0  0  0
 15 16  1  0  0  0
 16 17  1  0  0  0
 17 18  1  0  0  0
 17 20  1  0  0  0
 19 18  1  0  0  0
 13  8  1  0  0  0
 12  8  1  0  0  0
  8  9  1  0  0  0
 10  9  2  0  0  0
 11 10  1  0  0  0
 10  1  1  0  0  0
 12 11  2  0  0  0
  6  1  2  0  0  0
  1  2  1  0  0  0
  2  3  2  0  0  0
  3  4  1  0  0  0
  3  7  1  0  0  0
  5  4  2  0  0  0
  6  5  1  0  0  0
  5 24  1  0  0  0
 25 24  2  0  0  0
 24 26  1  0  0  0
 26 28  1  0  0  0
 28 29  1  0  0  0
 29 30  2  0  0  0
 29 34  1  0  0  0
 30 31  1  0  0  0
 31 32  2  0  0  0
 33 32  1  0  0  0
 32 35  1  0  0  0
 34 33  2  0  0  0
 20 21  2  0  0  0
 20 22  1  0  0  0
 26 27  1  0  0  0
 22 23  1  0  0  0
M  END
> <minimizedAffinity>
-11.25890

$$$$
3KEK_3EK_A_801


 35 38  0  0  0  0  0  0  0  0999 V2000
   43.0615   21.3932   19.1187 C   0  0  0  0  0  0  0  0  0  0  0  0
   41.7258   21.1100   19.3254 C   0  0  0  0  0  0  0  0  0  0  0  0
   41.3240   19.7916   19.3648 C   0  0  0  0  0  0  0  0  0  0  0  0
   42.1502   18.7535   19.2085 N   0  0  0  0  0  0  0  0  0  0  0  0
   43.4387   19.0632   18.9926 C   0  0  0  0  0  0  0  0  0  0  0  0
   43.9459   20.3485   18.9478 C   0  0  0  0  0  0  0  0  0  0  0  0
   39.8863   19.4809   19.5893 C   0  0  0  0  0  0  0  0  0  0  0  0
   44.6030   24.4603   19.5661 N   0  0  0  0  0  0  0  0  0  0  0  0
   44.5355   23.1612   19.9000 N   0  0  0  0  0  0  0  0  0  0  0  0
   43.5100   22.7624   19.1444 C   0  0  0  0  0  0  0  0  0  0  0  0
   42.9628   23.7473   18.3638 N   0  0  0  0  0  0  0  0  0  0  0  0
   43.6702   24.8083   18.6385 C   0  0  0  0  0  0  0  0  0  0  0  0
   45.6034   25.3545   20.1148 C   0  0  0  0  0  0  0  0  0  0  0  0
   46.1363   26.3414   19.0852 C   0  0  0  0  0  0  0  0  0  0  0  0
   47.3976   25.7913   18.4471 C   0  0  0  0  0  0  0  0  0  0  0  0
   47.9151   26.7175   17.3592 C   0  0  0  0  0  0  0  0  0  0  0  0
   48.2391   28.0329   18.0302 C   0  0  0  0  0  0  0  0  0  0  0  0
   47.0066   28.6970   18.6041 C   0  0  0  0  0  0  0  0  0  0  0  0
   46.3139   27.7675   19.5980 C   0  0  0  0  0  0  0  0  0  0  0  0
   48.7495   28.9770   16.9462 C   0  0  0  0  0  0  0  0  0  0  0  0
   48.9951   30.1256   17.3949 O   0  0  0  0  0  0  0  0  0  0  0  0
   48.8794   28.5436   15.7666 O   0  0  0  0  0  0  0  0  0  0  0  0
   48.6572   27.6556   15.5667 H   0  0  0  0  0  0  0  0  0  0  0  0
   44.3609   17.9191   18.8291 C   0  0  0  0  0  0  0  0  0  0  0  0
   44.7804   17.2976   19.7961 O   0  0  0  0  0  0  0  0  0  0  0  0
   44.6489   17.6281   17.5198 N   0  0  0  0  0  0  0  0  0  0  0  0
   44.3429   18.2506   16.8211 H   0  0  0  0  0  0  0  0  0  0  0  0
   45.3834   16.4450   17.1198 C   0  0  0  0  0  0  0  0  0  0  0  0
   46.3475   16.6120   15.9858 C   0  0  0  0  0  0  0  0  0  0  0  0
   46.3091   15.6897   14.9588 C   0  0  0  0  0  0  0  0  0  0  0  0
   47.1757   15.8031   13.8928 C   0  0  0  0  0  0  0  0  0  0  0  0
   48.0867   16.8335   13.8602 C   0  0  0  0  0  0  0  0  0  0  0  0
   48.1459   17.7588   14.8797 C   0  0  0  0  0  0  0  0  0  0  0  0
   47.2698   17.6411   15.9419 C   0  0  0  0  0  0  0  0  0  0  0  0
   48.9279   16.9222   12.8156 F   0  0  0  0  0  0  0  0  0  0  0  0
 13 14  1  0  0  0
 15 14  1  0  0  0
 14 19  1  0  0  0
 15 16  1  0  0  0
 16 17  1  0  0  0
 17 18  1  0  0  0
 17 20  1  0  0  0
 19 18  1  0  0  0
 13  8  1  0  0  0
 12  8  1  0  0  0
  8  9  1  0  0  0
 10  9  2  0  0  0
 11 10  1  0  0  0
 10  1  1  0  0  0
 12 11  2  0  0  0
  6  1  2  0  0  0
  1  2  1  0  0  0
  2  3  2  0  0  0
  3  4  1  0  0  0
  3  7  1  0  0  0
  5  4  2  0  0  0
  6  5  1  0  0  0
  5 24  1  0  0  0
 25 24  2  0  0  0
 24 26  1  0  0  0
 26 28  1  0  0  0
 28 29  1  0  0  0
 29 30  2  0  0  0
 29 34  1  0  0  0
 30 31  1  0  0  0
 31 32  2  0  0  0
 33 32  1  0  0  0
 32 35  1  0  0  0
 34 33  2  0  0  0
 20 21  2  0  0  0
 20 22  1  0  0  0
 26 27  1  0  0  0
 22 23  1  0  0  0
M  END
> <minimizedAffinity>
-10.95186

$$$$
3KEK_3EK_A_801


 35 38  0  0  0  0  0  0  0  0999 V2000
   45.0503   25.0460   19.1446 C   0  0  0  0  0  0  0  0  0  0  0  0
   44.7635   25.9235   20.1717 C   0  0  0  0  0  0  0  0  0  0  0  0
   45.4572   27.1130   20.2432 C   0  0  0  0  0  0  0  0  0  0  0  0
   46.4064   27.4779   19.3768 N   0  0  0  0  0  0  0  0  0  0  0  0
   46.6729   26.5955   18.4005 C   0  0  0  0  0  0  0  0  0  0  0  0
   46.0280   25.3842   18.2322 C   0  0  0  0  0  0  0  0  0  0  0  0
   45.1506   28.0629   21.3466 C   0  0  0  0  0  0  0  0  0  0  0  0
   43.6686   21.8728   19.2117 N   0  0  0  0  0  0  0  0  0  0  0  0
   44.6918   22.6757   19.5466 N   0  0  0  0  0  0  0  0  0  0  0  0
   44.2870   23.8308   19.0141 C   0  0  0  0  0  0  0  0  0  0  0  0
   43.0699   23.7714   18.3867 N   0  0  0  0  0  0  0  0  0  0  0  0
   42.6929   22.5307   18.5284 C   0  0  0  0  0  0  0  0  0  0  0  0
   43.6174   20.4756   19.5948 C   0  0  0  0  0  0  0  0  0  0  0  0
   44.1144   19.5471   18.4952 C   0  0  0  0  0  0  0  0  0  0  0  0
   44.2229   18.1302   19.0258 C   0  0  0  0  0  0  0  0  0  0  0  0
   44.6441   17.1622   17.9327 C   0  0  0  0  0  0  0  0  0  0  0  0
   46.0067   17.6133   17.4581 C   0  0  0  0  0  0  0  0  0  0  0  0
   45.9608   18.9839   16.8187 C   0  0  0  0  0  0  0  0  0  0  0  0
   45.3889   20.0091   17.7951 C   0  0  0  0  0  0  0  0  0  0  0  0
   46.4372   16.6559   16.3513 C   0  0  0  0  0  0  0  0  0  0  0  0
   45.4623   16.0368   15.8541 O   0  0  0  0  0  0  0  0  0  0  0  0
   47.6609   16.5812   16.0464 O   0  0  0  0  0  0  0  0  0  0  0  0
   48.2901   17.1047   16.5025 H   0  0  0  0  0  0  0  0  0  0  0  0
   47.7152   26.9970   17.4317 C   0  0  0  0  0  0  0  0  0  0  0  0
   48.1881   26.1947   16.6379 O   0  0  0  0  0  0  0  0  0  0  0  0
   48.0481   28.3259   17.5019 N   0  0  0  0  0  0  0  0  0  0  0  0
   47.6848   28.8636   18.2423 H   0  0  0  0  0  0  0  0  0  0  0  0
   48.9108   28.9732   16.5344 C   0  0  0  0  0  0  0  0  0  0  0  0
   49.7836   30.0744   17.0529 C   0  0  0  0  0  0  0  0  0  0  0  0
   50.3528   30.9380   16.1379 C   0  0  0  0  0  0  0  0  0  0  0  0
   51.1621   31.9680   16.5676 C   0  0  0  0  0  0  0  0  0  0  0  0
   51.4090   32.1269   17.9117 C   0  0  0  0  0  0  0  0  0  0  0  0
   50.8567   31.2702   18.8392 C   0  0  0  0  0  0  0  0  0  0  0  0
   50.0422   30.2438   18.4004 C   0  0  0  0  0  0  0  0  0  0  0  0
   52.2066   33.1329   18.3097 F   0  0  0  0  0  0  0  0  0  0  0  0
 13 14  1  0  0  0
 15 14  1  0  0  0
 14 19  1  0  0  0
 15 16  1  0  0  0
 16 17  1  0  0  0
 17 18  1  0  0  0
 17 20  1  0  0  0
 19 18  1  0  0  0
 13  8  1  0  0  0
 12  8  1  0  0  0
  8  9  1  0  0  0
 10  9  2  0  0  0
 11 10  1  0  0  0
 10  1  1  0  0  0
 12 11  2  0  0  0
  6  1  2  0  0  0
  1  2  1  0  0  0
  2  3  2  0  0  0
  3  4  1  0  0  0
  3  7  1  0  0  0
  5  4  2  0  0  0
  6  5  1  0  0  0
  5 24  1  0  0  0
 25 24  2  0  0  0
 24 26  1  0  0  0
 26 28  1  0  0  0
 28 29  1  0  0  0
 29 30  2  0  0  0
 29 34  1  0  0  0
 30 31  1  0  0  0
 31 32  2  0  0  0
 33 32  1  0  0  0
 32 35  1  0  0  0
 34 33  2  0  0  0
 20 21  2  0  0  0
 20 22  1  0  0  0
 26 27  1  0  0  0
 22 23  1  0  0  0
M  END
> <minimizedAffinity>
-10.89625

$$$$
3KEK_3EK_A_801


 35 38  0  0  0  0  0  0  0  0999 V2000
   43.7224   21.1318   18.9596 C   0  0  0  0  0  0  0  0  0  0  0  0
   42.5905   20.3493   19.0767 C   0  0  0  0  0  0  0  0  0  0  0  0
   42.6708   19.0113   18.7536 C   0  0  0  0  0  0  0  0  0  0  0  0
   43.7844   18.4120   18.3228 N   0  0  0  0  0  0  0  0  0  0  0  0
   44.8622   19.2039   18.2039 C   0  0  0  0  0  0  0  0  0  0  0  0
   44.8912   20.5511   18.5131 C   0  0  0  0  0  0  0  0  0  0  0  0
   41.4547   18.1633   18.8800 C   0  0  0  0  0  0  0  0  0  0  0  0
   44.1328   24.3130   20.2614 N   0  0  0  0  0  0  0  0  0  0  0  0
   44.5273   23.0293   20.2481 N   0  0  0  0  0  0  0  0  0  0  0  0
   43.6744   22.5155   19.3593 C   0  0  0  0  0  0  0  0  0  0  0  0
   42.7946   23.4215   18.8267 N   0  0  0  0  0  0  0  0  0  0  0  0
   43.1044   24.5503   19.4025 C   0  0  0  0  0  0  0  0  0  0  0  0
   44.7848   25.3197   21.0757 C   0  0  0  0  0  0  0  0  0  0  0  0
   45.8972   26.0460   20.3319 C   0  0  0  0  0  0  0  0  0  0  0  0
   45.4496   27.4515   19.9780 C   0  0  0  0  0  0  0  0  0  0  0  0
   46.5641   28.2316   19.3008 C   0  0  0  0  0  0  0  0  0  0  0  0
   46.8988   27.4888   18.0273 C   0  0  0  0  0  0  0  0  0  0  0  0
   47.4525   26.1080   18.3035 C   0  0  0  0  0  0  0  0  0  0  0  0
   46.4626   25.2923   19.1317 C   0  0  0  0  0  0  0  0  0  0  0  0
   48.0255   28.2558   17.3422 C   0  0  0  0  0  0  0  0  0  0  0  0
   48.7307   27.5122   16.6138 O   0  0  0  0  0  0  0  0  0  0  0  0
   48.1373   29.4969   17.5498 O   0  0  0  0  0  0  0  0  0  0  0  0
   47.5371   29.9321   18.1228 H   0  0  0  0  0  0  0  0  0  0  0  0
   46.1011   18.5453   17.7375 C   0  0  0  0  0  0  0  0  0  0  0  0
   46.6027   17.6200   18.3617 O   0  0  0  0  0  0  0  0  0  0  0  0
   46.5798   19.0494   16.5549 N   0  0  0  0  0  0  0  0  0  0  0  0
   46.1615   19.8605   16.1855 H   0  0  0  0  0  0  0  0  0  0  0  0
   47.6738   18.4408   15.8256 C   0  0  0  0  0  0  0  0  0  0  0  0
   47.3152   17.3145   14.9056 C   0  0  0  0  0  0  0  0  0  0  0  0
   45.9815   16.9815   14.7751 C   0  0  0  0  0  0  0  0  0  0  0  0
   45.6026   15.9533   13.9387 C   0  0  0  0  0  0  0  0  0  0  0  0
   46.5595   15.2527   13.2414 C   0  0  0  0  0  0  0  0  0  0  0  0
   47.8961   15.5648   13.3650 C   0  0  0  0  0  0  0  0  0  0  0  0
   48.2668   16.6006   14.2012 C   0  0  0  0  0  0  0  0  0  0  0  0
   46.1702   14.2489   12.4368 F   0  0  0  0  0  0  0  0  0  0  0  0
 13 14  1  0  0  0
 15 14  1  0  0  0
 14 19  1  0  0  0
 15 16  1  0  0  0
 16 17  1  0  0  0
 17 18  1  0  0  0
 17 20  1  0  0  0
 19 18  1  0  0  0
 13  8  1  0  0  0
 12  8  1  0  0  0
  8  9  1  0  0  0
 10  9  2  0  0  0
 11 10  1  0  0  0
 10  1  1  0  0  0
 12 11  2  0  0  0
  6  1  2  0  0  0
  1  2  1  0  0  0
  2  3  2  0  0  0
  3  4  1  0  0  0
  3  7  1  0  0  0
  5  4  2  0  0  0
  6  5  1  0  0  0
  5 24  1  0  0  0
 25 24  2  0  0  0
 24 26  1  0  0  0
 26 28  1  0  0  0
 28 29  1  0  0  0
 29 30  2  0  0  0
 29 34  1  0  0  0
 30 31  1  0  0  0
 31 32  2  0  0  0
 33 32  1  0  0  0
 32 35  1  0  0  0
 34 33  2  0  0  0
 20 21  2  0  0  0
 20 22  1  0  0  0
 26 27  1  0  0  0
 22 23  1  0  0  0
M  END
> <minimizedAffinity>
-10.58706

$$$$
3KEK_3EK_A_801


 35 38  0  0  0  0  0  0  0  0999 V2000
   46.8053   16.7581   15.5384 C   0  0  0  0  0  0  0  0  0  0  0  0
   48.0046   16.9275   14.8750 C   0  0  0  0  0  0  0  0  0  0  0  0
   48.0851   16.5719   13.5453 C   0  0  0  0  0  0  0  0  0  0  0  0
   47.0681   16.0615   12.8453 N   0  0  0  0  0  0  0  0  0  0  0  0
   45.9215   15.8938   13.5236 C   0  0  0  0  0  0  0  0  0  0  0  0
   45.7324   16.2289   14.8515 C   0  0  0  0  0  0  0  0  0  0  0  0
   49.3744   16.7544   12.8254 C   0  0  0  0  0  0  0  0  0  0  0  0
   46.5059   18.3860   18.5787 N   0  0  0  0  0  0  0  0  0  0  0  0
   46.6806   18.4792   17.2503 N   0  0  0  0  0  0  0  0  0  0  0  0
   46.6835   17.1891   16.9080 C   0  0  0  0  0  0  0  0  0  0  0  0
   46.5080   16.3230   17.9557 N   0  0  0  0  0  0  0  0  0  0  0  0
   46.3907   17.0970   18.9992 C   0  0  0  0  0  0  0  0  0  0  0  0
   46.4056   19.5516   19.4346 C   0  0  0  0  0  0  0  0  0  0  0  0
   45.3006   20.5050   19.0007 C   0  0  0  0  0  0  0  0  0  0  0  0
   45.3828   21.7899   19.8026 C   0  0  0  0  0  0  0  0  0  0  0  0
   44.3405   22.7955   19.3424 C   0  0  0  0  0  0  0  0  0  0  0  0
   42.9907   22.1565   19.5780 C   0  0  0  0  0  0  0  0  0  0  0  0
   42.7920   20.9190   18.7303 C   0  0  0  0  0  0  0  0  0  0  0  0
   43.8986   19.9028   19.0025 C   0  0  0  0  0  0  0  0  0  0  0  0
   41.9340   23.1518   19.1092 C   0  0  0  0  0  0  0  0  0  0  0  0
   41.2037   22.6763   18.2029 O   0  0  0  0  0  0  0  0  0  0  0  0
   41.8854   24.2938   19.6473 O   0  0  0  0  0  0  0  0  0  0  0  0
   42.4972   24.5214   20.3195 H   0  0  0  0  0  0  0  0  0  0  0  0
   44.7885   15.3388   12.7527 C   0  0  0  0  0  0  0  0  0  0  0  0
   43.8920   14.7127   13.3020 O   0  0  0  0  0  0  0  0  0  0  0  0
   44.8414   15.6278   11.4127 N   0  0  0  0  0  0  0  0  0  0  0  0
   45.6555   16.0497   11.0541 H   0  0  0  0  0  0  0  0  0  0  0  0
   43.7522   15.3397   10.5019 C   0  0  0  0  0  0  0  0  0  0  0  0
   42.7544   16.4364   10.2897 C   0  0  0  0  0  0  0  0  0  0  0  0
   41.5738   16.3883   11.0044 C   0  0  0  0  0  0  0  0  0  0  0  0
   40.6259   17.3762   10.8440 C   0  0  0  0  0  0  0  0  0  0  0  0
   40.8559   18.4061    9.9612 C   0  0  0  0  0  0  0  0  0  0  0  0
   42.0242   18.4669    9.2330 C   0  0  0  0  0  0  0  0  0  0  0  0
   42.9716   17.4755    9.4039 C   0  0  0  0  0  0  0  0  0  0  0  0
   39.9159   19.3556    9.8139 F   0  0  0  0  0  0  0  0  0  0  0  0
 13 14  1  0  0  0
 15 14  1  0  0  0
 14 19  1  0  0  0
 15 16  1  0  0  0
 16 17  1  0  0  0
 17 18  1  0  0  0
 17 20  1  0  0  0
 19 18  1  0  0  0
 13  8  1  0  0  0
 12  8  1  0  0  0
  8  9  1  0  0  0
 10  9  2  0  0  0
 11 10  1  0  0  0
 10  1  1  0  0  0
 12 11  2  0  0  0
  6  1  2  0  0  0
  1  2  1  0  0  0
  2  3  2  0  0  0
  3  4  1  0  0  0
  3  7  1  0  0  0
  5  4  2  0  0  0
  6  5  1  0  0  0
  5 24  1  0  0  0
 25 24  2  0  0  0
 24 26  1  0  0  0
 26 28  1  0  0  0
 28 29  1  0  0  0
 29 30  2  0  0  0
 29 34  1  0  0  0
 30 31  1  0  0  0
 31 32  2  0  0  0
 33 32  1  0  0  0
 32 35  1  0  0  0
 34 33  2  0  0  0
 20 21  2  0  0  0
 20 22  1  0  0  0
 26 27  1  0  0  0
 22 23  1  0  0  0
M  END
> <minimizedAffinity>
-10.55732

$$$$
3KEK_3EK_A_801


 35 38  0  0  0  0  0  0  0  0999 V2000
   46.0683   16.5877   16.6147 C   0  0  0  0  0  0  0  0  0  0  0  0
   46.7975   15.4779   16.9938 C   0  0  0  0  0  0  0  0  0  0  0  0
   47.1655   14.5631   16.0301 C   0  0  0  0  0  0  0  0  0  0  0  0
   46.8552   14.6755   14.7356 N   0  0  0  0  0  0  0  0  0  0  0  0
   46.1316   15.7565   14.4029 C   0  0  0  0  0  0  0  0  0  0  0  0
   45.7236   16.7375   15.2875 C   0  0  0  0  0  0  0  0  0  0  0  0
   47.9531   13.3667   16.4330 C   0  0  0  0  0  0  0  0  0  0  0  0
   44.7202   19.0484   18.6422 N   0  0  0  0  0  0  0  0  0  0  0  0
   44.6143   18.3095   17.5257 N   0  0  0  0  0  0  0  0  0  0  0  0
   45.7355   17.5888   17.5963 C   0  0  0  0  0  0  0  0  0  0  0  0
   46.5062   17.8439   18.7007 N   0  0  0  0  0  0  0  0  0  0  0  0
   45.8456   18.7616   19.3512 C   0  0  0  0  0  0  0  0  0  0  0  0
   43.7050   20.0019   19.0442 C   0  0  0  0  0  0  0  0  0  0  0  0
   44.1302   21.4452   18.8109 C   0  0  0  0  0  0  0  0  0  0  0  0
   44.9929   21.9221   19.9639 C   0  0  0  0  0  0  0  0  0  0  0  0
   45.4983   23.3355   19.7273 C   0  0  0  0  0  0  0  0  0  0  0  0
   44.2764   24.2205   19.6309 C   0  0  0  0  0  0  0  0  0  0  0  0
   43.4144   23.8712   18.4374 C   0  0  0  0  0  0  0  0  0  0  0  0
   42.9872   22.4065   18.4985 C   0  0  0  0  0  0  0  0  0  0  0  0
   44.7695   25.6424   19.3816 C   0  0  0  0  0  0  0  0  0  0  0  0
   45.4959   25.7198   18.3583 O   0  0  0  0  0  0  0  0  0  0  0  0
   44.4180   26.5612   20.1742 O   0  0  0  0  0  0  0  0  0  0  0  0
   43.8676   26.3634   20.9062 H   0  0  0  0  0  0  0  0  0  0  0  0
   45.7931   15.8930   12.9700 C   0  0  0  0  0  0  0  0  0  0  0  0
   46.5742   16.4035   12.1783 O   0  0  0  0  0  0  0  0  0  0  0  0
   44.5681   15.3697   12.6423 N   0  0  0  0  0  0  0  0  0  0  0  0
   43.9733   15.0736   13.3688 H   0  0  0  0  0  0  0  0  0  0  0  0
   44.1111   15.2335   11.2742 C   0  0  0  0  0  0  0  0  0  0  0  0
   43.0859   16.2236   10.8135 C   0  0  0  0  0  0  0  0  0  0  0  0
   43.4544   17.1388    9.8473 C   0  0  0  0  0  0  0  0  0  0  0  0
   42.5448   18.0684    9.3904 C   0  0  0  0  0  0  0  0  0  0  0  0
   41.2702   18.0877    9.9079 C   0  0  0  0  0  0  0  0  0  0  0  0
   40.8863   17.1879   10.8786 C   0  0  0  0  0  0  0  0  0  0  0  0
   41.8027   16.2558   11.3269 C   0  0  0  0  0  0  0  0  0  0  0  0
   40.4004   19.0066    9.4544 F   0  0  0  0  0  0  0  0  0  0  0  0
 13 14  1  0  0  0
 15 14  1  0  0  0
 14 19  1  0  0  0
 15 16  1  0  0  0
 16 17  1  0  0  0
 17 18  1  0  0  0
 17 20  1  0  0  0
 19 18  1  0  0  0
 13  8  1  0  0  0
 12  8  1  0  0  0
  8  9  1  0  0  0
 10  9  2  0  0  0
 11 10  1  0  0  0
 10  1  1  0  0  0
 12 11  2  0  0  0
  6  1  2  0  0  0
  1  2  1  0  0  0
  2  3  2  0  0  0
  3  4  1  0  0  0
  3  7  1  0  0  0
  5  4  2  0  0  0
  6  5  1  0  0  0
  5 24  1  0  0  0
 25 24  2  0  0  0
 24 26  1  0  0  0
 26 28  1  0  0  0
 28 29  1  0  0  0
 29 30  2  0  0  0
 29 34  1  0  0  0
 30 31  1  0  0  0
 31 32  2  0  0  0
 33 32  1  0  0  0
 32 35  1  0  0  0
 34 33  2  0  0  0
 20 21  2  0  0  0
 20 22  1  0  0  0
 26 27  1  0  0  0
 22 23  1  0  0  0
M  END
> <minimizedAffinity>
-10.03914

$$$$
