2I4X_KGQ_B_300


 51 54  0  0  0  0  0  0  0  0999 V2000
   15.8200   24.5526   16.1284 C   0  0  0  0  0  0  0  0  0  0  0  0
   17.0652   25.2994   16.0957 N   0  0  0  0  0  0  0  0  0  0  0  0
   17.5159   25.9124   14.9880 C   0  0  0  0  0  0  0  0  0  0  0  0
   16.9355   25.9115   13.9034 O   0  0  0  0  0  0  0  0  0  0  0  0
   17.6014   25.3591   16.9192 H   0  0  0  0  0  0  0  0  0  0  0  0
   18.6991   26.5104   15.2435 O   0  0  0  0  0  0  0  0  0  0  0  0
   20.9630   27.1275   14.3567 C   0  0  0  0  0  0  0  0  0  0  0  0
   19.4346   27.0809   14.1373 C   0  0  0  0  0  0  0  0  0  0  0  0
   19.0769   28.5793   14.1104 C   0  0  0  0  0  0  0  0  0  0  0  0
   19.8454   29.0492   15.2218 O   0  0  0  0  0  0  0  0  0  0  0  0
   21.1521   28.4820   15.0993 C   0  0  0  0  0  0  0  0  0  0  0  0
   21.7167   28.1647   16.3882 O   0  0  0  0  0  0  0  0  0  0  0  0
   21.3462   26.8254   16.7326 C   0  0  0  0  0  0  0  0  0  0  0  0
   21.5378   26.1140   15.3836 C   0  0  0  0  0  0  0  0  0  0  0  0
   15.5806   24.0697   17.5864 C   0  0  0  0  0  0  0  0  0  0  0  0
   14.2899   24.5139   17.9958 O   0  0  0  0  0  0  0  0  0  0  0  0
   14.2650   25.4836   17.9905 H   0  0  0  0  0  0  0  0  0  0  0  0
   16.5868   24.6385   18.6339 C   0  0  0  0  0  0  0  0  0  0  0  0
   17.1452   23.5848   19.5305 N   0  0  0  0  0  0  0  0  0  0  0  0
   17.4121   22.0535   18.8773 S   0  0  0  0  0  0  0  0  0  0  0  0
   17.7662   22.2252   17.4875 O   0  0  0  0  0  0  0  0  0  0  0  0
   18.3676   21.3263   19.6814 O   0  0  0  0  0  0  0  0  0  0  0  0
   15.8329   21.2084   18.9301 C   0  0  0  0  0  0  0  0  0  0  0  0
   14.9998   21.3370   20.0596 C   0  0  0  0  0  0  0  0  0  0  0  0
   13.7653   20.6794   20.1177 C   0  0  0  0  0  0  0  0  0  0  0  0
   13.3344   19.8809   19.0412 C   0  0  0  0  0  0  0  0  0  0  0  0
   14.1644   19.7540   17.9125 C   0  0  0  0  0  0  0  0  0  0  0  0
   15.4028   20.4140   17.8544 C   0  0  0  0  0  0  0  0  0  0  0  0
   12.1038   19.2204   19.0912 O   0  0  0  0  0  0  0  0  0  0  0  0
   11.6338   18.5905   20.2923 C   0  0  0  0  0  0  0  0  0  0  0  0
   18.1640   24.0113   20.5389 C   0  0  0  0  0  0  0  0  0  0  0  0
   19.3016   24.9465   20.0106 C   0  0  0  0  0  0  0  0  0  0  0  0
   20.4279   24.0833   19.4003 C   0  0  0  0  0  0  0  0  0  0  0  0
   19.9206   25.8011   21.1466 C   0  0  0  0  0  0  0  0  0  0  0  0
   15.9461   23.3625   15.1231 C   0  0  0  0  0  0  0  0  0  0  0  0
   14.5914   22.7019   14.8482 C   0  0  0  0  0  0  0  0  0  0  0  0
   13.4126   23.4691   14.8382 C   0  0  0  0  0  0  0  0  0  0  0  0
   12.1702   22.8716   14.5746 C   0  0  0  0  0  0  0  0  0  0  0  0
   12.0860   21.4896   14.3184 C   0  0  0  0  0  0  0  0  0  0  0  0
   13.2633   20.7101   14.3312 C   0  0  0  0  0  0  0  0  0  0  0  0
   14.5078   21.3153   14.5966 C   0  0  0  0  0  0  0  0  0  0  0  0
   10.8402   20.9002   14.0504 O   0  0  0  0  0  0  0  0  0  0  0  0
   10.1109   20.3824   15.1696 C   0  0  0  0  0  0  0  0  0  0  0  0
    9.7351   18.6228   14.8651 P   0  0  0  0  0  0  0  0  0  0  0  0
    8.7800   18.5241   13.7203 O   0  0  0  0  0  0  0  0  0  0  0  0
   11.0633   17.8102   14.5184 O   0  0  0  0  0  0  0  0  0  0  0  0
   11.2685   17.0288   13.3425 C   0  0  0  0  0  0  0  0  0  0  0  0
   12.5023   17.5893   12.5990 C   0  0  0  0  0  0  0  0  0  0  0  0
    9.0789   17.9669   16.1669 O   0  0  0  0  0  0  0  0  0  0  0  0
    9.1426   16.5681   16.4957 C   0  0  0  0  0  0  0  0  0  0  0  0
   10.2002   16.3597   17.6069 C   0  0  0  0  0  0  0  0  0  0  0  0
  2  1  1  0  0  0
  2  3  1  0  0  0
  7 14  1  0  0  0
  7  8  1  0  0  0
  7 11  1  0  0  0
 42 43  1  0  0  0
 42 39  1  0  0  0
  1 35  1  0  0  0
  1 15  1  0  0  0
 35 36  1  0  0  0
 36 37  2  0  0  0
 36 41  1  0  0  0
 37 38  1  0  0  0
 38 39  2  0  0  0
 39 40  1  0  0  0
 43 44  1  0  0  0
 44 46  1  0  0  0
 44 49  1  0  0  0
 44 45  2  0  0  0
 49 50  1  0  0  0
 50 51  1  0  0  0
 46 47  1  0  0  0
 47 48  1  0  0  0
 40 41  2  0  0  0
 15 18  1  0  0  0
 15 16  1  0  0  0
 18 19  1  0  0  0
 19 20  1  0  0  0
 19 31  1  0  0  0
 31 32  1  0  0  0
 32 34  1  0  0  0
 32 33  1  0  0  0
 20 22  2  0  0  0
 20 23  1  0  0  0
 20 21  2  0  0  0
 23 28  2  0  0  0
 23 24  1  0  0  0
 24 25  2  0  0  0
 25 26  1  0  0  0
 26 29  1  0  0  0
 26 27  2  0  0  0
 29 30  1  0  0  0
 27 28  1  0  0  0
  3  4  2  0  0  0
  3  6  1  0  0  0
  6  8  1  0  0  0
  8  9  1  0  0  0
  9 10  1  0  0  0
 10 11  1  0  0  0
 11 12  1  0  0  0
 12 13  1  0  0  0
 13 14  1  0  0  0
  2  5  1  0  0  0
 16 17  1  0  0  0
M  END
> <minimizedAffinity>
-9.31786

$$$$
2I4X_KGQ_B_300


 51 54  0  0  0  0  0  0  0  0999 V2000
   14.1778   22.4843   17.0043 C   0  0  0  0  0  0  0  0  0  0  0  0
   13.2732   21.5934   17.7097 N   0  0  0  0  0  0  0  0  0  0  0  0
   13.6423   20.3752   18.1403 C   0  0  0  0  0  0  0  0  0  0  0  0
   14.7631   19.8909   17.9909 O   0  0  0  0  0  0  0  0  0  0  0  0
   12.3514   21.8946   17.8794 H   0  0  0  0  0  0  0  0  0  0  0  0
   12.5990   19.7659   18.7429 O   0  0  0  0  0  0  0  0  0  0  0  0
   11.8570   17.4022   19.1365 C   0  0  0  0  0  0  0  0  0  0  0  0
   12.8447   18.5417   19.4716 C   0  0  0  0  0  0  0  0  0  0  0  0
   12.4921   18.8384   20.9419 C   0  0  0  0  0  0  0  0  0  0  0  0
   11.0632   18.8336   20.8718 O   0  0  0  0  0  0  0  0  0  0  0  0
   10.6830   17.6783   20.1201 C   0  0  0  0  0  0  0  0  0  0  0  0
    9.5203   17.9334   19.3055 O   0  0  0  0  0  0  0  0  0  0  0  0
    9.9530   18.4190   18.0301 C   0  0  0  0  0  0  0  0  0  0  0  0
   11.1496   17.4939   17.7568 C   0  0  0  0  0  0  0  0  0  0  0  0
   14.4650   23.7089   17.9177 C   0  0  0  0  0  0  0  0  0  0  0  0
   13.2846   24.5051   17.9781 O   0  0  0  0  0  0  0  0  0  0  0  0
   13.0702   24.8333   17.0909 H   0  0  0  0  0  0  0  0  0  0  0  0
   15.5974   24.6515   17.4055 C   0  0  0  0  0  0  0  0  0  0  0  0
   16.9487   24.0231   17.4763 N   0  0  0  0  0  0  0  0  0  0  0  0
   17.8212   23.8650   16.0422 S   0  0  0  0  0  0  0  0  0  0  0  0
   18.9124   22.9520   16.2911 O   0  0  0  0  0  0  0  0  0  0  0  0
   16.9382   23.5037   14.9567 O   0  0  0  0  0  0  0  0  0  0  0  0
   18.5320   25.4765   15.7125 C   0  0  0  0  0  0  0  0  0  0  0  0
   18.1307   26.2069   14.5760 C   0  0  0  0  0  0  0  0  0  0  0  0
   18.6801   27.4652   14.3024 C   0  0  0  0  0  0  0  0  0  0  0  0
   19.6417   28.0234   15.1659 C   0  0  0  0  0  0  0  0  0  0  0  0
   20.0410   27.2960   16.3018 C   0  0  0  0  0  0  0  0  0  0  0  0
   19.4895   26.0337   16.5762 C   0  0  0  0  0  0  0  0  0  0  0  0
   20.1957   29.2786   14.8999 O   0  0  0  0  0  0  0  0  0  0  0  0
   21.4642   29.4197   14.2432 C   0  0  0  0  0  0  0  0  0  0  0  0
   17.7859   24.3297   18.6770 C   0  0  0  0  0  0  0  0  0  0  0  0
   17.6374   23.3468   19.8852 C   0  0  0  0  0  0  0  0  0  0  0  0
   18.9019   23.4310   20.7685 C   0  0  0  0  0  0  0  0  0  0  0  0
   17.4817   21.8767   19.4176 C   0  0  0  0  0  0  0  0  0  0  0  0
   13.4967   22.8952   15.6589 C   0  0  0  0  0  0  0  0  0  0  0  0
   12.8108   21.7054   14.9800 C   0  0  0  0  0  0  0  0  0  0  0  0
   13.5751   20.6690   14.4145 C   0  0  0  0  0  0  0  0  0  0  0  0
   12.9519   19.5703   13.8022 C   0  0  0  0  0  0  0  0  0  0  0  0
   11.5473   19.4917   13.7428 C   0  0  0  0  0  0  0  0  0  0  0  0
   10.7715   20.5298   14.3033 C   0  0  0  0  0  0  0  0  0  0  0  0
   11.4025   21.6304   14.9166 C   0  0  0  0  0  0  0  0  0  0  0  0
   10.9315   18.3869   13.1333 O   0  0  0  0  0  0  0  0  0  0  0  0
   11.3016   17.0887   13.6132 C   0  0  0  0  0  0  0  0  0  0  0  0
    9.7980   16.2131   14.1634 P   0  0  0  0  0  0  0  0  0  0  0  0
    8.8093   17.2169   14.6608 O   0  0  0  0  0  0  0  0  0  0  0  0
    9.1527   15.3837   12.9633 O   0  0  0  0  0  0  0  0  0  0  0  0
    9.8840   14.6928   11.9517 C   0  0  0  0  0  0  0  0  0  0  0  0
    9.1370   13.3790   11.6274 C   0  0  0  0  0  0  0  0  0  0  0  0
   10.1562   15.1886   15.3371 O   0  0  0  0  0  0  0  0  0  0  0  0
    9.2073   14.3171   15.9767 C   0  0  0  0  0  0  0  0  0  0  0  0
    9.4623   12.8640   15.5073 C   0  0  0  0  0  0  0  0  0  0  0  0
  2  1  1  0  0  0
  2  3  1  0  0  0
  7 14  1  0  0  0
  7  8  1  0  0  0
  7 11  1  0  0  0
 42 43  1  0  0  0
 42 39  1  0  0  0
  1 35  1  0  0  0
  1 15  1  0  0  0
 35 36  1  0  0  0
 36 37  2  0  0  0
 36 41  1  0  0  0
 37 38  1  0  0  0
 38 39  2  0  0  0
 39 40  1  0  0  0
 43 44  1  0  0  0
 44 46  1  0  0  0
 44 49  1  0  0  0
 44 45  2  0  0  0
 49 50  1  0  0  0
 50 51  1  0  0  0
 46 47  1  0  0  0
 47 48  1  0  0  0
 40 41  2  0  0  0
 15 18  1  0  0  0
 15 16  1  0  0  0
 18 19  1  0  0  0
 19 20  1  0  0  0
 19 31  1  0  0  0
 31 32  1  0  0  0
 32 34  1  0  0  0
 32 33  1  0  0  0
 20 22  2  0  0  0
 20 23  1  0  0  0
 20 21  2  0  0  0
 23 28  2  0  0  0
 23 24  1  0  0  0
 24 25  2  0  0  0
 25 26  1  0  0  0
 26 29  1  0  0  0
 26 27  2  0  0  0
 29 30  1  0  0  0
 27 28  1  0  0  0
  3  4  2  0  0  0
  3  6  1  0  0  0
  6  8  1  0  0  0
  8  9  1  0  0  0
  9 10  1  0  0  0
 10 11  1  0  0  0
 11 12  1  0  0  0
 12 13  1  0  0  0
 13 14  1  0  0  0
  2  5  1  0  0  0
 16 17  1  0  0  0
M  END
> <minimizedAffinity>
-9.13622

$$$$
2I4X_KGQ_B_300


 51 54  0  0  0  0  0  0  0  0999 V2000
   13.4051   21.7250   15.8157 C   0  0  0  0  0  0  0  0  0  0  0  0
   12.7459   21.1144   16.9567 N   0  0  0  0  0  0  0  0  0  0  0  0
   13.3524   20.2163   17.7513 C   0  0  0  0  0  0  0  0  0  0  0  0
   14.5085   19.8223   17.6056 O   0  0  0  0  0  0  0  0  0  0  0  0
   11.8161   21.3691   17.1564 H   0  0  0  0  0  0  0  0  0  0  0  0
   12.5003   19.8069   18.7152 O   0  0  0  0  0  0  0  0  0  0  0  0
   11.8300   17.4124   19.0462 C   0  0  0  0  0  0  0  0  0  0  0  0
   12.7870   18.5702   19.4069 C   0  0  0  0  0  0  0  0  0  0  0  0
   12.4375   18.8147   20.8875 C   0  0  0  0  0  0  0  0  0  0  0  0
   11.0089   18.7703   20.8273 O   0  0  0  0  0  0  0  0  0  0  0  0
   10.6563   17.6262   20.0456 C   0  0  0  0  0  0  0  0  0  0  0  0
    9.4803   17.8703   19.2467 O   0  0  0  0  0  0  0  0  0  0  0  0
    9.8888   18.4042   17.9828 C   0  0  0  0  0  0  0  0  0  0  0  0
   11.1095   17.5226   17.6747 C   0  0  0  0  0  0  0  0  0  0  0  0
   14.0068   23.0839   16.2713 C   0  0  0  0  0  0  0  0  0  0  0  0
   13.2914   24.1287   15.6174 O   0  0  0  0  0  0  0  0  0  0  0  0
   13.4114   24.0514   14.6580 H   0  0  0  0  0  0  0  0  0  0  0  0
   15.5078   23.2884   15.8995 C   0  0  0  0  0  0  0  0  0  0  0  0
   16.3167   23.8226   17.0337 N   0  0  0  0  0  0  0  0  0  0  0  0
   16.7563   22.7537   18.2613 S   0  0  0  0  0  0  0  0  0  0  0  0
   15.6500   22.6692   19.1861 O   0  0  0  0  0  0  0  0  0  0  0  0
   17.1978   21.4985   17.6973 O   0  0  0  0  0  0  0  0  0  0  0  0
   18.1233   23.5248   19.1260 C   0  0  0  0  0  0  0  0  0  0  0  0
   17.8762   24.3833   20.2159 C   0  0  0  0  0  0  0  0  0  0  0  0
   18.9333   24.9967   20.8987 C   0  0  0  0  0  0  0  0  0  0  0  0
   20.2646   24.7589   20.5075 C   0  0  0  0  0  0  0  0  0  0  0  0
   20.5122   23.9002   19.4211 C   0  0  0  0  0  0  0  0  0  0  0  0
   19.4514   23.2848   18.7364 C   0  0  0  0  0  0  0  0  0  0  0  0
   21.3258   25.3677   21.1831 O   0  0  0  0  0  0  0  0  0  0  0  0
   22.6675   24.8665   21.0881 C   0  0  0  0  0  0  0  0  0  0  0  0
   17.3524   24.8525   16.7125 C   0  0  0  0  0  0  0  0  0  0  0  0
   17.9455   24.8001   15.2656 C   0  0  0  0  0  0  0  0  0  0  0  0
   19.4880   24.7927   15.3476 C   0  0  0  0  0  0  0  0  0  0  0  0
   17.5205   26.0301   14.4227 C   0  0  0  0  0  0  0  0  0  0  0  0
   12.3431   21.8975   14.6819 C   0  0  0  0  0  0  0  0  0  0  0  0
   11.7016   20.5617   14.2930 C   0  0  0  0  0  0  0  0  0  0  0  0
   12.4782   19.5363   13.7242 C   0  0  0  0  0  0  0  0  0  0  0  0
   11.8984   18.3059   13.3774 C   0  0  0  0  0  0  0  0  0  0  0  0
   10.5251   18.0814   13.5924 C   0  0  0  0  0  0  0  0  0  0  0  0
    9.7362   19.1065   14.1583 C   0  0  0  0  0  0  0  0  0  0  0  0
   10.3236   20.3398   14.5043 C   0  0  0  0  0  0  0  0  0  0  0  0
    9.9537   16.8460   13.2477 O   0  0  0  0  0  0  0  0  0  0  0  0
   10.5569   15.6719   13.8045 C   0  0  0  0  0  0  0  0  0  0  0  0
    9.2730   14.7003   14.6633 P   0  0  0  0  0  0  0  0  0  0  0  0
    8.0684   15.5616   14.8628 O   0  0  0  0  0  0  0  0  0  0  0  0
    8.8691   13.4140   13.8108 O   0  0  0  0  0  0  0  0  0  0  0  0
    8.0341   13.4205   12.6539 C   0  0  0  0  0  0  0  0  0  0  0  0
    8.6729   12.4969   11.5917 C   0  0  0  0  0  0  0  0  0  0  0  0
    9.8159   14.2035   16.0823 O   0  0  0  0  0  0  0  0  0  0  0  0
    9.0006   13.5978   17.1009 C   0  0  0  0  0  0  0  0  0  0  0  0
    8.7547   14.6296   18.2286 C   0  0  0  0  0  0  0  0  0  0  0  0
  2  1  1  0  0  0
  2  3  1  0  0  0
  7 14  1  0  0  0
  7  8  1  0  0  0
  7 11  1  0  0  0
 42 43  1  0  0  0
 42 39  1  0  0  0
  1 35  1  0  0  0
  1 15  1  0  0  0
 35 36  1  0  0  0
 36 37  2  0  0  0
 36 41  1  0  0  0
 37 38  1  0  0  0
 38 39  2  0  0  0
 39 40  1  0  0  0
 43 44  1  0  0  0
 44 46  1  0  0  0
 44 49  1  0  0  0
 44 45  2  0  0  0
 49 50  1  0  0  0
 50 51  1  0  0  0
 46 47  1  0  0  0
 47 48  1  0  0  0
 40 41  2  0  0  0
 15 18  1  0  0  0
 15 16  1  0  0  0
 18 19  1  0  0  0
 19 20  1  0  0  0
 19 31  1  0  0  0
 31 32  1  0  0  0
 32 34  1  0  0  0
 32 33  1  0  0  0
 20 22  2  0  0  0
 20 23  1  0  0  0
 20 21  2  0  0  0
 23 28  2  0  0  0
 23 24  1  0  0  0
 24 25  2  0  0  0
 25 26  1  0  0  0
 26 29  1  0  0  0
 26 27  2  0  0  0
 29 30  1  0  0  0
 27 28  1  0  0  0
  3  4  2  0  0  0
  3  6  1  0  0  0
  6  8  1  0  0  0
  8  9  1  0  0  0
  9 10  1  0  0  0
 10 11  1  0  0  0
 11 12  1  0  0  0
 12 13  1  0  0  0
 13 14  1  0  0  0
  2  5  1  0  0  0
 16 17  1  0  0  0
M  END
> <minimizedAffinity>
-8.92616

$$$$
2I4X_KGQ_B_300


 51 54  0  0  0  0  0  0  0  0999 V2000
   14.7139   23.5325   16.6622 C   0  0  0  0  0  0  0  0  0  0  0  0
   15.5619   23.5987   17.8395 N   0  0  0  0  0  0  0  0  0  0  0  0
   15.9890   24.7603   18.3628 C   0  0  0  0  0  0  0  0  0  0  0  0
   15.7131   25.8722   17.9148 O   0  0  0  0  0  0  0  0  0  0  0  0
   15.8352   22.7575   18.2719 H   0  0  0  0  0  0  0  0  0  0  0  0
   16.7716   24.5198   19.4364 O   0  0  0  0  0  0  0  0  0  0  0  0
   18.8110   23.0610   19.3656 C   0  0  0  0  0  0  0  0  0  0  0  0
   18.2042   24.4767   19.2475 C   0  0  0  0  0  0  0  0  0  0  0  0
   18.8205   25.1837   20.4699 C   0  0  0  0  0  0  0  0  0  0  0  0
   18.6453   24.1745   21.4686 O   0  0  0  0  0  0  0  0  0  0  0  0
   19.0720   22.9364   20.8947 C   0  0  0  0  0  0  0  0  0  0  0  0
   18.2679   21.8315   21.3566 O   0  0  0  0  0  0  0  0  0  0  0  0
   17.1566   21.6719   20.4684 C   0  0  0  0  0  0  0  0  0  0  0  0
   17.8399   21.8769   19.1069 C   0  0  0  0  0  0  0  0  0  0  0  0
   13.5140   22.5965   16.9791 C   0  0  0  0  0  0  0  0  0  0  0  0
   13.4507   22.4171   18.3914 O   0  0  0  0  0  0  0  0  0  0  0  0
   14.2619   21.9834   18.6989 H   0  0  0  0  0  0  0  0  0  0  0  0
   13.6243   21.1666   16.3655 C   0  0  0  0  0  0  0  0  0  0  0  0
   12.3183   20.6524   15.8595 N   0  0  0  0  0  0  0  0  0  0  0  0
   11.9822   20.8334   14.2172 S   0  0  0  0  0  0  0  0  0  0  0  0
   10.7797   21.6250   14.1004 O   0  0  0  0  0  0  0  0  0  0  0  0
   13.1405   21.3485   13.5234 O   0  0  0  0  0  0  0  0  0  0  0  0
   11.6083   19.1923   13.6025 C   0  0  0  0  0  0  0  0  0  0  0  0
   10.2864   18.7056   13.6453 C   0  0  0  0  0  0  0  0  0  0  0  0
    9.9792   17.4240   13.1730 C   0  0  0  0  0  0  0  0  0  0  0  0
   10.9906   16.6017   12.6412 C   0  0  0  0  0  0  0  0  0  0  0  0
   12.3100   17.0877   12.5959 C   0  0  0  0  0  0  0  0  0  0  0  0
   12.6178   18.3736   13.0696 C   0  0  0  0  0  0  0  0  0  0  0  0
   10.6929   15.3207   12.1681 O   0  0  0  0  0  0  0  0  0  0  0  0
    9.8346   14.4287   12.8947 C   0  0  0  0  0  0  0  0  0  0  0  0
   11.8023   19.3828   16.4584 C   0  0  0  0  0  0  0  0  0  0  0  0
   10.6948   19.5415   17.5520 C   0  0  0  0  0  0  0  0  0  0  0  0
   10.3549   18.1531   18.1377 C   0  0  0  0  0  0  0  0  0  0  0  0
    9.3902   20.1436   16.9693 C   0  0  0  0  0  0  0  0  0  0  0  0
   15.5805   23.0035   15.4739 C   0  0  0  0  0  0  0  0  0  0  0  0
   16.6420   24.0213   15.0445 C   0  0  0  0  0  0  0  0  0  0  0  0
   17.9782   23.8763   15.4588 C   0  0  0  0  0  0  0  0  0  0  0  0
   18.9574   24.7987   15.0582 C   0  0  0  0  0  0  0  0  0  0  0  0
   18.6136   25.8881   14.2351 C   0  0  0  0  0  0  0  0  0  0  0  0
   17.2737   26.0450   13.8181 C   0  0  0  0  0  0  0  0  0  0  0  0
   16.2949   25.1160   14.2234 C   0  0  0  0  0  0  0  0  0  0  0  0
   19.5998   26.8036   13.8344 O   0  0  0  0  0  0  0  0  0  0  0  0
   20.8459   26.7685   14.5406 C   0  0  0  0  0  0  0  0  0  0  0  0
   21.0938   28.3706   15.3784 P   0  0  0  0  0  0  0  0  0  0  0  0
   20.3476   29.4272   14.6305 O   0  0  0  0  0  0  0  0  0  0  0  0
   20.5652   28.3128   16.8823 O   0  0  0  0  0  0  0  0  0  0  0  0
   20.1098   27.1380   17.5515 C   0  0  0  0  0  0  0  0  0  0  0  0
   21.3428   26.3900   18.1078 C   0  0  0  0  0  0  0  0  0  0  0  0
   22.6491   28.7382   15.4139 O   0  0  0  0  0  0  0  0  0  0  0  0
   23.7017   27.8028   15.7075 C   0  0  0  0  0  0  0  0  0  0  0  0
   25.0678   28.5042   15.5111 C   0  0  0  0  0  0  0  0  0  0  0  0
  2  1  1  0  0  0
  2  3  1  0  0  0
  7 14  1  0  0  0
  7  8  1  0  0  0
  7 11  1  0  0  0
 42 43  1  0  0  0
 42 39  1  0  0  0
  1 35  1  0  0  0
  1 15  1  0  0  0
 35 36  1  0  0  0
 36 37  2  0  0  0
 36 41  1  0  0  0
 37 38  1  0  0  0
 38 39  2  0  0  0
 39 40  1  0  0  0
 43 44  1  0  0  0
 44 46  1  0  0  0
 44 49  1  0  0  0
 44 45  2  0  0  0
 49 50  1  0  0  0
 50 51  1  0  0  0
 46 47  1  0  0  0
 47 48  1  0  0  0
 40 41  2  0  0  0
 15 18  1  0  0  0
 15 16  1  0  0  0
 18 19  1  0  0  0
 19 20  1  0  0  0
 19 31  1  0  0  0
 31 32  1  0  0  0
 32 34  1  0  0  0
 32 33  1  0  0  0
 20 22  2  0  0  0
 20 23  1  0  0  0
 20 21  2  0  0  0
 23 28  2  0  0  0
 23 24  1  0  0  0
 24 25  2  0  0  0
 25 26  1  0  0  0
 26 29  1  0  0  0
 26 27  2  0  0  0
 29 30  1  0  0  0
 27 28  1  0  0  0
  3  4  2  0  0  0
  3  6  1  0  0  0
  6  8  1  0  0  0
  8  9  1  0  0  0
  9 10  1  0  0  0
 10 11  1  0  0  0
 11 12  1  0  0  0
 12 13  1  0  0  0
 13 14  1  0  0  0
  2  5  1  0  0  0
 16 17  1  0  0  0
M  END
> <minimizedAffinity>
-8.76290

$$$$
2I4X_KGQ_B_300


 51 54  0  0  0  0  0  0  0  0999 V2000
   15.3355   24.4042   15.5968 C   0  0  0  0  0  0  0  0  0  0  0  0
   15.9493   24.0579   16.8667 N   0  0  0  0  0  0  0  0  0  0  0  0
   15.8647   24.8445   17.9529 C   0  0  0  0  0  0  0  0  0  0  0  0
   15.2687   25.9199   17.9925 O   0  0  0  0  0  0  0  0  0  0  0  0
   16.4481   23.2119   16.9345 H   0  0  0  0  0  0  0  0  0  0  0  0
   16.5403   24.2844   18.9789 O   0  0  0  0  0  0  0  0  0  0  0  0
   18.0822   22.3064   19.0268 C   0  0  0  0  0  0  0  0  0  0  0  0
   17.8854   23.8115   18.7402 C   0  0  0  0  0  0  0  0  0  0  0  0
   18.7667   24.4546   19.8282 C   0  0  0  0  0  0  0  0  0  0  0  0
   18.3959   23.6651   20.9621 O   0  0  0  0  0  0  0  0  0  0  0  0
   18.4160   22.2971   20.5468 C   0  0  0  0  0  0  0  0  0  0  0  0
   17.3749   21.5318   21.1880 O   0  0  0  0  0  0  0  0  0  0  0  0
   16.1976   21.5907   20.3755 C   0  0  0  0  0  0  0  0  0  0  0  0
   16.8033   21.4268   18.9724 C   0  0  0  0  0  0  0  0  0  0  0  0
   14.0944   23.4910   15.3914 C   0  0  0  0  0  0  0  0  0  0  0  0
   13.0018   24.0572   16.1101 O   0  0  0  0  0  0  0  0  0  0  0  0
   13.2116   24.0739   17.0570 H   0  0  0  0  0  0  0  0  0  0  0  0
   14.2601   22.0367   15.9305 C   0  0  0  0  0  0  0  0  0  0  0  0
   13.0555   21.1900   15.6893 N   0  0  0  0  0  0  0  0  0  0  0  0
   12.4124   21.1588   14.1311 S   0  0  0  0  0  0  0  0  0  0  0  0
   11.4515   22.2326   14.0316 O   0  0  0  0  0  0  0  0  0  0  0  0
   13.4745   21.1766   13.1512 O   0  0  0  0  0  0  0  0  0  0  0  0
   11.5115   19.6157   13.9959 C   0  0  0  0  0  0  0  0  0  0  0  0
   12.1484   18.4680   13.4827 C   0  0  0  0  0  0  0  0  0  0  0  0
   11.4567   17.2564   13.3666 C   0  0  0  0  0  0  0  0  0  0  0  0
   10.1103   17.1659   13.7680 C   0  0  0  0  0  0  0  0  0  0  0  0
    9.4746   18.3105   14.2826 C   0  0  0  0  0  0  0  0  0  0  0  0
   10.1689   19.5259   14.3990 C   0  0  0  0  0  0  0  0  0  0  0  0
    9.4121   15.9605   13.6550 O   0  0  0  0  0  0  0  0  0  0  0  0
    9.9348   14.7333   14.1849 C   0  0  0  0  0  0  0  0  0  0  0  0
   12.9781   19.8845   16.4148 C   0  0  0  0  0  0  0  0  0  0  0  0
   12.2240   19.9058   17.7855 C   0  0  0  0  0  0  0  0  0  0  0  0
   13.2456   19.7347   18.9314 C   0  0  0  0  0  0  0  0  0  0  0  0
   11.1912   18.7544   17.8941 C   0  0  0  0  0  0  0  0  0  0  0  0
   16.4067   24.2092   14.4754 C   0  0  0  0  0  0  0  0  0  0  0  0
   17.6436   25.0821   14.7100 C   0  0  0  0  0  0  0  0  0  0  0  0
   17.6310   26.4451   14.3631 C   0  0  0  0  0  0  0  0  0  0  0  0
   18.7570   27.2527   14.5872 C   0  0  0  0  0  0  0  0  0  0  0  0
   19.9205   26.7065   15.1622 C   0  0  0  0  0  0  0  0  0  0  0  0
   19.9446   25.3380   15.5092 C   0  0  0  0  0  0  0  0  0  0  0  0
   18.8113   24.5321   15.2818 C   0  0  0  0  0  0  0  0  0  0  0  0
   21.0409   27.5220   15.3880 O   0  0  0  0  0  0  0  0  0  0  0  0
   21.4982   27.6397   16.7407 C   0  0  0  0  0  0  0  0  0  0  0  0
   23.2650   27.1880   16.8069 P   0  0  0  0  0  0  0  0  0  0  0  0
   23.5709   26.2668   15.6710 O   0  0  0  0  0  0  0  0  0  0  0  0
   24.1871   28.4852   16.6999 O   0  0  0  0  0  0  0  0  0  0  0  0
   24.7779   28.9800   15.4992 C   0  0  0  0  0  0  0  0  0  0  0  0
   23.7411   29.8759   14.7839 C   0  0  0  0  0  0  0  0  0  0  0  0
   23.5951   26.4586   18.1905 O   0  0  0  0  0  0  0  0  0  0  0  0
   24.9220   26.1629   18.6604 C   0  0  0  0  0  0  0  0  0  0  0  0
   25.2528   24.6853   18.3377 C   0  0  0  0  0  0  0  0  0  0  0  0
  2  1  1  0  0  0
  2  3  1  0  0  0
  7 14  1  0  0  0
  7  8  1  0  0  0
  7 11  1  0  0  0
 42 43  1  0  0  0
 42 39  1  0  0  0
  1 35  1  0  0  0
  1 15  1  0  0  0
 35 36  1  0  0  0
 36 37  2  0  0  0
 36 41  1  0  0  0
 37 38  1  0  0  0
 38 39  2  0  0  0
 39 40  1  0  0  0
 43 44  1  0  0  0
 44 46  1  0  0  0
 44 49  1  0  0  0
 44 45  2  0  0  0
 49 50  1  0  0  0
 50 51  1  0  0  0
 46 47  1  0  0  0
 47 48  1  0  0  0
 40 41  2  0  0  0
 15 18  1  0  0  0
 15 16  1  0  0  0
 18 19  1  0  0  0
 19 20  1  0  0  0
 19 31  1  0  0  0
 31 32  1  0  0  0
 32 34  1  0  0  0
 32 33  1  0  0  0
 20 22  2  0  0  0
 20 23  1  0  0  0
 20 21  2  0  0  0
 23 28  2  0  0  0
 23 24  1  0  0  0
 24 25  2  0  0  0
 25 26  1  0  0  0
 26 29  1  0  0  0
 26 27  2  0  0  0
 29 30  1  0  0  0
 27 28  1  0  0  0
  3  4  2  0  0  0
  3  6  1  0  0  0
  6  8  1  0  0  0
  8  9  1  0  0  0
  9 10  1  0  0  0
 10 11  1  0  0  0
 11 12  1  0  0  0
 12 13  1  0  0  0
 13 14  1  0  0  0
  2  5  1  0  0  0
 16 17  1  0  0  0
M  END
> <minimizedAffinity>
-8.70863

$$$$
2I4X_KGQ_B_300


 51 54  0  0  0  0  0  0  0  0999 V2000
   16.6784   24.1631   14.6791 C   0  0  0  0  0  0  0  0  0  0  0  0
   16.1815   23.7315   15.9738 N   0  0  0  0  0  0  0  0  0  0  0  0
   16.7503   22.7365   16.6754 C   0  0  0  0  0  0  0  0  0  0  0  0
   17.7348   22.0967   16.3087 O   0  0  0  0  0  0  0  0  0  0  0  0
   15.3953   24.1868   16.3531 H   0  0  0  0  0  0  0  0  0  0  0  0
   16.0719   22.5403   17.8261 O   0  0  0  0  0  0  0  0  0  0  0  0
   15.1936   20.2404   18.3075 C   0  0  0  0  0  0  0  0  0  0  0  0
   16.2853   21.3064   18.5486 C   0  0  0  0  0  0  0  0  0  0  0  0
   16.0742   21.6385   20.0383 C   0  0  0  0  0  0  0  0  0  0  0  0
   14.6477   21.7384   20.0819 O   0  0  0  0  0  0  0  0  0  0  0  0
   14.1255   20.6090   19.3776 C   0  0  0  0  0  0  0  0  0  0  0  0
   12.9229   20.9433   18.6546 O   0  0  0  0  0  0  0  0  0  0  0  0
   13.2862   21.3869   17.3428 C   0  0  0  0  0  0  0  0  0  0  0  0
   14.3867   20.3744   16.9873 C   0  0  0  0  0  0  0  0  0  0  0  0
   17.5606   25.4249   14.8926 C   0  0  0  0  0  0  0  0  0  0  0  0
   17.3552   26.3032   13.7893 O   0  0  0  0  0  0  0  0  0  0  0  0
   17.6430   25.8680   12.9716 H   0  0  0  0  0  0  0  0  0  0  0  0
   19.0944   25.1456   14.9440 C   0  0  0  0  0  0  0  0  0  0  0  0
   19.8516   26.2079   15.6681 N   0  0  0  0  0  0  0  0  0  0  0  0
   20.2535   27.6080   14.8192 S   0  0  0  0  0  0  0  0  0  0  0  0
   20.2192   27.2917   13.4103 O   0  0  0  0  0  0  0  0  0  0  0  0
   19.4093   28.7048   15.2351 O   0  0  0  0  0  0  0  0  0  0  0  0
   21.9539   27.9778   15.2468 C   0  0  0  0  0  0  0  0  0  0  0  0
   22.4562   29.2842   15.0816 C   0  0  0  0  0  0  0  0  0  0  0  0
   23.7835   29.5878   15.4069 C   0  0  0  0  0  0  0  0  0  0  0  0
   24.6376   28.5886   15.9112 C   0  0  0  0  0  0  0  0  0  0  0  0
   24.1362   27.2849   16.0786 C   0  0  0  0  0  0  0  0  0  0  0  0
   22.8044   26.9807   15.7523 C   0  0  0  0  0  0  0  0  0  0  0  0
   25.9642   28.8828   16.2378 O   0  0  0  0  0  0  0  0  0  0  0  0
   26.3122   30.0429   17.0082 C   0  0  0  0  0  0  0  0  0  0  0  0
   19.5092   26.4353   17.1061 C   0  0  0  0  0  0  0  0  0  0  0  0
   19.8366   25.2578   18.0831 C   0  0  0  0  0  0  0  0  0  0  0  0
   18.5497   24.8433   18.8301 C   0  0  0  0  0  0  0  0  0  0  0  0
   20.8917   25.6645   19.1440 C   0  0  0  0  0  0  0  0  0  0  0  0
   15.4458   24.4501   13.7618 C   0  0  0  0  0  0  0  0  0  0  0  0
   14.4475   23.2880   13.7674 C   0  0  0  0  0  0  0  0  0  0  0  0
   13.1348   23.4776   14.2354 C   0  0  0  0  0  0  0  0  0  0  0  0
   12.2122   22.4197   14.2313 C   0  0  0  0  0  0  0  0  0  0  0  0
   12.5905   21.1482   13.7593 C   0  0  0  0  0  0  0  0  0  0  0  0
   13.9076   20.9468   13.2922 C   0  0  0  0  0  0  0  0  0  0  0  0
   14.8297   22.0124   13.2988 C   0  0  0  0  0  0  0  0  0  0  0  0
   11.6603   20.0966   13.7535 O   0  0  0  0  0  0  0  0  0  0  0  0
   10.8661   19.9236   14.9333 C   0  0  0  0  0  0  0  0  0  0  0  0
   10.1481   18.2461   14.9199 P   0  0  0  0  0  0  0  0  0  0  0  0
    8.8614   18.2776   14.1609 O   0  0  0  0  0  0  0  0  0  0  0  0
   11.1440   17.2077   14.2311 O   0  0  0  0  0  0  0  0  0  0  0  0
   10.8611   16.4490   13.0564 C   0  0  0  0  0  0  0  0  0  0  0  0
   11.3848   17.2373   11.8343 C   0  0  0  0  0  0  0  0  0  0  0  0
    9.8745   17.7525   16.4155 O   0  0  0  0  0  0  0  0  0  0  0  0
   10.1089   16.4144   16.8884 C   0  0  0  0  0  0  0  0  0  0  0  0
    9.8946   16.3774   18.4213 C   0  0  0  0  0  0  0  0  0  0  0  0
  2  1  1  0  0  0
  2  3  1  0  0  0
  7 14  1  0  0  0
  7  8  1  0  0  0
  7 11  1  0  0  0
 42 43  1  0  0  0
 42 39  1  0  0  0
  1 35  1  0  0  0
  1 15  1  0  0  0
 35 36  1  0  0  0
 36 37  2  0  0  0
 36 41  1  0  0  0
 37 38  1  0  0  0
 38 39  2  0  0  0
 39 40  1  0  0  0
 43 44  1  0  0  0
 44 46  1  0  0  0
 44 49  1  0  0  0
 44 45  2  0  0  0
 49 50  1  0  0  0
 50 51  1  0  0  0
 46 47  1  0  0  0
 47 48  1  0  0  0
 40 41  2  0  0  0
 15 18  1  0  0  0
 15 16  1  0  0  0
 18 19  1  0  0  0
 19 20  1  0  0  0
 19 31  1  0  0  0
 31 32  1  0  0  0
 32 34  1  0  0  0
 32 33  1  0  0  0
 20 22  2  0  0  0
 20 23  1  0  0  0
 20 21  2  0  0  0
 23 28  2  0  0  0
 23 24  1  0  0  0
 24 25  2  0  0  0
 25 26  1  0  0  0
 26 29  1  0  0  0
 26 27  2  0  0  0
 29 30  1  0  0  0
 27 28  1  0  0  0
  3  4  2  0  0  0
  3  6  1  0  0  0
  6  8  1  0  0  0
  8  9  1  0  0  0
  9 10  1  0  0  0
 10 11  1  0  0  0
 11 12  1  0  0  0
 12 13  1  0  0  0
 13 14  1  0  0  0
  2  5  1  0  0  0
 16 17  1  0  0  0
M  END
> <minimizedAffinity>
-8.68459

$$$$
2I4X_KGQ_B_300


 51 54  0  0  0  0  0  0  0  0999 V2000
   16.2977   25.3669   15.1258 C   0  0  0  0  0  0  0  0  0  0  0  0
   17.2214   25.1428   16.2240 N   0  0  0  0  0  0  0  0  0  0  0  0
   16.8323   25.1333   17.5102 C   0  0  0  0  0  0  0  0  0  0  0  0
   15.6758   25.3066   17.8919 O   0  0  0  0  0  0  0  0  0  0  0  0
   18.1721   24.9916   16.0175 H   0  0  0  0  0  0  0  0  0  0  0  0
   17.8985   24.9210   18.3107 O   0  0  0  0  0  0  0  0  0  0  0  0
   18.8190   24.8134   20.6417 C   0  0  0  0  0  0  0  0  0  0  0  0
   17.6630   24.4886   19.6700 C   0  0  0  0  0  0  0  0  0  0  0  0
   17.7002   22.9485   19.6438 C   0  0  0  0  0  0  0  0  0  0  0  0
   19.1083   22.7253   19.5254 O   0  0  0  0  0  0  0  0  0  0  0  0
   19.7506   23.5778   20.4767 C   0  0  0  0  0  0  0  0  0  0  0  0
   21.0076   24.0790   19.9773 O   0  0  0  0  0  0  0  0  0  0  0  0
   20.7669   25.3080   19.2836 C   0  0  0  0  0  0  0  0  0  0  0  0
   19.7551   25.9806   20.2251 C   0  0  0  0  0  0  0  0  0  0  0  0
   15.6819   23.9982   14.7213 C   0  0  0  0  0  0  0  0  0  0  0  0
   15.6726   23.9178   13.2985 O   0  0  0  0  0  0  0  0  0  0  0  0
   15.1096   24.6209   12.9386 H   0  0  0  0  0  0  0  0  0  0  0  0
   14.2046   23.7892   15.1764 C   0  0  0  0  0  0  0  0  0  0  0  0
   13.8012   22.3528   15.1887 N   0  0  0  0  0  0  0  0  0  0  0  0
   13.4171   21.6287   13.7153 S   0  0  0  0  0  0  0  0  0  0  0  0
   12.8563   22.6477   12.8589 O   0  0  0  0  0  0  0  0  0  0  0  0
   14.5664   20.9299   13.1868 O   0  0  0  0  0  0  0  0  0  0  0  0
   12.1180   20.4456   14.0665 C   0  0  0  0  0  0  0  0  0  0  0  0
   10.8494   20.8929   14.4871 C   0  0  0  0  0  0  0  0  0  0  0  0
    9.8256   19.9807   14.7695 C   0  0  0  0  0  0  0  0  0  0  0  0
   10.0486   18.5975   14.6315 C   0  0  0  0  0  0  0  0  0  0  0  0
   11.3139   18.1504   14.2094 C   0  0  0  0  0  0  0  0  0  0  0  0
   12.3407   19.0658   13.9259 C   0  0  0  0  0  0  0  0  0  0  0  0
    9.0324   17.6800   14.9120 O   0  0  0  0  0  0  0  0  0  0  0  0
    9.0932   16.8124   16.0539 C   0  0  0  0  0  0  0  0  0  0  0  0
   14.5020   21.4515   16.1548 C   0  0  0  0  0  0  0  0  0  0  0  0
   13.6916   21.0539   17.4327 C   0  0  0  0  0  0  0  0  0  0  0  0
   13.8915   22.1341   18.5188 C   0  0  0  0  0  0  0  0  0  0  0  0
   14.1652   19.6985   18.0180 C   0  0  0  0  0  0  0  0  0  0  0  0
   17.0940   26.0278   13.9545 C   0  0  0  0  0  0  0  0  0  0  0  0
   18.5340   26.3591   14.3590 C   0  0  0  0  0  0  0  0  0  0  0  0
   18.8890   27.6706   14.7224 C   0  0  0  0  0  0  0  0  0  0  0  0
   20.2040   27.9775   15.1060 C   0  0  0  0  0  0  0  0  0  0  0  0
   21.1904   26.9730   15.1295 C   0  0  0  0  0  0  0  0  0  0  0  0
   20.8448   25.6544   14.7615 C   0  0  0  0  0  0  0  0  0  0  0  0
   19.5233   25.3522   14.3772 C   0  0  0  0  0  0  0  0  0  0  0  0
   22.5023   27.2869   15.5194 O   0  0  0  0  0  0  0  0  0  0  0  0
   22.7451   27.4398   16.9230 C   0  0  0  0  0  0  0  0  0  0  0  0
   24.5019   27.0792   17.2600 P   0  0  0  0  0  0  0  0  0  0  0  0
   24.9139   25.8900   16.4545 O   0  0  0  0  0  0  0  0  0  0  0  0
   25.4213   28.3244   16.8745 O   0  0  0  0  0  0  0  0  0  0  0  0
   25.7191   28.7492   15.5455 C   0  0  0  0  0  0  0  0  0  0  0  0
   24.8259   29.9669   15.2158 C   0  0  0  0  0  0  0  0  0  0  0  0
   24.7121   26.7707   18.8143 O   0  0  0  0  0  0  0  0  0  0  0  0
   25.4611   25.6565   19.3307 C   0  0  0  0  0  0  0  0  0  0  0  0
   24.4776   24.5261   19.7205 C   0  0  0  0  0  0  0  0  0  0  0  0
  2  1  1  0  0  0
  2  3  1  0  0  0
  7 14  1  0  0  0
  7  8  1  0  0  0
  7 11  1  0  0  0
 42 43  1  0  0  0
 42 39  1  0  0  0
  1 35  1  0  0  0
  1 15  1  0  0  0
 35 36  1  0  0  0
 36 37  2  0  0  0
 36 41  1  0  0  0
 37 38  1  0  0  0
 38 39  2  0  0  0
 39 40  1  0  0  0
 43 44  1  0  0  0
 44 46  1  0  0  0
 44 49  1  0  0  0
 44 45  2  0  0  0
 49 50  1  0  0  0
 50 51  1  0  0  0
 46 47  1  0  0  0
 47 48  1  0  0  0
 40 41  2  0  0  0
 15 18  1  0  0  0
 15 16  1  0  0  0
 18 19  1  0  0  0
 19 20  1  0  0  0
 19 31  1  0  0  0
 31 32  1  0  0  0
 32 34  1  0  0  0
 32 33  1  0  0  0
 20 22  2  0  0  0
 20 23  1  0  0  0
 20 21  2  0  0  0
 23 28  2  0  0  0
 23 24  1  0  0  0
 24 25  2  0  0  0
 25 26  1  0  0  0
 26 29  1  0  0  0
 26 27  2  0  0  0
 29 30  1  0  0  0
 27 28  1  0  0  0
  3  4  2  0  0  0
  3  6  1  0  0  0
  6  8  1  0  0  0
  8  9  1  0  0  0
  9 10  1  0  0  0
 10 11  1  0  0  0
 11 12  1  0  0  0
 12 13  1  0  0  0
 13 14  1  0  0  0
  2  5  1  0  0  0
 16 17  1  0  0  0
M  END
> <minimizedAffinity>
-8.65308

$$$$
2I4X_KGQ_B_300


 51 54  0  0  0  0  0  0  0  0999 V2000
   14.9984   23.3181   15.4849 C   0  0  0  0  0  0  0  0  0  0  0  0
   15.7495   23.5411   16.7078 N   0  0  0  0  0  0  0  0  0  0  0  0
   15.1593   23.6936   17.9053 C   0  0  0  0  0  0  0  0  0  0  0  0
   13.9444   23.6591   18.0953 O   0  0  0  0  0  0  0  0  0  0  0  0
   16.7318   23.5824   16.6572 H   0  0  0  0  0  0  0  0  0  0  0  0
   16.0957   23.9029   18.8552 O   0  0  0  0  0  0  0  0  0  0  0  0
   17.7057   23.0265   20.5675 C   0  0  0  0  0  0  0  0  0  0  0  0
   16.3945   22.8285   19.7752 C   0  0  0  0  0  0  0  0  0  0  0  0
   16.7359   21.6019   18.9075 C   0  0  0  0  0  0  0  0  0  0  0  0
   18.0491   21.9559   18.4637 O   0  0  0  0  0  0  0  0  0  0  0  0
   18.7698   22.4175   19.6090 C   0  0  0  0  0  0  0  0  0  0  0  0
   19.6746   23.4889   19.2712 O   0  0  0  0  0  0  0  0  0  0  0  0
   18.9812   24.7338   19.4094 C   0  0  0  0  0  0  0  0  0  0  0  0
   18.2029   24.4907   20.7123 C   0  0  0  0  0  0  0  0  0  0  0  0
   14.6397   21.8078   15.4030 C   0  0  0  0  0  0  0  0  0  0  0  0
   15.8297   21.0554   15.6234 O   0  0  0  0  0  0  0  0  0  0  0  0
   16.4711   21.2523   14.9228 H   0  0  0  0  0  0  0  0  0  0  0  0
   14.0843   21.3448   14.0209 C   0  0  0  0  0  0  0  0  0  0  0  0
   12.8734   20.4818   14.1441 N   0  0  0  0  0  0  0  0  0  0  0  0
   11.4917   21.1558   14.8364 S   0  0  0  0  0  0  0  0  0  0  0  0
   11.7756   22.5432   15.1206 O   0  0  0  0  0  0  0  0  0  0  0  0
   10.3414   20.9117   13.9964 O   0  0  0  0  0  0  0  0  0  0  0  0
   11.2638   20.3205   16.4053 C   0  0  0  0  0  0  0  0  0  0  0  0
   10.0444   19.6746   16.6916 C   0  0  0  0  0  0  0  0  0  0  0  0
    9.8495   19.0216   17.9146 C   0  0  0  0  0  0  0  0  0  0  0  0
   10.8759   18.9965   18.8778 C   0  0  0  0  0  0  0  0  0  0  0  0
   12.0942   19.6390   18.5918 C   0  0  0  0  0  0  0  0  0  0  0  0
   12.2896   20.2938   17.3647 C   0  0  0  0  0  0  0  0  0  0  0  0
   10.6896   18.3475   20.1015 O   0  0  0  0  0  0  0  0  0  0  0  0
   11.7780   18.1222   21.0096 C   0  0  0  0  0  0  0  0  0  0  0  0
   12.5998   19.5207   13.0314 C   0  0  0  0  0  0  0  0  0  0  0  0
   12.3534   18.0347   13.4544 C   0  0  0  0  0  0  0  0  0  0  0  0
   12.8476   17.0969   12.3308 C   0  0  0  0  0  0  0  0  0  0  0  0
   10.8487   17.7432   13.6891 C   0  0  0  0  0  0  0  0  0  0  0  0
   15.8846   23.7826   14.2842 C   0  0  0  0  0  0  0  0  0  0  0  0
   17.0961   24.5962   14.7505 C   0  0  0  0  0  0  0  0  0  0  0  0
   18.1683   23.9663   15.4076 C   0  0  0  0  0  0  0  0  0  0  0  0
   19.2864   24.7047   15.8259 C   0  0  0  0  0  0  0  0  0  0  0  0
   19.3490   26.0923   15.5952 C   0  0  0  0  0  0  0  0  0  0  0  0
   18.2752   26.7345   14.9409 C   0  0  0  0  0  0  0  0  0  0  0  0
   17.1552   25.9883   14.5232 C   0  0  0  0  0  0  0  0  0  0  0  0
   20.4732   26.8229   16.0121 O   0  0  0  0  0  0  0  0  0  0  0  0
   21.7307   26.4768   15.4193 C   0  0  0  0  0  0  0  0  0  0  0  0
   23.0655   26.8580   16.6039 P   0  0  0  0  0  0  0  0  0  0  0  0
   22.5949   26.5299   17.9836 O   0  0  0  0  0  0  0  0  0  0  0  0
   24.3756   26.0094   16.2754 O   0  0  0  0  0  0  0  0  0  0  0  0
   25.5714   26.0044   17.0536 C   0  0  0  0  0  0  0  0  0  0  0  0
   25.6366   24.6698   17.8308 C   0  0  0  0  0  0  0  0  0  0  0  0
   23.4466   28.4083   16.5235 O   0  0  0  0  0  0  0  0  0  0  0  0
   24.0518   29.0413   15.3824 C   0  0  0  0  0  0  0  0  0  0  0  0
   22.9650   29.8232   14.6050 C   0  0  0  0  0  0  0  0  0  0  0  0
  2  1  1  0  0  0
  2  3  1  0  0  0
  7 14  1  0  0  0
  7  8  1  0  0  0
  7 11  1  0  0  0
 42 43  1  0  0  0
 42 39  1  0  0  0
  1 35  1  0  0  0
  1 15  1  0  0  0
 35 36  1  0  0  0
 36 37  2  0  0  0
 36 41  1  0  0  0
 37 38  1  0  0  0
 38 39  2  0  0  0
 39 40  1  0  0  0
 43 44  1  0  0  0
 44 46  1  0  0  0
 44 49  1  0  0  0
 44 45  2  0  0  0
 49 50  1  0  0  0
 50 51  1  0  0  0
 46 47  1  0  0  0
 47 48  1  0  0  0
 40 41  2  0  0  0
 15 18  1  0  0  0
 15 16  1  0  0  0
 18 19  1  0  0  0
 19 20  1  0  0  0
 19 31  1  0  0  0
 31 32  1  0  0  0
 32 34  1  0  0  0
 32 33  1  0  0  0
 20 22  2  0  0  0
 20 23  1  0  0  0
 20 21  2  0  0  0
 23 28  2  0  0  0
 23 24  1  0  0  0
 24 25  2  0  0  0
 25 26  1  0  0  0
 26 29  1  0  0  0
 26 27  2  0  0  0
 29 30  1  0  0  0
 27 28  1  0  0  0
  3  4  2  0  0  0
  3  6  1  0  0  0
  6  8  1  0  0  0
  8  9  1  0  0  0
  9 10  1  0  0  0
 10 11  1  0  0  0
 11 12  1  0  0  0
 12 13  1  0  0  0
 13 14  1  0  0  0
  2  5  1  0  0  0
 16 17  1  0  0  0
M  END
> <minimizedAffinity>
-8.63977

$$$$
2I4X_KGQ_B_300


 51 54  0  0  0  0  0  0  0  0999 V2000
   15.3865   24.5199   15.7346 C   0  0  0  0  0  0  0  0  0  0  0  0
   16.0686   24.1379   16.9586 N   0  0  0  0  0  0  0  0  0  0  0  0
   15.9051   24.7977   18.1178 C   0  0  0  0  0  0  0  0  0  0  0  0
   15.1737   25.7752   18.2685 O   0  0  0  0  0  0  0  0  0  0  0  0
   16.6760   23.3633   16.9383 H   0  0  0  0  0  0  0  0  0  0  0  0
   16.6712   24.2365   19.0774 O   0  0  0  0  0  0  0  0  0  0  0  0
   17.9009   22.0533   18.9594 C   0  0  0  0  0  0  0  0  0  0  0  0
   17.8931   23.5728   18.6816 C   0  0  0  0  0  0  0  0  0  0  0  0
   18.9857   24.0724   19.6464 C   0  0  0  0  0  0  0  0  0  0  0  0
   18.6449   23.3385   20.8261 O   0  0  0  0  0  0  0  0  0  0  0  0
   18.4134   21.9852   20.4273 C   0  0  0  0  0  0  0  0  0  0  0  0
   17.3579   21.3768   21.1996 O   0  0  0  0  0  0  0  0  0  0  0  0
   16.1113   21.6132   20.5364 C   0  0  0  0  0  0  0  0  0  0  0  0
   16.5100   21.3714   19.0718 C   0  0  0  0  0  0  0  0  0  0  0  0
   14.1112   23.6424   15.5943 C   0  0  0  0  0  0  0  0  0  0  0  0
   13.1815   24.0455   16.5964 O   0  0  0  0  0  0  0  0  0  0  0  0
   13.5629   23.8864   17.4740 H   0  0  0  0  0  0  0  0  0  0  0  0
   14.3450   22.1153   15.8096 C   0  0  0  0  0  0  0  0  0  0  0  0
   13.1023   21.3092   15.6300 N   0  0  0  0  0  0  0  0  0  0  0  0
   12.3988   21.2751   14.0982 S   0  0  0  0  0  0  0  0  0  0  0  0
   11.2557   22.1578   14.1208 O   0  0  0  0  0  0  0  0  0  0  0  0
   13.3900   21.5606   13.0860 O   0  0  0  0  0  0  0  0  0  0  0  0
   11.7863   19.6067   13.8695 C   0  0  0  0  0  0  0  0  0  0  0  0
   12.5746   18.6500   13.1990 C   0  0  0  0  0  0  0  0  0  0  0  0
   12.1082   17.3439   13.0085 C   0  0  0  0  0  0  0  0  0  0  0  0
   10.8413   16.9646   13.4913 C   0  0  0  0  0  0  0  0  0  0  0  0
   10.0548   17.9183   14.1627 C   0  0  0  0  0  0  0  0  0  0  0  0
   10.5231   19.2286   14.3538 C   0  0  0  0  0  0  0  0  0  0  0  0
   10.3676   15.6630   13.3049 O   0  0  0  0  0  0  0  0  0  0  0  0
   10.6787   14.9087   12.1240 C   0  0  0  0  0  0  0  0  0  0  0  0
   13.0062   20.0199   16.3818 C   0  0  0  0  0  0  0  0  0  0  0  0
   12.4892   20.1225   17.8549 C   0  0  0  0  0  0  0  0  0  0  0  0
   13.4645   19.3737   18.7901 C   0  0  0  0  0  0  0  0  0  0  0  0
   11.0867   19.4823   18.0204 C   0  0  0  0  0  0  0  0  0  0  0  0
   16.3804   24.3152   14.5459 C   0  0  0  0  0  0  0  0  0  0  0  0
   17.6657   25.1283   14.7303 C   0  0  0  0  0  0  0  0  0  0  0  0
   18.8413   24.5092   15.1917 C   0  0  0  0  0  0  0  0  0  0  0  0
   20.0252   25.2465   15.3507 C   0  0  0  0  0  0  0  0  0  0  0  0
   20.0515   26.6222   15.0520 C   0  0  0  0  0  0  0  0  0  0  0  0
   18.8750   27.2537   14.5929 C   0  0  0  0  0  0  0  0  0  0  0  0
   17.6894   26.5086   14.4354 C   0  0  0  0  0  0  0  0  0  0  0  0
   21.2409   27.3516   15.2087 O   0  0  0  0  0  0  0  0  0  0  0  0
   22.4566   26.6003   15.3102 C   0  0  0  0  0  0  0  0  0  0  0  0
   23.3018   27.0537   16.8626 P   0  0  0  0  0  0  0  0  0  0  0  0
   22.3208   26.9763   17.9870 O   0  0  0  0  0  0  0  0  0  0  0  0
   24.5208   26.0671   17.1545 O   0  0  0  0  0  0  0  0  0  0  0  0
   24.7955   25.4444   18.4084 C   0  0  0  0  0  0  0  0  0  0  0  0
   25.6450   24.1803   18.1444 C   0  0  0  0  0  0  0  0  0  0  0  0
   23.8812   28.5399   16.7600 O   0  0  0  0  0  0  0  0  0  0  0  0
   24.8644   28.9676   15.8011 C   0  0  0  0  0  0  0  0  0  0  0  0
   24.3248   30.2061   15.0449 C   0  0  0  0  0  0  0  0  0  0  0  0
  2  1  1  0  0  0
  2  3  1  0  0  0
  7 14  1  0  0  0
  7  8  1  0  0  0
  7 11  1  0  0  0
 42 43  1  0  0  0
 42 39  1  0  0  0
  1 35  1  0  0  0
  1 15  1  0  0  0
 35 36  1  0  0  0
 36 37  2  0  0  0
 36 41  1  0  0  0
 37 38  1  0  0  0
 38 39  2  0  0  0
 39 40  1  0  0  0
 43 44  1  0  0  0
 44 46  1  0  0  0
 44 49  1  0  0  0
 44 45  2  0  0  0
 49 50  1  0  0  0
 50 51  1  0  0  0
 46 47  1  0  0  0
 47 48  1  0  0  0
 40 41  2  0  0  0
 15 18  1  0  0  0
 15 16  1  0  0  0
 18 19  1  0  0  0
 19 20  1  0  0  0
 19 31  1  0  0  0
 31 32  1  0  0  0
 32 34  1  0  0  0
 32 33  1  0  0  0
 20 22  2  0  0  0
 20 23  1  0  0  0
 20 21  2  0  0  0
 23 28  2  0  0  0
 23 24  1  0  0  0
 24 25  2  0  0  0
 25 26  1  0  0  0
 26 29  1  0  0  0
 26 27  2  0  0  0
 29 30  1  0  0  0
 27 28  1  0  0  0
  3  4  2  0  0  0
  3  6  1  0  0  0
  6  8  1  0  0  0
  8  9  1  0  0  0
  9 10  1  0  0  0
 10 11  1  0  0  0
 11 12  1  0  0  0
 12 13  1  0  0  0
 13 14  1  0  0  0
  2  5  1  0  0  0
 16 17  1  0  0  0
M  END
> <minimizedAffinity>
-8.54327

$$$$
2I4X_KGQ_B_300


 51 54  0  0  0  0  0  0  0  0999 V2000
   16.0586   24.7674   15.3866 C   0  0  0  0  0  0  0  0  0  0  0  0
   17.0412   24.6901   16.4534 N   0  0  0  0  0  0  0  0  0  0  0  0
   16.7331   24.9124   17.7423 C   0  0  0  0  0  0  0  0  0  0  0  0
   15.6091   25.1968   18.1533 O   0  0  0  0  0  0  0  0  0  0  0  0
   17.9715   24.4655   16.2226 H   0  0  0  0  0  0  0  0  0  0  0  0
   17.8396   24.7908   18.5063 O   0  0  0  0  0  0  0  0  0  0  0  0
   18.8901   24.9329   20.7798 C   0  0  0  0  0  0  0  0  0  0  0  0
   17.6752   24.5242   19.9177 C   0  0  0  0  0  0  0  0  0  0  0  0
   17.6859   22.9909   20.0697 C   0  0  0  0  0  0  0  0  0  0  0  0
   19.0811   22.7235   19.9009 O   0  0  0  0  0  0  0  0  0  0  0  0
   19.7906   23.6656   20.7093 C   0  0  0  0  0  0  0  0  0  0  0  0
   21.0249   24.0770   20.0865 O   0  0  0  0  0  0  0  0  0  0  0  0
   20.7648   25.2225   19.2683 C   0  0  0  0  0  0  0  0  0  0  0  0
   19.8196   26.0225   20.1789 C   0  0  0  0  0  0  0  0  0  0  0  0
   15.5378   23.3311   15.1000 C   0  0  0  0  0  0  0  0  0  0  0  0
   15.2992   23.2156   13.6998 O   0  0  0  0  0  0  0  0  0  0  0  0
   14.6101   23.8453   13.4362 H   0  0  0  0  0  0  0  0  0  0  0  0
   14.1897   22.9760   15.7997 C   0  0  0  0  0  0  0  0  0  0  0  0
   14.1766   21.5940   16.3618 N   0  0  0  0  0  0  0  0  0  0  0  0
   14.2014   21.4244   18.0391 S   0  0  0  0  0  0  0  0  0  0  0  0
   15.5401   21.0394   18.4212 O   0  0  0  0  0  0  0  0  0  0  0  0
   13.6897   22.6195   18.6704 O   0  0  0  0  0  0  0  0  0  0  0  0
   13.1172   20.0484   18.4158 C   0  0  0  0  0  0  0  0  0  0  0  0
   11.7527   20.1078   18.0682 C   0  0  0  0  0  0  0  0  0  0  0  0
   10.8921   19.0428   18.3598 C   0  0  0  0  0  0  0  0  0  0  0  0
   11.3814   17.8898   19.0026 C   0  0  0  0  0  0  0  0  0  0  0  0
   12.7437   17.8288   19.3478 C   0  0  0  0  0  0  0  0  0  0  0  0
   13.6069   18.8973   19.0550 C   0  0  0  0  0  0  0  0  0  0  0  0
   10.5290   16.8224   19.2981 O   0  0  0  0  0  0  0  0  0  0  0  0
    9.7163   16.2042   18.2893 C   0  0  0  0  0  0  0  0  0  0  0  0
   13.3481   20.5719   15.6508 C   0  0  0  0  0  0  0  0  0  0  0  0
   12.5891   21.0706   14.3767 C   0  0  0  0  0  0  0  0  0  0  0  0
   11.0909   20.7173   14.5057 C   0  0  0  0  0  0  0  0  0  0  0  0
   13.1259   20.4003   13.0857 C   0  0  0  0  0  0  0  0  0  0  0  0
   16.7514   25.4063   14.1397 C   0  0  0  0  0  0  0  0  0  0  0  0
   18.1529   25.9289   14.4709 C   0  0  0  0  0  0  0  0  0  0  0  0
   18.3928   27.3110   14.5742 C   0  0  0  0  0  0  0  0  0  0  0  0
   19.6720   27.7952   14.8897 C   0  0  0  0  0  0  0  0  0  0  0  0
   20.7376   26.9005   15.1053 C   0  0  0  0  0  0  0  0  0  0  0  0
   20.5078   25.5115   14.9989 C   0  0  0  0  0  0  0  0  0  0  0  0
   19.2216   25.0310   14.6817 C   0  0  0  0  0  0  0  0  0  0  0  0
   22.0130   27.3926   15.4257 O   0  0  0  0  0  0  0  0  0  0  0  0
   22.4279   27.2841   16.7927 C   0  0  0  0  0  0  0  0  0  0  0  0
   24.2506   27.2185   16.8520 P   0  0  0  0  0  0  0  0  0  0  0  0
   24.7390   26.3489   15.7395 O   0  0  0  0  0  0  0  0  0  0  0  0
   24.8766   28.6776   16.6978 O   0  0  0  0  0  0  0  0  0  0  0  0
   25.2805   29.2756   15.4670 C   0  0  0  0  0  0  0  0  0  0  0  0
   24.1265   30.1725   14.9639 C   0  0  0  0  0  0  0  0  0  0  0  0
   24.7344   26.6176   18.2520 O   0  0  0  0  0  0  0  0  0  0  0  0
   24.5177   25.2601   18.6754 C   0  0  0  0  0  0  0  0  0  0  0  0
   24.5339   25.2065   20.2226 C   0  0  0  0  0  0  0  0  0  0  0  0
  2  1  1  0  0  0
  2  3  1  0  0  0
  7 14  1  0  0  0
  7  8  1  0  0  0
  7 11  1  0  0  0
 42 43  1  0  0  0
 42 39  1  0  0  0
  1 35  1  0  0  0
  1 15  1  0  0  0
 35 36  1  0  0  0
 36 37  2  0  0  0
 36 41  1  0  0  0
 37 38  1  0  0  0
 38 39  2  0  0  0
 39 40  1  0  0  0
 43 44  1  0  0  0
 44 46  1  0  0  0
 44 49  1  0  0  0
 44 45  2  0  0  0
 49 50  1  0  0  0
 50 51  1  0  0  0
 46 47  1  0  0  0
 47 48  1  0  0  0
 40 41  2  0  0  0
 15 18  1  0  0  0
 15 16  1  0  0  0
 18 19  1  0  0  0
 19 20  1  0  0  0
 19 31  1  0  0  0
 31 32  1  0  0  0
 32 34  1  0  0  0
 32 33  1  0  0  0
 20 22  2  0  0  0
 20 23  1  0  0  0
 20 21  2  0  0  0
 23 28  2  0  0  0
 23 24  1  0  0  0
 24 25  2  0  0  0
 25 26  1  0  0  0
 26 29  1  0  0  0
 26 27  2  0  0  0
 29 30  1  0  0  0
 27 28  1  0  0  0
  3  4  2  0  0  0
  3  6  1  0  0  0
  6  8  1  0  0  0
  8  9  1  0  0  0
  9 10  1  0  0  0
 10 11  1  0  0  0
 11 12  1  0  0  0
 12 13  1  0  0  0
 13 14  1  0  0  0
  2  5  1  0  0  0
 16 17  1  0  0  0
M  END
> <minimizedAffinity>
-8.42571

$$$$
