3SIO_MLK_A_260


 51 58  0  0  0  0  0  0  0  0999 V2000
  -38.1541   -2.1459  -19.6095 C   0  0  0  0  0  0  0  0  0  0  0  0
  -39.4930   -1.5950  -19.1189 C   0  0  0  0  0  0  0  0  0  0  0  0
  -39.4477   -1.2039  -17.6375 C   0  0  0  0  0  0  0  0  0  0  0  0
  -38.1657   -0.4769  -17.2707 C   0  0  0  0  0  0  0  0  0  0  0  0
  -36.9088   -1.2485  -17.6330 C   0  0  0  0  0  0  0  0  0  0  0  0
  -37.2479   -2.5420  -18.4108 C   0  0  0  0  0  0  0  0  0  0  0  0
  -35.9555   -0.5526  -18.6594 C   0  0  0  0  0  0  0  0  0  0  0  0
  -36.7733   -0.0794  -19.7732 N   0  0  0  0  0  0  0  0  0  0  0  0
  -37.4915   -1.0999  -20.5145 C   0  0  0  0  0  0  0  0  0  0  0  0
  -36.1204   -1.5047  -16.3404 C   0  0  0  0  0  0  0  0  0  0  0  0
  -35.6800   -0.2030  -15.6443 C   0  0  0  0  0  0  0  0  0  0  0  0
  -34.1956   -0.4013  -15.2345 C   0  0  0  0  0  0  0  0  0  0  0  0
  -33.3522    0.2069  -16.3787 C   0  0  0  0  0  0  0  0  0  0  0  0
  -33.2345   -0.6470  -17.6363 C   0  0  0  0  0  0  0  0  0  0  0  0
  -34.8240   -2.3379  -16.5010 C   0  0  0  0  0  0  0  0  0  0  0  0
  -34.0018   -1.9408  -15.2252 C   0  0  0  0  0  0  0  0  0  0  0  0
  -34.0394   -1.9346  -17.7506 C   0  0  0  0  0  0  0  0  0  0  0  0
  -33.1220   -3.0092  -18.0610 O   0  0  0  0  0  0  0  0  0  0  0  0
  -34.9854   -1.7330  -18.9815 C   0  0  0  0  0  0  0  0  0  0  0  0
  -34.2256   -1.5587  -20.1931 O   0  0  0  0  0  0  0  0  0  0  0  0
  -35.9303   -2.9586  -19.1199 C   0  0  0  0  0  0  0  0  0  0  0  0
  -32.5249   -3.1516  -17.3099 H   0  0  0  0  0  0  0  0  0  0  0  0
  -33.6384   -0.7923  -20.0992 H   0  0  0  0  0  0  0  0  0  0  0  0
  -38.2162    0.8321  -17.8681 O   0  0  0  0  0  0  0  0  0  0  0  0
  -39.2681    1.5763  -17.2347 C   0  0  0  0  0  0  0  0  0  0  0  0
  -36.0367    0.8156  -20.6651 C   0  0  0  0  0  0  0  0  0  0  0  0
  -35.3236    1.8949  -19.8513 C   0  0  0  0  0  0  0  0  0  0  0  0
  -32.0766    0.6601  -15.9172 O   0  0  0  0  0  0  0  0  0  0  0  0
  -32.3408    1.3607  -14.6986 C   0  0  0  0  0  0  0  0  0  0  0  0
  -32.6201   -2.3052  -15.2462 O   0  0  0  0  0  0  0  0  0  0  0  0
  -32.4643   -3.6399  -14.7565 C   0  0  0  0  0  0  0  0  0  0  0  0
  -35.3884   -4.1509  -18.5736 O   0  0  0  0  0  0  0  0  0  0  0  0
  -36.3613   -5.1927  -18.6673 C   0  0  0  0  0  0  0  0  0  0  0  0
  -38.4109   -3.3753  -20.4761 C   0  0  0  0  0  0  0  0  0  0  0  0
  -39.5108   -4.1185  -19.8934 O   0  0  0  0  0  0  0  0  0  0  0  0
  -39.5590   -5.4564  -20.0431 C   0  0  0  0  0  0  0  0  0  0  0  0
  -39.1170   -5.9655  -21.0586 O   0  0  0  0  0  0  0  0  0  0  0  0
  -40.1026   -7.6914  -18.9983 C   0  0  0  0  0  0  0  0  0  0  0  0
  -40.6383   -8.4024  -17.9265 C   0  0  0  0  0  0  0  0  0  0  0  0
  -41.1700   -7.7430  -16.8276 C   0  0  0  0  0  0  0  0  0  0  0  0
  -41.1842   -6.3583  -16.7758 C   0  0  0  0  0  0  0  0  0  0  0  0
  -40.6589   -5.6341  -17.8264 C   0  0  0  0  0  0  0  0  0  0  0  0
  -40.1163   -6.2817  -18.9473 C   0  0  0  0  0  0  0  0  0  0  0  0
  -37.4156   -8.4190  -19.4438 O   0  0  0  0  0  0  0  0  0  0  0  0
  -38.2967   -8.7720  -20.1950 C   0  0  0  0  0  0  0  0  0  0  0  0
  -38.1288   -9.6987  -21.3905 C   0  0  0  0  0  0  0  0  0  0  0  0
  -39.4898   -9.6117  -22.1027 C   0  0  0  0  0  0  0  0  0  0  0  0
  -39.3347   -8.9528  -23.4769 C   0  0  0  0  0  0  0  0  0  0  0  0
  -40.3228   -8.7544  -21.1586 C   0  0  0  0  0  0  0  0  0  0  0  0
  -41.4885   -8.4488  -21.3222 O   0  0  0  0  0  0  0  0  0  0  0  0
  -39.5762   -8.3902  -20.0990 N   0  0  0  0  0  0  0  0  0  0  0  0
 44 45  2  0  0  0
 45 46  1  0  0  0
 45 51  1  0  0  0
 46 47  1  0  0  0
 47 48  1  0  0  0
 47 49  1  0  0  0
 49 50  2  0  0  0
 49 51  1  0  0  0
 51 38  1  0  0  0
 38 39  2  0  0  0
 38 43  1  0  0  0
 39 40  1  0  0  0
 40 41  2  0  0  0
 41 42  1  0  0  0
 42 43  2  0  0  0
 43 36  1  0  0  0
 36 37  2  0  0  0
 36 35  1  0  0  0
 35 34  1  0  0  0
 34  1  1  0  0  0
  1  2  1  0  0  0
  1  6  1  0  0  0
  1  9  1  0  0  0
  2  3  1  0  0  0
  3  4  1  0  0  0
  4 24  1  0  0  0
  4  5  1  0  0  0
 24 25  1  0  0  0
  5  6  1  0  0  0
  5  7  1  0  0  0
  5 10  1  0  0  0
  6 21  1  0  0  0
  7  8  1  0  0  0
  7 19  1  0  0  0
  8 26  1  0  0  0
  8  9  1  0  0  0
 26 27  1  0  0  0
 10 11  1  0  0  0
 10 15  1  0  0  0
 11 12  1  0  0  0
 12 13  1  0  0  0
 12 16  1  0  0  0
 13 28  1  0  0  0
 13 14  1  0  0  0
 28 29  1  0  0  0
 14 17  1  0  0  0
 15 16  1  0  0  0
 15 17  1  0  0  0
 16 30  1  0  0  0
 30 31  1  0  0  0
 17 18  1  0  0  0
 17 19  1  0  0  0
 19 20  1  0  0  0
 19 21  1  0  0  0
 21 32  1  0  0  0
 32 33  1  0  0  0
 18 22  1  0  0  0
 20 23  1  0  0  0
M  END
> <minimizedAffinity>
-10.35827

$$$$
3SIO_MLK_A_260


 51 58  0  0  0  0  0  0  0  0999 V2000
  -35.7207   -1.9929  -17.6035 C   0  0  0  0  0  0  0  0  0  0  0  0
  -37.1007   -2.6503  -17.6154 C   0  0  0  0  0  0  0  0  0  0  0  0
  -38.1910   -1.7123  -17.0854 C   0  0  0  0  0  0  0  0  0  0  0  0
  -38.0386   -0.2949  -17.6092 C   0  0  0  0  0  0  0  0  0  0  0  0
  -36.6712    0.3065  -17.3354 C   0  0  0  0  0  0  0  0  0  0  0  0
  -35.7184   -0.7312  -16.6963 C   0  0  0  0  0  0  0  0  0  0  0  0
  -35.8377    0.7039  -18.5978 C   0  0  0  0  0  0  0  0  0  0  0  0
  -35.8803   -0.4207  -19.5287 N   0  0  0  0  0  0  0  0  0  0  0  0
  -35.3160   -1.6682  -19.0468 C   0  0  0  0  0  0  0  0  0  0  0  0
  -36.8692    1.5623  -16.4740 C   0  0  0  0  0  0  0  0  0  0  0  0
  -37.7160    2.6392  -17.1782 C   0  0  0  0  0  0  0  0  0  0  0  0
  -36.9888    3.9921  -16.9507 C   0  0  0  0  0  0  0  0  0  0  0  0
  -36.1018    4.2146  -18.1974 C   0  0  0  0  0  0  0  0  0  0  0  0
  -34.8124    3.4024  -18.2423 C   0  0  0  0  0  0  0  0  0  0  0  0
  -35.5707    2.2870  -16.0388 C   0  0  0  0  0  0  0  0  0  0  0  0
  -36.0786    3.7369  -15.7202 C   0  0  0  0  0  0  0  0  0  0  0  0
  -34.5469    2.3508  -17.1734 C   0  0  0  0  0  0  0  0  0  0  0  0
  -33.2542    2.6273  -16.5857 O   0  0  0  0  0  0  0  0  0  0  0  0
  -34.4515    0.9876  -17.9371 C   0  0  0  0  0  0  0  0  0  0  0  0
  -33.3465    0.9902  -18.8616 O   0  0  0  0  0  0  0  0  0  0  0  0
  -34.2862   -0.1721  -16.9164 C   0  0  0  0  0  0  0  0  0  0  0  0
  -33.2905    3.4697  -16.1063 H   0  0  0  0  0  0  0  0  0  0  0  0
  -33.4567    1.7164  -19.4952 H   0  0  0  0  0  0  0  0  0  0  0  0
  -38.3815   -0.3036  -19.0074 O   0  0  0  0  0  0  0  0  0  0  0  0
  -39.7041   -0.8457  -19.1437 C   0  0  0  0  0  0  0  0  0  0  0  0
  -35.3613   -0.0705  -20.8506 C   0  0  0  0  0  0  0  0  0  0  0  0
  -35.8853    1.3020  -21.2718 C   0  0  0  0  0  0  0  0  0  0  0  0
  -35.8691    5.6041  -18.4442 O   0  0  0  0  0  0  0  0  0  0  0  0
  -34.5698    5.6717  -19.0383 C   0  0  0  0  0  0  0  0  0  0  0  0
  -35.0599    4.7313  -15.5942 O   0  0  0  0  0  0  0  0  0  0  0  0
  -35.5758    5.8664  -14.8936 C   0  0  0  0  0  0  0  0  0  0  0  0
  -33.6823    0.2332  -15.6980 O   0  0  0  0  0  0  0  0  0  0  0  0
  -34.2238   -0.5418  -14.6271 C   0  0  0  0  0  0  0  0  0  0  0  0
  -34.6980   -2.9954  -17.0768 C   0  0  0  0  0  0  0  0  0  0  0  0
  -34.6885   -4.1415  -17.9644 O   0  0  0  0  0  0  0  0  0  0  0  0
  -33.6193   -4.9610  -17.9763 C   0  0  0  0  0  0  0  0  0  0  0  0
  -33.7482   -6.1248  -17.6376 O   0  0  0  0  0  0  0  0  0  0  0  0
  -31.1803   -4.4193  -17.6023 C   0  0  0  0  0  0  0  0  0  0  0  0
  -29.9847   -3.9143  -18.1091 C   0  0  0  0  0  0  0  0  0  0  0  0
  -29.9057   -3.4393  -19.4104 C   0  0  0  0  0  0  0  0  0  0  0  0
  -31.0199   -3.4525  -20.2341 C   0  0  0  0  0  0  0  0  0  0  0  0
  -32.2144   -3.9482  -19.7526 C   0  0  0  0  0  0  0  0  0  0  0  0
  -32.3156   -4.4333  -18.4395 C   0  0  0  0  0  0  0  0  0  0  0  0
  -31.6799   -2.9196  -15.2680 O   0  0  0  0  0  0  0  0  0  0  0  0
  -31.5560   -4.1231  -15.2291 C   0  0  0  0  0  0  0  0  0  0  0  0
  -31.7345   -4.9967  -13.9958 C   0  0  0  0  0  0  0  0  0  0  0  0
  -31.2356   -6.3759  -14.4608 C   0  0  0  0  0  0  0  0  0  0  0  0
  -29.9665   -6.7716  -13.6996 C   0  0  0  0  0  0  0  0  0  0  0  0
  -30.9591   -6.1644  -15.9438 C   0  0  0  0  0  0  0  0  0  0  0  0
  -30.5658   -7.0148  -16.7191 O   0  0  0  0  0  0  0  0  0  0  0  0
  -31.2277   -4.8880  -16.2776 N   0  0  0  0  0  0  0  0  0  0  0  0
 44 45  2  0  0  0
 45 46  1  0  0  0
 45 51  1  0  0  0
 46 47  1  0  0  0
 47 48  1  0  0  0
 47 49  1  0  0  0
 49 50  2  0  0  0
 49 51  1  0  0  0
 51 38  1  0  0  0
 38 39  2  0  0  0
 38 43  1  0  0  0
 39 40  1  0  0  0
 40 41  2  0  0  0
 41 42  1  0  0  0
 42 43  2  0  0  0
 43 36  1  0  0  0
 36 37  2  0  0  0
 36 35  1  0  0  0
 35 34  1  0  0  0
 34  1  1  0  0  0
  1  2  1  0  0  0
  1  6  1  0  0  0
  1  9  1  0  0  0
  2  3  1  0  0  0
  3  4  1  0  0  0
  4 24  1  0  0  0
  4  5  1  0  0  0
 24 25  1  0  0  0
  5  6  1  0  0  0
  5  7  1  0  0  0
  5 10  1  0  0  0
  6 21  1  0  0  0
  7  8  1  0  0  0
  7 19  1  0  0  0
  8 26  1  0  0  0
  8  9  1  0  0  0
 26 27  1  0  0  0
 10 11  1  0  0  0
 10 15  1  0  0  0
 11 12  1  0  0  0
 12 13  1  0  0  0
 12 16  1  0  0  0
 13 28  1  0  0  0
 13 14  1  0  0  0
 28 29  1  0  0  0
 14 17  1  0  0  0
 15 16  1  0  0  0
 15 17  1  0  0  0
 16 30  1  0  0  0
 30 31  1  0  0  0
 17 18  1  0  0  0
 17 19  1  0  0  0
 19 20  1  0  0  0
 19 21  1  0  0  0
 21 32  1  0  0  0
 32 33  1  0  0  0
 18 22  1  0  0  0
 20 23  1  0  0  0
M  END
> <minimizedAffinity>
-9.83047

$$$$
3SIO_MLK_A_260


 51 58  0  0  0  0  0  0  0  0999 V2000
  -37.9393   -3.2422  -19.0250 C   0  0  0  0  0  0  0  0  0  0  0  0
  -39.3589   -2.9084  -18.5668 C   0  0  0  0  0  0  0  0  0  0  0  0
  -39.3698   -2.1113  -17.2576 C   0  0  0  0  0  0  0  0  0  0  0  0
  -38.3065   -1.0271  -17.2322 C   0  0  0  0  0  0  0  0  0  0  0  0
  -36.9055   -1.5487  -17.5000 C   0  0  0  0  0  0  0  0  0  0  0  0
  -36.9253   -3.0524  -17.8629 C   0  0  0  0  0  0  0  0  0  0  0  0
  -36.1948   -0.9696  -18.7672 C   0  0  0  0  0  0  0  0  0  0  0  0
  -37.1405   -1.0426  -19.8778 N   0  0  0  0  0  0  0  0  0  0  0  0
  -37.5954   -2.3724  -20.2405 C   0  0  0  0  0  0  0  0  0  0  0  0
  -36.0383   -1.2300  -16.2734 C   0  0  0  0  0  0  0  0  0  0  0  0
  -35.9253    0.2819  -16.0013 C   0  0  0  0  0  0  0  0  0  0  0  0
  -34.4278    0.5673  -15.7068 C   0  0  0  0  0  0  0  0  0  0  0  0
  -33.8043    1.0052  -17.0522 C   0  0  0  0  0  0  0  0  0  0  0  0
  -33.5104   -0.1189  -18.0392 C   0  0  0  0  0  0  0  0  0  0  0  0
  -34.5772   -1.7418  -16.3355 C   0  0  0  0  0  0  0  0  0  0  0  0
  -33.8454   -0.8133  -15.3040 C   0  0  0  0  0  0  0  0  0  0  0  0
  -33.9612   -1.5382  -17.7206 C   0  0  0  0  0  0  0  0  0  0  0  0
  -32.8088   -2.4067  -17.8227 O   0  0  0  0  0  0  0  0  0  0  0  0
  -34.9646   -1.9273  -18.8574 C   0  0  0  0  0  0  0  0  0  0  0  0
  -34.3127   -1.9313  -20.1422 O   0  0  0  0  0  0  0  0  0  0  0  0
  -35.5675   -3.3291  -18.5644 C   0  0  0  0  0  0  0  0  0  0  0  0
  -32.1723   -2.1826  -17.1259 H   0  0  0  0  0  0  0  0  0  0  0  0
  -33.9392   -1.0535  -20.3180 H   0  0  0  0  0  0  0  0  0  0  0  0
  -38.7094    0.0054  -18.1510 O   0  0  0  0  0  0  0  0  0  0  0  0
  -39.6665    0.8479  -17.4908 C   0  0  0  0  0  0  0  0  0  0  0  0
  -36.6860   -0.2916  -21.0477 C   0  0  0  0  0  0  0  0  0  0  0  0
  -36.0739    1.0387  -20.6103 C   0  0  0  0  0  0  0  0  0  0  0  0
  -32.6740    1.8608  -16.8619 O   0  0  0  0  0  0  0  0  0  0  0  0
  -33.0438    2.7484  -15.8031 C   0  0  0  0  0  0  0  0  0  0  0  0
  -32.4178   -0.8297  -15.3670 O   0  0  0  0  0  0  0  0  0  0  0  0
  -31.9262   -2.0806  -14.8779 C   0  0  0  0  0  0  0  0  0  0  0  0
  -34.7213   -4.1512  -17.7759 O   0  0  0  0  0  0  0  0  0  0  0  0
  -34.5341   -5.4023  -18.4396 C   0  0  0  0  0  0  0  0  0  0  0  0
  -37.8988   -4.6923  -19.4985 C   0  0  0  0  0  0  0  0  0  0  0  0
  -39.2081   -5.0362  -20.0171 O   0  0  0  0  0  0  0  0  0  0  0  0
  -39.6925   -6.2780  -19.8216 C   0  0  0  0  0  0  0  0  0  0  0  0
  -40.5135   -6.4731  -18.9420 O   0  0  0  0  0  0  0  0  0  0  0  0
  -38.7917   -8.6080  -20.1979 C   0  0  0  0  0  0  0  0  0  0  0  0
  -38.3889   -9.5950  -21.0951 C   0  0  0  0  0  0  0  0  0  0  0  0
  -38.4319   -9.3747  -22.4643 C   0  0  0  0  0  0  0  0  0  0  0  0
  -38.8730   -8.1620  -22.9694 C   0  0  0  0  0  0  0  0  0  0  0  0
  -39.2766   -7.1703  -22.0988 C   0  0  0  0  0  0  0  0  0  0  0  0
  -39.2408   -7.3728  -20.7104 C   0  0  0  0  0  0  0  0  0  0  0  0
  -36.6563   -8.0516  -18.4434 O   0  0  0  0  0  0  0  0  0  0  0  0
  -37.7091   -8.4885  -18.0358 C   0  0  0  0  0  0  0  0  0  0  0  0
  -38.0750   -8.7101  -16.5753 C   0  0  0  0  0  0  0  0  0  0  0  0
  -39.4024   -9.4840  -16.6539 C   0  0  0  0  0  0  0  0  0  0  0  0
  -39.2296  -10.9022  -16.1012 C   0  0  0  0  0  0  0  0  0  0  0  0
  -39.7112   -9.4953  -18.1455 C   0  0  0  0  0  0  0  0  0  0  0  0
  -40.6956   -9.9892  -18.6611 O   0  0  0  0  0  0  0  0  0  0  0  0
  -38.7308   -8.8616  -18.8163 N   0  0  0  0  0  0  0  0  0  0  0  0
 44 45  2  0  0  0
 45 46  1  0  0  0
 45 51  1  0  0  0
 46 47  1  0  0  0
 47 48  1  0  0  0
 47 49  1  0  0  0
 49 50  2  0  0  0
 49 51  1  0  0  0
 51 38  1  0  0  0
 38 39  2  0  0  0
 38 43  1  0  0  0
 39 40  1  0  0  0
 40 41  2  0  0  0
 41 42  1  0  0  0
 42 43  2  0  0  0
 43 36  1  0  0  0
 36 37  2  0  0  0
 36 35  1  0  0  0
 35 34  1  0  0  0
 34  1  1  0  0  0
  1  2  1  0  0  0
  1  6  1  0  0  0
  1  9  1  0  0  0
  2  3  1  0  0  0
  3  4  1  0  0  0
  4 24  1  0  0  0
  4  5  1  0  0  0
 24 25  1  0  0  0
  5  6  1  0  0  0
  5  7  1  0  0  0
  5 10  1  0  0  0
  6 21  1  0  0  0
  7  8  1  0  0  0
  7 19  1  0  0  0
  8 26  1  0  0  0
  8  9  1  0  0  0
 26 27  1  0  0  0
 10 11  1  0  0  0
 10 15  1  0  0  0
 11 12  1  0  0  0
 12 13  1  0  0  0
 12 16  1  0  0  0
 13 28  1  0  0  0
 13 14  1  0  0  0
 28 29  1  0  0  0
 14 17  1  0  0  0
 15 16  1  0  0  0
 15 17  1  0  0  0
 16 30  1  0  0  0
 30 31  1  0  0  0
 17 18  1  0  0  0
 17 19  1  0  0  0
 19 20  1  0  0  0
 19 21  1  0  0  0
 21 32  1  0  0  0
 32 33  1  0  0  0
 18 22  1  0  0  0
 20 23  1  0  0  0
M  END
> <minimizedAffinity>
-9.70646

$$$$
3SIO_MLK_A_260


 51 58  0  0  0  0  0  0  0  0999 V2000
  -33.7441   -1.7789  -19.0425 C   0  0  0  0  0  0  0  0  0  0  0  0
  -33.5339   -0.2973  -18.7305 C   0  0  0  0  0  0  0  0  0  0  0  0
  -32.9726   -0.0788  -17.3210 C   0  0  0  0  0  0  0  0  0  0  0  0
  -31.8789   -1.0738  -16.9738 C   0  0  0  0  0  0  0  0  0  0  0  0
  -32.3071   -2.5221  -17.1333 C   0  0  0  0  0  0  0  0  0  0  0  0
  -33.7267   -2.6252  -17.7393 C   0  0  0  0  0  0  0  0  0  0  0  0
  -31.5002   -3.3587  -18.1799 C   0  0  0  0  0  0  0  0  0  0  0  0
  -31.4094   -2.5676  -19.4042 N   0  0  0  0  0  0  0  0  0  0  0  0
  -32.6701   -2.2307  -20.0399 C   0  0  0  0  0  0  0  0  0  0  0  0
  -32.1781   -3.2082  -15.7655 C   0  0  0  0  0  0  0  0  0  0  0  0
  -30.7322   -3.2086  -15.2343 C   0  0  0  0  0  0  0  0  0  0  0  0
  -30.4589   -4.6398  -14.6978 C   0  0  0  0  0  0  0  0  0  0  0  0
  -29.7801   -5.4071  -15.8559 C   0  0  0  0  0  0  0  0  0  0  0  0
  -30.7104   -5.8814  -16.9667 C   0  0  0  0  0  0  0  0  0  0  0  0
  -32.6300   -4.6893  -15.7143 C   0  0  0  0  0  0  0  0  0  0  0  0
  -31.8709   -5.2352  -14.4544 C   0  0  0  0  0  0  0  0  0  0  0  0
  -32.1754   -5.4661  -16.9510 C   0  0  0  0  0  0  0  0  0  0  0  0
  -32.9807   -6.6646  -17.0394 O   0  0  0  0  0  0  0  0  0  0  0  0
  -32.3931   -4.6372  -18.2610 C   0  0  0  0  0  0  0  0  0  0  0  0
  -32.1591   -5.4473  -19.4292 O   0  0  0  0  0  0  0  0  0  0  0  0
  -33.8409   -4.0738  -18.2878 C   0  0  0  0  0  0  0  0  0  0  0  0
  -32.8609   -7.1947  -16.2359 H   0  0  0  0  0  0  0  0  0  0  0  0
  -31.2540   -5.7952  -19.4054 H   0  0  0  0  0  0  0  0  0  0  0  0
  -30.7165   -0.7397  -17.7548 O   0  0  0  0  0  0  0  0  0  0  0  0
  -29.8352    0.0461  -16.9378 C   0  0  0  0  0  0  0  0  0  0  0  0
  -30.4571   -3.1292  -20.3618 C   0  0  0  0  0  0  0  0  0  0  0  0
  -30.7632   -2.6141  -21.7677 C   0  0  0  0  0  0  0  0  0  0  0  0
  -28.9379   -6.4589  -15.3764 O   0  0  0  0  0  0  0  0  0  0  0  0
  -28.9463   -7.4514  -16.4062 C   0  0  0  0  0  0  0  0  0  0  0  0
  -31.8357   -6.6582  -14.3266 O   0  0  0  0  0  0  0  0  0  0  0  0
  -31.7998   -7.0189  -12.9431 C   0  0  0  0  0  0  0  0  0  0  0  0
  -34.7612   -4.8528  -17.5397 O   0  0  0  0  0  0  0  0  0  0  0  0
  -35.7586   -5.3722  -18.4206 C   0  0  0  0  0  0  0  0  0  0  0  0
  -35.0902   -1.9531  -19.7396 C   0  0  0  0  0  0  0  0  0  0  0  0
  -35.8732   -0.7532  -19.5190 O   0  0  0  0  0  0  0  0  0  0  0  0
  -37.1871   -0.7557  -19.8167 C   0  0  0  0  0  0  0  0  0  0  0  0
  -37.5667   -0.2790  -20.8724 O   0  0  0  0  0  0  0  0  0  0  0  0
  -38.4278   -0.7867  -17.6163 C   0  0  0  0  0  0  0  0  0  0  0  0
  -39.3386   -1.4229  -16.7753 C   0  0  0  0  0  0  0  0  0  0  0  0
  -39.9537   -2.6070  -17.1556 C   0  0  0  0  0  0  0  0  0  0  0  0
  -39.6698   -3.1863  -18.3820 C   0  0  0  0  0  0  0  0  0  0  0  0
  -38.7707   -2.5732  -19.2306 C   0  0  0  0  0  0  0  0  0  0  0  0
  -38.1375   -1.3751  -18.8651 C   0  0  0  0  0  0  0  0  0  0  0  0
  -36.0272   -0.4993  -16.1666 O   0  0  0  0  0  0  0  0  0  0  0  0
  -36.6297    0.4637  -16.5847 C   0  0  0  0  0  0  0  0  0  0  0  0
  -36.1705    1.9115  -16.4886 C   0  0  0  0  0  0  0  0  0  0  0  0
  -37.4018    2.7076  -16.9548 C   0  0  0  0  0  0  0  0  0  0  0  0
  -37.9689    3.5418  -15.8020 C   0  0  0  0  0  0  0  0  0  0  0  0
  -38.3740    1.6201  -17.3936 C   0  0  0  0  0  0  0  0  0  0  0  0
  -39.4813    1.8066  -17.8605 O   0  0  0  0  0  0  0  0  0  0  0  0
  -37.8182    0.4094  -17.1985 N   0  0  0  0  0  0  0  0  0  0  0  0
 44 45  2  0  0  0
 45 46  1  0  0  0
 45 51  1  0  0  0
 46 47  1  0  0  0
 47 48  1  0  0  0
 47 49  1  0  0  0
 49 50  2  0  0  0
 49 51  1  0  0  0
 51 38  1  0  0  0
 38 39  2  0  0  0
 38 43  1  0  0  0
 39 40  1  0  0  0
 40 41  2  0  0  0
 41 42  1  0  0  0
 42 43  2  0  0  0
 43 36  1  0  0  0
 36 37  2  0  0  0
 36 35  1  0  0  0
 35 34  1  0  0  0
 34  1  1  0  0  0
  1  2  1  0  0  0
  1  6  1  0  0  0
  1  9  1  0  0  0
  2  3  1  0  0  0
  3  4  1  0  0  0
  4 24  1  0  0  0
  4  5  1  0  0  0
 24 25  1  0  0  0
  5  6  1  0  0  0
  5  7  1  0  0  0
  5 10  1  0  0  0
  6 21  1  0  0  0
  7  8  1  0  0  0
  7 19  1  0  0  0
  8 26  1  0  0  0
  8  9  1  0  0  0
 26 27  1  0  0  0
 10 11  1  0  0  0
 10 15  1  0  0  0
 11 12  1  0  0  0
 12 13  1  0  0  0
 12 16  1  0  0  0
 13 28  1  0  0  0
 13 14  1  0  0  0
 28 29  1  0  0  0
 14 17  1  0  0  0
 15 16  1  0  0  0
 15 17  1  0  0  0
 16 30  1  0  0  0
 30 31  1  0  0  0
 17 18  1  0  0  0
 17 19  1  0  0  0
 19 20  1  0  0  0
 19 21  1  0  0  0
 21 32  1  0  0  0
 32 33  1  0  0  0
 18 22  1  0  0  0
 20 23  1  0  0  0
M  END
> <minimizedAffinity>
-9.70427

$$$$
3SIO_MLK_A_260


 51 58  0  0  0  0  0  0  0  0999 V2000
  -33.4245   -1.7436  -18.1489 C   0  0  0  0  0  0  0  0  0  0  0  0
  -33.7749   -0.5802  -17.2212 C   0  0  0  0  0  0  0  0  0  0  0  0
  -33.7693   -0.9971  -15.7462 C   0  0  0  0  0  0  0  0  0  0  0  0
  -32.5914   -1.8923  -15.4031 C   0  0  0  0  0  0  0  0  0  0  0  0
  -32.4947   -3.1269  -16.2822 C   0  0  0  0  0  0  0  0  0  0  0  0
  -33.5580   -3.1017  -17.4056 C   0  0  0  0  0  0  0  0  0  0  0  0
  -31.1924   -3.2514  -17.1394 C   0  0  0  0  0  0  0  0  0  0  0  0
  -30.9690   -1.9655  -17.7951 N   0  0  0  0  0  0  0  0  0  0  0  0
  -32.0115   -1.5243  -18.7037 C   0  0  0  0  0  0  0  0  0  0  0  0
  -32.5954   -4.3630  -15.3767 C   0  0  0  0  0  0  0  0  0  0  0  0
  -31.4543   -4.4390  -14.3448 C   0  0  0  0  0  0  0  0  0  0  0  0
  -30.9447   -5.9056  -14.3566 C   0  0  0  0  0  0  0  0  0  0  0  0
  -29.7443   -5.9323  -15.3308 C   0  0  0  0  0  0  0  0  0  0  0  0
  -30.0987   -5.9267  -16.8136 C   0  0  0  0  0  0  0  0  0  0  0  0
  -32.5756   -5.7301  -16.1056 C   0  0  0  0  0  0  0  0  0  0  0  0
  -32.1162   -6.7146  -14.9737 C   0  0  0  0  0  0  0  0  0  0  0  0
  -31.5504   -5.7552  -17.2405 C   0  0  0  0  0  0  0  0  0  0  0  0
  -31.8910   -6.8536  -18.1181 O   0  0  0  0  0  0  0  0  0  0  0  0
  -31.5903   -4.4336  -18.0787 C   0  0  0  0  0  0  0  0  0  0  0  0
  -30.7755   -4.5479  -19.2614 O   0  0  0  0  0  0  0  0  0  0  0  0
  -33.0577   -4.1109  -18.4749 C   0  0  0  0  0  0  0  0  0  0  0  0
  -31.8723   -7.6846  -17.6182 H   0  0  0  0  0  0  0  0  0  0  0  0
  -29.8616   -4.7492  -19.0062 H   0  0  0  0  0  0  0  0  0  0  0  0
  -31.4008   -1.0833  -15.4335 O   0  0  0  0  0  0  0  0  0  0  0  0
  -31.7014    0.1839  -14.8290 C   0  0  0  0  0  0  0  0  0  0  0  0
  -29.6453   -1.8759  -18.4107 C   0  0  0  0  0  0  0  0  0  0  0  0
  -28.5776   -2.3558  -17.4281 C   0  0  0  0  0  0  0  0  0  0  0  0
  -28.8172   -6.9716  -15.0051 O   0  0  0  0  0  0  0  0  0  0  0  0
  -28.6270   -6.8810  -13.5905 C   0  0  0  0  0  0  0  0  0  0  0  0
  -31.6976   -8.0076  -15.4160 O   0  0  0  0  0  0  0  0  0  0  0  0
  -32.6819   -8.9825  -15.0607 C   0  0  0  0  0  0  0  0  0  0  0  0
  -33.8862   -5.2606  -18.5474 O   0  0  0  0  0  0  0  0  0  0  0  0
  -35.2350   -4.8837  -18.2655 C   0  0  0  0  0  0  0  0  0  0  0  0
  -34.3720   -1.7273  -19.3449 C   0  0  0  0  0  0  0  0  0  0  0  0
  -34.6078   -0.3462  -19.7173 O   0  0  0  0  0  0  0  0  0  0  0  0
  -35.8585    0.0547  -20.0167 C   0  0  0  0  0  0  0  0  0  0  0  0
  -36.3444   -0.2412  -21.0948 O   0  0  0  0  0  0  0  0  0  0  0  0
  -37.7420    0.2570  -18.3452 C   0  0  0  0  0  0  0  0  0  0  0  0
  -38.4143    1.0309  -17.4016 C   0  0  0  0  0  0  0  0  0  0  0  0
  -37.9988    2.3226  -17.1118 C   0  0  0  0  0  0  0  0  0  0  0  0
  -36.9058    2.8736  -17.7613 C   0  0  0  0  0  0  0  0  0  0  0  0
  -36.2251    2.1249  -18.6996 C   0  0  0  0  0  0  0  0  0  0  0  0
  -36.6291    0.8164  -19.0074 C   0  0  0  0  0  0  0  0  0  0  0  0
  -36.9059   -2.1403  -17.1198 O   0  0  0  0  0  0  0  0  0  0  0  0
  -37.8042   -2.1275  -17.9311 C   0  0  0  0  0  0  0  0  0  0  0  0
  -38.6549   -3.3226  -18.3359 C   0  0  0  0  0  0  0  0  0  0  0  0
  -39.4565   -2.7981  -19.5399 C   0  0  0  0  0  0  0  0  0  0  0  0
  -39.0511   -3.5391  -20.8178 C   0  0  0  0  0  0  0  0  0  0  0  0
  -39.0733   -1.3250  -19.5982 C   0  0  0  0  0  0  0  0  0  0  0  0
  -39.5007   -0.5132  -20.3966 O   0  0  0  0  0  0  0  0  0  0  0  0
  -38.1920   -1.0466  -18.6192 N   0  0  0  0  0  0  0  0  0  0  0  0
 44 45  2  0  0  0
 45 46  1  0  0  0
 45 51  1  0  0  0
 46 47  1  0  0  0
 47 48  1  0  0  0
 47 49  1  0  0  0
 49 50  2  0  0  0
 49 51  1  0  0  0
 51 38  1  0  0  0
 38 39  2  0  0  0
 38 43  1  0  0  0
 39 40  1  0  0  0
 40 41  2  0  0  0
 41 42  1  0  0  0
 42 43  2  0  0  0
 43 36  1  0  0  0
 36 37  2  0  0  0
 36 35  1  0  0  0
 35 34  1  0  0  0
 34  1  1  0  0  0
  1  2  1  0  0  0
  1  6  1  0  0  0
  1  9  1  0  0  0
  2  3  1  0  0  0
  3  4  1  0  0  0
  4 24  1  0  0  0
  4  5  1  0  0  0
 24 25  1  0  0  0
  5  6  1  0  0  0
  5  7  1  0  0  0
  5 10  1  0  0  0
  6 21  1  0  0  0
  7  8  1  0  0  0
  7 19  1  0  0  0
  8 26  1  0  0  0
  8  9  1  0  0  0
 26 27  1  0  0  0
 10 11  1  0  0  0
 10 15  1  0  0  0
 11 12  1  0  0  0
 12 13  1  0  0  0
 12 16  1  0  0  0
 13 28  1  0  0  0
 13 14  1  0  0  0
 28 29  1  0  0  0
 14 17  1  0  0  0
 15 16  1  0  0  0
 15 17  1  0  0  0
 16 30  1  0  0  0
 30 31  1  0  0  0
 17 18  1  0  0  0
 17 19  1  0  0  0
 19 20  1  0  0  0
 19 21  1  0  0  0
 21 32  1  0  0  0
 32 33  1  0  0  0
 18 22  1  0  0  0
 20 23  1  0  0  0
M  END
> <minimizedAffinity>
-9.64272

$$$$
3SIO_MLK_A_260


 51 58  0  0  0  0  0  0  0  0999 V2000
  -35.6293   -2.6340  -19.0200 C   0  0  0  0  0  0  0  0  0  0  0  0
  -34.2731   -3.2289  -19.3989 C   0  0  0  0  0  0  0  0  0  0  0  0
  -33.2425   -2.1459  -19.7371 C   0  0  0  0  0  0  0  0  0  0  0  0
  -33.2966   -0.9749  -18.7713 C   0  0  0  0  0  0  0  0  0  0  0  0
  -34.6756   -0.3489  -18.6577 C   0  0  0  0  0  0  0  0  0  0  0  0
  -35.7243   -1.1485  -19.4664 C   0  0  0  0  0  0  0  0  0  0  0  0
  -35.3293   -0.3962  -17.2376 C   0  0  0  0  0  0  0  0  0  0  0  0
  -35.1885   -1.7586  -16.7303 N   0  0  0  0  0  0  0  0  0  0  0  0
  -35.8359   -2.7983  -17.5092 C   0  0  0  0  0  0  0  0  0  0  0  0
  -34.5662    1.1209  -19.0889 C   0  0  0  0  0  0  0  0  0  0  0  0
  -33.6132    1.9343  -18.1929 C   0  0  0  0  0  0  0  0  0  0  0  0
  -34.3364    3.2718  -17.8782 C   0  0  0  0  0  0  0  0  0  0  0  0
  -35.0487    3.0628  -16.5218 C   0  0  0  0  0  0  0  0  0  0  0  0
  -36.3373    2.2498  -16.5727 C   0  0  0  0  0  0  0  0  0  0  0  0
  -35.8954    1.9170  -19.0962 C   0  0  0  0  0  0  0  0  0  0  0  0
  -35.4041    3.4037  -18.9962 C   0  0  0  0  0  0  0  0  0  0  0  0
  -36.7611    1.5905  -17.8783 C   0  0  0  0  0  0  0  0  0  0  0  0
  -38.1135    2.0111  -18.1731 O   0  0  0  0  0  0  0  0  0  0  0  0
  -36.7837    0.0526  -17.5864 C   0  0  0  0  0  0  0  0  0  0  0  0
  -37.7585   -0.2664  -16.5747 O   0  0  0  0  0  0  0  0  0  0  0  0
  -37.1041   -0.7223  -18.8945 C   0  0  0  0  0  0  0  0  0  0  0  0
  -38.1229    2.9633  -18.3575 H   0  0  0  0  0  0  0  0  0  0  0  0
  -37.5520    0.2207  -15.7617 H   0  0  0  0  0  0  0  0  0  0  0  0
  -32.7746   -1.4235  -17.5067 O   0  0  0  0  0  0  0  0  0  0  0  0
  -31.3661   -1.6577  -17.6581 C   0  0  0  0  0  0  0  0  0  0  0  0
  -35.5236   -1.8624  -15.3104 C   0  0  0  0  0  0  0  0  0  0  0  0
  -34.7221   -0.8385  -14.5072 C   0  0  0  0  0  0  0  0  0  0  0  0
  -35.2191    4.2941  -15.8145 O   0  0  0  0  0  0  0  0  0  0  0  0
  -33.9038    4.8393  -15.6790 C   0  0  0  0  0  0  0  0  0  0  0  0
  -36.4103    4.3625  -18.6632 O   0  0  0  0  0  0  0  0  0  0  0  0
  -35.9394    5.6803  -18.9587 C   0  0  0  0  0  0  0  0  0  0  0  0
  -37.8533    0.0382  -19.8293 O   0  0  0  0  0  0  0  0  0  0  0  0
  -39.1080   -0.6055  -20.0573 C   0  0  0  0  0  0  0  0  0  0  0  0
  -36.7320   -3.4379  -19.7029 C   0  0  0  0  0  0  0  0  0  0  0  0
  -37.7993   -3.6477  -18.7446 O   0  0  0  0  0  0  0  0  0  0  0  0
  -39.0033   -4.0704  -19.1763 C   0  0  0  0  0  0  0  0  0  0  0  0
  -39.2651   -4.0302  -20.3662 O   0  0  0  0  0  0  0  0  0  0  0  0
  -40.2932   -5.9837  -18.1478 C   0  0  0  0  0  0  0  0  0  0  0  0
  -41.2053   -6.4219  -17.1900 C   0  0  0  0  0  0  0  0  0  0  0  0
  -41.7811   -5.5328  -16.2939 C   0  0  0  0  0  0  0  0  0  0  0  0
  -41.4638   -4.1845  -16.3369 C   0  0  0  0  0  0  0  0  0  0  0  0
  -40.5629   -3.7286  -17.2775 C   0  0  0  0  0  0  0  0  0  0  0  0
  -39.9692   -4.6114  -18.1930 C   0  0  0  0  0  0  0  0  0  0  0  0
  -41.6019   -7.3754  -20.2210 O   0  0  0  0  0  0  0  0  0  0  0  0
  -40.4057   -7.4657  -20.0588 C   0  0  0  0  0  0  0  0  0  0  0  0
  -39.4411   -8.2282  -20.9555 C   0  0  0  0  0  0  0  0  0  0  0  0
  -38.1225   -8.2033  -20.1631 C   0  0  0  0  0  0  0  0  0  0  0  0
  -37.7348   -9.6185  -19.7229 C   0  0  0  0  0  0  0  0  0  0  0  0
  -38.4493   -7.3132  -18.9710 C   0  0  0  0  0  0  0  0  0  0  0  0
  -37.6742   -6.9995  -18.0879 O   0  0  0  0  0  0  0  0  0  0  0  0
  -39.7318   -6.9099  -19.0444 N   0  0  0  0  0  0  0  0  0  0  0  0
 44 45  2  0  0  0
 45 46  1  0  0  0
 45 51  1  0  0  0
 46 47  1  0  0  0
 47 48  1  0  0  0
 47 49  1  0  0  0
 49 50  2  0  0  0
 49 51  1  0  0  0
 51 38  1  0  0  0
 38 39  2  0  0  0
 38 43  1  0  0  0
 39 40  1  0  0  0
 40 41  2  0  0  0
 41 42  1  0  0  0
 42 43  2  0  0  0
 43 36  1  0  0  0
 36 37  2  0  0  0
 36 35  1  0  0  0
 35 34  1  0  0  0
 34  1  1  0  0  0
  1  2  1  0  0  0
  1  6  1  0  0  0
  1  9  1  0  0  0
  2  3  1  0  0  0
  3  4  1  0  0  0
  4 24  1  0  0  0
  4  5  1  0  0  0
 24 25  1  0  0  0
  5  6  1  0  0  0
  5  7  1  0  0  0
  5 10  1  0  0  0
  6 21  1  0  0  0
  7  8  1  0  0  0
  7 19  1  0  0  0
  8 26  1  0  0  0
  8  9  1  0  0  0
 26 27  1  0  0  0
 10 11  1  0  0  0
 10 15  1  0  0  0
 11 12  1  0  0  0
 12 13  1  0  0  0
 12 16  1  0  0  0
 13 28  1  0  0  0
 13 14  1  0  0  0
 28 29  1  0  0  0
 14 17  1  0  0  0
 15 16  1  0  0  0
 15 17  1  0  0  0
 16 30  1  0  0  0
 30 31  1  0  0  0
 17 18  1  0  0  0
 17 19  1  0  0  0
 19 20  1  0  0  0
 19 21  1  0  0  0
 21 32  1  0  0  0
 32 33  1  0  0  0
 18 22  1  0  0  0
 20 23  1  0  0  0
M  END
> <minimizedAffinity>
-9.35295

$$$$
3SIO_MLK_A_260


 51 58  0  0  0  0  0  0  0  0999 V2000
  -35.8494   -1.9487  -17.5369 C   0  0  0  0  0  0  0  0  0  0  0  0
  -37.2449   -2.5726  -17.5431 C   0  0  0  0  0  0  0  0  0  0  0  0
  -38.3144   -1.5984  -17.0366 C   0  0  0  0  0  0  0  0  0  0  0  0
  -38.1252   -0.1955  -17.5868 C   0  0  0  0  0  0  0  0  0  0  0  0
  -36.7449    0.3778  -17.3177 C   0  0  0  0  0  0  0  0  0  0  0  0
  -35.8205   -0.6702  -16.6540 C   0  0  0  0  0  0  0  0  0  0  0  0
  -35.8962    0.7304  -18.5833 C   0  0  0  0  0  0  0  0  0  0  0  0
  -35.9619   -0.4106  -19.4927 N   0  0  0  0  0  0  0  0  0  0  0  0
  -35.4303   -1.6619  -18.9840 C   0  0  0  0  0  0  0  0  0  0  0  0
  -36.9162    1.6544  -16.4816 C   0  0  0  0  0  0  0  0  0  0  0  0
  -37.7333    2.7377  -17.2106 C   0  0  0  0  0  0  0  0  0  0  0  0
  -36.9745    4.0767  -17.0054 C   0  0  0  0  0  0  0  0  0  0  0  0
  -36.0767    4.2536  -18.2517 C   0  0  0  0  0  0  0  0  0  0  0  0
  -34.8072    3.4096  -18.2745 C   0  0  0  0  0  0  0  0  0  0  0  0
  -35.6025    2.3557  -16.0539 C   0  0  0  0  0  0  0  0  0  0  0  0
  -36.0764    3.8234  -15.7657 C   0  0  0  0  0  0  0  0  0  0  0  0
  -34.5722    2.3728  -17.1843 C   0  0  0  0  0  0  0  0  0  0  0  0
  -33.2759    2.6291  -16.5956 O   0  0  0  0  0  0  0  0  0  0  0  0
  -34.5066    0.9931  -17.9213 C   0  0  0  0  0  0  0  0  0  0  0  0
  -33.3976    0.9511  -18.8400 O   0  0  0  0  0  0  0  0  0  0  0  0
  -34.3741   -0.1504  -16.8776 C   0  0  0  0  0  0  0  0  0  0  0  0
  -33.2939    3.4813  -16.1326 H   0  0  0  0  0  0  0  0  0  0  0  0
  -33.4872    1.6674  -19.4880 H   0  0  0  0  0  0  0  0  0  0  0  0
  -38.4619   -0.2229  -18.9863 O   0  0  0  0  0  0  0  0  0  0  0  0
  -39.7630   -0.8141  -19.1254 C   0  0  0  0  0  0  0  0  0  0  0  0
  -35.4285   -0.0987  -20.8184 C   0  0  0  0  0  0  0  0  0  0  0  0
  -35.9231    1.2745  -21.2717 C   0  0  0  0  0  0  0  0  0  0  0  0
  -35.8091    5.6320  -18.5239 O   0  0  0  0  0  0  0  0  0  0  0  0
  -34.4979    5.6586  -19.0947 C   0  0  0  0  0  0  0  0  0  0  0  0
  -35.0343    4.7950  -15.6537 O   0  0  0  0  0  0  0  0  0  0  0  0
  -35.4710    5.8799  -14.8303 C   0  0  0  0  0  0  0  0  0  0  0  0
  -33.7661    0.2637  -15.6642 O   0  0  0  0  0  0  0  0  0  0  0  0
  -34.3905   -0.4146  -14.5730 C   0  0  0  0  0  0  0  0  0  0  0  0
  -34.8538   -2.9654  -16.9859 C   0  0  0  0  0  0  0  0  0  0  0  0
  -34.7156   -4.0350  -17.9545 O   0  0  0  0  0  0  0  0  0  0  0  0
  -33.5125   -4.6135  -18.1353 C   0  0  0  0  0  0  0  0  0  0  0  0
  -32.8396   -4.3139  -19.1066 O   0  0  0  0  0  0  0  0  0  0  0  0
  -31.9312   -5.2724  -16.2786 C   0  0  0  0  0  0  0  0  0  0  0  0
  -31.5271   -6.2242  -15.3447 C   0  0  0  0  0  0  0  0  0  0  0  0
  -32.1810   -7.4434  -15.2402 C   0  0  0  0  0  0  0  0  0  0  0  0
  -33.2502   -7.7428  -16.0694 C   0  0  0  0  0  0  0  0  0  0  0  0
  -33.6672   -6.8147  -17.0016 C   0  0  0  0  0  0  0  0  0  0  0  0
  -33.0193   -5.5756  -17.1236 C   0  0  0  0  0  0  0  0  0  0  0  0
  -29.6953   -4.6662  -17.8851 O   0  0  0  0  0  0  0  0  0  0  0  0
  -30.2392   -3.8165  -17.2161 C   0  0  0  0  0  0  0  0  0  0  0  0
  -29.8888   -2.3357  -17.2016 C   0  0  0  0  0  0  0  0  0  0  0  0
  -30.7160   -1.7852  -16.0269 C   0  0  0  0  0  0  0  0  0  0  0  0
  -29.7947   -1.2996  -14.9035 C   0  0  0  0  0  0  0  0  0  0  0  0
  -31.5471   -2.9859  -15.5933 C   0  0  0  0  0  0  0  0  0  0  0  0
  -32.3698   -2.9913  -14.6978 O   0  0  0  0  0  0  0  0  0  0  0  0
  -31.2437   -4.0487  -16.3621 N   0  0  0  0  0  0  0  0  0  0  0  0
 44 45  2  0  0  0
 45 46  1  0  0  0
 45 51  1  0  0  0
 46 47  1  0  0  0
 47 48  1  0  0  0
 47 49  1  0  0  0
 49 50  2  0  0  0
 49 51  1  0  0  0
 51 38  1  0  0  0
 38 39  2  0  0  0
 38 43  1  0  0  0
 39 40  1  0  0  0
 40 41  2  0  0  0
 41 42  1  0  0  0
 42 43  2  0  0  0
 43 36  1  0  0  0
 36 37  2  0  0  0
 36 35  1  0  0  0
 35 34  1  0  0  0
 34  1  1  0  0  0
  1  2  1  0  0  0
  1  6  1  0  0  0
  1  9  1  0  0  0
  2  3  1  0  0  0
  3  4  1  0  0  0
  4 24  1  0  0  0
  4  5  1  0  0  0
 24 25  1  0  0  0
  5  6  1  0  0  0
  5  7  1  0  0  0
  5 10  1  0  0  0
  6 21  1  0  0  0
  7  8  1  0  0  0
  7 19  1  0  0  0
  8 26  1  0  0  0
  8  9  1  0  0  0
 26 27  1  0  0  0
 10 11  1  0  0  0
 10 15  1  0  0  0
 11 12  1  0  0  0
 12 13  1  0  0  0
 12 16  1  0  0  0
 13 28  1  0  0  0
 13 14  1  0  0  0
 28 29  1  0  0  0
 14 17  1  0  0  0
 15 16  1  0  0  0
 15 17  1  0  0  0
 16 30  1  0  0  0
 30 31  1  0  0  0
 17 18  1  0  0  0
 17 19  1  0  0  0
 19 20  1  0  0  0
 19 21  1  0  0  0
 21 32  1  0  0  0
 32 33  1  0  0  0
 18 22  1  0  0  0
 20 23  1  0  0  0
M  END
> <minimizedAffinity>
-9.31770

$$$$
3SIO_MLK_A_260


 51 58  0  0  0  0  0  0  0  0999 V2000
  -33.4232   -1.9360  -17.6868 C   0  0  0  0  0  0  0  0  0  0  0  0
  -33.3438   -0.6096  -16.9311 C   0  0  0  0  0  0  0  0  0  0  0  0
  -32.8890   -0.7991  -15.4797 C   0  0  0  0  0  0  0  0  0  0  0  0
  -31.7479   -1.7938  -15.3568 C   0  0  0  0  0  0  0  0  0  0  0  0
  -32.0561   -3.1461  -15.9753 C   0  0  0  0  0  0  0  0  0  0  0  0
  -33.4237   -3.1351  -16.6983 C   0  0  0  0  0  0  0  0  0  0  0  0
  -31.1256   -3.5830  -17.1542 C   0  0  0  0  0  0  0  0  0  0  0  0
  -31.0182   -2.4546  -18.0752 N   0  0  0  0  0  0  0  0  0  0  0  0
  -32.2586   -2.0076  -18.6823 C   0  0  0  0  0  0  0  0  0  0  0  0
  -31.9615   -4.2065  -14.8686 C   0  0  0  0  0  0  0  0  0  0  0  0
  -30.5554   -4.2921  -14.2454 C   0  0  0  0  0  0  0  0  0  0  0  0
  -30.2100   -5.8021  -14.1397 C   0  0  0  0  0  0  0  0  0  0  0  0
  -29.4053   -6.1460  -15.4144 C   0  0  0  0  0  0  0  0  0  0  0  0
  -30.2268   -6.3096  -16.6881 C   0  0  0  0  0  0  0  0  0  0  0  0
  -32.3040   -5.6551  -15.2984 C   0  0  0  0  0  0  0  0  0  0  0  0
  -31.5860   -6.5164  -14.2010 C   0  0  0  0  0  0  0  0  0  0  0  0
  -31.7169   -5.9960  -16.6691 C   0  0  0  0  0  0  0  0  0  0  0  0
  -32.4235   -7.1519  -17.1763 O   0  0  0  0  0  0  0  0  0  0  0  0
  -31.9140   -4.8218  -17.6855 C   0  0  0  0  0  0  0  0  0  0  0  0
  -31.5482   -5.2267  -19.0189 O   0  0  0  0  0  0  0  0  0  0  0  0
  -33.3953   -4.3534  -17.6612 C   0  0  0  0  0  0  0  0  0  0  0  0
  -32.3146   -7.8933  -16.5604 H   0  0  0  0  0  0  0  0  0  0  0  0
  -30.6228   -5.5175  -19.0261 H   0  0  0  0  0  0  0  0  0  0  0  0
  -30.5674   -1.1784  -15.9050 O   0  0  0  0  0  0  0  0  0  0  0  0
  -29.8102   -0.6132  -14.8238 C   0  0  0  0  0  0  0  0  0  0  0  0
  -29.9690   -2.6491  -19.0756 C   0  0  0  0  0  0  0  0  0  0  0  0
  -30.4602   -2.1846  -20.4462 C   0  0  0  0  0  0  0  0  0  0  0  0
  -28.5184   -7.2480  -15.2032 O   0  0  0  0  0  0  0  0  0  0  0  0
  -28.4948   -7.9595  -16.4437 C   0  0  0  0  0  0  0  0  0  0  0  0
  -31.4528   -7.9073  -14.5010 O   0  0  0  0  0  0  0  0  0  0  0  0
  -31.2341   -8.6436  -13.2944 C   0  0  0  0  0  0  0  0  0  0  0  0
  -34.2996   -5.3695  -17.2572 O   0  0  0  0  0  0  0  0  0  0  0  0
  -35.2791   -5.5574  -18.2799 C   0  0  0  0  0  0  0  0  0  0  0  0
  -34.7067   -1.9611  -18.5117 C   0  0  0  0  0  0  0  0  0  0  0  0
  -34.3440   -1.9298  -19.9149 O   0  0  0  0  0  0  0  0  0  0  0  0
  -35.2171   -1.4349  -20.8136 C   0  0  0  0  0  0  0  0  0  0  0  0
  -34.8130   -1.0486  -21.8968 O   0  0  0  0  0  0  0  0  0  0  0  0
  -37.2554   -0.2888  -19.8577 C   0  0  0  0  0  0  0  0  0  0  0  0
  -38.6191   -0.3320  -19.5752 C   0  0  0  0  0  0  0  0  0  0  0  0
  -39.3791   -1.4474  -19.8969 C   0  0  0  0  0  0  0  0  0  0  0  0
  -38.7941   -2.5476  -20.5032 C   0  0  0  0  0  0  0  0  0  0  0  0
  -37.4449   -2.5263  -20.7920 C   0  0  0  0  0  0  0  0  0  0  0  0
  -36.6583   -1.4080  -20.4748 C   0  0  0  0  0  0  0  0  0  0  0  0
  -36.6321    0.6388  -17.2695 O   0  0  0  0  0  0  0  0  0  0  0  0
  -36.1885    1.1809  -18.2568 C   0  0  0  0  0  0  0  0  0  0  0  0
  -35.1953    2.3339  -18.2687 C   0  0  0  0  0  0  0  0  0  0  0  0
  -35.1694    2.7668  -19.7449 C   0  0  0  0  0  0  0  0  0  0  0  0
  -35.7444    4.1781  -19.8999 C   0  0  0  0  0  0  0  0  0  0  0  0
  -36.0447    1.7245  -20.4289 C   0  0  0  0  0  0  0  0  0  0  0  0
  -36.2820    1.6708  -21.6204 O   0  0  0  0  0  0  0  0  0  0  0  0
  -36.5130    0.8547  -19.5140 N   0  0  0  0  0  0  0  0  0  0  0  0
 44 45  2  0  0  0
 45 46  1  0  0  0
 45 51  1  0  0  0
 46 47  1  0  0  0
 47 48  1  0  0  0
 47 49  1  0  0  0
 49 50  2  0  0  0
 49 51  1  0  0  0
 51 38  1  0  0  0
 38 39  2  0  0  0
 38 43  1  0  0  0
 39 40  1  0  0  0
 40 41  2  0  0  0
 41 42  1  0  0  0
 42 43  2  0  0  0
 43 36  1  0  0  0
 36 37  2  0  0  0
 36 35  1  0  0  0
 35 34  1  0  0  0
 34  1  1  0  0  0
  1  2  1  0  0  0
  1  6  1  0  0  0
  1  9  1  0  0  0
  2  3  1  0  0  0
  3  4  1  0  0  0
  4 24  1  0  0  0
  4  5  1  0  0  0
 24 25  1  0  0  0
  5  6  1  0  0  0
  5  7  1  0  0  0
  5 10  1  0  0  0
  6 21  1  0  0  0
  7  8  1  0  0  0
  7 19  1  0  0  0
  8 26  1  0  0  0
  8  9  1  0  0  0
 26 27  1  0  0  0
 10 11  1  0  0  0
 10 15  1  0  0  0
 11 12  1  0  0  0
 12 13  1  0  0  0
 12 16  1  0  0  0
 13 28  1  0  0  0
 13 14  1  0  0  0
 28 29  1  0  0  0
 14 17  1  0  0  0
 15 16  1  0  0  0
 15 17  1  0  0  0
 16 30  1  0  0  0
 30 31  1  0  0  0
 17 18  1  0  0  0
 17 19  1  0  0  0
 19 20  1  0  0  0
 19 21  1  0  0  0
 21 32  1  0  0  0
 32 33  1  0  0  0
 18 22  1  0  0  0
 20 23  1  0  0  0
M  END
> <minimizedAffinity>
-9.27459

$$$$
3SIO_MLK_A_260


 51 58  0  0  0  0  0  0  0  0999 V2000
  -33.2636   -1.7154  -17.8520 C   0  0  0  0  0  0  0  0  0  0  0  0
  -33.1554   -0.3825  -17.1114 C   0  0  0  0  0  0  0  0  0  0  0  0
  -32.7383   -0.5681  -15.6481 C   0  0  0  0  0  0  0  0  0  0  0  0
  -31.6343   -1.5988  -15.4882 C   0  0  0  0  0  0  0  0  0  0  0  0
  -31.9750   -2.9481  -16.0962 C   0  0  0  0  0  0  0  0  0  0  0  0
  -33.3258   -2.9006  -16.8488 C   0  0  0  0  0  0  0  0  0  0  0  0
  -31.0350   -3.4314  -17.2492 C   0  0  0  0  0  0  0  0  0  0  0  0
  -30.8699   -2.3196  -18.1817 N   0  0  0  0  0  0  0  0  0  0  0  0
  -32.0813   -1.8392  -18.8210 C   0  0  0  0  0  0  0  0  0  0  0  0
  -31.9398   -3.9963  -14.9746 C   0  0  0  0  0  0  0  0  0  0  0  0
  -30.5510   -4.1208  -14.3201 C   0  0  0  0  0  0  0  0  0  0  0  0
  -30.2592   -5.6401  -14.1880 C   0  0  0  0  0  0  0  0  0  0  0  0
  -29.4398   -6.0276  -15.4406 C   0  0  0  0  0  0  0  0  0  0  0  0
  -30.2391   -6.1804  -16.7298 C   0  0  0  0  0  0  0  0  0  0  0  0
  -32.3220   -5.4382  -15.3937 C   0  0  0  0  0  0  0  0  0  0  0  0
  -31.6571   -6.3085  -14.2703 C   0  0  0  0  0  0  0  0  0  0  0  0
  -31.7178   -5.8166  -16.7469 C   0  0  0  0  0  0  0  0  0  0  0  0
  -32.4522   -6.9547  -17.2549 O   0  0  0  0  0  0  0  0  0  0  0  0
  -31.8533   -4.6500  -17.7820 C   0  0  0  0  0  0  0  0  0  0  0  0
  -31.4732   -5.0845  -19.1020 O   0  0  0  0  0  0  0  0  0  0  0  0
  -33.3181   -4.1318  -17.7956 C   0  0  0  0  0  0  0  0  0  0  0  0
  -32.3816   -7.6912  -16.6276 H   0  0  0  0  0  0  0  0  0  0  0  0
  -30.5583   -5.4063  -19.0855 H   0  0  0  0  0  0  0  0  0  0  0  0
  -30.4223   -1.0307  -16.0182 O   0  0  0  0  0  0  0  0  0  0  0  0
  -29.9093   -0.0904  -15.0620 C   0  0  0  0  0  0  0  0  0  0  0  0
  -29.8069   -2.5624  -19.1565 C   0  0  0  0  0  0  0  0  0  0  0  0
  -30.2405   -2.0708  -20.5371 C   0  0  0  0  0  0  0  0  0  0  0  0
  -28.5954   -7.1559  -15.1965 O   0  0  0  0  0  0  0  0  0  0  0  0
  -28.5477   -7.8694  -16.4351 C   0  0  0  0  0  0  0  0  0  0  0  0
  -31.5647   -7.7070  -14.5499 O   0  0  0  0  0  0  0  0  0  0  0  0
  -32.6764   -8.3915  -13.9659 C   0  0  0  0  0  0  0  0  0  0  0  0
  -34.2647   -5.1116  -17.3987 O   0  0  0  0  0  0  0  0  0  0  0  0
  -35.2636   -5.2346  -18.4126 C   0  0  0  0  0  0  0  0  0  0  0  0
  -34.5294   -1.7083  -18.7041 C   0  0  0  0  0  0  0  0  0  0  0  0
  -35.5067   -0.8558  -18.0563 O   0  0  0  0  0  0  0  0  0  0  0  0
  -36.2537   -0.0191  -18.8024 C   0  0  0  0  0  0  0  0  0  0  0  0
  -35.9352    0.2057  -19.9574 O   0  0  0  0  0  0  0  0  0  0  0  0
  -37.4548    1.8590  -17.6140 C   0  0  0  0  0  0  0  0  0  0  0  0
  -38.6404    2.3615  -17.0820 C   0  0  0  0  0  0  0  0  0  0  0  0
  -39.8156    1.6260  -17.1381 C   0  0  0  0  0  0  0  0  0  0  0  0
  -39.8330    0.3693  -17.7219 C   0  0  0  0  0  0  0  0  0  0  0  0
  -38.6700   -0.1479  -18.2551 C   0  0  0  0  0  0  0  0  0  0  0  0
  -37.4707    0.5798  -18.2085 C   0  0  0  0  0  0  0  0  0  0  0  0
  -35.5992    1.9477  -15.4935 O   0  0  0  0  0  0  0  0  0  0  0  0
  -35.4051    2.5490  -16.5260 C   0  0  0  0  0  0  0  0  0  0  0  0
  -34.1500    3.3355  -16.8754 C   0  0  0  0  0  0  0  0  0  0  0  0
  -34.5379    4.0684  -18.1714 C   0  0  0  0  0  0  0  0  0  0  0  0
  -34.5789    5.5821  -17.9398 C   0  0  0  0  0  0  0  0  0  0  0  0
  -35.9195    3.5100  -18.4871 C   0  0  0  0  0  0  0  0  0  0  0  0
  -36.5972    3.8018  -19.4538 O   0  0  0  0  0  0  0  0  0  0  0  0
  -36.2802    2.6279  -17.5361 N   0  0  0  0  0  0  0  0  0  0  0  0
 44 45  2  0  0  0
 45 46  1  0  0  0
 45 51  1  0  0  0
 46 47  1  0  0  0
 47 48  1  0  0  0
 47 49  1  0  0  0
 49 50  2  0  0  0
 49 51  1  0  0  0
 51 38  1  0  0  0
 38 39  2  0  0  0
 38 43  1  0  0  0
 39 40  1  0  0  0
 40 41  2  0  0  0
 41 42  1  0  0  0
 42 43  2  0  0  0
 43 36  1  0  0  0
 36 37  2  0  0  0
 36 35  1  0  0  0
 35 34  1  0  0  0
 34  1  1  0  0  0
  1  2  1  0  0  0
  1  6  1  0  0  0
  1  9  1  0  0  0
  2  3  1  0  0  0
  3  4  1  0  0  0
  4 24  1  0  0  0
  4  5  1  0  0  0
 24 25  1  0  0  0
  5  6  1  0  0  0
  5  7  1  0  0  0
  5 10  1  0  0  0
  6 21  1  0  0  0
  7  8  1  0  0  0
  7 19  1  0  0  0
  8 26  1  0  0  0
  8  9  1  0  0  0
 26 27  1  0  0  0
 10 11  1  0  0  0
 10 15  1  0  0  0
 11 12  1  0  0  0
 12 13  1  0  0  0
 12 16  1  0  0  0
 13 28  1  0  0  0
 13 14  1  0  0  0
 28 29  1  0  0  0
 14 17  1  0  0  0
 15 16  1  0  0  0
 15 17  1  0  0  0
 16 30  1  0  0  0
 30 31  1  0  0  0
 17 18  1  0  0  0
 17 19  1  0  0  0
 19 20  1  0  0  0
 19 21  1  0  0  0
 21 32  1  0  0  0
 32 33  1  0  0  0
 18 22  1  0  0  0
 20 23  1  0  0  0
M  END
> <minimizedAffinity>
-9.01767

$$$$
3SIO_MLK_A_260


 51 58  0  0  0  0  0  0  0  0999 V2000
  -35.6589   -1.6326  -17.3677 C   0  0  0  0  0  0  0  0  0  0  0  0
  -37.0276   -2.3064  -17.2695 C   0  0  0  0  0  0  0  0  0  0  0  0
  -38.0943   -1.3648  -16.6995 C   0  0  0  0  0  0  0  0  0  0  0  0
  -37.9956    0.0368  -17.2761 C   0  0  0  0  0  0  0  0  0  0  0  0
  -36.6219    0.6628  -17.1105 C   0  0  0  0  0  0  0  0  0  0  0  0
  -35.6156   -0.3426  -16.5023 C   0  0  0  0  0  0  0  0  0  0  0  0
  -35.8770    1.0292  -18.4361 C   0  0  0  0  0  0  0  0  0  0  0  0
  -35.9639   -0.1251  -19.3267 N   0  0  0  0  0  0  0  0  0  0  0  0
  -35.3525   -1.3497  -18.8435 C   0  0  0  0  0  0  0  0  0  0  0  0
  -36.7814    1.9431  -16.2777 C   0  0  0  0  0  0  0  0  0  0  0  0
  -37.6867    2.9868  -16.9589 C   0  0  0  0  0  0  0  0  0  0  0  0
  -36.9651    4.3548  -16.8213 C   0  0  0  0  0  0  0  0  0  0  0  0
  -36.1635    4.5477  -18.1293 C   0  0  0  0  0  0  0  0  0  0  0  0
  -34.8685    3.7497  -18.2323 C   0  0  0  0  0  0  0  0  0  0  0  0
  -35.4678    2.6967  -15.9505 C   0  0  0  0  0  0  0  0  0  0  0  0
  -35.9741    4.1500  -15.6451 C   0  0  0  0  0  0  0  0  0  0  0  0
  -34.5201    2.7362  -17.1505 C   0  0  0  0  0  0  0  0  0  0  0  0
  -33.1963    3.0466  -16.6568 O   0  0  0  0  0  0  0  0  0  0  0  0
  -34.4553    1.3504  -17.8758 C   0  0  0  0  0  0  0  0  0  0  0  0
  -33.4123    1.3364  -18.8696 O   0  0  0  0  0  0  0  0  0  0  0  0
  -34.2085    0.2260  -16.8322 C   0  0  0  0  0  0  0  0  0  0  0  0
  -33.2133    3.9035  -16.2026 H   0  0  0  0  0  0  0  0  0  0  0  0
  -33.5731    2.0405  -19.5171 H   0  0  0  0  0  0  0  0  0  0  0  0
  -38.4278   -0.0208  -18.6482 O   0  0  0  0  0  0  0  0  0  0  0  0
  -39.7413   -0.5998  -18.6832 C   0  0  0  0  0  0  0  0  0  0  0  0
  -35.5361    0.1886  -20.6897 C   0  0  0  0  0  0  0  0  0  0  0  0
  -35.3672   -1.0994  -21.4948 C   0  0  0  0  0  0  0  0  0  0  0  0
  -35.9664    5.9312  -18.4340 O   0  0  0  0  0  0  0  0  0  0  0  0
  -35.3566    5.9519  -19.7275 C   0  0  0  0  0  0  0  0  0  0  0  0
  -34.9633    5.1599  -15.6166 O   0  0  0  0  0  0  0  0  0  0  0  0
  -34.5249    5.3677  -14.2711 C   0  0  0  0  0  0  0  0  0  0  0  0
  -33.5330    0.6773  -15.6688 O   0  0  0  0  0  0  0  0  0  0  0  0
  -33.9749   -0.0866  -14.5455 C   0  0  0  0  0  0  0  0  0  0  0  0
  -34.5906   -2.6056  -16.8772 C   0  0  0  0  0  0  0  0  0  0  0  0
  -33.6927   -2.8860  -17.9802 O   0  0  0  0  0  0  0  0  0  0  0  0
  -32.3682   -2.9739  -17.7500 C   0  0  0  0  0  0  0  0  0  0  0  0
  -31.9656   -3.1776  -16.6177 O   0  0  0  0  0  0  0  0  0  0  0  0
  -30.1785   -2.2237  -18.7622 C   0  0  0  0  0  0  0  0  0  0  0  0
  -29.3464   -2.1587  -19.8779 C   0  0  0  0  0  0  0  0  0  0  0  0
  -29.7353   -2.7090  -21.0907 C   0  0  0  0  0  0  0  0  0  0  0  0
  -30.9662   -3.3323  -21.2193 C   0  0  0  0  0  0  0  0  0  0  0  0
  -31.8063   -3.4081  -20.1271 C   0  0  0  0  0  0  0  0  0  0  0  0
  -31.4320   -2.8578  -18.8913 C   0  0  0  0  0  0  0  0  0  0  0  0
  -28.6780   -3.4516  -16.7156 O   0  0  0  0  0  0  0  0  0  0  0  0
  -28.9717   -2.2784  -16.6642 C   0  0  0  0  0  0  0  0  0  0  0  0
  -28.5243   -1.2951  -15.5922 C   0  0  0  0  0  0  0  0  0  0  0  0
  -29.3657   -0.0408  -15.8856 C   0  0  0  0  0  0  0  0  0  0  0  0
  -30.3438    0.2292  -14.7380 C   0  0  0  0  0  0  0  0  0  0  0  0
  -30.0950   -0.4039  -17.1727 C   0  0  0  0  0  0  0  0  0  0  0  0
  -30.8602    0.3194  -17.7812 O   0  0  0  0  0  0  0  0  0  0  0  0
  -29.7564   -1.6515  -17.5492 N   0  0  0  0  0  0  0  0  0  0  0  0
 44 45  2  0  0  0
 45 46  1  0  0  0
 45 51  1  0  0  0
 46 47  1  0  0  0
 47 48  1  0  0  0
 47 49  1  0  0  0
 49 50  2  0  0  0
 49 51  1  0  0  0
 51 38  1  0  0  0
 38 39  2  0  0  0
 38 43  1  0  0  0
 39 40  1  0  0  0
 40 41  2  0  0  0
 41 42  1  0  0  0
 42 43  2  0  0  0
 43 36  1  0  0  0
 36 37  2  0  0  0
 36 35  1  0  0  0
 35 34  1  0  0  0
 34  1  1  0  0  0
  1  2  1  0  0  0
  1  6  1  0  0  0
  1  9  1  0  0  0
  2  3  1  0  0  0
  3  4  1  0  0  0
  4 24  1  0  0  0
  4  5  1  0  0  0
 24 25  1  0  0  0
  5  6  1  0  0  0
  5  7  1  0  0  0
  5 10  1  0  0  0
  6 21  1  0  0  0
  7  8  1  0  0  0
  7 19  1  0  0  0
  8 26  1  0  0  0
  8  9  1  0  0  0
 26 27  1  0  0  0
 10 11  1  0  0  0
 10 15  1  0  0  0
 11 12  1  0  0  0
 12 13  1  0  0  0
 12 16  1  0  0  0
 13 28  1  0  0  0
 13 14  1  0  0  0
 28 29  1  0  0  0
 14 17  1  0  0  0
 15 16  1  0  0  0
 15 17  1  0  0  0
 16 30  1  0  0  0
 30 31  1  0  0  0
 17 18  1  0  0  0
 17 19  1  0  0  0
 19 20  1  0  0  0
 19 21  1  0  0  0
 21 32  1  0  0  0
 32 33  1  0  0  0
 18 22  1  0  0  0
 20 23  1  0  0  0
M  END
> <minimizedAffinity>
-8.99808

$$$$
