3SIO_MLK_A_260
  RCSB PDB12061710443D
Coordinates from PDB:3SIO:A:260 Model:1 without hydrogens
 49 56  0  0  0  0            999 V2000
  -37.6130   -7.8750  -19.3830   O 0  0  0  0  0  0  0  0  0  0  0  0
  -38.4430   -8.3070  -20.1510   C 0  0  0  0  0  0  0  0  0  0  0  0
  -38.1660   -9.2050  -21.3480   C 0  0  0  0  0  0  0  0  0  0  0  0
  -39.5170   -9.2460  -22.0830   C 0  0  0  0  0  0  0  0  0  0  0  0
  -39.4040   -8.5660  -23.4510   C 0  0  0  0  0  0  0  0  0  0  0  0
  -40.4450   -8.4800  -21.1490   C 0  0  0  0  0  0  0  0  0  0  0  0
  -41.6320   -8.2880  -21.3310   O 0  0  0  0  0  0  0  0  0  0  0  0
  -39.7550   -8.0520  -20.0750   N 0  0  0  0  0  0  0  0  0  0  0  0
  -40.3650   -7.4150  -18.9800   C 0  0  0  0  0  0  0  0  0  0  0  0
  -41.0100   -8.1820  -18.0120   C 0  0  0  0  0  0  0  0  0  0  0  0
  -41.6260   -7.5840  -16.9220   C 0  0  0  0  0  0  0  0  0  0  0  0
  -41.6170   -6.2060  -16.7760   C 0  0  0  0  0  0  0  0  0  0  0  0
  -40.9840   -5.4270  -17.7230   C 0  0  0  0  0  0  0  0  0  0  0  0
  -40.3550   -6.0120  -18.8330   C 0  0  0  0  0  0  0  0  0  0  0  0
  -39.6840   -5.1300  -19.8150   C 0  0  0  0  0  0  0  0  0  0  0  0
  -39.2540   -5.5660  -20.8690   O 0  0  0  0  0  0  0  0  0  0  0  0
  -39.5180   -3.8270  -19.5160   O 0  0  0  0  0  0  0  0  0  0  0  0
  -38.5480   -3.0440  -20.2560   C 0  0  0  0  0  0  0  0  0  0  0  0
  -38.2760   -1.7610  -19.4760   C 0  0  0  0  0  0  0  0  0  0  0  0
  -39.5990   -1.2170  -18.9370   C 0  0  0  0  0  0  0  0  0  0  0  0
  -39.4780   -0.7410  -17.4850   C 0  0  0  0  0  0  0  0  0  0  0  0
  -38.1980    0.0380  -17.2370   C 0  0  0  0  0  0  0  0  0  0  0  0
  -38.3210    1.3090  -17.9020   O 0  0  0  0  0  0  0  0  0  0  0  0
  -39.0960    2.1820  -17.0660   C 0  0  0  0  0  0  0  0  0  0  0  0
  -36.9430   -0.7210  -17.6310   C 0  0  0  0  0  0  0  0  0  0  0  0
  -37.2900   -2.0650  -18.3140   C 0  0  0  0  0  0  0  0  0  0  0  0
  -36.0720   -0.0610  -18.7500   C 0  0  0  0  0  0  0  0  0  0  0  0
  -36.9670    0.3270  -19.8370   N 0  0  0  0  0  0  0  0  0  0  0  0
  -36.3100    1.1880  -20.8200   C 0  0  0  0  0  0  0  0  0  0  0  0
  -35.9200    2.5170  -20.1740   C 0  0  0  0  0  0  0  0  0  0  0  0
  -37.6980   -0.7520  -20.4760   C 0  0  0  0  0  0  0  0  0  0  0  0
  -36.0730   -0.8830  -16.3760   C 0  0  0  0  0  0  0  0  0  0  0  0
  -35.6300    0.4670  -15.7810   C 0  0  0  0  0  0  0  0  0  0  0  0
  -34.1190    0.3300  -15.4510   C 0  0  0  0  0  0  0  0  0  0  0  0
  -33.3620    0.8930  -16.6760   C 0  0  0  0  0  0  0  0  0  0  0  0
  -32.0750    1.4040  -16.3180   O 0  0  0  0  0  0  0  0  0  0  0  0
  -32.2880    2.7830  -16.0040   C 0  0  0  0  0  0  0  0  0  0  0  0
  -33.2940   -0.0280  -17.8890   C 0  0  0  0  0  0  0  0  0  0  0  0
  -34.7650   -1.6910  -16.5680   C 0  0  0  0  0  0  0  0  0  0  0  0
  -33.8810   -1.2010  -15.3680   C 0  0  0  0  0  0  0  0  0  0  0  0
  -32.4930   -1.5310  -15.4520   O 0  0  0  0  0  0  0  0  0  0  0  0
  -32.2750   -2.8430  -14.9260   C 0  0  0  0  0  0  0  0  0  0  0  0
  -34.0670   -1.3400  -17.8830   C 0  0  0  0  0  0  0  0  0  0  0  0
  -33.1390   -2.4070  -18.1880   O 0  0  0  0  0  0  0  0  0  0  0  0
  -35.0890   -1.2330  -19.0640   C 0  0  0  0  0  0  0  0  0  0  0  0
  -34.4070   -1.1090  -20.3270   O 0  0  0  0  0  0  0  0  0  0  0  0
  -36.0050   -2.4880  -19.0770   C 0  0  0  0  0  0  0  0  0  0  0  0
  -35.3980   -3.6330  -18.4990   O 0  0  0  0  0  0  0  0  0  0  0  0
  -36.1080   -4.8000  -18.9170   C 0  0  0  0  0  0  0  0  0  0  0  0
  1  2  2  0  0  0  0
  2  3  1  0  0  0  0
  2  8  1  0  0  0  0
  3  4  1  0  0  0  0
  4  5  1  0  0  0  0
  4  6  1  0  0  0  0
  6  7  2  0  0  0  0
  6  8  1  0  0  0  0
  8  9  1  0  0  0  0
  9 10  2  0  0  0  0
  9 14  1  0  0  0  0
 10 11  1  0  0  0  0
 11 12  2  0  0  0  0
 12 13  1  0  0  0  0
 13 14  2  0  0  0  0
 14 15  1  0  0  0  0
 15 16  2  0  0  0  0
 15 17  1  0  0  0  0
 17 18  1  0  0  0  0
 18 19  1  0  0  0  0
 19 20  1  0  0  0  0
 19 26  1  0  0  0  0
 19 31  1  0  0  0  0
 20 21  1  0  0  0  0
 21 22  1  0  0  0  0
 22 23  1  0  0  0  0
 22 25  1  0  0  0  0
 23 24  1  0  0  0  0
 25 26  1  0  0  0  0
 25 27  1  0  0  0  0
 25 32  1  0  0  0  0
 26 47  1  0  0  0  0
 27 28  1  0  0  0  0
 27 45  1  0  0  0  0
 28 29  1  0  0  0  0
 28 31  1  0  0  0  0
 29 30  1  0  0  0  0
 32 33  1  0  0  0  0
 32 39  1  0  0  0  0
 33 34  1  0  0  0  0
 34 35  1  0  0  0  0
 34 40  1  0  0  0  0
 35 36  1  0  0  0  0
 35 38  1  0  0  0  0
 36 37  1  0  0  0  0
 38 43  1  0  0  0  0
 39 40  1  0  0  0  0
 39 43  1  0  0  0  0
 40 41  1  0  0  0  0
 41 42  1  0  0  0  0
 43 44  1  0  0  0  0
 43 45  1  0  0  0  0
 45 46  1  0  0  0  0
 45 47  1  0  0  0  0
 47 48  1  0  0  0  0
 48 49  1  0  0  0  0
A    1
O8
A    2
C8
A    3
C9
A    4
C10
A    5
C12
A    6
C11
A    7
O11
A    8
N7
A    9
C6
A   10
C5
A   11
C4
A   12
C3
A   13
C2
A   14
C1
A   15
C13
A   16
O13
A   17
O14
A   18
C15
A   19
C16
A   20
C21
A   21
C20
A   22
C19
A   23
O19
A   24
C22
A   25
C18
A   26
C17
A   27
C26
A   28
N23
A   29
C24
A   30
C25
A   31
C23
A   32
C30
A   33
C33
A   34
C34
A   35
C35
A   36
O35
A   37
C37
A   38
C36
A   39
C31
A   40
C38
A   41
O38
A   42
C39
A   43
C32
A   44
O32
A   45
C27
A   46
O27
A   47
C28
A   48
O28
A   49
C29
M  END
>  <InstanceId>
3SIO_MLK_A_260

>  <ChemCompId>
MLK

>  <PdbId>
3SIO

>  <ChainId>
A

>  <ResidueNumber>
260

>  <InsertionCode>


>  <Model>
1

>  <AltIds>


>  <MissingHeavyAtoms>
0

>  <ObservedFormula>
C37 N2 O10

>  <Name>
METHYLLYCACONITINE

>  <SystematicName>


>  <Synonyms>


>  <Type>
NON-POLYMER

>  <Formula>
C37 H50 N2 O10

>  <MolecularWeight>
682.8

>  <ModifiedDate>
2011-06-04

>  <Parent>


>  <OneLetterCode>


>  <SubcomponentList>


>  <AmbiguousFlag>
N

>  <InChI>
InChI=1S/C37H50N2O10/c1-7-38-17-34(18-49-32(42)20-10-8-9-11-23(20)39-26(40)14-19(2)31(39)41)13-12-25(46-4)36-22-15-21-24(45-3)16-35(43,27(22)28(21)47-5)37(44,33(36)38)30(48-6)29(34)36/h8-11,19,21-22,24-25,27-30,33,43-44H,7,12-18H2,1-6H3/t19-,21+,22+,24-,25-,27+,28-,29+,30-,33-,34-,35+,36-,37+/m0/s1

>  <InChIKey>
XLTANAWLDBYGFU-VTLKBQQISA-N

>  <SMILES>
CC[N@]1C[C@@]2(CC[C@@H]([C@@]34[C@@H]2[C@@H]([C@@]([C@H]31)([C@]5(C[C@@H]([C@H]6C[C@@H]4[C@@H]5[C@H]6OC)OC)O)O)OC)OC)COC(=O)c7ccccc7N8C(=O)C[C@@H](C8=O)C

$$$$
