2ZFP_19U_H_801


 25 26  0  0  0  0  0  0  0  0999 V2000
   17.4420  -13.5233   22.3002 C   0  0  0  0  0  0  0  0  0  0  0  0
   16.4287  -12.9825   22.7327 O   0  0  0  0  0  0  0  0  0  0  0  0
   18.1140  -13.0410   21.2198 N   0  0  0  0  0  0  0  0  0  0  0  0
   17.7159  -11.8005   20.5656 C   0  0  0  0  0  0  0  0  0  0  0  0
   18.5960  -11.9154   19.2918 C   0  0  0  0  0  0  0  0  0  0  0  0
   19.9276  -12.4499   19.8926 C   0  0  0  0  0  0  0  0  0  0  0  0
   19.4253  -13.5760   20.8362 C   0  0  0  0  0  0  0  0  0  0  0  0
   16.7900  -15.7764   23.0911 N   0  0  0  0  0  0  0  0  0  0  0  0
   17.8763  -14.7691   23.0615 C   0  0  0  0  0  0  0  0  0  0  0  0
   17.1037  -16.5997   23.6050 H   0  0  0  0  0  0  0  0  0  0  0  0
   16.5477  -16.0432   22.1369 H   0  0  0  0  0  0  0  0  0  0  0  0
   18.1886  -14.3567   24.5272 C   0  0  0  0  0  0  0  0  0  0  0  0
   19.5393  -13.6165   24.5754 C   0  0  0  0  0  0  0  0  0  0  0  0
   16.2471  -11.7374   20.2484 C   0  0  0  0  0  0  0  0  0  0  0  0
   15.7850  -12.5203   19.4282 O   0  0  0  0  0  0  0  0  0  0  0  0
   15.4492  -10.8438   20.8908 N   0  0  0  0  0  0  0  0  0  0  0  0
   15.7993  -10.2593   21.6015 H   0  0  0  0  0  0  0  0  0  0  0  0
   14.0485  -10.7901   20.4789 C   0  0  0  0  0  0  0  0  0  0  0  0
   13.0868  -10.6012   21.6545 C   0  0  0  0  0  0  0  0  0  0  0  0
   12.2232  -11.6536   21.9814 C   0  0  0  0  0  0  0  0  0  0  0  0
   11.3252  -11.5364   23.0441 C   0  0  0  0  0  0  0  0  0  0  0  0
   11.2823  -10.3565   23.7949 C   0  0  0  0  0  0  0  0  0  0  0  0
   12.1395   -9.2919   23.4816 C   0  0  0  0  0  0  0  0  0  0  0  0
   13.0351   -9.4232   22.4118 C   0  0  0  0  0  0  0  0  0  0  0  0
   12.0672   -7.8160   24.4407 Cl  0  0  0  0  0  0  0  0  0  0  0  0
  3  7  1  0  0  0
  3  1  1  0  0  0
  3  4  1  0  0  0
  7  6  1  0  0  0
 14  4  1  0  0  0
 14 16  1  0  0  0
 14 15  2  0  0  0
  9 12  1  0  0  0
  9  8  1  0  0  0
  9  1  1  0  0  0
 13 12  1  0  0  0
 18 16  1  0  0  0
 18 19  1  0  0  0
 20 19  2  0  0  0
 20 21  1  0  0  0
 22 23  1  0  0  0
 22 21  2  0  0  0
  1  2  2  0  0  0
  6  5  1  0  0  0
  5  4  1  0  0  0
 19 24  1  0  0  0
 24 23  2  0  0  0
 23 25  1  0  0  0
  8 10  1  0  0  0
  8 11  1  0  0  0
 16 17  1  0  0  0
M  END
> <minimizedAffinity>
-8.16487

$$$$
2ZFP_19U_H_801


 25 26  0  0  0  0  0  0  0  0999 V2000
   12.7773  -13.7259   20.6399 C   0  0  0  0  0  0  0  0  0  0  0  0
   13.1371  -13.7930   19.4685 O   0  0  0  0  0  0  0  0  0  0  0  0
   12.6428  -12.5371   21.2881 N   0  0  0  0  0  0  0  0  0  0  0  0
   12.8357  -11.2669   20.5992 C   0  0  0  0  0  0  0  0  0  0  0  0
   12.8597  -10.3308   21.8376 C   0  0  0  0  0  0  0  0  0  0  0  0
   11.7152  -10.9393   22.6977 C   0  0  0  0  0  0  0  0  0  0  0  0
   12.0255  -12.4586   22.6169 C   0  0  0  0  0  0  0  0  0  0  0  0
   13.7149  -15.5806   21.9845 N   0  0  0  0  0  0  0  0  0  0  0  0
   12.5028  -15.0699   21.3022 C   0  0  0  0  0  0  0  0  0  0  0  0
   13.5069  -16.4795   22.4195 H   0  0  0  0  0  0  0  0  0  0  0  0
   14.0074  -14.9159   22.7007 H   0  0  0  0  0  0  0  0  0  0  0  0
   12.1124  -16.0858   20.1926 C   0  0  0  0  0  0  0  0  0  0  0  0
   11.6846  -17.4161   20.8421 C   0  0  0  0  0  0  0  0  0  0  0  0
   14.1115  -11.2060   19.8050 C   0  0  0  0  0  0  0  0  0  0  0  0
   14.0550  -10.9173   18.6165 O   0  0  0  0  0  0  0  0  0  0  0  0
   15.3046  -11.4382   20.4137 N   0  0  0  0  0  0  0  0  0  0  0  0
   15.3647  -11.6018   21.3827 H   0  0  0  0  0  0  0  0  0  0  0  0
   16.4936  -11.4339   19.5648 C   0  0  0  0  0  0  0  0  0  0  0  0
   17.7212  -12.0356   20.2530 C   0  0  0  0  0  0  0  0  0  0  0  0
   18.9345  -12.0476   19.5544 C   0  0  0  0  0  0  0  0  0  0  0  0
   20.0864  -12.5838   20.1333 C   0  0  0  0  0  0  0  0  0  0  0  0
   20.0347  -13.1172   21.4259 C   0  0  0  0  0  0  0  0  0  0  0  0
   18.8281  -13.1141   22.1402 C   0  0  0  0  0  0  0  0  0  0  0  0
   17.6797  -12.5734   21.5464 C   0  0  0  0  0  0  0  0  0  0  0  0
   18.7870  -13.7914   23.7659 Cl  0  0  0  0  0  0  0  0  0  0  0  0
  3  7  1  0  0  0
  3  1  1  0  0  0
  3  4  1  0  0  0
  7  6  1  0  0  0
 14  4  1  0  0  0
 14 16  1  0  0  0
 14 15  2  0  0  0
  9 12  1  0  0  0
  9  8  1  0  0  0
  9  1  1  0  0  0
 13 12  1  0  0  0
 18 16  1  0  0  0
 18 19  1  0  0  0
 20 19  2  0  0  0
 20 21  1  0  0  0
 22 23  1  0  0  0
 22 21  2  0  0  0
  1  2  2  0  0  0
  6  5  1  0  0  0
  5  4  1  0  0  0
 19 24  1  0  0  0
 24 23  2  0  0  0
 23 25  1  0  0  0
  8 10  1  0  0  0
  8 11  1  0  0  0
 16 17  1  0  0  0
M  END
> <minimizedAffinity>
-7.38490

$$$$
2ZFP_19U_H_801


 25 26  0  0  0  0  0  0  0  0999 V2000
   13.6876  -12.1551   21.2264 C   0  0  0  0  0  0  0  0  0  0  0  0
   14.5485  -11.7947   22.0234 O   0  0  0  0  0  0  0  0  0  0  0  0
   13.6521  -13.4186   20.7225 N   0  0  0  0  0  0  0  0  0  0  0  0
   14.5870  -14.4441   21.1692 C   0  0  0  0  0  0  0  0  0  0  0  0
   14.2891  -15.5183   20.0886 C   0  0  0  0  0  0  0  0  0  0  0  0
   12.7392  -15.4268   19.9917 C   0  0  0  0  0  0  0  0  0  0  0  0
   12.5112  -13.8921   19.9307 C   0  0  0  0  0  0  0  0  0  0  0  0
   13.2196  -10.1919   19.7934 N   0  0  0  0  0  0  0  0  0  0  0  0
   12.6769  -11.0802   20.8478 C   0  0  0  0  0  0  0  0  0  0  0  0
   12.5264   -9.4819   19.5570 H   0  0  0  0  0  0  0  0  0  0  0  0
   13.4381  -10.7433   18.9635 H   0  0  0  0  0  0  0  0  0  0  0  0
   12.3961  -10.2142   22.1075 C   0  0  0  0  0  0  0  0  0  0  0  0
   11.4604  -10.9827   23.0606 C   0  0  0  0  0  0  0  0  0  0  0  0
   16.0215  -13.9922   21.1535 C   0  0  0  0  0  0  0  0  0  0  0  0
   16.5482  -13.7333   20.0789 O   0  0  0  0  0  0  0  0  0  0  0  0
   16.7025  -13.8462   22.3208 N   0  0  0  0  0  0  0  0  0  0  0  0
   16.2657  -13.9846   23.1922 H   0  0  0  0  0  0  0  0  0  0  0  0
   18.1121  -13.4747   22.2237 C   0  0  0  0  0  0  0  0  0  0  0  0
   18.8871  -13.7270   23.5193 C   0  0  0  0  0  0  0  0  0  0  0  0
   18.2207  -14.3515   24.5805 C   0  0  0  0  0  0  0  0  0  0  0  0
   18.8785  -14.6066   25.7854 C   0  0  0  0  0  0  0  0  0  0  0  0
   20.2188  -14.2363   25.9410 C   0  0  0  0  0  0  0  0  0  0  0  0
   20.9020  -13.6095   24.8891 C   0  0  0  0  0  0  0  0  0  0  0  0
   20.2290  -13.3589   23.6857 C   0  0  0  0  0  0  0  0  0  0  0  0
   22.5890  -13.1519   25.1083 Cl  0  0  0  0  0  0  0  0  0  0  0  0
  3  7  1  0  0  0
  3  1  1  0  0  0
  3  4  1  0  0  0
  7  6  1  0  0  0
 14  4  1  0  0  0
 14 16  1  0  0  0
 14 15  2  0  0  0
  9 12  1  0  0  0
  9  8  1  0  0  0
  9  1  1  0  0  0
 13 12  1  0  0  0
 18 16  1  0  0  0
 18 19  1  0  0  0
 20 19  2  0  0  0
 20 21  1  0  0  0
 22 23  1  0  0  0
 22 21  2  0  0  0
  1  2  2  0  0  0
  6  5  1  0  0  0
  5  4  1  0  0  0
 19 24  1  0  0  0
 24 23  2  0  0  0
 23 25  1  0  0  0
  8 10  1  0  0  0
  8 11  1  0  0  0
 16 17  1  0  0  0
M  END
> <minimizedAffinity>
-7.25687

$$$$
2ZFP_19U_H_801


 25 26  0  0  0  0  0  0  0  0999 V2000
   14.7046  -11.8356   21.0481 C   0  0  0  0  0  0  0  0  0  0  0  0
   15.2807  -12.3382   22.0081 O   0  0  0  0  0  0  0  0  0  0  0  0
   15.2343  -11.8566   19.7949 N   0  0  0  0  0  0  0  0  0  0  0  0
   16.4802  -12.5559   19.5053 C   0  0  0  0  0  0  0  0  0  0  0  0
   16.7315  -12.0035   18.0763 C   0  0  0  0  0  0  0  0  0  0  0  0
   15.2955  -12.0465   17.4796 C   0  0  0  0  0  0  0  0  0  0  0  0
   14.4514  -11.4318   18.6289 C   0  0  0  0  0  0  0  0  0  0  0  0
   13.5567   -9.9220   22.1193 N   0  0  0  0  0  0  0  0  0  0  0  0
   13.3649  -11.1881   21.3738 C   0  0  0  0  0  0  0  0  0  0  0  0
   12.6477   -9.5078   22.3256 H   0  0  0  0  0  0  0  0  0  0  0  0
   14.1050   -9.2741   21.5536 H   0  0  0  0  0  0  0  0  0  0  0  0
   12.5638  -12.1629   22.2814 C   0  0  0  0  0  0  0  0  0  0  0  0
   11.5096  -11.3719   23.0797 C   0  0  0  0  0  0  0  0  0  0  0  0
   17.5919  -12.2154   20.4594 C   0  0  0  0  0  0  0  0  0  0  0  0
   18.0030  -11.0629   20.5011 O   0  0  0  0  0  0  0  0  0  0  0  0
   18.1024  -13.1716   21.2796 N   0  0  0  0  0  0  0  0  0  0  0  0
   17.7302  -14.0827   21.3019 H   0  0  0  0  0  0  0  0  0  0  0  0
   19.2286  -12.7858   22.1266 C   0  0  0  0  0  0  0  0  0  0  0  0
   19.1870  -13.4393   23.5101 C   0  0  0  0  0  0  0  0  0  0  0  0
   18.2674  -14.4721   23.7289 C   0  0  0  0  0  0  0  0  0  0  0  0
   18.1859  -15.1042   24.9713 C   0  0  0  0  0  0  0  0  0  0  0  0
   19.0296  -14.7056   26.0139 C   0  0  0  0  0  0  0  0  0  0  0  0
   19.9564  -13.6726   25.8130 C   0  0  0  0  0  0  0  0  0  0  0  0
   20.0266  -13.0467   24.5612 C   0  0  0  0  0  0  0  0  0  0  0  0
   21.0080  -13.1877   27.1405 Cl  0  0  0  0  0  0  0  0  0  0  0  0
  3  7  1  0  0  0
  3  1  1  0  0  0
  3  4  1  0  0  0
  7  6  1  0  0  0
 14  4  1  0  0  0
 14 16  1  0  0  0
 14 15  2  0  0  0
  9 12  1  0  0  0
  9  8  1  0  0  0
  9  1  1  0  0  0
 13 12  1  0  0  0
 18 16  1  0  0  0
 18 19  1  0  0  0
 20 19  2  0  0  0
 20 21  1  0  0  0
 22 23  1  0  0  0
 22 21  2  0  0  0
  1  2  2  0  0  0
  6  5  1  0  0  0
  5  4  1  0  0  0
 19 24  1  0  0  0
 24 23  2  0  0  0
 23 25  1  0  0  0
  8 10  1  0  0  0
  8 11  1  0  0  0
 16 17  1  0  0  0
M  END
> <minimizedAffinity>
-7.24489

$$$$
2ZFP_19U_H_801


 25 26  0  0  0  0  0  0  0  0999 V2000
   13.3284  -13.2097   20.2932 C   0  0  0  0  0  0  0  0  0  0  0  0
   14.1298  -13.4772   19.4030 O   0  0  0  0  0  0  0  0  0  0  0  0
   13.2093  -11.9548   20.8057 N   0  0  0  0  0  0  0  0  0  0  0  0
   13.9689  -10.8346   20.2640 C   0  0  0  0  0  0  0  0  0  0  0  0
   13.6759   -9.7934   21.3776 C   0  0  0  0  0  0  0  0  0  0  0  0
   12.1663  -10.0559   21.6461 C   0  0  0  0  0  0  0  0  0  0  0  0
   12.1183  -11.6060   21.7227 C   0  0  0  0  0  0  0  0  0  0  0  0
   13.1118  -15.0270   21.9598 N   0  0  0  0  0  0  0  0  0  0  0  0
   12.4919  -14.3877   20.7755 C   0  0  0  0  0  0  0  0  0  0  0  0
   12.5349  -15.8113   22.2638 H   0  0  0  0  0  0  0  0  0  0  0  0
   13.1842  -14.3453   22.7151 H   0  0  0  0  0  0  0  0  0  0  0  0
   12.4368  -15.4419   19.6346 C   0  0  0  0  0  0  0  0  0  0  0  0
   11.6067  -16.6552   20.0964 C   0  0  0  0  0  0  0  0  0  0  0  0
   15.4374  -11.1245   20.1169 C   0  0  0  0  0  0  0  0  0  0  0  0
   15.9952  -10.8340   19.0664 O   0  0  0  0  0  0  0  0  0  0  0  0
   16.1309  -11.6705   21.1507 N   0  0  0  0  0  0  0  0  0  0  0  0
   15.7057  -11.8421   22.0219 H   0  0  0  0  0  0  0  0  0  0  0  0
   17.5358  -11.9914   20.9103 C   0  0  0  0  0  0  0  0  0  0  0  0
   18.1444  -12.8688   22.0067 C   0  0  0  0  0  0  0  0  0  0  0  0
   17.2997  -13.7403   22.7048 C   0  0  0  0  0  0  0  0  0  0  0  0
   17.8007  -14.5640   23.7148 C   0  0  0  0  0  0  0  0  0  0  0  0
   19.1613  -14.5228   24.0384 C   0  0  0  0  0  0  0  0  0  0  0  0
   20.0221  -13.6558   23.3502 C   0  0  0  0  0  0  0  0  0  0  0  0
   19.5053  -12.8343   22.3394 C   0  0  0  0  0  0  0  0  0  0  0  0
   21.7313  -13.6211   23.7753 Cl  0  0  0  0  0  0  0  0  0  0  0  0
  3  7  1  0  0  0
  3  1  1  0  0  0
  3  4  1  0  0  0
  7  6  1  0  0  0
 14  4  1  0  0  0
 14 16  1  0  0  0
 14 15  2  0  0  0
  9 12  1  0  0  0
  9  8  1  0  0  0
  9  1  1  0  0  0
 13 12  1  0  0  0
 18 16  1  0  0  0
 18 19  1  0  0  0
 20 19  2  0  0  0
 20 21  1  0  0  0
 22 23  1  0  0  0
 22 21  2  0  0  0
  1  2  2  0  0  0
  6  5  1  0  0  0
  5  4  1  0  0  0
 19 24  1  0  0  0
 24 23  2  0  0  0
 23 25  1  0  0  0
  8 10  1  0  0  0
  8 11  1  0  0  0
 16 17  1  0  0  0
M  END
> <minimizedAffinity>
-7.24039

$$$$
2ZFP_19U_H_801


 25 26  0  0  0  0  0  0  0  0999 V2000
   13.3107  -13.1495   20.2718 C   0  0  0  0  0  0  0  0  0  0  0  0
   14.1449  -13.3897   19.4043 O   0  0  0  0  0  0  0  0  0  0  0  0
   13.1712  -11.9109   20.8176 N   0  0  0  0  0  0  0  0  0  0  0  0
   13.9492  -10.7747   20.3390 C   0  0  0  0  0  0  0  0  0  0  0  0
   13.6138   -9.7679   21.4722 C   0  0  0  0  0  0  0  0  0  0  0  0
   12.0956  -10.0385   21.6763 C   0  0  0  0  0  0  0  0  0  0  0  0
   12.0465  -11.5902   21.7037 C   0  0  0  0  0  0  0  0  0  0  0  0
   13.0175  -14.9985   21.8912 N   0  0  0  0  0  0  0  0  0  0  0  0
   12.4581  -14.3417   20.6865 C   0  0  0  0  0  0  0  0  0  0  0  0
   12.4309  -15.7921   22.1491 H   0  0  0  0  0  0  0  0  0  0  0  0
   13.0436  -14.3304   22.6615 H   0  0  0  0  0  0  0  0  0  0  0  0
   12.4734  -15.3751   19.5256 C   0  0  0  0  0  0  0  0  0  0  0  0
   11.7266  -16.6499   19.9633 C   0  0  0  0  0  0  0  0  0  0  0  0
   15.4224  -11.0599   20.2378 C   0  0  0  0  0  0  0  0  0  0  0  0
   16.0160  -10.7487   19.2131 O   0  0  0  0  0  0  0  0  0  0  0  0
   16.0804  -11.6248   21.2846 N   0  0  0  0  0  0  0  0  0  0  0  0
   15.6254  -11.8135   22.1370 H   0  0  0  0  0  0  0  0  0  0  0  0
   17.4934  -11.9393   21.0873 C   0  0  0  0  0  0  0  0  0  0  0  0
   17.7945  -13.4354   21.2039 C   0  0  0  0  0  0  0  0  0  0  0  0
   19.1094  -13.8283   21.4810 C   0  0  0  0  0  0  0  0  0  0  0  0
   19.4412  -15.1795   21.5984 C   0  0  0  0  0  0  0  0  0  0  0  0
   18.4533  -16.1573   21.4383 C   0  0  0  0  0  0  0  0  0  0  0  0
   17.1311  -15.7823   21.1600 C   0  0  0  0  0  0  0  0  0  0  0  0
   16.8127  -14.4226   21.0440 C   0  0  0  0  0  0  0  0  0  0  0  0
   15.9044  -17.0311   20.9620 Cl  0  0  0  0  0  0  0  0  0  0  0  0
  3  7  1  0  0  0
  3  1  1  0  0  0
  3  4  1  0  0  0
  7  6  1  0  0  0
 14  4  1  0  0  0
 14 16  1  0  0  0
 14 15  2  0  0  0
  9 12  1  0  0  0
  9  8  1  0  0  0
  9  1  1  0  0  0
 13 12  1  0  0  0
 18 16  1  0  0  0
 18 19  1  0  0  0
 20 19  2  0  0  0
 20 21  1  0  0  0
 22 23  1  0  0  0
 22 21  2  0  0  0
  1  2  2  0  0  0
  6  5  1  0  0  0
  5  4  1  0  0  0
 19 24  1  0  0  0
 24 23  2  0  0  0
 23 25  1  0  0  0
  8 10  1  0  0  0
  8 11  1  0  0  0
 16 17  1  0  0  0
M  END
> <minimizedAffinity>
-7.22588

$$$$
2ZFP_19U_H_801


 25 26  0  0  0  0  0  0  0  0999 V2000
   15.1912  -11.9550   21.0589 C   0  0  0  0  0  0  0  0  0  0  0  0
   15.4153  -13.1570   21.1637 O   0  0  0  0  0  0  0  0  0  0  0  0
   13.9993  -11.4073   21.4209 N   0  0  0  0  0  0  0  0  0  0  0  0
   12.9482  -12.2078   22.0371 C   0  0  0  0  0  0  0  0  0  0  0  0
   11.7880  -11.1803   21.9453 C   0  0  0  0  0  0  0  0  0  0  0  0
   12.5203   -9.8633   22.3313 C   0  0  0  0  0  0  0  0  0  0  0  0
   13.8141   -9.9529   21.4774 C   0  0  0  0  0  0  0  0  0  0  0  0
   16.2752  -11.0844   19.0109 N   0  0  0  0  0  0  0  0  0  0  0  0
   16.3435  -11.1371   20.4901 C   0  0  0  0  0  0  0  0  0  0  0  0
   17.0553  -10.5326   18.6540 H   0  0  0  0  0  0  0  0  0  0  0  0
   15.3956  -10.6535   18.7263 H   0  0  0  0  0  0  0  0  0  0  0  0
   17.6745  -11.8360   20.8847 C   0  0  0  0  0  0  0  0  0  0  0  0
   18.5238  -12.0736   19.6211 C   0  0  0  0  0  0  0  0  0  0  0  0
   12.6523  -13.4804   21.2920 C   0  0  0  0  0  0  0  0  0  0  0  0
   12.1712  -13.4096   20.1683 O   0  0  0  0  0  0  0  0  0  0  0  0
   12.9476  -14.6827   21.8532 N   0  0  0  0  0  0  0  0  0  0  0  0
   13.3985  -14.7463   22.7260 H   0  0  0  0  0  0  0  0  0  0  0  0
   12.5654  -15.8763   21.1024 C   0  0  0  0  0  0  0  0  0  0  0  0
   13.7291  -16.4864   20.3174 C   0  0  0  0  0  0  0  0  0  0  0  0
   14.6257  -17.3183   20.9988 C   0  0  0  0  0  0  0  0  0  0  0  0
   15.7052  -17.9020   20.3328 C   0  0  0  0  0  0  0  0  0  0  0  0
   15.8993  -17.6568   18.9690 C   0  0  0  0  0  0  0  0  0  0  0  0
   15.0117  -16.8259   18.2705 C   0  0  0  0  0  0  0  0  0  0  0  0
   13.9332  -16.2461   18.9519 C   0  0  0  0  0  0  0  0  0  0  0  0
   15.2766  -16.5313   16.5539 Cl  0  0  0  0  0  0  0  0  0  0  0  0
  3  7  1  0  0  0
  3  1  1  0  0  0
  3  4  1  0  0  0
  7  6  1  0  0  0
 14  4  1  0  0  0
 14 16  1  0  0  0
 14 15  2  0  0  0
  9 12  1  0  0  0
  9  8  1  0  0  0
  9  1  1  0  0  0
 13 12  1  0  0  0
 18 16  1  0  0  0
 18 19  1  0  0  0
 20 19  2  0  0  0
 20 21  1  0  0  0
 22 23  1  0  0  0
 22 21  2  0  0  0
  1  2  2  0  0  0
  6  5  1  0  0  0
  5  4  1  0  0  0
 19 24  1  0  0  0
 24 23  2  0  0  0
 23 25  1  0  0  0
  8 10  1  0  0  0
  8 11  1  0  0  0
 16 17  1  0  0  0
M  END
> <minimizedAffinity>
-7.18356

$$$$
2ZFP_19U_H_801


 25 26  0  0  0  0  0  0  0  0999 V2000
   21.7739  -16.0480   25.7841 C   0  0  0  0  0  0  0  0  0  0  0  0
   21.2800  -16.7179   24.8822 O   0  0  0  0  0  0  0  0  0  0  0  0
   21.4129  -14.7548   26.0052 N   0  0  0  0  0  0  0  0  0  0  0  0
   20.3523  -14.1169   25.2348 C   0  0  0  0  0  0  0  0  0  0  0  0
   20.5866  -12.6497   25.6851 C   0  0  0  0  0  0  0  0  0  0  0  0
   20.8640  -12.8411   27.2038 C   0  0  0  0  0  0  0  0  0  0  0  0
   21.8607  -14.0318   27.2008 C   0  0  0  0  0  0  0  0  0  0  0  0
   24.1555  -16.6898   25.9912 N   0  0  0  0  0  0  0  0  0  0  0  0
   22.8176  -16.7748   26.6223 C   0  0  0  0  0  0  0  0  0  0  0  0
   24.8361  -17.1827   26.5694 H   0  0  0  0  0  0  0  0  0  0  0  0
   24.4288  -15.7110   25.9040 H   0  0  0  0  0  0  0  0  0  0  0  0
   22.4177  -18.2748   26.6996 C   0  0  0  0  0  0  0  0  0  0  0  0
   21.5781  -18.5174   27.9688 C   0  0  0  0  0  0  0  0  0  0  0  0
   20.5031  -14.2956   23.7491 C   0  0  0  0  0  0  0  0  0  0  0  0
   21.4870  -13.8239   23.1936 O   0  0  0  0  0  0  0  0  0  0  0  0
   19.5730  -14.9981   23.0496 N   0  0  0  0  0  0  0  0  0  0  0  0
   18.8165  -15.4396   23.4989 H   0  0  0  0  0  0  0  0  0  0  0  0
   19.7470  -15.0680   21.6007 C   0  0  0  0  0  0  0  0  0  0  0  0
   19.0007  -13.9591   20.8551 C   0  0  0  0  0  0  0  0  0  0  0  0
   19.7519  -13.0147   20.1452 C   0  0  0  0  0  0  0  0  0  0  0  0
   19.1238  -11.9816   19.4467 C   0  0  0  0  0  0  0  0  0  0  0  0
   17.7281  -11.8830   19.4523 C   0  0  0  0  0  0  0  0  0  0  0  0
   16.9596  -12.8197   20.1581 C   0  0  0  0  0  0  0  0  0  0  0  0
   17.6035  -13.8507   20.8554 C   0  0  0  0  0  0  0  0  0  0  0  0
   15.2039  -12.6751   20.1511 Cl  0  0  0  0  0  0  0  0  0  0  0  0
  3  7  1  0  0  0
  3  1  1  0  0  0
  3  4  1  0  0  0
  7  6  1  0  0  0
 14  4  1  0  0  0
 14 16  1  0  0  0
 14 15  2  0  0  0
  9 12  1  0  0  0
  9  8  1  0  0  0
  9  1  1  0  0  0
 13 12  1  0  0  0
 18 16  1  0  0  0
 18 19  1  0  0  0
 20 19  2  0  0  0
 20 21  1  0  0  0
 22 23  1  0  0  0
 22 21  2  0  0  0
  1  2  2  0  0  0
  6  5  1  0  0  0
  5  4  1  0  0  0
 19 24  1  0  0  0
 24 23  2  0  0  0
 23 25  1  0  0  0
  8 10  1  0  0  0
  8 11  1  0  0  0
 16 17  1  0  0  0
M  END
> <minimizedAffinity>
-6.58697

$$$$
2ZFP_19U_H_801


 25 26  0  0  0  0  0  0  0  0999 V2000
   16.8460  -14.5441   21.8182 C   0  0  0  0  0  0  0  0  0  0  0  0
   16.2358  -13.5003   21.6076 O   0  0  0  0  0  0  0  0  0  0  0  0
   16.5094  -15.7139   21.2101 N   0  0  0  0  0  0  0  0  0  0  0  0
   15.4558  -15.7748   20.2044 C   0  0  0  0  0  0  0  0  0  0  0  0
   15.3167  -17.3179   20.1050 C   0  0  0  0  0  0  0  0  0  0  0  0
   16.8080  -17.7583   20.1465 C   0  0  0  0  0  0  0  0  0  0  0  0
   17.3635  -16.9021   21.3167 C   0  0  0  0  0  0  0  0  0  0  0  0
   17.4876  -14.1546   24.1770 N   0  0  0  0  0  0  0  0  0  0  0  0
   17.9949  -14.4236   22.8111 C   0  0  0  0  0  0  0  0  0  0  0  0
   18.2735  -14.0782   24.8227 H   0  0  0  0  0  0  0  0  0  0  0  0
   16.8795  -14.9192   24.4705 H   0  0  0  0  0  0  0  0  0  0  0  0
   18.8811  -13.2208   22.3825 C   0  0  0  0  0  0  0  0  0  0  0  0
   19.6639  -13.5885   21.1073 C   0  0  0  0  0  0  0  0  0  0  0  0
   14.1791  -15.1069   20.6358 C   0  0  0  0  0  0  0  0  0  0  0  0
   13.5375  -15.5963   21.5566 O   0  0  0  0  0  0  0  0  0  0  0  0
   13.7703  -13.9618   20.0280 N   0  0  0  0  0  0  0  0  0  0  0  0
   14.3158  -13.5240   19.3351 H   0  0  0  0  0  0  0  0  0  0  0  0
   12.4848  -13.4102   20.4496 C   0  0  0  0  0  0  0  0  0  0  0  0
   12.6125  -12.0365   21.1123 C   0  0  0  0  0  0  0  0  0  0  0  0
   13.4969  -11.1080   20.5501 C   0  0  0  0  0  0  0  0  0  0  0  0
   13.6534   -9.8397   21.1128 C   0  0  0  0  0  0  0  0  0  0  0  0
   12.9213   -9.4862   22.2516 C   0  0  0  0  0  0  0  0  0  0  0  0
   12.0313  -10.4034   22.8284 C   0  0  0  0  0  0  0  0  0  0  0  0
   11.8850  -11.6730   22.2536 C   0  0  0  0  0  0  0  0  0  0  0  0
   11.1208   -9.9361   24.2623 Cl  0  0  0  0  0  0  0  0  0  0  0  0
  3  7  1  0  0  0
  3  1  1  0  0  0
  3  4  1  0  0  0
  7  6  1  0  0  0
 14  4  1  0  0  0
 14 16  1  0  0  0
 14 15  2  0  0  0
  9 12  1  0  0  0
  9  8  1  0  0  0
  9  1  1  0  0  0
 13 12  1  0  0  0
 18 16  1  0  0  0
 18 19  1  0  0  0
 20 19  2  0  0  0
 20 21  1  0  0  0
 22 23  1  0  0  0
 22 21  2  0  0  0
  1  2  2  0  0  0
  6  5  1  0  0  0
  5  4  1  0  0  0
 19 24  1  0  0  0
 24 23  2  0  0  0
 23 25  1  0  0  0
  8 10  1  0  0  0
  8 11  1  0  0  0
 16 17  1  0  0  0
M  END
> <minimizedAffinity>
-6.58652

$$$$
2ZFP_19U_H_801


 25 26  0  0  0  0  0  0  0  0999 V2000
   17.7460  -12.8432   20.5192 C   0  0  0  0  0  0  0  0  0  0  0  0
   17.6621  -11.8004   19.8775 O   0  0  0  0  0  0  0  0  0  0  0  0
   16.7953  -13.8142   20.4488 N   0  0  0  0  0  0  0  0  0  0  0  0
   15.6625  -13.7074   19.5374 C   0  0  0  0  0  0  0  0  0  0  0  0
   14.8072  -14.8795   20.0895 C   0  0  0  0  0  0  0  0  0  0  0  0
   15.9005  -15.9563   20.3450 C   0  0  0  0  0  0  0  0  0  0  0  0
   17.0032  -15.1309   21.0618 C   0  0  0  0  0  0  0  0  0  0  0  0
   19.9208  -13.9745   20.8621 N   0  0  0  0  0  0  0  0  0  0  0  0
   18.9864  -12.9561   21.3961 C   0  0  0  0  0  0  0  0  0  0  0  0
   20.7418  -14.0319   21.4646 H   0  0  0  0  0  0  0  0  0  0  0  0
   20.2085  -13.7110   19.9196 H   0  0  0  0  0  0  0  0  0  0  0  0
   18.5381  -13.4118   22.8128 C   0  0  0  0  0  0  0  0  0  0  0  0
   19.7797  -13.6281   23.6994 C   0  0  0  0  0  0  0  0  0  0  0  0
   14.9514  -12.3848   19.6210 C   0  0  0  0  0  0  0  0  0  0  0  0
   14.5957  -11.8380   18.5848 O   0  0  0  0  0  0  0  0  0  0  0  0
   14.6849  -11.8301   20.8330 N   0  0  0  0  0  0  0  0  0  0  0  0
   14.9049  -12.2962   21.6718 H   0  0  0  0  0  0  0  0  0  0  0  0
   14.0572  -10.5108   20.8345 C   0  0  0  0  0  0  0  0  0  0  0  0
   13.0557  -10.3269   21.9773 C   0  0  0  0  0  0  0  0  0  0  0  0
   12.2089  -11.3953   22.2961 C   0  0  0  0  0  0  0  0  0  0  0  0
   11.2762  -11.2834   23.3292 C   0  0  0  0  0  0  0  0  0  0  0  0
   11.1814  -10.0928   24.0581 C   0  0  0  0  0  0  0  0  0  0  0  0
   12.0211   -9.0122   23.7525 C   0  0  0  0  0  0  0  0  0  0  0  0
   12.9519   -9.1384   22.7125 C   0  0  0  0  0  0  0  0  0  0  0  0
   11.8832   -7.5231   24.6835 Cl  0  0  0  0  0  0  0  0  0  0  0  0
  3  7  1  0  0  0
  3  1  1  0  0  0
  3  4  1  0  0  0
  7  6  1  0  0  0
 14  4  1  0  0  0
 14 16  1  0  0  0
 14 15  2  0  0  0
  9 12  1  0  0  0
  9  8  1  0  0  0
  9  1  1  0  0  0
 13 12  1  0  0  0
 18 16  1  0  0  0
 18 19  1  0  0  0
 20 19  2  0  0  0
 20 21  1  0  0  0
 22 23  1  0  0  0
 22 21  2  0  0  0
  1  2  2  0  0  0
  6  5  1  0  0  0
  5  4  1  0  0  0
 19 24  1  0  0  0
 24 23  2  0  0  0
 23 25  1  0  0  0
  8 10  1  0  0  0
  8 11  1  0  0  0
 16 17  1  0  0  0
M  END
> <minimizedAffinity>
-6.54932

$$$$
