5JFP_6KK_B_201


 45 50  0  0  0  0  0  0  0  0999 V2000
   14.6639   22.3992   16.8612 C   0  0  0  0  0  0  0  0  0  0  0  0
   13.7687   21.4278   17.5262 N   0  0  0  0  0  0  0  0  0  0  0  0
   14.1480   20.1673   17.7920 C   0  0  0  0  0  0  0  0  0  0  0  0
   15.2657   19.7512   17.4887 O   0  0  0  0  0  0  0  0  0  0  0  0
   12.8629   21.7154   17.7831 H   0  0  0  0  0  0  0  0  0  0  0  0
   13.1808   19.4590   18.4112 O   0  0  0  0  0  0  0  0  0  0  0  0
   13.6370   18.3467   19.2219 C   0  0  0  0  0  0  0  0  0  0  0  0
   13.4365   18.7708   20.6897 C   0  0  0  0  0  0  0  0  0  0  0  0
   12.0145   18.7233   20.8527 O   0  0  0  0  0  0  0  0  0  0  0  0
   11.5396   17.5930   20.1228 C   0  0  0  0  0  0  0  0  0  0  0  0
   10.3496   17.9478   19.4279 O   0  0  0  0  0  0  0  0  0  0  0  0
   10.6219   18.0363   18.0353 C   0  0  0  0  0  0  0  0  0  0  0  0
   11.8741   17.1890   17.7655 C   0  0  0  0  0  0  0  0  0  0  0  0
   12.5962   17.2432   19.0882 C   0  0  0  0  0  0  0  0  0  0  0  0
   15.0226   23.4937   17.8683 C   0  0  0  0  0  0  0  0  0  0  0  0
   13.8456   24.2438   18.1873 O   0  0  0  0  0  0  0  0  0  0  0  0
   13.5047   24.6676   17.3842 H   0  0  0  0  0  0  0  0  0  0  0  0
   16.1138   24.4370   17.3384 C   0  0  0  0  0  0  0  0  0  0  0  0
   17.4345   23.8382   17.3805 N   0  0  0  0  0  0  0  0  0  0  0  0
   18.3256   23.8418   15.9968 S   0  0  0  0  0  0  0  0  0  0  0  0
   17.4674   23.4476   14.8497 O   0  0  0  0  0  0  0  0  0  0  0  0
   19.4705   22.9167   16.2557 O   0  0  0  0  0  0  0  0  0  0  0  0
   20.0858   27.8884   14.9943 C   0  0  0  0  0  0  0  0  0  0  0  0
   20.4331   27.2245   16.1542 C   0  0  0  0  0  0  0  0  0  0  0  0
   19.8769   25.9931   16.5053 C   0  0  0  0  0  0  0  0  0  0  0  0
   18.9431   25.4511   15.6218 C   0  0  0  0  0  0  0  0  0  0  0  0
   18.5902   26.1195   14.4733 C   0  0  0  0  0  0  0  0  0  0  0  0
   19.1079   27.3720   14.1423 C   0  0  0  0  0  0  0  0  0  0  0  0
   20.7284   29.0509   14.7106 O   0  0  0  0  0  0  0  0  0  0  0  0
   22.1439   28.8643   14.6694 C   0  0  0  0  0  0  0  0  0  0  0  0
   18.1930   24.1456   18.5822 C   0  0  0  0  0  0  0  0  0  0  0  0
   17.9500   23.1324   19.7059 C   0  0  0  0  0  0  0  0  0  0  0  0
   17.9715   21.6926   19.1688 C   0  0  0  0  0  0  0  0  0  0  0  0
   18.9587   23.2492   20.8478 C   0  0  0  0  0  0  0  0  0  0  0  0
   13.8367   22.8841   15.6647 C   0  0  0  0  0  0  0  0  0  0  0  0
   13.6423   22.0398   14.3929 C   0  0  0  0  0  0  0  0  0  0  0  0
   13.2792   22.9616   13.2432 C   0  0  0  0  0  0  0  0  0  0  0  0
   13.1052   22.1585   11.9526 C   0  0  0  0  0  0  0  0  0  0  0  0
   12.0251   21.1048   12.1440 C   0  0  0  0  0  0  0  0  0  0  0  0
   12.3878   20.1928   13.3168 C   0  0  0  0  0  0  0  0  0  0  0  0
   13.6946   19.4625   12.9618 C   0  0  0  0  0  0  0  0  0  0  0  0
   14.8028   20.4977   12.7622 C   0  0  0  0  0  0  0  0  0  0  0  0
   14.9474   21.3066   14.0588 C   0  0  0  0  0  0  0  0  0  0  0  0
   12.5519   20.9819   14.6101 C   0  0  0  0  0  0  0  0  0  0  0  0
   14.4556   21.4903   11.6335 C   0  0  0  0  0  0  0  0  0  0  0  0
 41 42  1  0  0  0
 41 40  1  0  0  0
 42 45  1  0  0  0
 42 43  1  0  0  0
 45 38  1  0  0  0
 40 39  1  0  0  0
 40 44  1  0  0  0
 43 36  1  0  0  0
 39 38  1  0  0  0
 38 37  1  0  0  0
 44 36  1  0  0  0
 24 25  2  0  0  0
 24 23  1  0  0  0
 29 23  1  0  0  0
 29 30  1  0  0  0
 36 37  1  0  0  0
 36 35  1  0  0  0
 25 26  1  0  0  0
 21 20  2  0  0  0
 23 28  2  0  0  0
 26 27  2  0  0  0
 26 20  1  0  0  0
 28 27  1  0  0  0
 35  1  1  0  0  0
 20 22  2  0  0  0
 20 19  1  0  0  0
 13 12  1  0  0  0
 13 14  1  0  0  0
  1  2  1  0  0  0
  1 15  1  0  0  0
 19 18  1  0  0  0
 19 31  1  0  0  0
 12 11  1  0  0  0
 18 15  1  0  0  0
  2  3  1  0  0  0
 15 16  1  0  0  0
  4  3  2  0  0  0
  3  6  1  0  0  0
 31 32  1  0  0  0
 14  7  1  0  0  0
 14 10  1  0  0  0
 11 10  1  0  0  0
  6  7  1  0  0  0
  7  8  1  0  0  0
 10  9  1  0  0  0
 33 32  1  0  0  0
 32 34  1  0  0  0
  9  8  1  0  0  0
 16 17  1  0  0  0
  2  5  1  0  0  0
M  END
> <minimizedAffinity>
-10.76071

$$$$
5JFP_6KK_B_201


 45 50  0  0  0  0  0  0  0  0999 V2000
   14.6938   22.3395   16.9546 C   0  0  0  0  0  0  0  0  0  0  0  0
   13.8011   21.2902   17.4922 N   0  0  0  0  0  0  0  0  0  0  0  0
   14.2514   20.0742   17.8414 C   0  0  0  0  0  0  0  0  0  0  0  0
   15.4373   19.7666   17.7259 O   0  0  0  0  0  0  0  0  0  0  0  0
   12.8429   21.4902   17.5978 H   0  0  0  0  0  0  0  0  0  0  0  0
   13.2701   19.2794   18.3168 O   0  0  0  0  0  0  0  0  0  0  0  0
   13.6943   18.2306   19.2238 C   0  0  0  0  0  0  0  0  0  0  0  0
   13.5053   18.7880   20.6478 C   0  0  0  0  0  0  0  0  0  0  0  0
   12.0825   18.7952   20.8102 O   0  0  0  0  0  0  0  0  0  0  0  0
   11.5760   17.6187   20.1815 C   0  0  0  0  0  0  0  0  0  0  0  0
   10.3968   17.9443   19.4545 O   0  0  0  0  0  0  0  0  0  0  0  0
   10.6721   17.9019   18.0604 C   0  0  0  0  0  0  0  0  0  0  0  0
   11.8999   16.9991   17.8700 C   0  0  0  0  0  0  0  0  0  0  0  0
   12.6227   17.1493   19.1849 C   0  0  0  0  0  0  0  0  0  0  0  0
   14.9392   23.3750   18.0539 C   0  0  0  0  0  0  0  0  0  0  0  0
   13.8716   24.3288   18.0488 O   0  0  0  0  0  0  0  0  0  0  0  0
   13.8529   24.7886   17.1948 H   0  0  0  0  0  0  0  0  0  0  0  0
   16.2844   24.0978   17.8827 C   0  0  0  0  0  0  0  0  0  0  0  0
   17.1098   23.4986   16.8511 N   0  0  0  0  0  0  0  0  0  0  0  0
   17.4325   24.3929   15.5076 S   0  0  0  0  0  0  0  0  0  0  0  0
   16.4730   25.5238   15.4188 O   0  0  0  0  0  0  0  0  0  0  0  0
   17.3626   23.4348   14.3627 O   0  0  0  0  0  0  0  0  0  0  0  0
   21.5216   26.3312   15.5039 C   0  0  0  0  0  0  0  0  0  0  0  0
   21.2201   25.2952   14.6423 C   0  0  0  0  0  0  0  0  0  0  0  0
   19.9793   24.6553   14.6486 C   0  0  0  0  0  0  0  0  0  0  0  0
   19.0412   25.1139   15.5737 C   0  0  0  0  0  0  0  0  0  0  0  0
   19.3477   26.1378   16.4386 C   0  0  0  0  0  0  0  0  0  0  0  0
   20.6019   26.7479   16.4679 C   0  0  0  0  0  0  0  0  0  0  0  0
   22.7342   26.9302   15.3780 O   0  0  0  0  0  0  0  0  0  0  0  0
   22.5977   28.3244   15.0997 C   0  0  0  0  0  0  0  0  0  0  0  0
   18.2461   22.7451   17.3561 C   0  0  0  0  0  0  0  0  0  0  0  0
   18.5210   23.0192   18.8386 C   0  0  0  0  0  0  0  0  0  0  0  0
   18.3897   21.7357   19.6736 C   0  0  0  0  0  0  0  0  0  0  0  0
   19.8972   23.6340   19.0901 C   0  0  0  0  0  0  0  0  0  0  0  0
   13.9247   22.8732   15.7403 C   0  0  0  0  0  0  0  0  0  0  0  0
   13.7092   22.0423   14.4631 C   0  0  0  0  0  0  0  0  0  0  0  0
   12.5187   21.1243   14.6703 C   0  0  0  0  0  0  0  0  0  0  0  0
   12.2565   20.3006   13.4079 C   0  0  0  0  0  0  0  0  0  0  0  0
   13.4935   19.4878   13.0578 C   0  0  0  0  0  0  0  0  0  0  0  0
   14.6932   20.4177   12.8707 C   0  0  0  0  0  0  0  0  0  0  0  0
   14.3920   21.3453   11.6807 C   0  0  0  0  0  0  0  0  0  0  0  0
   13.1498   22.1778   12.0029 C   0  0  0  0  0  0  0  0  0  0  0  0
   13.4243   22.9795   13.2829 C   0  0  0  0  0  0  0  0  0  0  0  0
   14.9701   21.2343   14.1271 C   0  0  0  0  0  0  0  0  0  0  0  0
   11.9214   21.2839   12.2708 C   0  0  0  0  0  0  0  0  0  0  0  0
 41 42  1  0  0  0
 41 40  1  0  0  0
 42 45  1  0  0  0
 42 43  1  0  0  0
 45 38  1  0  0  0
 40 39  1  0  0  0
 40 44  1  0  0  0
 43 36  1  0  0  0
 39 38  1  0  0  0
 38 37  1  0  0  0
 44 36  1  0  0  0
 24 25  2  0  0  0
 24 23  1  0  0  0
 29 23  1  0  0  0
 29 30  1  0  0  0
 36 37  1  0  0  0
 36 35  1  0  0  0
 25 26  1  0  0  0
 21 20  2  0  0  0
 23 28  2  0  0  0
 26 27  2  0  0  0
 26 20  1  0  0  0
 28 27  1  0  0  0
 35  1  1  0  0  0
 20 22  2  0  0  0
 20 19  1  0  0  0
 13 12  1  0  0  0
 13 14  1  0  0  0
  1  2  1  0  0  0
  1 15  1  0  0  0
 19 18  1  0  0  0
 19 31  1  0  0  0
 12 11  1  0  0  0
 18 15  1  0  0  0
  2  3  1  0  0  0
 15 16  1  0  0  0
  4  3  2  0  0  0
  3  6  1  0  0  0
 31 32  1  0  0  0
 14  7  1  0  0  0
 14 10  1  0  0  0
 11 10  1  0  0  0
  6  7  1  0  0  0
  7  8  1  0  0  0
 10  9  1  0  0  0
 33 32  1  0  0  0
 32 34  1  0  0  0
  9  8  1  0  0  0
 16 17  1  0  0  0
  2  5  1  0  0  0
M  END
> <minimizedAffinity>
-10.61528

$$$$
5JFP_6KK_B_201


 45 50  0  0  0  0  0  0  0  0999 V2000
   13.9080   21.9413   17.4969 C   0  0  0  0  0  0  0  0  0  0  0  0
   14.0446   21.9623   16.0246 N   0  0  0  0  0  0  0  0  0  0  0  0
   13.0512   21.5799   15.2059 C   0  0  0  0  0  0  0  0  0  0  0  0
   11.9706   21.1842   15.6419 O   0  0  0  0  0  0  0  0  0  0  0  0
   14.8938   22.2674   15.6307 H   0  0  0  0  0  0  0  0  0  0  0  0
   13.3871   21.6895   13.9036 O   0  0  0  0  0  0  0  0  0  0  0  0
   12.2801   21.6951   12.9670 C   0  0  0  0  0  0  0  0  0  0  0  0
   12.3624   23.0339   12.2086 C   0  0  0  0  0  0  0  0  0  0  0  0
   13.5006   22.8585   11.3575 O   0  0  0  0  0  0  0  0  0  0  0  0
   13.4812   21.5095   10.8930 C   0  0  0  0  0  0  0  0  0  0  0  0
   14.8012   20.9794   10.9323 O   0  0  0  0  0  0  0  0  0  0  0  0
   14.9006   20.0314   11.9871 C   0  0  0  0  0  0  0  0  0  0  0  0
   13.4778   19.5347   12.2832 C   0  0  0  0  0  0  0  0  0  0  0  0
   12.6284   20.7073   11.8617 C   0  0  0  0  0  0  0  0  0  0  0  0
   14.5893   23.1887   18.0633 C   0  0  0  0  0  0  0  0  0  0  0  0
   13.5983   24.1876   18.3270 O   0  0  0  0  0  0  0  0  0  0  0  0
   13.1559   24.4308   17.4987 H   0  0  0  0  0  0  0  0  0  0  0  0
   15.6562   23.7517   17.1114 C   0  0  0  0  0  0  0  0  0  0  0  0
   16.9495   23.1191   17.2896 N   0  0  0  0  0  0  0  0  0  0  0  0
   17.7683   22.6487   15.9416 S   0  0  0  0  0  0  0  0  0  0  0  0
   16.8108   22.1243   14.9338 O   0  0  0  0  0  0  0  0  0  0  0  0
   18.7748   21.6496   16.4130 O   0  0  0  0  0  0  0  0  0  0  0  0
   19.8122   26.2456   14.1078 C   0  0  0  0  0  0  0  0  0  0  0  0
   18.4594   26.0274   13.9376 C   0  0  0  0  0  0  0  0  0  0  0  0
   17.8118   24.9068   14.4609 C   0  0  0  0  0  0  0  0  0  0  0  0
   18.5989   24.0036   15.1758 C   0  0  0  0  0  0  0  0  0  0  0  0
   19.9479   24.2171   15.3339 C   0  0  0  0  0  0  0  0  0  0  0  0
   20.6076   25.3106   14.7725 C   0  0  0  0  0  0  0  0  0  0  0  0
   20.3374   27.3967   13.6137 O   0  0  0  0  0  0  0  0  0  0  0  0
   20.9855   28.1526   14.6378 C   0  0  0  0  0  0  0  0  0  0  0  0
   17.7811   23.7343   18.3113 C   0  0  0  0  0  0  0  0  0  0  0  0
   17.5628   23.1172   19.6969 C   0  0  0  0  0  0  0  0  0  0  0  0
   17.7026   21.5874   19.6510 C   0  0  0  0  0  0  0  0  0  0  0  0
   18.5155   23.6690   20.7566 C   0  0  0  0  0  0  0  0  0  0  0  0
   14.5721   20.6185   17.8971 C   0  0  0  0  0  0  0  0  0  0  0  0
   13.7875   19.4506   18.5203 C   0  0  0  0  0  0  0  0  0  0  0  0
   14.4524   18.1456   18.1226 C   0  0  0  0  0  0  0  0  0  0  0  0
   13.7141   16.9605   18.7485 C   0  0  0  0  0  0  0  0  0  0  0  0
   12.2597   16.9675   18.3037 C   0  0  0  0  0  0  0  0  0  0  0  0
   11.6022   18.2933   18.6895 C   0  0  0  0  0  0  0  0  0  0  0  0
   11.6215   18.4022   20.2241 C   0  0  0  0  0  0  0  0  0  0  0  0
   13.0741   18.3974   20.7034 C   0  0  0  0  0  0  0  0  0  0  0  0
   13.8027   19.5793   20.0485 C   0  0  0  0  0  0  0  0  0  0  0  0
   12.3233   19.4797   18.0613 C   0  0  0  0  0  0  0  0  0  0  0  0
   13.8077   17.1085   20.2787 C   0  0  0  0  0  0  0  0  0  0  0  0
 41 42  1  0  0  0
 41 40  1  0  0  0
 42 45  1  0  0  0
 42 43  1  0  0  0
 45 38  1  0  0  0
 40 39  1  0  0  0
 40 44  1  0  0  0
 43 36  1  0  0  0
 39 38  1  0  0  0
 38 37  1  0  0  0
 44 36  1  0  0  0
 24 25  2  0  0  0
 24 23  1  0  0  0
 29 23  1  0  0  0
 29 30  1  0  0  0
 36 37  1  0  0  0
 36 35  1  0  0  0
 25 26  1  0  0  0
 21 20  2  0  0  0
 23 28  2  0  0  0
 26 27  2  0  0  0
 26 20  1  0  0  0
 28 27  1  0  0  0
 35  1  1  0  0  0
 20 22  2  0  0  0
 20 19  1  0  0  0
 13 12  1  0  0  0
 13 14  1  0  0  0
  1  2  1  0  0  0
  1 15  1  0  0  0
 19 18  1  0  0  0
 19 31  1  0  0  0
 12 11  1  0  0  0
 18 15  1  0  0  0
  2  3  1  0  0  0
 15 16  1  0  0  0
  4  3  2  0  0  0
  3  6  1  0  0  0
 31 32  1  0  0  0
 14  7  1  0  0  0
 14 10  1  0  0  0
 11 10  1  0  0  0
  6  7  1  0  0  0
  7  8  1  0  0  0
 10  9  1  0  0  0
 33 32  1  0  0  0
 32 34  1  0  0  0
  9  8  1  0  0  0
 16 17  1  0  0  0
  2  5  1  0  0  0
M  END
> <minimizedAffinity>
-9.98692

$$$$
5JFP_6KK_B_201


 45 50  0  0  0  0  0  0  0  0999 V2000
   14.6912   22.2655   16.6207 C   0  0  0  0  0  0  0  0  0  0  0  0
   13.7753   21.4969   17.4908 N   0  0  0  0  0  0  0  0  0  0  0  0
   14.1632   20.3858   18.1376 C   0  0  0  0  0  0  0  0  0  0  0  0
   15.3070   19.9440   18.0344 O   0  0  0  0  0  0  0  0  0  0  0  0
   12.8485   21.8107   17.5997 H   0  0  0  0  0  0  0  0  0  0  0  0
   13.1727   19.8520   18.8825 O   0  0  0  0  0  0  0  0  0  0  0  0
   13.4598   18.5620   19.4792 C   0  0  0  0  0  0  0  0  0  0  0  0
   12.9042   18.6168   20.9154 C   0  0  0  0  0  0  0  0  0  0  0  0
   11.4863   18.5701   20.7196 O   0  0  0  0  0  0  0  0  0  0  0  0
   11.2343   17.6682   19.6431 C   0  0  0  0  0  0  0  0  0  0  0  0
   10.2317   18.2162   18.7950 O   0  0  0  0  0  0  0  0  0  0  0  0
   10.8227   18.6376   17.5726 C   0  0  0  0  0  0  0  0  0  0  0  0
   12.1299   17.8484   17.4076 C   0  0  0  0  0  0  0  0  0  0  0  0
   12.5165   17.5548   18.8354 C   0  0  0  0  0  0  0  0  0  0  0  0
   15.2806   23.4173   17.4373 C   0  0  0  0  0  0  0  0  0  0  0  0
   14.2229   24.1020   18.1169 O   0  0  0  0  0  0  0  0  0  0  0  0
   13.6072   24.4732   17.4657 H   0  0  0  0  0  0  0  0  0  0  0  0
   16.0658   24.4079   16.5636 C   0  0  0  0  0  0  0  0  0  0  0  0
   17.5006   24.2913   16.7432 N   0  0  0  0  0  0  0  0  0  0  0  0
   18.0648   23.9981   18.2612 S   0  0  0  0  0  0  0  0  0  0  0  0
   18.2140   22.5338   18.4638 O   0  0  0  0  0  0  0  0  0  0  0  0
   17.0876   24.6511   19.1844 O   0  0  0  0  0  0  0  0  0  0  0  0
   22.2489   25.6348   18.8026 C   0  0  0  0  0  0  0  0  0  0  0  0
   21.8115   24.5377   19.5181 C   0  0  0  0  0  0  0  0  0  0  0  0
   20.5143   24.0359   19.3976 C   0  0  0  0  0  0  0  0  0  0  0  0
   19.6655   24.6968   18.5094 C   0  0  0  0  0  0  0  0  0  0  0  0
   20.0996   25.7960   17.8068 C   0  0  0  0  0  0  0  0  0  0  0  0
   21.3796   26.3294   17.9597 C   0  0  0  0  0  0  0  0  0  0  0  0
   23.5471   26.0087   18.9428 O   0  0  0  0  0  0  0  0  0  0  0  0
   24.0763   26.5151   17.7166 C   0  0  0  0  0  0  0  0  0  0  0  0
   18.1755   23.5393   15.6977 C   0  0  0  0  0  0  0  0  0  0  0  0
   18.6906   24.4366   14.5674 C   0  0  0  0  0  0  0  0  0  0  0  0
   18.1496   25.8684   14.7055 C   0  0  0  0  0  0  0  0  0  0  0  0
   20.2159   24.4897   14.4909 C   0  0  0  0  0  0  0  0  0  0  0  0
   13.7924   22.7062   15.4592 C   0  0  0  0  0  0  0  0  0  0  0  0
   13.6667   21.8999   14.1544 C   0  0  0  0  0  0  0  0  0  0  0  0
   15.0311   21.3465   13.7866 C   0  0  0  0  0  0  0  0  0  0  0  0
   14.9394   20.5138   12.5062 C   0  0  0  0  0  0  0  0  0  0  0  0
   14.3957   21.3706   11.3732 C   0  0  0  0  0  0  0  0  0  0  0  0
   13.0304   21.9413   11.7593 C   0  0  0  0  0  0  0  0  0  0  0  0
   12.0632   20.7613   11.9577 C   0  0  0  0  0  0  0  0  0  0  0  0
   12.5840   19.8787   13.0933 C   0  0  0  0  0  0  0  0  0  0  0  0
   12.6895   20.7362   14.3621 C   0  0  0  0  0  0  0  0  0  0  0  0
   13.1132   22.7823   13.0273 C   0  0  0  0  0  0  0  0  0  0  0  0
   13.9932   19.3312   12.7859 C   0  0  0  0  0  0  0  0  0  0  0  0
 41 42  1  0  0  0
 41 40  1  0  0  0
 42 45  1  0  0  0
 42 43  1  0  0  0
 45 38  1  0  0  0
 40 39  1  0  0  0
 40 44  1  0  0  0
 43 36  1  0  0  0
 39 38  1  0  0  0
 38 37  1  0  0  0
 44 36  1  0  0  0
 24 25  2  0  0  0
 24 23  1  0  0  0
 29 23  1  0  0  0
 29 30  1  0  0  0
 36 37  1  0  0  0
 36 35  1  0  0  0
 25 26  1  0  0  0
 21 20  2  0  0  0
 23 28  2  0  0  0
 26 27  2  0  0  0
 26 20  1  0  0  0
 28 27  1  0  0  0
 35  1  1  0  0  0
 20 22  2  0  0  0
 20 19  1  0  0  0
 13 12  1  0  0  0
 13 14  1  0  0  0
  1  2  1  0  0  0
  1 15  1  0  0  0
 19 18  1  0  0  0
 19 31  1  0  0  0
 12 11  1  0  0  0
 18 15  1  0  0  0
  2  3  1  0  0  0
 15 16  1  0  0  0
  4  3  2  0  0  0
  3  6  1  0  0  0
 31 32  1  0  0  0
 14  7  1  0  0  0
 14 10  1  0  0  0
 11 10  1  0  0  0
  6  7  1  0  0  0
  7  8  1  0  0  0
 10  9  1  0  0  0
 33 32  1  0  0  0
 32 34  1  0  0  0
  9  8  1  0  0  0
 16 17  1  0  0  0
  2  5  1  0  0  0
M  END
> <minimizedAffinity>
-9.95601

$$$$
5JFP_6KK_B_201


 45 50  0  0  0  0  0  0  0  0999 V2000
   16.3453   22.1232   15.1610 C   0  0  0  0  0  0  0  0  0  0  0  0
   14.9319   21.9394   14.7667 N   0  0  0  0  0  0  0  0  0  0  0  0
   14.5466   21.8831   13.4814 C   0  0  0  0  0  0  0  0  0  0  0  0
   15.3548   21.9879   12.5594 O   0  0  0  0  0  0  0  0  0  0  0  0
   14.2494   21.8553   15.4712 H   0  0  0  0  0  0  0  0  0  0  0  0
   13.2161   21.7002   13.3509 O   0  0  0  0  0  0  0  0  0  0  0  0
   12.8054   20.8124   12.2806 C   0  0  0  0  0  0  0  0  0  0  0  0
   13.3086   19.4081   12.6667 C   0  0  0  0  0  0  0  0  0  0  0  0
   12.4412   19.0341   13.7430 O   0  0  0  0  0  0  0  0  0  0  0  0
   11.1361   19.5155   13.4253 C   0  0  0  0  0  0  0  0  0  0  0  0
   10.5433   20.0732   14.5924 O   0  0  0  0  0  0  0  0  0  0  0  0
   10.4924   21.4886   14.4687 C   0  0  0  0  0  0  0  0  0  0  0  0
   10.5482   21.8128   12.9685 C   0  0  0  0  0  0  0  0  0  0  0  0
   11.2987   20.6316   12.4069 C   0  0  0  0  0  0  0  0  0  0  0  0
   16.5999   21.3173   16.4364 C   0  0  0  0  0  0  0  0  0  0  0  0
   17.8358   20.6068   16.3053 O   0  0  0  0  0  0  0  0  0  0  0  0
   17.7759   19.9885   15.5603 H   0  0  0  0  0  0  0  0  0  0  0  0
   15.4611   20.3306   16.7381 C   0  0  0  0  0  0  0  0  0  0  0  0
   14.9942   20.4231   18.1085 N   0  0  0  0  0  0  0  0  0  0  0  0
   15.0243   21.9002   18.8338 S   0  0  0  0  0  0  0  0  0  0  0  0
   14.3080   21.8324   20.1338 O   0  0  0  0  0  0  0  0  0  0  0  0
   14.4186   22.8437   17.8456 O   0  0  0  0  0  0  0  0  0  0  0  0
   19.1786   23.3141   19.9387 C   0  0  0  0  0  0  0  0  0  0  0  0
   18.2440   24.1827   19.4108 C   0  0  0  0  0  0  0  0  0  0  0  0
   16.9685   23.7646   19.0269 C   0  0  0  0  0  0  0  0  0  0  0  0
   16.6713   22.4130   19.2033 C   0  0  0  0  0  0  0  0  0  0  0  0
   17.6075   21.5477   19.7182 C   0  0  0  0  0  0  0  0  0  0  0  0
   18.8987   21.9517   20.0586 C   0  0  0  0  0  0  0  0  0  0  0  0
   20.3699   23.8291   20.3395 O   0  0  0  0  0  0  0  0  0  0  0  0
   20.3260   25.2556   20.3944 C   0  0  0  0  0  0  0  0  0  0  0  0
   13.7994   19.6430   18.3877 C   0  0  0  0  0  0  0  0  0  0  0  0
   14.0820   18.4379   19.2910 C   0  0  0  0  0  0  0  0  0  0  0  0
   13.1820   18.4551   20.5366 C   0  0  0  0  0  0  0  0  0  0  0  0
   13.9105   17.0984   18.5758 C   0  0  0  0  0  0  0  0  0  0  0  0
   16.4719   23.6414   15.3338 C   0  0  0  0  0  0  0  0  0  0  0  0
   17.8173   24.3803   15.2242 C   0  0  0  0  0  0  0  0  0  0  0  0
   18.0841   24.6992   13.7646 C   0  0  0  0  0  0  0  0  0  0  0  0
   19.4034   25.4605   13.6194 C   0  0  0  0  0  0  0  0  0  0  0  0
   20.5417   24.6313   14.1938 C   0  0  0  0  0  0  0  0  0  0  0  0
   20.2561   24.2966   15.6585 C   0  0  0  0  0  0  0  0  0  0  0  0
   20.1992   25.6185   16.4436 C   0  0  0  0  0  0  0  0  0  0  0  0
   19.0615   26.4768   15.8879 C   0  0  0  0  0  0  0  0  0  0  0  0
   17.7514   25.6882   16.0225 C   0  0  0  0  0  0  0  0  0  0  0  0
   18.9496   23.5276   15.8128 C   0  0  0  0  0  0  0  0  0  0  0  0
   19.2638   26.7865   14.3902 C   0  0  0  0  0  0  0  0  0  0  0  0
 41 42  1  0  0  0
 41 40  1  0  0  0
 42 45  1  0  0  0
 42 43  1  0  0  0
 45 38  1  0  0  0
 40 39  1  0  0  0
 40 44  1  0  0  0
 43 36  1  0  0  0
 39 38  1  0  0  0
 38 37  1  0  0  0
 44 36  1  0  0  0
 24 25  2  0  0  0
 24 23  1  0  0  0
 29 23  1  0  0  0
 29 30  1  0  0  0
 36 37  1  0  0  0
 36 35  1  0  0  0
 25 26  1  0  0  0
 21 20  2  0  0  0
 23 28  2  0  0  0
 26 27  2  0  0  0
 26 20  1  0  0  0
 28 27  1  0  0  0
 35  1  1  0  0  0
 20 22  2  0  0  0
 20 19  1  0  0  0
 13 12  1  0  0  0
 13 14  1  0  0  0
  1  2  1  0  0  0
  1 15  1  0  0  0
 19 18  1  0  0  0
 19 31  1  0  0  0
 12 11  1  0  0  0
 18 15  1  0  0  0
  2  3  1  0  0  0
 15 16  1  0  0  0
  4  3  2  0  0  0
  3  6  1  0  0  0
 31 32  1  0  0  0
 14  7  1  0  0  0
 14 10  1  0  0  0
 11 10  1  0  0  0
  6  7  1  0  0  0
  7  8  1  0  0  0
 10  9  1  0  0  0
 33 32  1  0  0  0
 32 34  1  0  0  0
  9  8  1  0  0  0
 16 17  1  0  0  0
  2  5  1  0  0  0
M  END
> <minimizedAffinity>
-9.89621

$$$$
5JFP_6KK_B_201


 45 50  0  0  0  0  0  0  0  0999 V2000
   15.6524   21.1118   17.3932 C   0  0  0  0  0  0  0  0  0  0  0  0
   15.2735   21.2229   15.9680 N   0  0  0  0  0  0  0  0  0  0  0  0
   14.4055   22.1474   15.5259 C   0  0  0  0  0  0  0  0  0  0  0  0
   13.8729   22.9515   16.2902 O   0  0  0  0  0  0  0  0  0  0  0  0
   15.6716   20.5971   15.3206 H   0  0  0  0  0  0  0  0  0  0  0  0
   14.2133   22.0762   14.1923 O   0  0  0  0  0  0  0  0  0  0  0  0
   12.8481   21.8382   13.7655 C   0  0  0  0  0  0  0  0  0  0  0  0
   12.4469   23.0511   12.9040 C   0  0  0  0  0  0  0  0  0  0  0  0
   13.1967   22.8591   11.6991 O   0  0  0  0  0  0  0  0  0  0  0  0
   13.1998   21.4603   11.4177 C   0  0  0  0  0  0  0  0  0  0  0  0
   14.5003   21.0688   10.9930 O   0  0  0  0  0  0  0  0  0  0  0  0
   15.1225   20.3017   12.0156 C   0  0  0  0  0  0  0  0  0  0  0  0
   14.0012   19.7228   12.8910 C   0  0  0  0  0  0  0  0  0  0  0  0
   12.8963   20.7343   12.7176 C   0  0  0  0  0  0  0  0  0  0  0  0
   17.0541   21.6996   17.5678 C   0  0  0  0  0  0  0  0  0  0  0  0
   17.7351   20.9915   18.6091 O   0  0  0  0  0  0  0  0  0  0  0  0
   17.2523   21.1002   19.4433 H   0  0  0  0  0  0  0  0  0  0  0  0
   17.0189   23.2006   17.8953 C   0  0  0  0  0  0  0  0  0  0  0  0
   18.0646   23.9422   17.2163 N   0  0  0  0  0  0  0  0  0  0  0  0
   17.7525   24.4989   15.6993 S   0  0  0  0  0  0  0  0  0  0  0  0
   16.5203   25.3290   15.7162 O   0  0  0  0  0  0  0  0  0  0  0  0
   17.6630   23.2816   14.8368 O   0  0  0  0  0  0  0  0  0  0  0  0
   21.0208   27.3115   14.3260 C   0  0  0  0  0  0  0  0  0  0  0  0
   19.6885   27.6025   14.1092 C   0  0  0  0  0  0  0  0  0  0  0  0
   18.6628   26.7350   14.4892 C   0  0  0  0  0  0  0  0  0  0  0  0
   19.0445   25.5446   15.1085 C   0  0  0  0  0  0  0  0  0  0  0  0
   20.3722   25.2516   15.3127 C   0  0  0  0  0  0  0  0  0  0  0  0
   21.4019   26.0936   14.8919 C   0  0  0  0  0  0  0  0  0  0  0  0
   21.9409   28.2475   13.9766 O   0  0  0  0  0  0  0  0  0  0  0  0
   22.6048   28.7763   15.1253 C   0  0  0  0  0  0  0  0  0  0  0  0
   18.7784   24.8831   18.0644 C   0  0  0  0  0  0  0  0  0  0  0  0
   19.4606   24.2007   19.2549 C   0  0  0  0  0  0  0  0  0  0  0  0
   20.9537   24.5590   19.3187 C   0  0  0  0  0  0  0  0  0  0  0  0
   18.8123   24.5435   20.5955 C   0  0  0  0  0  0  0  0  0  0  0  0
   15.5564   19.6068   17.6706 C   0  0  0  0  0  0  0  0  0  0  0  0
   14.2892   18.9471   18.2424 C   0  0  0  0  0  0  0  0  0  0  0  0
   13.1534   19.1260   17.2518 C   0  0  0  0  0  0  0  0  0  0  0  0
   11.8810   18.4568   17.7754 C   0  0  0  0  0  0  0  0  0  0  0  0
   11.5034   19.0528   19.1228 C   0  0  0  0  0  0  0  0  0  0  0  0
   12.6600   18.8870   20.1094 C   0  0  0  0  0  0  0  0  0  0  0  0
   12.8947   17.3804   20.3148 C   0  0  0  0  0  0  0  0  0  0  0  0
   13.2769   16.7508   18.9741 C   0  0  0  0  0  0  0  0  0  0  0  0
   14.5416   17.4493   18.4554 C   0  0  0  0  0  0  0  0  0  0  0  0
   13.9294   19.5606   19.6025 C   0  0  0  0  0  0  0  0  0  0  0  0
   12.1709   16.9508   17.9174 C   0  0  0  0  0  0  0  0  0  0  0  0
 41 42  1  0  0  0
 41 40  1  0  0  0
 42 45  1  0  0  0
 42 43  1  0  0  0
 45 38  1  0  0  0
 40 39  1  0  0  0
 40 44  1  0  0  0
 43 36  1  0  0  0
 39 38  1  0  0  0
 38 37  1  0  0  0
 44 36  1  0  0  0
 24 25  2  0  0  0
 24 23  1  0  0  0
 29 23  1  0  0  0
 29 30  1  0  0  0
 36 37  1  0  0  0
 36 35  1  0  0  0
 25 26  1  0  0  0
 21 20  2  0  0  0
 23 28  2  0  0  0
 26 27  2  0  0  0
 26 20  1  0  0  0
 28 27  1  0  0  0
 35  1  1  0  0  0
 20 22  2  0  0  0
 20 19  1  0  0  0
 13 12  1  0  0  0
 13 14  1  0  0  0
  1  2  1  0  0  0
  1 15  1  0  0  0
 19 18  1  0  0  0
 19 31  1  0  0  0
 12 11  1  0  0  0
 18 15  1  0  0  0
  2  3  1  0  0  0
 15 16  1  0  0  0
  4  3  2  0  0  0
  3  6  1  0  0  0
 31 32  1  0  0  0
 14  7  1  0  0  0
 14 10  1  0  0  0
 11 10  1  0  0  0
  6  7  1  0  0  0
  7  8  1  0  0  0
 10  9  1  0  0  0
 33 32  1  0  0  0
 32 34  1  0  0  0
  9  8  1  0  0  0
 16 17  1  0  0  0
  2  5  1  0  0  0
M  END
> <minimizedAffinity>
-9.59250

$$$$
5JFP_6KK_B_201


 45 50  0  0  0  0  0  0  0  0999 V2000
   15.3878   23.2562   15.6444 C   0  0  0  0  0  0  0  0  0  0  0  0
   16.1863   23.3659   16.8843 N   0  0  0  0  0  0  0  0  0  0  0  0
   15.6187   23.4768   18.0963 C   0  0  0  0  0  0  0  0  0  0  0  0
   14.3965   23.4986   18.2379 O   0  0  0  0  0  0  0  0  0  0  0  0
   17.1686   23.3573   16.8189 H   0  0  0  0  0  0  0  0  0  0  0  0
   16.5317   23.5526   19.0868 O   0  0  0  0  0  0  0  0  0  0  0  0
   16.7453   22.3321   19.8401 C   0  0  0  0  0  0  0  0  0  0  0  0
   17.1403   21.2536   18.8127 C   0  0  0  0  0  0  0  0  0  0  0  0
   18.4685   21.6327   18.4348 O   0  0  0  0  0  0  0  0  0  0  0  0
   19.1272   22.1049   19.6091 C   0  0  0  0  0  0  0  0  0  0  0  0
   19.8801   23.2695   19.2902 O   0  0  0  0  0  0  0  0  0  0  0  0
   19.2493   24.4117   19.8549 C   0  0  0  0  0  0  0  0  0  0  0  0
   18.3784   23.9169   21.0192 C   0  0  0  0  0  0  0  0  0  0  0  0
   18.0508   22.5045   20.6046 C   0  0  0  0  0  0  0  0  0  0  0  0
   14.7551   21.8639   15.5987 C   0  0  0  0  0  0  0  0  0  0  0  0
   15.7719   20.8936   15.3264 O   0  0  0  0  0  0  0  0  0  0  0  0
   16.1700   21.0766   14.4610 H   0  0  0  0  0  0  0  0  0  0  0  0
   13.6436   21.7644   14.5424 C   0  0  0  0  0  0  0  0  0  0  0  0
   13.1270   20.4158   14.4047 N   0  0  0  0  0  0  0  0  0  0  0  0
   11.5834   20.1288   14.8985 S   0  0  0  0  0  0  0  0  0  0  0  0
   10.9500   19.1290   14.0002 O   0  0  0  0  0  0  0  0  0  0  0  0
   10.9108   21.4634   14.9056 O   0  0  0  0  0  0  0  0  0  0  0  0
   11.4028   18.5314   19.1286 C   0  0  0  0  0  0  0  0  0  0  0  0
   12.4109   19.3862   18.7289 C   0  0  0  0  0  0  0  0  0  0  0  0
   12.5110   19.8635   17.4208 C   0  0  0  0  0  0  0  0  0  0  0  0
   11.5344   19.4369   16.5205 C   0  0  0  0  0  0  0  0  0  0  0  0
   10.5383   18.5765   16.9178 C   0  0  0  0  0  0  0  0  0  0  0  0
   10.4621   18.0597   18.2113 C   0  0  0  0  0  0  0  0  0  0  0  0
   11.3556   18.1723   20.4377 O   0  0  0  0  0  0  0  0  0  0  0  0
   12.3866   17.2365   20.7562 C   0  0  0  0  0  0  0  0  0  0  0  0
   13.4886   19.7607   13.1580 C   0  0  0  0  0  0  0  0  0  0  0  0
   14.1890   20.7078   12.1780 C   0  0  0  0  0  0  0  0  0  0  0  0
   15.2540   19.9659   11.3549 C   0  0  0  0  0  0  0  0  0  0  0  0
   13.2220   21.4045   11.2217 C   0  0  0  0  0  0  0  0  0  0  0  0
   16.4130   23.5240   14.5361 C   0  0  0  0  0  0  0  0  0  0  0  0
   17.6911   24.3489   14.7689 C   0  0  0  0  0  0  0  0  0  0  0  0
   18.7014   23.4901   15.5071 C   0  0  0  0  0  0  0  0  0  0  0  0
   19.9985   24.2699   15.7320 C   0  0  0  0  0  0  0  0  0  0  0  0
   19.7068   25.5364   16.5221 C   0  0  0  0  0  0  0  0  0  0  0  0
   18.6730   26.3866   15.7823 C   0  0  0  0  0  0  0  0  0  0  0  0
   19.2837   26.8076   14.4344 C   0  0  0  0  0  0  0  0  0  0  0  0
   19.5892   25.5527   13.6148 C   0  0  0  0  0  0  0  0  0  0  0  0
   18.2811   24.7738   13.4184 C   0  0  0  0  0  0  0  0  0  0  0  0
   17.3728   25.6227   15.5637 C   0  0  0  0  0  0  0  0  0  0  0  0
   20.5766   24.6220   14.3486 C   0  0  0  0  0  0  0  0  0  0  0  0
 41 42  1  0  0  0
 41 40  1  0  0  0
 42 45  1  0  0  0
 42 43  1  0  0  0
 45 38  1  0  0  0
 40 39  1  0  0  0
 40 44  1  0  0  0
 43 36  1  0  0  0
 39 38  1  0  0  0
 38 37  1  0  0  0
 44 36  1  0  0  0
 24 25  2  0  0  0
 24 23  1  0  0  0
 29 23  1  0  0  0
 29 30  1  0  0  0
 36 37  1  0  0  0
 36 35  1  0  0  0
 25 26  1  0  0  0
 21 20  2  0  0  0
 23 28  2  0  0  0
 26 27  2  0  0  0
 26 20  1  0  0  0
 28 27  1  0  0  0
 35  1  1  0  0  0
 20 22  2  0  0  0
 20 19  1  0  0  0
 13 12  1  0  0  0
 13 14  1  0  0  0
  1  2  1  0  0  0
  1 15  1  0  0  0
 19 18  1  0  0  0
 19 31  1  0  0  0
 12 11  1  0  0  0
 18 15  1  0  0  0
  2  3  1  0  0  0
 15 16  1  0  0  0
  4  3  2  0  0  0
  3  6  1  0  0  0
 31 32  1  0  0  0
 14  7  1  0  0  0
 14 10  1  0  0  0
 11 10  1  0  0  0
  6  7  1  0  0  0
  7  8  1  0  0  0
 10  9  1  0  0  0
 33 32  1  0  0  0
 32 34  1  0  0  0
  9  8  1  0  0  0
 16 17  1  0  0  0
  2  5  1  0  0  0
M  END
> <minimizedAffinity>
-9.54685

$$$$
5JFP_6KK_B_201


 45 50  0  0  0  0  0  0  0  0999 V2000
   15.5902   20.6725   16.0460 C   0  0  0  0  0  0  0  0  0  0  0  0
   14.5192   20.3442   17.0114 N   0  0  0  0  0  0  0  0  0  0  0  0
   14.5222   19.2087   17.7283 C   0  0  0  0  0  0  0  0  0  0  0  0
   15.4197   18.3746   17.6138 O   0  0  0  0  0  0  0  0  0  0  0  0
   13.7778   20.9806   17.1329 H   0  0  0  0  0  0  0  0  0  0  0  0
   13.4583   19.1184   18.5533 O   0  0  0  0  0  0  0  0  0  0  0  0
   13.4737   18.0032   19.4799 C   0  0  0  0  0  0  0  0  0  0  0  0
   12.9612   18.5519   20.8254 C   0  0  0  0  0  0  0  0  0  0  0  0
   11.5632   18.7501   20.5868 O   0  0  0  0  0  0  0  0  0  0  0  0
   11.1119   17.6670   19.7750 C   0  0  0  0  0  0  0  0  0  0  0  0
   10.2369   18.1653   18.7695 O   0  0  0  0  0  0  0  0  0  0  0  0
   10.8875   18.1143   17.5065 C   0  0  0  0  0  0  0  0  0  0  0  0
   11.9958   17.0563   17.6121 C   0  0  0  0  0  0  0  0  0  0  0  0
   12.3302   17.0795   19.0824 C   0  0  0  0  0  0  0  0  0  0  0  0
   16.7624   21.2857   16.8147 C   0  0  0  0  0  0  0  0  0  0  0  0
   17.8493   20.3542   16.8372 O   0  0  0  0  0  0  0  0  0  0  0  0
   17.5727   19.5456   17.2961 H   0  0  0  0  0  0  0  0  0  0  0  0
   16.3775   21.6720   18.2514 C   0  0  0  0  0  0  0  0  0  0  0  0
   16.9154   22.9611   18.6432 N   0  0  0  0  0  0  0  0  0  0  0  0
   16.2900   24.3053   17.9288 S   0  0  0  0  0  0  0  0  0  0  0  0
   16.1278   25.3794   18.9425 O   0  0  0  0  0  0  0  0  0  0  0  0
   15.0129   23.8624   17.2913 O   0  0  0  0  0  0  0  0  0  0  0  0
   18.9273   26.1018   14.7201 C   0  0  0  0  0  0  0  0  0  0  0  0
   17.7867   25.3943   14.3956 C   0  0  0  0  0  0  0  0  0  0  0  0
   16.9764   24.7985   15.3638 C   0  0  0  0  0  0  0  0  0  0  0  0
   17.3709   24.9513   16.6932 C   0  0  0  0  0  0  0  0  0  0  0  0
   18.5133   25.6462   17.0131 C   0  0  0  0  0  0  0  0  0  0  0  0
   19.3513   26.2024   16.0463 C   0  0  0  0  0  0  0  0  0  0  0  0
   19.6147   26.6968   13.7109 O   0  0  0  0  0  0  0  0  0  0  0  0
   20.1569   27.9524   14.1226 C   0  0  0  0  0  0  0  0  0  0  0  0
   17.1589   23.0994   20.0700 C   0  0  0  0  0  0  0  0  0  0  0  0
   18.6274   22.8668   20.4409 C   0  0  0  0  0  0  0  0  0  0  0  0
   18.8307   21.4717   21.0528 C   0  0  0  0  0  0  0  0  0  0  0  0
   19.5789   23.0304   19.2565 C   0  0  0  0  0  0  0  0  0  0  0  0
   14.9038   21.6307   15.0653 C   0  0  0  0  0  0  0  0  0  0  0  0
   13.6873   21.2199   14.2170 C   0  0  0  0  0  0  0  0  0  0  0  0
   14.0018   19.9153   13.5083 C   0  0  0  0  0  0  0  0  0  0  0  0
   12.8019   19.4603   12.6751 C   0  0  0  0  0  0  0  0  0  0  0  0
   12.4412   20.5362   11.6623 C   0  0  0  0  0  0  0  0  0  0  0  0
   12.1458   21.8527   12.3822 C   0  0  0  0  0  0  0  0  0  0  0  0
   10.9203   21.6331   13.2863 C   0  0  0  0  0  0  0  0  0  0  0  0
   11.2522   20.5536   14.3180 C   0  0  0  0  0  0  0  0  0  0  0  0
   12.4703   21.0183   15.1284 C   0  0  0  0  0  0  0  0  0  0  0  0
   13.3394   22.3208   13.2058 C   0  0  0  0  0  0  0  0  0  0  0  0
   11.6277   19.2188   13.6420 C   0  0  0  0  0  0  0  0  0  0  0  0
 41 42  1  0  0  0
 41 40  1  0  0  0
 42 45  1  0  0  0
 42 43  1  0  0  0
 45 38  1  0  0  0
 40 39  1  0  0  0
 40 44  1  0  0  0
 43 36  1  0  0  0
 39 38  1  0  0  0
 38 37  1  0  0  0
 44 36  1  0  0  0
 24 25  2  0  0  0
 24 23  1  0  0  0
 29 23  1  0  0  0
 29 30  1  0  0  0
 36 37  1  0  0  0
 36 35  1  0  0  0
 25 26  1  0  0  0
 21 20  2  0  0  0
 23 28  2  0  0  0
 26 27  2  0  0  0
 26 20  1  0  0  0
 28 27  1  0  0  0
 35  1  1  0  0  0
 20 22  2  0  0  0
 20 19  1  0  0  0
 13 12  1  0  0  0
 13 14  1  0  0  0
  1  2  1  0  0  0
  1 15  1  0  0  0
 19 18  1  0  0  0
 19 31  1  0  0  0
 12 11  1  0  0  0
 18 15  1  0  0  0
  2  3  1  0  0  0
 15 16  1  0  0  0
  4  3  2  0  0  0
  3  6  1  0  0  0
 31 32  1  0  0  0
 14  7  1  0  0  0
 14 10  1  0  0  0
 11 10  1  0  0  0
  6  7  1  0  0  0
  7  8  1  0  0  0
 10  9  1  0  0  0
 33 32  1  0  0  0
 32 34  1  0  0  0
  9  8  1  0  0  0
 16 17  1  0  0  0
  2  5  1  0  0  0
M  END
> <minimizedAffinity>
-9.54146

$$$$
5JFP_6KK_B_201


 45 50  0  0  0  0  0  0  0  0999 V2000
   14.8470   21.2861   16.9051 C   0  0  0  0  0  0  0  0  0  0  0  0
   16.0332   22.0898   17.2712 N   0  0  0  0  0  0  0  0  0  0  0  0
   17.2759   21.5808   17.2619 C   0  0  0  0  0  0  0  0  0  0  0  0
   17.4923   20.4098   16.9517 O   0  0  0  0  0  0  0  0  0  0  0  0
   15.9074   23.0311   17.5307 H   0  0  0  0  0  0  0  0  0  0  0  0
   18.2067   22.4902   17.6186 O   0  0  0  0  0  0  0  0  0  0  0  0
   18.0403   23.0779   18.9337 C   0  0  0  0  0  0  0  0  0  0  0  0
   19.2834   22.6721   19.7489 C   0  0  0  0  0  0  0  0  0  0  0  0
   20.3261   23.4669   19.1731 O   0  0  0  0  0  0  0  0  0  0  0  0
   19.7700   24.7461   18.8724 C   0  0  0  0  0  0  0  0  0  0  0  0
   20.2378   25.1748   17.5987 O   0  0  0  0  0  0  0  0  0  0  0  0
   19.1759   25.1069   16.6558 C   0  0  0  0  0  0  0  0  0  0  0  0
   17.8627   25.1605   17.4503 C   0  0  0  0  0  0  0  0  0  0  0  0
   18.2626   24.5767   18.7820 C   0  0  0  0  0  0  0  0  0  0  0  0
   14.0291   22.0718   15.8783 C   0  0  0  0  0  0  0  0  0  0  0  0
   13.7937   23.3934   16.3758 O   0  0  0  0  0  0  0  0  0  0  0  0
   13.2829   23.3428   17.1989 H   0  0  0  0  0  0  0  0  0  0  0  0
   12.6900   21.3901   15.5564 C   0  0  0  0  0  0  0  0  0  0  0  0
   12.4393   21.3033   14.1301 N   0  0  0  0  0  0  0  0  0  0  0  0
   11.0162   20.6390   13.6380 S   0  0  0  0  0  0  0  0  0  0  0  0
   10.2453   21.6369   12.8520 O   0  0  0  0  0  0  0  0  0  0  0  0
   10.3356   20.1801   14.8869 O   0  0  0  0  0  0  0  0  0  0  0  0
   11.6502   16.9820   11.0491 C   0  0  0  0  0  0  0  0  0  0  0  0
   12.5988   17.3797   11.9703 C   0  0  0  0  0  0  0  0  0  0  0  0
   12.4449   18.5244   12.7545 C   0  0  0  0  0  0  0  0  0  0  0  0
   11.2743   19.2603   12.5682 C   0  0  0  0  0  0  0  0  0  0  0  0
   10.3366   18.8687   11.6421 C   0  0  0  0  0  0  0  0  0  0  0  0
   10.5083   17.7525   10.8231 C   0  0  0  0  0  0  0  0  0  0  0  0
   11.8631   15.8199   10.3789 O   0  0  0  0  0  0  0  0  0  0  0  0
   13.2101   15.3710   10.5342 C   0  0  0  0  0  0  0  0  0  0  0  0
   12.8420   22.4812   13.3789 C   0  0  0  0  0  0  0  0  0  0  0  0
   13.8652   22.1590   12.2846 C   0  0  0  0  0  0  0  0  0  0  0  0
   14.8294   21.0506   12.7359 C   0  0  0  0  0  0  0  0  0  0  0  0
   13.2201   21.7449   10.9627 C   0  0  0  0  0  0  0  0  0  0  0  0
   14.1383   21.0663   18.2469 C   0  0  0  0  0  0  0  0  0  0  0  0
   13.6129   19.6903   18.6929 C   0  0  0  0  0  0  0  0  0  0  0  0
   13.6471   19.6201   20.2086 C   0  0  0  0  0  0  0  0  0  0  0  0
   13.1043   18.2733   20.6907 C   0  0  0  0  0  0  0  0  0  0  0  0
   13.9276   17.1429   20.0925 C   0  0  0  0  0  0  0  0  0  0  0  0
   13.9053   17.2323   18.5659 C   0  0  0  0  0  0  0  0  0  0  0  0
   12.4502   17.0460   18.1021 C   0  0  0  0  0  0  0  0  0  0  0  0
   11.5948   18.1701   18.6890 C   0  0  0  0  0  0  0  0  0  0  0  0
   12.1675   19.5121   18.2121 C   0  0  0  0  0  0  0  0  0  0  0  0
   14.4552   18.5660   18.0750 C   0  0  0  0  0  0  0  0  0  0  0  0
   11.6379   18.1701   20.2311 C   0  0  0  0  0  0  0  0  0  0  0  0
 41 42  1  0  0  0
 41 40  1  0  0  0
 42 45  1  0  0  0
 42 43  1  0  0  0
 45 38  1  0  0  0
 40 39  1  0  0  0
 40 44  1  0  0  0
 43 36  1  0  0  0
 39 38  1  0  0  0
 38 37  1  0  0  0
 44 36  1  0  0  0
 24 25  2  0  0  0
 24 23  1  0  0  0
 29 23  1  0  0  0
 29 30  1  0  0  0
 36 37  1  0  0  0
 36 35  1  0  0  0
 25 26  1  0  0  0
 21 20  2  0  0  0
 23 28  2  0  0  0
 26 27  2  0  0  0
 26 20  1  0  0  0
 28 27  1  0  0  0
 35  1  1  0  0  0
 20 22  2  0  0  0
 20 19  1  0  0  0
 13 12  1  0  0  0
 13 14  1  0  0  0
  1  2  1  0  0  0
  1 15  1  0  0  0
 19 18  1  0  0  0
 19 31  1  0  0  0
 12 11  1  0  0  0
 18 15  1  0  0  0
  2  3  1  0  0  0
 15 16  1  0  0  0
  4  3  2  0  0  0
  3  6  1  0  0  0
 31 32  1  0  0  0
 14  7  1  0  0  0
 14 10  1  0  0  0
 11 10  1  0  0  0
  6  7  1  0  0  0
  7  8  1  0  0  0
 10  9  1  0  0  0
 33 32  1  0  0  0
 32 34  1  0  0  0
  9  8  1  0  0  0
 16 17  1  0  0  0
  2  5  1  0  0  0
M  END
> <minimizedAffinity>
-9.47841

$$$$
5JFP_6KK_B_201


 45 50  0  0  0  0  0  0  0  0999 V2000
   16.7622   23.8390   16.0353 C   0  0  0  0  0  0  0  0  0  0  0  0
   17.4868   25.1156   15.8561 N   0  0  0  0  0  0  0  0  0  0  0  0
   18.4771   25.2593   14.9604 C   0  0  0  0  0  0  0  0  0  0  0  0
   18.8387   24.3281   14.2418 O   0  0  0  0  0  0  0  0  0  0  0  0
   17.2344   25.8872   16.4129 H   0  0  0  0  0  0  0  0  0  0  0  0
   18.9903   26.5072   14.9571 O   0  0  0  0  0  0  0  0  0  0  0  0
   20.2639   26.6616   14.2813 C   0  0  0  0  0  0  0  0  0  0  0  0
   20.3315   28.1292   13.8164 C   0  0  0  0  0  0  0  0  0  0  0  0
   20.5280   28.8506   15.0378 O   0  0  0  0  0  0  0  0  0  0  0  0
   21.4068   28.0766   15.8529 C   0  0  0  0  0  0  0  0  0  0  0  0
   20.9394   28.0939   17.1968 O   0  0  0  0  0  0  0  0  0  0  0  0
   20.4040   26.8195   17.5294 C   0  0  0  0  0  0  0  0  0  0  0  0
   21.0347   25.8004   16.5689 C   0  0  0  0  0  0  0  0  0  0  0  0
   21.3425   26.6420   15.3561 C   0  0  0  0  0  0  0  0  0  0  0  0
   15.5650   23.8250   15.0828 C   0  0  0  0  0  0  0  0  0  0  0  0
   15.2765   25.1651   14.6697 O   0  0  0  0  0  0  0  0  0  0  0  0
   15.0437   25.6994   15.4451 H   0  0  0  0  0  0  0  0  0  0  0  0
   14.3177   23.1980   15.7252 C   0  0  0  0  0  0  0  0  0  0  0  0
   13.8076   22.0723   14.9654 N   0  0  0  0  0  0  0  0  0  0  0  0
   14.2625   20.5605   15.4305 S   0  0  0  0  0  0  0  0  0  0  0  0
   15.7228   20.5409   15.7041 O   0  0  0  0  0  0  0  0  0  0  0  0
   13.8313   19.6544   14.3230 O   0  0  0  0  0  0  0  0  0  0  0  0
   12.2525   19.1212   19.2208 C   0  0  0  0  0  0  0  0  0  0  0  0
   11.6035   19.0703   18.0031 C   0  0  0  0  0  0  0  0  0  0  0  0
   12.1865   19.5421   16.8255 C   0  0  0  0  0  0  0  0  0  0  0  0
   13.4723   20.0731   16.9305 C   0  0  0  0  0  0  0  0  0  0  0  0
   14.1119   20.1334   18.1461 C   0  0  0  0  0  0  0  0  0  0  0  0
   13.5147   19.7070   19.3326 C   0  0  0  0  0  0  0  0  0  0  0  0
   11.6263   18.5802   20.2979 O   0  0  0  0  0  0  0  0  0  0  0  0
   12.3477   17.4578   20.8076 C   0  0  0  0  0  0  0  0  0  0  0  0
   12.4074   22.1880   14.5913 C   0  0  0  0  0  0  0  0  0  0  0  0
   12.2139   22.3411   13.0789 C   0  0  0  0  0  0  0  0  0  0  0  0
   13.5653   22.3826   12.3481 C   0  0  0  0  0  0  0  0  0  0  0  0
   11.3556   21.2340   12.4684 C   0  0  0  0  0  0  0  0  0  0  0  0
   16.3898   23.8471   17.5227 C   0  0  0  0  0  0  0  0  0  0  0  0
   17.3947   23.4908   18.6323 C   0  0  0  0  0  0  0  0  0  0  0  0
   18.7168   23.1089   17.9924 C   0  0  0  0  0  0  0  0  0  0  0  0
   19.7514   22.7743   19.0689 C   0  0  0  0  0  0  0  0  0  0  0  0
   19.2392   21.6366   19.9387 C   0  0  0  0  0  0  0  0  0  0  0  0
   17.8972   22.0206   20.5635 C   0  0  0  0  0  0  0  0  0  0  0  0
   18.1309   23.2371   21.4761 C   0  0  0  0  0  0  0  0  0  0  0  0
   18.6479   24.4008   20.6286 C   0  0  0  0  0  0  0  0  0  0  0  0
   17.6073   24.7069   19.5423 C   0  0  0  0  0  0  0  0  0  0  0  0
   16.8560   22.3444   19.4990 C   0  0  0  0  0  0  0  0  0  0  0  0
   19.9685   24.0416   19.9167 C   0  0  0  0  0  0  0  0  0  0  0  0
 41 42  1  0  0  0
 41 40  1  0  0  0
 42 45  1  0  0  0
 42 43  1  0  0  0
 45 38  1  0  0  0
 40 39  1  0  0  0
 40 44  1  0  0  0
 43 36  1  0  0  0
 39 38  1  0  0  0
 38 37  1  0  0  0
 44 36  1  0  0  0
 24 25  2  0  0  0
 24 23  1  0  0  0
 29 23  1  0  0  0
 29 30  1  0  0  0
 36 37  1  0  0  0
 36 35  1  0  0  0
 25 26  1  0  0  0
 21 20  2  0  0  0
 23 28  2  0  0  0
 26 27  2  0  0  0
 26 20  1  0  0  0
 28 27  1  0  0  0
 35  1  1  0  0  0
 20 22  2  0  0  0
 20 19  1  0  0  0
 13 12  1  0  0  0
 13 14  1  0  0  0
  1  2  1  0  0  0
  1 15  1  0  0  0
 19 18  1  0  0  0
 19 31  1  0  0  0
 12 11  1  0  0  0
 18 15  1  0  0  0
  2  3  1  0  0  0
 15 16  1  0  0  0
  4  3  2  0  0  0
  3  6  1  0  0  0
 31 32  1  0  0  0
 14  7  1  0  0  0
 14 10  1  0  0  0
 11 10  1  0  0  0
  6  7  1  0  0  0
  7  8  1  0  0  0
 10  9  1  0  0  0
 33 32  1  0  0  0
 32 34  1  0  0  0
  9  8  1  0  0  0
 16 17  1  0  0  0
  2  5  1  0  0  0
M  END
> <minimizedAffinity>
-9.43910

$$$$
