3MAM_BET_A_1


  9  8  0  0  0  0  0  0  0  0999 V2000
   24.6948  -15.5458  -13.1914 C   0  0  0  0  0  0  0  0  0  0  0  0
   24.4765  -16.9334  -12.7278 N   0  0  0  0  0  0  0  0  0  0  0  0
   23.0455  -17.1905  -12.5578 C   0  0  0  0  0  0  0  0  0  0  0  0
   25.1427  -17.2024  -11.4506 C   0  0  0  0  0  0  0  0  0  0  0  0
   25.0469  -17.8545  -13.7132 C   0  0  0  0  0  0  0  0  0  0  0  0
   23.7844  -14.5214  -12.5442 C   0  0  0  0  0  0  0  0  0  0  0  0
   24.0197  -14.1019  -11.3719 O   0  0  0  0  0  0  0  0  0  0  0  0
   22.8015  -14.1463  -13.2102 O   0  0  0  0  0  0  0  0  0  0  0  0
   22.6653  -14.4823  -14.0742 H   0  0  0  0  0  0  0  0  0  0  0  0
  2  1  1  0  0  0
  2  3  1  0  0  0
  2  4  1  0  0  0
  2  5  1  0  0  0
  1  6  1  0  0  0
  6  7  2  0  0  0
  6  8  1  0  0  0
  8  9  1  0  0  0
M  CHG 1   2   1
M  END
> <minimizedAffinity>
-3.85366

$$$$
3MAM_BET_A_1


  9  8  0  0  0  0  0  0  0  0999 V2000
   19.6593  -20.0574   -9.3692 C   0  0  0  0  0  0  0  0  0  0  0  0
   19.6366  -20.7090  -10.6969 N   0  0  0  0  0  0  0  0  0  0  0  0
   20.9516  -20.6085  -11.3320 C   0  0  0  0  0  0  0  0  0  0  0  0
   18.6493  -20.1035  -11.5947 C   0  0  0  0  0  0  0  0  0  0  0  0
   19.2585  -22.1135  -10.5259 C   0  0  0  0  0  0  0  0  0  0  0  0
   19.7139  -18.5435   -9.4181 C   0  0  0  0  0  0  0  0  0  0  0  0
   20.8248  -17.9379   -9.3492 O   0  0  0  0  0  0  0  0  0  0  0  0
   18.6244  -17.9467   -9.5028 O   0  0  0  0  0  0  0  0  0  0  0  0
   17.8257  -18.4343   -9.5516 H   0  0  0  0  0  0  0  0  0  0  0  0
  2  1  1  0  0  0
  2  3  1  0  0  0
  2  4  1  0  0  0
  2  5  1  0  0  0
  1  6  1  0  0  0
  6  7  2  0  0  0
  6  8  1  0  0  0
  8  9  1  0  0  0
M  CHG 1   2   1
M  END
> <minimizedAffinity>
-3.64929

$$$$
3MAM_BET_A_1


  9  8  0  0  0  0  0  0  0  0999 V2000
   19.7610  -20.0139   -9.2989 C   0  0  0  0  0  0  0  0  0  0  0  0
   19.7788  -20.7071  -10.6055 N   0  0  0  0  0  0  0  0  0  0  0  0
   19.5732  -22.1443  -10.4183 C   0  0  0  0  0  0  0  0  0  0  0  0
   21.0460  -20.5168  -11.3166 C   0  0  0  0  0  0  0  0  0  0  0  0
   18.7225  -20.1462  -11.4507 C   0  0  0  0  0  0  0  0  0  0  0  0
   19.7996  -18.5018   -9.3944 C   0  0  0  0  0  0  0  0  0  0  0  0
   20.9012  -17.8806   -9.3151 O   0  0  0  0  0  0  0  0  0  0  0  0
   18.7060  -17.9214   -9.5270 O   0  0  0  0  0  0  0  0  0  0  0  0
   17.9146  -18.4200   -9.5816 H   0  0  0  0  0  0  0  0  0  0  0  0
  2  1  1  0  0  0
  2  3  1  0  0  0
  2  4  1  0  0  0
  2  5  1  0  0  0
  1  6  1  0  0  0
  6  7  2  0  0  0
  6  8  1  0  0  0
  8  9  1  0  0  0
M  CHG 1   2   1
M  END
> <minimizedAffinity>
-3.57533

$$$$
3MAM_BET_A_1


  9  8  0  0  0  0  0  0  0  0999 V2000
   20.2884  -19.0769  -11.0973 C   0  0  0  0  0  0  0  0  0  0  0  0
   20.2680  -20.5489  -10.9540 N   0  0  0  0  0  0  0  0  0  0  0  0
   18.9878  -21.0847  -11.4196 C   0  0  0  0  0  0  0  0  0  0  0  0
   20.4614  -20.9733   -9.5648 C   0  0  0  0  0  0  0  0  0  0  0  0
   21.3714  -21.1135  -11.7341 C   0  0  0  0  0  0  0  0  0  0  0  0
   20.0150  -18.3212   -9.8123 C   0  0  0  0  0  0  0  0  0  0  0  0
   20.9716  -17.8505   -9.1275 O   0  0  0  0  0  0  0  0  0  0  0  0
   18.8231  -18.2165   -9.4675 O   0  0  0  0  0  0  0  0  0  0  0  0
   18.1464  -18.5797  -10.0044 H   0  0  0  0  0  0  0  0  0  0  0  0
  2  1  1  0  0  0
  2  3  1  0  0  0
  2  4  1  0  0  0
  2  5  1  0  0  0
  1  6  1  0  0  0
  6  7  2  0  0  0
  6  8  1  0  0  0
  8  9  1  0  0  0
M  CHG 1   2   1
M  END
> <minimizedAffinity>
-3.53413

$$$$
3MAM_BET_A_1


  9  8  0  0  0  0  0  0  0  0999 V2000
   19.8442  -19.6815  -10.9810 C   0  0  0  0  0  0  0  0  0  0  0  0
   21.3231  -19.6774  -11.0057 N   0  0  0  0  0  0  0  0  0  0  0  0
   21.8191  -20.8140  -11.7834 C   0  0  0  0  0  0  0  0  0  0  0  0
   21.9001  -19.7588   -9.6611 C   0  0  0  0  0  0  0  0  0  0  0  0
   21.7809  -18.4172  -11.5949 C   0  0  0  0  0  0  0  0  0  0  0  0
   19.2408  -19.2132   -9.6718 C   0  0  0  0  0  0  0  0  0  0  0  0
   18.8957  -20.0517   -8.7868 O   0  0  0  0  0  0  0  0  0  0  0  0
   19.0863  -17.9853   -9.5345 O   0  0  0  0  0  0  0  0  0  0  0  0
   19.3560  -17.4002  -10.2148 H   0  0  0  0  0  0  0  0  0  0  0  0
  2  1  1  0  0  0
  2  3  1  0  0  0
  2  4  1  0  0  0
  2  5  1  0  0  0
  1  6  1  0  0  0
  6  7  2  0  0  0
  6  8  1  0  0  0
  8  9  1  0  0  0
M  CHG 1   2   1
M  END
> <minimizedAffinity>
-3.47708

$$$$
3MAM_BET_A_1


  9  8  0  0  0  0  0  0  0  0999 V2000
   20.1333  -21.0770   -9.7470 C   0  0  0  0  0  0  0  0  0  0  0  0
   19.7780  -19.8043  -10.4118 N   0  0  0  0  0  0  0  0  0  0  0  0
   20.9481  -19.2442  -11.0900 C   0  0  0  0  0  0  0  0  0  0  0  0
   19.2786  -18.8044   -9.4640 C   0  0  0  0  0  0  0  0  0  0  0  0
   18.7039  -20.0594  -11.3741 C   0  0  0  0  0  0  0  0  0  0  0  0
   20.8587  -20.9098   -8.4268 C   0  0  0  0  0  0  0  0  0  0  0  0
   22.0820  -20.5803   -8.4028 O   0  0  0  0  0  0  0  0  0  0  0  0
   20.2006  -21.1355   -7.3942 O   0  0  0  0  0  0  0  0  0  0  0  0
   19.2973  -21.3767   -7.4576 H   0  0  0  0  0  0  0  0  0  0  0  0
  2  1  1  0  0  0
  2  3  1  0  0  0
  2  4  1  0  0  0
  2  5  1  0  0  0
  1  6  1  0  0  0
  6  7  2  0  0  0
  6  8  1  0  0  0
  8  9  1  0  0  0
M  CHG 1   2   1
M  END
> <minimizedAffinity>
-3.33331

$$$$
3MAM_BET_A_1


  9  8  0  0  0  0  0  0  0  0999 V2000
   19.2269  -20.4705  -10.1407 C   0  0  0  0  0  0  0  0  0  0  0  0
   20.3462  -19.5294   -9.9184 N   0  0  0  0  0  0  0  0  0  0  0  0
   19.8403  -18.2524   -9.4123 C   0  0  0  0  0  0  0  0  0  0  0  0
   21.1011  -19.2659  -11.1465 C   0  0  0  0  0  0  0  0  0  0  0  0
   21.2790  -20.1250   -8.9593 C   0  0  0  0  0  0  0  0  0  0  0  0
   18.7840  -20.5827  -11.5859 C   0  0  0  0  0  0  0  0  0  0  0  0
   19.1218  -21.5835  -12.2858 O   0  0  0  0  0  0  0  0  0  0  0  0
   18.1057  -19.6414  -12.0379 O   0  0  0  0  0  0  0  0  0  0  0  0
   17.8780  -18.9201  -11.4848 H   0  0  0  0  0  0  0  0  0  0  0  0
  2  1  1  0  0  0
  2  3  1  0  0  0
  2  4  1  0  0  0
  2  5  1  0  0  0
  1  6  1  0  0  0
  6  7  2  0  0  0
  6  8  1  0  0  0
  8  9  1  0  0  0
M  CHG 1   2   1
M  END
> <minimizedAffinity>
-3.25887

$$$$
3MAM_BET_A_1


  9  8  0  0  0  0  0  0  0  0999 V2000
   20.6273  -20.3173  -10.7475 C   0  0  0  0  0  0  0  0  0  0  0  0
   20.8960  -19.3325   -9.6770 N   0  0  0  0  0  0  0  0  0  0  0  0
   21.2043  -20.0209   -8.4225 C   0  0  0  0  0  0  0  0  0  0  0  0
   19.7542  -18.4448   -9.4412 C   0  0  0  0  0  0  0  0  0  0  0  0
   22.0206  -18.4880  -10.0854 C   0  0  0  0  0  0  0  0  0  0  0  0
   19.1805  -20.7596  -10.8394 C   0  0  0  0  0  0  0  0  0  0  0  0
   18.3915  -20.2099  -11.6644 O   0  0  0  0  0  0  0  0  0  0  0  0
   18.8190  -21.6569  -10.0554 O   0  0  0  0  0  0  0  0  0  0  0  0
   19.4360  -22.0365   -9.4611 H   0  0  0  0  0  0  0  0  0  0  0  0
  2  1  1  0  0  0
  2  3  1  0  0  0
  2  4  1  0  0  0
  2  5  1  0  0  0
  1  6  1  0  0  0
  6  7  2  0  0  0
  6  8  1  0  0  0
  8  9  1  0  0  0
M  CHG 1   2   1
M  END
> <minimizedAffinity>
-3.21131

$$$$
3MAM_BET_A_1


  9  8  0  0  0  0  0  0  0  0999 V2000
   20.6765  -20.1802  -10.0258 C   0  0  0  0  0  0  0  0  0  0  0  0
   21.3369  -21.0731   -9.0488 N   0  0  0  0  0  0  0  0  0  0  0  0
   20.5990  -22.3321   -8.9351 C   0  0  0  0  0  0  0  0  0  0  0  0
   21.4194  -20.4711   -7.7153 C   0  0  0  0  0  0  0  0  0  0  0  0
   22.7095  -21.3244   -9.4932 C   0  0  0  0  0  0  0  0  0  0  0  0
   19.7714  -19.1356   -9.4038 C   0  0  0  0  0  0  0  0  0  0  0  0
   18.5985  -19.4399   -9.0333 O   0  0  0  0  0  0  0  0  0  0  0  0
   20.2322  -17.9830   -9.3055 O   0  0  0  0  0  0  0  0  0  0  0  0
   21.1056  -17.8016   -9.5921 H   0  0  0  0  0  0  0  0  0  0  0  0
  2  1  1  0  0  0
  2  3  1  0  0  0
  2  4  1  0  0  0
  2  5  1  0  0  0
  1  6  1  0  0  0
  6  7  2  0  0  0
  6  8  1  0  0  0
  8  9  1  0  0  0
M  CHG 1   2   1
M  END
> <minimizedAffinity>
-3.16469

$$$$
3MAM_BET_A_1


  9  8  0  0  0  0  0  0  0  0999 V2000
   21.8999  -19.0667  -10.0908 C   0  0  0  0  0  0  0  0  0  0  0  0
   20.5002  -19.4425   -9.7945 N   0  0  0  0  0  0  0  0  0  0  0  0
   20.4587  -20.4202   -8.7059 C   0  0  0  0  0  0  0  0  0  0  0  0
   19.8251  -20.0259  -10.9570 C   0  0  0  0  0  0  0  0  0  0  0  0
   19.7566  -18.2360   -9.4255 C   0  0  0  0  0  0  0  0  0  0  0  0
   22.1720  -18.7781  -11.5536 C   0  0  0  0  0  0  0  0  0  0  0  0
   22.6050  -19.6905  -12.3190 O   0  0  0  0  0  0  0  0  0  0  0  0
   21.9725  -17.6115  -11.9403 O   0  0  0  0  0  0  0  0  0  0  0  0
   21.6514  -16.9675  -11.3402 H   0  0  0  0  0  0  0  0  0  0  0  0
  2  1  1  0  0  0
  2  3  1  0  0  0
  2  4  1  0  0  0
  2  5  1  0  0  0
  1  6  1  0  0  0
  6  7  2  0  0  0
  6  8  1  0  0  0
  8  9  1  0  0  0
M  CHG 1   2   1
M  END
> <minimizedAffinity>
-3.16301

$$$$
