3MAM_BET_A_1
  RCSB PDB12061709433D
Coordinates from PDB:3MAM:A:1 Model:1 without hydrogens
  8  7  0  0  0  0            999 V2000
   19.9190  -18.9960   -9.6490   N 0  3  0  0  0  0  0  0  0  0  0  0
   20.0630  -19.4290  -11.0560   C 0  0  0  0  0  0  0  0  0  0  0  0
   18.8400  -20.1210  -11.6240   C 0  0  0  0  0  0  0  0  0  0  0  0
   18.7750  -21.3860  -11.6580   O 0  0  0  0  0  0  0  0  0  0  0  0
   17.9370  -19.3870  -12.0670   O 0  0  0  0  0  0  0  0  0  0  0  0
   19.7640  -20.1600   -8.7750   C 0  0  0  0  0  0  0  0  0  0  0  0
   18.7590  -18.1220   -9.4540   C 0  0  0  0  0  0  0  0  0  0  0  0
   21.1060  -18.2270   -9.2690   C 0  0  0  0  0  0  0  0  0  0  0  0
  1  2  1  0  0  0  0
  1  6  1  0  0  0  0
  1  7  1  0  0  0  0
  1  8  1  0  0  0  0
  2  3  1  0  0  0  0
  3  4  2  0  0  0  0
  3  5  1  0  0  0  0
M  CHG  1   1   1
A    1
N
A    2
CA
A    3
C
A    4
O1
A    5
O2
A    6
C1
A    7
C2
A    8
C3
M  END
>  <InstanceId>
3MAM_BET_A_1

>  <ChemCompId>
BET

>  <PdbId>
3MAM

>  <ChainId>
A

>  <ResidueNumber>
1

>  <InsertionCode>


>  <Model>
1

>  <AltIds>


>  <MissingHeavyAtoms>
0

>  <ObservedFormula>
C5 N O2

>  <Name>
TRIMETHYL GLYCINE

>  <SystematicName>
carboxymethyl-trimethyl-azanium

>  <Synonyms>


>  <Type>
NON-POLYMER

>  <Formula>
C5 H12 N O2

>  <MolecularWeight>
118.154

>  <ModifiedDate>
2011-06-04

>  <Parent>


>  <OneLetterCode>


>  <SubcomponentList>


>  <AmbiguousFlag>
N

>  <InChI>
InChI=1S/C5H11NO2/c1-6(2,3)4-5(7)8/h4H2,1-3H3/p+1

>  <InChIKey>
KWIUHFFTVRNATP-UHFFFAOYSA-O

>  <SMILES>
C[N+](C)(C)CC(=O)O

$$$$
