1EBZ_BEC_B_501
  RCSB PDB12061702223D
Coordinates from PDB:1EBZ:B:501 Model:1 without hydrogens
 46 49  0  0  0  0            999 V2000
    9.7610   24.2260    2.2630   C 0  0  0  0  0  0  0  0  0  0  0  0
    9.1790   25.4450    1.8530   C 0  0  0  0  0  0  0  0  0  0  0  0
    7.7780   25.6490    1.9890   C 0  0  0  0  0  0  0  0  0  0  0  0
    6.9560   24.6220    2.5410   C 0  0  0  0  0  0  0  0  0  0  0  0
    7.5370   23.3920    2.9570   C 0  0  0  0  0  0  0  0  0  0  0  0
    8.9420   23.1930    2.8180   C 0  0  0  0  0  0  0  0  0  0  0  0
   16.4360   22.2180    8.7480   C 0  0  0  0  0  0  0  0  0  0  0  0
   15.7560   21.1840    9.4800   C 0  0  0  0  0  0  0  0  0  0  0  0
   16.4880   20.0480    9.9520   C 0  0  0  0  0  0  0  0  0  0  0  0
   17.8850   19.9480    9.6910   C 0  0  0  0  0  0  0  0  0  0  0  0
   18.5560   20.9680    8.9670   C 0  0  0  0  0  0  0  0  0  0  0  0
   17.8340   22.1060    8.4910   C 0  0  0  0  0  0  0  0  0  0  0  0
   15.6530   23.4230    8.2230   C 0  0  0  0  0  0  0  0  0  0  0  0
   14.6060   23.0810    7.2720   O 0  0  0  0  0  0  0  0  0  0  0  0
   15.0820   22.6700    5.9440   C 0  0  0  0  0  0  0  0  0  0  0  0
   13.9900   23.0200    4.9360   C 0  0  0  0  0  0  0  0  0  0  0  0
   13.5660   24.4580    4.9970   C 0  0  0  0  0  0  0  0  0  0  0  0
   12.1520   24.6650    4.3340   C 0  0  0  0  0  0  0  0  0  0  0  0
   11.0080   24.7130    5.3480   C 0  0  0  0  0  0  0  0  0  0  0  0
   10.7460   23.6860    5.9880   O 0  0  0  0  0  0  0  0  0  0  0  0
   10.3370   25.8620    5.4890   N 0  0  0  0  0  0  0  0  0  0  0  0
   11.8960   23.5860    3.3560   O 0  0  0  0  0  0  0  0  0  0  0  0
   11.2600   24.0120    2.1290   C 0  0  0  0  0  0  0  0  0  0  0  0
   14.6290   25.1940    4.3310   O 0  0  0  0  0  0  0  0  0  0  0  0
   14.4880   22.7520    3.5710   O 0  0  0  0  0  0  0  0  0  0  0  0
   15.2540   21.1910    5.8510   C 0  0  0  0  0  0  0  0  0  0  0  0
   14.2730   20.5030    6.1260   O 0  0  0  0  0  0  0  0  0  0  0  0
   16.4220   20.6990    5.5050   N 0  0  0  0  0  0  0  0  0  0  0  0
   16.7770   19.2960    5.3840   C 0  0  0  0  0  0  0  0  0  0  0  0
   16.7260   18.8500    3.9360   C 0  0  0  0  0  0  0  0  0  0  0  0
   17.6880   17.8480    3.6580   C 0  0  0  0  0  0  0  0  0  0  0  0
   15.8680   19.3060    2.8900   C 0  0  0  0  0  0  0  0  0  0  0  0
   15.9940   18.7440    1.5810   C 0  0  0  0  0  0  0  0  0  0  0  0
   16.9780   17.7310    1.3270   C 0  0  0  0  0  0  0  0  0  0  0  0
   18.1720   18.8000    5.7720   C 0  0  0  0  0  0  0  0  0  0  0  0
   19.0750   19.8480    5.4190   O 0  0  0  0  0  0  0  0  0  0  0  0
   17.8370   17.2720    2.3640   C 0  0  0  0  0  0  0  0  0  0  0  0
   18.4690   17.5380    4.9150   C 0  0  0  0  0  0  0  0  0  0  0  0
    9.2230   26.0330    6.4170   C 0  0  0  0  0  0  0  0  0  0  0  0
    9.3910   26.4240    7.9540   C 0  0  0  0  0  0  0  0  0  0  0  0
    8.6010   27.6850    8.4190   C 0  0  0  0  0  0  0  0  0  0  0  0
   10.8780   26.5090    8.4220   C 0  0  0  0  0  0  0  0  0  0  0  0
    8.2840   26.9760    5.6730   C 0  0  0  0  0  0  0  0  0  0  0  0
    8.7460   28.0030    5.1260   O 0  0  0  0  0  0  0  0  0  0  0  0
    6.9590   26.6040    5.6740   N 0  0  0  0  0  0  0  0  0  0  0  0
    6.0160   27.4650    4.9860   C 0  0  0  0  0  0  0  0  0  0  0  0
  1  2  2  0  0  0  0
  1  6  1  0  0  0  0
  1 23  1  0  0  0  0
  2  3  1  0  0  0  0
  3  4  2  0  0  0  0
  4  5  1  0  0  0  0
  5  6  2  0  0  0  0
  7  8  2  0  0  0  0
  7 12  1  0  0  0  0
  7 13  1  0  0  0  0
  8  9  1  0  0  0  0
  9 10  2  0  0  0  0
 10 11  1  0  0  0  0
 11 12  2  0  0  0  0
 13 14  1  0  0  0  0
 14 15  1  0  0  0  0
 15 16  1  0  0  0  0
 15 26  1  0  0  0  0
 16 17  1  0  0  0  0
 16 25  1  0  0  0  0
 17 18  1  0  0  0  0
 17 24  1  0  0  0  0
 18 19  1  0  0  0  0
 18 22  1  0  0  0  0
 19 20  2  0  0  0  0
 19 21  1  0  0  0  0
 21 39  1  0  0  0  0
 22 23  1  0  0  0  0
 26 27  2  0  0  0  0
 26 28  1  0  0  0  0
 28 29  1  0  0  0  0
 29 30  1  0  0  0  0
 29 35  1  0  0  0  0
 30 31  2  0  0  0  0
 30 32  1  0  0  0  0
 31 37  1  0  0  0  0
 31 38  1  0  0  0  0
 32 33  2  0  0  0  0
 33 34  1  0  0  0  0
 34 37  2  0  0  0  0
 35 36  1  0  0  0  0
 35 38  1  0  0  0  0
 39 40  1  0  0  0  0
 39 43  1  0  0  0  0
 40 41  1  0  0  0  0
 40 42  1  0  0  0  0
 43 44  2  0  0  0  0
 43 45  1  0  0  0  0
 45 46  1  0  0  0  0
A    1
C23
A    2
C24
A    3
C25
A    4
C26
A    5
C27
A    6
C28
A    7
C33
A    8
C34
A    9
C35
A   10
C36
A   11
C37
A   12
C38
A   13
C32
A   14
O31
A   15
C9
A   16
C7
A   17
C5
A   18
C4
A   19
C2
A   20
O3
A   21
N1
A   22
O21
A   23
C22
A   24
O6
A   25
O8
A   26
C10
A   27
O11
A   28
N12
A   29
C51
A   30
C52
A   31
C57
A   32
C53
A   33
C54
A   34
C55
A   35
C59
A   36
O60
A   37
C56
A   38
C58
A   39
C41
A   40
C42
A   41
C43
A   42
C44
A   43
C45
A   44
O46
A   45
N47
A   46
C48
M  END
>  <InstanceId>
1EBZ_BEC_B_501

>  <ChemCompId>
BEC

>  <PdbId>
1EBZ

>  <ChainId>
B

>  <ResidueNumber>
501

>  <InsertionCode>


>  <Model>
1

>  <AltIds>


>  <MissingHeavyAtoms>
0

>  <ObservedFormula>
C35 N3 O8

>  <Name>
[5-(2-HYDROXY-INDAN-1-YLCARBAMOYL)-3,4-DIHYDROXY-2,5-[DIBENZYL-OXY]-PENTANOYL]-VALINYL-AMIDO-METHANE

>  <SystematicName>
(2R,3R,4R,5R)-3,4-dihydroxy-N-[(1S,2R)-2-hydroxy-2,3-dihydro-1H-inden-1-yl]-N'-[(2S)-3-methyl-1-methylamino-1-oxo-butan-2-yl]-2,5-bis(phenylmethoxy)hexanediamide

>  <Synonyms>
INHIBITOR BEA388

>  <Type>
NON-POLYMER

>  <Formula>
C35 H43 N3 O8

>  <MolecularWeight>
633.731

>  <ModifiedDate>
2011-06-04

>  <Parent>


>  <OneLetterCode>


>  <SubcomponentList>


>  <AmbiguousFlag>
N

>  <InChI>
InChI=1S/C35H43N3O8/c1-21(2)27(33(42)36-3)37-34(43)31(45-19-22-12-6-4-7-13-22)29(40)30(41)32(46-20-23-14-8-5-9-15-23)35(44)38-28-25-17-11-10-16-24(25)18-26(28)39/h4-17,21,26-32,39-41H,18-20H2,1-3H3,(H,36,42)(H,37,43)(H,38,44)/t26-,27+,28+,29-,30-,31-,32-/m1/s1

>  <InChIKey>
VZNNJZGVQVNHCM-CDNLURBZSA-N

>  <SMILES>
CC(C)[C@@H](C(=O)NC)NC(=O)[C@@H]([C@@H]([C@H]([C@H](C(=O)N[C@H]1c2ccccc2C[C@H]1O)OCc3ccccc3)O)O)OCc4ccccc4

$$$$
