1EBZ_BEC_B_501


 52 55  0  0  0  0  0  0  0  0999 V2000
   13.8019   23.9150    5.2043 C   0  0  0  0  0  0  0  0  0  0  0  0
   15.0514   24.4649    4.6391 O   0  0  0  0  0  0  0  0  0  0  0  0
   15.0319   24.3846    3.6726 H   0  0  0  0  0  0  0  0  0  0  0  0
   13.7281   22.4634    4.8318 C   0  0  0  0  0  0  0  0  0  0  0  0
   14.1363   22.4100    3.4369 O   0  0  0  0  0  0  0  0  0  0  0  0
   15.0278   22.7816    3.3464 H   0  0  0  0  0  0  0  0  0  0  0  0
   14.6274   21.5840    5.7803 C   0  0  0  0  0  0  0  0  0  0  0  0
   14.9915   20.2245    5.1818 C   0  0  0  0  0  0  0  0  0  0  0  0
   14.2552   19.2590    5.4242 O   0  0  0  0  0  0  0  0  0  0  0  0
   16.0958   20.1405    4.4309 N   0  0  0  0  0  0  0  0  0  0  0  0
   16.6275   20.9569    4.2895 H   0  0  0  0  0  0  0  0  0  0  0  0
   16.5529   18.9005    3.8104 C   0  0  0  0  0  0  0  0  0  0  0  0
   17.7888   18.5323    4.6238 C   0  0  0  0  0  0  0  0  0  0  0  0
   18.7869   19.2878    4.6069 O   0  0  0  0  0  0  0  0  0  0  0  0
   17.6969   17.3527    5.3268 N   0  0  0  0  0  0  0  0  0  0  0  0
   18.8441   16.9466    6.1160 C   0  0  0  0  0  0  0  0  0  0  0  0
   16.8805   16.8034    5.2952 H   0  0  0  0  0  0  0  0  0  0  0  0
   16.7748   18.7137    2.2422 C   0  0  0  0  0  0  0  0  0  0  0  0
   15.5765   19.1329    1.3373 C   0  0  0  0  0  0  0  0  0  0  0  0
   17.2875   17.2937    1.8447 C   0  0  0  0  0  0  0  0  0  0  0  0
   13.9408   21.3826    7.0743 O   0  0  0  0  0  0  0  0  0  0  0  0
   14.5432   22.0649    8.1981 C   0  0  0  0  0  0  0  0  0  0  0  0
   15.8490   21.4393    8.6611 C   0  0  0  0  0  0  0  0  0  0  0  0
   17.0803   22.0556    8.3499 C   0  0  0  0  0  0  0  0  0  0  0  0
   18.3024   21.4640    8.7736 C   0  0  0  0  0  0  0  0  0  0  0  0
   18.2877   20.2449    9.5144 C   0  0  0  0  0  0  0  0  0  0  0  0
   17.0500   19.6187    9.8299 C   0  0  0  0  0  0  0  0  0  0  0  0
   15.8281   20.2165    9.4028 C   0  0  0  0  0  0  0  0  0  0  0  0
   12.6189   24.7308    4.6888 C   0  0  0  0  0  0  0  0  0  0  0  0
   12.0607   25.4268    5.8845 C   0  0  0  0  0  0  0  0  0  0  0  0
   12.8306   25.6114    6.8249 O   0  0  0  0  0  0  0  0  0  0  0  0
   10.7975   25.7879    5.8881 N   0  0  0  0  0  0  0  0  0  0  0  0
   10.2805   25.5873    5.0746 H   0  0  0  0  0  0  0  0  0  0  0  0
   10.0823   26.4512    6.9641 C   0  0  0  0  0  0  0  0  0  0  0  0
    8.6979   26.8721    6.5120 C   0  0  0  0  0  0  0  0  0  0  0  0
    7.7595   26.8256    7.5721 C   0  0  0  0  0  0  0  0  0  0  0  0
    8.2675   27.2811    5.2137 C   0  0  0  0  0  0  0  0  0  0  0  0
    6.8980   27.6368    5.0058 C   0  0  0  0  0  0  0  0  0  0  0  0
    5.9684   27.5796    6.0973 C   0  0  0  0  0  0  0  0  0  0  0  0
    9.7319   25.7057    8.2541 C   0  0  0  0  0  0  0  0  0  0  0  0
    9.4507   24.3604    7.8677 O   0  0  0  0  0  0  0  0  0  0  0  0
    6.3897   27.1723    7.3937 C   0  0  0  0  0  0  0  0  0  0  0  0
    8.4505   26.3653    8.8357 C   0  0  0  0  0  0  0  0  0  0  0  0
    8.7404   24.3554    7.2071 H   0  0  0  0  0  0  0  0  0  0  0  0
   11.6531   23.7892    4.1059 O   0  0  0  0  0  0  0  0  0  0  0  0
   11.2019   24.1220    2.7630 C   0  0  0  0  0  0  0  0  0  0  0  0
    9.7016   24.4040    2.6615 C   0  0  0  0  0  0  0  0  0  0  0  0
    9.2318   25.5171    1.8820 C   0  0  0  0  0  0  0  0  0  0  0  0
    7.8263   25.7658    1.7726 C   0  0  0  0  0  0  0  0  0  0  0  0
    6.9021   24.9070    2.4346 C   0  0  0  0  0  0  0  0  0  0  0  0
    7.3658   23.8072    3.2028 C   0  0  0  0  0  0  0  0  0  0  0  0
    8.7671   23.5502    3.3178 C   0  0  0  0  0  0  0  0  0  0  0  0
 23 24  2  0  0  0
 23 28  1  0  0  0
 23 22  1  0  0  0
 24 25  1  0  0  0
 25 26  2  0  0  0
 26 27  1  0  0  0
 27 28  2  0  0  0
 47 48  2  0  0  0
 47 52  1  0  0  0
 47 46  1  0  0  0
 48 49  1  0  0  0
 49 50  2  0  0  0
 50 51  1  0  0  0
 51 52  2  0  0  0
 46 45  1  0  0  0
 45 29  1  0  0  0
 29  1  1  0  0  0
 29 30  1  0  0  0
  1  4  1  0  0  0
  1  2  1  0  0  0
  4  7  1  0  0  0
  4  5  1  0  0  0
  7  8  1  0  0  0
  7 21  1  0  0  0
  8  9  2  0  0  0
  8 10  1  0  0  0
 10 12  1  0  0  0
 21 22  1  0  0  0
 30 31  2  0  0  0
 30 32  1  0  0  0
 32 34  1  0  0  0
 34 35  1  0  0  0
 34 40  1  0  0  0
 35 36  2  0  0  0
 35 37  1  0  0  0
 36 42  1  0  0  0
 36 43  1  0  0  0
 37 38  2  0  0  0
 38 39  1  0  0  0
 39 42  2  0  0  0
 40 41  1  0  0  0
 40 43  1  0  0  0
 12 18  1  0  0  0
 12 13  1  0  0  0
 18 19  1  0  0  0
 18 20  1  0  0  0
 13 14  2  0  0  0
 13 15  1  0  0  0
 15 16  1  0  0  0
 10 11  1  0  0  0
  5  6  1  0  0  0
  2  3  1  0  0  0
 32 33  1  0  0  0
 41 44  1  0  0  0
 15 17  1  0  0  0
M  END
> <minimizedAffinity>
-11.60225

$$$$
1EBZ_BEC_B_501


 52 55  0  0  0  0  0  0  0  0999 V2000
   13.7332   23.0588    5.0277 C   0  0  0  0  0  0  0  0  0  0  0  0
   14.0143   22.7818    3.6039 O   0  0  0  0  0  0  0  0  0  0  0  0
   14.7127   23.3774    3.2903 H   0  0  0  0  0  0  0  0  0  0  0  0
   13.2559   24.4773    5.1349 C   0  0  0  0  0  0  0  0  0  0  0  0
   14.2159   25.2578    4.3704 O   0  0  0  0  0  0  0  0  0  0  0  0
   14.2422   24.9329    3.4568 H   0  0  0  0  0  0  0  0  0  0  0  0
   11.7761   24.6227    4.6146 C   0  0  0  0  0  0  0  0  0  0  0  0
   10.7770   24.9732    5.7183 C   0  0  0  0  0  0  0  0  0  0  0  0
   10.5715   24.1408    6.6115 O   0  0  0  0  0  0  0  0  0  0  0  0
   10.1639   26.1612    5.6612 N   0  0  0  0  0  0  0  0  0  0  0  0
   10.3831   26.7642    4.9145 H   0  0  0  0  0  0  0  0  0  0  0  0
    9.1868   26.6092    6.6491 C   0  0  0  0  0  0  0  0  0  0  0  0
    8.0741   27.2116    5.7985 C   0  0  0  0  0  0  0  0  0  0  0  0
    8.3423   28.1303    4.9913 O   0  0  0  0  0  0  0  0  0  0  0  0
    6.8234   26.6760    6.0058 N   0  0  0  0  0  0  0  0  0  0  0  0
    5.7225   27.2124    5.2286 C   0  0  0  0  0  0  0  0  0  0  0  0
    6.6809   25.9535    6.6592 H   0  0  0  0  0  0  0  0  0  0  0  0
    9.5439   27.5097    7.9160 C   0  0  0  0  0  0  0  0  0  0  0  0
   10.4994   26.8558    8.9600 C   0  0  0  0  0  0  0  0  0  0  0  0
    8.2943   28.1184    8.6268 C   0  0  0  0  0  0  0  0  0  0  0  0
   11.3547   23.3707    3.9506 O   0  0  0  0  0  0  0  0  0  0  0  0
   10.8786   23.5290    2.5942 C   0  0  0  0  0  0  0  0  0  0  0  0
    9.4647   24.0803    2.5059 C   0  0  0  0  0  0  0  0  0  0  0  0
    9.2364   25.3643    1.9656 C   0  0  0  0  0  0  0  0  0  0  0  0
    7.9145   25.8843    1.8936 C   0  0  0  0  0  0  0  0  0  0  0  0
    6.8145   25.1096    2.3679 C   0  0  0  0  0  0  0  0  0  0  0  0
    7.0385   23.8156    2.9145 C   0  0  0  0  0  0  0  0  0  0  0  0
    8.3658   23.2994    2.9839 C   0  0  0  0  0  0  0  0  0  0  0  0
   14.9905   22.7819    5.8483 C   0  0  0  0  0  0  0  0  0  0  0  0
   15.2181   21.3108    5.7486 C   0  0  0  0  0  0  0  0  0  0  0  0
   14.2290   20.5902    5.8655 O   0  0  0  0  0  0  0  0  0  0  0  0
   16.4377   20.8591    5.5624 N   0  0  0  0  0  0  0  0  0  0  0  0
   17.1493   21.5346    5.4819 H   0  0  0  0  0  0  0  0  0  0  0  0
   16.8481   19.4696    5.4628 C   0  0  0  0  0  0  0  0  0  0  0  0
   16.7513   18.9802    4.0313 C   0  0  0  0  0  0  0  0  0  0  0  0
   17.7428   18.0125    3.7359 C   0  0  0  0  0  0  0  0  0  0  0  0
   15.8277   19.3689    3.0143 C   0  0  0  0  0  0  0  0  0  0  0  0
   15.9189   18.7753    1.7165 C   0  0  0  0  0  0  0  0  0  0  0  0
   16.9339   17.7982    1.4444 C   0  0  0  0  0  0  0  0  0  0  0  0
   18.2796   19.0449    5.7988 C   0  0  0  0  0  0  0  0  0  0  0  0
   19.1189   20.1198    5.3763 O   0  0  0  0  0  0  0  0  0  0  0  0
   17.8583   17.4063    2.4523 C   0  0  0  0  0  0  0  0  0  0  0  0
   18.5927   17.7725    4.9632 C   0  0  0  0  0  0  0  0  0  0  0  0
   18.9728   20.2925    4.4330 H   0  0  0  0  0  0  0  0  0  0  0  0
   14.7170   23.1987    7.2306 O   0  0  0  0  0  0  0  0  0  0  0  0
   15.8976   23.4492    8.0435 C   0  0  0  0  0  0  0  0  0  0  0  0
   16.5235   22.1867    8.6393 C   0  0  0  0  0  0  0  0  0  0  0  0
   15.6893   21.2046    9.2772 C   0  0  0  0  0  0  0  0  0  0  0  0
   16.2759   20.0149    9.8154 C   0  0  0  0  0  0  0  0  0  0  0  0
   17.6821   19.8104    9.7130 C   0  0  0  0  0  0  0  0  0  0  0  0
   18.5054   20.7792    9.0818 C   0  0  0  0  0  0  0  0  0  0  0  0
   17.9294   21.9701    8.5408 C   0  0  0  0  0  0  0  0  0  0  0  0
 23 24  2  0  0  0
 23 28  1  0  0  0
 23 22  1  0  0  0
 24 25  1  0  0  0
 25 26  2  0  0  0
 26 27  1  0  0  0
 27 28  2  0  0  0
 47 48  2  0  0  0
 47 52  1  0  0  0
 47 46  1  0  0  0
 48 49  1  0  0  0
 49 50  2  0  0  0
 50 51  1  0  0  0
 51 52  2  0  0  0
 46 45  1  0  0  0
 45 29  1  0  0  0
 29  1  1  0  0  0
 29 30  1  0  0  0
  1  4  1  0  0  0
  1  2  1  0  0  0
  4  7  1  0  0  0
  4  5  1  0  0  0
  7  8  1  0  0  0
  7 21  1  0  0  0
  8  9  2  0  0  0
  8 10  1  0  0  0
 10 12  1  0  0  0
 21 22  1  0  0  0
 30 31  2  0  0  0
 30 32  1  0  0  0
 32 34  1  0  0  0
 34 35  1  0  0  0
 34 40  1  0  0  0
 35 36  2  0  0  0
 35 37  1  0  0  0
 36 42  1  0  0  0
 36 43  1  0  0  0
 37 38  2  0  0  0
 38 39  1  0  0  0
 39 42  2  0  0  0
 40 41  1  0  0  0
 40 43  1  0  0  0
 12 18  1  0  0  0
 12 13  1  0  0  0
 18 19  1  0  0  0
 18 20  1  0  0  0
 13 14  2  0  0  0
 13 15  1  0  0  0
 15 16  1  0  0  0
 10 11  1  0  0  0
  5  6  1  0  0  0
  2  3  1  0  0  0
 32 33  1  0  0  0
 41 44  1  0  0  0
 15 17  1  0  0  0
M  END
> <minimizedAffinity>
-11.60096

$$$$
1EBZ_BEC_B_501


 52 55  0  0  0  0  0  0  0  0999 V2000
   13.8092   23.2296    5.2135 C   0  0  0  0  0  0  0  0  0  0  0  0
   13.9680   23.0564    3.7549 O   0  0  0  0  0  0  0  0  0  0  0  0
   14.6272   23.6865    3.4243 H   0  0  0  0  0  0  0  0  0  0  0  0
   13.3222   24.6272    5.4605 C   0  0  0  0  0  0  0  0  0  0  0  0
   13.7045   25.3759    4.2737 O   0  0  0  0  0  0  0  0  0  0  0  0
   13.3051   24.9663    3.4904 H   0  0  0  0  0  0  0  0  0  0  0  0
   11.7723   24.6505    5.7420 C   0  0  0  0  0  0  0  0  0  0  0  0
   10.9252   24.6764    4.4689 C   0  0  0  0  0  0  0  0  0  0  0  0
   11.4714   24.3976    3.3933 O   0  0  0  0  0  0  0  0  0  0  0  0
    9.6336   25.0089    4.5765 N   0  0  0  0  0  0  0  0  0  0  0  0
    9.2786   25.2191    5.4704 H   0  0  0  0  0  0  0  0  0  0  0  0
    8.7237   25.0760    3.4368 C   0  0  0  0  0  0  0  0  0  0  0  0
    7.8664   26.2998    3.7398 C   0  0  0  0  0  0  0  0  0  0  0  0
    8.0041   27.3362    3.0510 O   0  0  0  0  0  0  0  0  0  0  0  0
    6.9873   26.1537    4.7885 N   0  0  0  0  0  0  0  0  0  0  0  0
    6.1477   27.2868    5.1279 C   0  0  0  0  0  0  0  0  0  0  0  0
    6.9303   25.3091    5.2912 H   0  0  0  0  0  0  0  0  0  0  0  0
    7.8633   23.8429    2.9051 C   0  0  0  0  0  0  0  0  0  0  0  0
    8.6776   22.5739    2.5086 C   0  0  0  0  0  0  0  0  0  0  0  0
    6.8567   24.2204    1.7730 C   0  0  0  0  0  0  0  0  0  0  0  0
   11.4343   25.8206    6.5803 O   0  0  0  0  0  0  0  0  0  0  0  0
   11.0918   25.5115    7.9509 C   0  0  0  0  0  0  0  0  0  0  0  0
   10.0251   26.4251    8.5325 C   0  0  0  0  0  0  0  0  0  0  0  0
    8.7162   26.4138    8.0037 C   0  0  0  0  0  0  0  0  0  0  0  0
    7.7214   27.2769    8.5407 C   0  0  0  0  0  0  0  0  0  0  0  0
    8.0434   28.1577    9.6157 C   0  0  0  0  0  0  0  0  0  0  0  0
    9.3609   28.1744   10.1519 C   0  0  0  0  0  0  0  0  0  0  0  0
   10.3540   27.3067    9.6097 C   0  0  0  0  0  0  0  0  0  0  0  0
   15.1378   22.9237    5.9007 C   0  0  0  0  0  0  0  0  0  0  0  0
   15.3031   21.4436    5.8124 C   0  0  0  0  0  0  0  0  0  0  0  0
   14.2923   20.7645    5.9810 O   0  0  0  0  0  0  0  0  0  0  0  0
   16.4949   20.9414    5.5816 N   0  0  0  0  0  0  0  0  0  0  0  0
   17.2284   21.5870    5.4616 H   0  0  0  0  0  0  0  0  0  0  0  0
   16.8459   19.5355    5.4845 C   0  0  0  0  0  0  0  0  0  0  0  0
   16.7261   19.0475    4.0542 C   0  0  0  0  0  0  0  0  0  0  0  0
   17.6752   18.0380    3.7596 C   0  0  0  0  0  0  0  0  0  0  0  0
   15.8182   19.4727    3.0378 C   0  0  0  0  0  0  0  0  0  0  0  0
   15.8821   18.8728    1.7412 C   0  0  0  0  0  0  0  0  0  0  0  0
   16.8544   17.8530    1.4698 C   0  0  0  0  0  0  0  0  0  0  0  0
   18.2587   19.0513    5.8194 C   0  0  0  0  0  0  0  0  0  0  0  0
   19.1421   20.0887    5.3931 O   0  0  0  0  0  0  0  0  0  0  0  0
   17.7629   17.4246    2.4773 C   0  0  0  0  0  0  0  0  0  0  0  0
   18.5162   17.7649    4.9862 C   0  0  0  0  0  0  0  0  0  0  0  0
   19.0019   20.2653    4.4496 H   0  0  0  0  0  0  0  0  0  0  0  0
   15.0298   23.3780    7.2939 O   0  0  0  0  0  0  0  0  0  0  0  0
   16.2936   23.4809    8.0079 C   0  0  0  0  0  0  0  0  0  0  0  0
   16.7434   22.1771    8.6702 C   0  0  0  0  0  0  0  0  0  0  0  0
   15.7778   21.3308    9.3174 C   0  0  0  0  0  0  0  0  0  0  0  0
   16.1990   20.1016    9.9181 C   0  0  0  0  0  0  0  0  0  0  0  0
   17.5717   19.7235    9.8683 C   0  0  0  0  0  0  0  0  0  0  0  0
   18.5247   20.5582    9.2280 C   0  0  0  0  0  0  0  0  0  0  0  0
   18.1141   21.7873    8.6247 C   0  0  0  0  0  0  0  0  0  0  0  0
 23 24  2  0  0  0
 23 28  1  0  0  0
 23 22  1  0  0  0
 24 25  1  0  0  0
 25 26  2  0  0  0
 26 27  1  0  0  0
 27 28  2  0  0  0
 47 48  2  0  0  0
 47 52  1  0  0  0
 47 46  1  0  0  0
 48 49  1  0  0  0
 49 50  2  0  0  0
 50 51  1  0  0  0
 51 52  2  0  0  0
 46 45  1  0  0  0
 45 29  1  0  0  0
 29  1  1  0  0  0
 29 30  1  0  0  0
  1  4  1  0  0  0
  1  2  1  0  0  0
  4  7  1  0  0  0
  4  5  1  0  0  0
  7  8  1  0  0  0
  7 21  1  0  0  0
  8  9  2  0  0  0
  8 10  1  0  0  0
 10 12  1  0  0  0
 21 22  1  0  0  0
 30 31  2  0  0  0
 30 32  1  0  0  0
 32 34  1  0  0  0
 34 35  1  0  0  0
 34 40  1  0  0  0
 35 36  2  0  0  0
 35 37  1  0  0  0
 36 42  1  0  0  0
 36 43  1  0  0  0
 37 38  2  0  0  0
 38 39  1  0  0  0
 39 42  2  0  0  0
 40 41  1  0  0  0
 40 43  1  0  0  0
 12 18  1  0  0  0
 12 13  1  0  0  0
 18 19  1  0  0  0
 18 20  1  0  0  0
 13 14  2  0  0  0
 13 15  1  0  0  0
 15 16  1  0  0  0
 10 11  1  0  0  0
  5  6  1  0  0  0
  2  3  1  0  0  0
 32 33  1  0  0  0
 41 44  1  0  0  0
 15 17  1  0  0  0
M  END
> <minimizedAffinity>
-11.53375

$$$$
1EBZ_BEC_B_501


 52 55  0  0  0  0  0  0  0  0999 V2000
   13.1509   23.7701    5.5826 C   0  0  0  0  0  0  0  0  0  0  0  0
   13.5155   24.7502    6.6264 O   0  0  0  0  0  0  0  0  0  0  0  0
   13.9690   25.5040    6.2178 H   0  0  0  0  0  0  0  0  0  0  0  0
   14.4183   23.2920    4.9373 C   0  0  0  0  0  0  0  0  0  0  0  0
   15.1857   24.4987    4.6720 O   0  0  0  0  0  0  0  0  0  0  0  0
   15.3377   24.9746    5.5034 H   0  0  0  0  0  0  0  0  0  0  0  0
   15.1738   22.2605    5.8576 C   0  0  0  0  0  0  0  0  0  0  0  0
   15.2890   20.8666    5.2387 C   0  0  0  0  0  0  0  0  0  0  0  0
   14.2611   20.1853    5.1285 O   0  0  0  0  0  0  0  0  0  0  0  0
   16.4990   20.4449    4.8536 N   0  0  0  0  0  0  0  0  0  0  0  0
   17.2660   21.0492    4.9793 H   0  0  0  0  0  0  0  0  0  0  0  0
   16.7406   19.1347    4.2565 C   0  0  0  0  0  0  0  0  0  0  0  0
   17.9713   18.6281    5.0002 C   0  0  0  0  0  0  0  0  0  0  0  0
   19.0278   19.2995    4.9753 O   0  0  0  0  0  0  0  0  0  0  0  0
   17.8080   17.4278    5.6532 N   0  0  0  0  0  0  0  0  0  0  0  0
   18.9464   16.8919    6.3749 C   0  0  0  0  0  0  0  0  0  0  0  0
   16.9479   16.9492    5.6313 H   0  0  0  0  0  0  0  0  0  0  0  0
   16.8223   18.8685    2.6862 C   0  0  0  0  0  0  0  0  0  0  0  0
   15.4812   19.0211    1.9060 C   0  0  0  0  0  0  0  0  0  0  0  0
   17.5206   17.5232    2.3122 C   0  0  0  0  0  0  0  0  0  0  0  0
   14.4891   22.1621    7.1645 O   0  0  0  0  0  0  0  0  0  0  0  0
   15.2760   22.5896    8.3000 C   0  0  0  0  0  0  0  0  0  0  0  0
   16.2736   21.5463    8.7766 C   0  0  0  0  0  0  0  0  0  0  0  0
   17.6546   21.7285    8.5474 C   0  0  0  0  0  0  0  0  0  0  0  0
   18.5866   20.7466    8.9835 C   0  0  0  0  0  0  0  0  0  0  0  0
   18.1286   19.5736    9.6538 C   0  0  0  0  0  0  0  0  0  0  0  0
   16.7382   19.3840    9.8865 C   0  0  0  0  0  0  0  0  0  0  0  0
   15.8085   20.3718    9.4474 C   0  0  0  0  0  0  0  0  0  0  0  0
   12.1831   24.4240    4.5993 C   0  0  0  0  0  0  0  0  0  0  0  0
   10.9051   24.5962    5.3495 C   0  0  0  0  0  0  0  0  0  0  0  0
   10.5181   23.6332    6.0086 O   0  0  0  0  0  0  0  0  0  0  0  0
   10.2552   25.7346    5.2620 N   0  0  0  0  0  0  0  0  0  0  0  0
   10.6664   26.4338    4.7040 H   0  0  0  0  0  0  0  0  0  0  0  0
    8.9952   26.0718    5.9004 C   0  0  0  0  0  0  0  0  0  0  0  0
    9.2299   26.6742    7.2717 C   0  0  0  0  0  0  0  0  0  0  0  0
    8.2412   27.6328    7.6035 C   0  0  0  0  0  0  0  0  0  0  0  0
   10.2764   26.3971    8.2024 C   0  0  0  0  0  0  0  0  0  0  0  0
   10.3086   27.0910    9.4525 C   0  0  0  0  0  0  0  0  0  0  0  0
    9.2948   28.0581    9.7623 C   0  0  0  0  0  0  0  0  0  0  0  0
    8.0632   27.1252    5.2969 C   0  0  0  0  0  0  0  0  0  0  0  0
    8.9119   28.1150    4.7151 O   0  0  0  0  0  0  0  0  0  0  0  0
    8.2492   28.3401    8.8397 C   0  0  0  0  0  0  0  0  0  0  0  0
    7.2515   27.7489    6.4663 C   0  0  0  0  0  0  0  0  0  0  0  0
    9.5120   28.4648    5.3922 H   0  0  0  0  0  0  0  0  0  0  0  0
   12.0270   23.5107    3.4590 O   0  0  0  0  0  0  0  0  0  0  0  0
   11.5004   24.1218    2.2478 C   0  0  0  0  0  0  0  0  0  0  0  0
    9.9743   24.2234    2.2137 C   0  0  0  0  0  0  0  0  0  0  0  0
    9.1713   23.0754    2.5375 C   0  0  0  0  0  0  0  0  0  0  0  0
    7.7437   23.1798    2.5245 C   0  0  0  0  0  0  0  0  0  0  0  0
    7.1278   24.4211    2.1935 C   0  0  0  0  0  0  0  0  0  0  0  0
    7.9205   25.5548    1.8754 C   0  0  0  0  0  0  0  0  0  0  0  0
    9.3467   25.4610    1.8861 C   0  0  0  0  0  0  0  0  0  0  0  0
 23 24  2  0  0  0
 23 28  1  0  0  0
 23 22  1  0  0  0
 24 25  1  0  0  0
 25 26  2  0  0  0
 26 27  1  0  0  0
 27 28  2  0  0  0
 47 48  2  0  0  0
 47 52  1  0  0  0
 47 46  1  0  0  0
 48 49  1  0  0  0
 49 50  2  0  0  0
 50 51  1  0  0  0
 51 52  2  0  0  0
 46 45  1  0  0  0
 45 29  1  0  0  0
 29  1  1  0  0  0
 29 30  1  0  0  0
  1  4  1  0  0  0
  1  2  1  0  0  0
  4  7  1  0  0  0
  4  5  1  0  0  0
  7  8  1  0  0  0
  7 21  1  0  0  0
  8  9  2  0  0  0
  8 10  1  0  0  0
 10 12  1  0  0  0
 21 22  1  0  0  0
 30 31  2  0  0  0
 30 32  1  0  0  0
 32 34  1  0  0  0
 34 35  1  0  0  0
 34 40  1  0  0  0
 35 36  2  0  0  0
 35 37  1  0  0  0
 36 42  1  0  0  0
 36 43  1  0  0  0
 37 38  2  0  0  0
 38 39  1  0  0  0
 39 42  2  0  0  0
 40 41  1  0  0  0
 40 43  1  0  0  0
 12 18  1  0  0  0
 12 13  1  0  0  0
 18 19  1  0  0  0
 18 20  1  0  0  0
 13 14  2  0  0  0
 13 15  1  0  0  0
 15 16  1  0  0  0
 10 11  1  0  0  0
  5  6  1  0  0  0
  2  3  1  0  0  0
 32 33  1  0  0  0
 41 44  1  0  0  0
 15 17  1  0  0  0
M  END
> <minimizedAffinity>
-11.53076

$$$$
1EBZ_BEC_B_501


 52 55  0  0  0  0  0  0  0  0999 V2000
   13.2633   23.5781    6.2585 C   0  0  0  0  0  0  0  0  0  0  0  0
   13.8856   24.5508    7.1802 O   0  0  0  0  0  0  0  0  0  0  0  0
   14.4957   25.1202    6.6858 H   0  0  0  0  0  0  0  0  0  0  0  0
   14.3573   22.7356    5.6714 C   0  0  0  0  0  0  0  0  0  0  0  0
   15.5661   23.5313    5.8164 O   0  0  0  0  0  0  0  0  0  0  0  0
   15.7063   23.7385    6.7536 H   0  0  0  0  0  0  0  0  0  0  0  0
   14.4428   21.3332    6.3839 C   0  0  0  0  0  0  0  0  0  0  0  0
   15.6823   21.1758    7.2661 C   0  0  0  0  0  0  0  0  0  0  0  0
   15.9639   22.0893    8.0530 O   0  0  0  0  0  0  0  0  0  0  0  0
   16.4105   20.0605    7.1388 N   0  0  0  0  0  0  0  0  0  0  0  0
   16.1178   19.3838    6.4864 H   0  0  0  0  0  0  0  0  0  0  0  0
   17.6167   19.7954    7.9174 C   0  0  0  0  0  0  0  0  0  0  0  0
   18.4887   18.9938    6.9574 C   0  0  0  0  0  0  0  0  0  0  0  0
   19.3116   19.5900    6.2262 O   0  0  0  0  0  0  0  0  0  0  0  0
   18.2815   17.6334    6.9755 N   0  0  0  0  0  0  0  0  0  0  0  0
   19.0788   16.8176    6.0795 C   0  0  0  0  0  0  0  0  0  0  0  0
   17.6151   17.2278    7.5760 H   0  0  0  0  0  0  0  0  0  0  0  0
   17.6140   19.1894    9.3926 C   0  0  0  0  0  0  0  0  0  0  0  0
   16.2089   18.9999   10.0409 C   0  0  0  0  0  0  0  0  0  0  0  0
   18.5737   19.9285   10.3775 C   0  0  0  0  0  0  0  0  0  0  0  0
   14.4213   20.2561    5.3712 O   0  0  0  0  0  0  0  0  0  0  0  0
   14.6664   20.6894    4.0134 C   0  0  0  0  0  0  0  0  0  0  0  0
   15.5227   19.7229    3.2114 C   0  0  0  0  0  0  0  0  0  0  0  0
   15.0859   19.2682    1.9483 C   0  0  0  0  0  0  0  0  0  0  0  0
   15.8822   18.3551    1.2033 C   0  0  0  0  0  0  0  0  0  0  0  0
   17.1254   17.8951    1.7305 C   0  0  0  0  0  0  0  0  0  0  0  0
   17.5702   18.3488    3.0032 C   0  0  0  0  0  0  0  0  0  0  0  0
   16.7679   19.2644    3.7455 C   0  0  0  0  0  0  0  0  0  0  0  0
   12.4537   24.3333    5.2072 C   0  0  0  0  0  0  0  0  0  0  0  0
   11.0905   24.4952    5.7913 C   0  0  0  0  0  0  0  0  0  0  0  0
   10.6188   23.5188    6.3705 O   0  0  0  0  0  0  0  0  0  0  0  0
   10.4612   25.6398    5.6502 N   0  0  0  0  0  0  0  0  0  0  0  0
   10.9429   26.3498    5.1675 H   0  0  0  0  0  0  0  0  0  0  0  0
    9.1307   25.9693    6.1301 C   0  0  0  0  0  0  0  0  0  0  0  0
    9.1995   26.6591    7.4783 C   0  0  0  0  0  0  0  0  0  0  0  0
    8.1537   27.6002    7.6438 C   0  0  0  0  0  0  0  0  0  0  0  0
   10.1475   26.4742    8.5296 C   0  0  0  0  0  0  0  0  0  0  0  0
   10.0254   27.2411    9.7304 C   0  0  0  0  0  0  0  0  0  0  0  0
    8.9568   28.1884    9.8710 C   0  0  0  0  0  0  0  0  0  0  0  0
    8.2390   26.9520    5.3673 C   0  0  0  0  0  0  0  0  0  0  0  0
    9.1164   27.9352    4.8178 O   0  0  0  0  0  0  0  0  0  0  0  0
    8.0087   28.3787    8.8275 C   0  0  0  0  0  0  0  0  0  0  0  0
    7.2889   27.6144    6.4036 C   0  0  0  0  0  0  0  0  0  0  0  0
    9.6301   28.3450    5.5313 H   0  0  0  0  0  0  0  0  0  0  0  0
   12.4311   23.5095    3.9907 O   0  0  0  0  0  0  0  0  0  0  0  0
   11.9341   24.1825    2.8000 C   0  0  0  0  0  0  0  0  0  0  0  0
   10.4284   24.0262    2.5784 C   0  0  0  0  0  0  0  0  0  0  0  0
    9.8016   22.7487    2.7842 C   0  0  0  0  0  0  0  0  0  0  0  0
    8.3893   22.6110    2.5958 C   0  0  0  0  0  0  0  0  0  0  0  0
    7.6135   23.7413    2.2082 C   0  0  0  0  0  0  0  0  0  0  0  0
    8.2321   25.0029    2.0066 C   0  0  0  0  0  0  0  0  0  0  0  0
    9.6415   25.1509    2.1927 C   0  0  0  0  0  0  0  0  0  0  0  0
 23 24  2  0  0  0
 23 28  1  0  0  0
 23 22  1  0  0  0
 24 25  1  0  0  0
 25 26  2  0  0  0
 26 27  1  0  0  0
 27 28  2  0  0  0
 47 48  2  0  0  0
 47 52  1  0  0  0
 47 46  1  0  0  0
 48 49  1  0  0  0
 49 50  2  0  0  0
 50 51  1  0  0  0
 51 52  2  0  0  0
 46 45  1  0  0  0
 45 29  1  0  0  0
 29  1  1  0  0  0
 29 30  1  0  0  0
  1  4  1  0  0  0
  1  2  1  0  0  0
  4  7  1  0  0  0
  4  5  1  0  0  0
  7  8  1  0  0  0
  7 21  1  0  0  0
  8  9  2  0  0  0
  8 10  1  0  0  0
 10 12  1  0  0  0
 21 22  1  0  0  0
 30 31  2  0  0  0
 30 32  1  0  0  0
 32 34  1  0  0  0
 34 35  1  0  0  0
 34 40  1  0  0  0
 35 36  2  0  0  0
 35 37  1  0  0  0
 36 42  1  0  0  0
 36 43  1  0  0  0
 37 38  2  0  0  0
 38 39  1  0  0  0
 39 42  2  0  0  0
 40 41  1  0  0  0
 40 43  1  0  0  0
 12 18  1  0  0  0
 12 13  1  0  0  0
 18 19  1  0  0  0
 18 20  1  0  0  0
 13 14  2  0  0  0
 13 15  1  0  0  0
 15 16  1  0  0  0
 10 11  1  0  0  0
  5  6  1  0  0  0
  2  3  1  0  0  0
 32 33  1  0  0  0
 41 44  1  0  0  0
 15 17  1  0  0  0
M  END
> <minimizedAffinity>
-11.01451

$$$$
1EBZ_BEC_B_501


 52 55  0  0  0  0  0  0  0  0999 V2000
   12.1192   23.0081    4.4528 C   0  0  0  0  0  0  0  0  0  0  0  0
   11.6447   22.9244    5.8496 O   0  0  0  0  0  0  0  0  0  0  0  0
   12.2704   23.3834    6.4316 H   0  0  0  0  0  0  0  0  0  0  0  0
   13.4532   22.3254    4.3783 C   0  0  0  0  0  0  0  0  0  0  0  0
   14.4320   23.3966    4.4776 O   0  0  0  0  0  0  0  0  0  0  0  0
   14.2979   23.8812    5.3071 H   0  0  0  0  0  0  0  0  0  0  0  0
   13.6014   21.2367    5.5073 C   0  0  0  0  0  0  0  0  0  0  0  0
   14.4949   21.6823    6.6659 C   0  0  0  0  0  0  0  0  0  0  0  0
   14.2664   22.7769    7.1975 O   0  0  0  0  0  0  0  0  0  0  0  0
   15.4892   20.8709    7.0446 N   0  0  0  0  0  0  0  0  0  0  0  0
   15.6036   20.0180    6.5664 H   0  0  0  0  0  0  0  0  0  0  0  0
   16.4130   21.1852    8.1305 C   0  0  0  0  0  0  0  0  0  0  0  0
   17.7607   20.7130    7.5966 C   0  0  0  0  0  0  0  0  0  0  0  0
   18.7740   20.7831    8.3286 O   0  0  0  0  0  0  0  0  0  0  0  0
   17.7451   20.2389    6.3047 N   0  0  0  0  0  0  0  0  0  0  0  0
   18.9995   19.7797    5.7393 C   0  0  0  0  0  0  0  0  0  0  0  0
   16.9112   20.2125    5.7821 H   0  0  0  0  0  0  0  0  0  0  0  0
   16.1787   20.7705    9.6526 C   0  0  0  0  0  0  0  0  0  0  0  0
   16.2468   19.2423    9.9530 C   0  0  0  0  0  0  0  0  0  0  0  0
   14.8934   21.3934   10.2830 C   0  0  0  0  0  0  0  0  0  0  0  0
   14.1361   19.9859    4.9280 O   0  0  0  0  0  0  0  0  0  0  0  0
   14.6289   20.1019    3.5733 C   0  0  0  0  0  0  0  0  0  0  0  0
   15.6430   19.0324    3.2009 C   0  0  0  0  0  0  0  0  0  0  0  0
   16.1388   18.1512    4.1860 C   0  0  0  0  0  0  0  0  0  0  0  0
   17.0961   17.1581    3.8394 C   0  0  0  0  0  0  0  0  0  0  0  0
   17.5590   17.0495    2.4944 C   0  0  0  0  0  0  0  0  0  0  0  0
   17.0639   17.9355    1.4977 C   0  0  0  0  0  0  0  0  0  0  0  0
   16.1041   18.9290    1.8509 C   0  0  0  0  0  0  0  0  0  0  0  0
   12.1673   24.4739    4.0284 C   0  0  0  0  0  0  0  0  0  0  0  0
   11.8247   25.2566    5.2514 C   0  0  0  0  0  0  0  0  0  0  0  0
   12.7556   25.5448    6.0009 O   0  0  0  0  0  0  0  0  0  0  0  0
   10.5720   25.5810    5.4784 N   0  0  0  0  0  0  0  0  0  0  0  0
    9.9146   25.2953    4.8036 H   0  0  0  0  0  0  0  0  0  0  0  0
   10.0536   26.3162    6.6185 C   0  0  0  0  0  0  0  0  0  0  0  0
    8.6276   26.7653    6.3672 C   0  0  0  0  0  0  0  0  0  0  0  0
    7.8665   26.7990    7.5614 C   0  0  0  0  0  0  0  0  0  0  0  0
    8.0103   27.1314    5.1331 C   0  0  0  0  0  0  0  0  0  0  0  0
    6.6356   27.5256    5.1235 C   0  0  0  0  0  0  0  0  0  0  0  0
    5.8878   27.5497    6.3479 C   0  0  0  0  0  0  0  0  0  0  0  0
    9.8894   25.6415    7.9825 C   0  0  0  0  0  0  0  0  0  0  0  0
    9.5136   24.2911    7.7113 O   0  0  0  0  0  0  0  0  0  0  0  0
    6.4958   27.1856    7.5814 C   0  0  0  0  0  0  0  0  0  0  0  0
    8.7343   26.3710    8.7232 C   0  0  0  0  0  0  0  0  0  0  0  0
    8.7084   24.2820    7.1704 H   0  0  0  0  0  0  0  0  0  0  0  0
   11.1700   24.6594    2.9654 O   0  0  0  0  0  0  0  0  0  0  0  0
   10.2051   23.5785    2.8306 C   0  0  0  0  0  0  0  0  0  0  0  0
    8.7574   24.0504    2.6812 C   0  0  0  0  0  0  0  0  0  0  0  0
    8.4634   25.2339    1.9195 C   0  0  0  0  0  0  0  0  0  0  0  0
    7.1059   25.6609    1.7647 C   0  0  0  0  0  0  0  0  0  0  0  0
    6.0548   24.9089    2.3642 C   0  0  0  0  0  0  0  0  0  0  0  0
    6.3449   23.7397    3.1149 C   0  0  0  0  0  0  0  0  0  0  0  0
    7.6969   23.3047    3.2748 C   0  0  0  0  0  0  0  0  0  0  0  0
 23 24  2  0  0  0
 23 28  1  0  0  0
 23 22  1  0  0  0
 24 25  1  0  0  0
 25 26  2  0  0  0
 26 27  1  0  0  0
 27 28  2  0  0  0
 47 48  2  0  0  0
 47 52  1  0  0  0
 47 46  1  0  0  0
 48 49  1  0  0  0
 49 50  2  0  0  0
 50 51  1  0  0  0
 51 52  2  0  0  0
 46 45  1  0  0  0
 45 29  1  0  0  0
 29  1  1  0  0  0
 29 30  1  0  0  0
  1  4  1  0  0  0
  1  2  1  0  0  0
  4  7  1  0  0  0
  4  5  1  0  0  0
  7  8  1  0  0  0
  7 21  1  0  0  0
  8  9  2  0  0  0
  8 10  1  0  0  0
 10 12  1  0  0  0
 21 22  1  0  0  0
 30 31  2  0  0  0
 30 32  1  0  0  0
 32 34  1  0  0  0
 34 35  1  0  0  0
 34 40  1  0  0  0
 35 36  2  0  0  0
 35 37  1  0  0  0
 36 42  1  0  0  0
 36 43  1  0  0  0
 37 38  2  0  0  0
 38 39  1  0  0  0
 39 42  2  0  0  0
 40 41  1  0  0  0
 40 43  1  0  0  0
 12 18  1  0  0  0
 12 13  1  0  0  0
 18 19  1  0  0  0
 18 20  1  0  0  0
 13 14  2  0  0  0
 13 15  1  0  0  0
 15 16  1  0  0  0
 10 11  1  0  0  0
  5  6  1  0  0  0
  2  3  1  0  0  0
 32 33  1  0  0  0
 41 44  1  0  0  0
 15 17  1  0  0  0
M  END
> <minimizedAffinity>
-10.90286

$$$$
1EBZ_BEC_B_501


 52 55  0  0  0  0  0  0  0  0999 V2000
   13.1088   23.7238    5.2193 C   0  0  0  0  0  0  0  0  0  0  0  0
   13.8283   24.2670    6.3898 O   0  0  0  0  0  0  0  0  0  0  0  0
   14.3780   25.0165    6.1123 H   0  0  0  0  0  0  0  0  0  0  0  0
   14.1319   23.2455    4.2315 C   0  0  0  0  0  0  0  0  0  0  0  0
   15.3788   23.8681    4.6475 O   0  0  0  0  0  0  0  0  0  0  0  0
   15.5806   23.6094    5.5603 H   0  0  0  0  0  0  0  0  0  0  0  0
   14.2001   21.6719    4.1968 C   0  0  0  0  0  0  0  0  0  0  0  0
   14.7045   21.0578    5.5036 C   0  0  0  0  0  0  0  0  0  0  0  0
   13.8907   20.4746    6.2319 O   0  0  0  0  0  0  0  0  0  0  0  0
   16.0021   21.1883    5.8030 N   0  0  0  0  0  0  0  0  0  0  0  0
   16.5814   21.6698    5.1692 H   0  0  0  0  0  0  0  0  0  0  0  0
   16.6031   20.6534    7.0212 C   0  0  0  0  0  0  0  0  0  0  0  0
   16.4080   21.7756    8.0346 C   0  0  0  0  0  0  0  0  0  0  0  0
   16.0153   21.5018    9.1914 O   0  0  0  0  0  0  0  0  0  0  0  0
   16.6852   23.0404    7.5681 N   0  0  0  0  0  0  0  0  0  0  0  0
   16.5131   24.1506    8.4856 C   0  0  0  0  0  0  0  0  0  0  0  0
   16.9899   23.1866    6.6435 H   0  0  0  0  0  0  0  0  0  0  0  0
   18.0615   20.0119    7.0922 C   0  0  0  0  0  0  0  0  0  0  0  0
   18.7190   19.6790    5.7184 C   0  0  0  0  0  0  0  0  0  0  0  0
   18.1637   18.7882    8.0563 C   0  0  0  0  0  0  0  0  0  0  0  0
   15.0669   21.2339    3.0819 O   0  0  0  0  0  0  0  0  0  0  0  0
   14.7619   19.9245    2.5492 C   0  0  0  0  0  0  0  0  0  0  0  0
   15.8124   18.8751    2.8749 C   0  0  0  0  0  0  0  0  0  0  0  0
   16.9223   18.6938    2.0217 C   0  0  0  0  0  0  0  0  0  0  0  0
   17.8991   17.7042    2.3210 C   0  0  0  0  0  0  0  0  0  0  0  0
   17.7599   16.8908    3.4847 C   0  0  0  0  0  0  0  0  0  0  0  0
   16.6429   17.0681    4.3475 C   0  0  0  0  0  0  0  0  0  0  0  0
   15.6670   18.0619    4.0426 C   0  0  0  0  0  0  0  0  0  0  0  0
   12.1849   24.8013    4.6565 C   0  0  0  0  0  0  0  0  0  0  0  0
   11.0003   24.8267    5.5630 C   0  0  0  0  0  0  0  0  0  0  0  0
   10.8296   23.8397    6.2758 O   0  0  0  0  0  0  0  0  0  0  0  0
   10.2004   25.8688    5.5483 N   0  0  0  0  0  0  0  0  0  0  0  0
   10.4423   26.6001    4.9352 H   0  0  0  0  0  0  0  0  0  0  0  0
    8.9976   26.0572    6.3400 C   0  0  0  0  0  0  0  0  0  0  0  0
    9.3268   26.6869    7.6792 C   0  0  0  0  0  0  0  0  0  0  0  0
    8.2809   27.5235    8.1406 C   0  0  0  0  0  0  0  0  0  0  0  0
   10.5049   26.5375    8.4716 C   0  0  0  0  0  0  0  0  0  0  0  0
   10.6089   27.2339    9.7164 C   0  0  0  0  0  0  0  0  0  0  0  0
    9.5346   28.0758   10.1591 C   0  0  0  0  0  0  0  0  0  0  0  0
    7.8817   26.9920    5.8673 C   0  0  0  0  0  0  0  0  0  0  0  0
    8.5307   28.0731    5.1977 O   0  0  0  0  0  0  0  0  0  0  0  0
    8.3579   28.2303    9.3747 C   0  0  0  0  0  0  0  0  0  0  0  0
    7.1523   27.5192    7.1344 C   0  0  0  0  0  0  0  0  0  0  0  0
    9.1643   28.4930    5.8003 H   0  0  0  0  0  0  0  0  0  0  0  0
   11.8182   24.4002    3.2913 O   0  0  0  0  0  0  0  0  0  0  0  0
   10.6795   23.4988    3.1990 C   0  0  0  0  0  0  0  0  0  0  0  0
    9.4273   24.1364    2.5939 C   0  0  0  0  0  0  0  0  0  0  0  0
    8.1684   23.4445    2.6557 C   0  0  0  0  0  0  0  0  0  0  0  0
    6.9948   24.0531    2.1068 C   0  0  0  0  0  0  0  0  0  0  0  0
    7.0813   25.3416    1.5052 C   0  0  0  0  0  0  0  0  0  0  0  0
    8.3237   26.0254    1.4457 C   0  0  0  0  0  0  0  0  0  0  0  0
    9.5012   25.4265    1.9914 C   0  0  0  0  0  0  0  0  0  0  0  0
 23 24  2  0  0  0
 23 28  1  0  0  0
 23 22  1  0  0  0
 24 25  1  0  0  0
 25 26  2  0  0  0
 26 27  1  0  0  0
 27 28  2  0  0  0
 47 48  2  0  0  0
 47 52  1  0  0  0
 47 46  1  0  0  0
 48 49  1  0  0  0
 49 50  2  0  0  0
 50 51  1  0  0  0
 51 52  2  0  0  0
 46 45  1  0  0  0
 45 29  1  0  0  0
 29  1  1  0  0  0
 29 30  1  0  0  0
  1  4  1  0  0  0
  1  2  1  0  0  0
  4  7  1  0  0  0
  4  5  1  0  0  0
  7  8  1  0  0  0
  7 21  1  0  0  0
  8  9  2  0  0  0
  8 10  1  0  0  0
 10 12  1  0  0  0
 21 22  1  0  0  0
 30 31  2  0  0  0
 30 32  1  0  0  0
 32 34  1  0  0  0
 34 35  1  0  0  0
 34 40  1  0  0  0
 35 36  2  0  0  0
 35 37  1  0  0  0
 36 42  1  0  0  0
 36 43  1  0  0  0
 37 38  2  0  0  0
 38 39  1  0  0  0
 39 42  2  0  0  0
 40 41  1  0  0  0
 40 43  1  0  0  0
 12 18  1  0  0  0
 12 13  1  0  0  0
 18 19  1  0  0  0
 18 20  1  0  0  0
 13 14  2  0  0  0
 13 15  1  0  0  0
 15 16  1  0  0  0
 10 11  1  0  0  0
  5  6  1  0  0  0
  2  3  1  0  0  0
 32 33  1  0  0  0
 41 44  1  0  0  0
 15 17  1  0  0  0
M  END
> <minimizedAffinity>
-10.80459

$$$$
1EBZ_BEC_B_501


 52 55  0  0  0  0  0  0  0  0999 V2000
   11.4897   23.0505    5.4711 C   0  0  0  0  0  0  0  0  0  0  0  0
   11.2042   23.1602    6.9166 O   0  0  0  0  0  0  0  0  0  0  0  0
   12.0327   23.3053    7.3997 H   0  0  0  0  0  0  0  0  0  0  0  0
   12.3917   21.8687    5.2686 C   0  0  0  0  0  0  0  0  0  0  0  0
   12.4311   21.6656    3.8290 O   0  0  0  0  0  0  0  0  0  0  0  0
   12.7563   22.4713    3.3976 H   0  0  0  0  0  0  0  0  0  0  0  0
   13.8115   22.1186    5.9038 C   0  0  0  0  0  0  0  0  0  0  0  0
   14.9606   21.5758    5.0527 C   0  0  0  0  0  0  0  0  0  0  0  0
   15.3896   22.2778    4.1274 O   0  0  0  0  0  0  0  0  0  0  0  0
   15.4425   20.3618    5.3429 N   0  0  0  0  0  0  0  0  0  0  0  0
   15.0421   19.8680    6.0947 H   0  0  0  0  0  0  0  0  0  0  0  0
   16.5313   19.7316    4.6022 C   0  0  0  0  0  0  0  0  0  0  0  0
   15.8077   18.8888    3.5578 C   0  0  0  0  0  0  0  0  0  0  0  0
   15.5059   17.7029    3.8222 O   0  0  0  0  0  0  0  0  0  0  0  0
   15.5458   19.5290    2.3680 N   0  0  0  0  0  0  0  0  0  0  0  0
   14.8634   18.7762    1.3328 C   0  0  0  0  0  0  0  0  0  0  0  0
   15.8125   20.4657    2.2244 H   0  0  0  0  0  0  0  0  0  0  0  0
   17.7436   18.9517    5.2845 C   0  0  0  0  0  0  0  0  0  0  0  0
   18.8088   19.8456    5.9892 C   0  0  0  0  0  0  0  0  0  0  0  0
   18.4367   17.9186    4.3412 C   0  0  0  0  0  0  0  0  0  0  0  0
   13.8698   21.5124    7.2511 O   0  0  0  0  0  0  0  0  0  0  0  0
   14.5851   22.2886    8.2397 C   0  0  0  0  0  0  0  0  0  0  0  0
   15.8989   21.6589    8.6737 C   0  0  0  0  0  0  0  0  0  0  0  0
   15.9063   20.3949    9.3021 C   0  0  0  0  0  0  0  0  0  0  0  0
   17.1347   19.8112    9.7182 C   0  0  0  0  0  0  0  0  0  0  0  0
   18.3641   20.5020    9.5021 C   0  0  0  0  0  0  0  0  0  0  0  0
   18.3628   21.7765    8.8705 C   0  0  0  0  0  0  0  0  0  0  0  0
   17.1283   22.3566    8.4553 C   0  0  0  0  0  0  0  0  0  0  0  0
   12.0961   24.3630    4.9805 C   0  0  0  0  0  0  0  0  0  0  0  0
   11.7093   25.3868    5.9945 C   0  0  0  0  0  0  0  0  0  0  0  0
   12.6105   25.8275    6.7051 O   0  0  0  0  0  0  0  0  0  0  0  0
   10.4511   25.7514    6.0939 N   0  0  0  0  0  0  0  0  0  0  0  0
    9.8200   25.3290    5.4674 H   0  0  0  0  0  0  0  0  0  0  0  0
    9.8918   26.7111    7.0295 C   0  0  0  0  0  0  0  0  0  0  0  0
    8.4687   27.0688    6.6485 C   0  0  0  0  0  0  0  0  0  0  0  0
    7.6731   27.3522    7.7858 C   0  0  0  0  0  0  0  0  0  0  0  0
    7.8830   27.1425    5.3486 C   0  0  0  0  0  0  0  0  0  0  0  0
    6.5049   27.5009    5.2168 C   0  0  0  0  0  0  0  0  0  0  0  0
    5.7218   27.7818    6.3860 C   0  0  0  0  0  0  0  0  0  0  0  0
    9.6960   26.3516    8.5042 C   0  0  0  0  0  0  0  0  0  0  0  0
    9.3434   24.9683    8.5290 O   0  0  0  0  0  0  0  0  0  0  0  0
    6.2982   27.7097    7.6847 C   0  0  0  0  0  0  0  0  0  0  0  0
    8.5118   27.2065    9.0354 C   0  0  0  0  0  0  0  0  0  0  0  0
    8.5543   24.8260    7.9831 H   0  0  0  0  0  0  0  0  0  0  0  0
   11.5141   24.6537    3.6630 O   0  0  0  0  0  0  0  0  0  0  0  0
   10.5361   23.6836    3.1940 C   0  0  0  0  0  0  0  0  0  0  0  0
    9.1978   24.2983    2.7793 C   0  0  0  0  0  0  0  0  0  0  0  0
    7.9695   23.7601    3.2979 C   0  0  0  0  0  0  0  0  0  0  0  0
    6.7204   24.3507    2.9238 C   0  0  0  0  0  0  0  0  0  0  0  0
    6.7026   25.4698    2.0423 C   0  0  0  0  0  0  0  0  0  0  0  0
    7.9152   26.0022    1.5316 C   0  0  0  0  0  0  0  0  0  0  0  0
    9.1677   25.4199    1.8995 C   0  0  0  0  0  0  0  0  0  0  0  0
 23 24  2  0  0  0
 23 28  1  0  0  0
 23 22  1  0  0  0
 24 25  1  0  0  0
 25 26  2  0  0  0
 26 27  1  0  0  0
 27 28  2  0  0  0
 47 48  2  0  0  0
 47 52  1  0  0  0
 47 46  1  0  0  0
 48 49  1  0  0  0
 49 50  2  0  0  0
 50 51  1  0  0  0
 51 52  2  0  0  0
 46 45  1  0  0  0
 45 29  1  0  0  0
 29  1  1  0  0  0
 29 30  1  0  0  0
  1  4  1  0  0  0
  1  2  1  0  0  0
  4  7  1  0  0  0
  4  5  1  0  0  0
  7  8  1  0  0  0
  7 21  1  0  0  0
  8  9  2  0  0  0
  8 10  1  0  0  0
 10 12  1  0  0  0
 21 22  1  0  0  0
 30 31  2  0  0  0
 30 32  1  0  0  0
 32 34  1  0  0  0
 34 35  1  0  0  0
 34 40  1  0  0  0
 35 36  2  0  0  0
 35 37  1  0  0  0
 36 42  1  0  0  0
 36 43  1  0  0  0
 37 38  2  0  0  0
 38 39  1  0  0  0
 39 42  2  0  0  0
 40 41  1  0  0  0
 40 43  1  0  0  0
 12 18  1  0  0  0
 12 13  1  0  0  0
 18 19  1  0  0  0
 18 20  1  0  0  0
 13 14  2  0  0  0
 13 15  1  0  0  0
 15 16  1  0  0  0
 10 11  1  0  0  0
  5  6  1  0  0  0
  2  3  1  0  0  0
 32 33  1  0  0  0
 41 44  1  0  0  0
 15 17  1  0  0  0
M  END
> <minimizedAffinity>
-10.15909

$$$$
1EBZ_BEC_B_501


 52 55  0  0  0  0  0  0  0  0999 V2000
    9.9162   23.1063    3.8274 C   0  0  0  0  0  0  0  0  0  0  0  0
   10.0362   21.7716    3.2050 O   0  0  0  0  0  0  0  0  0  0  0  0
   10.5181   21.8480    2.3667 H   0  0  0  0  0  0  0  0  0  0  0  0
    9.1388   23.9829    2.8901 C   0  0  0  0  0  0  0  0  0  0  0  0
    8.6963   23.0977    1.8243 O   0  0  0  0  0  0  0  0  0  0  0  0
    8.1659   22.3782    2.2009 H   0  0  0  0  0  0  0  0  0  0  0  0
    7.9536   24.7056    3.6350 C   0  0  0  0  0  0  0  0  0  0  0  0
    6.5834   24.4119    3.0222 C   0  0  0  0  0  0  0  0  0  0  0  0
    6.4364   24.5770    1.8040 O   0  0  0  0  0  0  0  0  0  0  0  0
    5.6039   23.9986    3.8347 N   0  0  0  0  0  0  0  0  0  0  0  0
    5.8045   23.8956    4.7930 H   0  0  0  0  0  0  0  0  0  0  0  0
    4.2530   23.6926    3.3733 C   0  0  0  0  0  0  0  0  0  0  0  0
    3.5778   25.0587    3.3240 C   0  0  0  0  0  0  0  0  0  0  0  0
    3.3373   25.5891    2.2158 O   0  0  0  0  0  0  0  0  0  0  0  0
    3.2869   25.6125    4.5499 N   0  0  0  0  0  0  0  0  0  0  0  0
    2.6481   26.9147    4.5674 C   0  0  0  0  0  0  0  0  0  0  0  0
    3.5049   25.1411    5.3862 H   0  0  0  0  0  0  0  0  0  0  0  0
    3.3197   22.5719    4.0185 C   0  0  0  0  0  0  0  0  0  0  0  0
    4.0510   21.2842    4.5059 C   0  0  0  0  0  0  0  0  0  0  0  0
    2.0860   22.1979    3.1379 C   0  0  0  0  0  0  0  0  0  0  0  0
    8.1849   26.1660    3.6426 O   0  0  0  0  0  0  0  0  0  0  0  0
    7.0593   26.9604    4.0825 C   0  0  0  0  0  0  0  0  0  0  0  0
    7.1324   27.3610    5.5470 C   0  0  0  0  0  0  0  0  0  0  0  0
    5.9946   27.2388    6.3735 C   0  0  0  0  0  0  0  0  0  0  0  0
    6.0603   27.6243    7.7410 C   0  0  0  0  0  0  0  0  0  0  0  0
    7.2770   28.1365    8.2820 C   0  0  0  0  0  0  0  0  0  0  0  0
    8.4265   28.2629    7.4537 C   0  0  0  0  0  0  0  0  0  0  0  0
    8.3548   27.8747    6.0836 C   0  0  0  0  0  0  0  0  0  0  0  0
   11.3126   23.6415    4.1352 C   0  0  0  0  0  0  0  0  0  0  0  0
   11.9847   22.5734    4.9309 C   0  0  0  0  0  0  0  0  0  0  0  0
   11.3619   22.1268    5.8921 O   0  0  0  0  0  0  0  0  0  0  0  0
   13.1902   22.1780    4.5894 N   0  0  0  0  0  0  0  0  0  0  0  0
   13.5866   22.6091    3.7980 H   0  0  0  0  0  0  0  0  0  0  0  0
   14.0003   21.1730    5.2547 C   0  0  0  0  0  0  0  0  0  0  0  0
   14.8361   20.4034    4.2510 C   0  0  0  0  0  0  0  0  0  0  0  0
   16.0763   19.9945    4.7999 C   0  0  0  0  0  0  0  0  0  0  0  0
   14.5260   20.0712    2.8976 C   0  0  0  0  0  0  0  0  0  0  0  0
   15.4716   19.3320    2.1200 C   0  0  0  0  0  0  0  0  0  0  0  0
   16.7210   18.9315    2.7009 C   0  0  0  0  0  0  0  0  0  0  0  0
   15.0831   21.5728    6.2599 C   0  0  0  0  0  0  0  0  0  0  0  0
   15.6330   22.7996    5.7794 O   0  0  0  0  0  0  0  0  0  0  0  0
   17.0374   19.2593    4.0486 C   0  0  0  0  0  0  0  0  0  0  0  0
   16.1703   20.4626    6.2345 C   0  0  0  0  0  0  0  0  0  0  0  0
   15.9642   22.6737    4.8764 H   0  0  0  0  0  0  0  0  0  0  0  0
   11.1508   24.8789    4.9108 O   0  0  0  0  0  0  0  0  0  0  0  0
   11.9189   24.9369    6.1454 C   0  0  0  0  0  0  0  0  0  0  0  0
   11.0803   25.2462    7.3872 C   0  0  0  0  0  0  0  0  0  0  0  0
    9.7556   24.7015    7.5125 C   0  0  0  0  0  0  0  0  0  0  0  0
    8.9817   24.9763    8.6849 C   0  0  0  0  0  0  0  0  0  0  0  0
    9.5302   25.7855    9.7213 C   0  0  0  0  0  0  0  0  0  0  0  0
   10.8386   26.3220    9.5983 C   0  0  0  0  0  0  0  0  0  0  0  0
   11.6196   26.0530    8.4319 C   0  0  0  0  0  0  0  0  0  0  0  0
 23 24  2  0  0  0
 23 28  1  0  0  0
 23 22  1  0  0  0
 24 25  1  0  0  0
 25 26  2  0  0  0
 26 27  1  0  0  0
 27 28  2  0  0  0
 47 48  2  0  0  0
 47 52  1  0  0  0
 47 46  1  0  0  0
 48 49  1  0  0  0
 49 50  2  0  0  0
 50 51  1  0  0  0
 51 52  2  0  0  0
 46 45  1  0  0  0
 45 29  1  0  0  0
 29  1  1  0  0  0
 29 30  1  0  0  0
  1  4  1  0  0  0
  1  2  1  0  0  0
  4  7  1  0  0  0
  4  5  1  0  0  0
  7  8  1  0  0  0
  7 21  1  0  0  0
  8  9  2  0  0  0
  8 10  1  0  0  0
 10 12  1  0  0  0
 21 22  1  0  0  0
 30 31  2  0  0  0
 30 32  1  0  0  0
 32 34  1  0  0  0
 34 35  1  0  0  0
 34 40  1  0  0  0
 35 36  2  0  0  0
 35 37  1  0  0  0
 36 42  1  0  0  0
 36 43  1  0  0  0
 37 38  2  0  0  0
 38 39  1  0  0  0
 39 42  2  0  0  0
 40 41  1  0  0  0
 40 43  1  0  0  0
 12 18  1  0  0  0
 12 13  1  0  0  0
 18 19  1  0  0  0
 18 20  1  0  0  0
 13 14  2  0  0  0
 13 15  1  0  0  0
 15 16  1  0  0  0
 10 11  1  0  0  0
  5  6  1  0  0  0
  2  3  1  0  0  0
 32 33  1  0  0  0
 41 44  1  0  0  0
 15 17  1  0  0  0
M  END
> <minimizedAffinity>
-9.91358

$$$$
1EBZ_BEC_B_501


 52 55  0  0  0  0  0  0  0  0999 V2000
   13.7391   22.7027    5.0981 C   0  0  0  0  0  0  0  0  0  0  0  0
   15.1685   22.3676    5.2645 O   0  0  0  0  0  0  0  0  0  0  0  0
   15.2536   21.4407    5.5374 H   0  0  0  0  0  0  0  0  0  0  0  0
   13.0653   22.5160    6.4257 C   0  0  0  0  0  0  0  0  0  0  0  0
   13.5470   21.2347    6.9171 O   0  0  0  0  0  0  0  0  0  0  0  0
   14.5146   21.2559    6.9808 H   0  0  0  0  0  0  0  0  0  0  0  0
   13.3770   23.7156    7.3980 C   0  0  0  0  0  0  0  0  0  0  0  0
   12.6130   24.9937    7.0485 C   0  0  0  0  0  0  0  0  0  0  0  0
   13.0996   25.7573    6.2040 O   0  0  0  0  0  0  0  0  0  0  0  0
   11.4575   25.2313    7.6799 N   0  0  0  0  0  0  0  0  0  0  0  0
   11.1425   24.5728    8.3405 H   0  0  0  0  0  0  0  0  0  0  0  0
   10.6399   26.4167    7.4397 C   0  0  0  0  0  0  0  0  0  0  0  0
    9.9657   26.6604    8.7853 C   0  0  0  0  0  0  0  0  0  0  0  0
    9.3979   25.7116    9.3725 O   0  0  0  0  0  0  0  0  0  0  0  0
   10.0380   27.9535    9.2508 N   0  0  0  0  0  0  0  0  0  0  0  0
    9.4100   28.2482   10.5246 C   0  0  0  0  0  0  0  0  0  0  0  0
   10.5002   28.6545    8.7367 H   0  0  0  0  0  0  0  0  0  0  0  0
    9.6327   26.5753    6.2134 C   0  0  0  0  0  0  0  0  0  0  0  0
    8.3989   27.4934    6.4688 C   0  0  0  0  0  0  0  0  0  0  0  0
    9.1816   25.2165    5.5908 C   0  0  0  0  0  0  0  0  0  0  0  0
   14.8288   23.9957    7.3965 O   0  0  0  0  0  0  0  0  0  0  0  0
   15.4880   23.8106    8.6703 C   0  0  0  0  0  0  0  0  0  0  0  0
   16.1217   22.4386    8.8339 C   0  0  0  0  0  0  0  0  0  0  0  0
   15.4195   21.4069    9.4936 C   0  0  0  0  0  0  0  0  0  0  0  0
   16.0173   20.1266    9.6563 C   0  0  0  0  0  0  0  0  0  0  0  0
   17.3296   19.8811    9.1536 C   0  0  0  0  0  0  0  0  0  0  0  0
   18.0426   20.9172    8.4890 C   0  0  0  0  0  0  0  0  0  0  0  0
   17.4381   22.1985    8.3286 C   0  0  0  0  0  0  0  0  0  0  0  0
   13.1468   21.8311    3.9933 C   0  0  0  0  0  0  0  0  0  0  0  0
   14.3076   21.3854    3.1690 C   0  0  0  0  0  0  0  0  0  0  0  0
   14.6468   22.1255    2.2478 O   0  0  0  0  0  0  0  0  0  0  0  0
   14.8918   20.2414    3.4447 N   0  0  0  0  0  0  0  0  0  0  0  0
   14.5312   19.7366    4.2091 H   0  0  0  0  0  0  0  0  0  0  0  0
   16.0127   19.6421    2.7422 C   0  0  0  0  0  0  0  0  0  0  0  0
   16.9591   18.9661    3.7146 C   0  0  0  0  0  0  0  0  0  0  0  0
   17.5814   17.8296    3.1420 C   0  0  0  0  0  0  0  0  0  0  0  0
   17.2671   19.3291    5.0606 C   0  0  0  0  0  0  0  0  0  0  0  0
   18.1977   18.5403    5.8069 C   0  0  0  0  0  0  0  0  0  0  0  0
   18.8126   17.3934    5.2024 C   0  0  0  0  0  0  0  0  0  0  0  0
   15.7974   18.5065    1.7389 C   0  0  0  0  0  0  0  0  0  0  0  0
   14.7145   17.7292    2.2501 O   0  0  0  0  0  0  0  0  0  0  0  0
   18.5102   17.0250    3.8620 C   0  0  0  0  0  0  0  0  0  0  0  0
   17.0960   17.6529    1.7210 C   0  0  0  0  0  0  0  0  0  0  0  0
   14.9294   17.4250    3.1457 H   0  0  0  0  0  0  0  0  0  0  0  0
   12.2184   22.6675    3.2203 O   0  0  0  0  0  0  0  0  0  0  0  0
   10.8351   22.2157    3.2218 C   0  0  0  0  0  0  0  0  0  0  0  0
    9.8379   23.2594    2.7150 C   0  0  0  0  0  0  0  0  0  0  0  0
    8.4342   22.9505    2.6746 C   0  0  0  0  0  0  0  0  0  0  0  0
    7.5020   23.9367    2.2191 C   0  0  0  0  0  0  0  0  0  0  0  0
    7.9708   25.2188    1.8114 C   0  0  0  0  0  0  0  0  0  0  0  0
    9.3564   25.5243    1.8527 C   0  0  0  0  0  0  0  0  0  0  0  0
   10.2952   24.5467    2.3064 C   0  0  0  0  0  0  0  0  0  0  0  0
 23 24  2  0  0  0
 23 28  1  0  0  0
 23 22  1  0  0  0
 24 25  1  0  0  0
 25 26  2  0  0  0
 26 27  1  0  0  0
 27 28  2  0  0  0
 47 48  2  0  0  0
 47 52  1  0  0  0
 47 46  1  0  0  0
 48 49  1  0  0  0
 49 50  2  0  0  0
 50 51  1  0  0  0
 51 52  2  0  0  0
 46 45  1  0  0  0
 45 29  1  0  0  0
 29  1  1  0  0  0
 29 30  1  0  0  0
  1  4  1  0  0  0
  1  2  1  0  0  0
  4  7  1  0  0  0
  4  5  1  0  0  0
  7  8  1  0  0  0
  7 21  1  0  0  0
  8  9  2  0  0  0
  8 10  1  0  0  0
 10 12  1  0  0  0
 21 22  1  0  0  0
 30 31  2  0  0  0
 30 32  1  0  0  0
 32 34  1  0  0  0
 34 35  1  0  0  0
 34 40  1  0  0  0
 35 36  2  0  0  0
 35 37  1  0  0  0
 36 42  1  0  0  0
 36 43  1  0  0  0
 37 38  2  0  0  0
 38 39  1  0  0  0
 39 42  2  0  0  0
 40 41  1  0  0  0
 40 43  1  0  0  0
 12 18  1  0  0  0
 12 13  1  0  0  0
 18 19  1  0  0  0
 18 20  1  0  0  0
 13 14  2  0  0  0
 13 15  1  0  0  0
 15 16  1  0  0  0
 10 11  1  0  0  0
  5  6  1  0  0  0
  2  3  1  0  0  0
 32 33  1  0  0  0
 41 44  1  0  0  0
 15 17  1  0  0  0
M  END
> <minimizedAffinity>
-9.77159

$$$$
