1C5O_BAM_H_410
  RCSB PDB12061702083D
Coordinates from PDB:1C5O:H:410 Model:1 without hydrogens
  9  9  0  0  0  0            999 V2000
   11.8270  -11.7370   23.1510   C 0  0  0  0  0  0  0  0  0  0  0  0
   12.2520  -12.9160   22.5400   C 0  0  0  0  0  0  0  0  0  0  0  0
   13.1770  -12.8950   21.5060   C 0  0  0  0  0  0  0  0  0  0  0  0
   13.7030  -11.6970   21.0520   C 0  0  0  0  0  0  0  0  0  0  0  0
   13.3090  -10.5250   21.6260   C 0  0  0  0  0  0  0  0  0  0  0  0
   12.3830  -10.5490   22.6610   C 0  0  0  0  0  0  0  0  0  0  0  0
   10.9010  -11.7410   24.2070   C 0  0  0  0  0  0  0  0  0  0  0  0
   10.3210  -12.8610   24.5160   N 0  0  0  0  0  0  0  0  0  0  0  0
   10.6290  -10.6390   24.8750   N 0  3  0  0  0  0  0  0  0  0  0  0
  1  2  2  0  0  0  0
  1  6  1  0  0  0  0
  1  7  1  0  0  0  0
  2  3  1  0  0  0  0
  3  4  2  0  0  0  0
  4  5  1  0  0  0  0
  5  6  2  0  0  0  0
  7  8  1  0  0  0  0
  7  9  2  0  0  0  0
M  CHG  1   9   1
A    1
C1
A    2
C2
A    3
C3
A    4
C4
A    5
C5
A    6
C6
A    7
C
A    8
N1
A    9
N2
M  END
>  <InstanceId>
1C5O_BAM_H_410

>  <ChemCompId>
BAM

>  <PdbId>
1C5O

>  <ChainId>
H

>  <ResidueNumber>
410

>  <InsertionCode>


>  <Model>
1

>  <AltIds>


>  <MissingHeavyAtoms>
0

>  <ObservedFormula>
C7 N2

>  <Name>
BENZAMIDINE

>  <SystematicName>
(amino-phenyl-methylidene)azanium

>  <Synonyms>


>  <Type>
NON-POLYMER

>  <Formula>
C7 H9 N2

>  <MolecularWeight>
121.16

>  <ModifiedDate>
2011-06-04

>  <Parent>


>  <OneLetterCode>


>  <SubcomponentList>


>  <AmbiguousFlag>
N

>  <InChI>
InChI=1S/C7H8N2/c8-7(9)6-4-2-1-3-5-6/h1-5H,(H3,8,9)/p+1

>  <InChIKey>
PXXJHWLDUBFPOL-UHFFFAOYSA-O

>  <SMILES>
c1ccc(cc1)C(=[NH2+])N

$$$$
