4M3P_HCS_A_703
  RCSB PDB12061713403D
Coordinates from PDB:4M3P:A:703 Model:1 without hydrogens
  8  7  0  0  0  0            999 V2000
   79.7900    6.5170  -38.6110   N 0  0  0  0  0  0  0  0  0  0  0  0
   79.1440    5.4400  -37.8670   C 0  0  0  0  0  0  0  0  0  0  0  0
   79.6710    5.4790  -36.3600   C 0  0  0  0  0  0  0  0  0  0  0  0
   78.9710    4.4140  -35.5110   C 0  0  0  0  0  0  0  0  0  0  0  0
   80.0040    4.0560  -33.9970   S 0  0  0  0  0  0  0  0  0  0  0  0
   77.5410    5.5880  -37.9610   C 0  0  0  0  0  0  0  0  0  0  0  0
   76.8480    4.6160  -37.6310   O 0  0  0  0  0  0  0  0  0  0  0  0
   77.1290    6.6900  -38.4140   O 0  0  0  0  0  0  0  0  0  0  0  0
  1  2  1  0  0  0  0
  2  3  1  0  0  0  0
  2  6  1  0  0  0  0
  3  4  1  0  0  0  0
  4  5  1  0  0  0  0
  6  7  1  0  0  0  0
  6  8  2  0  0  0  0
A    1
N
A    2
CA
A    3
CB
A    4
CG
A    5
SD
A    6
C
A    7
OXT
A    8
O
M  END
>  <InstanceId>
4M3P_HCS_A_703

>  <ChemCompId>
HCS

>  <PdbId>
4M3P

>  <ChainId>
A

>  <ResidueNumber>
703

>  <InsertionCode>


>  <Model>
1

>  <AltIds>


>  <MissingHeavyAtoms>
0

>  <ObservedFormula>
C4 N O2 S

>  <Name>
2-AMINO-4-MERCAPTO-BUTYRIC ACID

>  <SystematicName>
(2S)-2-amino-4-sulfanyl-butanoic acid

>  <Synonyms>


>  <Type>
L-PEPTIDE LINKING

>  <Formula>
C4 H9 N O2 S

>  <MolecularWeight>
135.185

>  <ModifiedDate>
2011-06-04

>  <Parent>


>  <OneLetterCode>
X

>  <SubcomponentList>


>  <AmbiguousFlag>
N

>  <InChI>
InChI=1S/C4H9NO2S/c5-3(1-2-8)4(6)7/h3,8H,1-2,5H2,(H,6,7)/t3-/m0/s1

>  <InChIKey>
FFFHZYDWPBMWHY-VKHMYHEASA-N

>  <SMILES>
C(CS)[C@@H](C(=O)O)N

$$$$
