4PB2_5UD_A_501
  RCSB PDB12061714123D
Coordinates from PDB:4PB2:A:501 Model:1 without hydrogens
 18 19  0  0  0  0            999 V2000
   49.3120  -22.1150   -5.4020   F 0  0  0  0  0  0  0  0  0  0  0  0
   49.7840  -21.6070   -6.5180   C 0  0  0  0  0  0  0  0  0  0  0  0
   49.1780  -21.9580   -7.7730   C 0  0  0  0  0  0  0  0  0  0  0  0
   48.2220  -22.7290   -7.8050   O 0  0  0  0  0  0  0  0  0  0  0  0
   49.6850  -21.4160   -8.9370   N 0  0  0  0  0  0  0  0  0  0  0  0
   50.7510  -20.5560   -8.8810   C 0  0  0  0  0  0  0  0  0  0  0  0
   51.2000  -20.0770   -9.9070   O 0  0  0  0  0  0  0  0  0  0  0  0
   50.8260  -20.7650   -6.4950   C 0  0  0  0  0  0  0  0  0  0  0  0
   51.3110  -20.2380   -7.6780   N 0  0  0  0  0  0  0  0  0  0  0  0
   52.4700  -19.3000   -7.6430   C 0  0  0  0  0  0  0  0  0  0  0  0
   52.0460  -17.8390   -7.7350   C 0  0  0  0  0  0  0  0  0  0  0  0
   52.9790  -17.1330   -8.5280   O 0  0  0  0  0  0  0  0  0  0  0  0
   52.1290  -17.3580   -6.3000   C 0  0  0  0  0  0  0  0  0  0  0  0
   52.4150  -15.9660   -6.2630   O 0  0  0  0  0  0  0  0  0  0  0  0
   53.3090  -18.1610   -5.7810   C 0  0  0  0  0  0  0  0  0  0  0  0
   53.2130  -19.4510   -6.4420   O 0  0  0  0  0  0  0  0  0  0  0  0
   53.1770  -18.3620   -4.2840   C 0  0  0  0  0  0  0  0  0  0  0  0
   51.9310  -18.8510   -3.8010   O 0  0  0  0  0  0  0  0  0  0  0  0
  1  2  1  0  0  0  0
  2  3  1  0  0  0  0
  2  8  2  0  0  0  0
  3  4  2  0  0  0  0
  3  5  1  0  0  0  0
  5  6  1  0  0  0  0
  6  7  2  0  0  0  0
  6  9  1  0  0  0  0
  8  9  1  0  0  0  0
  9 10  1  0  0  0  0
 10 11  1  0  0  0  0
 10 16  1  0  0  0  0
 11 12  1  0  0  0  0
 11 13  1  0  0  0  0
 13 14  1  0  0  0  0
 13 15  1  0  0  0  0
 15 16  1  0  0  0  0
 15 17  1  0  0  0  0
 17 18  1  0  0  0  0
A    1
F5
A    2
C5
A    3
C4
A    4
O4
A    5
N3
A    6
C2
A    7
O2
A    8
C6
A    9
N1
A   10
C1'
A   11
C2'
A   12
O2'
A   13
C3'
A   14
O3'
A   15
C4'
A   16
O4'
A   17
C5'
A   18
O5'
M  END
>  <InstanceId>
4PB2_5UD_A_501

>  <ChemCompId>
5UD

>  <PdbId>
4PB2

>  <ChainId>
A

>  <ResidueNumber>
501

>  <InsertionCode>


>  <Model>
1

>  <AltIds>


>  <MissingHeavyAtoms>
0

>  <ObservedFormula>
C9 N2 O6 F

>  <Name>
5-FLUOROURIDINE

>  <SystematicName>
1-[(2R,3R,4S,5R)-3,4-dihydroxy-5-(hydroxymethyl)oxolan-2-yl]-5-fluoro-pyrimidine-2,4-dione

>  <Synonyms>


>  <Type>
NON-POLYMER

>  <Formula>
C9 H11 F N2 O6

>  <MolecularWeight>
262.192

>  <ModifiedDate>
2011-06-04

>  <Parent>


>  <OneLetterCode>


>  <SubcomponentList>


>  <AmbiguousFlag>
N

>  <InChI>
InChI=1S/C9H11FN2O6/c10-3-1-12(9(17)11-7(3)16)8-6(15)5(14)4(2-13)18-8/h1,4-6,8,13-15H,2H2,(H,11,16,17)/t4-,5-,6-,8-/m1/s1

>  <InChIKey>
FHIDNBAQOFJWCA-UAKXSSHOSA-N

>  <SMILES>
C1=C(C(=O)NC(=O)N1[C@H]2[C@@H]([C@@H]([C@H](O2)CO)O)O)F

$$$$
