4PB2_5UD_A_501


 22 23  0  0  0  0  0  0  0  0999 V2000
   52.2792  -19.5996   -7.8727 C   0  0  0  0  0  0  0  0  0  0  0  0
   51.8545  -18.1360   -7.8888 C   0  0  0  0  0  0  0  0  0  0  0  0
   52.7270  -17.4078   -8.7292 O   0  0  0  0  0  0  0  0  0  0  0  0
   52.0481  -17.6981   -6.4506 C   0  0  0  0  0  0  0  0  0  0  0  0
   52.3410  -16.3082   -6.3942 O   0  0  0  0  0  0  0  0  0  0  0  0
   53.2613  -18.5177   -6.0470 C   0  0  0  0  0  0  0  0  0  0  0  0
   53.1108  -19.7873   -6.7367 O   0  0  0  0  0  0  0  0  0  0  0  0
   53.6413  -17.5286   -8.4285 H   0  0  0  0  0  0  0  0  0  0  0  0
   53.1136  -16.1178   -6.9490 H   0  0  0  0  0  0  0  0  0  0  0  0
   49.3279  -22.5225   -5.4924 F   0  0  0  0  0  0  0  0  0  0  0  0
   49.6975  -21.9597   -6.6206 C   0  0  0  0  0  0  0  0  0  0  0  0
   48.9770  -22.2478   -7.8303 C   0  0  0  0  0  0  0  0  0  0  0  0
   48.0186  -23.0162   -7.8122 O   0  0  0  0  0  0  0  0  0  0  0  0
   49.3772  -21.6486   -9.0078 N   0  0  0  0  0  0  0  0  0  0  0  0
   50.4478  -20.7924   -9.0077 C   0  0  0  0  0  0  0  0  0  0  0  0
   50.8026  -20.2630  -10.0457 O   0  0  0  0  0  0  0  0  0  0  0  0
   50.7411  -21.1199   -6.6521 C   0  0  0  0  0  0  0  0  0  0  0  0
   51.1176  -20.5347   -7.8471 N   0  0  0  0  0  0  0  0  0  0  0  0
   48.8949  -21.8356   -9.8454 H   0  0  0  0  0  0  0  0  0  0  0  0
   53.2428  -18.7631   -4.5509 C   0  0  0  0  0  0  0  0  0  0  0  0
   53.1992  -17.6197   -3.7050 O   0  0  0  0  0  0  0  0  0  0  0  0
   54.0106  -17.1009   -3.8204 H   0  0  0  0  0  0  0  0  0  0  0  0
 10 11  1  0  0  0
 11 12  1  0  0  0
 11 17  2  0  0  0
 12 13  2  0  0  0
 12 14  1  0  0  0
 14 15  1  0  0  0
 15 16  2  0  0  0
 15 18  1  0  0  0
 17 18  1  0  0  0
 18  1  1  0  0  0
  1  2  1  0  0  0
  1  7  1  0  0  0
  2  3  1  0  0  0
  2  4  1  0  0  0
  4  5  1  0  0  0
  4  6  1  0  0  0
  6  7  1  0  0  0
  6 20  1  0  0  0
 20 21  1  0  0  0
 14 19  1  0  0  0
  3  8  1  0  0  0
  5  9  1  0  0  0
 21 22  1  0  0  0
M  END
> <minimizedAffinity>
-7.79443

$$$$
4PB2_5UD_A_501


 22 23  0  0  0  0  0  0  0  0999 V2000
   52.2021  -18.3337   -5.8541 C   0  0  0  0  0  0  0  0  0  0  0  0
   53.3648  -18.7573   -4.9645 C   0  0  0  0  0  0  0  0  0  0  0  0
   53.3930  -17.9368   -3.8139 O   0  0  0  0  0  0  0  0  0  0  0  0
   54.5832  -18.4766   -5.8212 C   0  0  0  0  0  0  0  0  0  0  0  0
   55.7049  -18.1797   -4.9998 O   0  0  0  0  0  0  0  0  0  0  0  0
   54.1367  -17.2418   -6.5844 C   0  0  0  0  0  0  0  0  0  0  0  0
   52.7173  -17.4349   -6.8257 O   0  0  0  0  0  0  0  0  0  0  0  0
   53.4469  -17.0061   -4.0818 H   0  0  0  0  0  0  0  0  0  0  0  0
   55.4867  -17.4420   -4.4089 H   0  0  0  0  0  0  0  0  0  0  0  0
   50.8989  -20.7425   -9.7808 F   0  0  0  0  0  0  0  0  0  0  0  0
   50.9111  -20.6326   -8.4716 C   0  0  0  0  0  0  0  0  0  0  0  0
   50.2681  -21.6344   -7.6664 C   0  0  0  0  0  0  0  0  0  0  0  0
   49.7092  -22.5910   -8.1974 O   0  0  0  0  0  0  0  0  0  0  0  0
   50.2896  -21.5052   -6.2921 N   0  0  0  0  0  0  0  0  0  0  0  0
   50.9199  -20.4319   -5.7178 C   0  0  0  0  0  0  0  0  0  0  0  0
   50.9396  -20.3160   -4.5054 O   0  0  0  0  0  0  0  0  0  0  0  0
   51.5178  -19.5937   -7.8817 C   0  0  0  0  0  0  0  0  0  0  0  0
   51.5228  -19.4924   -6.5025 N   0  0  0  0  0  0  0  0  0  0  0  0
   49.8533  -22.1822   -5.7259 H   0  0  0  0  0  0  0  0  0  0  0  0
   54.8588  -17.1697   -7.9156 C   0  0  0  0  0  0  0  0  0  0  0  0
   54.8361  -15.9228   -8.6009 O   0  0  0  0  0  0  0  0  0  0  0  0
   53.9234  -15.7060   -8.8476 H   0  0  0  0  0  0  0  0  0  0  0  0
 10 11  1  0  0  0
 11 12  1  0  0  0
 11 17  2  0  0  0
 12 13  2  0  0  0
 12 14  1  0  0  0
 14 15  1  0  0  0
 15 16  2  0  0  0
 15 18  1  0  0  0
 17 18  1  0  0  0
 18  1  1  0  0  0
  1  2  1  0  0  0
  1  7  1  0  0  0
  2  3  1  0  0  0
  2  4  1  0  0  0
  4  5  1  0  0  0
  4  6  1  0  0  0
  6  7  1  0  0  0
  6 20  1  0  0  0
 20 21  1  0  0  0
 14 19  1  0  0  0
  3  8  1  0  0  0
  5  9  1  0  0  0
 21 22  1  0  0  0
M  END
> <minimizedAffinity>
-7.17300

$$$$
4PB2_5UD_A_501


 22 23  0  0  0  0  0  0  0  0999 V2000
   55.6512  -19.0134   -6.5704 C   0  0  0  0  0  0  0  0  0  0  0  0
   55.9235  -18.0881   -7.7504 C   0  0  0  0  0  0  0  0  0  0  0  0
   56.9591  -17.1895   -7.4074 O   0  0  0  0  0  0  0  0  0  0  0  0
   54.6213  -17.3289   -7.9095 C   0  0  0  0  0  0  0  0  0  0  0  0
   54.8658  -16.0421   -8.4618 O   0  0  0  0  0  0  0  0  0  0  0  0
   54.1616  -17.2137   -6.4665 C   0  0  0  0  0  0  0  0  0  0  0  0
   54.5711  -18.4563   -5.8353 O   0  0  0  0  0  0  0  0  0  0  0  0
   56.7149  -16.7067   -6.6023 H   0  0  0  0  0  0  0  0  0  0  0  0
   55.5075  -15.5695   -7.9088 H   0  0  0  0  0  0  0  0  0  0  0  0
   54.0368  -22.1273   -9.8287 F   0  0  0  0  0  0  0  0  0  0  0  0
   54.5414  -21.8934   -8.6384 C   0  0  0  0  0  0  0  0  0  0  0  0
   54.8006  -22.9900   -7.7463 C   0  0  0  0  0  0  0  0  0  0  0  0
   54.5530  -24.1423   -8.0930 O   0  0  0  0  0  0  0  0  0  0  0  0
   55.3311  -22.7283   -6.4989 N   0  0  0  0  0  0  0  0  0  0  0  0
   55.6026  -21.4361   -6.1307 C   0  0  0  0  0  0  0  0  0  0  0  0
   56.0704  -21.2032   -5.0304 O   0  0  0  0  0  0  0  0  0  0  0  0
   54.8156  -20.6408   -8.2498 C   0  0  0  0  0  0  0  0  0  0  0  0
   55.3472  -20.4107   -6.9940 N   0  0  0  0  0  0  0  0  0  0  0  0
   55.5140  -23.4679   -5.8754 H   0  0  0  0  0  0  0  0  0  0  0  0
   52.6501  -17.1077   -6.4141 C   0  0  0  0  0  0  0  0  0  0  0  0
   52.0657  -15.9028   -6.8953 O   0  0  0  0  0  0  0  0  0  0  0  0
   52.3455  -15.1617   -6.3355 H   0  0  0  0  0  0  0  0  0  0  0  0
 10 11  1  0  0  0
 11 12  1  0  0  0
 11 17  2  0  0  0
 12 13  2  0  0  0
 12 14  1  0  0  0
 14 15  1  0  0  0
 15 16  2  0  0  0
 15 18  1  0  0  0
 17 18  1  0  0  0
 18  1  1  0  0  0
  1  2  1  0  0  0
  1  7  1  0  0  0
  2  3  1  0  0  0
  2  4  1  0  0  0
  4  5  1  0  0  0
  4  6  1  0  0  0
  6  7  1  0  0  0
  6 20  1  0  0  0
 20 21  1  0  0  0
 14 19  1  0  0  0
  3  8  1  0  0  0
  5  9  1  0  0  0
 21 22  1  0  0  0
M  END
> <minimizedAffinity>
-6.83704

$$$$
4PB2_5UD_A_501


 22 23  0  0  0  0  0  0  0  0999 V2000
   52.5878  -20.3443   -9.0293 C   0  0  0  0  0  0  0  0  0  0  0  0
   52.7507  -21.8584   -9.0911 C   0  0  0  0  0  0  0  0  0  0  0  0
   53.5348  -22.1962  -10.2175 O   0  0  0  0  0  0  0  0  0  0  0  0
   51.3329  -22.3566   -9.2885 C   0  0  0  0  0  0  0  0  0  0  0  0
   51.3381  -23.5879   -9.9988 O   0  0  0  0  0  0  0  0  0  0  0  0
   50.7404  -21.2487  -10.1418 C   0  0  0  0  0  0  0  0  0  0  0  0
   51.3552  -20.0245   -9.6583 O   0  0  0  0  0  0  0  0  0  0  0  0
   53.1254  -21.8312  -11.0176 H   0  0  0  0  0  0  0  0  0  0  0  0
   51.8138  -23.4758  -10.8367 H   0  0  0  0  0  0  0  0  0  0  0  0
   50.6651  -19.9369   -4.6639 F   0  0  0  0  0  0  0  0  0  0  0  0
   51.6341  -19.6553   -5.5053 C   0  0  0  0  0  0  0  0  0  0  0  0
   52.7362  -18.8390   -5.0757 C   0  0  0  0  0  0  0  0  0  0  0  0
   52.7749  -18.4056   -3.9267 O   0  0  0  0  0  0  0  0  0  0  0  0
   53.7468  -18.5520   -5.9711 N   0  0  0  0  0  0  0  0  0  0  0  0
   53.6870  -19.0462   -7.2483 C   0  0  0  0  0  0  0  0  0  0  0  0
   54.5776  -18.7937   -8.0400 O   0  0  0  0  0  0  0  0  0  0  0  0
   51.6024  -20.1227   -6.7606 C   0  0  0  0  0  0  0  0  0  0  0  0
   52.6302  -19.8182   -7.6344 N   0  0  0  0  0  0  0  0  0  0  0  0
   54.5086  -17.9937   -5.6932 H   0  0  0  0  0  0  0  0  0  0  0  0
   49.2428  -21.1711   -9.9182 C   0  0  0  0  0  0  0  0  0  0  0  0
   48.4031  -21.5807  -10.9916 O   0  0  0  0  0  0  0  0  0  0  0  0
   48.5315  -20.9866  -11.7475 H   0  0  0  0  0  0  0  0  0  0  0  0
 10 11  1  0  0  0
 11 12  1  0  0  0
 11 17  2  0  0  0
 12 13  2  0  0  0
 12 14  1  0  0  0
 14 15  1  0  0  0
 15 16  2  0  0  0
 15 18  1  0  0  0
 17 18  1  0  0  0
 18  1  1  0  0  0
  1  2  1  0  0  0
  1  7  1  0  0  0
  2  3  1  0  0  0
  2  4  1  0  0  0
  4  5  1  0  0  0
  4  6  1  0  0  0
  6  7  1  0  0  0
  6 20  1  0  0  0
 20 21  1  0  0  0
 14 19  1  0  0  0
  3  8  1  0  0  0
  5  9  1  0  0  0
 21 22  1  0  0  0
M  END
> <minimizedAffinity>
-6.69520

$$$$
4PB2_5UD_A_501


 22 23  0  0  0  0  0  0  0  0999 V2000
   54.5599  -18.6217   -7.9230 C   0  0  0  0  0  0  0  0  0  0  0  0
   53.6677  -17.3863   -7.9416 C   0  0  0  0  0  0  0  0  0  0  0  0
   54.4574  -16.2463   -8.2149 O   0  0  0  0  0  0  0  0  0  0  0  0
   53.1397  -17.3128   -6.5227 C   0  0  0  0  0  0  0  0  0  0  0  0
   52.8601  -15.9642   -6.1706 O   0  0  0  0  0  0  0  0  0  0  0  0
   54.3258  -17.8375   -5.7324 C   0  0  0  0  0  0  0  0  0  0  0  0
   54.9176  -18.8661   -6.5703 O   0  0  0  0  0  0  0  0  0  0  0  0
   55.1706  -16.1827   -7.5605 H   0  0  0  0  0  0  0  0  0  0  0  0
   53.6555  -15.4245   -6.3007 H   0  0  0  0  0  0  0  0  0  0  0  0
   50.7301  -20.7358   -9.8677 F   0  0  0  0  0  0  0  0  0  0  0  0
   51.9831  -20.8000   -9.4778 C   0  0  0  0  0  0  0  0  0  0  0  0
   52.7171  -22.0253   -9.6372 C   0  0  0  0  0  0  0  0  0  0  0  0
   52.1778  -23.0099  -10.1364 O   0  0  0  0  0  0  0  0  0  0  0  0
   54.0329  -22.0772   -9.2229 N   0  0  0  0  0  0  0  0  0  0  0  0
   54.6180  -20.9677   -8.6700 C   0  0  0  0  0  0  0  0  0  0  0  0
   55.7788  -21.0117   -8.3035 O   0  0  0  0  0  0  0  0  0  0  0  0
   52.5815  -19.7325   -8.9323 C   0  0  0  0  0  0  0  0  0  0  0  0
   53.9012  -19.8155   -8.5274 N   0  0  0  0  0  0  0  0  0  0  0  0
   54.5498  -22.9090   -9.3243 H   0  0  0  0  0  0  0  0  0  0  0  0
   53.8454  -18.4689   -4.4404 C   0  0  0  0  0  0  0  0  0  0  0  0
   53.1283  -17.6356   -3.5369 O   0  0  0  0  0  0  0  0  0  0  0  0
   53.7102  -16.9278   -3.2185 H   0  0  0  0  0  0  0  0  0  0  0  0
 10 11  1  0  0  0
 11 12  1  0  0  0
 11 17  2  0  0  0
 12 13  2  0  0  0
 12 14  1  0  0  0
 14 15  1  0  0  0
 15 16  2  0  0  0
 15 18  1  0  0  0
 17 18  1  0  0  0
 18  1  1  0  0  0
  1  2  1  0  0  0
  1  7  1  0  0  0
  2  3  1  0  0  0
  2  4  1  0  0  0
  4  5  1  0  0  0
  4  6  1  0  0  0
  6  7  1  0  0  0
  6 20  1  0  0  0
 20 21  1  0  0  0
 14 19  1  0  0  0
  3  8  1  0  0  0
  5  9  1  0  0  0
 21 22  1  0  0  0
M  END
> <minimizedAffinity>
-6.67193

$$$$
4PB2_5UD_A_501


 22 23  0  0  0  0  0  0  0  0999 V2000
   53.3273  -19.4900   -8.2823 C   0  0  0  0  0  0  0  0  0  0  0  0
   53.1523  -17.9795   -8.1801 C   0  0  0  0  0  0  0  0  0  0  0  0
   53.5562  -17.3812   -9.3953 O   0  0  0  0  0  0  0  0  0  0  0  0
   54.1132  -17.5885   -7.0750 C   0  0  0  0  0  0  0  0  0  0  0  0
   54.5739  -16.2580   -7.2710 O   0  0  0  0  0  0  0  0  0  0  0  0
   55.2408  -18.5828   -7.2905 C   0  0  0  0  0  0  0  0  0  0  0  0
   54.5911  -19.8095   -7.7186 O   0  0  0  0  0  0  0  0  0  0  0  0
   54.4697  -17.6392   -9.5947 H   0  0  0  0  0  0  0  0  0  0  0  0
   54.9689  -16.1793   -8.1534 H   0  0  0  0  0  0  0  0  0  0  0  0
   51.4938  -21.5828   -4.3864 F   0  0  0  0  0  0  0  0  0  0  0  0
   51.3834  -21.2552   -5.6540 C   0  0  0  0  0  0  0  0  0  0  0  0
   50.2023  -21.6240   -6.3850 C   0  0  0  0  0  0  0  0  0  0  0  0
   49.2977  -22.2423   -5.8293 O   0  0  0  0  0  0  0  0  0  0  0  0
   50.1008  -21.2726   -7.7162 N   0  0  0  0  0  0  0  0  0  0  0  0
   51.1196  -20.5810   -8.3185 C   0  0  0  0  0  0  0  0  0  0  0  0
   51.0321  -20.2703   -9.4930 O   0  0  0  0  0  0  0  0  0  0  0  0
   52.3635  -20.5807   -6.2703 C   0  0  0  0  0  0  0  0  0  0  0  0
   52.2323  -20.2425   -7.6048 N   0  0  0  0  0  0  0  0  0  0  0  0
   49.2987  -21.5180   -8.2316 H   0  0  0  0  0  0  0  0  0  0  0  0
   55.9614  -18.8365   -5.9809 C   0  0  0  0  0  0  0  0  0  0  0  0
   56.9185  -17.8681   -5.5672 O   0  0  0  0  0  0  0  0  0  0  0  0
   57.6490  -17.8425   -6.2049 H   0  0  0  0  0  0  0  0  0  0  0  0
 10 11  1  0  0  0
 11 12  1  0  0  0
 11 17  2  0  0  0
 12 13  2  0  0  0
 12 14  1  0  0  0
 14 15  1  0  0  0
 15 16  2  0  0  0
 15 18  1  0  0  0
 17 18  1  0  0  0
 18  1  1  0  0  0
  1  2  1  0  0  0
  1  7  1  0  0  0
  2  3  1  0  0  0
  2  4  1  0  0  0
  4  5  1  0  0  0
  4  6  1  0  0  0
  6  7  1  0  0  0
  6 20  1  0  0  0
 20 21  1  0  0  0
 14 19  1  0  0  0
  3  8  1  0  0  0
  5  9  1  0  0  0
 21 22  1  0  0  0
M  END
> <minimizedAffinity>
-6.63012

$$$$
4PB2_5UD_A_501


 22 23  0  0  0  0  0  0  0  0999 V2000
   54.0567  -18.2771   -8.0182 C   0  0  0  0  0  0  0  0  0  0  0  0
   54.5121  -17.0504   -7.2369 C   0  0  0  0  0  0  0  0  0  0  0  0
   54.7013  -15.9728   -8.1318 O   0  0  0  0  0  0  0  0  0  0  0  0
   55.8481  -17.4762   -6.6615 C   0  0  0  0  0  0  0  0  0  0  0  0
   56.6913  -16.3453   -6.4851 O   0  0  0  0  0  0  0  0  0  0  0  0
   56.3795  -18.3731   -7.7659 C   0  0  0  0  0  0  0  0  0  0  0  0
   55.2123  -19.0534   -8.2998 O   0  0  0  0  0  0  0  0  0  0  0  0
   55.3321  -16.2323   -8.8214 H   0  0  0  0  0  0  0  0  0  0  0  0
   56.7816  -15.8747   -7.3285 H   0  0  0  0  0  0  0  0  0  0  0  0
   52.3714  -20.1700   -3.9567 F   0  0  0  0  0  0  0  0  0  0  0  0
   52.2579  -19.9854   -5.2526 C   0  0  0  0  0  0  0  0  0  0  0  0
   51.1462  -20.5597   -5.9595 C   0  0  0  0  0  0  0  0  0  0  0  0
   50.3037  -21.2204   -5.3570 O   0  0  0  0  0  0  0  0  0  0  0  0
   51.0406  -20.3568   -7.3209 N   0  0  0  0  0  0  0  0  0  0  0  0
   51.9895  -19.6151   -7.9755 C   0  0  0  0  0  0  0  0  0  0  0  0
   51.8983  -19.4352   -9.1767 O   0  0  0  0  0  0  0  0  0  0  0  0
   53.1707  -19.2665   -5.9198 C   0  0  0  0  0  0  0  0  0  0  0  0
   53.0371  -19.0804   -7.2836 N   0  0  0  0  0  0  0  0  0  0  0  0
   50.2857  -20.7438   -7.8204 H   0  0  0  0  0  0  0  0  0  0  0  0
   57.3274  -19.4026   -7.1824 C   0  0  0  0  0  0  0  0  0  0  0  0
   56.7475  -20.4961   -6.4803 O   0  0  0  0  0  0  0  0  0  0  0  0
   56.2875  -20.1670   -5.6923 H   0  0  0  0  0  0  0  0  0  0  0  0
 10 11  1  0  0  0
 11 12  1  0  0  0
 11 17  2  0  0  0
 12 13  2  0  0  0
 12 14  1  0  0  0
 14 15  1  0  0  0
 15 16  2  0  0  0
 15 18  1  0  0  0
 17 18  1  0  0  0
 18  1  1  0  0  0
  1  2  1  0  0  0
  1  7  1  0  0  0
  2  3  1  0  0  0
  2  4  1  0  0  0
  4  5  1  0  0  0
  4  6  1  0  0  0
  6  7  1  0  0  0
  6 20  1  0  0  0
 20 21  1  0  0  0
 14 19  1  0  0  0
  3  8  1  0  0  0
  5  9  1  0  0  0
 21 22  1  0  0  0
M  END
> <minimizedAffinity>
-6.55604

$$$$
4PB2_5UD_A_501


 22 23  0  0  0  0  0  0  0  0999 V2000
   54.7229  -19.5654   -7.7439 C   0  0  0  0  0  0  0  0  0  0  0  0
   55.2039  -18.3764   -8.5671 C   0  0  0  0  0  0  0  0  0  0  0  0
   56.5082  -18.0217   -8.1538 O   0  0  0  0  0  0  0  0  0  0  0  0
   54.2329  -17.2743   -8.1931 C   0  0  0  0  0  0  0  0  0  0  0  0
   54.8604  -16.0042   -8.3111 O   0  0  0  0  0  0  0  0  0  0  0  0
   53.9538  -17.6004   -6.7363 C   0  0  0  0  0  0  0  0  0  0  0  0
   53.9598  -19.0511   -6.6621 O   0  0  0  0  0  0  0  0  0  0  0  0
   56.5074  -17.8408   -7.2008 H   0  0  0  0  0  0  0  0  0  0  0  0
   55.6660  -15.9902   -7.7710 H   0  0  0  0  0  0  0  0  0  0  0  0
   50.7056  -20.7625  -10.0563 F   0  0  0  0  0  0  0  0  0  0  0  0
   51.9239  -21.0676   -9.6704 C   0  0  0  0  0  0  0  0  0  0  0  0
   52.4866  -22.3409  -10.0274 C   0  0  0  0  0  0  0  0  0  0  0  0
   51.8336  -23.1423  -10.6913 O   0  0  0  0  0  0  0  0  0  0  0  0
   53.7679  -22.6470   -9.6147 N   0  0  0  0  0  0  0  0  0  0  0  0
   54.4816  -21.7391   -8.8763 C   0  0  0  0  0  0  0  0  0  0  0  0
   55.6122  -22.0074   -8.5109 O   0  0  0  0  0  0  0  0  0  0  0  0
   52.6452  -20.2012   -8.9462 C   0  0  0  0  0  0  0  0  0  0  0  0
   53.9264  -20.5366   -8.5481 N   0  0  0  0  0  0  0  0  0  0  0  0
   54.1680  -23.5151   -9.8502 H   0  0  0  0  0  0  0  0  0  0  0  0
   52.5791  -17.0916   -6.3486 C   0  0  0  0  0  0  0  0  0  0  0  0
   52.1722  -15.8404   -6.8907 O   0  0  0  0  0  0  0  0  0  0  0  0
   52.7545  -15.1394   -6.5585 H   0  0  0  0  0  0  0  0  0  0  0  0
 10 11  1  0  0  0
 11 12  1  0  0  0
 11 17  2  0  0  0
 12 13  2  0  0  0
 12 14  1  0  0  0
 14 15  1  0  0  0
 15 16  2  0  0  0
 15 18  1  0  0  0
 17 18  1  0  0  0
 18  1  1  0  0  0
  1  2  1  0  0  0
  1  7  1  0  0  0
  2  3  1  0  0  0
  2  4  1  0  0  0
  4  5  1  0  0  0
  4  6  1  0  0  0
  6  7  1  0  0  0
  6 20  1  0  0  0
 20 21  1  0  0  0
 14 19  1  0  0  0
  3  8  1  0  0  0
  5  9  1  0  0  0
 21 22  1  0  0  0
M  END
> <minimizedAffinity>
-6.52089

$$$$
4PB2_5UD_A_501


 22 23  0  0  0  0  0  0  0  0999 V2000
   53.2177  -19.5694   -8.5118 C   0  0  0  0  0  0  0  0  0  0  0  0
   52.7963  -18.1171   -8.7010 C   0  0  0  0  0  0  0  0  0  0  0  0
   53.9424  -17.3295   -8.9542 O   0  0  0  0  0  0  0  0  0  0  0  0
   52.2080  -17.7436   -7.3550 C   0  0  0  0  0  0  0  0  0  0  0  0
   52.3687  -16.3515   -7.1164 O   0  0  0  0  0  0  0  0  0  0  0  0
   53.0795  -18.5528   -6.4104 C   0  0  0  0  0  0  0  0  0  0  0  0
   53.3593  -19.7914   -7.1161 O   0  0  0  0  0  0  0  0  0  0  0  0
   54.5788  -17.4430   -8.2311 H   0  0  0  0  0  0  0  0  0  0  0  0
   53.3069  -16.1169   -7.1911 H   0  0  0  0  0  0  0  0  0  0  0  0
   48.7557  -20.7534   -9.7800 F   0  0  0  0  0  0  0  0  0  0  0  0
   50.0324  -21.0567   -9.7136 C   0  0  0  0  0  0  0  0  0  0  0  0
   50.4923  -22.3194  -10.2232 C   0  0  0  0  0  0  0  0  0  0  0  0
   49.6972  -23.1134  -10.7200 O   0  0  0  0  0  0  0  0  0  0  0  0
   51.8366  -22.6237  -10.1465 N   0  0  0  0  0  0  0  0  0  0  0  0
   52.7088  -21.7241   -9.5905 C   0  0  0  0  0  0  0  0  0  0  0  0
   53.8953  -21.9909   -9.5217 O   0  0  0  0  0  0  0  0  0  0  0  0
   50.9085  -20.1984   -9.1742 C   0  0  0  0  0  0  0  0  0  0  0  0
   52.2492  -20.5317   -9.1122 N   0  0  0  0  0  0  0  0  0  0  0  0
   52.1681  -23.4846  -10.4903 H   0  0  0  0  0  0  0  0  0  0  0  0
   52.3099  -18.8695   -5.1430 C   0  0  0  0  0  0  0  0  0  0  0  0
   52.8409  -18.3743   -3.9191 O   0  0  0  0  0  0  0  0  0  0  0  0
   53.7012  -18.7887   -3.7488 H   0  0  0  0  0  0  0  0  0  0  0  0
 10 11  1  0  0  0
 11 12  1  0  0  0
 11 17  2  0  0  0
 12 13  2  0  0  0
 12 14  1  0  0  0
 14 15  1  0  0  0
 15 16  2  0  0  0
 15 18  1  0  0  0
 17 18  1  0  0  0
 18  1  1  0  0  0
  1  2  1  0  0  0
  1  7  1  0  0  0
  2  3  1  0  0  0
  2  4  1  0  0  0
  4  5  1  0  0  0
  4  6  1  0  0  0
  6  7  1  0  0  0
  6 20  1  0  0  0
 20 21  1  0  0  0
 14 19  1  0  0  0
  3  8  1  0  0  0
  5  9  1  0  0  0
 21 22  1  0  0  0
M  END
> <minimizedAffinity>
-6.46131

$$$$
4PB2_5UD_A_501


 22 23  0  0  0  0  0  0  0  0999 V2000
   51.2445  -21.5502   -7.1782 C   0  0  0  0  0  0  0  0  0  0  0  0
   49.8115  -21.6832   -7.6797 C   0  0  0  0  0  0  0  0  0  0  0  0
   49.1820  -22.7567   -7.0095 O   0  0  0  0  0  0  0  0  0  0  0  0
   49.9828  -22.0275   -9.1459 C   0  0  0  0  0  0  0  0  0  0  0  0
   48.8820  -22.8031   -9.6014 O   0  0  0  0  0  0  0  0  0  0  0  0
   51.2500  -22.8640   -9.1127 C   0  0  0  0  0  0  0  0  0  0  0  0
   52.0777  -22.2621   -8.0817 O   0  0  0  0  0  0  0  0  0  0  0  0
   49.6999  -23.5666   -7.1384 H   0  0  0  0  0  0  0  0  0  0  0  0
   48.7877  -23.5902   -9.0424 H   0  0  0  0  0  0  0  0  0  0  0  0
   53.1808  -17.5990   -9.0647 F   0  0  0  0  0  0  0  0  0  0  0  0
   52.6403  -18.2164   -8.0385 C   0  0  0  0  0  0  0  0  0  0  0  0
   52.4692  -17.5163   -6.7951 C   0  0  0  0  0  0  0  0  0  0  0  0
   52.8253  -16.3452   -6.6896 O   0  0  0  0  0  0  0  0  0  0  0  0
   51.8996  -18.1783   -5.7260 N   0  0  0  0  0  0  0  0  0  0  0  0
   51.5067  -19.4843   -5.8635 C   0  0  0  0  0  0  0  0  0  0  0  0
   51.0042  -20.0703   -4.9212 O   0  0  0  0  0  0  0  0  0  0  0  0
   52.2480  -19.4933   -8.1422 C   0  0  0  0  0  0  0  0  0  0  0  0
   51.6801  -20.1292   -7.0534 N   0  0  0  0  0  0  0  0  0  0  0  0
   51.7759  -17.7135   -4.8669 H   0  0  0  0  0  0  0  0  0  0  0  0
   51.9685  -22.7638  -10.4441 C   0  0  0  0  0  0  0  0  0  0  0  0
   51.1720  -22.8439  -11.6205 O   0  0  0  0  0  0  0  0  0  0  0  0
   50.7593  -23.7202  -11.6725 H   0  0  0  0  0  0  0  0  0  0  0  0
 10 11  1  0  0  0
 11 12  1  0  0  0
 11 17  2  0  0  0
 12 13  2  0  0  0
 12 14  1  0  0  0
 14 15  1  0  0  0
 15 16  2  0  0  0
 15 18  1  0  0  0
 17 18  1  0  0  0
 18  1  1  0  0  0
  1  2  1  0  0  0
  1  7  1  0  0  0
  2  3  1  0  0  0
  2  4  1  0  0  0
  4  5  1  0  0  0
  4  6  1  0  0  0
  6  7  1  0  0  0
  6 20  1  0  0  0
 20 21  1  0  0  0
 14 19  1  0  0  0
  3  8  1  0  0  0
  5  9  1  0  0  0
 21 22  1  0  0  0
M  END
> <minimizedAffinity>
-6.44666

$$$$
