4Q4R_SQO_A_405
  RCSB PDB12061714213D
Coordinates from PDB:4Q4R:A:405 Model:1 without hydrogens
 23 26  0  0  0  0            999 V2000
  106.9150   17.7540   24.4610   N 0  0  0  0  0  0  0  0  0  0  0  0
  105.3960   17.3400   22.6940   N 0  0  0  0  0  0  0  0  0  0  0  0
  106.4020   17.6830   21.7930   C 0  0  0  0  0  0  0  0  0  0  0  0
  107.6910   18.0460   22.2190   C 0  0  0  0  0  0  0  0  0  0  0  0
  107.9710   18.0990   23.6560   C 0  0  0  0  0  0  0  0  0  0  0  0
  108.6590   18.3950   21.2830   C 0  0  0  0  0  0  0  0  0  0  0  0
  108.3410   18.4280   19.9420   C 0  0  0  0  0  0  0  0  0  0  0  0
  106.0870   17.7100   20.4270   C 0  0  0  0  0  0  0  0  0  0  0  0
  109.0400   18.8010   18.8110   N 0  0  0  0  0  0  0  0  0  0  0  0
  108.1750   18.7150   17.7770   C 0  0  0  0  0  0  0  0  0  0  0  0
  105.6840   17.3860   23.9930   C 0  0  0  0  0  0  0  0  0  0  0  0
  107.0580   18.1040   19.5020   C 0  0  0  0  0  0  0  0  0  0  0  0
  106.9690   18.2990   18.1240   N 0  0  0  0  0  0  0  0  0  0  0  0
  108.5620   19.0390   16.5380   N 0  0  0  0  0  0  0  0  0  0  0  0
  109.0420   18.4630   24.1310   O 0  0  0  0  0  0  0  0  0  0  0  0
  107.6540   18.9930   15.4030   C 0  0  0  0  0  0  0  0  0  0  0  0
  108.3730   19.2130   14.1000   C 0  0  0  0  0  0  0  0  0  0  0  0
  107.4350   19.2530   12.9740   N 0  0  0  0  0  0  0  0  0  0  0  0
  108.0830   18.8720   11.7190   C 0  0  0  0  0  0  0  0  0  0  0  0
  107.0850   18.9080   10.5920   C 0  0  0  0  0  0  0  0  0  0  0  0
  106.5050   20.2000   10.4490   O 0  0  0  0  0  0  0  0  0  0  0  0
  105.8700   20.5850   11.6660   C 0  0  0  0  0  0  0  0  0  0  0  0
  106.8390   20.5830   12.8210   C 0  0  0  0  0  0  0  0  0  0  0  0
  1  5  1  0  0  0  0
  1 11  1  0  0  0  0
  2  3  1  0  0  0  0
  2 11  2  0  0  0  0
  3  4  2  0  0  0  0
  3  8  1  0  0  0  0
  4  5  1  0  0  0  0
  4  6  1  0  0  0  0
  5 15  2  0  0  0  0
  6  7  2  0  0  0  0
  7  9  1  0  0  0  0
  7 12  1  0  0  0  0
  8 12  2  0  0  0  0
  9 10  1  0  0  0  0
 10 13  2  0  0  0  0
 10 14  1  0  0  0  0
 12 13  1  0  0  0  0
 14 16  1  0  0  0  0
 16 17  1  0  0  0  0
 17 18  1  0  0  0  0
 18 19  1  0  0  0  0
 18 23  1  0  0  0  0
 19 20  1  0  0  0  0
 20 21  1  0  0  0  0
 21 22  1  0  0  0  0
 22 23  1  0  0  0  0
A    1
N1
A    2
N3
A    3
C4
A    4
C5
A    5
C6
A    6
C7
A    7
C8
A    8
C10
A    9
N12
A   10
C13
A   11
C2
A   12
C9
A   13
N14
A   14
N15
A   15
O16
A   16
C25
A   17
C11
A   18
N6
A   19
C12
A   20
C131
A   21
O2
A   22
C14
A   23
C15
M  END
>  <InstanceId>
4Q4R_SQO_A_405

>  <ChemCompId>
SQO

>  <PdbId>
4Q4R

>  <ChainId>
A

>  <ResidueNumber>
405

>  <InsertionCode>


>  <Model>
1

>  <AltIds>


>  <MissingHeavyAtoms>
0

>  <ObservedFormula>
C15 N6 O2

>  <Name>
2-{[2-(4-Morpholinyl)ethyl]amino}-1,7-dihydro-8H-imidazo[4,5-g]quinazolin-8-one

>  <SystematicName>
2-(2-morpholin-4-ylethylamino)-1,7-dihydropyrimido[6,5-f]benzimidazol-8-one

>  <Synonyms>


>  <Type>
NON-POLYMER

>  <Formula>
C15 H18 N6 O2

>  <MolecularWeight>
314.342

>  <ModifiedDate>
2011-06-04

>  <Parent>


>  <OneLetterCode>


>  <SubcomponentList>


>  <AmbiguousFlag>
N

>  <InChI>
InChI=1S/C15H18N6O2/c22-14-10-7-12-13(8-11(10)17-9-18-14)20-15(19-12)16-1-2-21-3-5-23-6-4-21/h7-9H,1-6H2,(H2,16,19,20)(H,17,18,22)

>  <InChIKey>
IQPSZZDLHUVVGO-UHFFFAOYSA-N

>  <SMILES>
c1c2c(cc3c1[nH]c(n3)NCCN4CCOCC4)N=CNC2=O

$$$$
