1R1J_OIR_A_2001


 32 33  0  0  0  0  0  0  0  0999 V2000
   29.6461   43.6968   33.2346 C   0  0  0  0  0  0  0  0  0  0  0  0
   29.3612   43.7404   30.6674 O   0  0  0  0  0  0  0  0  0  0  0  0
   28.6885   42.9098   31.2544 C   0  0  0  0  0  0  0  0  0  0  0  0
   28.7121   42.7939   32.5754 N   0  0  0  0  0  0  0  0  0  0  0  0
   28.1481   42.1541   33.0671 H   0  0  0  0  0  0  0  0  0  0  0  0
   27.7859   42.0294   30.4557 C   0  0  0  0  0  0  0  0  0  0  0  0
   27.4069   42.9521   28.9571 S   0  0  0  0  0  0  0  0  0  0  0  0
   26.8056   44.1263   29.2876 H   0  0  0  0  0  0  0  0  0  0  0  0
   26.5155   41.6682   31.2114 C   0  0  0  0  0  0  0  0  0  0  0  0
   26.5659   40.1867   31.5050 C   0  0  0  0  0  0  0  0  0  0  0  0
   27.0340   39.2930   30.5509 C   0  0  0  0  0  0  0  0  0  0  0  0
   27.0668   37.9329   30.8307 C   0  0  0  0  0  0  0  0  0  0  0  0
   26.6336   37.4643   32.0666 C   0  0  0  0  0  0  0  0  0  0  0  0
   26.1683   38.3581   33.0208 C   0  0  0  0  0  0  0  0  0  0  0  0
   26.1328   39.7191   32.7388 C   0  0  0  0  0  0  0  0  0  0  0  0
   30.2529   43.0456   34.4509 C   0  0  0  0  0  0  0  0  0  0  0  0
   31.4456   43.1474   34.6473 O   0  0  0  0  0  0  0  0  0  0  0  0
   29.4473   42.3671   35.2559 N   0  0  0  0  0  0  0  0  0  0  0  0
   28.5215   42.1885   34.9726 H   0  0  0  0  0  0  0  0  0  0  0  0
   29.9030   41.8804   36.5501 C   0  0  0  0  0  0  0  0  0  0  0  0
   28.8305   42.1448   37.6044 C   0  0  0  0  0  0  0  0  0  0  0  0
   30.1985   40.4092   36.4924 C   0  0  0  0  0  0  0  0  0  0  0  0
   29.2982   39.6405   36.1993 O   0  0  0  0  0  0  0  0  0  0  0  0
   31.3214   39.9770   36.7256 O   0  0  0  0  0  0  0  0  0  0  0  0
   28.4396   39.9708   36.0210 H   0  0  0  0  0  0  0  0  0  0  0  0
   28.9479   45.0066   33.5963 C   0  0  0  0  0  0  0  0  0  0  0  0
   30.0030   45.8555   34.2717 C   0  0  0  0  0  0  0  0  0  0  0  0
   29.8795   46.2198   35.6097 C   0  0  0  0  0  0  0  0  0  0  0  0
   30.8639   46.9913   36.2195 C   0  0  0  0  0  0  0  0  0  0  0  0
   31.9813   47.3905   35.4958 C   0  0  0  0  0  0  0  0  0  0  0  0
   32.1073   47.0237   34.1653 C   0  0  0  0  0  0  0  0  0  0  0  0
   31.1228   46.2591   33.5534 C   0  0  0  0  0  0  0  0  0  0  0  0
  2  3  2  0  0  0
  3  6  1  0  0  0
  3  4  1  0  0  0
  6  9  1  0  0  0
  6  7  1  0  0  0
  9 10  1  0  0  0
 10 11  2  0  0  0
 10 15  1  0  0  0
 11 12  1  0  0  0
 12 13  2  0  0  0
 13 14  1  0  0  0
 14 15  2  0  0  0
  4  1  1  0  0  0
  1 16  1  0  0  0
  1 26  1  0  0  0
 16 17  2  0  0  0
 16 18  1  0  0  0
 18 20  1  0  0  0
 20 22  1  0  0  0
 20 21  1  0  0  0
 22 23  1  0  0  0
 22 24  2  0  0  0
 26 27  1  0  0  0
 27 28  2  0  0  0
 27 32  1  0  0  0
 28 29  1  0  0  0
 29 30  2  0  0  0
 30 31  1  0  0  0
 31 32  2  0  0  0
  7  8  1  0  0  0
  4  5  1  0  0  0
 18 19  1  0  0  0
 23 25  1  0  0  0
M  END
> <minimizedAffinity>
-8.22763

$$$$
1R1J_OIR_A_2001


 32 33  0  0  0  0  0  0  0  0999 V2000
   29.4437   43.8714   33.0084 C   0  0  0  0  0  0  0  0  0  0  0  0
   29.5087   44.0656   30.4332 O   0  0  0  0  0  0  0  0  0  0  0  0
   28.6154   43.3679   30.8829 C   0  0  0  0  0  0  0  0  0  0  0  0
   28.4440   43.2014   32.1875 N   0  0  0  0  0  0  0  0  0  0  0  0
   27.7063   42.6718   32.5676 H   0  0  0  0  0  0  0  0  0  0  0  0
   27.6688   42.7186   29.9289 C   0  0  0  0  0  0  0  0  0  0  0  0
   27.6823   40.9674   30.3457 S   0  0  0  0  0  0  0  0  0  0  0  0
   28.9454   40.4801   30.2154 H   0  0  0  0  0  0  0  0  0  0  0  0
   28.0706   42.9385   28.4778 C   0  0  0  0  0  0  0  0  0  0  0  0
   27.1022   42.1634   27.6146 C   0  0  0  0  0  0  0  0  0  0  0  0
   27.5640   41.2152   26.7115 C   0  0  0  0  0  0  0  0  0  0  0  0
   26.6636   40.5162   25.9178 C   0  0  0  0  0  0  0  0  0  0  0  0
   25.2991   40.7627   26.0279 C   0  0  0  0  0  0  0  0  0  0  0  0
   24.8379   41.7085   26.9325 C   0  0  0  0  0  0  0  0  0  0  0  0
   25.7401   42.4102   27.7243 C   0  0  0  0  0  0  0  0  0  0  0  0
   29.8600   42.9987   34.1646 C   0  0  0  0  0  0  0  0  0  0  0  0
   31.0303   42.9474   34.4797 O   0  0  0  0  0  0  0  0  0  0  0  0
   28.9174   42.3033   34.7852 N   0  0  0  0  0  0  0  0  0  0  0  0
   28.0135   42.2632   34.3970 H   0  0  0  0  0  0  0  0  0  0  0  0
   29.1908   41.5976   36.0289 C   0  0  0  0  0  0  0  0  0  0  0  0
   29.2483   42.5956   37.1833 C   0  0  0  0  0  0  0  0  0  0  0  0
   28.1292   40.5719   36.3043 C   0  0  0  0  0  0  0  0  0  0  0  0
   28.4671   39.4190   36.5143 O   0  0  0  0  0  0  0  0  0  0  0  0
   26.9423   40.8764   36.3282 O   0  0  0  0  0  0  0  0  0  0  0  0
   29.3745   39.1860   36.4961 H   0  0  0  0  0  0  0  0  0  0  0  0
   28.9116   45.2188   33.4934 C   0  0  0  0  0  0  0  0  0  0  0  0
   30.0635   45.8690   34.2284 C   0  0  0  0  0  0  0  0  0  0  0  0
   29.9781   46.1464   35.5900 C   0  0  0  0  0  0  0  0  0  0  0  0
   31.0503   46.7343   36.2539 C   0  0  0  0  0  0  0  0  0  0  0  0
   32.2163   47.0353   35.5600 C   0  0  0  0  0  0  0  0  0  0  0  0
   32.3039   46.7545   34.2058 C   0  0  0  0  0  0  0  0  0  0  0  0
   31.2324   46.1737   33.5403 C   0  0  0  0  0  0  0  0  0  0  0  0
  2  3  2  0  0  0
  3  6  1  0  0  0
  3  4  1  0  0  0
  6  9  1  0  0  0
  6  7  1  0  0  0
  9 10  1  0  0  0
 10 11  2  0  0  0
 10 15  1  0  0  0
 11 12  1  0  0  0
 12 13  2  0  0  0
 13 14  1  0  0  0
 14 15  2  0  0  0
  4  1  1  0  0  0
  1 16  1  0  0  0
  1 26  1  0  0  0
 16 17  2  0  0  0
 16 18  1  0  0  0
 18 20  1  0  0  0
 20 22  1  0  0  0
 20 21  1  0  0  0
 22 23  1  0  0  0
 22 24  2  0  0  0
 26 27  1  0  0  0
 27 28  2  0  0  0
 27 32  1  0  0  0
 28 29  1  0  0  0
 29 30  2  0  0  0
 30 31  1  0  0  0
 31 32  2  0  0  0
  7  8  1  0  0  0
  4  5  1  0  0  0
 18 19  1  0  0  0
 23 25  1  0  0  0
M  END
> <minimizedAffinity>
-8.22673

$$$$
1R1J_OIR_A_2001


 32 33  0  0  0  0  0  0  0  0999 V2000
   29.4731   43.2750   34.1663 C   0  0  0  0  0  0  0  0  0  0  0  0
   29.5104   43.6274   31.6075 O   0  0  0  0  0  0  0  0  0  0  0  0
   28.5786   42.9644   32.0307 C   0  0  0  0  0  0  0  0  0  0  0  0
   28.4169   42.7274   33.3256 N   0  0  0  0  0  0  0  0  0  0  0  0
   27.6507   42.2257   33.6868 H   0  0  0  0  0  0  0  0  0  0  0  0
   27.5746   42.4424   31.0574 C   0  0  0  0  0  0  0  0  0  0  0  0
   26.5063   41.3437   32.0021 S   0  0  0  0  0  0  0  0  0  0  0  0
   27.2512   40.3440   32.5456 H   0  0  0  0  0  0  0  0  0  0  0  0
   28.2257   41.7063   29.8957 C   0  0  0  0  0  0  0  0  0  0  0  0
   27.1595   41.4700   28.8513 C   0  0  0  0  0  0  0  0  0  0  0  0
   26.5414   42.5401   28.2181 C   0  0  0  0  0  0  0  0  0  0  0  0
   25.5566   42.3090   27.2663 C   0  0  0  0  0  0  0  0  0  0  0  0
   25.1899   41.0065   26.9442 C   0  0  0  0  0  0  0  0  0  0  0  0
   25.8097   39.9373   27.5753 C   0  0  0  0  0  0  0  0  0  0  0  0
   26.7931   40.1696   28.5304 C   0  0  0  0  0  0  0  0  0  0  0  0
   29.8467   42.3046   35.2574 C   0  0  0  0  0  0  0  0  0  0  0  0
   31.0184   42.0941   35.4905 O   0  0  0  0  0  0  0  0  0  0  0  0
   28.8640   41.7032   35.9133 N   0  0  0  0  0  0  0  0  0  0  0  0
   27.9400   41.7935   35.5859 H   0  0  0  0  0  0  0  0  0  0  0  0
   29.1228   40.9121   37.1078 C   0  0  0  0  0  0  0  0  0  0  0  0
   29.2169   41.8325   38.3225 C   0  0  0  0  0  0  0  0  0  0  0  0
   28.0321   39.9031   37.3255 C   0  0  0  0  0  0  0  0  0  0  0  0
   26.8726   40.2506   37.1761 O   0  0  0  0  0  0  0  0  0  0  0  0
   28.2895   38.7469   37.6399 O   0  0  0  0  0  0  0  0  0  0  0  0
   26.6756   41.1345   36.9357 H   0  0  0  0  0  0  0  0  0  0  0  0
   29.0426   44.6218   34.7447 C   0  0  0  0  0  0  0  0  0  0  0  0
   30.3169   45.4236   34.8974 C   0  0  0  0  0  0  0  0  0  0  0  0
   30.5832   46.1276   36.0685 C   0  0  0  0  0  0  0  0  0  0  0  0
   31.7647   46.8510   36.1979 C   0  0  0  0  0  0  0  0  0  0  0  0
   32.6895   46.8622   35.1604 C   0  0  0  0  0  0  0  0  0  0  0  0
   32.4274   46.1572   33.9965 C   0  0  0  0  0  0  0  0  0  0  0  0
   31.2458   45.4399   33.8632 C   0  0  0  0  0  0  0  0  0  0  0  0
  2  3  2  0  0  0
  3  6  1  0  0  0
  3  4  1  0  0  0
  6  9  1  0  0  0
  6  7  1  0  0  0
  9 10  1  0  0  0
 10 11  2  0  0  0
 10 15  1  0  0  0
 11 12  1  0  0  0
 12 13  2  0  0  0
 13 14  1  0  0  0
 14 15  2  0  0  0
  4  1  1  0  0  0
  1 16  1  0  0  0
  1 26  1  0  0  0
 16 17  2  0  0  0
 16 18  1  0  0  0
 18 20  1  0  0  0
 20 22  1  0  0  0
 20 21  1  0  0  0
 22 23  1  0  0  0
 22 24  2  0  0  0
 26 27  1  0  0  0
 27 28  2  0  0  0
 27 32  1  0  0  0
 28 29  1  0  0  0
 29 30  2  0  0  0
 30 31  1  0  0  0
 31 32  2  0  0  0
  7  8  1  0  0  0
  4  5  1  0  0  0
 18 19  1  0  0  0
 23 25  1  0  0  0
M  END
> <minimizedAffinity>
-7.81767

$$$$
1R1J_OIR_A_2001


 32 33  0  0  0  0  0  0  0  0999 V2000
   28.5622   40.2897   26.0940 C   0  0  0  0  0  0  0  0  0  0  0  0
   26.6891   39.2178   27.5138 O   0  0  0  0  0  0  0  0  0  0  0  0
   26.3988   39.4465   26.3518 C   0  0  0  0  0  0  0  0  0  0  0  0
   27.2714   39.9685   25.5001 N   0  0  0  0  0  0  0  0  0  0  0  0
   27.0649   40.1251   24.5503 H   0  0  0  0  0  0  0  0  0  0  0  0
   25.0309   39.0880   25.8745 C   0  0  0  0  0  0  0  0  0  0  0  0
   25.1526   37.3947   25.2754 S   0  0  0  0  0  0  0  0  0  0  0  0
   26.0701   37.3331   24.2735 H   0  0  0  0  0  0  0  0  0  0  0  0
   24.5390   40.0217   24.7783 C   0  0  0  0  0  0  0  0  0  0  0  0
   23.6103   41.0269   25.4191 C   0  0  0  0  0  0  0  0  0  0  0  0
   23.1749   40.8533   26.7262 C   0  0  0  0  0  0  0  0  0  0  0  0
   22.3143   41.7802   27.3001 C   0  0  0  0  0  0  0  0  0  0  0  0
   21.8895   42.8842   26.5683 C   0  0  0  0  0  0  0  0  0  0  0  0
   22.3269   43.0586   25.2630 C   0  0  0  0  0  0  0  0  0  0  0  0
   23.1858   42.1286   24.6880 C   0  0  0  0  0  0  0  0  0  0  0  0
   28.5333   41.6544   26.7331 C   0  0  0  0  0  0  0  0  0  0  0  0
   28.5375   42.6415   26.0279 O   0  0  0  0  0  0  0  0  0  0  0  0
   28.5201   41.7171   28.0572 N   0  0  0  0  0  0  0  0  0  0  0  0
   28.6700   40.8965   28.5801 H   0  0  0  0  0  0  0  0  0  0  0  0
   28.2887   42.9741   28.7543 C   0  0  0  0  0  0  0  0  0  0  0  0
   26.7892   43.1798   28.9574 C   0  0  0  0  0  0  0  0  0  0  0  0
   28.9813   42.9801   30.0867 C   0  0  0  0  0  0  0  0  0  0  0  0
   29.2466   41.9135   30.6153 O   0  0  0  0  0  0  0  0  0  0  0  0
   29.2868   44.0305   30.6393 O   0  0  0  0  0  0  0  0  0  0  0  0
   29.0131   41.1104   30.1929 H   0  0  0  0  0  0  0  0  0  0  0  0
   29.6660   40.1925   25.0424 C   0  0  0  0  0  0  0  0  0  0  0  0
   30.5034   38.9972   25.4426 C   0  0  0  0  0  0  0  0  0  0  0  0
   31.8311   39.1519   25.8317 C   0  0  0  0  0  0  0  0  0  0  0  0
   32.5845   38.0442   26.2077 C   0  0  0  0  0  0  0  0  0  0  0  0
   32.0082   36.7795   26.2075 C   0  0  0  0  0  0  0  0  0  0  0  0
   30.6851   36.6256   25.8253 C   0  0  0  0  0  0  0  0  0  0  0  0
   29.9335   37.7292   25.4436 C   0  0  0  0  0  0  0  0  0  0  0  0
  2  3  2  0  0  0
  3  6  1  0  0  0
  3  4  1  0  0  0
  6  9  1  0  0  0
  6  7  1  0  0  0
  9 10  1  0  0  0
 10 11  2  0  0  0
 10 15  1  0  0  0
 11 12  1  0  0  0
 12 13  2  0  0  0
 13 14  1  0  0  0
 14 15  2  0  0  0
  4  1  1  0  0  0
  1 16  1  0  0  0
  1 26  1  0  0  0
 16 17  2  0  0  0
 16 18  1  0  0  0
 18 20  1  0  0  0
 20 22  1  0  0  0
 20 21  1  0  0  0
 22 23  1  0  0  0
 22 24  2  0  0  0
 26 27  1  0  0  0
 27 28  2  0  0  0
 27 32  1  0  0  0
 28 29  1  0  0  0
 29 30  2  0  0  0
 30 31  1  0  0  0
 31 32  2  0  0  0
  7  8  1  0  0  0
  4  5  1  0  0  0
 18 19  1  0  0  0
 23 25  1  0  0  0
M  END
> <minimizedAffinity>
-7.20602

$$$$
1R1J_OIR_A_2001


 32 33  0  0  0  0  0  0  0  0999 V2000
   26.7823   39.0199   35.3756 C   0  0  0  0  0  0  0  0  0  0  0  0
   27.2573   41.5240   35.7966 O   0  0  0  0  0  0  0  0  0  0  0  0
   28.2249   40.7867   35.8804 C   0  0  0  0  0  0  0  0  0  0  0  0
   28.1342   39.4819   35.6608 N   0  0  0  0  0  0  0  0  0  0  0  0
   28.9118   38.8787   35.6881 H   0  0  0  0  0  0  0  0  0  0  0  0
   29.5533   41.3870   36.2012 C   0  0  0  0  0  0  0  0  0  0  0  0
   30.2799   40.3192   37.4553 S   0  0  0  0  0  0  0  0  0  0  0  0
   29.4661   40.2801   38.5443 H   0  0  0  0  0  0  0  0  0  0  0  0
   29.4334   42.8180   36.7043 C   0  0  0  0  0  0  0  0  0  0  0  0
   30.0330   43.7223   35.6524 C   0  0  0  0  0  0  0  0  0  0  0  0
   30.3575   43.2267   34.3966 C   0  0  0  0  0  0  0  0  0  0  0  0
   30.9162   44.0667   33.4419 C   0  0  0  0  0  0  0  0  0  0  0  0
   31.1491   45.4050   33.7409 C   0  0  0  0  0  0  0  0  0  0  0  0
   30.8222   45.9005   34.9952 C   0  0  0  0  0  0  0  0  0  0  0  0
   30.2660   45.0582   35.9515 C   0  0  0  0  0  0  0  0  0  0  0  0
   26.0751   38.6170   36.6442 C   0  0  0  0  0  0  0  0  0  0  0  0
   25.1757   39.3109   37.0697 O   0  0  0  0  0  0  0  0  0  0  0  0
   26.4834   37.5143   37.2564 N   0  0  0  0  0  0  0  0  0  0  0  0
   27.3104   37.0735   36.9546 H   0  0  0  0  0  0  0  0  0  0  0  0
   25.7344   36.9415   38.3656 C   0  0  0  0  0  0  0  0  0  0  0  0
   24.7505   35.9002   37.8370 C   0  0  0  0  0  0  0  0  0  0  0  0
   26.6600   36.2993   39.3585 C   0  0  0  0  0  0  0  0  0  0  0  0
   26.2747   36.1441   40.5053 O   0  0  0  0  0  0  0  0  0  0  0  0
   27.7812   35.9264   39.0332 O   0  0  0  0  0  0  0  0  0  0  0  0
   25.4175   36.4291   40.7541 H   0  0  0  0  0  0  0  0  0  0  0  0
   26.8185   37.8697   34.3709 C   0  0  0  0  0  0  0  0  0  0  0  0
   26.4345   38.4809   33.0408 C   0  0  0  0  0  0  0  0  0  0  0  0
   25.8193   39.7281   32.9775 C   0  0  0  0  0  0  0  0  0  0  0  0
   25.4827   40.2816   31.7462 C   0  0  0  0  0  0  0  0  0  0  0  0
   25.7717   39.5943   30.5733 C   0  0  0  0  0  0  0  0  0  0  0  0
   26.3889   38.3550   30.6354 C   0  0  0  0  0  0  0  0  0  0  0  0
   26.7198   37.7983   31.8638 C   0  0  0  0  0  0  0  0  0  0  0  0
  2  3  2  0  0  0
  3  6  1  0  0  0
  3  4  1  0  0  0
  6  9  1  0  0  0
  6  7  1  0  0  0
  9 10  1  0  0  0
 10 11  2  0  0  0
 10 15  1  0  0  0
 11 12  1  0  0  0
 12 13  2  0  0  0
 13 14  1  0  0  0
 14 15  2  0  0  0
  4  1  1  0  0  0
  1 16  1  0  0  0
  1 26  1  0  0  0
 16 17  2  0  0  0
 16 18  1  0  0  0
 18 20  1  0  0  0
 20 22  1  0  0  0
 20 21  1  0  0  0
 22 23  1  0  0  0
 22 24  2  0  0  0
 26 27  1  0  0  0
 27 28  2  0  0  0
 27 32  1  0  0  0
 28 29  1  0  0  0
 29 30  2  0  0  0
 30 31  1  0  0  0
 31 32  2  0  0  0
  7  8  1  0  0  0
  4  5  1  0  0  0
 18 19  1  0  0  0
 23 25  1  0  0  0
M  END
> <minimizedAffinity>
-7.00660

$$$$
1R1J_OIR_A_2001


 32 33  0  0  0  0  0  0  0  0999 V2000
   27.7517   42.0264   30.6837 C   0  0  0  0  0  0  0  0  0  0  0  0
   28.0744   39.5355   30.0796 O   0  0  0  0  0  0  0  0  0  0  0  0
   26.9712   39.8316   30.5065 C   0  0  0  0  0  0  0  0  0  0  0  0
   26.6551   41.0785   30.8295 N   0  0  0  0  0  0  0  0  0  0  0  0
   25.7585   41.3404   31.1404 H   0  0  0  0  0  0  0  0  0  0  0  0
   25.9416   38.7578   30.6277 C   0  0  0  0  0  0  0  0  0  0  0  0
   26.8359   37.2811   31.1378 S   0  0  0  0  0  0  0  0  0  0  0  0
   27.7773   36.9763   30.2048 H   0  0  0  0  0  0  0  0  0  0  0  0
   25.1970   38.5224   29.3218 C   0  0  0  0  0  0  0  0  0  0  0  0
   23.8508   39.1992   29.4366 C   0  0  0  0  0  0  0  0  0  0  0  0
   23.3052   39.8748   28.3532 C   0  0  0  0  0  0  0  0  0  0  0  0
   22.0709   40.5001   28.4749 C   0  0  0  0  0  0  0  0  0  0  0  0
   21.3788   40.4485   29.6804 C   0  0  0  0  0  0  0  0  0  0  0  0
   21.9232   39.7710   30.7621 C   0  0  0  0  0  0  0  0  0  0  0  0
   23.1604   39.1481   30.6404 C   0  0  0  0  0  0  0  0  0  0  0  0
   28.1185   42.6303   32.0151 C   0  0  0  0  0  0  0  0  0  0  0  0
   27.6020   42.2010   33.0253 O   0  0  0  0  0  0  0  0  0  0  0  0
   28.9902   43.6290   32.0220 N   0  0  0  0  0  0  0  0  0  0  0  0
   29.2624   44.0371   31.1684 H   0  0  0  0  0  0  0  0  0  0  0  0
   29.5536   44.1348   33.2655 C   0  0  0  0  0  0  0  0  0  0  0  0
   31.0000   43.6647   33.4023 C   0  0  0  0  0  0  0  0  0  0  0  0
   29.5079   45.6353   33.2999 C   0  0  0  0  0  0  0  0  0  0  0  0
   28.4574   46.1844   33.5870 O   0  0  0  0  0  0  0  0  0  0  0  0
   30.5029   46.3072   33.0537 O   0  0  0  0  0  0  0  0  0  0  0  0
   27.6966   45.6708   33.7752 H   0  0  0  0  0  0  0  0  0  0  0  0
   27.3848   43.1057   29.6668 C   0  0  0  0  0  0  0  0  0  0  0  0
   27.3724   42.4095   28.3232 C   0  0  0  0  0  0  0  0  0  0  0  0
   28.5604   42.0977   27.6680 C   0  0  0  0  0  0  0  0  0  0  0  0
   28.5325   41.4472   26.4383 C   0  0  0  0  0  0  0  0  0  0  0  0
   27.3157   41.0957   25.8659 C   0  0  0  0  0  0  0  0  0  0  0  0
   26.1329   41.4012   26.5201 C   0  0  0  0  0  0  0  0  0  0  0  0
   26.1588   42.0559   27.7445 C   0  0  0  0  0  0  0  0  0  0  0  0
  2  3  2  0  0  0
  3  6  1  0  0  0
  3  4  1  0  0  0
  6  9  1  0  0  0
  6  7  1  0  0  0
  9 10  1  0  0  0
 10 11  2  0  0  0
 10 15  1  0  0  0
 11 12  1  0  0  0
 12 13  2  0  0  0
 13 14  1  0  0  0
 14 15  2  0  0  0
  4  1  1  0  0  0
  1 16  1  0  0  0
  1 26  1  0  0  0
 16 17  2  0  0  0
 16 18  1  0  0  0
 18 20  1  0  0  0
 20 22  1  0  0  0
 20 21  1  0  0  0
 22 23  1  0  0  0
 22 24  2  0  0  0
 26 27  1  0  0  0
 27 28  2  0  0  0
 27 32  1  0  0  0
 28 29  1  0  0  0
 29 30  2  0  0  0
 30 31  1  0  0  0
 31 32  2  0  0  0
  7  8  1  0  0  0
  4  5  1  0  0  0
 18 19  1  0  0  0
 23 25  1  0  0  0
M  END
> <minimizedAffinity>
-6.93861

$$$$
1R1J_OIR_A_2001


 32 33  0  0  0  0  0  0  0  0999 V2000
   27.9188   42.0327   30.7343 C   0  0  0  0  0  0  0  0  0  0  0  0
   27.2089   39.5575   30.9412 O   0  0  0  0  0  0  0  0  0  0  0  0
   26.8997   40.2707   31.8808 C   0  0  0  0  0  0  0  0  0  0  0  0
   27.1744   41.5681   31.8972 N   0  0  0  0  0  0  0  0  0  0  0  0
   26.8995   42.1646   32.6305 H   0  0  0  0  0  0  0  0  0  0  0  0
   26.1556   39.6629   33.0229 C   0  0  0  0  0  0  0  0  0  0  0  0
   24.4127   39.9524   32.6777 S   0  0  0  0  0  0  0  0  0  0  0  0
   24.1858   41.2898   32.5806 H   0  0  0  0  0  0  0  0  0  0  0  0
   26.5561   40.2686   34.3601 C   0  0  0  0  0  0  0  0  0  0  0  0
   27.0496   39.1436   35.2402 C   0  0  0  0  0  0  0  0  0  0  0  0
   28.0129   39.3779   36.2123 C   0  0  0  0  0  0  0  0  0  0  0  0
   28.4642   38.3330   37.0085 C   0  0  0  0  0  0  0  0  0  0  0  0
   27.9506   37.0520   36.8354 C   0  0  0  0  0  0  0  0  0  0  0  0
   26.9859   36.8189   35.8654 C   0  0  0  0  0  0  0  0  0  0  0  0
   26.5371   37.8647   35.0666 C   0  0  0  0  0  0  0  0  0  0  0  0
   28.8501   43.1571   31.1084 C   0  0  0  0  0  0  0  0  0  0  0  0
   29.2423   43.9160   30.2471 O   0  0  0  0  0  0  0  0  0  0  0  0
   29.2174   43.2594   32.3781 N   0  0  0  0  0  0  0  0  0  0  0  0
   28.9937   42.5336   33.0045 H   0  0  0  0  0  0  0  0  0  0  0  0
   29.9446   44.4227   32.8654 C   0  0  0  0  0  0  0  0  0  0  0  0
   29.0009   45.3215   33.6612 C   0  0  0  0  0  0  0  0  0  0  0  0
   31.0947   44.0059   33.7365 C   0  0  0  0  0  0  0  0  0  0  0  0
   31.0428   42.9256   34.3003 O   0  0  0  0  0  0  0  0  0  0  0  0
   32.0764   44.7253   33.8800 O   0  0  0  0  0  0  0  0  0  0  0  0
   30.2922   42.3755   34.1906 H   0  0  0  0  0  0  0  0  0  0  0  0
   26.9563   42.4547   29.6255 C   0  0  0  0  0  0  0  0  0  0  0  0
   27.5681   41.9413   28.3402 C   0  0  0  0  0  0  0  0  0  0  0  0
   27.7266   40.5761   28.1186 C   0  0  0  0  0  0  0  0  0  0  0  0
   28.2804   40.1193   26.9268 C   0  0  0  0  0  0  0  0  0  0  0  0
   28.6664   41.0268   25.9474 C   0  0  0  0  0  0  0  0  0  0  0  0
   28.5041   42.3858   26.1652 C   0  0  0  0  0  0  0  0  0  0  0  0
   27.9572   42.8436   27.3568 C   0  0  0  0  0  0  0  0  0  0  0  0
  2  3  2  0  0  0
  3  6  1  0  0  0
  3  4  1  0  0  0
  6  9  1  0  0  0
  6  7  1  0  0  0
  9 10  1  0  0  0
 10 11  2  0  0  0
 10 15  1  0  0  0
 11 12  1  0  0  0
 12 13  2  0  0  0
 13 14  1  0  0  0
 14 15  2  0  0  0
  4  1  1  0  0  0
  1 16  1  0  0  0
  1 26  1  0  0  0
 16 17  2  0  0  0
 16 18  1  0  0  0
 18 20  1  0  0  0
 20 22  1  0  0  0
 20 21  1  0  0  0
 22 23  1  0  0  0
 22 24  2  0  0  0
 26 27  1  0  0  0
 27 28  2  0  0  0
 27 32  1  0  0  0
 28 29  1  0  0  0
 29 30  2  0  0  0
 30 31  1  0  0  0
 31 32  2  0  0  0
  7  8  1  0  0  0
  4  5  1  0  0  0
 18 19  1  0  0  0
 23 25  1  0  0  0
M  END
> <minimizedAffinity>
-6.82846

$$$$
1R1J_OIR_A_2001


 32 33  0  0  0  0  0  0  0  0999 V2000
   27.7188   42.0116   30.6334 C   0  0  0  0  0  0  0  0  0  0  0  0
   28.0519   39.4916   30.1727 O   0  0  0  0  0  0  0  0  0  0  0  0
   26.9331   39.8137   30.5353 C   0  0  0  0  0  0  0  0  0  0  0  0
   26.6110   41.0769   30.7796 N   0  0  0  0  0  0  0  0  0  0  0  0
   25.7034   41.3581   31.0372 H   0  0  0  0  0  0  0  0  0  0  0  0
   25.8926   38.7518   30.6664 C   0  0  0  0  0  0  0  0  0  0  0  0
   24.8293   38.9314   29.2249 S   0  0  0  0  0  0  0  0  0  0  0  0
   24.2828   40.1768   29.2171 H   0  0  0  0  0  0  0  0  0  0  0  0
   25.0938   38.8826   31.9548 C   0  0  0  0  0  0  0  0  0  0  0  0
   25.9549   38.3573   33.0800 C   0  0  0  0  0  0  0  0  0  0  0  0
   26.2009   39.1352   34.2036 C   0  0  0  0  0  0  0  0  0  0  0  0
   27.0015   38.6435   35.2266 C   0  0  0  0  0  0  0  0  0  0  0  0
   27.5557   37.3715   35.1287 C   0  0  0  0  0  0  0  0  0  0  0  0
   27.3075   36.5935   34.0068 C   0  0  0  0  0  0  0  0  0  0  0  0
   26.5086   37.0876   32.9816 C   0  0  0  0  0  0  0  0  0  0  0  0
   28.0947   42.6095   31.9649 C   0  0  0  0  0  0  0  0  0  0  0  0
   27.5851   42.1758   32.9766 O   0  0  0  0  0  0  0  0  0  0  0  0
   28.9667   43.6080   31.9704 N   0  0  0  0  0  0  0  0  0  0  0  0
   29.2330   44.0200   31.1168 H   0  0  0  0  0  0  0  0  0  0  0  0
   29.5385   44.1082   33.2123 C   0  0  0  0  0  0  0  0  0  0  0  0
   30.9765   43.6135   33.3509 C   0  0  0  0  0  0  0  0  0  0  0  0
   29.5189   45.6094   33.2416 C   0  0  0  0  0  0  0  0  0  0  0  0
   28.4695   46.1782   33.4919 O   0  0  0  0  0  0  0  0  0  0  0  0
   30.5337   46.2625   33.0273 O   0  0  0  0  0  0  0  0  0  0  0  0
   27.6936   45.6790   33.6557 H   0  0  0  0  0  0  0  0  0  0  0  0
   27.3635   43.0965   29.6182 C   0  0  0  0  0  0  0  0  0  0  0  0
   27.3900   42.4131   28.2683 C   0  0  0  0  0  0  0  0  0  0  0  0
   28.5966   42.0943   27.6513 C   0  0  0  0  0  0  0  0  0  0  0  0
   28.6041   41.4557   26.4151 C   0  0  0  0  0  0  0  0  0  0  0  0
   27.4042   41.1228   25.7979 C   0  0  0  0  0  0  0  0  0  0  0  0
   26.2029   41.4351   26.4140 C   0  0  0  0  0  0  0  0  0  0  0  0
   26.1935   42.0781   27.6448 C   0  0  0  0  0  0  0  0  0  0  0  0
  2  3  2  0  0  0
  3  6  1  0  0  0
  3  4  1  0  0  0
  6  9  1  0  0  0
  6  7  1  0  0  0
  9 10  1  0  0  0
 10 11  2  0  0  0
 10 15  1  0  0  0
 11 12  1  0  0  0
 12 13  2  0  0  0
 13 14  1  0  0  0
 14 15  2  0  0  0
  4  1  1  0  0  0
  1 16  1  0  0  0
  1 26  1  0  0  0
 16 17  2  0  0  0
 16 18  1  0  0  0
 18 20  1  0  0  0
 20 22  1  0  0  0
 20 21  1  0  0  0
 22 23  1  0  0  0
 22 24  2  0  0  0
 26 27  1  0  0  0
 27 28  2  0  0  0
 27 32  1  0  0  0
 28 29  1  0  0  0
 29 30  2  0  0  0
 30 31  1  0  0  0
 31 32  2  0  0  0
  7  8  1  0  0  0
  4  5  1  0  0  0
 18 19  1  0  0  0
 23 25  1  0  0  0
M  END
> <minimizedAffinity>
-6.77279

$$$$
1R1J_OIR_A_2001


 32 33  0  0  0  0  0  0  0  0999 V2000
   26.5602   39.1617   34.8994 C   0  0  0  0  0  0  0  0  0  0  0  0
   24.3697   39.9727   33.7959 O   0  0  0  0  0  0  0  0  0  0  0  0
   25.3001   39.7792   33.0317 C   0  0  0  0  0  0  0  0  0  0  0  0
   26.4755   39.3343   33.4554 N   0  0  0  0  0  0  0  0  0  0  0  0
   27.2247   39.1379   32.8476 H   0  0  0  0  0  0  0  0  0  0  0  0
   25.0864   40.0157   31.5736 C   0  0  0  0  0  0  0  0  0  0  0  0
   23.6754   38.9953   31.1166 S   0  0  0  0  0  0  0  0  0  0  0  0
   23.9544   37.6909   31.3819 H   0  0  0  0  0  0  0  0  0  0  0  0
   26.3114   39.6574   30.7453 C   0  0  0  0  0  0  0  0  0  0  0  0
   26.8231   40.9316   30.1142 C   0  0  0  0  0  0  0  0  0  0  0  0
   26.3582   41.3404   28.8713 C   0  0  0  0  0  0  0  0  0  0  0  0
   26.8434   42.5090   28.2986 C   0  0  0  0  0  0  0  0  0  0  0  0
   27.7930   43.2726   28.9695 C   0  0  0  0  0  0  0  0  0  0  0  0
   28.2554   42.8650   30.2128 C   0  0  0  0  0  0  0  0  0  0  0  0
   27.7716   41.6932   30.7839 C   0  0  0  0  0  0  0  0  0  0  0  0
   27.2450   40.3413   35.5407 C   0  0  0  0  0  0  0  0  0  0  0  0
   26.6483   40.9976   36.3682 O   0  0  0  0  0  0  0  0  0  0  0  0
   28.4816   40.6233   35.1551 N   0  0  0  0  0  0  0  0  0  0  0  0
   28.8622   40.1556   34.3769 H   0  0  0  0  0  0  0  0  0  0  0  0
   29.2885   41.6100   35.8585 C   0  0  0  0  0  0  0  0  0  0  0  0
   30.3918   40.9049   36.6442 C   0  0  0  0  0  0  0  0  0  0  0  0
   29.9027   42.5824   34.8929 C   0  0  0  0  0  0  0  0  0  0  0  0
   29.2095   43.0403   34.0000 O   0  0  0  0  0  0  0  0  0  0  0  0
   31.0754   42.9237   34.9942 O   0  0  0  0  0  0  0  0  0  0  0  0
   28.3129   42.7794   33.9223 H   0  0  0  0  0  0  0  0  0  0  0  0
   27.2768   37.8547   35.2338 C   0  0  0  0  0  0  0  0  0  0  0  0
   26.6710   37.3820   36.5375 C   0  0  0  0  0  0  0  0  0  0  0  0
   27.4680   36.8385   37.5412 C   0  0  0  0  0  0  0  0  0  0  0  0
   26.8974   36.4189   38.7388 C   0  0  0  0  0  0  0  0  0  0  0  0
   25.5289   36.5531   38.9409 C   0  0  0  0  0  0  0  0  0  0  0  0
   24.7358   37.0989   37.9441 C   0  0  0  0  0  0  0  0  0  0  0  0
   25.3027   37.5124   36.7458 C   0  0  0  0  0  0  0  0  0  0  0  0
  2  3  2  0  0  0
  3  6  1  0  0  0
  3  4  1  0  0  0
  6  9  1  0  0  0
  6  7  1  0  0  0
  9 10  1  0  0  0
 10 11  2  0  0  0
 10 15  1  0  0  0
 11 12  1  0  0  0
 12 13  2  0  0  0
 13 14  1  0  0  0
 14 15  2  0  0  0
  4  1  1  0  0  0
  1 16  1  0  0  0
  1 26  1  0  0  0
 16 17  2  0  0  0
 16 18  1  0  0  0
 18 20  1  0  0  0
 20 22  1  0  0  0
 20 21  1  0  0  0
 22 23  1  0  0  0
 22 24  2  0  0  0
 26 27  1  0  0  0
 27 28  2  0  0  0
 27 32  1  0  0  0
 28 29  1  0  0  0
 29 30  2  0  0  0
 30 31  1  0  0  0
 31 32  2  0  0  0
  7  8  1  0  0  0
  4  5  1  0  0  0
 18 19  1  0  0  0
 23 25  1  0  0  0
M  END
> <minimizedAffinity>
-6.56396

$$$$
1R1J_OIR_A_2001


 32 33  0  0  0  0  0  0  0  0999 V2000
   29.4447   42.8444   34.4803 C   0  0  0  0  0  0  0  0  0  0  0  0
   28.2617   42.7392   36.7744 O   0  0  0  0  0  0  0  0  0  0  0  0
   29.0058   41.8056   36.5262 C   0  0  0  0  0  0  0  0  0  0  0  0
   29.7004   41.7424   35.3981 N   0  0  0  0  0  0  0  0  0  0  0  0
   30.3330   41.0149   35.1986 H   0  0  0  0  0  0  0  0  0  0  0  0
   29.1621   40.7274   37.5465 C   0  0  0  0  0  0  0  0  0  0  0  0
   30.3334   39.5561   36.8415 S   0  0  0  0  0  0  0  0  0  0  0  0
   29.8425   39.0748   35.6681 H   0  0  0  0  0  0  0  0  0  0  0  0
   27.8408   40.0484   37.8755 C   0  0  0  0  0  0  0  0  0  0  0  0
   27.6149   38.9675   36.8440 C   0  0  0  0  0  0  0  0  0  0  0  0
   27.9779   37.6533   37.1069 C   0  0  0  0  0  0  0  0  0  0  0  0
   27.7728   36.6710   36.1466 C   0  0  0  0  0  0  0  0  0  0  0  0
   27.2017   37.0011   34.9220 C   0  0  0  0  0  0  0  0  0  0  0  0
   26.8367   38.3142   34.6606 C   0  0  0  0  0  0  0  0  0  0  0  0
   27.0454   39.2975   35.6212 C   0  0  0  0  0  0  0  0  0  0  0  0
   28.4624   42.4357   33.4128 C   0  0  0  0  0  0  0  0  0  0  0  0
   27.4626   41.8249   33.7271 O   0  0  0  0  0  0  0  0  0  0  0  0
   28.7462   42.7525   32.1572 N   0  0  0  0  0  0  0  0  0  0  0  0
   29.6368   43.1117   31.9403 H   0  0  0  0  0  0  0  0  0  0  0  0
   27.7684   42.5802   31.0924 C   0  0  0  0  0  0  0  0  0  0  0  0
   28.1859   43.4014   29.8746 C   0  0  0  0  0  0  0  0  0  0  0  0
   27.6502   41.1339   30.7062 C   0  0  0  0  0  0  0  0  0  0  0  0
   28.6205   40.5736   30.2246 O   0  0  0  0  0  0  0  0  0  0  0  0
   26.6059   40.5147   30.8740 O   0  0  0  0  0  0  0  0  0  0  0  0
   29.4190   41.0468   30.0962 H   0  0  0  0  0  0  0  0  0  0  0  0
   30.7552   43.3375   33.8694 C   0  0  0  0  0  0  0  0  0  0  0  0
   30.9473   44.7415   34.4004 C   0  0  0  0  0  0  0  0  0  0  0  0
   30.4399   45.1122   35.6426 C   0  0  0  0  0  0  0  0  0  0  0  0
   30.6347   46.4038   36.1219 C   0  0  0  0  0  0  0  0  0  0  0  0
   31.3485   47.3253   35.3650 C   0  0  0  0  0  0  0  0  0  0  0  0
   31.8583   46.9553   34.1306 C   0  0  0  0  0  0  0  0  0  0  0  0
   31.6595   45.6685   33.6480 C   0  0  0  0  0  0  0  0  0  0  0  0
  2  3  2  0  0  0
  3  6  1  0  0  0
  3  4  1  0  0  0
  6  9  1  0  0  0
  6  7  1  0  0  0
  9 10  1  0  0  0
 10 11  2  0  0  0
 10 15  1  0  0  0
 11 12  1  0  0  0
 12 13  2  0  0  0
 13 14  1  0  0  0
 14 15  2  0  0  0
  4  1  1  0  0  0
  1 16  1  0  0  0
  1 26  1  0  0  0
 16 17  2  0  0  0
 16 18  1  0  0  0
 18 20  1  0  0  0
 20 22  1  0  0  0
 20 21  1  0  0  0
 22 23  1  0  0  0
 22 24  2  0  0  0
 26 27  1  0  0  0
 27 28  2  0  0  0
 27 32  1  0  0  0
 28 29  1  0  0  0
 29 30  2  0  0  0
 30 31  1  0  0  0
 31 32  2  0  0  0
  7  8  1  0  0  0
  4  5  1  0  0  0
 18 19  1  0  0  0
 23 25  1  0  0  0
M  END
> <minimizedAffinity>
-6.47792

$$$$
