5LDP_ATP_A_201
  RCSB PDB12061718463D
Coordinates from PDB:5LDP:A:201 Model:1 without hydrogens
 31 33  0  0  0  0            999 V2000
  -24.2740   -7.2180   24.3680   P 0  0  0  0  0  0  0  0  0  0  0  0
  -25.3980   -8.1740   24.0360   O 0  0  0  0  0  0  0  0  0  0  0  0
  -24.7490   -5.8510   24.8260   O 0  0  0  0  0  0  0  0  0  0  0  0
  -23.1590   -7.8110   25.2060   O 0  0  0  0  0  0  0  0  0  0  0  0
  -22.8570   -5.6490   22.4750   P 0  0  0  0  0  0  0  0  0  0  0  0
  -21.7310   -6.0460   21.5460   O 0  0  0  0  0  0  0  0  0  0  0  0
  -22.5480   -4.7530   23.6580   O 0  0  0  0  0  0  0  0  0  0  0  0
  -23.6050   -7.0070   22.9160   O 0  0  0  0  0  0  0  0  0  0  0  0
  -24.7520   -3.6250   21.8310   P 0  0  0  0  0  0  0  0  0  0  0  0
  -25.9060   -3.5660   20.8570   O 0  0  0  0  0  0  0  0  0  0  0  0
  -25.0900   -3.4780   23.3210   O 0  0  0  0  0  0  0  0  0  0  0  0
  -24.0350   -5.0340   21.5600   O 0  0  0  0  0  0  0  0  0  0  0  0
  -23.6180   -2.5340   21.5300   O 0  0  0  0  0  0  0  0  0  0  0  0
  -23.2310   -2.2390   20.1890   C 0  0  0  0  0  0  0  0  0  0  0  0
  -22.0320   -1.3170   20.3040   C 0  0  0  0  0  0  0  0  0  0  0  0
  -22.4340   -0.0740   20.8890   O 0  0  0  0  0  0  0  0  0  0  0  0
  -20.9800   -1.9140   21.2240   C 0  0  0  0  0  0  0  0  0  0  0  0
  -19.7030   -1.4990   20.7410   O 0  0  0  0  0  0  0  0  0  0  0  0
  -21.2350   -1.2490   22.5670   C 0  0  0  0  0  0  0  0  0  0  0  0
  -20.0670   -1.1800   23.4070   O 0  0  0  0  0  0  0  0  0  0  0  0
  -21.7720    0.1160   22.1500   C 0  0  0  0  0  0  0  0  0  0  0  0
  -22.7650    0.5340   23.1670   N 0  0  0  0  0  0  0  0  0  0  0  0
  -23.7430   -0.2390   23.6900   C 0  0  0  0  0  0  0  0  0  0  0  0
  -24.4750    0.4540   24.6040   N 0  0  0  0  0  0  0  0  0  0  0  0
  -23.9400    1.6940   24.6770   C 0  0  0  0  0  0  0  0  0  0  0  0
  -24.2170    2.9340   25.4300   C 0  0  0  0  0  0  0  0  0  0  0  0
  -25.2430    2.9750   26.3230   N 0  0  0  0  0  0  0  0  0  0  0  0
  -23.4160    4.0050   25.1960   N 0  0  0  0  0  0  0  0  0  0  0  0
  -22.3960    3.9690   24.3140   C 0  0  0  0  0  0  0  0  0  0  0  0
  -22.0850    2.8800   23.5850   N 0  0  0  0  0  0  0  0  0  0  0  0
  -22.8080    1.7400   23.7260   C 0  0  0  0  0  0  0  0  0  0  0  0
  1  2  2  0  0  0  0
  1  3  1  0  0  0  0
  1  4  1  0  0  0  0
  1  8  1  0  0  0  0
  5  6  2  0  0  0  0
  5  7  1  0  0  0  0
  5  8  1  0  0  0  0
  5 12  1  0  0  0  0
  9 10  2  0  0  0  0
  9 11  1  0  0  0  0
  9 12  1  0  0  0  0
  9 13  1  0  0  0  0
 13 14  1  0  0  0  0
 14 15  1  0  0  0  0
 15 16  1  0  0  0  0
 15 17  1  0  0  0  0
 16 21  1  0  0  0  0
 17 18  1  0  0  0  0
 17 19  1  0  0  0  0
 19 20  1  0  0  0  0
 19 21  1  0  0  0  0
 21 22  1  0  0  0  0
 22 23  1  0  0  0  0
 22 31  1  0  0  0  0
 23 24  2  0  0  0  0
 24 25  1  0  0  0  0
 25 26  1  0  0  0  0
 25 31  2  0  0  0  0
 26 27  1  0  0  0  0
 26 28  2  0  0  0  0
 28 29  1  0  0  0  0
 29 30  2  0  0  0  0
 30 31  1  0  0  0  0
A    1
PG
A    2
O1G
A    3
O2G
A    4
O3G
A    5
PB
A    6
O1B
A    7
O2B
A    8
O3B
A    9
PA
A   10
O1A
A   11
O2A
A   12
O3A
A   13
O5'
A   14
C5'
A   15
C4'
A   16
O4'
A   17
C3'
A   18
O3'
A   19
C2'
A   20
O2'
A   21
C1'
A   22
N9
A   23
C8
A   24
N7
A   25
C5
A   26
C6
A   27
N6
A   28
N1
A   29
C2
A   30
N3
A   31
C4
M  END
>  <InstanceId>
5LDP_ATP_A_201

>  <ChemCompId>
ATP

>  <PdbId>
5LDP

>  <ChainId>
A

>  <ResidueNumber>
201

>  <InsertionCode>


>  <Model>
1

>  <AltIds>


>  <MissingHeavyAtoms>
0

>  <ObservedFormula>
C10 N5 O13 P3

>  <Name>
ADENOSINE-5'-TRIPHOSPHATE

>  <SystematicName>
[[(2R,3S,4R,5R)-5-(6-aminopurin-9-yl)-3,4-dihydroxy-oxolan-2-yl]methoxy-hydroxy-phosphoryl] phosphono hydrogen phosphate

>  <Synonyms>


>  <Type>
NON-POLYMER

>  <Formula>
C10 H16 N5 O13 P3

>  <MolecularWeight>
507.181

>  <ModifiedDate>
2011-06-04

>  <Parent>


>  <OneLetterCode>


>  <SubcomponentList>


>  <AmbiguousFlag>
N

>  <InChI>
InChI=1S/C10H16N5O13P3/c11-8-5-9(13-2-12-8)15(3-14-5)10-7(17)6(16)4(26-10)1-25-30(21,22)28-31(23,24)27-29(18,19)20/h2-4,6-7,10,16-17H,1H2,(H,21,22)(H,23,24)(H2,11,12,13)(H2,18,19,20)/t4-,6-,7-,10-/m1/s1

>  <InChIKey>
ZKHQWZAMYRWXGA-KQYNXXCUSA-N

>  <SMILES>
c1nc(c2c(n1)n(cn2)[C@H]3[C@@H]([C@@H]([C@H](O3)CO[P@@](=O)(O)O[P@](=O)(O)OP(=O)(O)O)O)O)N

$$$$
