5LDP_ATP_A_201


 39 41  0  0  0  0  0  0  0  0999 V2000
  -19.4563   -1.4184   22.1429 C   0  0  0  0  0  0  0  0  0  0  0  0
  -19.2904   -0.0151   21.9147 O   0  0  0  0  0  0  0  0  0  0  0  0
  -18.7399   -1.7381   23.4444 C   0  0  0  0  0  0  0  0  0  0  0  0
  -17.4136   -2.1481   23.1141 O   0  0  0  0  0  0  0  0  0  0  0  0
  -18.6730   -0.4057   24.1731 C   0  0  0  0  0  0  0  0  0  0  0  0
  -17.5726   -0.3088   25.0974 O   0  0  0  0  0  0  0  0  0  0  0  0
  -18.5924    0.5860   23.0174 C   0  0  0  0  0  0  0  0  0  0  0  0
  -16.9826   -1.4559   22.5887 H   0  0  0  0  0  0  0  0  0  0  0  0
  -16.7384   -0.4496   24.6229 H   0  0  0  0  0  0  0  0  0  0  0  0
  -19.3035    1.8166   23.4356 N   0  0  0  0  0  0  0  0  0  0  0  0
  -20.3844    1.8757   24.2454 C   0  0  0  0  0  0  0  0  0  0  0  0
  -20.7839    3.1631   24.4311 N   0  0  0  0  0  0  0  0  0  0  0  0
  -19.9266    3.9446   23.7357 C   0  0  0  0  0  0  0  0  0  0  0  0
  -19.7622    5.3911   23.4868 C   0  0  0  0  0  0  0  0  0  0  0  0
  -20.6225    6.2823   24.0503 N   0  0  0  0  0  0  0  0  0  0  0  0
  -18.7342    5.7800   22.6898 N   0  0  0  0  0  0  0  0  0  0  0  0
  -17.8770    4.9011   22.1309 C   0  0  0  0  0  0  0  0  0  0  0  0
  -17.9648    3.5683   22.3039 N   0  0  0  0  0  0  0  0  0  0  0  0
  -18.9485    3.0484   23.0814 C   0  0  0  0  0  0  0  0  0  0  0  0
  -21.3568    5.9629   24.6231 H   0  0  0  0  0  0  0  0  0  0  0  0
  -20.5106    7.2463   23.8851 H   0  0  0  0  0  0  0  0  0  0  0  0
  -20.9332   -1.7481   22.2473 C   0  0  0  0  0  0  0  0  0  0  0  0
  -21.0249   -3.1600   22.0651 O   0  0  0  0  0  0  0  0  0  0  0  0
  -21.9963   -4.0404   22.9860 P   0  0  0  0  0  0  0  0  0  0  0  0
  -21.6878   -3.9187   24.4605 O   0  0  0  0  0  0  0  0  0  0  0  0
  -21.9776   -5.4525   22.3848 O   0  0  0  0  0  0  0  0  0  0  0  0
  -22.5532   -6.0336   22.9062 H   0  0  0  0  0  0  0  0  0  0  0  0
  -23.4427   -3.3740   22.7951 O   0  0  0  0  0  0  0  0  0  0  0  0
  -24.2957   -3.4219   21.4264 P   0  0  0  0  0  0  0  0  0  0  0  0
  -25.5272   -2.5689   21.6376 O   0  0  0  0  0  0  0  0  0  0  0  0
  -23.4206   -3.1567   20.2175 O   0  0  0  0  0  0  0  0  0  0  0  0
  -23.9612   -3.1923   19.4129 H   0  0  0  0  0  0  0  0  0  0  0  0
  -24.7679   -4.9606   21.5133 O   0  0  0  0  0  0  0  0  0  0  0  0
  -25.6719   -5.5430   22.7149 P   0  0  0  0  0  0  0  0  0  0  0  0
  -24.7724   -6.6316   23.2566 O   0  0  0  0  0  0  0  0  0  0  0  0
  -26.9484   -6.0639   22.0799 O   0  0  0  0  0  0  0  0  0  0  0  0
  -25.8662   -4.3576   23.6392 O   0  0  0  0  0  0  0  0  0  0  0  0
  -27.5275   -6.4264   22.7685 H   0  0  0  0  0  0  0  0  0  0  0  0
  -26.4068   -4.6251   24.3989 H   0  0  0  0  0  0  0  0  0  0  0  0
 34 35  2  0  0  0
 34 36  1  0  0  0
 34 37  1  0  0  0
 34 33  1  0  0  0
 29 30  2  0  0  0
 29 31  1  0  0  0
 29 33  1  0  0  0
 29 28  1  0  0  0
 24 25  2  0  0  0
 24 26  1  0  0  0
 24 28  1  0  0  0
 24 23  1  0  0  0
 23 22  1  0  0  0
 22  1  1  0  0  0
  1  2  1  0  0  0
  1  3  1  0  0  0
  2  7  1  0  0  0
  3  4  1  0  0  0
  3  5  1  0  0  0
  5  6  1  0  0  0
  5  7  1  0  0  0
  7 10  1  0  0  0
 10 11  1  0  0  0
 10 19  1  0  0  0
 11 12  2  0  0  0
 12 13  1  0  0  0
 13 14  1  0  0  0
 13 19  2  0  0  0
 14 15  1  0  0  0
 14 16  2  0  0  0
 16 17  1  0  0  0
 17 18  2  0  0  0
 18 19  1  0  0  0
 36 38  1  0  0  0
 37 39  1  0  0  0
 31 32  1  0  0  0
 26 27  1  0  0  0
  4  8  1  0  0  0
  6  9  1  0  0  0
 15 20  1  0  0  0
 15 21  1  0  0  0
M  END
> <minimizedAffinity>
-8.73216

$$$$
5LDP_ATP_A_201


 39 41  0  0  0  0  0  0  0  0999 V2000
  -19.1316    2.2241   22.7264 C   0  0  0  0  0  0  0  0  0  0  0  0
  -20.4377    2.7426   22.4540 O   0  0  0  0  0  0  0  0  0  0  0  0
  -18.2817    3.3973   23.1856 C   0  0  0  0  0  0  0  0  0  0  0  0
  -17.6191    3.9224   22.0361 O   0  0  0  0  0  0  0  0  0  0  0  0
  -19.2910    4.4214   23.6791 C   0  0  0  0  0  0  0  0  0  0  0  0
  -18.8182    5.7798   23.6027 O   0  0  0  0  0  0  0  0  0  0  0  0
  -20.4941    4.1396   22.7855 C   0  0  0  0  0  0  0  0  0  0  0  0
  -18.2766    4.1543   21.3617 H   0  0  0  0  0  0  0  0  0  0  0  0
  -18.5814    5.9886   22.6855 H   0  0  0  0  0  0  0  0  0  0  0  0
  -21.7139    4.4054   23.5832 N   0  0  0  0  0  0  0  0  0  0  0  0
  -22.3703    3.5115   24.3564 C   0  0  0  0  0  0  0  0  0  0  0  0
  -23.4479    4.0858   24.9568 N   0  0  0  0  0  0  0  0  0  0  0  0
  -23.4692    5.3814   24.5694 C   0  0  0  0  0  0  0  0  0  0  0  0
  -24.3287    6.5565   24.8182 C   0  0  0  0  0  0  0  0  0  0  0  0
  -25.4093    6.4498   25.6384 N   0  0  0  0  0  0  0  0  0  0  0  0
  -23.9952    7.7214   24.2057 N   0  0  0  0  0  0  0  0  0  0  0  0
  -22.9238    7.8334   23.3939 C   0  0  0  0  0  0  0  0  0  0  0  0
  -22.0974    6.8078   23.1122 N   0  0  0  0  0  0  0  0  0  0  0  0
  -22.3186    5.5872   23.6629 C   0  0  0  0  0  0  0  0  0  0  0  0
  -25.6201    5.5881   26.0653 H   0  0  0  0  0  0  0  0  0  0  0  0
  -25.9802    7.2344   25.8049 H   0  0  0  0  0  0  0  0  0  0  0  0
  -19.2176    1.1662   23.8100 C   0  0  0  0  0  0  0  0  0  0  0  0
  -18.1797    0.2323   23.5176 O   0  0  0  0  0  0  0  0  0  0  0  0
  -18.5189   -1.1793   22.8399 P   0  0  0  0  0  0  0  0  0  0  0  0
  -17.9009   -2.3509   23.5674 O   0  0  0  0  0  0  0  0  0  0  0  0
  -18.1750   -1.0233   21.3521 O   0  0  0  0  0  0  0  0  0  0  0  0
  -18.3620   -1.8543   20.8882 H   0  0  0  0  0  0  0  0  0  0  0  0
  -20.1030   -1.3450   23.0299 O   0  0  0  0  0  0  0  0  0  0  0  0
  -20.9433   -2.6492   22.5871 P   0  0  0  0  0  0  0  0  0  0  0  0
  -20.2306   -3.2578   21.3996 O   0  0  0  0  0  0  0  0  0  0  0  0
  -21.2670   -3.5311   23.7768 O   0  0  0  0  0  0  0  0  0  0  0  0
  -21.7710   -4.3043   23.4785 H   0  0  0  0  0  0  0  0  0  0  0  0
  -22.2459   -1.8904   22.0167 O   0  0  0  0  0  0  0  0  0  0  0  0
  -22.1758   -0.7259   20.9034 P   0  0  0  0  0  0  0  0  0  0  0  0
  -23.4835   -0.9394   20.1741 O   0  0  0  0  0  0  0  0  0  0  0  0
  -20.9492   -1.0132   20.0565 O   0  0  0  0  0  0  0  0  0  0  0  0
  -22.0978    0.5539   21.7115 O   0  0  0  0  0  0  0  0  0  0  0  0
  -20.8651   -0.3346   19.3686 H   0  0  0  0  0  0  0  0  0  0  0  0
  -22.0519    1.3137   21.1103 H   0  0  0  0  0  0  0  0  0  0  0  0
 34 35  2  0  0  0
 34 36  1  0  0  0
 34 37  1  0  0  0
 34 33  1  0  0  0
 29 30  2  0  0  0
 29 31  1  0  0  0
 29 33  1  0  0  0
 29 28  1  0  0  0
 24 25  2  0  0  0
 24 26  1  0  0  0
 24 28  1  0  0  0
 24 23  1  0  0  0
 23 22  1  0  0  0
 22  1  1  0  0  0
  1  2  1  0  0  0
  1  3  1  0  0  0
  2  7  1  0  0  0
  3  4  1  0  0  0
  3  5  1  0  0  0
  5  6  1  0  0  0
  5  7  1  0  0  0
  7 10  1  0  0  0
 10 11  1  0  0  0
 10 19  1  0  0  0
 11 12  2  0  0  0
 12 13  1  0  0  0
 13 14  1  0  0  0
 13 19  2  0  0  0
 14 15  1  0  0  0
 14 16  2  0  0  0
 16 17  1  0  0  0
 17 18  2  0  0  0
 18 19  1  0  0  0
 36 38  1  0  0  0
 37 39  1  0  0  0
 31 32  1  0  0  0
 26 27  1  0  0  0
  4  8  1  0  0  0
  6  9  1  0  0  0
 15 20  1  0  0  0
 15 21  1  0  0  0
M  END
> <minimizedAffinity>
-8.54247

$$$$
5LDP_ATP_A_201


 39 41  0  0  0  0  0  0  0  0999 V2000
  -18.1170    0.6856   27.2497 C   0  0  0  0  0  0  0  0  0  0  0  0
  -19.2652    0.4738   26.4217 O   0  0  0  0  0  0  0  0  0  0  0  0
  -17.2337   -0.5414   27.0956 C   0  0  0  0  0  0  0  0  0  0  0  0
  -17.5761   -1.4501   28.1412 O   0  0  0  0  0  0  0  0  0  0  0  0
  -17.6569   -1.1438   25.7656 C   0  0  0  0  0  0  0  0  0  0  0  0
  -17.4237   -2.5623   25.6751 O   0  0  0  0  0  0  0  0  0  0  0  0
  -19.1308   -0.7589   25.6959 C   0  0  0  0  0  0  0  0  0  0  0  0
  -18.5260   -1.6431   28.1036 H   0  0  0  0  0  0  0  0  0  0  0  0
  -17.8985   -3.0142   26.3901 H   0  0  0  0  0  0  0  0  0  0  0  0
  -19.4643   -0.5278   24.2710 N   0  0  0  0  0  0  0  0  0  0  0  0
  -19.1298    0.5599   23.5411 C   0  0  0  0  0  0  0  0  0  0  0  0
  -19.5869    0.4488   22.2643 N   0  0  0  0  0  0  0  0  0  0  0  0
  -20.2139   -0.7461   22.1741 C   0  0  0  0  0  0  0  0  0  0  0  0
  -20.9285   -1.5007   21.1247 C   0  0  0  0  0  0  0  0  0  0  0  0
  -21.0543   -0.9782   19.8746 N   0  0  0  0  0  0  0  0  0  0  0  0
  -21.4396   -2.7135   21.4586 N   0  0  0  0  0  0  0  0  0  0  0  0
  -21.3155   -3.2373   22.6954 C   0  0  0  0  0  0  0  0  0  0  0  0
  -20.6856   -2.6088   23.7065 N   0  0  0  0  0  0  0  0  0  0  0  0
  -20.1275   -1.3883   23.5038 C   0  0  0  0  0  0  0  0  0  0  0  0
  -20.6704   -0.0952   19.6692 H   0  0  0  0  0  0  0  0  0  0  0  0
  -21.5291   -1.4831   19.1754 H   0  0  0  0  0  0  0  0  0  0  0  0
  -17.3849    1.9350   26.7981 C   0  0  0  0  0  0  0  0  0  0  0  0
  -18.4031    2.8672   26.4384 O   0  0  0  0  0  0  0  0  0  0  0  0
  -18.0540    4.4169   26.2297 P   0  0  0  0  0  0  0  0  0  0  0  0
  -16.6108    4.7465   26.5338 O   0  0  0  0  0  0  0  0  0  0  0  0
  -19.1248    5.1959   27.0060 O   0  0  0  0  0  0  0  0  0  0  0  0
  -18.9622    6.1477   26.9145 H   0  0  0  0  0  0  0  0  0  0  0  0
  -18.2249    4.6578   24.6532 O   0  0  0  0  0  0  0  0  0  0  0  0
  -17.7833    6.0050   23.8830 P   0  0  0  0  0  0  0  0  0  0  0  0
  -18.3898    7.1688   24.6355 O   0  0  0  0  0  0  0  0  0  0  0  0
  -16.2954    6.0165   23.5936 O   0  0  0  0  0  0  0  0  0  0  0  0
  -16.0622    6.8368   23.1315 H   0  0  0  0  0  0  0  0  0  0  0  0
  -18.6637    5.7963   22.5490 O   0  0  0  0  0  0  0  0  0  0  0  0
  -20.1560    5.1854   22.5594 P   0  0  0  0  0  0  0  0  0  0  0  0
  -20.7121    5.7499   21.2712 O   0  0  0  0  0  0  0  0  0  0  0  0
  -20.8333    5.7246   23.8062 O   0  0  0  0  0  0  0  0  0  0  0  0
  -19.9411    3.6851   22.5580 O   0  0  0  0  0  0  0  0  0  0  0  0
  -21.7395    5.3821   23.8557 H   0  0  0  0  0  0  0  0  0  0  0  0
  -20.8005    3.2353   22.5640 H   0  0  0  0  0  0  0  0  0  0  0  0
 34 35  2  0  0  0
 34 36  1  0  0  0
 34 37  1  0  0  0
 34 33  1  0  0  0
 29 30  2  0  0  0
 29 31  1  0  0  0
 29 33  1  0  0  0
 29 28  1  0  0  0
 24 25  2  0  0  0
 24 26  1  0  0  0
 24 28  1  0  0  0
 24 23  1  0  0  0
 23 22  1  0  0  0
 22  1  1  0  0  0
  1  2  1  0  0  0
  1  3  1  0  0  0
  2  7  1  0  0  0
  3  4  1  0  0  0
  3  5  1  0  0  0
  5  6  1  0  0  0
  5  7  1  0  0  0
  7 10  1  0  0  0
 10 11  1  0  0  0
 10 19  1  0  0  0
 11 12  2  0  0  0
 12 13  1  0  0  0
 13 14  1  0  0  0
 13 19  2  0  0  0
 14 15  1  0  0  0
 14 16  2  0  0  0
 16 17  1  0  0  0
 17 18  2  0  0  0
 18 19  1  0  0  0
 36 38  1  0  0  0
 37 39  1  0  0  0
 31 32  1  0  0  0
 26 27  1  0  0  0
  4  8  1  0  0  0
  6  9  1  0  0  0
 15 20  1  0  0  0
 15 21  1  0  0  0
M  END
> <minimizedAffinity>
-8.52896

$$$$
5LDP_ATP_A_201


 39 41  0  0  0  0  0  0  0  0999 V2000
  -18.5436   -1.1406   22.7216 C   0  0  0  0  0  0  0  0  0  0  0  0
  -18.5546    0.1946   22.2057 O   0  0  0  0  0  0  0  0  0  0  0  0
  -18.4262   -1.0253   24.2324 C   0  0  0  0  0  0  0  0  0  0  0  0
  -17.0394   -1.0966   24.5611 O   0  0  0  0  0  0  0  0  0  0  0  0
  -18.9312    0.3746   24.5423 C   0  0  0  0  0  0  0  0  0  0  0  0
  -18.3867    0.9284   25.7553 O   0  0  0  0  0  0  0  0  0  0  0  0
  -18.5346    1.1421   23.2857 C   0  0  0  0  0  0  0  0  0  0  0  0
  -16.5565   -0.4091   24.0764 H   0  0  0  0  0  0  0  0  0  0  0  0
  -17.4188    0.9496   25.6950 H   0  0  0  0  0  0  0  0  0  0  0  0
  -19.5691    2.1762   23.0499 N   0  0  0  0  0  0  0  0  0  0  0  0
  -20.8463    1.9524   22.6676 C   0  0  0  0  0  0  0  0  0  0  0  0
  -21.5308    3.1223   22.5477 N   0  0  0  0  0  0  0  0  0  0  0  0
  -20.6732    4.1147   22.8775 C   0  0  0  0  0  0  0  0  0  0  0  0
  -20.7270    5.5881   22.9632 C   0  0  0  0  0  0  0  0  0  0  0  0
  -21.8811    6.2468   22.6701 N   0  0  0  0  0  0  0  0  0  0  0  0
  -19.5970    6.2385   23.3421 N   0  0  0  0  0  0  0  0  0  0  0  0
  -18.4511    5.5905   23.6364 C   0  0  0  0  0  0  0  0  0  0  0  0
  -18.3205    4.2513   23.5750 N   0  0  0  0  0  0  0  0  0  0  0  0
  -19.3781    3.4825   23.2109 C   0  0  0  0  0  0  0  0  0  0  0  0
  -22.6811    5.7412   22.3987 H   0  0  0  0  0  0  0  0  0  0  0  0
  -21.9162    7.2289   22.7296 H   0  0  0  0  0  0  0  0  0  0  0  0
  -19.8283   -1.8483   22.3349 C   0  0  0  0  0  0  0  0  0  0  0  0
  -20.3455   -1.1227   21.2208 O   0  0  0  0  0  0  0  0  0  0  0  0
  -21.7712   -1.4977   20.5934 P   0  0  0  0  0  0  0  0  0  0  0  0
  -21.6875   -2.5609   19.5227 O   0  0  0  0  0  0  0  0  0  0  0  0
  -22.4202   -0.1633   20.2006 O   0  0  0  0  0  0  0  0  0  0  0  0
  -23.2931   -0.3303   19.8120 H   0  0  0  0  0  0  0  0  0  0  0  0
  -22.5775   -2.1727   21.8046 O   0  0  0  0  0  0  0  0  0  0  0  0
  -23.7717   -3.2420   21.6217 P   0  0  0  0  0  0  0  0  0  0  0  0
  -24.5560   -3.2612   22.9152 O   0  0  0  0  0  0  0  0  0  0  0  0
  -24.5152   -3.0262   20.3185 O   0  0  0  0  0  0  0  0  0  0  0  0
  -25.2247   -3.6828   20.2384 H   0  0  0  0  0  0  0  0  0  0  0  0
  -22.8708   -4.5784   21.5971 O   0  0  0  0  0  0  0  0  0  0  0  0
  -22.4693   -5.4002   22.9252 P   0  0  0  0  0  0  0  0  0  0  0  0
  -21.5359   -6.4435   22.3526 O   0  0  0  0  0  0  0  0  0  0  0  0
  -23.7593   -5.9739   23.4830 O   0  0  0  0  0  0  0  0  0  0  0  0
  -21.8038   -4.3670   23.8122 O   0  0  0  0  0  0  0  0  0  0  0  0
  -23.5667   -6.4799   24.2879 H   0  0  0  0  0  0  0  0  0  0  0  0
  -21.5281   -4.7839   24.6435 H   0  0  0  0  0  0  0  0  0  0  0  0
 34 35  2  0  0  0
 34 36  1  0  0  0
 34 37  1  0  0  0
 34 33  1  0  0  0
 29 30  2  0  0  0
 29 31  1  0  0  0
 29 33  1  0  0  0
 29 28  1  0  0  0
 24 25  2  0  0  0
 24 26  1  0  0  0
 24 28  1  0  0  0
 24 23  1  0  0  0
 23 22  1  0  0  0
 22  1  1  0  0  0
  1  2  1  0  0  0
  1  3  1  0  0  0
  2  7  1  0  0  0
  3  4  1  0  0  0
  3  5  1  0  0  0
  5  6  1  0  0  0
  5  7  1  0  0  0
  7 10  1  0  0  0
 10 11  1  0  0  0
 10 19  1  0  0  0
 11 12  2  0  0  0
 12 13  1  0  0  0
 13 14  1  0  0  0
 13 19  2  0  0  0
 14 15  1  0  0  0
 14 16  2  0  0  0
 16 17  1  0  0  0
 17 18  2  0  0  0
 18 19  1  0  0  0
 36 38  1  0  0  0
 37 39  1  0  0  0
 31 32  1  0  0  0
 26 27  1  0  0  0
  4  8  1  0  0  0
  6  9  1  0  0  0
 15 20  1  0  0  0
 15 21  1  0  0  0
M  END
> <minimizedAffinity>
-8.50639

$$$$
5LDP_ATP_A_201


 39 41  0  0  0  0  0  0  0  0999 V2000
  -19.8973    3.6149   22.4316 C   0  0  0  0  0  0  0  0  0  0  0  0
  -21.1980    4.1539   22.6893 O   0  0  0  0  0  0  0  0  0  0  0  0
  -18.8924    4.6651   22.8752 C   0  0  0  0  0  0  0  0  0  0  0  0
  -18.5730    5.4613   21.7349 O   0  0  0  0  0  0  0  0  0  0  0  0
  -19.6588    5.5210   23.8706 C   0  0  0  0  0  0  0  0  0  0  0  0
  -19.1624    6.8692   23.9737 O   0  0  0  0  0  0  0  0  0  0  0  0
  -21.0844    5.4315   23.3368 C   0  0  0  0  0  0  0  0  0  0  0  0
  -19.3877    5.8312   21.3604 H   0  0  0  0  0  0  0  0  0  0  0  0
  -19.1966    7.2938   23.1023 H   0  0  0  0  0  0  0  0  0  0  0  0
  -21.9998    5.4743   24.5010 N   0  0  0  0  0  0  0  0  0  0  0  0
  -21.7424    4.9856   25.7349 C   0  0  0  0  0  0  0  0  0  0  0  0
  -22.7951    5.1955   26.5711 N   0  0  0  0  0  0  0  0  0  0  0  0
  -23.7400    5.8483   25.8568 C   0  0  0  0  0  0  0  0  0  0  0  0
  -25.0968    6.3739   26.1099 C   0  0  0  0  0  0  0  0  0  0  0  0
  -25.6602    6.2431   27.3417 N   0  0  0  0  0  0  0  0  0  0  0  0
  -25.7388    6.9820   25.0797 N   0  0  0  0  0  0  0  0  0  0  0  0
  -25.1840    7.1168   23.8575 C   0  0  0  0  0  0  0  0  0  0  0  0
  -23.9562    6.6585   23.5466 N   0  0  0  0  0  0  0  0  0  0  0  0
  -23.2072    6.0318   24.4892 C   0  0  0  0  0  0  0  0  0  0  0  0
  -25.1641    5.7958   28.0649 H   0  0  0  0  0  0  0  0  0  0  0  0
  -26.5640    6.5957   27.5096 H   0  0  0  0  0  0  0  0  0  0  0  0
  -19.7125    2.3293   23.2153 C   0  0  0  0  0  0  0  0  0  0  0  0
  -19.8305    1.2771   22.2593 O   0  0  0  0  0  0  0  0  0  0  0  0
  -21.2078    0.4756   22.0935 P   0  0  0  0  0  0  0  0  0  0  0  0
  -21.6084    0.2761   20.6500 O   0  0  0  0  0  0  0  0  0  0  0  0
  -22.2182    1.1857   23.0050 O   0  0  0  0  0  0  0  0  0  0  0  0
  -23.0774    0.7396   22.9444 H   0  0  0  0  0  0  0  0  0  0  0  0
  -20.8878   -0.9923   22.6556 O   0  0  0  0  0  0  0  0  0  0  0  0
  -19.7769   -1.9844   22.0355 P   0  0  0  0  0  0  0  0  0  0  0  0
  -20.5070   -3.2025   21.5143 O   0  0  0  0  0  0  0  0  0  0  0  0
  -18.8296   -1.2474   21.1096 O   0  0  0  0  0  0  0  0  0  0  0  0
  -18.1756   -1.8695   20.7541 H   0  0  0  0  0  0  0  0  0  0  0  0
  -19.0684   -2.4153   23.4177 O   0  0  0  0  0  0  0  0  0  0  0  0
  -18.1372   -1.4226   24.2825 P   0  0  0  0  0  0  0  0  0  0  0  0
  -17.5108   -2.3891   25.2627 O   0  0  0  0  0  0  0  0  0  0  0  0
  -19.0684   -0.4131   24.9292 O   0  0  0  0  0  0  0  0  0  0  0  0
  -17.1792   -0.8350   23.2656 O   0  0  0  0  0  0  0  0  0  0  0  0
  -18.5501    0.2091   25.4631 H   0  0  0  0  0  0  0  0  0  0  0  0
  -16.5757   -0.2182   23.7087 H   0  0  0  0  0  0  0  0  0  0  0  0
 34 35  2  0  0  0
 34 36  1  0  0  0
 34 37  1  0  0  0
 34 33  1  0  0  0
 29 30  2  0  0  0
 29 31  1  0  0  0
 29 33  1  0  0  0
 29 28  1  0  0  0
 24 25  2  0  0  0
 24 26  1  0  0  0
 24 28  1  0  0  0
 24 23  1  0  0  0
 23 22  1  0  0  0
 22  1  1  0  0  0
  1  2  1  0  0  0
  1  3  1  0  0  0
  2  7  1  0  0  0
  3  4  1  0  0  0
  3  5  1  0  0  0
  5  6  1  0  0  0
  5  7  1  0  0  0
  7 10  1  0  0  0
 10 11  1  0  0  0
 10 19  1  0  0  0
 11 12  2  0  0  0
 12 13  1  0  0  0
 13 14  1  0  0  0
 13 19  2  0  0  0
 14 15  1  0  0  0
 14 16  2  0  0  0
 16 17  1  0  0  0
 17 18  2  0  0  0
 18 19  1  0  0  0
 36 38  1  0  0  0
 37 39  1  0  0  0
 31 32  1  0  0  0
 26 27  1  0  0  0
  4  8  1  0  0  0
  6  9  1  0  0  0
 15 20  1  0  0  0
 15 21  1  0  0  0
M  END
> <minimizedAffinity>
-8.49898

$$$$
5LDP_ATP_A_201


 39 41  0  0  0  0  0  0  0  0999 V2000
  -18.8878    2.4562   23.1848 C   0  0  0  0  0  0  0  0  0  0  0  0
  -20.2633    2.6940   22.8682 O   0  0  0  0  0  0  0  0  0  0  0  0
  -18.2085    3.8147   23.2339 C   0  0  0  0  0  0  0  0  0  0  0  0
  -17.6632    4.0683   21.9398 O   0  0  0  0  0  0  0  0  0  0  0  0
  -19.3441    4.7932   23.4867 C   0  0  0  0  0  0  0  0  0  0  0  0
  -19.0799    6.1217   22.9972 O   0  0  0  0  0  0  0  0  0  0  0  0
  -20.5167    4.1064   22.7946 C   0  0  0  0  0  0  0  0  0  0  0  0
  -18.3663    4.0049   21.2746 H   0  0  0  0  0  0  0  0  0  0  0  0
  -18.9023    6.0858   22.0442 H   0  0  0  0  0  0  0  0  0  0  0  0
  -21.7397    4.4261   23.5674 N   0  0  0  0  0  0  0  0  0  0  0  0
  -22.4173    3.5777   24.3727 C   0  0  0  0  0  0  0  0  0  0  0  0
  -23.4914    4.1946   24.9360 N   0  0  0  0  0  0  0  0  0  0  0  0
  -23.4887    5.4718   24.4914 C   0  0  0  0  0  0  0  0  0  0  0  0
  -24.3319    6.6698   24.6790 C   0  0  0  0  0  0  0  0  0  0  0  0
  -25.4217    6.6164   25.4922 N   0  0  0  0  0  0  0  0  0  0  0  0
  -23.9743    7.8011   24.0190 N   0  0  0  0  0  0  0  0  0  0  0  0
  -22.8936    7.8604   23.2139 C   0  0  0  0  0  0  0  0  0  0  0  0
  -22.0808    6.8108   22.9863 N   0  0  0  0  0  0  0  0  0  0  0  0
  -22.3264    5.6194   23.5884 C   0  0  0  0  0  0  0  0  0  0  0  0
  -25.6501    5.7778   25.9547 H   0  0  0  0  0  0  0  0  0  0  0  0
  -25.9818    7.4162   25.6179 H   0  0  0  0  0  0  0  0  0  0  0  0
  -18.7860    1.7556   24.5263 C   0  0  0  0  0  0  0  0  0  0  0  0
  -18.4266    0.4075   24.2288 O   0  0  0  0  0  0  0  0  0  0  0  0
  -19.3795   -0.8057   24.6613 P   0  0  0  0  0  0  0  0  0  0  0  0
  -20.8488   -0.4973   24.4885 O   0  0  0  0  0  0  0  0  0  0  0  0
  -18.9157   -1.2234   26.0636 O   0  0  0  0  0  0  0  0  0  0  0  0
  -19.4618   -1.9606   26.3785 H   0  0  0  0  0  0  0  0  0  0  0  0
  -19.0582   -1.9657   23.6011 O   0  0  0  0  0  0  0  0  0  0  0  0
  -19.4357   -1.8992   22.0339 P   0  0  0  0  0  0  0  0  0  0  0  0
  -20.4994   -2.9460   21.7859 O   0  0  0  0  0  0  0  0  0  0  0  0
  -19.6927   -0.4744   21.5849 O   0  0  0  0  0  0  0  0  0  0  0  0
  -19.9165   -0.4682   20.6411 H   0  0  0  0  0  0  0  0  0  0  0  0
  -18.0529   -2.4845   21.4478 O   0  0  0  0  0  0  0  0  0  0  0  0
  -16.6774   -1.6433   21.4179 P   0  0  0  0  0  0  0  0  0  0  0  0
  -15.6806   -2.7253   21.0667 O   0  0  0  0  0  0  0  0  0  0  0  0
  -16.4927   -1.0703   22.8113 O   0  0  0  0  0  0  0  0  0  0  0  0
  -16.9016   -0.6069   20.3350 O   0  0  0  0  0  0  0  0  0  0  0  0
  -15.6728   -0.5530   22.8420 H   0  0  0  0  0  0  0  0  0  0  0  0
  -16.1110   -0.0511   20.2507 H   0  0  0  0  0  0  0  0  0  0  0  0
 34 35  2  0  0  0
 34 36  1  0  0  0
 34 37  1  0  0  0
 34 33  1  0  0  0
 29 30  2  0  0  0
 29 31  1  0  0  0
 29 33  1  0  0  0
 29 28  1  0  0  0
 24 25  2  0  0  0
 24 26  1  0  0  0
 24 28  1  0  0  0
 24 23  1  0  0  0
 23 22  1  0  0  0
 22  1  1  0  0  0
  1  2  1  0  0  0
  1  3  1  0  0  0
  2  7  1  0  0  0
  3  4  1  0  0  0
  3  5  1  0  0  0
  5  6  1  0  0  0
  5  7  1  0  0  0
  7 10  1  0  0  0
 10 11  1  0  0  0
 10 19  1  0  0  0
 11 12  2  0  0  0
 12 13  1  0  0  0
 13 14  1  0  0  0
 13 19  2  0  0  0
 14 15  1  0  0  0
 14 16  2  0  0  0
 16 17  1  0  0  0
 17 18  2  0  0  0
 18 19  1  0  0  0
 36 38  1  0  0  0
 37 39  1  0  0  0
 31 32  1  0  0  0
 26 27  1  0  0  0
  4  8  1  0  0  0
  6  9  1  0  0  0
 15 20  1  0  0  0
 15 21  1  0  0  0
M  END
> <minimizedAffinity>
-8.47039

$$$$
5LDP_ATP_A_201


 39 41  0  0  0  0  0  0  0  0999 V2000
  -20.3867    0.4333   23.7092 C   0  0  0  0  0  0  0  0  0  0  0  0
  -20.9236   -0.8854   23.8567 O   0  0  0  0  0  0  0  0  0  0  0  0
  -19.2726    0.3398   22.6799 C   0  0  0  0  0  0  0  0  0  0  0  0
  -18.0510    0.1340   23.3881 O   0  0  0  0  0  0  0  0  0  0  0  0
  -19.5972   -0.9169   21.8885 C   0  0  0  0  0  0  0  0  0  0  0  0
  -18.4424   -1.5357   21.2902 O   0  0  0  0  0  0  0  0  0  0  0  0
  -20.2842   -1.7853   22.9371 C   0  0  0  0  0  0  0  0  0  0  0  0
  -18.1320   -0.6518   23.9510 H   0  0  0  0  0  0  0  0  0  0  0  0
  -17.7994   -1.7572   21.9819 H   0  0  0  0  0  0  0  0  0  0  0  0
  -21.3154   -2.5910   22.2424 N   0  0  0  0  0  0  0  0  0  0  0  0
  -21.8236   -2.3459   21.0140 C   0  0  0  0  0  0  0  0  0  0  0  0
  -22.7482   -3.2843   20.6734 N   0  0  0  0  0  0  0  0  0  0  0  0
  -22.8189   -4.1579   21.7034 C   0  0  0  0  0  0  0  0  0  0  0  0
  -23.5870   -5.3799   22.0165 C   0  0  0  0  0  0  0  0  0  0  0  0
  -24.4851   -5.8698   21.1191 N   0  0  0  0  0  0  0  0  0  0  0  0
  -23.3575   -5.9785   23.2133 N   0  0  0  0  0  0  0  0  0  0  0  0
  -22.4666   -5.4988   24.1054 C   0  0  0  0  0  0  0  0  0  0  0  0
  -21.7343   -4.3878   23.8968 N   0  0  0  0  0  0  0  0  0  0  0  0
  -21.8673   -3.6953   22.7370 C   0  0  0  0  0  0  0  0  0  0  0  0
  -24.6249   -5.4084   20.2607 H   0  0  0  0  0  0  0  0  0  0  0  0
  -24.9950   -6.6856   21.3282 H   0  0  0  0  0  0  0  0  0  0  0  0
  -21.4755    1.3786   23.2383 C   0  0  0  0  0  0  0  0  0  0  0  0
  -20.8155    2.3521   22.4310 O   0  0  0  0  0  0  0  0  0  0  0  0
  -20.5780    3.8396   22.9767 P   0  0  0  0  0  0  0  0  0  0  0  0
  -20.9386    4.0015   24.4353 O   0  0  0  0  0  0  0  0  0  0  0  0
  -21.2811    4.7695   21.9781 O   0  0  0  0  0  0  0  0  0  0  0  0
  -21.1694    5.6908   22.2604 H   0  0  0  0  0  0  0  0  0  0  0  0
  -18.9889    4.0448   22.9034 O   0  0  0  0  0  0  0  0  0  0  0  0
  -18.2655    5.3696   22.3338 P   0  0  0  0  0  0  0  0  0  0  0  0
  -16.7888    5.2362   22.6339 O   0  0  0  0  0  0  0  0  0  0  0  0
  -18.6989    5.6713   20.9129 O   0  0  0  0  0  0  0  0  0  0  0  0
  -18.2478    6.4710   20.6001 H   0  0  0  0  0  0  0  0  0  0  0  0
  -18.8682    6.4242   23.3934 O   0  0  0  0  0  0  0  0  0  0  0  0
  -18.3090    6.5863   24.8972 P   0  0  0  0  0  0  0  0  0  0  0  0
  -19.4243    7.3804   25.5399 O   0  0  0  0  0  0  0  0  0  0  0  0
  -16.9998    7.3468   24.7901 O   0  0  0  0  0  0  0  0  0  0  0  0
  -18.1712    5.1616   25.3957 O   0  0  0  0  0  0  0  0  0  0  0  0
  -16.6235    7.4691   25.6757 H   0  0  0  0  0  0  0  0  0  0  0  0
  -17.8358    5.1686   26.3059 H   0  0  0  0  0  0  0  0  0  0  0  0
 34 35  2  0  0  0
 34 36  1  0  0  0
 34 37  1  0  0  0
 34 33  1  0  0  0
 29 30  2  0  0  0
 29 31  1  0  0  0
 29 33  1  0  0  0
 29 28  1  0  0  0
 24 25  2  0  0  0
 24 26  1  0  0  0
 24 28  1  0  0  0
 24 23  1  0  0  0
 23 22  1  0  0  0
 22  1  1  0  0  0
  1  2  1  0  0  0
  1  3  1  0  0  0
  2  7  1  0  0  0
  3  4  1  0  0  0
  3  5  1  0  0  0
  5  6  1  0  0  0
  5  7  1  0  0  0
  7 10  1  0  0  0
 10 11  1  0  0  0
 10 19  1  0  0  0
 11 12  2  0  0  0
 12 13  1  0  0  0
 13 14  1  0  0  0
 13 19  2  0  0  0
 14 15  1  0  0  0
 14 16  2  0  0  0
 16 17  1  0  0  0
 17 18  2  0  0  0
 18 19  1  0  0  0
 36 38  1  0  0  0
 37 39  1  0  0  0
 31 32  1  0  0  0
 26 27  1  0  0  0
  4  8  1  0  0  0
  6  9  1  0  0  0
 15 20  1  0  0  0
 15 21  1  0  0  0
M  END
> <minimizedAffinity>
-8.30924

$$$$
5LDP_ATP_A_201


 39 41  0  0  0  0  0  0  0  0999 V2000
  -19.1058    3.2789   22.5749 C   0  0  0  0  0  0  0  0  0  0  0  0
  -20.4755    3.6840   22.6674 O   0  0  0  0  0  0  0  0  0  0  0  0
  -18.2646    4.4989   22.9116 C   0  0  0  0  0  0  0  0  0  0  0  0
  -17.9492    5.1542   21.6839 O   0  0  0  0  0  0  0  0  0  0  0  0
  -19.1990    5.3888   23.7153 C   0  0  0  0  0  0  0  0  0  0  0  0
  -18.8686    6.7887   23.6396 O   0  0  0  0  0  0  0  0  0  0  0  0
  -20.5589    5.0463   23.1163 C   0  0  0  0  0  0  0  0  0  0  0  0
  -18.7688    5.3617   21.2083 H   0  0  0  0  0  0  0  0  0  0  0  0
  -18.8823    7.0745   22.7128 H   0  0  0  0  0  0  0  0  0  0  0  0
  -21.5618    5.1441   24.2025 N   0  0  0  0  0  0  0  0  0  0  0  0
  -21.4885    4.5421   25.4107 C   0  0  0  0  0  0  0  0  0  0  0  0
  -22.5736    4.8466   26.1731 N   0  0  0  0  0  0  0  0  0  0  0  0
  -23.3493    5.6761   25.4387 C   0  0  0  0  0  0  0  0  0  0  0  0
  -24.6372    6.3754   25.6222 C   0  0  0  0  0  0  0  0  0  0  0  0
  -25.3233    6.2461   26.7902 N   0  0  0  0  0  0  0  0  0  0  0  0
  -25.0917    7.1377   24.5947 N   0  0  0  0  0  0  0  0  0  0  0  0
  -24.4144    7.2716   23.4358 C   0  0  0  0  0  0  0  0  0  0  0  0
  -23.2391    6.6613   23.1898 N   0  0  0  0  0  0  0  0  0  0  0  0
  -22.6737    5.8709   24.1373 C   0  0  0  0  0  0  0  0  0  0  0  0
  -24.9622    5.6843   27.5136 H   0  0  0  0  0  0  0  0  0  0  0  0
  -26.1807    6.7144   26.9119 H   0  0  0  0  0  0  0  0  0  0  0  0
  -18.8383    2.1540   23.5567 C   0  0  0  0  0  0  0  0  0  0  0  0
  -18.2608    1.1015   22.7862 O   0  0  0  0  0  0  0  0  0  0  0  0
  -18.8564   -0.3841   22.8579 P   0  0  0  0  0  0  0  0  0  0  0  0
  -18.1546   -1.2567   23.8728 O   0  0  0  0  0  0  0  0  0  0  0  0
  -18.8928   -0.8914   21.4098 O   0  0  0  0  0  0  0  0  0  0  0  0
  -19.2477   -1.7940   21.3922 H   0  0  0  0  0  0  0  0  0  0  0  0
  -20.3474   -0.1918   23.4172 O   0  0  0  0  0  0  0  0  0  0  0  0
  -21.6570   -0.0339   22.4881 P   0  0  0  0  0  0  0  0  0  0  0  0
  -22.8358    0.1836   23.4109 O   0  0  0  0  0  0  0  0  0  0  0  0
  -21.4208    0.9493   21.3587 O   0  0  0  0  0  0  0  0  0  0  0  0
  -22.2242    1.0218   20.8199 H   0  0  0  0  0  0  0  0  0  0  0  0
  -21.7425   -1.5562   21.9651 O   0  0  0  0  0  0  0  0  0  0  0  0
  -22.2692   -1.9592   20.4952 P   0  0  0  0  0  0  0  0  0  0  0  0
  -22.4647   -3.4506   20.6534 O   0  0  0  0  0  0  0  0  0  0  0  0
  -21.1633   -1.5868   19.5245 O   0  0  0  0  0  0  0  0  0  0  0  0
  -23.5478   -1.1624   20.3295 O   0  0  0  0  0  0  0  0  0  0  0  0
  -21.4364   -1.8123   18.6214 H   0  0  0  0  0  0  0  0  0  0  0  0
  -23.9346   -1.3490   19.4597 H   0  0  0  0  0  0  0  0  0  0  0  0
 34 35  2  0  0  0
 34 36  1  0  0  0
 34 37  1  0  0  0
 34 33  1  0  0  0
 29 30  2  0  0  0
 29 31  1  0  0  0
 29 33  1  0  0  0
 29 28  1  0  0  0
 24 25  2  0  0  0
 24 26  1  0  0  0
 24 28  1  0  0  0
 24 23  1  0  0  0
 23 22  1  0  0  0
 22  1  1  0  0  0
  1  2  1  0  0  0
  1  3  1  0  0  0
  2  7  1  0  0  0
  3  4  1  0  0  0
  3  5  1  0  0  0
  5  6  1  0  0  0
  5  7  1  0  0  0
  7 10  1  0  0  0
 10 11  1  0  0  0
 10 19  1  0  0  0
 11 12  2  0  0  0
 12 13  1  0  0  0
 13 14  1  0  0  0
 13 19  2  0  0  0
 14 15  1  0  0  0
 14 16  2  0  0  0
 16 17  1  0  0  0
 17 18  2  0  0  0
 18 19  1  0  0  0
 36 38  1  0  0  0
 37 39  1  0  0  0
 31 32  1  0  0  0
 26 27  1  0  0  0
  4  8  1  0  0  0
  6  9  1  0  0  0
 15 20  1  0  0  0
 15 21  1  0  0  0
M  END
> <minimizedAffinity>
-8.12703

$$$$
5LDP_ATP_A_201


 39 41  0  0  0  0  0  0  0  0999 V2000
  -18.8292    0.6593   23.4554 C   0  0  0  0  0  0  0  0  0  0  0  0
  -19.9435   -0.1324   23.8800 O   0  0  0  0  0  0  0  0  0  0  0  0
  -18.0215   -0.1999   22.4968 C   0  0  0  0  0  0  0  0  0  0  0  0
  -17.0113   -0.8589   23.2592 O   0  0  0  0  0  0  0  0  0  0  0  0
  -19.0130   -1.2382   21.9971 C   0  0  0  0  0  0  0  0  0  0  0  0
  -18.3953   -2.4693   21.5761 O   0  0  0  0  0  0  0  0  0  0  0  0
  -19.9407   -1.3966   23.1970 C   0  0  0  0  0  0  0  0  0  0  0  0
  -17.4249   -1.3584   23.9806 H   0  0  0  0  0  0  0  0  0  0  0  0
  -17.8902   -2.8463   22.3134 H   0  0  0  0  0  0  0  0  0  0  0  0
  -21.2994   -1.6755   22.6763 N   0  0  0  0  0  0  0  0  0  0  0  0
  -22.1434   -0.7724   22.1288 C   0  0  0  0  0  0  0  0  0  0  0  0
  -23.3086   -1.3632   21.7483 N   0  0  0  0  0  0  0  0  0  0  0  0
  -23.1978   -2.6779   22.0459 C   0  0  0  0  0  0  0  0  0  0  0  0
  -24.0509   -3.8769   21.9197 C   0  0  0  0  0  0  0  0  0  0  0  0
  -25.2917   -3.7766   21.3701 N   0  0  0  0  0  0  0  0  0  0  0  0
  -23.5484   -5.0569   22.3653 N   0  0  0  0  0  0  0  0  0  0  0  0
  -22.3181   -5.1625   22.9084 C   0  0  0  0  0  0  0  0  0  0  0  0
  -21.4847   -4.1160   23.0643 N   0  0  0  0  0  0  0  0  0  0  0  0
  -21.8660   -2.8786   22.6572 C   0  0  0  0  0  0  0  0  0  0  0  0
  -25.6226   -2.9035   21.0578 H   0  0  0  0  0  0  0  0  0  0  0  0
  -25.8585   -4.5770   21.2847 H   0  0  0  0  0  0  0  0  0  0  0  0
  -19.3279    1.9135   22.7631 C   0  0  0  0  0  0  0  0  0  0  0  0
  -18.7496    3.0030   23.4799 O   0  0  0  0  0  0  0  0  0  0  0  0
  -18.0523    4.2155   22.6987 P   0  0  0  0  0  0  0  0  0  0  0  0
  -19.0341    5.2682   22.2386 O   0  0  0  0  0  0  0  0  0  0  0  0
  -17.1699    3.5683   21.6223 O   0  0  0  0  0  0  0  0  0  0  0  0
  -16.7194    4.2609   21.1141 H   0  0  0  0  0  0  0  0  0  0  0  0
  -17.1413    4.9348   23.8057 O   0  0  0  0  0  0  0  0  0  0  0  0
  -17.5192    6.3226   24.5367 P   0  0  0  0  0  0  0  0  0  0  0  0
  -16.4340    6.6021   25.5529 O   0  0  0  0  0  0  0  0  0  0  0  0
  -17.8754    7.4001   23.5317 O   0  0  0  0  0  0  0  0  0  0  0  0
  -18.0970    8.2195   24.0011 H   0  0  0  0  0  0  0  0  0  0  0  0
  -18.8064    5.7995   25.3537 O   0  0  0  0  0  0  0  0  0  0  0  0
  -20.1759    6.6412   25.4820 P   0  0  0  0  0  0  0  0  0  0  0  0
  -20.9828    5.7489   26.3986 O   0  0  0  0  0  0  0  0  0  0  0  0
  -20.7458    6.7527   24.0796 O   0  0  0  0  0  0  0  0  0  0  0  0
  -19.7437    7.9591   26.0932 O   0  0  0  0  0  0  0  0  0  0  0  0
  -21.5756    7.2544   24.1067 H   0  0  0  0  0  0  0  0  0  0  0  0
  -20.5179    8.5326   26.2059 H   0  0  0  0  0  0  0  0  0  0  0  0
 34 35  2  0  0  0
 34 36  1  0  0  0
 34 37  1  0  0  0
 34 33  1  0  0  0
 29 30  2  0  0  0
 29 31  1  0  0  0
 29 33  1  0  0  0
 29 28  1  0  0  0
 24 25  2  0  0  0
 24 26  1  0  0  0
 24 28  1  0  0  0
 24 23  1  0  0  0
 23 22  1  0  0  0
 22  1  1  0  0  0
  1  2  1  0  0  0
  1  3  1  0  0  0
  2  7  1  0  0  0
  3  4  1  0  0  0
  3  5  1  0  0  0
  5  6  1  0  0  0
  5  7  1  0  0  0
  7 10  1  0  0  0
 10 11  1  0  0  0
 10 19  1  0  0  0
 11 12  2  0  0  0
 12 13  1  0  0  0
 13 14  1  0  0  0
 13 19  2  0  0  0
 14 15  1  0  0  0
 14 16  2  0  0  0
 16 17  1  0  0  0
 17 18  2  0  0  0
 18 19  1  0  0  0
 36 38  1  0  0  0
 37 39  1  0  0  0
 31 32  1  0  0  0
 26 27  1  0  0  0
  4  8  1  0  0  0
  6  9  1  0  0  0
 15 20  1  0  0  0
 15 21  1  0  0  0
M  END
> <minimizedAffinity>
-8.09520

$$$$
5LDP_ATP_A_201


 39 41  0  0  0  0  0  0  0  0999 V2000
  -19.3478    3.9895   22.4207 C   0  0  0  0  0  0  0  0  0  0  0  0
  -20.2500    4.4587   23.4280 O   0  0  0  0  0  0  0  0  0  0  0  0
  -18.2743    5.0538   22.2644 C   0  0  0  0  0  0  0  0  0  0  0  0
  -18.6852    5.9257   21.2121 O   0  0  0  0  0  0  0  0  0  0  0  0
  -18.3111    5.8196   23.5770 C   0  0  0  0  0  0  0  0  0  0  0  0
  -17.8494    7.1793   23.4642 O   0  0  0  0  0  0  0  0  0  0  0  0
  -19.7787    5.7013   23.9741 C   0  0  0  0  0  0  0  0  0  0  0  0
  -19.5649    6.2820   21.4125 H   0  0  0  0  0  0  0  0  0  0  0  0
  -18.3887    7.6507   22.8101 H   0  0  0  0  0  0  0  0  0  0  0  0
  -19.8367    5.6402   25.4533 N   0  0  0  0  0  0  0  0  0  0  0  0
  -20.5957    6.4220   26.2534 C   0  0  0  0  0  0  0  0  0  0  0  0
  -20.4154    6.0988   27.5628 N   0  0  0  0  0  0  0  0  0  0  0  0
  -19.5321    5.0752   27.5967 C   0  0  0  0  0  0  0  0  0  0  0  0
  -18.8912    4.2517   28.6419 C   0  0  0  0  0  0  0  0  0  0  0  0
  -19.1828    4.4663   29.9537 N   0  0  0  0  0  0  0  0  0  0  0  0
  -18.0198    3.2910   28.2405 N   0  0  0  0  0  0  0  0  0  0  0  0
  -17.7292    3.0723   26.9415 C   0  0  0  0  0  0  0  0  0  0  0  0
  -18.2657    3.7846   25.9321 N   0  0  0  0  0  0  0  0  0  0  0  0
  -19.1548    4.7749   26.1983 C   0  0  0  0  0  0  0  0  0  0  0  0
  -19.8202    5.1726   30.2071 H   0  0  0  0  0  0  0  0  0  0  0  0
  -18.7564    3.9153   30.6493 H   0  0  0  0  0  0  0  0  0  0  0  0
  -18.7377    2.6706   22.8555 C   0  0  0  0  0  0  0  0  0  0  0  0
  -19.8124    1.9161   23.4130 O   0  0  0  0  0  0  0  0  0  0  0  0
  -20.2642    0.5282   22.7524 P   0  0  0  0  0  0  0  0  0  0  0  0
  -21.1211    0.7081   21.5207 O   0  0  0  0  0  0  0  0  0  0  0  0
  -20.8553   -0.3075   23.8962 O   0  0  0  0  0  0  0  0  0  0  0  0
  -21.1480   -1.1657   23.5517 H   0  0  0  0  0  0  0  0  0  0  0  0
  -18.8982   -0.1311   22.2307 O   0  0  0  0  0  0  0  0  0  0  0  0
  -18.0251   -1.2014   23.0647 P   0  0  0  0  0  0  0  0  0  0  0  0
  -18.8568   -2.4592   23.1852 O   0  0  0  0  0  0  0  0  0  0  0  0
  -16.6128   -1.3070   22.5242 O   0  0  0  0  0  0  0  0  0  0  0  0
  -16.1150   -1.9564   23.0451 H   0  0  0  0  0  0  0  0  0  0  0  0
  -18.0777   -0.4627   24.4964 O   0  0  0  0  0  0  0  0  0  0  0  0
  -17.7978   -1.2182   25.8933 P   0  0  0  0  0  0  0  0  0  0  0  0
  -19.1855   -1.2457   26.4941 O   0  0  0  0  0  0  0  0  0  0  0  0
  -16.8157   -0.3526   26.6617 O   0  0  0  0  0  0  0  0  0  0  0  0
  -17.2550   -2.5714   25.4794 O   0  0  0  0  0  0  0  0  0  0  0  0
  -16.6160   -0.7693   27.5146 H   0  0  0  0  0  0  0  0  0  0  0  0
  -17.0579   -3.0965   26.2707 H   0  0  0  0  0  0  0  0  0  0  0  0
 34 35  2  0  0  0
 34 36  1  0  0  0
 34 37  1  0  0  0
 34 33  1  0  0  0
 29 30  2  0  0  0
 29 31  1  0  0  0
 29 33  1  0  0  0
 29 28  1  0  0  0
 24 25  2  0  0  0
 24 26  1  0  0  0
 24 28  1  0  0  0
 24 23  1  0  0  0
 23 22  1  0  0  0
 22  1  1  0  0  0
  1  2  1  0  0  0
  1  3  1  0  0  0
  2  7  1  0  0  0
  3  4  1  0  0  0
  3  5  1  0  0  0
  5  6  1  0  0  0
  5  7  1  0  0  0
  7 10  1  0  0  0
 10 11  1  0  0  0
 10 19  1  0  0  0
 11 12  2  0  0  0
 12 13  1  0  0  0
 13 14  1  0  0  0
 13 19  2  0  0  0
 14 15  1  0  0  0
 14 16  2  0  0  0
 16 17  1  0  0  0
 17 18  2  0  0  0
 18 19  1  0  0  0
 36 38  1  0  0  0
 37 39  1  0  0  0
 31 32  1  0  0  0
 26 27  1  0  0  0
  4  8  1  0  0  0
  6  9  1  0  0  0
 15 20  1  0  0  0
 15 21  1  0  0  0
M  END
> <minimizedAffinity>
-8.05698

$$$$
