2WKZ_5AH_B_1200


 56 60  0  0  0  0  0  0  0  0999 V2000
   15.2403   22.4160    6.1308 N   0  0  0  0  0  0  0  0  0  0  0  0
   16.0815   21.4473    5.2865 N   0  0  0  0  0  0  0  0  0  0  0  0
   15.6139   20.2033    4.9829 C   0  0  0  0  0  0  0  0  0  0  0  0
   14.5008   19.8416    5.3850 O   0  0  0  0  0  0  0  0  0  0  0  0
   16.9675   21.7276    4.9613 H   0  0  0  0  0  0  0  0  0  0  0  0
   16.4781   19.2416    4.1584 C   0  0  0  0  0  0  0  0  0  0  0  0
   14.7537   19.1680    2.1548 C   0  0  0  0  0  0  0  0  0  0  0  0
   15.7223   18.3525    3.0778 C   0  0  0  0  0  0  0  0  0  0  0  0
   16.7455   17.6087    2.1692 C   0  0  0  0  0  0  0  0  0  0  0  0
   14.8544   17.2901    3.8324 C   0  0  0  0  0  0  0  0  0  0  0  0
   17.1092   18.4132    5.1799 N   0  0  0  0  0  0  0  0  0  0  0  0
   18.3049   18.7298    5.7037 C   0  0  0  0  0  0  0  0  0  0  0  0
   18.9599   19.7219    5.3851 O   0  0  0  0  0  0  0  0  0  0  0  0
   16.6473   17.6022    5.4932 H   0  0  0  0  0  0  0  0  0  0  0  0
   18.6844   17.8099    6.6230 O   0  0  0  0  0  0  0  0  0  0  0  0
   18.6232   16.4311    6.2052 C   0  0  0  0  0  0  0  0  0  0  0  0
   14.5611   23.4262    5.2802 C   0  0  0  0  0  0  0  0  0  0  0  0
   13.0466   23.1250    5.1062 C   0  0  0  0  0  0  0  0  0  0  0  0
   12.1769   24.3595    4.7007 C   0  0  0  0  0  0  0  0  0  0  0  0
   12.9828   25.5623    4.8503 O   0  0  0  0  0  0  0  0  0  0  0  0
   13.7938   25.4755    4.3254 H   0  0  0  0  0  0  0  0  0  0  0  0
   10.8852   24.4875    5.5313 C   0  0  0  0  0  0  0  0  0  0  0  0
   10.2915   25.7090    5.5833 N   0  0  0  0  0  0  0  0  0  0  0  0
   10.3986   23.5090    6.0820 O   0  0  0  0  0  0  0  0  0  0  0  0
   10.7196   26.4724    5.1326 H   0  0  0  0  0  0  0  0  0  0  0  0
    9.0222   25.9145    6.2988 C   0  0  0  0  0  0  0  0  0  0  0  0
    7.9495   26.7979    5.5757 C   0  0  0  0  0  0  0  0  0  0  0  0
    8.5169   27.8770    4.7771 O   0  0  0  0  0  0  0  0  0  0  0  0
    7.0592   27.4207    6.6773 C   0  0  0  0  0  0  0  0  0  0  0  0
    8.0106   27.4557    7.8664 C   0  0  0  0  0  0  0  0  0  0  0  0
    7.8745   28.2093    9.0605 C   0  0  0  0  0  0  0  0  0  0  0  0
    8.8900   28.0921   10.0515 C   0  0  0  0  0  0  0  0  0  0  0  0
   10.0165   27.2338    9.8434 C   0  0  0  0  0  0  0  0  0  0  0  0
   10.1449   26.4815    8.6424 C   0  0  0  0  0  0  0  0  0  0  0  0
    9.1256   26.6047    7.6534 C   0  0  0  0  0  0  0  0  0  0  0  0
    9.0191   28.4752    5.3523 H   0  0  0  0  0  0  0  0  0  0  0  0
   11.7510   24.2544    3.1809 C   0  0  0  0  0  0  0  0  0  0  0  0
   10.3235   23.6909    2.8935 C   0  0  0  0  0  0  0  0  0  0  0  0
    9.2419   24.5799    2.5780 C   0  0  0  0  0  0  0  0  0  0  0  0
    7.9390   24.0724    2.3231 C   0  0  0  0  0  0  0  0  0  0  0  0
    7.6952   22.6723    2.3789 C   0  0  0  0  0  0  0  0  0  0  0  0
    8.7613   21.7789    2.6902 C   0  0  0  0  0  0  0  0  0  0  0  0
   10.0679   22.2804    2.9449 C   0  0  0  0  0  0  0  0  0  0  0  0
   16.0541   22.8553    7.2962 C   0  0  0  0  0  0  0  0  0  0  0  0
   16.3539   21.6423    8.1920 C   0  0  0  0  0  0  0  0  0  0  0  0
   15.2815   20.9373    8.8059 C   0  0  0  0  0  0  0  0  0  0  0  0
   15.5454   19.8051    9.6250 C   0  0  0  0  0  0  0  0  0  0  0  0
   16.8876   19.3608    9.8453 C   0  0  0  0  0  0  0  0  0  0  0  0
   17.9597   20.0799    9.2310 C   0  0  0  0  0  0  0  0  0  0  0  0
   17.6942   21.2097    8.4060 C   0  0  0  0  0  0  0  0  0  0  0  0
   18.6291   17.1165   12.3751 C   0  0  0  0  0  0  0  0  0  0  0  0
   18.3196   18.1809   11.5627 N   0  0  0  0  0  0  0  0  0  0  0  0
   17.1780   18.1665   10.7074 C   0  0  0  0  0  0  0  0  0  0  0  0
   16.3545   16.9967   10.7169 C   0  0  0  0  0  0  0  0  0  0  0  0
   16.6975   15.9169   11.5627 C   0  0  0  0  0  0  0  0  0  0  0  0
   17.8481   15.9943   12.3932 C   0  0  0  0  0  0  0  0  0  0  0  0
  7  8  1  0  0  0
 51 52  2  0  0  0
 51 56  1  0  0  0
 52 53  1  0  0  0
 53 54  2  0  0  0
 53 48  1  0  0  0
 54 55  1  0  0  0
 55 56  2  0  0  0
 19 18  1  0  0  0
 19 20  1  0  0  0
 19 37  1  0  0  0
 19 22  1  0  0  0
 18 17  1  0  0  0
 17  1  1  0  0  0
 37 38  1  0  0  0
 38 39  1  0  0  0
 38 43  2  0  0  0
 39 40  2  0  0  0
 40 41  1  0  0  0
 41 42  2  0  0  0
 42 43  1  0  0  0
 22 23  1  0  0  0
 22 24  2  0  0  0
 23 26  1  0  0  0
 26 27  1  0  0  0
 26 35  1  0  0  0
 27 28  1  0  0  0
 27 29  1  0  0  0
 29 30  1  0  0  0
 30 31  2  0  0  0
 30 35  1  0  0  0
 31 32  1  0  0  0
 32 33  2  0  0  0
 33 34  1  0  0  0
 34 35  2  0  0  0
  1 44  1  0  0  0
  1  2  1  0  0  0
 44 45  1  0  0  0
 45 46  1  0  0  0
 45 50  2  0  0  0
 46 47  2  0  0  0
 47 48  1  0  0  0
 48 49  2  0  0  0
 49 50  1  0  0  0
  2  3  1  0  0  0
  3  6  1  0  0  0
  3  4  2  0  0  0
  6 11  1  0  0  0
  6  8  1  0  0  0
 11 12  1  0  0  0
 12 15  1  0  0  0
 12 13  2  0  0  0
 15 16  1  0  0  0
  8  9  1  0  0  0
  8 10  1  0  0  0
 20 21  1  0  0  0
 23 25  1  0  0  0
 28 36  1  0  0  0
  2  5  1  0  0  0
 11 14  1  0  0  0
M  END
> <minimizedAffinity>
-12.67794

$$$$
2WKZ_5AH_B_1200


 56 60  0  0  0  0  0  0  0  0999 V2000
   14.9381   22.4603    6.2300 N   0  0  0  0  0  0  0  0  0  0  0  0
   15.8286   21.6182    5.3043 N   0  0  0  0  0  0  0  0  0  0  0  0
   15.5595   20.2988    5.0920 C   0  0  0  0  0  0  0  0  0  0  0  0
   14.5892   19.7648    5.6443 O   0  0  0  0  0  0  0  0  0  0  0  0
   16.6015   22.0355    4.8597 H   0  0  0  0  0  0  0  0  0  0  0  0
   16.4734   19.4685    4.1827 C   0  0  0  0  0  0  0  0  0  0  0  0
   14.9573   17.3947    3.5551 C   0  0  0  0  0  0  0  0  0  0  0  0
   15.7638   18.6318    3.0314 C   0  0  0  0  0  0  0  0  0  0  0  0
   14.7901   19.5361    2.2188 C   0  0  0  0  0  0  0  0  0  0  0  0
   16.8683   18.0864    2.0649 C   0  0  0  0  0  0  0  0  0  0  0  0
   17.1642   18.5950    5.1250 N   0  0  0  0  0  0  0  0  0  0  0  0
   18.3787   18.9021    5.6097 C   0  0  0  0  0  0  0  0  0  0  0  0
   19.0034   19.9216    5.3178 O   0  0  0  0  0  0  0  0  0  0  0  0
   16.7294   17.7599    5.4128 H   0  0  0  0  0  0  0  0  0  0  0  0
   18.8147   17.9386    6.4565 O   0  0  0  0  0  0  0  0  0  0  0  0
   19.2593   16.7099    5.8466 C   0  0  0  0  0  0  0  0  0  0  0  0
   14.0983   23.4100    5.4568 C   0  0  0  0  0  0  0  0  0  0  0  0
   12.8459   22.7231    4.8449 C   0  0  0  0  0  0  0  0  0  0  0  0
   11.5158   23.5299    5.0011 C   0  0  0  0  0  0  0  0  0  0  0  0
   10.7084   22.8956    6.0329 O   0  0  0  0  0  0  0  0  0  0  0  0
   11.2208   22.8379    6.8545 H   0  0  0  0  0  0  0  0  0  0  0  0
   10.7103   23.6265    3.6910 C   0  0  0  0  0  0  0  0  0  0  0  0
    9.4856   24.2130    3.7495 N   0  0  0  0  0  0  0  0  0  0  0  0
   11.1850   23.2264    2.6364 O   0  0  0  0  0  0  0  0  0  0  0  0
    9.1369   24.5146    4.6193 H   0  0  0  0  0  0  0  0  0  0  0  0
    8.6700   24.4068    2.5401 C   0  0  0  0  0  0  0  0  0  0  0  0
    8.6104   25.8630    1.9656 C   0  0  0  0  0  0  0  0  0  0  0  0
    8.6536   26.9011    2.9875 O   0  0  0  0  0  0  0  0  0  0  0  0
    7.2749   25.9907    1.1947 C   0  0  0  0  0  0  0  0  0  0  0  0
    6.4021   24.9663    1.9083 C   0  0  0  0  0  0  0  0  0  0  0  0
    4.9884   24.8566    1.8666 C   0  0  0  0  0  0  0  0  0  0  0  0
    4.3704   23.8156    2.6160 C   0  0  0  0  0  0  0  0  0  0  0  0
    5.1601   22.9057    3.3889 C   0  0  0  0  0  0  0  0  0  0  0  0
    6.5777   23.0233    3.4248 C   0  0  0  0  0  0  0  0  0  0  0  0
    7.1902   24.0689    2.6737 C   0  0  0  0  0  0  0  0  0  0  0  0
    7.8871   26.8089    3.5748 H   0  0  0  0  0  0  0  0  0  0  0  0
   11.8235   25.0075    5.4748 C   0  0  0  0  0  0  0  0  0  0  0  0
   11.0610   25.5071    6.7423 C   0  0  0  0  0  0  0  0  0  0  0  0
   11.6848   25.4519    8.0338 C   0  0  0  0  0  0  0  0  0  0  0  0
   10.9920   25.8984    9.1916 C   0  0  0  0  0  0  0  0  0  0  0  0
    9.6682   26.4061    9.0795 C   0  0  0  0  0  0  0  0  0  0  0  0
    9.0381   26.4670    7.8024 C   0  0  0  0  0  0  0  0  0  0  0  0
    9.7267   26.0231    6.6395 C   0  0  0  0  0  0  0  0  0  0  0  0
   15.7685   22.9564    7.3604 C   0  0  0  0  0  0  0  0  0  0  0  0
   16.1742   21.7705    8.2508 C   0  0  0  0  0  0  0  0  0  0  0  0
   15.1754   21.0487    8.9616 C   0  0  0  0  0  0  0  0  0  0  0  0
   15.5369   19.9410    9.7770 C   0  0  0  0  0  0  0  0  0  0  0  0
   16.9048   19.5385    9.8964 C   0  0  0  0  0  0  0  0  0  0  0  0
   17.9029   20.2745    9.1850 C   0  0  0  0  0  0  0  0  0  0  0  0
   17.5394   21.3795    8.3639 C   0  0  0  0  0  0  0  0  0  0  0  0
   18.7203   17.4978   12.5438 C   0  0  0  0  0  0  0  0  0  0  0  0
   18.3249   18.5325   11.7305 N   0  0  0  0  0  0  0  0  0  0  0  0
   17.2979   18.3704   10.7536 C   0  0  0  0  0  0  0  0  0  0  0  0
   16.6846   17.0829   10.6408 C   0  0  0  0  0  0  0  0  0  0  0  0
   17.1119   16.0369   11.4907 C   0  0  0  0  0  0  0  0  0  0  0  0
   18.1398   16.2637   12.4455 C   0  0  0  0  0  0  0  0  0  0  0  0
  7  8  1  0  0  0
 51 52  2  0  0  0
 51 56  1  0  0  0
 52 53  1  0  0  0
 53 54  2  0  0  0
 53 48  1  0  0  0
 54 55  1  0  0  0
 55 56  2  0  0  0
 19 18  1  0  0  0
 19 20  1  0  0  0
 19 37  1  0  0  0
 19 22  1  0  0  0
 18 17  1  0  0  0
 17  1  1  0  0  0
 37 38  1  0  0  0
 38 39  1  0  0  0
 38 43  2  0  0  0
 39 40  2  0  0  0
 40 41  1  0  0  0
 41 42  2  0  0  0
 42 43  1  0  0  0
 22 23  1  0  0  0
 22 24  2  0  0  0
 23 26  1  0  0  0
 26 27  1  0  0  0
 26 35  1  0  0  0
 27 28  1  0  0  0
 27 29  1  0  0  0
 29 30  1  0  0  0
 30 31  2  0  0  0
 30 35  1  0  0  0
 31 32  1  0  0  0
 32 33  2  0  0  0
 33 34  1  0  0  0
 34 35  2  0  0  0
  1 44  1  0  0  0
  1  2  1  0  0  0
 44 45  1  0  0  0
 45 46  1  0  0  0
 45 50  2  0  0  0
 46 47  2  0  0  0
 47 48  1  0  0  0
 48 49  2  0  0  0
 49 50  1  0  0  0
  2  3  1  0  0  0
  3  6  1  0  0  0
  3  4  2  0  0  0
  6 11  1  0  0  0
  6  8  1  0  0  0
 11 12  1  0  0  0
 12 15  1  0  0  0
 12 13  2  0  0  0
 15 16  1  0  0  0
  8  9  1  0  0  0
  8 10  1  0  0  0
 20 21  1  0  0  0
 23 25  1  0  0  0
 28 36  1  0  0  0
  2  5  1  0  0  0
 11 14  1  0  0  0
M  END
> <minimizedAffinity>
-11.32979

$$$$
2WKZ_5AH_B_1200


 56 60  0  0  0  0  0  0  0  0999 V2000
   14.3648   20.8426    3.1160 N   0  0  0  0  0  0  0  0  0  0  0  0
   14.7282   20.4768    4.5628 N   0  0  0  0  0  0  0  0  0  0  0  0
   15.4440   21.3389    5.3392 C   0  0  0  0  0  0  0  0  0  0  0  0
   15.8080   22.4306    4.8841 O   0  0  0  0  0  0  0  0  0  0  0  0
   14.4412   19.6110    4.9333 H   0  0  0  0  0  0  0  0  0  0  0  0
   15.8173   20.9464    6.7738 C   0  0  0  0  0  0  0  0  0  0  0  0
   13.7372   22.3556    7.5987 C   0  0  0  0  0  0  0  0  0  0  0  0
   15.1645   21.8070    7.9410 C   0  0  0  0  0  0  0  0  0  0  0  0
   15.0597   20.9661    9.2478 C   0  0  0  0  0  0  0  0  0  0  0  0
   16.0817   23.0466    8.2126 C   0  0  0  0  0  0  0  0  0  0  0  0
   17.2712   21.0649    6.7762 N   0  0  0  0  0  0  0  0  0  0  0  0
   18.0646   19.9977    6.9661 C   0  0  0  0  0  0  0  0  0  0  0  0
   17.6528   18.8518    7.1455 O   0  0  0  0  0  0  0  0  0  0  0  0
   17.6811   21.9488    6.6351 H   0  0  0  0  0  0  0  0  0  0  0  0
   19.3699   20.3588    6.9337 O   0  0  0  0  0  0  0  0  0  0  0  0
   19.7538   21.4350    7.8134 C   0  0  0  0  0  0  0  0  0  0  0  0
   13.0553   21.5395    3.0462 C   0  0  0  0  0  0  0  0  0  0  0  0
   12.6301   22.1300    4.4192 C   0  0  0  0  0  0  0  0  0  0  0  0
   12.1267   23.6093    4.3671 C   0  0  0  0  0  0  0  0  0  0  0  0
   13.2560   24.4916    4.6223 O   0  0  0  0  0  0  0  0  0  0  0  0
   13.9631   24.3042    3.9853 H   0  0  0  0  0  0  0  0  0  0  0  0
   10.9973   23.8991    5.3745 C   0  0  0  0  0  0  0  0  0  0  0  0
   10.4803   25.1559    5.3927 N   0  0  0  0  0  0  0  0  0  0  0  0
   10.5610   23.0109    6.0944 O   0  0  0  0  0  0  0  0  0  0  0  0
   10.8650   25.8438    4.8027 H   0  0  0  0  0  0  0  0  0  0  0  0
    9.3577   25.5103    6.2757 C   0  0  0  0  0  0  0  0  0  0  0  0
    8.3095   26.5214    5.6987 C   0  0  0  0  0  0  0  0  0  0  0  0
    8.8862   27.5278    4.8164 O   0  0  0  0  0  0  0  0  0  0  0  0
    7.6637   27.2418    6.9062 C   0  0  0  0  0  0  0  0  0  0  0  0
    8.7691   27.1545    7.9508 C   0  0  0  0  0  0  0  0  0  0  0  0
    8.8933   27.9128    9.1432 C   0  0  0  0  0  0  0  0  0  0  0  0
   10.0155   27.6676    9.9845 C   0  0  0  0  0  0  0  0  0  0  0  0
   10.9897   26.6800    9.6315 C   0  0  0  0  0  0  0  0  0  0  0  0
   10.8571   25.9241    8.4333 C   0  0  0  0  0  0  0  0  0  0  0  0
    9.7321   26.1756    7.5945 C   0  0  0  0  0  0  0  0  0  0  0  0
    9.5325   28.0575    5.3089 H   0  0  0  0  0  0  0  0  0  0  0  0
   11.5705   23.9485    2.9255 C   0  0  0  0  0  0  0  0  0  0  0  0
   10.0398   23.7380    2.7009 C   0  0  0  0  0  0  0  0  0  0  0  0
    9.4652   22.4264    2.7979 C   0  0  0  0  0  0  0  0  0  0  0  0
    8.0737   22.2286    2.5867 C   0  0  0  0  0  0  0  0  0  0  0  0
    7.2350   23.3344    2.2759 C   0  0  0  0  0  0  0  0  0  0  0  0
    7.7935   24.6421    2.1777 C   0  0  0  0  0  0  0  0  0  0  0  0
    9.1851   24.8470    2.3894 C   0  0  0  0  0  0  0  0  0  0  0  0
   14.6215   19.6594    2.2514 C   0  0  0  0  0  0  0  0  0  0  0  0
   15.6540   18.7470    2.9333 C   0  0  0  0  0  0  0  0  0  0  0  0
   15.2139   17.7148    3.8079 C   0  0  0  0  0  0  0  0  0  0  0  0
   16.1587   16.8553    4.4332 C   0  0  0  0  0  0  0  0  0  0  0  0
   17.5605   17.0160    4.1953 C   0  0  0  0  0  0  0  0  0  0  0  0
   17.9945   18.0608    3.3214 C   0  0  0  0  0  0  0  0  0  0  0  0
   17.0474   18.9170    2.6908 C   0  0  0  0  0  0  0  0  0  0  0  0
   19.0197   14.3630    6.4979 C   0  0  0  0  0  0  0  0  0  0  0  0
   18.1411   15.2128    5.8699 N   0  0  0  0  0  0  0  0  0  0  0  0
   18.5669   16.1141    4.8493 C   0  0  0  0  0  0  0  0  0  0  0  0
   19.9529   16.1106    4.4948 C   0  0  0  0  0  0  0  0  0  0  0  0
   20.8337   15.2257    5.1580 C   0  0  0  0  0  0  0  0  0  0  0  0
   20.3460   14.3503    6.1659 C   0  0  0  0  0  0  0  0  0  0  0  0
  7  8  1  0  0  0
 51 52  2  0  0  0
 51 56  1  0  0  0
 52 53  1  0  0  0
 53 54  2  0  0  0
 53 48  1  0  0  0
 54 55  1  0  0  0
 55 56  2  0  0  0
 19 18  1  0  0  0
 19 20  1  0  0  0
 19 37  1  0  0  0
 19 22  1  0  0  0
 18 17  1  0  0  0
 17  1  1  0  0  0
 37 38  1  0  0  0
 38 39  1  0  0  0
 38 43  2  0  0  0
 39 40  2  0  0  0
 40 41  1  0  0  0
 41 42  2  0  0  0
 42 43  1  0  0  0
 22 23  1  0  0  0
 22 24  2  0  0  0
 23 26  1  0  0  0
 26 27  1  0  0  0
 26 35  1  0  0  0
 27 28  1  0  0  0
 27 29  1  0  0  0
 29 30  1  0  0  0
 30 31  2  0  0  0
 30 35  1  0  0  0
 31 32  1  0  0  0
 32 33  2  0  0  0
 33 34  1  0  0  0
 34 35  2  0  0  0
  1 44  1  0  0  0
  1  2  1  0  0  0
 44 45  1  0  0  0
 45 46  1  0  0  0
 45 50  2  0  0  0
 46 47  2  0  0  0
 47 48  1  0  0  0
 48 49  2  0  0  0
 49 50  1  0  0  0
  2  3  1  0  0  0
  3  6  1  0  0  0
  3  4  2  0  0  0
  6 11  1  0  0  0
  6  8  1  0  0  0
 11 12  1  0  0  0
 12 15  1  0  0  0
 12 13  2  0  0  0
 15 16  1  0  0  0
  8  9  1  0  0  0
  8 10  1  0  0  0
 20 21  1  0  0  0
 23 25  1  0  0  0
 28 36  1  0  0  0
  2  5  1  0  0  0
 11 14  1  0  0  0
M  END
> <minimizedAffinity>
-11.18616

$$$$
2WKZ_5AH_B_1200


 56 60  0  0  0  0  0  0  0  0999 V2000
   14.6018   22.5511    6.0619 N   0  0  0  0  0  0  0  0  0  0  0  0
   15.5500   21.7178    5.1868 N   0  0  0  0  0  0  0  0  0  0  0  0
   15.3569   20.3771    5.0338 C   0  0  0  0  0  0  0  0  0  0  0  0
   14.4101   19.8161    5.5997 O   0  0  0  0  0  0  0  0  0  0  0  0
   16.3048   22.1565    4.7318 H   0  0  0  0  0  0  0  0  0  0  0  0
   16.3277   19.5578    4.1748 C   0  0  0  0  0  0  0  0  0  0  0  0
   14.9068   17.4496    3.4471 C   0  0  0  0  0  0  0  0  0  0  0  0
   15.6916   18.7228    2.9800 C   0  0  0  0  0  0  0  0  0  0  0  0
   14.7210   19.6118    2.1473 C   0  0  0  0  0  0  0  0  0  0  0  0
   16.8505   18.2336    2.0477 C   0  0  0  0  0  0  0  0  0  0  0  0
   16.9686   18.6837    5.1511 N   0  0  0  0  0  0  0  0  0  0  0  0
   18.2036   18.9337    5.6166 C   0  0  0  0  0  0  0  0  0  0  0  0
   18.8894   19.8980    5.2778 O   0  0  0  0  0  0  0  0  0  0  0  0
   16.4841   17.8910    5.4769 H   0  0  0  0  0  0  0  0  0  0  0  0
   18.5840   17.9820    6.5025 O   0  0  0  0  0  0  0  0  0  0  0  0
   19.2702   16.8393    5.9523 C   0  0  0  0  0  0  0  0  0  0  0  0
   13.7273   23.4217    5.2359 C   0  0  0  0  0  0  0  0  0  0  0  0
   12.3421   22.7728    4.9624 C   0  0  0  0  0  0  0  0  0  0  0  0
   11.2825   23.7346    4.3325 C   0  0  0  0  0  0  0  0  0  0  0  0
   11.9680   24.6566    3.4387 O   0  0  0  0  0  0  0  0  0  0  0  0
   12.4701   24.1537    2.7785 H   0  0  0  0  0  0  0  0  0  0  0  0
   10.4814   24.5242    5.3858 C   0  0  0  0  0  0  0  0  0  0  0  0
   10.8061   25.8309    5.5708 N   0  0  0  0  0  0  0  0  0  0  0  0
    9.5607   23.9952    5.9942 O   0  0  0  0  0  0  0  0  0  0  0  0
   11.5588   26.2164    5.0667 H   0  0  0  0  0  0  0  0  0  0  0  0
   10.0565   26.6817    6.5087 C   0  0  0  0  0  0  0  0  0  0  0  0
   10.2311   26.3616    8.0322 C   0  0  0  0  0  0  0  0  0  0  0  0
   10.4082   24.9438    8.3192 O   0  0  0  0  0  0  0  0  0  0  0  0
    8.9480   26.8488    8.7466 C   0  0  0  0  0  0  0  0  0  0  0  0
    7.9142   26.7563    7.6316 C   0  0  0  0  0  0  0  0  0  0  0  0
    6.5015   26.7594    7.7602 C   0  0  0  0  0  0  0  0  0  0  0  0
    5.7164   26.6626    6.5764 C   0  0  0  0  0  0  0  0  0  0  0  0
    6.3416   26.5659    5.2925 C   0  0  0  0  0  0  0  0  0  0  0  0
    7.7595   26.5635    5.1729 C   0  0  0  0  0  0  0  0  0  0  0  0
    8.5399   26.6589    6.3621 C   0  0  0  0  0  0  0  0  0  0  0  0
    9.6236   24.4542    8.0266 H   0  0  0  0  0  0  0  0  0  0  0  0
   10.2426   22.9138    3.4679 C   0  0  0  0  0  0  0  0  0  0  0  0
    9.0300   23.7113    2.8923 C   0  0  0  0  0  0  0  0  0  0  0  0
    7.6896   23.2387    3.0919 C   0  0  0  0  0  0  0  0  0  0  0  0
    6.5829   23.9570    2.5633 C   0  0  0  0  0  0  0  0  0  0  0  0
    6.7959   25.1561    1.8286 C   0  0  0  0  0  0  0  0  0  0  0  0
    8.1222   25.6363    1.6244 C   0  0  0  0  0  0  0  0  0  0  0  0
    9.2340   24.9228    2.1521 C   0  0  0  0  0  0  0  0  0  0  0  0
   15.3864   23.1377    7.1816 C   0  0  0  0  0  0  0  0  0  0  0  0
   15.8883   22.0083    8.0961 C   0  0  0  0  0  0  0  0  0  0  0  0
   14.9545   21.2444    8.8501 C   0  0  0  0  0  0  0  0  0  0  0  0
   15.4055   20.1878    9.6884 C   0  0  0  0  0  0  0  0  0  0  0  0
   16.7992   19.8794    9.7877 C   0  0  0  0  0  0  0  0  0  0  0  0
   17.7313   20.6572    9.0327 C   0  0  0  0  0  0  0  0  0  0  0  0
   17.2783   21.7109    8.1889 C   0  0  0  0  0  0  0  0  0  0  0  0
   18.7334   18.0629   12.5133 C   0  0  0  0  0  0  0  0  0  0  0  0
   18.2566   19.0439   11.6773 N   0  0  0  0  0  0  0  0  0  0  0  0
   17.2866   18.7659   10.6688 C   0  0  0  0  0  0  0  0  0  0  0  0
   16.8196   17.4190   10.5485 C   0  0  0  0  0  0  0  0  0  0  0  0
   17.3280   16.4305   11.4221 C   0  0  0  0  0  0  0  0  0  0  0  0
   18.2928   16.7727   12.4080 C   0  0  0  0  0  0  0  0  0  0  0  0
  7  8  1  0  0  0
 51 52  2  0  0  0
 51 56  1  0  0  0
 52 53  1  0  0  0
 53 54  2  0  0  0
 53 48  1  0  0  0
 54 55  1  0  0  0
 55 56  2  0  0  0
 19 18  1  0  0  0
 19 20  1  0  0  0
 19 37  1  0  0  0
 19 22  1  0  0  0
 18 17  1  0  0  0
 17  1  1  0  0  0
 37 38  1  0  0  0
 38 39  1  0  0  0
 38 43  2  0  0  0
 39 40  2  0  0  0
 40 41  1  0  0  0
 41 42  2  0  0  0
 42 43  1  0  0  0
 22 23  1  0  0  0
 22 24  2  0  0  0
 23 26  1  0  0  0
 26 27  1  0  0  0
 26 35  1  0  0  0
 27 28  1  0  0  0
 27 29  1  0  0  0
 29 30  1  0  0  0
 30 31  2  0  0  0
 30 35  1  0  0  0
 31 32  1  0  0  0
 32 33  2  0  0  0
 33 34  1  0  0  0
 34 35  2  0  0  0
  1 44  1  0  0  0
  1  2  1  0  0  0
 44 45  1  0  0  0
 45 46  1  0  0  0
 45 50  2  0  0  0
 46 47  2  0  0  0
 47 48  1  0  0  0
 48 49  2  0  0  0
 49 50  1  0  0  0
  2  3  1  0  0  0
  3  6  1  0  0  0
  3  4  2  0  0  0
  6 11  1  0  0  0
  6  8  1  0  0  0
 11 12  1  0  0  0
 12 15  1  0  0  0
 12 13  2  0  0  0
 15 16  1  0  0  0
  8  9  1  0  0  0
  8 10  1  0  0  0
 20 21  1  0  0  0
 23 25  1  0  0  0
 28 36  1  0  0  0
  2  5  1  0  0  0
 11 14  1  0  0  0
M  END
> <minimizedAffinity>
-10.80422

$$$$
2WKZ_5AH_B_1200


 56 60  0  0  0  0  0  0  0  0999 V2000
   18.2508   18.0453   10.3398 N   0  0  0  0  0  0  0  0  0  0  0  0
   18.1265   17.2733   11.6618 N   0  0  0  0  0  0  0  0  0  0  0  0
   17.1434   16.3451   11.8352 C   0  0  0  0  0  0  0  0  0  0  0  0
   16.3389   16.1129   10.9240 O   0  0  0  0  0  0  0  0  0  0  0  0
   18.7633   17.4507   12.3914 H   0  0  0  0  0  0  0  0  0  0  0  0
   17.0208   15.6011   13.1706 C   0  0  0  0  0  0  0  0  0  0  0  0
   19.1537   14.7823   14.5022 C   0  0  0  0  0  0  0  0  0  0  0  0
   18.0645   14.4300   13.4324 C   0  0  0  0  0  0  0  0  0  0  0  0
   17.3306   13.1368   13.8959 C   0  0  0  0  0  0  0  0  0  0  0  0
   18.8155   14.1292   12.0918 C   0  0  0  0  0  0  0  0  0  0  0  0
   15.6528   15.0956   13.1376 N   0  0  0  0  0  0  0  0  0  0  0  0
   14.8124   15.2701   14.1708 C   0  0  0  0  0  0  0  0  0  0  0  0
   15.1059   15.8601   15.2103 O   0  0  0  0  0  0  0  0  0  0  0  0
   15.3378   14.6146   12.3384 H   0  0  0  0  0  0  0  0  0  0  0  0
   13.6075   14.7087   13.9089 O   0  0  0  0  0  0  0  0  0  0  0  0
   12.9334   15.1750   12.7225 C   0  0  0  0  0  0  0  0  0  0  0  0
   19.3164   17.4743    9.4775 C   0  0  0  0  0  0  0  0  0  0  0  0
   18.7445   16.5276    8.3859 C   0  0  0  0  0  0  0  0  0  0  0  0
   19.3748   16.7100    6.9667 C   0  0  0  0  0  0  0  0  0  0  0  0
   19.8982   18.0643    6.8635 O   0  0  0  0  0  0  0  0  0  0  0  0
   20.5259   18.2243    7.5855 H   0  0  0  0  0  0  0  0  0  0  0  0
   18.3760   16.4457    5.8234 C   0  0  0  0  0  0  0  0  0  0  0  0
   17.6503   17.5008    5.3681 N   0  0  0  0  0  0  0  0  0  0  0  0
   18.2814   15.3329    5.3231 O   0  0  0  0  0  0  0  0  0  0  0  0
   17.7506   18.3782    5.8033 H   0  0  0  0  0  0  0  0  0  0  0  0
   16.7179   17.3595    4.2385 C   0  0  0  0  0  0  0  0  0  0  0  0
   17.3612   17.1426    2.8267 C   0  0  0  0  0  0  0  0  0  0  0  0
   18.6259   17.8427    2.6423 O   0  0  0  0  0  0  0  0  0  0  0  0
   16.3507   17.6745    1.7827 C   0  0  0  0  0  0  0  0  0  0  0  0
   15.5930   18.7236    2.5864 C   0  0  0  0  0  0  0  0  0  0  0  0
   14.7709   19.7667    2.0880 C   0  0  0  0  0  0  0  0  0  0  0  0
   14.1520   20.6431    3.0239 C   0  0  0  0  0  0  0  0  0  0  0  0
   14.3569   20.4711    4.4301 C   0  0  0  0  0  0  0  0  0  0  0  0
   15.1834   19.4220    4.9211 C   0  0  0  0  0  0  0  0  0  0  0  0
   15.8015   18.5489    3.9787 C   0  0  0  0  0  0  0  0  0  0  0  0
   18.4828   18.7979    2.7320 H   0  0  0  0  0  0  0  0  0  0  0  0
   20.5870   15.7122    6.7732 C   0  0  0  0  0  0  0  0  0  0  0  0
   20.6523   14.4957    7.7497 C   0  0  0  0  0  0  0  0  0  0  0  0
   21.5772   14.4944    8.8472 C   0  0  0  0  0  0  0  0  0  0  0  0
   21.6457   13.3861    9.7344 C   0  0  0  0  0  0  0  0  0  0  0  0
   20.7940   12.2636    9.5409 C   0  0  0  0  0  0  0  0  0  0  0  0
   19.8705   12.2533    8.4552 C   0  0  0  0  0  0  0  0  0  0  0  0
   19.7960   13.3600    7.5647 C   0  0  0  0  0  0  0  0  0  0  0  0
   18.2431   19.5021   10.6415 C   0  0  0  0  0  0  0  0  0  0  0  0
   17.1139   20.1788    9.8473 C   0  0  0  0  0  0  0  0  0  0  0  0
   15.7820   20.1429   10.3460 C   0  0  0  0  0  0  0  0  0  0  0  0
   14.7315   20.7777    9.6277 C   0  0  0  0  0  0  0  0  0  0  0  0
   14.9962   21.4572    8.3966 C   0  0  0  0  0  0  0  0  0  0  0  0
   16.3361   21.4816    7.8987 C   0  0  0  0  0  0  0  0  0  0  0  0
   17.3884   20.8511    8.6218 C   0  0  0  0  0  0  0  0  0  0  0  0
   11.6594   21.9801    6.6468 C   0  0  0  0  0  0  0  0  0  0  0  0
   12.6992   21.4097    7.3410 N   0  0  0  0  0  0  0  0  0  0  0  0
   13.8953   22.1314    7.6301 C   0  0  0  0  0  0  0  0  0  0  0  0
   13.9846   23.4827    7.1690 C   0  0  0  0  0  0  0  0  0  0  0  0
   12.8994   24.0432    6.4571 C   0  0  0  0  0  0  0  0  0  0  0  0
   11.7336   23.2712    6.2028 C   0  0  0  0  0  0  0  0  0  0  0  0
  7  8  1  0  0  0
 51 52  2  0  0  0
 51 56  1  0  0  0
 52 53  1  0  0  0
 53 54  2  0  0  0
 53 48  1  0  0  0
 54 55  1  0  0  0
 55 56  2  0  0  0
 19 18  1  0  0  0
 19 20  1  0  0  0
 19 37  1  0  0  0
 19 22  1  0  0  0
 18 17  1  0  0  0
 17  1  1  0  0  0
 37 38  1  0  0  0
 38 39  1  0  0  0
 38 43  2  0  0  0
 39 40  2  0  0  0
 40 41  1  0  0  0
 41 42  2  0  0  0
 42 43  1  0  0  0
 22 23  1  0  0  0
 22 24  2  0  0  0
 23 26  1  0  0  0
 26 27  1  0  0  0
 26 35  1  0  0  0
 27 28  1  0  0  0
 27 29  1  0  0  0
 29 30  1  0  0  0
 30 31  2  0  0  0
 30 35  1  0  0  0
 31 32  1  0  0  0
 32 33  2  0  0  0
 33 34  1  0  0  0
 34 35  2  0  0  0
  1 44  1  0  0  0
  1  2  1  0  0  0
 44 45  1  0  0  0
 45 46  1  0  0  0
 45 50  2  0  0  0
 46 47  2  0  0  0
 47 48  1  0  0  0
 48 49  2  0  0  0
 49 50  1  0  0  0
  2  3  1  0  0  0
  3  6  1  0  0  0
  3  4  2  0  0  0
  6 11  1  0  0  0
  6  8  1  0  0  0
 11 12  1  0  0  0
 12 15  1  0  0  0
 12 13  2  0  0  0
 15 16  1  0  0  0
  8  9  1  0  0  0
  8 10  1  0  0  0
 20 21  1  0  0  0
 23 25  1  0  0  0
 28 36  1  0  0  0
  2  5  1  0  0  0
 11 14  1  0  0  0
M  END
> <minimizedAffinity>
-10.32862

$$$$
2WKZ_5AH_B_1200


 56 60  0  0  0  0  0  0  0  0999 V2000
   15.3352   21.9512    6.7121 N   0  0  0  0  0  0  0  0  0  0  0  0
   16.2712   20.9220    6.0613 N   0  0  0  0  0  0  0  0  0  0  0  0
   15.7737   19.7740    5.5200 C   0  0  0  0  0  0  0  0  0  0  0  0
   14.5569   19.5500    5.5462 O   0  0  0  0  0  0  0  0  0  0  0  0
   17.2404   21.0930    6.0348 H   0  0  0  0  0  0  0  0  0  0  0  0
   16.7263   18.7474    4.8954 C   0  0  0  0  0  0  0  0  0  0  0  0
   19.0339   19.9217    5.4331 C   0  0  0  0  0  0  0  0  0  0  0  0
   18.1687   18.6209    5.5533 C   0  0  0  0  0  0  0  0  0  0  0  0
   18.0513   18.2550    7.0626 C   0  0  0  0  0  0  0  0  0  0  0  0
   18.9483   17.4793    4.8181 C   0  0  0  0  0  0  0  0  0  0  0  0
   16.8128   19.1859    3.5068 N   0  0  0  0  0  0  0  0  0  0  0  0
   16.1404   18.5593    2.5272 C   0  0  0  0  0  0  0  0  0  0  0  0
   15.4052   17.5880    2.7033 O   0  0  0  0  0  0  0  0  0  0  0  0
   17.3779   19.9601    3.2820 H   0  0  0  0  0  0  0  0  0  0  0  0
   16.3851   19.1421    1.3289 O   0  0  0  0  0  0  0  0  0  0  0  0
   15.2670   19.2246    0.4220 C   0  0  0  0  0  0  0  0  0  0  0  0
   14.5868   22.7253    5.6894 C   0  0  0  0  0  0  0  0  0  0  0  0
   13.0647   22.7864    5.9964 C   0  0  0  0  0  0  0  0  0  0  0  0
   12.3379   24.0581    5.4495 C   0  0  0  0  0  0  0  0  0  0  0  0
   13.1597   25.2230    5.7437 O   0  0  0  0  0  0  0  0  0  0  0  0
   14.0456   25.0966    5.3693 H   0  0  0  0  0  0  0  0  0  0  0  0
   10.9277   24.2491    6.0405 C   0  0  0  0  0  0  0  0  0  0  0  0
   10.4485   25.5183    6.1223 N   0  0  0  0  0  0  0  0  0  0  0  0
   10.2572   23.2827    6.3785 O   0  0  0  0  0  0  0  0  0  0  0  0
   11.0230   26.2689    5.8469 H   0  0  0  0  0  0  0  0  0  0  0  0
    9.0893   25.7944    6.6139 C   0  0  0  0  0  0  0  0  0  0  0  0
    8.1520   26.6035    5.6542 C   0  0  0  0  0  0  0  0  0  0  0  0
    8.8503   27.5982    4.8501 O   0  0  0  0  0  0  0  0  0  0  0  0
    7.1157   27.3323    6.5425 C   0  0  0  0  0  0  0  0  0  0  0  0
    7.8775   27.4831    7.8531 C   0  0  0  0  0  0  0  0  0  0  0  0
    7.5747   28.3506    8.9338 C   0  0  0  0  0  0  0  0  0  0  0  0
    8.4273   28.3304   10.0740 C   0  0  0  0  0  0  0  0  0  0  0  0
    9.5586   27.4548   10.1233 C   0  0  0  0  0  0  0  0  0  0  0  0
    9.8547   26.5880    9.0344 C   0  0  0  0  0  0  0  0  0  0  0  0
    8.9982   26.6143    7.8950 C   0  0  0  0  0  0  0  0  0  0  0  0
    9.2694   28.2497    5.4339 H   0  0  0  0  0  0  0  0  0  0  0  0
   12.1817   23.9669    3.8780 C   0  0  0  0  0  0  0  0  0  0  0  0
   10.8082   23.4530    3.3420 C   0  0  0  0  0  0  0  0  0  0  0  0
   10.5432   22.0450    3.2558 C   0  0  0  0  0  0  0  0  0  0  0  0
    9.2974   21.5722    2.7614 C   0  0  0  0  0  0  0  0  0  0  0  0
    8.2981   22.4951    2.3458 C   0  0  0  0  0  0  0  0  0  0  0  0
    8.5489   23.8958    2.4274 C   0  0  0  0  0  0  0  0  0  0  0  0
    9.7931   24.3755    2.9227 C   0  0  0  0  0  0  0  0  0  0  0  0
   16.0877   22.6657    7.7782 C   0  0  0  0  0  0  0  0  0  0  0  0
   16.8647   21.6432    8.6233 C   0  0  0  0  0  0  0  0  0  0  0  0
   18.2872   21.6653    8.6243 C   0  0  0  0  0  0  0  0  0  0  0  0
   19.0169   20.7338    9.4133 C   0  0  0  0  0  0  0  0  0  0  0  0
   18.3348   19.7629   10.2129 C   0  0  0  0  0  0  0  0  0  0  0  0
   16.9054   19.7426   10.1998 C   0  0  0  0  0  0  0  0  0  0  0  0
   16.1755   20.6797    9.4144 C   0  0  0  0  0  0  0  0  0  0  0  0
   20.8691   17.0944   11.1754 C   0  0  0  0  0  0  0  0  0  0  0  0
   20.1397   18.0088   10.4539 N   0  0  0  0  0  0  0  0  0  0  0  0
   19.0946   18.7752   11.0502 C   0  0  0  0  0  0  0  0  0  0  0  0
   18.8215   18.5610   12.4381 C   0  0  0  0  0  0  0  0  0  0  0  0
   19.5879   17.6137   13.1551 C   0  0  0  0  0  0  0  0  0  0  0  0
   20.6174   16.8828   12.5027 C   0  0  0  0  0  0  0  0  0  0  0  0
  7  8  1  0  0  0
 51 52  2  0  0  0
 51 56  1  0  0  0
 52 53  1  0  0  0
 53 54  2  0  0  0
 53 48  1  0  0  0
 54 55  1  0  0  0
 55 56  2  0  0  0
 19 18  1  0  0  0
 19 20  1  0  0  0
 19 37  1  0  0  0
 19 22  1  0  0  0
 18 17  1  0  0  0
 17  1  1  0  0  0
 37 38  1  0  0  0
 38 39  1  0  0  0
 38 43  2  0  0  0
 39 40  2  0  0  0
 40 41  1  0  0  0
 41 42  2  0  0  0
 42 43  1  0  0  0
 22 23  1  0  0  0
 22 24  2  0  0  0
 23 26  1  0  0  0
 26 27  1  0  0  0
 26 35  1  0  0  0
 27 28  1  0  0  0
 27 29  1  0  0  0
 29 30  1  0  0  0
 30 31  2  0  0  0
 30 35  1  0  0  0
 31 32  1  0  0  0
 32 33  2  0  0  0
 33 34  1  0  0  0
 34 35  2  0  0  0
  1 44  1  0  0  0
  1  2  1  0  0  0
 44 45  1  0  0  0
 45 46  1  0  0  0
 45 50  2  0  0  0
 46 47  2  0  0  0
 47 48  1  0  0  0
 48 49  2  0  0  0
 49 50  1  0  0  0
  2  3  1  0  0  0
  3  6  1  0  0  0
  3  4  2  0  0  0
  6 11  1  0  0  0
  6  8  1  0  0  0
 11 12  1  0  0  0
 12 15  1  0  0  0
 12 13  2  0  0  0
 15 16  1  0  0  0
  8  9  1  0  0  0
  8 10  1  0  0  0
 20 21  1  0  0  0
 23 25  1  0  0  0
 28 36  1  0  0  0
  2  5  1  0  0  0
 11 14  1  0  0  0
M  END
> <minimizedAffinity>
-9.93571

$$$$
2WKZ_5AH_B_1200


 56 60  0  0  0  0  0  0  0  0999 V2000
   17.9722   19.3317    8.9065 N   0  0  0  0  0  0  0  0  0  0  0  0
   18.9067   18.6328    9.9052 N   0  0  0  0  0  0  0  0  0  0  0  0
   18.4395   18.2045   11.1120 C   0  0  0  0  0  0  0  0  0  0  0  0
   17.2516   18.3737   11.4152 O   0  0  0  0  0  0  0  0  0  0  0  0
   19.8527   18.4928    9.6714 H   0  0  0  0  0  0  0  0  0  0  0  0
   19.3929   17.5297   12.1055 C   0  0  0  0  0  0  0  0  0  0  0  0
   18.0096   15.3042   11.7499 C   0  0  0  0  0  0  0  0  0  0  0  0
   18.9205   16.1384   12.7140 C   0  0  0  0  0  0  0  0  0  0  0  0
   20.1504   15.2629   13.0969 C   0  0  0  0  0  0  0  0  0  0  0  0
   18.0841   16.4234   14.0066 C   0  0  0  0  0  0  0  0  0  0  0  0
   19.5468   18.5397   13.1468 N   0  0  0  0  0  0  0  0  0  0  0  0
   20.6783   19.2523   13.2751 C   0  0  0  0  0  0  0  0  0  0  0  0
   21.6613   19.1284   12.5450 O   0  0  0  0  0  0  0  0  0  0  0  0
   18.8032   18.7031   13.7709 H   0  0  0  0  0  0  0  0  0  0  0  0
   20.5848   20.1177   14.3133 O   0  0  0  0  0  0  0  0  0  0  0  0
   21.8289   20.6519   14.8094 C   0  0  0  0  0  0  0  0  0  0  0  0
   18.1802   18.8266    7.5256 C   0  0  0  0  0  0  0  0  0  0  0  0
   19.5273   18.0667    7.3747 C   0  0  0  0  0  0  0  0  0  0  0  0
   19.3892   16.5711    6.9404 C   0  0  0  0  0  0  0  0  0  0  0  0
   20.6909   16.0971    6.4935 O   0  0  0  0  0  0  0  0  0  0  0  0
   21.3439   16.2334    7.1977 H   0  0  0  0  0  0  0  0  0  0  0  0
   18.3441   16.3589    5.8281 C   0  0  0  0  0  0  0  0  0  0  0  0
   17.6877   17.4559    5.3666 N   0  0  0  0  0  0  0  0  0  0  0  0
   18.1536   15.2461    5.3557 O   0  0  0  0  0  0  0  0  0  0  0  0
   17.8646   18.3322    5.7791 H   0  0  0  0  0  0  0  0  0  0  0  0
   16.7184   17.3616    4.2635 C   0  0  0  0  0  0  0  0  0  0  0  0
   17.3141   17.1889    2.8250 C   0  0  0  0  0  0  0  0  0  0  0  0
   18.5786   17.8850    2.6241 O   0  0  0  0  0  0  0  0  0  0  0  0
   16.2756   17.7651    1.8332 C   0  0  0  0  0  0  0  0  0  0  0  0
   15.5536   18.7915    2.6968 C   0  0  0  0  0  0  0  0  0  0  0  0
   14.7255   19.8579    2.2617 C   0  0  0  0  0  0  0  0  0  0  0  0
   14.1449   20.7061    3.2470 C   0  0  0  0  0  0  0  0  0  0  0  0
   14.3932   20.4834    4.6390 C   0  0  0  0  0  0  0  0  0  0  0  0
   15.2253   19.4112    5.0663 C   0  0  0  0  0  0  0  0  0  0  0  0
   15.8050   18.5667    4.0748 C   0  0  0  0  0  0  0  0  0  0  0  0
   18.4471   18.8376    2.7515 H   0  0  0  0  0  0  0  0  0  0  0  0
   18.9527   15.6807    8.1729 C   0  0  0  0  0  0  0  0  0  0  0  0
   20.0757   14.8414    8.8601 C   0  0  0  0  0  0  0  0  0  0  0  0
   20.0349   13.4072    8.8251 C   0  0  0  0  0  0  0  0  0  0  0  0
   21.0508   12.6388    9.4557 C   0  0  0  0  0  0  0  0  0  0  0  0
   22.1215   13.2882   10.1300 C   0  0  0  0  0  0  0  0  0  0  0  0
   22.1739   14.7120   10.1709 C   0  0  0  0  0  0  0  0  0  0  0  0
   21.1611   15.4868    9.5404 C   0  0  0  0  0  0  0  0  0  0  0  0
   18.0058   20.7949    9.1731 C   0  0  0  0  0  0  0  0  0  0  0  0
   16.7291   21.4425    8.6125 C   0  0  0  0  0  0  0  0  0  0  0  0
   15.4694   20.8164    8.8252 C   0  0  0  0  0  0  0  0  0  0  0  0
   14.2799   21.4132    8.3239 C   0  0  0  0  0  0  0  0  0  0  0  0
   14.3315   22.6459    7.5992 C   0  0  0  0  0  0  0  0  0  0  0  0
   15.6023   23.2641    7.3831 C   0  0  0  0  0  0  0  0  0  0  0  0
   16.7922   22.6690    7.8907 C   0  0  0  0  0  0  0  0  0  0  0  0
   11.9053   25.3409    6.4503 C   0  0  0  0  0  0  0  0  0  0  0  0
   13.0223   24.7048    6.9364 N   0  0  0  0  0  0  0  0  0  0  0  0
   13.0822   23.2854    7.0660 C   0  0  0  0  0  0  0  0  0  0  0  0
   11.9310   22.5325    6.6729 C   0  0  0  0  0  0  0  0  0  0  0  0
   10.7960   23.2138    6.1766 C   0  0  0  0  0  0  0  0  0  0  0  0
   10.8001   24.6310    6.0704 C   0  0  0  0  0  0  0  0  0  0  0  0
  7  8  1  0  0  0
 51 52  2  0  0  0
 51 56  1  0  0  0
 52 53  1  0  0  0
 53 54  2  0  0  0
 53 48  1  0  0  0
 54 55  1  0  0  0
 55 56  2  0  0  0
 19 18  1  0  0  0
 19 20  1  0  0  0
 19 37  1  0  0  0
 19 22  1  0  0  0
 18 17  1  0  0  0
 17  1  1  0  0  0
 37 38  1  0  0  0
 38 39  1  0  0  0
 38 43  2  0  0  0
 39 40  2  0  0  0
 40 41  1  0  0  0
 41 42  2  0  0  0
 42 43  1  0  0  0
 22 23  1  0  0  0
 22 24  2  0  0  0
 23 26  1  0  0  0
 26 27  1  0  0  0
 26 35  1  0  0  0
 27 28  1  0  0  0
 27 29  1  0  0  0
 29 30  1  0  0  0
 30 31  2  0  0  0
 30 35  1  0  0  0
 31 32  1  0  0  0
 32 33  2  0  0  0
 33 34  1  0  0  0
 34 35  2  0  0  0
  1 44  1  0  0  0
  1  2  1  0  0  0
 44 45  1  0  0  0
 45 46  1  0  0  0
 45 50  2  0  0  0
 46 47  2  0  0  0
 47 48  1  0  0  0
 48 49  2  0  0  0
 49 50  1  0  0  0
  2  3  1  0  0  0
  3  6  1  0  0  0
  3  4  2  0  0  0
  6 11  1  0  0  0
  6  8  1  0  0  0
 11 12  1  0  0  0
 12 15  1  0  0  0
 12 13  2  0  0  0
 15 16  1  0  0  0
  8  9  1  0  0  0
  8 10  1  0  0  0
 20 21  1  0  0  0
 23 25  1  0  0  0
 28 36  1  0  0  0
  2  5  1  0  0  0
 11 14  1  0  0  0
M  END
> <minimizedAffinity>
-9.77812

$$$$
2WKZ_5AH_B_1200


 56 60  0  0  0  0  0  0  0  0999 V2000
   16.5096   20.7294    7.5397 N   0  0  0  0  0  0  0  0  0  0  0  0
   16.6621   19.7342    6.3798 N   0  0  0  0  0  0  0  0  0  0  0  0
   16.4979   20.1404    5.0889 C   0  0  0  0  0  0  0  0  0  0  0  0
   16.2252   21.3211    4.8379 O   0  0  0  0  0  0  0  0  0  0  0  0
   16.8805   18.7934    6.5705 H   0  0  0  0  0  0  0  0  0  0  0  0
   16.6311   19.1273    3.9455 C   0  0  0  0  0  0  0  0  0  0  0  0
   14.2637   19.8703    3.0312 C   0  0  0  0  0  0  0  0  0  0  0  0
   15.2861   18.6971    3.2141 C   0  0  0  0  0  0  0  0  0  0  0  0
   15.5943   18.0998    1.8091 C   0  0  0  0  0  0  0  0  0  0  0  0
   14.5804   17.6020    4.0825 C   0  0  0  0  0  0  0  0  0  0  0  0
   17.2713   17.9875    4.5930 N   0  0  0  0  0  0  0  0  0  0  0  0
   18.3529   17.3926    4.0633 C   0  0  0  0  0  0  0  0  0  0  0  0
   18.8938   17.7453    3.0155 O   0  0  0  0  0  0  0  0  0  0  0  0
   16.9014   17.6459    5.4390 H   0  0  0  0  0  0  0  0  0  0  0  0
   18.7592   16.3584    4.8384 O   0  0  0  0  0  0  0  0  0  0  0  0
   20.0872   15.8572    4.5845 C   0  0  0  0  0  0  0  0  0  0  0  0
   17.7395   20.7858    8.3700 C   0  0  0  0  0  0  0  0  0  0  0  0
   18.5327   19.4499    8.3366 C   0  0  0  0  0  0  0  0  0  0  0  0
   18.7002   18.7541    9.7267 C   0  0  0  0  0  0  0  0  0  0  0  0
   19.2561   19.7197   10.6634 O   0  0  0  0  0  0  0  0  0  0  0  0
   18.6876   20.5050   10.6936 H   0  0  0  0  0  0  0  0  0  0  0  0
   19.5967   17.5019    9.6714 C   0  0  0  0  0  0  0  0  0  0  0  0
   19.1258   16.4229    8.9923 N   0  0  0  0  0  0  0  0  0  0  0  0
   20.7071   17.5069   10.1858 O   0  0  0  0  0  0  0  0  0  0  0  0
   18.2237   16.4569    8.5995 H   0  0  0  0  0  0  0  0  0  0  0  0
   19.9357   15.2048    8.8318 C   0  0  0  0  0  0  0  0  0  0  0  0
   19.6486   14.3398    7.5577 C   0  0  0  0  0  0  0  0  0  0  0  0
   18.2502   14.3423    7.1474 O   0  0  0  0  0  0  0  0  0  0  0  0
   20.0563   12.8862    7.8966 C   0  0  0  0  0  0  0  0  0  0  0  0
   19.8784   12.8556    9.4092 C   0  0  0  0  0  0  0  0  0  0  0  0
   19.7865   11.7136   10.2458 C   0  0  0  0  0  0  0  0  0  0  0  0
   19.6205   11.9146   11.6455 C   0  0  0  0  0  0  0  0  0  0  0  0
   19.5497   13.2369   12.1891 C   0  0  0  0  0  0  0  0  0  0  0  0
   19.6428   14.3767   11.3423 C   0  0  0  0  0  0  0  0  0  0  0  0
   19.8071   14.1686    9.9416 C   0  0  0  0  0  0  0  0  0  0  0  0
   17.7042   13.9701    7.8575 H   0  0  0  0  0  0  0  0  0  0  0  0
   17.2917   18.3006   10.2859 C   0  0  0  0  0  0  0  0  0  0  0  0
   17.3055   17.3598   11.5319 C   0  0  0  0  0  0  0  0  0  0  0  0
   18.1785   17.6326   12.6380 C   0  0  0  0  0  0  0  0  0  0  0  0
   18.2002   16.7749   13.7712 C   0  0  0  0  0  0  0  0  0  0  0  0
   17.3528   15.6336   13.8185 C   0  0  0  0  0  0  0  0  0  0  0  0
   16.4807   15.3525   12.7268 C   0  0  0  0  0  0  0  0  0  0  0  0
   16.4530   16.2078   11.5904 C   0  0  0  0  0  0  0  0  0  0  0  0
   15.1891   20.5021    8.1861 C   0  0  0  0  0  0  0  0  0  0  0  0
   14.1123   21.3031    7.4360 C   0  0  0  0  0  0  0  0  0  0  0  0
   13.9937   22.7035    7.6568 C   0  0  0  0  0  0  0  0  0  0  0  0
   13.0111   23.4575    6.9581 C   0  0  0  0  0  0  0  0  0  0  0  0
   12.1288   22.8220    6.0280 C   0  0  0  0  0  0  0  0  0  0  0  0
   12.2496   21.4130    5.8181 C   0  0  0  0  0  0  0  0  0  0  0  0
   13.2379   20.6598    6.5135 C   0  0  0  0  0  0  0  0  0  0  0  0
   10.1593   24.2985    3.1279 C   0  0  0  0  0  0  0  0  0  0  0  0
   11.0912   23.6002    3.8577 N   0  0  0  0  0  0  0  0  0  0  0  0
   11.0882   23.6080    5.2842 C   0  0  0  0  0  0  0  0  0  0  0  0
   10.0762   24.3752    5.9430 C   0  0  0  0  0  0  0  0  0  0  0  0
    9.1309   25.0838    5.1665 C   0  0  0  0  0  0  0  0  0  0  0  0
    9.1870   25.0338    3.7473 C   0  0  0  0  0  0  0  0  0  0  0  0
  7  8  1  0  0  0
 51 52  2  0  0  0
 51 56  1  0  0  0
 52 53  1  0  0  0
 53 54  2  0  0  0
 53 48  1  0  0  0
 54 55  1  0  0  0
 55 56  2  0  0  0
 19 18  1  0  0  0
 19 20  1  0  0  0
 19 37  1  0  0  0
 19 22  1  0  0  0
 18 17  1  0  0  0
 17  1  1  0  0  0
 37 38  1  0  0  0
 38 39  1  0  0  0
 38 43  2  0  0  0
 39 40  2  0  0  0
 40 41  1  0  0  0
 41 42  2  0  0  0
 42 43  1  0  0  0
 22 23  1  0  0  0
 22 24  2  0  0  0
 23 26  1  0  0  0
 26 27  1  0  0  0
 26 35  1  0  0  0
 27 28  1  0  0  0
 27 29  1  0  0  0
 29 30  1  0  0  0
 30 31  2  0  0  0
 30 35  1  0  0  0
 31 32  1  0  0  0
 32 33  2  0  0  0
 33 34  1  0  0  0
 34 35  2  0  0  0
  1 44  1  0  0  0
  1  2  1  0  0  0
 44 45  1  0  0  0
 45 46  1  0  0  0
 45 50  2  0  0  0
 46 47  2  0  0  0
 47 48  1  0  0  0
 48 49  2  0  0  0
 49 50  1  0  0  0
  2  3  1  0  0  0
  3  6  1  0  0  0
  3  4  2  0  0  0
  6 11  1  0  0  0
  6  8  1  0  0  0
 11 12  1  0  0  0
 12 15  1  0  0  0
 12 13  2  0  0  0
 15 16  1  0  0  0
  8  9  1  0  0  0
  8 10  1  0  0  0
 20 21  1  0  0  0
 23 25  1  0  0  0
 28 36  1  0  0  0
  2  5  1  0  0  0
 11 14  1  0  0  0
M  END
> <minimizedAffinity>
-9.77143

$$$$
2WKZ_5AH_B_1200


 56 60  0  0  0  0  0  0  0  0999 V2000
   18.4055   18.1530   10.3623 N   0  0  0  0  0  0  0  0  0  0  0  0
   18.5890   17.3598   11.6647 N   0  0  0  0  0  0  0  0  0  0  0  0
   17.6546   16.4505   12.0627 C   0  0  0  0  0  0  0  0  0  0  0  0
   16.6456   16.2530   11.3739 O   0  0  0  0  0  0  0  0  0  0  0  0
   19.3896   17.5097   12.2178 H   0  0  0  0  0  0  0  0  0  0  0  0
   17.8438   15.6851   13.3779 C   0  0  0  0  0  0  0  0  0  0  0  0
   19.1655   13.9700   11.8598 C   0  0  0  0  0  0  0  0  0  0  0  0
   18.6175   14.2983   13.2905 C   0  0  0  0  0  0  0  0  0  0  0  0
   19.8159   14.2769   14.2850 C   0  0  0  0  0  0  0  0  0  0  0  0
   17.6226   13.1527   13.6770 C   0  0  0  0  0  0  0  0  0  0  0  0
   16.4751   15.5007   13.8475 N   0  0  0  0  0  0  0  0  0  0  0  0
   16.0806   15.9345   15.0560 C   0  0  0  0  0  0  0  0  0  0  0  0
   16.8130   16.5160   15.8561 O   0  0  0  0  0  0  0  0  0  0  0  0
   15.8244   15.0472   13.2642 H   0  0  0  0  0  0  0  0  0  0  0  0
   14.7747   15.6425   15.2675 O   0  0  0  0  0  0  0  0  0  0  0  0
   14.0857   14.9887   14.1825 C   0  0  0  0  0  0  0  0  0  0  0  0
   19.2975   17.6456    9.2890 C   0  0  0  0  0  0  0  0  0  0  0  0
   18.5311   16.7867    8.2452 C   0  0  0  0  0  0  0  0  0  0  0  0
   19.1616   16.7801    6.8144 C   0  0  0  0  0  0  0  0  0  0  0  0
   20.6073   16.6739    6.9464 O   0  0  0  0  0  0  0  0  0  0  0  0
   20.8274   15.8852    7.4663 H   0  0  0  0  0  0  0  0  0  0  0  0
   18.8012   18.0308    5.9895 C   0  0  0  0  0  0  0  0  0  0  0  0
   17.6173   18.0222    5.3221 N   0  0  0  0  0  0  0  0  0  0  0  0
   19.5410   19.0056    5.9798 O   0  0  0  0  0  0  0  0  0  0  0  0
   17.0546   17.2149    5.3494 H   0  0  0  0  0  0  0  0  0  0  0  0
   17.1588   19.1942    4.5594 C   0  0  0  0  0  0  0  0  0  0  0  0
   16.0118   20.0421    5.2072 C   0  0  0  0  0  0  0  0  0  0  0  0
   15.0547   19.2516    5.9707 O   0  0  0  0  0  0  0  0  0  0  0  0
   15.2574   20.7406    4.0509 C   0  0  0  0  0  0  0  0  0  0  0  0
   15.5091   19.7859    2.8908 C   0  0  0  0  0  0  0  0  0  0  0  0
   14.8089   19.7191    1.6589 C   0  0  0  0  0  0  0  0  0  0  0  0
   15.2130   18.7416    0.7058 C   0  0  0  0  0  0  0  0  0  0  0  0
   16.2987   17.8526    0.9883 C   0  0  0  0  0  0  0  0  0  0  0  0
   16.9953   17.9268    2.2268 C   0  0  0  0  0  0  0  0  0  0  0  0
   16.5848   18.9065    3.1775 C   0  0  0  0  0  0  0  0  0  0  0  0
   14.6219   18.6123    5.3834 H   0  0  0  0  0  0  0  0  0  0  0  0
   18.6612   15.5191    6.0009 C   0  0  0  0  0  0  0  0  0  0  0  0
   19.4227   14.1794    6.2521 C   0  0  0  0  0  0  0  0  0  0  0  0
   18.9799   13.2729    7.2730 C   0  0  0  0  0  0  0  0  0  0  0  0
   19.6742   12.0558    7.5107 C   0  0  0  0  0  0  0  0  0  0  0  0
   20.8193   11.7244    6.7349 C   0  0  0  0  0  0  0  0  0  0  0  0
   21.2684   12.6158    5.7174 C   0  0  0  0  0  0  0  0  0  0  0  0
   20.5770   13.8348    5.4736 C   0  0  0  0  0  0  0  0  0  0  0  0
   18.3929   19.6039   10.6911 C   0  0  0  0  0  0  0  0  0  0  0  0
   17.2336   20.2835    9.9444 C   0  0  0  0  0  0  0  0  0  0  0  0
   17.5119   21.1606    8.8593 C   0  0  0  0  0  0  0  0  0  0  0  0
   16.4474   21.7839    8.1517 C   0  0  0  0  0  0  0  0  0  0  0  0
   15.0861   21.5415    8.5198 C   0  0  0  0  0  0  0  0  0  0  0  0
   14.8157   20.6651    9.6165 C   0  0  0  0  0  0  0  0  0  0  0  0
   15.8819   20.0366   10.3205 C   0  0  0  0  0  0  0  0  0  0  0  0
   11.8408   21.9305    6.5740 C   0  0  0  0  0  0  0  0  0  0  0  0
   12.9021   21.3850    7.2555 N   0  0  0  0  0  0  0  0  0  0  0  0
   13.9543   22.1934    7.7796 C   0  0  0  0  0  0  0  0  0  0  0  0
   13.8742   23.6065    7.5710 C   0  0  0  0  0  0  0  0  0  0  0  0
   12.7708   24.1396    6.8660 C   0  0  0  0  0  0  0  0  0  0  0  0
   11.7536   23.2798    6.3702 C   0  0  0  0  0  0  0  0  0  0  0  0
  7  8  1  0  0  0
 51 52  2  0  0  0
 51 56  1  0  0  0
 52 53  1  0  0  0
 53 54  2  0  0  0
 53 48  1  0  0  0
 54 55  1  0  0  0
 55 56  2  0  0  0
 19 18  1  0  0  0
 19 20  1  0  0  0
 19 37  1  0  0  0
 19 22  1  0  0  0
 18 17  1  0  0  0
 17  1  1  0  0  0
 37 38  1  0  0  0
 38 39  1  0  0  0
 38 43  2  0  0  0
 39 40  2  0  0  0
 40 41  1  0  0  0
 41 42  2  0  0  0
 42 43  1  0  0  0
 22 23  1  0  0  0
 22 24  2  0  0  0
 23 26  1  0  0  0
 26 27  1  0  0  0
 26 35  1  0  0  0
 27 28  1  0  0  0
 27 29  1  0  0  0
 29 30  1  0  0  0
 30 31  2  0  0  0
 30 35  1  0  0  0
 31 32  1  0  0  0
 32 33  2  0  0  0
 33 34  1  0  0  0
 34 35  2  0  0  0
  1 44  1  0  0  0
  1  2  1  0  0  0
 44 45  1  0  0  0
 45 46  1  0  0  0
 45 50  2  0  0  0
 46 47  2  0  0  0
 47 48  1  0  0  0
 48 49  2  0  0  0
 49 50  1  0  0  0
  2  3  1  0  0  0
  3  6  1  0  0  0
  3  4  2  0  0  0
  6 11  1  0  0  0
  6  8  1  0  0  0
 11 12  1  0  0  0
 12 15  1  0  0  0
 12 13  2  0  0  0
 15 16  1  0  0  0
  8  9  1  0  0  0
  8 10  1  0  0  0
 20 21  1  0  0  0
 23 25  1  0  0  0
 28 36  1  0  0  0
  2  5  1  0  0  0
 11 14  1  0  0  0
M  END
> <minimizedAffinity>
-9.70243

$$$$
