3LZZ_GDP_A_173


 36 38  0  0  0  0  0  0  0  0999 V2000
  -27.1224   -9.0578    4.8411 C   0  0  0  0  0  0  0  0  0  0  0  0
  -27.1538   -9.1310    6.2529 O   0  0  0  0  0  0  0  0  0  0  0  0
  -25.6726   -9.2194    4.4251 C   0  0  0  0  0  0  0  0  0  0  0  0
  -25.2934   -8.2173    3.4705 O   0  0  0  0  0  0  0  0  0  0  0  0
  -24.9385   -9.0069    5.7290 C   0  0  0  0  0  0  0  0  0  0  0  0
  -23.9503   -8.0454    5.5042 O   0  0  0  0  0  0  0  0  0  0  0  0
  -26.0117   -8.3957    6.5748 C   0  0  0  0  0  0  0  0  0  0  0  0
  -25.4576   -7.3370    3.8434 H   0  0  0  0  0  0  0  0  0  0  0  0
  -24.3540   -7.2496    5.1239 H   0  0  0  0  0  0  0  0  0  0  0  0
  -25.7277   -8.1569    7.9897 N   0  0  0  0  0  0  0  0  0  0  0  0
  -26.1816   -8.7551    9.0812 C   0  0  0  0  0  0  0  0  0  0  0  0
  -25.6931   -8.1426   10.1700 N   0  0  0  0  0  0  0  0  0  0  0  0
  -24.9488   -7.1074    9.7756 C   0  0  0  0  0  0  0  0  0  0  0  0
  -24.1198   -6.0179   10.3485 C   0  0  0  0  0  0  0  0  0  0  0  0
  -23.9641   -5.8413   11.5311 O   0  0  0  0  0  0  0  0  0  0  0  0
  -23.5146   -5.2045    9.5317 N   0  0  0  0  0  0  0  0  0  0  0  0
  -23.6456   -5.3435    8.2149 C   0  0  0  0  0  0  0  0  0  0  0  0
  -23.0426   -4.5181    7.3674 N   0  0  0  0  0  0  0  0  0  0  0  0
  -24.3620   -6.2749    7.6326 N   0  0  0  0  0  0  0  0  0  0  0  0
  -25.0026   -7.1601    8.3385 C   0  0  0  0  0  0  0  0  0  0  0  0
  -22.9544   -4.4795    9.8919 H   0  0  0  0  0  0  0  0  0  0  0  0
  -22.4815   -3.7850    7.7093 H   0  0  0  0  0  0  0  0  0  0  0  0
  -23.1567   -4.6392    6.3970 H   0  0  0  0  0  0  0  0  0  0  0  0
  -28.0114  -10.1383    4.3050 C   0  0  0  0  0  0  0  0  0  0  0  0
  -28.8091   -9.5874    3.2928 O   0  0  0  0  0  0  0  0  0  0  0  0
  -30.3151  -10.0063    3.4417 P   0  0  0  0  0  0  0  0  0  0  0  0
  -30.7574   -9.4167    4.7467 O   0  0  0  0  0  0  0  0  0  0  0  0
  -31.0512   -9.4653    2.2384 O   0  0  0  0  0  0  0  0  0  0  0  0
  -31.9888   -9.7065    2.2976 H   0  0  0  0  0  0  0  0  0  0  0  0
  -30.3610  -11.6121    3.5564 O   0  0  0  0  0  0  0  0  0  0  0  0
  -30.3181  -12.4944    2.2196 P   0  0  0  0  0  0  0  0  0  0  0  0
  -30.0821  -13.9251    2.6135 O   0  0  0  0  0  0  0  0  0  0  0  0
  -29.2215  -12.0333    1.2953 O   0  0  0  0  0  0  0  0  0  0  0  0
  -31.6303  -12.4197    1.5082 O   0  0  0  0  0  0  0  0  0  0  0  0
  -29.2190  -12.5837    0.4966 H   0  0  0  0  0  0  0  0  0  0  0  0
  -31.5920  -12.9571    0.7017 H   0  0  0  0  0  0  0  0  0  0  0  0
 31 32  2  0  0  0
 31 33  1  0  0  0
 31 34  1  0  0  0
 31 30  1  0  0  0
 30 26  1  0  0  0
 26 27  2  0  0  0
 26 28  1  0  0  0
 26 25  1  0  0  0
 25 24  1  0  0  0
 24  1  1  0  0  0
  1  2  1  0  0  0
  1  3  1  0  0  0
  2  7  1  0  0  0
  3  4  1  0  0  0
  3  5  1  0  0  0
  5  6  1  0  0  0
  5  7  1  0  0  0
  7 10  1  0  0  0
 10 11  1  0  0  0
 10 20  1  0  0  0
 11 12  2  0  0  0
 12 13  1  0  0  0
 13 14  1  0  0  0
 13 20  2  0  0  0
 14 15  2  0  0  0
 14 16  1  0  0  0
 16 17  1  0  0  0
 17 18  1  0  0  0
 17 19  2  0  0  0
 19 20  1  0  0  0
 33 35  1  0  0  0
 34 36  1  0  0  0
 28 29  1  0  0  0
  4  8  1  0  0  0
  6  9  1  0  0  0
 16 21  1  0  0  0
 18 22  1  0  0  0
 18 23  1  0  0  0
M  END
> <minimizedAffinity>
-7.78445

$$$$
3LZZ_GDP_A_173


 36 38  0  0  0  0  0  0  0  0999 V2000
  -25.9528   -9.0159    6.0428 C   0  0  0  0  0  0  0  0  0  0  0  0
  -24.9277   -8.0569    5.8725 O   0  0  0  0  0  0  0  0  0  0  0  0
  -26.7164   -8.6250    7.2938 C   0  0  0  0  0  0  0  0  0  0  0  0
  -26.9130   -9.7561    8.1548 O   0  0  0  0  0  0  0  0  0  0  0  0
  -25.7833   -7.6281    7.9417 C   0  0  0  0  0  0  0  0  0  0  0  0
  -25.6033   -8.0212    9.2701 O   0  0  0  0  0  0  0  0  0  0  0  0
  -24.5122   -7.8858    7.1942 C   0  0  0  0  0  0  0  0  0  0  0  0
  -26.0535  -10.1488    8.3741 H   0  0  0  0  0  0  0  0  0  0  0  0
  -25.3043   -8.9435    9.2967 H   0  0  0  0  0  0  0  0  0  0  0  0
  -23.3704   -7.0066    7.4444 N   0  0  0  0  0  0  0  0  0  0  0  0
  -23.2192   -5.7033    7.2607 C   0  0  0  0  0  0  0  0  0  0  0  0
  -21.9631   -5.3453    7.5663 N   0  0  0  0  0  0  0  0  0  0  0  0
  -21.2821   -6.4405    7.9098 C   0  0  0  0  0  0  0  0  0  0  0  0
  -19.9257   -6.8437    8.3570 C   0  0  0  0  0  0  0  0  0  0  0  0
  -19.0069   -6.0756    8.4966 O   0  0  0  0  0  0  0  0  0  0  0  0
  -19.7089   -8.0994    8.6243 N   0  0  0  0  0  0  0  0  0  0  0  0
  -20.6799   -8.9991    8.4897 C   0  0  0  0  0  0  0  0  0  0  0  0
  -20.4743  -10.2849    8.7496 N   0  0  0  0  0  0  0  0  0  0  0  0
  -21.9002   -8.7237    8.0962 N   0  0  0  0  0  0  0  0  0  0  0  0
  -22.2486   -7.5025    7.8145 C   0  0  0  0  0  0  0  0  0  0  0  0
  -18.8177   -8.3860    8.9290 H   0  0  0  0  0  0  0  0  0  0  0  0
  -19.5886  -10.5906    9.0518 H   0  0  0  0  0  0  0  0  0  0  0  0
  -21.2076  -10.9326    8.6401 H   0  0  0  0  0  0  0  0  0  0  0  0
  -26.8022   -9.0048    4.8085 C   0  0  0  0  0  0  0  0  0  0  0  0
  -27.4109  -10.2612    4.6842 O   0  0  0  0  0  0  0  0  0  0  0  0
  -28.6846  -10.2059    3.7676 P   0  0  0  0  0  0  0  0  0  0  0  0
  -29.7561   -9.6013    4.6236 O   0  0  0  0  0  0  0  0  0  0  0  0
  -28.3263   -9.3822    2.5528 O   0  0  0  0  0  0  0  0  0  0  0  0
  -29.0936   -9.3269    1.9619 H   0  0  0  0  0  0  0  0  0  0  0  0
  -29.0949  -11.7236    3.4183 O   0  0  0  0  0  0  0  0  0  0  0  0
  -30.5686  -12.0301    2.8693 P   0  0  0  0  0  0  0  0  0  0  0  0
  -30.4966  -13.2534    1.9998 O   0  0  0  0  0  0  0  0  0  0  0  0
  -31.1074  -10.8704    2.0729 O   0  0  0  0  0  0  0  0  0  0  0  0
  -31.4935  -12.3231    4.0062 O   0  0  0  0  0  0  0  0  0  0  0  0
  -31.9984  -11.0833    1.7539 H   0  0  0  0  0  0  0  0  0  0  0  0
  -32.3814  -12.5068    3.6616 H   0  0  0  0  0  0  0  0  0  0  0  0
 31 32  2  0  0  0
 31 33  1  0  0  0
 31 34  1  0  0  0
 31 30  1  0  0  0
 30 26  1  0  0  0
 26 27  2  0  0  0
 26 28  1  0  0  0
 26 25  1  0  0  0
 25 24  1  0  0  0
 24  1  1  0  0  0
  1  2  1  0  0  0
  1  3  1  0  0  0
  2  7  1  0  0  0
  3  4  1  0  0  0
  3  5  1  0  0  0
  5  6  1  0  0  0
  5  7  1  0  0  0
  7 10  1  0  0  0
 10 11  1  0  0  0
 10 20  1  0  0  0
 11 12  2  0  0  0
 12 13  1  0  0  0
 13 14  1  0  0  0
 13 20  2  0  0  0
 14 15  2  0  0  0
 14 16  1  0  0  0
 16 17  1  0  0  0
 17 18  1  0  0  0
 17 19  2  0  0  0
 19 20  1  0  0  0
 33 35  1  0  0  0
 34 36  1  0  0  0
 28 29  1  0  0  0
  4  8  1  0  0  0
  6  9  1  0  0  0
 16 21  1  0  0  0
 18 22  1  0  0  0
 18 23  1  0  0  0
M  END
> <minimizedAffinity>
-7.65933

$$$$
3LZZ_GDP_A_173


 36 38  0  0  0  0  0  0  0  0999 V2000
  -26.1225   -8.7414    5.4212 C   0  0  0  0  0  0  0  0  0  0  0  0
  -26.4259   -8.8061    6.8007 O   0  0  0  0  0  0  0  0  0  0  0  0
  -24.6122   -8.6557    5.3072 C   0  0  0  0  0  0  0  0  0  0  0  0
  -24.2198   -7.6121    4.4038 O   0  0  0  0  0  0  0  0  0  0  0  0
  -24.2025   -8.3085    6.7200 C   0  0  0  0  0  0  0  0  0  0  0  0
  -23.3631   -7.1939    6.6533 O   0  0  0  0  0  0  0  0  0  0  0  0
  -25.5109   -7.8828    7.3097 C   0  0  0  0  0  0  0  0  0  0  0  0
  -24.6000   -6.7697    4.6982 H   0  0  0  0  0  0  0  0  0  0  0  0
  -23.8081   -6.4827    6.1664 H   0  0  0  0  0  0  0  0  0  0  0  0
  -25.5623   -7.5860    8.7410 N   0  0  0  0  0  0  0  0  0  0  0  0
  -25.8136   -8.3651    9.7826 C   0  0  0  0  0  0  0  0  0  0  0  0
  -25.8232   -7.6313   10.9056 N   0  0  0  0  0  0  0  0  0  0  0  0
  -25.6188   -6.3537   10.5784 C   0  0  0  0  0  0  0  0  0  0  0  0
  -25.4927   -5.0210   11.2192 C   0  0  0  0  0  0  0  0  0  0  0  0
  -25.5958   -4.8321   12.4055 O   0  0  0  0  0  0  0  0  0  0  0  0
  -25.2483   -3.9901   10.4625 N   0  0  0  0  0  0  0  0  0  0  0  0
  -25.1242   -4.1296    9.1451 C   0  0  0  0  0  0  0  0  0  0  0  0
  -24.8835   -3.0882    8.3574 N   0  0  0  0  0  0  0  0  0  0  0  0
  -25.2267   -5.2694    8.5047 N   0  0  0  0  0  0  0  0  0  0  0  0
  -25.4531   -6.3765    9.1491 C   0  0  0  0  0  0  0  0  0  0  0  0
  -25.1543   -3.0984   10.8691 H   0  0  0  0  0  0  0  0  0  0  0  0
  -24.7901   -2.1884    8.7458 H   0  0  0  0  0  0  0  0  0  0  0  0
  -24.7984   -3.2158    7.3849 H   0  0  0  0  0  0  0  0  0  0  0  0
  -26.6926   -9.9632    4.7675 C   0  0  0  0  0  0  0  0  0  0  0  0
  -27.2256   -9.5881    3.5267 O   0  0  0  0  0  0  0  0  0  0  0  0
  -28.7398   -9.9827    3.3972 P   0  0  0  0  0  0  0  0  0  0  0  0
  -29.4145   -9.3328    4.5671 O   0  0  0  0  0  0  0  0  0  0  0  0
  -29.2186   -9.4852    2.0534 O   0  0  0  0  0  0  0  0  0  0  0  0
  -30.1546   -9.7128    1.9391 H   0  0  0  0  0  0  0  0  0  0  0  0
  -28.8386  -11.5815    3.5644 O   0  0  0  0  0  0  0  0  0  0  0  0
  -29.9209  -12.3935    2.7062 P   0  0  0  0  0  0  0  0  0  0  0  0
  -29.2222  -12.9834    1.5139 O   0  0  0  0  0  0  0  0  0  0  0  0
  -31.0402  -11.4956    2.2476 O   0  0  0  0  0  0  0  0  0  0  0  0
  -30.4856  -13.5162    3.5152 O   0  0  0  0  0  0  0  0  0  0  0  0
  -31.6788  -12.0125    1.7319 H   0  0  0  0  0  0  0  0  0  0  0  0
  -31.1387  -13.9998    2.9855 H   0  0  0  0  0  0  0  0  0  0  0  0
 31 32  2  0  0  0
 31 33  1  0  0  0
 31 34  1  0  0  0
 31 30  1  0  0  0
 30 26  1  0  0  0
 26 27  2  0  0  0
 26 28  1  0  0  0
 26 25  1  0  0  0
 25 24  1  0  0  0
 24  1  1  0  0  0
  1  2  1  0  0  0
  1  3  1  0  0  0
  2  7  1  0  0  0
  3  4  1  0  0  0
  3  5  1  0  0  0
  5  6  1  0  0  0
  5  7  1  0  0  0
  7 10  1  0  0  0
 10 11  1  0  0  0
 10 20  1  0  0  0
 11 12  2  0  0  0
 12 13  1  0  0  0
 13 14  1  0  0  0
 13 20  2  0  0  0
 14 15  2  0  0  0
 14 16  1  0  0  0
 16 17  1  0  0  0
 17 18  1  0  0  0
 17 19  2  0  0  0
 19 20  1  0  0  0
 33 35  1  0  0  0
 34 36  1  0  0  0
 28 29  1  0  0  0
  4  8  1  0  0  0
  6  9  1  0  0  0
 16 21  1  0  0  0
 18 22  1  0  0  0
 18 23  1  0  0  0
M  END
> <minimizedAffinity>
-7.56213

$$$$
3LZZ_GDP_A_173


 36 38  0  0  0  0  0  0  0  0999 V2000
  -27.1246   -9.0606    4.7647 C   0  0  0  0  0  0  0  0  0  0  0  0
  -26.8500   -9.0497    6.1517 O   0  0  0  0  0  0  0  0  0  0  0  0
  -25.7943   -9.2265    4.0549 C   0  0  0  0  0  0  0  0  0  0  0  0
  -25.6557   -8.2781    2.9869 O   0  0  0  0  0  0  0  0  0  0  0  0
  -24.8031   -8.9262    5.1556 C   0  0  0  0  0  0  0  0  0  0  0  0
  -23.9121   -7.9661    4.6697 O   0  0  0  0  0  0  0  0  0  0  0  0
  -25.6853   -8.2805    6.1781 C   0  0  0  0  0  0  0  0  0  0  0  0
  -25.7593   -7.3794    3.3371 H   0  0  0  0  0  0  0  0  0  0  0  0
  -24.4091   -7.2002    4.3421 H   0  0  0  0  0  0  0  0  0  0  0  0
  -25.1103   -7.9537    7.4827 N   0  0  0  0  0  0  0  0  0  0  0  0
  -23.8558   -7.7423    7.8523 C   0  0  0  0  0  0  0  0  0  0  0  0
  -23.8011   -7.5447    9.1780 N   0  0  0  0  0  0  0  0  0  0  0  0
  -25.0322   -7.6742    9.6767 C   0  0  0  0  0  0  0  0  0  0  0  0
  -25.7482   -7.5980   10.9744 C   0  0  0  0  0  0  0  0  0  0  0  0
  -25.2084   -7.3738   12.0289 O   0  0  0  0  0  0  0  0  0  0  0  0
  -27.0381   -7.7749   10.9819 N   0  0  0  0  0  0  0  0  0  0  0  0
  -27.6949   -8.0272    9.8526 C   0  0  0  0  0  0  0  0  0  0  0  0
  -29.0088   -8.2186    9.8428 N   0  0  0  0  0  0  0  0  0  0  0  0
  -27.1350   -8.1148    8.6699 N   0  0  0  0  0  0  0  0  0  0  0  0
  -25.8539   -7.9412    8.5258 C   0  0  0  0  0  0  0  0  0  0  0  0
  -27.5324   -7.7215   11.8316 H   0  0  0  0  0  0  0  0  0  0  0  0
  -29.5192   -8.1726   10.6834 H   0  0  0  0  0  0  0  0  0  0  0  0
  -29.4726   -8.4066    8.9950 H   0  0  0  0  0  0  0  0  0  0  0  0
  -28.0790  -10.1836    4.4940 C   0  0  0  0  0  0  0  0  0  0  0  0
  -28.7704   -9.8950    3.3095 O   0  0  0  0  0  0  0  0  0  0  0  0
  -30.3097  -10.1724    3.4484 P   0  0  0  0  0  0  0  0  0  0  0  0
  -30.6928   -9.5934    4.7768 O   0  0  0  0  0  0  0  0  0  0  0  0
  -30.9907   -9.5173    2.2696 O   0  0  0  0  0  0  0  0  0  0  0  0
  -31.9472   -9.6692    2.3234 H   0  0  0  0  0  0  0  0  0  0  0  0
  -30.5101  -11.7695    3.5020 O   0  0  0  0  0  0  0  0  0  0  0  0
  -30.4161  -12.6167    2.1453 P   0  0  0  0  0  0  0  0  0  0  0  0
  -30.1723  -14.0539    2.5097 O   0  0  0  0  0  0  0  0  0  0  0  0
  -29.2992  -12.1180    1.2657 O   0  0  0  0  0  0  0  0  0  0  0  0
  -31.7078  -12.5406    1.3974 O   0  0  0  0  0  0  0  0  0  0  0  0
  -29.2659  -12.6478    0.4539 H   0  0  0  0  0  0  0  0  0  0  0  0
  -31.6385  -13.0567    0.5791 H   0  0  0  0  0  0  0  0  0  0  0  0
 31 32  2  0  0  0
 31 33  1  0  0  0
 31 34  1  0  0  0
 31 30  1  0  0  0
 30 26  1  0  0  0
 26 27  2  0  0  0
 26 28  1  0  0  0
 26 25  1  0  0  0
 25 24  1  0  0  0
 24  1  1  0  0  0
  1  2  1  0  0  0
  1  3  1  0  0  0
  2  7  1  0  0  0
  3  4  1  0  0  0
  3  5  1  0  0  0
  5  6  1  0  0  0
  5  7  1  0  0  0
  7 10  1  0  0  0
 10 11  1  0  0  0
 10 20  1  0  0  0
 11 12  2  0  0  0
 12 13  1  0  0  0
 13 14  1  0  0  0
 13 20  2  0  0  0
 14 15  2  0  0  0
 14 16  1  0  0  0
 16 17  1  0  0  0
 17 18  1  0  0  0
 17 19  2  0  0  0
 19 20  1  0  0  0
 33 35  1  0  0  0
 34 36  1  0  0  0
 28 29  1  0  0  0
  4  8  1  0  0  0
  6  9  1  0  0  0
 16 21  1  0  0  0
 18 22  1  0  0  0
 18 23  1  0  0  0
M  END
> <minimizedAffinity>
-7.46250

$$$$
3LZZ_GDP_A_173


 36 38  0  0  0  0  0  0  0  0999 V2000
  -26.2981   -8.5179    8.0809 C   0  0  0  0  0  0  0  0  0  0  0  0
  -25.1469   -8.0425    7.4115 O   0  0  0  0  0  0  0  0  0  0  0  0
  -26.7936   -7.3857    8.9605 C   0  0  0  0  0  0  0  0  0  0  0  0
  -27.0744   -7.8479   10.2897 O   0  0  0  0  0  0  0  0  0  0  0  0
  -25.6105   -6.4453    8.9707 C   0  0  0  0  0  0  0  0  0  0  0  0
  -25.3229   -6.1446   10.3043 O   0  0  0  0  0  0  0  0  0  0  0  0
  -24.5264   -7.3302    8.4393 C   0  0  0  0  0  0  0  0  0  0  0  0
  -26.2807   -8.2628   10.6622 H   0  0  0  0  0  0  0  0  0  0  0  0
  -25.1995   -6.9680   10.8020 H   0  0  0  0  0  0  0  0  0  0  0  0
  -23.2177   -6.7363    8.1673 N   0  0  0  0  0  0  0  0  0  0  0  0
  -22.8847   -5.5485    7.6843 C   0  0  0  0  0  0  0  0  0  0  0  0
  -21.5532   -5.4754    7.5388 N   0  0  0  0  0  0  0  0  0  0  0  0
  -21.0236   -6.6485    7.8915 C   0  0  0  0  0  0  0  0  0  0  0  0
  -19.7008   -7.3114    8.0066 C   0  0  0  0  0  0  0  0  0  0  0  0
  -18.6560   -6.7836    7.7175 O   0  0  0  0  0  0  0  0  0  0  0  0
  -19.6567   -8.5336    8.4533 N   0  0  0  0  0  0  0  0  0  0  0  0
  -20.7737   -9.1739    8.7891 C   0  0  0  0  0  0  0  0  0  0  0  0
  -20.7482  -10.4232    9.2382 N   0  0  0  0  0  0  0  0  0  0  0  0
  -21.9778   -8.6601    8.7117 N   0  0  0  0  0  0  0  0  0  0  0  0
  -22.1551   -7.4403    8.2962 C   0  0  0  0  0  0  0  0  0  0  0  0
  -18.7883   -8.9885    8.5435 H   0  0  0  0  0  0  0  0  0  0  0  0
  -19.8893  -10.8953    9.3316 H   0  0  0  0  0  0  0  0  0  0  0  0
  -21.5882  -10.8773    9.4779 H   0  0  0  0  0  0  0  0  0  0  0  0
  -27.2946   -8.9344    7.0423 C   0  0  0  0  0  0  0  0  0  0  0  0
  -26.7546   -8.6538    5.7797 O   0  0  0  0  0  0  0  0  0  0  0  0
  -27.3367   -9.6012    4.6710 P   0  0  0  0  0  0  0  0  0  0  0  0
  -26.6846   -9.1578    3.3964 O   0  0  0  0  0  0  0  0  0  0  0  0
  -27.0046  -11.0188    5.0741 O   0  0  0  0  0  0  0  0  0  0  0  0
  -27.3508  -11.6338    4.4086 H   0  0  0  0  0  0  0  0  0  0  0  0
  -28.9183   -9.3137    4.5713 O   0  0  0  0  0  0  0  0  0  0  0  0
  -29.7568   -9.9565    3.3668 P   0  0  0  0  0  0  0  0  0  0  0  0
  -30.1476   -8.8496    2.4288 O   0  0  0  0  0  0  0  0  0  0  0  0
  -30.9921  -10.6551    3.8725 O   0  0  0  0  0  0  0  0  0  0  0  0
  -28.9118  -10.9294    2.6097 O   0  0  0  0  0  0  0  0  0  0  0  0
  -31.4789  -11.0336    3.1237 H   0  0  0  0  0  0  0  0  0  0  0  0
  -29.4299  -11.3113    1.8840 H   0  0  0  0  0  0  0  0  0  0  0  0
 31 32  2  0  0  0
 31 33  1  0  0  0
 31 34  1  0  0  0
 31 30  1  0  0  0
 30 26  1  0  0  0
 26 27  2  0  0  0
 26 28  1  0  0  0
 26 25  1  0  0  0
 25 24  1  0  0  0
 24  1  1  0  0  0
  1  2  1  0  0  0
  1  3  1  0  0  0
  2  7  1  0  0  0
  3  4  1  0  0  0
  3  5  1  0  0  0
  5  6  1  0  0  0
  5  7  1  0  0  0
  7 10  1  0  0  0
 10 11  1  0  0  0
 10 20  1  0  0  0
 11 12  2  0  0  0
 12 13  1  0  0  0
 13 14  1  0  0  0
 13 20  2  0  0  0
 14 15  2  0  0  0
 14 16  1  0  0  0
 16 17  1  0  0  0
 17 18  1  0  0  0
 17 19  2  0  0  0
 19 20  1  0  0  0
 33 35  1  0  0  0
 34 36  1  0  0  0
 28 29  1  0  0  0
  4  8  1  0  0  0
  6  9  1  0  0  0
 16 21  1  0  0  0
 18 22  1  0  0  0
 18 23  1  0  0  0
M  END
> <minimizedAffinity>
-7.22713

$$$$
3LZZ_GDP_A_173


 36 38  0  0  0  0  0  0  0  0999 V2000
  -25.8504   -8.3357    8.1573 C   0  0  0  0  0  0  0  0  0  0  0  0
  -25.0570   -7.4556    7.3857 O   0  0  0  0  0  0  0  0  0  0  0  0
  -26.6737   -7.4753    9.0970 C   0  0  0  0  0  0  0  0  0  0  0  0
  -26.6173   -7.9763   10.4405 O   0  0  0  0  0  0  0  0  0  0  0  0
  -25.9738   -6.1389    9.0053 C   0  0  0  0  0  0  0  0  0  0  0  0
  -25.7063   -5.7132   10.3087 O   0  0  0  0  0  0  0  0  0  0  0  0
  -24.6810   -6.5274    8.3582 C   0  0  0  0  0  0  0  0  0  0  0  0
  -25.6923   -8.0275   10.7279 H   0  0  0  0  0  0  0  0  0  0  0  0
  -25.2154   -6.4043   10.7802 H   0  0  0  0  0  0  0  0  0  0  0  0
  -23.7541   -5.4651    7.9685 N   0  0  0  0  0  0  0  0  0  0  0  0
  -23.9755   -4.2463    7.4987 C   0  0  0  0  0  0  0  0  0  0  0  0
  -22.8075   -3.6521    7.2119 N   0  0  0  0  0  0  0  0  0  0  0  0
  -21.8208   -4.5162    7.4588 C   0  0  0  0  0  0  0  0  0  0  0  0
  -20.3401   -4.5991    7.4030 C   0  0  0  0  0  0  0  0  0  0  0  0
  -19.6296   -3.7023    7.0225 O   0  0  0  0  0  0  0  0  0  0  0  0
  -19.7658   -5.7001    7.7943 N   0  0  0  0  0  0  0  0  0  0  0  0
  -20.4922   -6.7284    8.2247 C   0  0  0  0  0  0  0  0  0  0  0  0
  -19.9238   -7.8616    8.6194 N   0  0  0  0  0  0  0  0  0  0  0  0
  -21.8015   -6.7351    8.2991 N   0  0  0  0  0  0  0  0  0  0  0  0
  -22.4928   -5.6888    7.9532 C   0  0  0  0  0  0  0  0  0  0  0  0
  -18.7842   -5.7724    7.7716 H   0  0  0  0  0  0  0  0  0  0  0  0
  -18.9438   -7.9536    8.6001 H   0  0  0  0  0  0  0  0  0  0  0  0
  -20.4824   -8.6099    8.9313 H   0  0  0  0  0  0  0  0  0  0  0  0
  -26.6888   -9.1445    7.2148 C   0  0  0  0  0  0  0  0  0  0  0  0
  -26.6408   -8.5359    5.9532 O   0  0  0  0  0  0  0  0  0  0  0  0
  -27.1482   -9.4974    4.8203 P   0  0  0  0  0  0  0  0  0  0  0  0
  -26.5003   -8.9977    3.5644 O   0  0  0  0  0  0  0  0  0  0  0  0
  -26.7425  -10.8999    5.2086 O   0  0  0  0  0  0  0  0  0  0  0  0
  -27.0412  -11.5231    4.5280 H   0  0  0  0  0  0  0  0  0  0  0  0
  -28.7416   -9.2991    4.6958 O   0  0  0  0  0  0  0  0  0  0  0  0
  -29.5467  -10.1111    3.5734 P   0  0  0  0  0  0  0  0  0  0  0  0
  -29.0466  -11.5280    3.5750 O   0  0  0  0  0  0  0  0  0  0  0  0
  -29.3475   -9.5024    2.2098 O   0  0  0  0  0  0  0  0  0  0  0  0
  -31.0054  -10.1338    3.8980 O   0  0  0  0  0  0  0  0  0  0  0  0
  -29.8450  -10.0130    1.5520 H   0  0  0  0  0  0  0  0  0  0  0  0
  -31.4816  -10.6276    3.2122 H   0  0  0  0  0  0  0  0  0  0  0  0
 31 32  2  0  0  0
 31 33  1  0  0  0
 31 34  1  0  0  0
 31 30  1  0  0  0
 30 26  1  0  0  0
 26 27  2  0  0  0
 26 28  1  0  0  0
 26 25  1  0  0  0
 25 24  1  0  0  0
 24  1  1  0  0  0
  1  2  1  0  0  0
  1  3  1  0  0  0
  2  7  1  0  0  0
  3  4  1  0  0  0
  3  5  1  0  0  0
  5  6  1  0  0  0
  5  7  1  0  0  0
  7 10  1  0  0  0
 10 11  1  0  0  0
 10 20  1  0  0  0
 11 12  2  0  0  0
 12 13  1  0  0  0
 13 14  1  0  0  0
 13 20  2  0  0  0
 14 15  2  0  0  0
 14 16  1  0  0  0
 16 17  1  0  0  0
 17 18  1  0  0  0
 17 19  2  0  0  0
 19 20  1  0  0  0
 33 35  1  0  0  0
 34 36  1  0  0  0
 28 29  1  0  0  0
  4  8  1  0  0  0
  6  9  1  0  0  0
 16 21  1  0  0  0
 18 22  1  0  0  0
 18 23  1  0  0  0
M  END
> <minimizedAffinity>
-7.06247

$$$$
3LZZ_GDP_A_173


 36 38  0  0  0  0  0  0  0  0999 V2000
  -26.0294   -9.0100    6.2256 C   0  0  0  0  0  0  0  0  0  0  0  0
  -24.8435   -8.2665    6.0245 O   0  0  0  0  0  0  0  0  0  0  0  0
  -26.6447   -8.5135    7.5203 C   0  0  0  0  0  0  0  0  0  0  0  0
  -27.0227   -9.6087    8.3669 O   0  0  0  0  0  0  0  0  0  0  0  0
  -25.5051   -7.7390    8.1414 C   0  0  0  0  0  0  0  0  0  0  0  0
  -25.3479   -8.1986    9.4512 O   0  0  0  0  0  0  0  0  0  0  0  0
  -24.3444   -8.2194    7.3274 C   0  0  0  0  0  0  0  0  0  0  0  0
  -26.2490  -10.1689    8.5358 H   0  0  0  0  0  0  0  0  0  0  0  0
  -25.2363   -9.1621    9.4446 H   0  0  0  0  0  0  0  0  0  0  0  0
  -23.0413   -7.5895    7.5388 N   0  0  0  0  0  0  0  0  0  0  0  0
  -21.8630   -8.1104    7.8477 C   0  0  0  0  0  0  0  0  0  0  0  0
  -20.9629   -7.1294    8.0119 N   0  0  0  0  0  0  0  0  0  0  0  0
  -21.5797   -5.9571    7.8499 C   0  0  0  0  0  0  0  0  0  0  0  0
  -21.2828   -4.5031    7.8656 C   0  0  0  0  0  0  0  0  0  0  0  0
  -20.1935   -4.0410    8.0976 O   0  0  0  0  0  0  0  0  0  0  0  0
  -22.2494   -3.6702    7.6066 N   0  0  0  0  0  0  0  0  0  0  0  0
  -23.4756   -4.1146    7.3436 C   0  0  0  0  0  0  0  0  0  0  0  0
  -24.4751   -3.2794    7.0857 N   0  0  0  0  0  0  0  0  0  0  0  0
  -23.8184   -5.3802    7.3155 N   0  0  0  0  0  0  0  0  0  0  0  0
  -22.9396   -6.3124    7.5409 C   0  0  0  0  0  0  0  0  0  0  0  0
  -22.0712   -2.7019    7.6054 H   0  0  0  0  0  0  0  0  0  0  0  0
  -24.3166   -2.3077    7.0837 H   0  0  0  0  0  0  0  0  0  0  0  0
  -25.3747   -3.6317    6.8965 H   0  0  0  0  0  0  0  0  0  0  0  0
  -26.9135   -8.7959    5.0350 C   0  0  0  0  0  0  0  0  0  0  0  0
  -27.0952  -10.0303    4.3966 O   0  0  0  0  0  0  0  0  0  0  0  0
  -28.5223  -10.1514    3.7529 P   0  0  0  0  0  0  0  0  0  0  0  0
  -29.4464   -9.4775    4.7216 O   0  0  0  0  0  0  0  0  0  0  0  0
  -28.4592   -9.4890    2.3966 O   0  0  0  0  0  0  0  0  0  0  0  0
  -29.3278   -9.5454    1.9684 H   0  0  0  0  0  0  0  0  0  0  0  0
  -28.8919  -11.7176    3.6881 O   0  0  0  0  0  0  0  0  0  0  0  0
  -29.8720  -12.2441    2.5350 P   0  0  0  0  0  0  0  0  0  0  0  0
  -30.3680  -13.6060    2.9314 O   0  0  0  0  0  0  0  0  0  0  0  0
  -29.1614  -12.3270    1.2093 O   0  0  0  0  0  0  0  0  0  0  0  0
  -31.0544  -11.3388    2.4081 O   0  0  0  0  0  0  0  0  0  0  0  0
  -29.7772  -12.6477    0.5318 H   0  0  0  0  0  0  0  0  0  0  0  0
  -31.6396  -11.6675    1.7078 H   0  0  0  0  0  0  0  0  0  0  0  0
 31 32  2  0  0  0
 31 33  1  0  0  0
 31 34  1  0  0  0
 31 30  1  0  0  0
 30 26  1  0  0  0
 26 27  2  0  0  0
 26 28  1  0  0  0
 26 25  1  0  0  0
 25 24  1  0  0  0
 24  1  1  0  0  0
  1  2  1  0  0  0
  1  3  1  0  0  0
  2  7  1  0  0  0
  3  4  1  0  0  0
  3  5  1  0  0  0
  5  6  1  0  0  0
  5  7  1  0  0  0
  7 10  1  0  0  0
 10 11  1  0  0  0
 10 20  1  0  0  0
 11 12  2  0  0  0
 12 13  1  0  0  0
 13 14  1  0  0  0
 13 20  2  0  0  0
 14 15  2  0  0  0
 14 16  1  0  0  0
 16 17  1  0  0  0
 17 18  1  0  0  0
 17 19  2  0  0  0
 19 20  1  0  0  0
 33 35  1  0  0  0
 34 36  1  0  0  0
 28 29  1  0  0  0
  4  8  1  0  0  0
  6  9  1  0  0  0
 16 21  1  0  0  0
 18 22  1  0  0  0
 18 23  1  0  0  0
M  END
> <minimizedAffinity>
-7.02922

$$$$
3LZZ_GDP_A_173


 36 38  0  0  0  0  0  0  0  0999 V2000
  -25.7271   -7.9165    8.4915 C   0  0  0  0  0  0  0  0  0  0  0  0
  -25.7596   -8.4152    7.1687 O   0  0  0  0  0  0  0  0  0  0  0  0
  -26.7871   -8.6709    9.2714 C   0  0  0  0  0  0  0  0  0  0  0  0
  -27.6043   -7.7728   10.0362 O   0  0  0  0  0  0  0  0  0  0  0  0
  -27.6003   -9.3124    8.1708 C   0  0  0  0  0  0  0  0  0  0  0  0
  -28.9425   -9.0030    8.4037 O   0  0  0  0  0  0  0  0  0  0  0  0
  -27.1362   -8.5417    6.9744 C   0  0  0  0  0  0  0  0  0  0  0  0
  -28.0024   -7.1150    9.4448 H   0  0  0  0  0  0  0  0  0  0  0  0
  -29.0434   -8.0416    8.4841 H   0  0  0  0  0  0  0  0  0  0  0  0
  -27.6054   -8.9619    5.6543 N   0  0  0  0  0  0  0  0  0  0  0  0
  -28.7205   -9.5720    5.2808 C   0  0  0  0  0  0  0  0  0  0  0  0
  -28.6809   -9.8219    3.9634 N   0  0  0  0  0  0  0  0  0  0  0  0
  -27.5048   -9.4067    3.4887 C   0  0  0  0  0  0  0  0  0  0  0  0
  -26.7562   -9.3317    2.2094 C   0  0  0  0  0  0  0  0  0  0  0  0
  -27.1781   -9.7434    1.1576 O   0  0  0  0  0  0  0  0  0  0  0  0
  -25.5757   -8.7826    2.2132 N   0  0  0  0  0  0  0  0  0  0  0  0
  -25.0514   -8.3092    3.3407 C   0  0  0  0  0  0  0  0  0  0  0  0
  -23.8455   -7.7539    3.3648 N   0  0  0  0  0  0  0  0  0  0  0  0
  -25.6459   -8.3423    4.5092 N   0  0  0  0  0  0  0  0  0  0  0  0
  -26.8367   -8.8503    4.6355 C   0  0  0  0  0  0  0  0  0  0  0  0
  -25.0659   -8.7171    1.3735 H   0  0  0  0  0  0  0  0  0  0  0  0
  -23.3196   -7.6830    2.5355 H   0  0  0  0  0  0  0  0  0  0  0  0
  -23.4772   -7.4131    4.2118 H   0  0  0  0  0  0  0  0  0  0  0  0
  -24.3435   -8.1251    9.0274 C   0  0  0  0  0  0  0  0  0  0  0  0
  -23.5531   -7.0360    8.6356 O   0  0  0  0  0  0  0  0  0  0  0  0
  -22.3839   -7.4743    7.6834 P   0  0  0  0  0  0  0  0  0  0  0  0
  -21.7549   -8.6570    8.3557 O   0  0  0  0  0  0  0  0  0  0  0  0
  -22.9952   -7.7823    6.3366 O   0  0  0  0  0  0  0  0  0  0  0  0
  -22.2984   -8.0577    5.7206 H   0  0  0  0  0  0  0  0  0  0  0  0
  -21.3147   -6.2705    7.6452 O   0  0  0  0  0  0  0  0  0  0  0  0
  -21.8350   -4.7661    7.4636 P   0  0  0  0  0  0  0  0  0  0  0  0
  -20.7353   -3.9671    6.8234 O   0  0  0  0  0  0  0  0  0  0  0  0
  -22.2054   -4.1521    8.7885 O   0  0  0  0  0  0  0  0  0  0  0  0
  -23.0206   -4.7351    6.5540 O   0  0  0  0  0  0  0  0  0  0  0  0
  -22.5161   -3.2439    8.6485 H   0  0  0  0  0  0  0  0  0  0  0  0
  -23.3260   -3.8201    6.4520 H   0  0  0  0  0  0  0  0  0  0  0  0
 31 32  2  0  0  0
 31 33  1  0  0  0
 31 34  1  0  0  0
 31 30  1  0  0  0
 30 26  1  0  0  0
 26 27  2  0  0  0
 26 28  1  0  0  0
 26 25  1  0  0  0
 25 24  1  0  0  0
 24  1  1  0  0  0
  1  2  1  0  0  0
  1  3  1  0  0  0
  2  7  1  0  0  0
  3  4  1  0  0  0
  3  5  1  0  0  0
  5  6  1  0  0  0
  5  7  1  0  0  0
  7 10  1  0  0  0
 10 11  1  0  0  0
 10 20  1  0  0  0
 11 12  2  0  0  0
 12 13  1  0  0  0
 13 14  1  0  0  0
 13 20  2  0  0  0
 14 15  2  0  0  0
 14 16  1  0  0  0
 16 17  1  0  0  0
 17 18  1  0  0  0
 17 19  2  0  0  0
 19 20  1  0  0  0
 33 35  1  0  0  0
 34 36  1  0  0  0
 28 29  1  0  0  0
  4  8  1  0  0  0
  6  9  1  0  0  0
 16 21  1  0  0  0
 18 22  1  0  0  0
 18 23  1  0  0  0
M  END
> <minimizedAffinity>
-6.96569

$$$$
3LZZ_GDP_A_173


 36 38  0  0  0  0  0  0  0  0999 V2000
  -26.0512   -8.7112    5.2161 C   0  0  0  0  0  0  0  0  0  0  0  0
  -26.3482   -8.6743    6.5981 O   0  0  0  0  0  0  0  0  0  0  0  0
  -24.5393   -8.7139    5.0918 C   0  0  0  0  0  0  0  0  0  0  0  0
  -24.0979   -7.7505    4.1242 O   0  0  0  0  0  0  0  0  0  0  0  0
  -24.1021   -8.3027    6.4790 C   0  0  0  0  0  0  0  0  0  0  0  0
  -23.2049   -7.2410    6.3405 O   0  0  0  0  0  0  0  0  0  0  0  0
  -25.3818   -7.7718    7.0458 C   0  0  0  0  0  0  0  0  0  0  0  0
  -24.4306   -6.8724    4.3672 H   0  0  0  0  0  0  0  0  0  0  0  0
  -23.6146   -6.5383    5.8121 H   0  0  0  0  0  0  0  0  0  0  0  0
  -25.4076   -7.3850    8.4561 N   0  0  0  0  0  0  0  0  0  0  0  0
  -24.4564   -6.9071    9.2448 C   0  0  0  0  0  0  0  0  0  0  0  0
  -24.9295   -6.7675   10.4922 N   0  0  0  0  0  0  0  0  0  0  0  0
  -26.1908   -7.2030   10.5180 C   0  0  0  0  0  0  0  0  0  0  0  0
  -27.3220   -7.3585   11.4661 C   0  0  0  0  0  0  0  0  0  0  0  0
  -27.2656   -7.0672   12.6347 O   0  0  0  0  0  0  0  0  0  0  0  0
  -28.4487   -7.8296   11.0148 N   0  0  0  0  0  0  0  0  0  0  0  0
  -28.5772   -8.1714    9.7353 C   0  0  0  0  0  0  0  0  0  0  0  0
  -29.7161   -8.6614    9.2598 N   0  0  0  0  0  0  0  0  0  0  0  0
  -27.6259   -8.0689    8.8385 N   0  0  0  0  0  0  0  0  0  0  0  0
  -26.4573   -7.5963    9.1595 C   0  0  0  0  0  0  0  0  0  0  0  0
  -29.2132   -7.9338   11.6263 H   0  0  0  0  0  0  0  0  0  0  0  0
  -30.4901   -8.7762    9.8573 H   0  0  0  0  0  0  0  0  0  0  0  0
  -29.7864   -8.9099    8.3098 H   0  0  0  0  0  0  0  0  0  0  0  0
  -26.6901   -9.9386    4.6414 C   0  0  0  0  0  0  0  0  0  0  0  0
  -27.2057   -9.6140    3.3792 O   0  0  0  0  0  0  0  0  0  0  0  0
  -28.6979  -10.0762    3.2204 P   0  0  0  0  0  0  0  0  0  0  0  0
  -29.3769   -9.6463    4.4856 O   0  0  0  0  0  0  0  0  0  0  0  0
  -29.2403   -9.4174    1.9737 O   0  0  0  0  0  0  0  0  0  0  0  0
  -30.1645   -9.6820    1.8442 H   0  0  0  0  0  0  0  0  0  0  0  0
  -28.7008  -11.6853    3.1517 O   0  0  0  0  0  0  0  0  0  0  0  0
  -30.0131  -12.4450    2.6343 P   0  0  0  0  0  0  0  0  0  0  0  0
  -29.6258  -13.2942    1.4568 O   0  0  0  0  0  0  0  0  0  0  0  0
  -31.0852  -11.4682    2.2268 O   0  0  0  0  0  0  0  0  0  0  0  0
  -30.5436  -13.3465    3.7017 O   0  0  0  0  0  0  0  0  0  0  0  0
  -31.8658  -11.9547    1.9187 H   0  0  0  0  0  0  0  0  0  0  0  0
  -31.3370  -13.8003    3.3770 H   0  0  0  0  0  0  0  0  0  0  0  0
 31 32  2  0  0  0
 31 33  1  0  0  0
 31 34  1  0  0  0
 31 30  1  0  0  0
 30 26  1  0  0  0
 26 27  2  0  0  0
 26 28  1  0  0  0
 26 25  1  0  0  0
 25 24  1  0  0  0
 24  1  1  0  0  0
  1  2  1  0  0  0
  1  3  1  0  0  0
  2  7  1  0  0  0
  3  4  1  0  0  0
  3  5  1  0  0  0
  5  6  1  0  0  0
  5  7  1  0  0  0
  7 10  1  0  0  0
 10 11  1  0  0  0
 10 20  1  0  0  0
 11 12  2  0  0  0
 12 13  1  0  0  0
 13 14  1  0  0  0
 13 20  2  0  0  0
 14 15  2  0  0  0
 14 16  1  0  0  0
 16 17  1  0  0  0
 17 18  1  0  0  0
 17 19  2  0  0  0
 19 20  1  0  0  0
 33 35  1  0  0  0
 34 36  1  0  0  0
 28 29  1  0  0  0
  4  8  1  0  0  0
  6  9  1  0  0  0
 16 21  1  0  0  0
 18 22  1  0  0  0
 18 23  1  0  0  0
M  END
> <minimizedAffinity>
-6.80422

$$$$
3LZZ_GDP_A_173


 36 38  0  0  0  0  0  0  0  0999 V2000
  -25.4019   -7.8885    6.7349 C   0  0  0  0  0  0  0  0  0  0  0  0
  -26.2716   -7.9065    7.8496 O   0  0  0  0  0  0  0  0  0  0  0  0
  -23.9921   -8.0347    7.2754 C   0  0  0  0  0  0  0  0  0  0  0  0
  -23.1112   -7.0631    6.6931 O   0  0  0  0  0  0  0  0  0  0  0  0
  -24.1820   -7.7549    8.7484 C   0  0  0  0  0  0  0  0  0  0  0  0
  -23.2496   -6.7817    9.1160 O   0  0  0  0  0  0  0  0  0  0  0  0
  -25.5442   -7.1342    8.7570 C   0  0  0  0  0  0  0  0  0  0  0  0
  -23.4603   -6.1725    6.8540 H   0  0  0  0  0  0  0  0  0  0  0  0
  -23.3409   -6.0106    8.5347 H   0  0  0  0  0  0  0  0  0  0  0  0
  -26.1610   -6.8336   10.0487 N   0  0  0  0  0  0  0  0  0  0  0  0
  -26.9281   -7.5701   10.8389 C   0  0  0  0  0  0  0  0  0  0  0  0
  -27.3208   -6.8426   11.8954 N   0  0  0  0  0  0  0  0  0  0  0  0
  -26.8362   -5.6063   11.7620 C   0  0  0  0  0  0  0  0  0  0  0  0
  -26.8262   -4.3048   12.4751 C   0  0  0  0  0  0  0  0  0  0  0  0
  -27.3989   -4.1037   13.5169 O   0  0  0  0  0  0  0  0  0  0  0  0
  -26.1545   -3.3182   11.9550 N   0  0  0  0  0  0  0  0  0  0  0  0
  -25.5011   -3.4733   10.8064 C   0  0  0  0  0  0  0  0  0  0  0  0
  -24.8181   -2.4758   10.2573 N   0  0  0  0  0  0  0  0  0  0  0  0
  -25.4654   -4.5872   10.1151 N   0  0  0  0  0  0  0  0  0  0  0  0
  -26.0829   -5.6517   10.5367 C   0  0  0  0  0  0  0  0  0  0  0  0
  -26.1298   -2.4487   12.4162 H   0  0  0  0  0  0  0  0  0  0  0  0
  -24.7851   -1.5982   10.7022 H   0  0  0  0  0  0  0  0  0  0  0  0
  -24.3446   -2.6137    9.4052 H   0  0  0  0  0  0  0  0  0  0  0  0
  -25.8005   -9.0084    5.8228 C   0  0  0  0  0  0  0  0  0  0  0  0
  -27.1874   -8.9445    5.6307 O   0  0  0  0  0  0  0  0  0  0  0  0
  -27.6418   -9.7642    4.3708 P   0  0  0  0  0  0  0  0  0  0  0  0
  -26.7900   -9.2570    3.2467 O   0  0  0  0  0  0  0  0  0  0  0  0
  -27.4364  -11.2265    4.6903 O   0  0  0  0  0  0  0  0  0  0  0  0
  -27.7080  -11.7647    3.9304 H   0  0  0  0  0  0  0  0  0  0  0  0
  -29.1769   -9.3798    4.0720 O   0  0  0  0  0  0  0  0  0  0  0  0
  -30.0037  -10.2343    2.9981 P   0  0  0  0  0  0  0  0  0  0  0  0
  -30.7561  -11.3059    3.7353 O   0  0  0  0  0  0  0  0  0  0  0  0
  -29.0895  -10.8633    1.9792 O   0  0  0  0  0  0  0  0  0  0  0  0
  -30.9994   -9.3646    2.3009 O   0  0  0  0  0  0  0  0  0  0  0  0
  -29.6158  -11.3731    1.3435 H   0  0  0  0  0  0  0  0  0  0  0  0
  -31.4930   -9.8926    1.6541 H   0  0  0  0  0  0  0  0  0  0  0  0
 31 32  2  0  0  0
 31 33  1  0  0  0
 31 34  1  0  0  0
 31 30  1  0  0  0
 30 26  1  0  0  0
 26 27  2  0  0  0
 26 28  1  0  0  0
 26 25  1  0  0  0
 25 24  1  0  0  0
 24  1  1  0  0  0
  1  2  1  0  0  0
  1  3  1  0  0  0
  2  7  1  0  0  0
  3  4  1  0  0  0
  3  5  1  0  0  0
  5  6  1  0  0  0
  5  7  1  0  0  0
  7 10  1  0  0  0
 10 11  1  0  0  0
 10 20  1  0  0  0
 11 12  2  0  0  0
 12 13  1  0  0  0
 13 14  1  0  0  0
 13 20  2  0  0  0
 14 15  2  0  0  0
 14 16  1  0  0  0
 16 17  1  0  0  0
 17 18  1  0  0  0
 17 19  2  0  0  0
 19 20  1  0  0  0
 33 35  1  0  0  0
 34 36  1  0  0  0
 28 29  1  0  0  0
  4  8  1  0  0  0
  6  9  1  0  0  0
 16 21  1  0  0  0
 18 22  1  0  0  0
 18 23  1  0  0  0
M  END
> <minimizedAffinity>
-6.74845

$$$$
