5DQE_5E4_A_501


 19 20  0  0  0  0  0  0  0  0999 V2000
   44.6701   42.9177  -13.2787 C   0  0  0  0  0  0  0  0  0  0  0  0
   44.7232   41.6625  -13.6936 C   0  0  0  0  0  0  0  0  0  0  0  0
   44.8225   41.3567  -15.1897 C   0  0  0  0  0  0  0  0  0  0  0  0
   44.8766   42.3512  -16.0543 C   0  0  0  0  0  0  0  0  0  0  0  0
   44.8272   43.8039  -15.5654 C   0  0  0  0  0  0  0  0  0  0  0  0
   44.7344   44.0660  -14.2776 C   0  0  0  0  0  0  0  0  0  0  0  0
   43.4803   43.7422  -11.3595 O   0  0  0  0  0  0  0  0  0  0  0  0
   44.5579   43.2737  -11.7973 C   0  0  0  0  0  0  0  0  0  0  0  0
   45.5175   43.1042  -11.0059 O   0  0  0  0  0  0  0  0  0  0  0  0
   42.7565   43.8735  -11.9399 H   0  0  0  0  0  0  0  0  0  0  0  0
   44.6893   45.4110  -13.7382 N   0  0  0  0  0  0  0  0  0  0  0  0
   44.7955   45.5148  -12.7650 H   0  0  0  0  0  0  0  0  0  0  0  0
   44.4987   46.6212  -14.5282 C   0  0  0  0  0  0  0  0  0  0  0  0
   45.5984   47.1893  -15.0675 C   0  0  0  0  0  0  0  0  0  0  0  0
   45.4812   48.3192  -15.8346 C   0  0  0  0  0  0  0  0  0  0  0  0
   47.1521   49.0430  -16.4765 Br  0  0  0  0  0  0  0  0  0  0  0  0
   44.2496   48.8813  -16.1310 C   0  0  0  0  0  0  0  0  0  0  0  0
   43.1142   48.3044  -15.6016 C   0  0  0  0  0  0  0  0  0  0  0  0
   43.2423   47.1623  -14.8136 C   0  0  0  0  0  0  0  0  0  0  0  0
  4  3  2  0  0  0
  4  5  1  0  0  0
 18 17  2  0  0  0
 18 19  1  0  0  0
 17 15  1  0  0  0
  3  2  1  0  0  0
  5  6  2  0  0  0
 19 13  2  0  0  0
 15 16  1  0  0  0
 15 14  2  0  0  0
  2  1  2  0  0  0
 13 14  1  0  0  0
 13 11  1  0  0  0
  6  1  1  0  0  0
  6 11  1  0  0  0
  1  8  1  0  0  0
  8  9  2  0  0  0
  8  7  1  0  0  0
  7 10  1  0  0  0
 11 12  1  0  0  0
M  END
> <minimizedAffinity>
-8.34355

$$$$
5DQE_5E4_A_501


 19 20  0  0  0  0  0  0  0  0999 V2000
   45.3943   46.8014  -15.1739 C   0  0  0  0  0  0  0  0  0  0  0  0
   44.1480   46.5593  -14.8018 C   0  0  0  0  0  0  0  0  0  0  0  0
   43.0679   47.6225  -15.0136 C   0  0  0  0  0  0  0  0  0  0  0  0
   43.3858   48.7667  -15.5873 C   0  0  0  0  0  0  0  0  0  0  0  0
   44.8300   49.0356  -16.0276 C   0  0  0  0  0  0  0  0  0  0  0  0
   45.7605   48.1225  -15.8382 C   0  0  0  0  0  0  0  0  0  0  0  0
   46.2115   44.5984  -14.6665 O   0  0  0  0  0  0  0  0  0  0  0  0
   46.5099   45.7773  -14.9723 C   0  0  0  0  0  0  0  0  0  0  0  0
   47.7188   46.0863  -15.1097 O   0  0  0  0  0  0  0  0  0  0  0  0
   45.3129   44.3549  -14.5610 H   0  0  0  0  0  0  0  0  0  0  0  0
   47.1444   48.2996  -16.2324 N   0  0  0  0  0  0  0  0  0  0  0  0
   47.8208   48.3307  -15.5178 H   0  0  0  0  0  0  0  0  0  0  0  0
   47.6099   48.4352  -17.6072 C   0  0  0  0  0  0  0  0  0  0  0  0
   48.5054   49.4122  -17.8652 C   0  0  0  0  0  0  0  0  0  0  0  0
   48.9931   49.5782  -19.1353 C   0  0  0  0  0  0  0  0  0  0  0  0
   50.2136   51.0588  -19.3504 Br  0  0  0  0  0  0  0  0  0  0  0  0
   48.6398   48.7320  -20.1744 C   0  0  0  0  0  0  0  0  0  0  0  0
   47.7383   47.7185  -19.9250 C   0  0  0  0  0  0  0  0  0  0  0  0
   47.2384   47.5627  -18.6336 C   0  0  0  0  0  0  0  0  0  0  0  0
  4  3  2  0  0  0
  4  5  1  0  0  0
 18 17  2  0  0  0
 18 19  1  0  0  0
 17 15  1  0  0  0
  3  2  1  0  0  0
  5  6  2  0  0  0
 19 13  2  0  0  0
 15 16  1  0  0  0
 15 14  2  0  0  0
  2  1  2  0  0  0
 13 14  1  0  0  0
 13 11  1  0  0  0
  6  1  1  0  0  0
  6 11  1  0  0  0
  1  8  1  0  0  0
  8  9  2  0  0  0
  8  7  1  0  0  0
  7 10  1  0  0  0
 11 12  1  0  0  0
M  END
> <minimizedAffinity>
-8.00650

$$$$
5DQE_5E4_A_501


 19 20  0  0  0  0  0  0  0  0999 V2000
   48.8025   48.4044  -19.1941 C   0  0  0  0  0  0  0  0  0  0  0  0
   48.8743   49.2578  -20.2026 C   0  0  0  0  0  0  0  0  0  0  0  0
   49.0211   50.7557  -19.9261 C   0  0  0  0  0  0  0  0  0  0  0  0
   49.0972   51.1824  -18.6805 C   0  0  0  0  0  0  0  0  0  0  0  0
   49.0261   50.1862  -17.5166 C   0  0  0  0  0  0  0  0  0  0  0  0
   48.8924   48.8976  -17.7556 C   0  0  0  0  0  0  0  0  0  0  0  0
   49.6050   46.1387  -19.1640 O   0  0  0  0  0  0  0  0  0  0  0  0
   48.6431   46.9017  -19.4186 C   0  0  0  0  0  0  0  0  0  0  0  0
   47.5703   46.4113  -19.8477 O   0  0  0  0  0  0  0  0  0  0  0  0
   50.4112   46.4922  -18.8431 H   0  0  0  0  0  0  0  0  0  0  0  0
   48.8246   47.8950  -16.7106 N   0  0  0  0  0  0  0  0  0  0  0  0
   49.6689   47.4759  -16.4265 H   0  0  0  0  0  0  0  0  0  0  0  0
   47.6005   47.4606  -16.0489 C   0  0  0  0  0  0  0  0  0  0  0  0
   46.4976   48.2194  -16.2248 C   0  0  0  0  0  0  0  0  0  0  0  0
   45.3124   47.8531  -15.6419 C   0  0  0  0  0  0  0  0  0  0  0  0
   43.8490   49.0778  -15.9364 Br  0  0  0  0  0  0  0  0  0  0  0  0
   45.1840   46.6827  -14.9109 C   0  0  0  0  0  0  0  0  0  0  0  0
   46.2968   45.8873  -14.7345 C   0  0  0  0  0  0  0  0  0  0  0  0
   47.5010   46.2718  -15.3210 C   0  0  0  0  0  0  0  0  0  0  0  0
  4  3  2  0  0  0
  4  5  1  0  0  0
 18 17  2  0  0  0
 18 19  1  0  0  0
 17 15  1  0  0  0
  3  2  1  0  0  0
  5  6  2  0  0  0
 19 13  2  0  0  0
 15 16  1  0  0  0
 15 14  2  0  0  0
  2  1  2  0  0  0
 13 14  1  0  0  0
 13 11  1  0  0  0
  6  1  1  0  0  0
  6 11  1  0  0  0
  1  8  1  0  0  0
  8  9  2  0  0  0
  8  7  1  0  0  0
  7 10  1  0  0  0
 11 12  1  0  0  0
M  END
> <minimizedAffinity>
-7.85141

$$$$
5DQE_5E4_A_501


 19 20  0  0  0  0  0  0  0  0999 V2000
   48.7149   48.3884  -18.7820 C   0  0  0  0  0  0  0  0  0  0  0  0
   49.2163   49.0608  -19.8051 C   0  0  0  0  0  0  0  0  0  0  0  0
   49.3313   50.5851  -19.7340 C   0  0  0  0  0  0  0  0  0  0  0  0
   48.9485   51.2155  -18.6406 C   0  0  0  0  0  0  0  0  0  0  0  0
   48.3800   50.4285  -17.4535 C   0  0  0  0  0  0  0  0  0  0  0  0
   48.2747   49.1169  -17.5186 C   0  0  0  0  0  0  0  0  0  0  0  0
   47.4309   46.3652  -18.9732 O   0  0  0  0  0  0  0  0  0  0  0  0
   48.5679   46.8680  -18.8099 C   0  0  0  0  0  0  0  0  0  0  0  0
   49.5591   46.1091  -18.6779 O   0  0  0  0  0  0  0  0  0  0  0  0
   46.6829   46.9207  -19.0729 H   0  0  0  0  0  0  0  0  0  0  0  0
   47.7543   48.3035  -16.4372 N   0  0  0  0  0  0  0  0  0  0  0  0
   48.4029   47.8024  -15.8918 H   0  0  0  0  0  0  0  0  0  0  0  0
   46.3431   48.1715  -16.0965 C   0  0  0  0  0  0  0  0  0  0  0  0
   45.9389   46.9943  -15.5730 C   0  0  0  0  0  0  0  0  0  0  0  0
   44.6275   46.8158  -15.2168 C   0  0  0  0  0  0  0  0  0  0  0  0
   44.1997   45.0566  -14.5456 Br  0  0  0  0  0  0  0  0  0  0  0  0
   43.6925   47.8333  -15.3222 C   0  0  0  0  0  0  0  0  0  0  0  0
   44.0917   49.0477  -15.8400 C   0  0  0  0  0  0  0  0  0  0  0  0
   45.4242   49.2182  -16.2102 C   0  0  0  0  0  0  0  0  0  0  0  0
  4  3  2  0  0  0
  4  5  1  0  0  0
 18 17  2  0  0  0
 18 19  1  0  0  0
 17 15  1  0  0  0
  3  2  1  0  0  0
  5  6  2  0  0  0
 19 13  2  0  0  0
 15 16  1  0  0  0
 15 14  2  0  0  0
  2  1  2  0  0  0
 13 14  1  0  0  0
 13 11  1  0  0  0
  6  1  1  0  0  0
  6 11  1  0  0  0
  1  8  1  0  0  0
  8  9  2  0  0  0
  8  7  1  0  0  0
  7 10  1  0  0  0
 11 12  1  0  0  0
M  END
> <minimizedAffinity>
-7.82908

$$$$
5DQE_5E4_A_501


 19 20  0  0  0  0  0  0  0  0999 V2000
   45.2208   46.6792  -15.0432 C   0  0  0  0  0  0  0  0  0  0  0  0
   43.9175   46.4906  -14.9156 C   0  0  0  0  0  0  0  0  0  0  0  0
   42.9453   47.6208  -15.2609 C   0  0  0  0  0  0  0  0  0  0  0  0
   43.4158   48.7699  -15.7053 C   0  0  0  0  0  0  0  0  0  0  0  0
   44.9271   48.9772  -15.8628 C   0  0  0  0  0  0  0  0  0  0  0  0
   45.7636   48.0061  -15.5583 C   0  0  0  0  0  0  0  0  0  0  0  0
   45.8336   44.5383  -14.1378 O   0  0  0  0  0  0  0  0  0  0  0  0
   46.2316   45.5865  -14.6993 C   0  0  0  0  0  0  0  0  0  0  0  0
   47.4512   45.7105  -14.9694 O   0  0  0  0  0  0  0  0  0  0  0  0
   44.9258   44.4335  -13.9309 H   0  0  0  0  0  0  0  0  0  0  0  0
   47.2030   48.1232  -15.6864 N   0  0  0  0  0  0  0  0  0  0  0  0
   47.7500   47.8937  -14.9007 H   0  0  0  0  0  0  0  0  0  0  0  0
   47.9014   48.5551  -16.8909 C   0  0  0  0  0  0  0  0  0  0  0  0
   48.1574   47.6183  -17.8290 C   0  0  0  0  0  0  0  0  0  0  0  0
   48.7959   47.9668  -18.9906 C   0  0  0  0  0  0  0  0  0  0  0  0
   49.1448   46.5009  -20.1978 Br  0  0  0  0  0  0  0  0  0  0  0  0
   49.1466   49.2779  -19.2713 C   0  0  0  0  0  0  0  0  0  0  0  0
   48.8781   50.2505  -18.3310 C   0  0  0  0  0  0  0  0  0  0  0  0
   48.2385   49.8867  -17.1476 C   0  0  0  0  0  0  0  0  0  0  0  0
  4  3  2  0  0  0
  4  5  1  0  0  0
 18 17  2  0  0  0
 18 19  1  0  0  0
 17 15  1  0  0  0
  3  2  1  0  0  0
  5  6  2  0  0  0
 19 13  2  0  0  0
 15 16  1  0  0  0
 15 14  2  0  0  0
  2  1  2  0  0  0
 13 14  1  0  0  0
 13 11  1  0  0  0
  6  1  1  0  0  0
  6 11  1  0  0  0
  1  8  1  0  0  0
  8  9  2  0  0  0
  8  7  1  0  0  0
  7 10  1  0  0  0
 11 12  1  0  0  0
M  END
> <minimizedAffinity>
-7.80451

$$$$
5DQE_5E4_A_501


 19 20  0  0  0  0  0  0  0  0999 V2000
   46.0372   48.1097  -15.8700 C   0  0  0  0  0  0  0  0  0  0  0  0
   45.4719   49.2944  -16.0359 C   0  0  0  0  0  0  0  0  0  0  0  0
   43.9688   49.4623  -15.8032 C   0  0  0  0  0  0  0  0  0  0  0  0
   43.2511   48.4255  -15.4166 C   0  0  0  0  0  0  0  0  0  0  0  0
   43.9152   47.0581  -15.2141 C   0  0  0  0  0  0  0  0  0  0  0  0
   45.2080   46.9130  -15.4217 C   0  0  0  0  0  0  0  0  0  0  0  0
   48.0747   48.3923  -17.1138 O   0  0  0  0  0  0  0  0  0  0  0  0
   47.5309   47.8889  -16.1022 C   0  0  0  0  0  0  0  0  0  0  0  0
   48.2286   47.2190  -15.3022 O   0  0  0  0  0  0  0  0  0  0  0  0
   47.5650   48.8944  -17.7187 H   0  0  0  0  0  0  0  0  0  0  0  0
   45.9084   45.6559  -15.2454 N   0  0  0  0  0  0  0  0  0  0  0  0
   46.7698   45.5459  -15.7093 H   0  0  0  0  0  0  0  0  0  0  0  0
   45.4335   44.5426  -14.4330 C   0  0  0  0  0  0  0  0  0  0  0  0
   45.1996   43.3711  -15.0624 C   0  0  0  0  0  0  0  0  0  0  0  0
   44.7681   42.2831  -14.3493 C   0  0  0  0  0  0  0  0  0  0  0  0
   44.4179   40.7054  -15.4059 Br  0  0  0  0  0  0  0  0  0  0  0  0
   44.6127   42.3215  -12.9726 C   0  0  0  0  0  0  0  0  0  0  0  0
   44.8627   43.5057  -12.3114 C   0  0  0  0  0  0  0  0  0  0  0  0
   45.2905   44.6108  -13.0446 C   0  0  0  0  0  0  0  0  0  0  0  0
  4  3  2  0  0  0
  4  5  1  0  0  0
 18 17  2  0  0  0
 18 19  1  0  0  0
 17 15  1  0  0  0
  3  2  1  0  0  0
  5  6  2  0  0  0
 19 13  2  0  0  0
 15 16  1  0  0  0
 15 14  2  0  0  0
  2  1  2  0  0  0
 13 14  1  0  0  0
 13 11  1  0  0  0
  6  1  1  0  0  0
  6 11  1  0  0  0
  1  8  1  0  0  0
  8  9  2  0  0  0
  8  7  1  0  0  0
  7 10  1  0  0  0
 11 12  1  0  0  0
M  END
> <minimizedAffinity>
-7.73530

$$$$
5DQE_5E4_A_501


 19 20  0  0  0  0  0  0  0  0999 V2000
   45.9282   47.9815  -15.8493 C   0  0  0  0  0  0  0  0  0  0  0  0
   45.2651   49.1068  -16.0601 C   0  0  0  0  0  0  0  0  0  0  0  0
   43.7624   49.1716  -15.7781 C   0  0  0  0  0  0  0  0  0  0  0  0
   43.1434   48.1075  -15.3048 C   0  0  0  0  0  0  0  0  0  0  0  0
   43.9208   46.8102  -15.0509 C   0  0  0  0  0  0  0  0  0  0  0  0
   45.2131   46.7534  -15.3008 C   0  0  0  0  0  0  0  0  0  0  0  0
   47.8935   48.3528  -17.1828 O   0  0  0  0  0  0  0  0  0  0  0  0
   47.4258   47.8633  -16.1273 C   0  0  0  0  0  0  0  0  0  0  0  0
   48.2008   47.2917  -15.3222 O   0  0  0  0  0  0  0  0  0  0  0  0
   47.3256   48.7821  -17.7920 H   0  0  0  0  0  0  0  0  0  0  0  0
   46.0170   45.5671  -15.0807 N   0  0  0  0  0  0  0  0  0  0  0  0
   46.9630   45.6019  -15.3509 H   0  0  0  0  0  0  0  0  0  0  0  0
   45.5302   44.3267  -14.4895 C   0  0  0  0  0  0  0  0  0  0  0  0
   45.3359   44.3109  -13.1534 C   0  0  0  0  0  0  0  0  0  0  0  0
   44.8632   43.1790  -12.5420 C   0  0  0  0  0  0  0  0  0  0  0  0
   44.7033   43.2989  -10.6215 Br  0  0  0  0  0  0  0  0  0  0  0  0
   44.5167   42.0458  -13.2607 C   0  0  0  0  0  0  0  0  0  0  0  0
   44.6935   42.0501  -14.6285 C   0  0  0  0  0  0  0  0  0  0  0  0
   45.1850   43.2008  -15.2418 C   0  0  0  0  0  0  0  0  0  0  0  0
  4  3  2  0  0  0
  4  5  1  0  0  0
 18 17  2  0  0  0
 18 19  1  0  0  0
 17 15  1  0  0  0
  3  2  1  0  0  0
  5  6  2  0  0  0
 19 13  2  0  0  0
 15 16  1  0  0  0
 15 14  2  0  0  0
  2  1  2  0  0  0
 13 14  1  0  0  0
 13 11  1  0  0  0
  6  1  1  0  0  0
  6 11  1  0  0  0
  1  8  1  0  0  0
  8  9  2  0  0  0
  8  7  1  0  0  0
  7 10  1  0  0  0
 11 12  1  0  0  0
M  END
> <minimizedAffinity>
-7.60220

$$$$
5DQE_5E4_A_501


 19 20  0  0  0  0  0  0  0  0999 V2000
   45.5058   42.2582  -14.4192 C   0  0  0  0  0  0  0  0  0  0  0  0
   45.1542   41.1099  -14.9743 C   0  0  0  0  0  0  0  0  0  0  0  0
   43.9695   41.0608  -15.9417 C   0  0  0  0  0  0  0  0  0  0  0  0
   43.3206   42.1718  -16.2317 C   0  0  0  0  0  0  0  0  0  0  0  0
   43.7417   43.5016  -15.5944 C   0  0  0  0  0  0  0  0  0  0  0  0
   44.7572   43.5415  -14.7560 C   0  0  0  0  0  0  0  0  0  0  0  0
   47.7462   41.7642  -13.7017 O   0  0  0  0  0  0  0  0  0  0  0  0
   46.6727   42.3562  -13.4381 C   0  0  0  0  0  0  0  0  0  0  0  0
   46.5846   43.0191  -12.3758 O   0  0  0  0  0  0  0  0  0  0  0  0
   47.8249   41.2661  -14.4914 H   0  0  0  0  0  0  0  0  0  0  0  0
   45.2187   44.7593  -14.1190 N   0  0  0  0  0  0  0  0  0  0  0  0
   45.1913   44.7971  -13.1356 H   0  0  0  0  0  0  0  0  0  0  0  0
   45.7204   45.9321  -14.8247 C   0  0  0  0  0  0  0  0  0  0  0  0
   44.8513   46.9414  -15.0462 C   0  0  0  0  0  0  0  0  0  0  0  0
   45.2684   48.0774  -15.6897 C   0  0  0  0  0  0  0  0  0  0  0  0
   43.8899   49.3965  -15.9859 Br  0  0  0  0  0  0  0  0  0  0  0  0
   46.5856   48.2589  -16.0803 C   0  0  0  0  0  0  0  0  0  0  0  0
   47.4906   47.2445  -15.8475 C   0  0  0  0  0  0  0  0  0  0  0  0
   47.0567   46.0880  -15.2026 C   0  0  0  0  0  0  0  0  0  0  0  0
  4  3  2  0  0  0
  4  5  1  0  0  0
 18 17  2  0  0  0
 18 19  1  0  0  0
 17 15  1  0  0  0
  3  2  1  0  0  0
  5  6  2  0  0  0
 19 13  2  0  0  0
 15 16  1  0  0  0
 15 14  2  0  0  0
  2  1  2  0  0  0
 13 14  1  0  0  0
 13 11  1  0  0  0
  6  1  1  0  0  0
  6 11  1  0  0  0
  1  8  1  0  0  0
  8  9  2  0  0  0
  8  7  1  0  0  0
  7 10  1  0  0  0
 11 12  1  0  0  0
M  END
> <minimizedAffinity>
-7.49783

$$$$
5DQE_5E4_A_501


 19 20  0  0  0  0  0  0  0  0999 V2000
   44.2768   47.1259  -14.9369 C   0  0  0  0  0  0  0  0  0  0  0  0
   44.3504   48.1611  -15.7575 C   0  0  0  0  0  0  0  0  0  0  0  0
   45.7084   48.6062  -16.3049 C   0  0  0  0  0  0  0  0  0  0  0  0
   46.7949   47.9378  -15.9701 C   0  0  0  0  0  0  0  0  0  0  0  0
   46.7005   46.7310  -15.0285 C   0  0  0  0  0  0  0  0  0  0  0  0
   45.5319   46.3531  -14.5521 C   0  0  0  0  0  0  0  0  0  0  0  0
   42.1598   47.4924  -13.8588 O   0  0  0  0  0  0  0  0  0  0  0  0
   42.9467   46.6512  -14.3543 C   0  0  0  0  0  0  0  0  0  0  0  0
   42.6200   45.4392  -14.3636 O   0  0  0  0  0  0  0  0  0  0  0  0
   42.3918   48.4001  -13.8457 H   0  0  0  0  0  0  0  0  0  0  0  0
   45.3608   45.2203  -13.6636 N   0  0  0  0  0  0  0  0  0  0  0  0
   44.9098   45.3807  -12.8033 H   0  0  0  0  0  0  0  0  0  0  0  0
   45.8062   43.8617  -13.9480 C   0  0  0  0  0  0  0  0  0  0  0  0
   44.9540   43.0573  -14.6186 C   0  0  0  0  0  0  0  0  0  0  0  0
   45.3227   41.7745  -14.9303 C   0  0  0  0  0  0  0  0  0  0  0  0
   43.9678   40.7355  -15.8317 Br  0  0  0  0  0  0  0  0  0  0  0  0
   46.5808   41.2778  -14.6282 C   0  0  0  0  0  0  0  0  0  0  0  0
   47.4698   42.0913  -13.9575 C   0  0  0  0  0  0  0  0  0  0  0  0
   47.0839   43.3906  -13.6342 C   0  0  0  0  0  0  0  0  0  0  0  0
  4  3  2  0  0  0
  4  5  1  0  0  0
 18 17  2  0  0  0
 18 19  1  0  0  0
 17 15  1  0  0  0
  3  2  1  0  0  0
  5  6  2  0  0  0
 19 13  2  0  0  0
 15 16  1  0  0  0
 15 14  2  0  0  0
  2  1  2  0  0  0
 13 14  1  0  0  0
 13 11  1  0  0  0
  6  1  1  0  0  0
  6 11  1  0  0  0
  1  8  1  0  0  0
  8  9  2  0  0  0
  8  7  1  0  0  0
  7 10  1  0  0  0
 11 12  1  0  0  0
M  END
> <minimizedAffinity>
-7.21960

$$$$
5DQE_5E4_A_501


 19 20  0  0  0  0  0  0  0  0999 V2000
   45.6586   48.2613  -15.9878 C   0  0  0  0  0  0  0  0  0  0  0  0
   46.6070   48.8915  -16.6615 C   0  0  0  0  0  0  0  0  0  0  0  0
   48.0293   48.3273  -16.6859 C   0  0  0  0  0  0  0  0  0  0  0  0
   48.2932   47.2019  -16.0510 C   0  0  0  0  0  0  0  0  0  0  0  0
   47.1861   46.4701  -15.2825 C   0  0  0  0  0  0  0  0  0  0  0  0
   45.9636   46.9604  -15.2561 C   0  0  0  0  0  0  0  0  0  0  0  0
   44.0349   50.0141  -15.7239 O   0  0  0  0  0  0  0  0  0  0  0  0
   44.2272   48.7911  -15.9229 C   0  0  0  0  0  0  0  0  0  0  0  0
   43.2380   48.0321  -16.0685 O   0  0  0  0  0  0  0  0  0  0  0  0
   44.7648   50.5912  -15.6136 H   0  0  0  0  0  0  0  0  0  0  0  0
   44.8635   46.3242  -14.5583 N   0  0  0  0  0  0  0  0  0  0  0  0
   44.0710   46.8739  -14.3610 H   0  0  0  0  0  0  0  0  0  0  0  0
   44.8424   44.9319  -14.1268 C   0  0  0  0  0  0  0  0  0  0  0  0
   44.7435   44.6949  -12.8012 C   0  0  0  0  0  0  0  0  0  0  0  0
   44.7016   43.4065  -12.3357 C   0  0  0  0  0  0  0  0  0  0  0  0
   44.6256   43.2387  -10.4136 Br  0  0  0  0  0  0  0  0  0  0  0  0
   44.7003   42.3159  -13.1909 C   0  0  0  0  0  0  0  0  0  0  0  0
   44.7846   42.5401  -14.5491 C   0  0  0  0  0  0  0  0  0  0  0  0
   44.8379   43.8526  -15.0144 C   0  0  0  0  0  0  0  0  0  0  0  0
  4  3  2  0  0  0
  4  5  1  0  0  0
 18 17  2  0  0  0
 18 19  1  0  0  0
 17 15  1  0  0  0
  3  2  1  0  0  0
  5  6  2  0  0  0
 19 13  2  0  0  0
 15 16  1  0  0  0
 15 14  2  0  0  0
  2  1  2  0  0  0
 13 14  1  0  0  0
 13 11  1  0  0  0
  6  1  1  0  0  0
  6 11  1  0  0  0
  1  8  1  0  0  0
  8  9  2  0  0  0
  8  7  1  0  0  0
  7 10  1  0  0  0
 11 12  1  0  0  0
M  END
> <minimizedAffinity>
-7.17203

$$$$
