3CYW_017_A_201


 42 45  0  0  0  0  0  0  0  0999 V2000
  -13.0443   18.5675  -17.5653 C   0  0  0  0  0  0  0  0  0  0  0  0
  -13.5074   17.4628  -18.3556 O   0  0  0  0  0  0  0  0  0  0  0  0
  -13.4979   17.7099  -19.2936 H   0  0  0  0  0  0  0  0  0  0  0  0
  -14.0062   19.7545  -17.8106 C   0  0  0  0  0  0  0  0  0  0  0  0
  -14.4108   20.4332  -16.5713 N   0  0  0  0  0  0  0  0  0  0  0  0
  -14.2371   22.1165  -16.5462 S   0  0  0  0  0  0  0  0  0  0  0  0
  -12.8579   22.4062  -16.9232 O   0  0  0  0  0  0  0  0  0  0  0  0
  -14.7312   22.4814  -15.2136 O   0  0  0  0  0  0  0  0  0  0  0  0
  -18.0172   24.7627  -20.2204 N   0  0  0  0  0  0  0  0  0  0  0  0
  -17.0995   24.1522  -19.3851 C   0  0  0  0  0  0  0  0  0  0  0  0
  -17.5176   23.6607  -18.1491 C   0  0  0  0  0  0  0  0  0  0  0  0
  -16.6324   23.0079  -17.3103 C   0  0  0  0  0  0  0  0  0  0  0  0
  -15.3314   22.8369  -17.7362 C   0  0  0  0  0  0  0  0  0  0  0  0
  -14.8615   23.3457  -18.9428 C   0  0  0  0  0  0  0  0  0  0  0  0
  -15.7535   24.0028  -19.7675 C   0  0  0  0  0  0  0  0  0  0  0  0
  -18.9547   24.8582  -19.9357 H   0  0  0  0  0  0  0  0  0  0  0  0
  -17.7328   25.1018  -21.0999 H   0  0  0  0  0  0  0  0  0  0  0  0
  -15.5197   19.8369  -15.8182 C   0  0  0  0  0  0  0  0  0  0  0  0
  -15.1395   19.2290  -14.4531 C   0  0  0  0  0  0  0  0  0  0  0  0
  -13.6709   19.4727  -14.1205 C   0  0  0  0  0  0  0  0  0  0  0  0
  -16.0371   19.8880  -13.3901 C   0  0  0  0  0  0  0  0  0  0  0  0
  -11.5987   18.9050  -17.9637 C   0  0  0  0  0  0  0  0  0  0  0  0
  -10.6932   17.9089  -17.4262 N   0  0  0  0  0  0  0  0  0  0  0  0
  -10.0624   18.0212  -16.2329 C   0  0  0  0  0  0  0  0  0  0  0  0
  -10.0681   18.9689  -15.4770 O   0  0  0  0  0  0  0  0  0  0  0  0
  -10.5261   17.1001  -17.9621 H   0  0  0  0  0  0  0  0  0  0  0  0
   -9.4077   16.8502  -16.0186 O   0  0  0  0  0  0  0  0  0  0  0  0
   -8.9138   16.6112  -14.6778 C   0  0  0  0  0  0  0  0  0  0  0  0
   -9.6094   15.3508  -14.1684 C   0  0  0  0  0  0  0  0  0  0  0  0
   -8.9240   14.2874  -14.8193 O   0  0  0  0  0  0  0  0  0  0  0  0
   -7.5401   14.6242  -14.9934 C   0  0  0  0  0  0  0  0  0  0  0  0
   -7.1426   14.3412  -16.2984 O   0  0  0  0  0  0  0  0  0  0  0  0
   -6.9898   15.5695  -17.0043 C   0  0  0  0  0  0  0  0  0  0  0  0
   -6.6211   16.6482  -15.9683 C   0  0  0  0  0  0  0  0  0  0  0  0
   -7.4289   16.1510  -14.7646 C   0  0  0  0  0  0  0  0  0  0  0  0
  -11.3330   19.1648  -19.4642 C   0  0  0  0  0  0  0  0  0  0  0  0
   -9.3206   17.8852  -20.3277 C   0  0  0  0  0  0  0  0  0  0  0  0
   -7.9659   17.7740  -20.6188 C   0  0  0  0  0  0  0  0  0  0  0  0
   -7.1050   18.8256  -20.3062 C   0  0  0  0  0  0  0  0  0  0  0  0
   -7.6111   20.0152  -19.7712 C   0  0  0  0  0  0  0  0  0  0  0  0
   -8.9804   20.1496  -19.6193 C   0  0  0  0  0  0  0  0  0  0  0  0
   -9.8475   19.0603  -19.7967 C   0  0  0  0  0  0  0  0  0  0  0  0
  9 10  1  0  0  0
 10 11  2  0  0  0
 10 15  1  0  0  0
 11 12  1  0  0  0
 12 13  2  0  0  0
 13 14  1  0  0  0
 13  6  1  0  0  0
 14 15  2  0  0  0
  6  7  2  0  0  0
  6  8  2  0  0  0
  6  5  1  0  0  0
  5 18  1  0  0  0
  5  4  1  0  0  0
 18 19  1  0  0  0
 19 20  1  0  0  0
 19 21  1  0  0  0
  4  1  1  0  0  0
  1  2  1  0  0  0
  1 22  1  0  0  0
 22 23  1  0  0  0
 22 36  1  0  0  0
 23 24  1  0  0  0
 24 25  2  0  0  0
 24 27  1  0  0  0
 27 28  1  0  0  0
 28 29  1  0  0  0
 28 35  1  0  0  0
 29 30  1  0  0  0
 30 31  1  0  0  0
 31 32  1  0  0  0
 31 35  1  0  0  0
 32 33  1  0  0  0
 33 34  1  0  0  0
 34 35  1  0  0  0
 36 42  1  0  0  0
 37 38  2  0  0  0
 37 42  1  0  0  0
 38 39  1  0  0  0
 39 40  2  0  0  0
 40 41  1  0  0  0
 41 42  2  0  0  0
  9 16  1  0  0  0
  9 17  1  0  0  0
  2  3  1  0  0  0
 23 26  1  0  0  0
M  END
> <minimizedAffinity>
-10.08475

$$$$
3CYW_017_A_201


 42 45  0  0  0  0  0  0  0  0999 V2000
  -13.4253   20.0732  -18.2971 C   0  0  0  0  0  0  0  0  0  0  0  0
  -13.4906   18.6403  -18.3411 O   0  0  0  0  0  0  0  0  0  0  0  0
  -13.2013   18.2771  -17.4895 H   0  0  0  0  0  0  0  0  0  0  0  0
  -11.9535   20.4666  -18.0254 C   0  0  0  0  0  0  0  0  0  0  0  0
  -10.9977   19.4158  -18.4031 N   0  0  0  0  0  0  0  0  0  0  0  0
  -10.4170   19.4652  -19.9920 S   0  0  0  0  0  0  0  0  0  0  0  0
  -10.4051   20.8670  -20.3958 O   0  0  0  0  0  0  0  0  0  0  0  0
  -11.2768   18.5024  -20.6897 O   0  0  0  0  0  0  0  0  0  0  0  0
   -4.9968   17.1921  -20.4874 N   0  0  0  0  0  0  0  0  0  0  0  0
   -6.2506   17.7631  -20.3664 C   0  0  0  0  0  0  0  0  0  0  0  0
   -7.3847   16.9765  -20.5636 C   0  0  0  0  0  0  0  0  0  0  0  0
   -8.6518   17.5090  -20.4081 C   0  0  0  0  0  0  0  0  0  0  0  0
   -8.7648   18.8316  -20.0327 C   0  0  0  0  0  0  0  0  0  0  0  0
   -7.6621   19.6632  -19.8647 C   0  0  0  0  0  0  0  0  0  0  0  0
   -6.4027   19.1213  -20.0309 C   0  0  0  0  0  0  0  0  0  0  0  0
   -4.9101   16.2401  -20.7228 H   0  0  0  0  0  0  0  0  0  0  0  0
   -4.1910   17.7376  -20.3380 H   0  0  0  0  0  0  0  0  0  0  0  0
  -10.1034   18.9209  -17.3506 C   0  0  0  0  0  0  0  0  0  0  0  0
  -10.3970   17.4913  -16.8528 C   0  0  0  0  0  0  0  0  0  0  0  0
   -9.1321   16.6395  -16.8168 C   0  0  0  0  0  0  0  0  0  0  0  0
  -10.9929   17.6102  -15.4383 C   0  0  0  0  0  0  0  0  0  0  0  0
  -14.3717   20.5904  -17.2021 C   0  0  0  0  0  0  0  0  0  0  0  0
  -15.2563   21.5994  -17.7504 N   0  0  0  0  0  0  0  0  0  0  0  0
  -15.5740   22.7548  -17.1192 C   0  0  0  0  0  0  0  0  0  0  0  0
  -15.2654   23.0968  -15.9979 O   0  0  0  0  0  0  0  0  0  0  0  0
  -15.6508   21.4344  -18.6372 H   0  0  0  0  0  0  0  0  0  0  0  0
  -16.3152   23.4906  -17.9882 O   0  0  0  0  0  0  0  0  0  0  0  0
  -15.6446   24.5874  -18.6562 C   0  0  0  0  0  0  0  0  0  0  0  0
  -15.4073   24.1476  -20.0992 C   0  0  0  0  0  0  0  0  0  0  0  0
  -16.6790   24.2913  -20.7207 O   0  0  0  0  0  0  0  0  0  0  0  0
  -17.3839   25.4048  -20.1533 C   0  0  0  0  0  0  0  0  0  0  0  0
  -18.6925   25.0346  -19.8505 O   0  0  0  0  0  0  0  0  0  0  0  0
  -18.8144   24.9086  -18.4364 C   0  0  0  0  0  0  0  0  0  0  0  0
  -17.7829   25.8613  -17.8030 C   0  0  0  0  0  0  0  0  0  0  0  0
  -16.6544   25.7589  -18.8348 C   0  0  0  0  0  0  0  0  0  0  0  0
  -15.1521   19.5262  -16.3971 C   0  0  0  0  0  0  0  0  0  0  0  0
  -16.1829   20.2621  -14.1997 C   0  0  0  0  0  0  0  0  0  0  0  0
  -16.1167   20.5206  -12.8354 C   0  0  0  0  0  0  0  0  0  0  0  0
  -14.9024   20.3775  -12.1647 C   0  0  0  0  0  0  0  0  0  0  0  0
  -13.7739   19.9052  -12.8437 C   0  0  0  0  0  0  0  0  0  0  0  0
  -13.9022   19.5254  -14.1685 C   0  0  0  0  0  0  0  0  0  0  0  0
  -15.0730   19.7894  -14.8962 C   0  0  0  0  0  0  0  0  0  0  0  0
  9 10  1  0  0  0
 10 11  2  0  0  0
 10 15  1  0  0  0
 11 12  1  0  0  0
 12 13  2  0  0  0
 13 14  1  0  0  0
 13  6  1  0  0  0
 14 15  2  0  0  0
  6  7  2  0  0  0
  6  8  2  0  0  0
  6  5  1  0  0  0
  5 18  1  0  0  0
  5  4  1  0  0  0
 18 19  1  0  0  0
 19 20  1  0  0  0
 19 21  1  0  0  0
  4  1  1  0  0  0
  1  2  1  0  0  0
  1 22  1  0  0  0
 22 23  1  0  0  0
 22 36  1  0  0  0
 23 24  1  0  0  0
 24 25  2  0  0  0
 24 27  1  0  0  0
 27 28  1  0  0  0
 28 29  1  0  0  0
 28 35  1  0  0  0
 29 30  1  0  0  0
 30 31  1  0  0  0
 31 32  1  0  0  0
 31 35  1  0  0  0
 32 33  1  0  0  0
 33 34  1  0  0  0
 34 35  1  0  0  0
 36 42  1  0  0  0
 37 38  2  0  0  0
 37 42  1  0  0  0
 38 39  1  0  0  0
 39 40  2  0  0  0
 40 41  1  0  0  0
 41 42  2  0  0  0
  9 16  1  0  0  0
  9 17  1  0  0  0
  2  3  1  0  0  0
 23 26  1  0  0  0
M  END
> <minimizedAffinity>
-10.05712

$$$$
3CYW_017_A_201


 42 45  0  0  0  0  0  0  0  0999 V2000
  -13.0688   18.4778  -17.0906 C   0  0  0  0  0  0  0  0  0  0  0  0
  -14.0927   18.1524  -18.0420 O   0  0  0  0  0  0  0  0  0  0  0  0
  -14.1490   18.8543  -18.7091 H   0  0  0  0  0  0  0  0  0  0  0  0
  -13.4608   19.8163  -16.4202 C   0  0  0  0  0  0  0  0  0  0  0  0
  -14.9119   19.9675  -16.2419 N   0  0  0  0  0  0  0  0  0  0  0  0
  -15.5196   19.6161  -14.7020 S   0  0  0  0  0  0  0  0  0  0  0  0
  -14.3703   19.3583  -13.8412 O   0  0  0  0  0  0  0  0  0  0  0  0
  -16.4982   18.5551  -14.9655 O   0  0  0  0  0  0  0  0  0  0  0  0
  -18.2029   24.5261  -12.8358 N   0  0  0  0  0  0  0  0  0  0  0  0
  -17.6097   23.3628  -13.2914 C   0  0  0  0  0  0  0  0  0  0  0  0
  -16.2407   23.1733  -13.1076 C   0  0  0  0  0  0  0  0  0  0  0  0
  -15.6269   22.0023  -13.5145 C   0  0  0  0  0  0  0  0  0  0  0  0
  -16.4067   21.0190  -14.0873 C   0  0  0  0  0  0  0  0  0  0  0  0
  -17.7676   21.1814  -14.3263 C   0  0  0  0  0  0  0  0  0  0  0  0
  -18.3668   22.3585  -13.9227 C   0  0  0  0  0  0  0  0  0  0  0  0
  -17.6570   25.2177  -12.3965 H   0  0  0  0  0  0  0  0  0  0  0  0
  -19.1711   24.6627  -12.9508 H   0  0  0  0  0  0  0  0  0  0  0  0
  -15.5728   21.0149  -17.0284 C   0  0  0  0  0  0  0  0  0  0  0  0
  -14.6829   22.2150  -17.4100 C   0  0  0  0  0  0  0  0  0  0  0  0
  -14.4362   22.2740  -18.9141 C   0  0  0  0  0  0  0  0  0  0  0  0
  -15.4070   23.4911  -16.9442 C   0  0  0  0  0  0  0  0  0  0  0  0
  -11.7157   18.5698  -17.8138 C   0  0  0  0  0  0  0  0  0  0  0  0
  -10.8039   17.5755  -17.2835 N   0  0  0  0  0  0  0  0  0  0  0  0
  -10.0500   17.7525  -16.1722 C   0  0  0  0  0  0  0  0  0  0  0  0
   -9.9372   18.7580  -15.5047 O   0  0  0  0  0  0  0  0  0  0  0  0
  -10.7279   16.7179  -17.7609 H   0  0  0  0  0  0  0  0  0  0  0  0
   -9.4283   16.5706  -15.9226 O   0  0  0  0  0  0  0  0  0  0  0  0
   -8.9369   16.3601  -14.5760 C   0  0  0  0  0  0  0  0  0  0  0  0
   -9.5258   15.0369  -14.0922 C   0  0  0  0  0  0  0  0  0  0  0  0
   -8.7380   14.0465  -14.7424 O   0  0  0  0  0  0  0  0  0  0  0  0
   -7.3869   14.5069  -14.8890 C   0  0  0  0  0  0  0  0  0  0  0  0
   -6.9447   14.2762  -16.1899 O   0  0  0  0  0  0  0  0  0  0  0  0
   -6.8903   15.5217  -16.8799 C   0  0  0  0  0  0  0  0  0  0  0  0
   -6.6359   16.6162  -15.8261 C   0  0  0  0  0  0  0  0  0  0  0  0
   -7.4158   16.0347  -14.6420 C   0  0  0  0  0  0  0  0  0  0  0  0
  -11.7493   18.5443  -19.3591 C   0  0  0  0  0  0  0  0  0  0  0  0
  -11.2810   20.8564  -20.2903 C   0  0  0  0  0  0  0  0  0  0  0  0
  -10.4383   21.8093  -20.8510 C   0  0  0  0  0  0  0  0  0  0  0  0
   -9.1203   21.4702  -21.1558 C   0  0  0  0  0  0  0  0  0  0  0  0
   -8.6262   20.2019  -20.8316 C   0  0  0  0  0  0  0  0  0  0  0  0
   -9.4467   19.3198  -20.1500 C   0  0  0  0  0  0  0  0  0  0  0  0
  -10.8109   19.5881  -19.9574 C   0  0  0  0  0  0  0  0  0  0  0  0
  9 10  1  0  0  0
 10 11  2  0  0  0
 10 15  1  0  0  0
 11 12  1  0  0  0
 12 13  2  0  0  0
 13 14  1  0  0  0
 13  6  1  0  0  0
 14 15  2  0  0  0
  6  7  2  0  0  0
  6  8  2  0  0  0
  6  5  1  0  0  0
  5 18  1  0  0  0
  5  4  1  0  0  0
 18 19  1  0  0  0
 19 20  1  0  0  0
 19 21  1  0  0  0
  4  1  1  0  0  0
  1  2  1  0  0  0
  1 22  1  0  0  0
 22 23  1  0  0  0
 22 36  1  0  0  0
 23 24  1  0  0  0
 24 25  2  0  0  0
 24 27  1  0  0  0
 27 28  1  0  0  0
 28 29  1  0  0  0
 28 35  1  0  0  0
 29 30  1  0  0  0
 30 31  1  0  0  0
 31 32  1  0  0  0
 31 35  1  0  0  0
 32 33  1  0  0  0
 33 34  1  0  0  0
 34 35  1  0  0  0
 36 42  1  0  0  0
 37 38  2  0  0  0
 37 42  1  0  0  0
 38 39  1  0  0  0
 39 40  2  0  0  0
 40 41  1  0  0  0
 41 42  2  0  0  0
  9 16  1  0  0  0
  9 17  1  0  0  0
  2  3  1  0  0  0
 23 26  1  0  0  0
M  END
> <minimizedAffinity>
-10.02660

$$$$
3CYW_017_A_201


 42 45  0  0  0  0  0  0  0  0999 V2000
  -12.6577   20.5709  -18.2832 C   0  0  0  0  0  0  0  0  0  0  0  0
  -13.1277   20.7423  -19.6283 O   0  0  0  0  0  0  0  0  0  0  0  0
  -13.8288   20.0972  -19.8105 H   0  0  0  0  0  0  0  0  0  0  0  0
  -12.0994   19.1327  -18.1621 C   0  0  0  0  0  0  0  0  0  0  0  0
  -10.7694   19.0822  -17.5384 N   0  0  0  0  0  0  0  0  0  0  0  0
  -10.6467   18.1935  -16.1033 S   0  0  0  0  0  0  0  0  0  0  0  0
  -11.8448   17.3661  -16.0131 O   0  0  0  0  0  0  0  0  0  0  0  0
  -10.3842   19.2263  -15.0947 O   0  0  0  0  0  0  0  0  0  0  0  0
   -6.0129   14.5450  -16.0134 N   0  0  0  0  0  0  0  0  0  0  0  0
   -7.1097   15.3854  -16.0723 C   0  0  0  0  0  0  0  0  0  0  0  0
   -7.4397   16.1617  -14.9622 C   0  0  0  0  0  0  0  0  0  0  0  0
   -8.5054   17.0425  -15.0053 C   0  0  0  0  0  0  0  0  0  0  0  0
   -9.2200   17.1488  -16.1805 C   0  0  0  0  0  0  0  0  0  0  0  0
   -8.9512   16.3654  -17.2984 C   0  0  0  0  0  0  0  0  0  0  0  0
   -7.8896   15.4838  -17.2396 C   0  0  0  0  0  0  0  0  0  0  0  0
   -5.4791   14.4894  -15.1881 H   0  0  0  0  0  0  0  0  0  0  0  0
   -5.7659   14.0024  -16.7969 H   0  0  0  0  0  0  0  0  0  0  0  0
   -9.6113   19.1136  -18.4384 C   0  0  0  0  0  0  0  0  0  0  0  0
   -9.9427   19.0556  -19.9433 C   0  0  0  0  0  0  0  0  0  0  0  0
   -9.6894   20.3963  -20.6252 C   0  0  0  0  0  0  0  0  0  0  0  0
   -9.0498   17.9688  -20.5693 C   0  0  0  0  0  0  0  0  0  0  0  0
  -13.8162   20.8238  -17.3053 C   0  0  0  0  0  0  0  0  0  0  0  0
  -14.7980   21.6964  -17.9183 N   0  0  0  0  0  0  0  0  0  0  0  0
  -15.4414   22.6930  -17.2647 C   0  0  0  0  0  0  0  0  0  0  0  0
  -15.3845   22.9640  -16.0845 O   0  0  0  0  0  0  0  0  0  0  0  0
  -15.0103   21.5559  -18.8693 H   0  0  0  0  0  0  0  0  0  0  0  0
  -16.1790   23.3619  -18.1890 O   0  0  0  0  0  0  0  0  0  0  0  0
  -15.5683   24.5265  -18.7970 C   0  0  0  0  0  0  0  0  0  0  0  0
  -15.3807   24.2051  -20.2780 C   0  0  0  0  0  0  0  0  0  0  0  0
  -16.6814   24.3561  -20.8347 O   0  0  0  0  0  0  0  0  0  0  0  0
  -17.3920   25.4010  -20.1549 C   0  0  0  0  0  0  0  0  0  0  0  0
  -18.6757   24.9686  -19.8289 O   0  0  0  0  0  0  0  0  0  0  0  0
  -18.7335   24.7318  -18.4250 C   0  0  0  0  0  0  0  0  0  0  0  0
  -17.7027   25.6651  -17.7622 C   0  0  0  0  0  0  0  0  0  0  0  0
  -16.6169   25.6764  -18.8437 C   0  0  0  0  0  0  0  0  0  0  0  0
  -14.4781   19.5779  -16.6734 C   0  0  0  0  0  0  0  0  0  0  0  0
  -16.0295   19.7593  -14.6752 C   0  0  0  0  0  0  0  0  0  0  0  0
  -16.2728   19.9532  -13.3204 C   0  0  0  0  0  0  0  0  0  0  0  0
  -15.2109   20.2418  -12.4636 C   0  0  0  0  0  0  0  0  0  0  0  0
  -13.8991   20.2631  -12.9498 C   0  0  0  0  0  0  0  0  0  0  0  0
  -13.6726   19.9315  -14.2745 C   0  0  0  0  0  0  0  0  0  0  0  0
  -14.7319   19.7740  -15.1816 C   0  0  0  0  0  0  0  0  0  0  0  0
  9 10  1  0  0  0
 10 11  2  0  0  0
 10 15  1  0  0  0
 11 12  1  0  0  0
 12 13  2  0  0  0
 13 14  1  0  0  0
 13  6  1  0  0  0
 14 15  2  0  0  0
  6  7  2  0  0  0
  6  8  2  0  0  0
  6  5  1  0  0  0
  5 18  1  0  0  0
  5  4  1  0  0  0
 18 19  1  0  0  0
 19 20  1  0  0  0
 19 21  1  0  0  0
  4  1  1  0  0  0
  1  2  1  0  0  0
  1 22  1  0  0  0
 22 23  1  0  0  0
 22 36  1  0  0  0
 23 24  1  0  0  0
 24 25  2  0  0  0
 24 27  1  0  0  0
 27 28  1  0  0  0
 28 29  1  0  0  0
 28 35  1  0  0  0
 29 30  1  0  0  0
 30 31  1  0  0  0
 31 32  1  0  0  0
 31 35  1  0  0  0
 32 33  1  0  0  0
 33 34  1  0  0  0
 34 35  1  0  0  0
 36 42  1  0  0  0
 37 38  2  0  0  0
 37 42  1  0  0  0
 38 39  1  0  0  0
 39 40  2  0  0  0
 40 41  1  0  0  0
 41 42  2  0  0  0
  9 16  1  0  0  0
  9 17  1  0  0  0
  2  3  1  0  0  0
 23 26  1  0  0  0
M  END
> <minimizedAffinity>
-9.95123

$$$$
3CYW_017_A_201


 42 45  0  0  0  0  0  0  0  0999 V2000
  -13.8011   19.7032  -17.4695 C   0  0  0  0  0  0  0  0  0  0  0  0
  -15.1861   19.3387  -17.3784 O   0  0  0  0  0  0  0  0  0  0  0  0
  -15.7284   20.1408  -17.3200 H   0  0  0  0  0  0  0  0  0  0  0  0
  -13.4403   20.4950  -16.1898 C   0  0  0  0  0  0  0  0  0  0  0  0
  -13.0927   19.6279  -15.0551 N   0  0  0  0  0  0  0  0  0  0  0  0
  -14.3010   19.3906  -13.8941 S   0  0  0  0  0  0  0  0  0  0  0  0
  -13.6324   19.2840  -12.6019 O   0  0  0  0  0  0  0  0  0  0  0  0
  -15.0580   18.2538  -14.4304 O   0  0  0  0  0  0  0  0  0  0  0  0
  -18.1908   23.8198  -13.6860 N   0  0  0  0  0  0  0  0  0  0  0  0
  -17.2524   22.8041  -13.7114 C   0  0  0  0  0  0  0  0  0  0  0  0
  -17.5802   21.5816  -14.2961 C   0  0  0  0  0  0  0  0  0  0  0  0
  -16.6491   20.5616  -14.3743 C   0  0  0  0  0  0  0  0  0  0  0  0
  -15.3826   20.7916  -13.8783 C   0  0  0  0  0  0  0  0  0  0  0  0
  -15.0243   21.9806  -13.2511 C   0  0  0  0  0  0  0  0  0  0  0  0
  -15.9656   22.9881  -13.1722 C   0  0  0  0  0  0  0  0  0  0  0  0
  -19.0860   23.6725  -14.0681 H   0  0  0  0  0  0  0  0  0  0  0  0
  -17.9635   24.6900  -13.2857 H   0  0  0  0  0  0  0  0  0  0  0  0
  -12.1569   18.5295  -15.3198 C   0  0  0  0  0  0  0  0  0  0  0  0
  -10.7823   18.9527  -15.8760 C   0  0  0  0  0  0  0  0  0  0  0  0
   -9.7117   18.9454  -14.7894 C   0  0  0  0  0  0  0  0  0  0  0  0
  -10.4102   17.9567  -16.9893 C   0  0  0  0  0  0  0  0  0  0  0  0
  -13.5782   20.5337  -18.7434 C   0  0  0  0  0  0  0  0  0  0  0  0
  -14.7477   21.3463  -19.0137 N   0  0  0  0  0  0  0  0  0  0  0  0
  -14.9377   22.5924  -18.5180 C   0  0  0  0  0  0  0  0  0  0  0  0
  -14.2427   23.1889  -17.7240 O   0  0  0  0  0  0  0  0  0  0  0  0
  -15.4477   20.9689  -19.5940 H   0  0  0  0  0  0  0  0  0  0  0  0
  -16.0726   23.0766  -19.0868 O   0  0  0  0  0  0  0  0  0  0  0  0
  -16.0944   24.4895  -19.4060 C   0  0  0  0  0  0  0  0  0  0  0  0
  -16.8238   24.6302  -20.7402 C   0  0  0  0  0  0  0  0  0  0  0  0
  -18.1985   24.4871  -20.4024 O   0  0  0  0  0  0  0  0  0  0  0  0
  -18.4482   25.0388  -19.1016 C   0  0  0  0  0  0  0  0  0  0  0  0
  -19.2043   24.1466  -18.3442 O   0  0  0  0  0  0  0  0  0  0  0  0
  -18.3609   23.5584  -17.3578 C   0  0  0  0  0  0  0  0  0  0  0  0
  -17.2484   24.5763  -17.0430 C   0  0  0  0  0  0  0  0  0  0  0  0
  -17.0661   25.2105  -18.4262 C   0  0  0  0  0  0  0  0  0  0  0  0
  -12.2780   21.3670  -18.8122 C   0  0  0  0  0  0  0  0  0  0  0  0
  -11.3856   19.3332  -20.0369 C   0  0  0  0  0  0  0  0  0  0  0  0
  -10.3625   18.6125  -20.6421 C   0  0  0  0  0  0  0  0  0  0  0  0
   -9.0642   19.1218  -20.6375 C   0  0  0  0  0  0  0  0  0  0  0  0
   -8.8047   20.3844  -20.0931 C   0  0  0  0  0  0  0  0  0  0  0  0
   -9.8649   21.1386  -19.6207 C   0  0  0  0  0  0  0  0  0  0  0  0
  -11.1513   20.5928  -19.4901 C   0  0  0  0  0  0  0  0  0  0  0  0
  9 10  1  0  0  0
 10 11  2  0  0  0
 10 15  1  0  0  0
 11 12  1  0  0  0
 12 13  2  0  0  0
 13 14  1  0  0  0
 13  6  1  0  0  0
 14 15  2  0  0  0
  6  7  2  0  0  0
  6  8  2  0  0  0
  6  5  1  0  0  0
  5 18  1  0  0  0
  5  4  1  0  0  0
 18 19  1  0  0  0
 19 20  1  0  0  0
 19 21  1  0  0  0
  4  1  1  0  0  0
  1  2  1  0  0  0
  1 22  1  0  0  0
 22 23  1  0  0  0
 22 36  1  0  0  0
 23 24  1  0  0  0
 24 25  2  0  0  0
 24 27  1  0  0  0
 27 28  1  0  0  0
 28 29  1  0  0  0
 28 35  1  0  0  0
 29 30  1  0  0  0
 30 31  1  0  0  0
 31 32  1  0  0  0
 31 35  1  0  0  0
 32 33  1  0  0  0
 33 34  1  0  0  0
 34 35  1  0  0  0
 36 42  1  0  0  0
 37 38  2  0  0  0
 37 42  1  0  0  0
 38 39  1  0  0  0
 39 40  2  0  0  0
 40 41  1  0  0  0
 41 42  2  0  0  0
  9 16  1  0  0  0
  9 17  1  0  0  0
  2  3  1  0  0  0
 23 26  1  0  0  0
M  END
> <minimizedAffinity>
-9.75177

$$$$
3CYW_017_A_201


 42 45  0  0  0  0  0  0  0  0999 V2000
  -14.8878   20.3229  -16.6646 C   0  0  0  0  0  0  0  0  0  0  0  0
  -15.1246   19.1234  -17.4159 O   0  0  0  0  0  0  0  0  0  0  0  0
  -15.8480   19.2731  -18.0445 H   0  0  0  0  0  0  0  0  0  0  0  0
  -16.1909   20.6626  -15.9021 C   0  0  0  0  0  0  0  0  0  0  0  0
  -16.0126   21.7252  -14.9024 N   0  0  0  0  0  0  0  0  0  0  0  0
  -17.4271   22.4095  -14.2739 S   0  0  0  0  0  0  0  0  0  0  0  0
  -17.0640   23.0541  -13.0166 O   0  0  0  0  0  0  0  0  0  0  0  0
  -18.3715   21.2865  -14.2829 O   0  0  0  0  0  0  0  0  0  0  0  0
  -19.7635   26.2197  -18.1229 N   0  0  0  0  0  0  0  0  0  0  0  0
  -19.2190   25.3555  -17.1904 C   0  0  0  0  0  0  0  0  0  0  0  0
  -18.9572   24.0343  -17.5503 C   0  0  0  0  0  0  0  0  0  0  0  0
  -18.3740   23.1580  -16.6527 C   0  0  0  0  0  0  0  0  0  0  0  0
  -18.0392   23.6298  -15.4004 C   0  0  0  0  0  0  0  0  0  0  0  0
  -18.3186   24.9281  -14.9857 C   0  0  0  0  0  0  0  0  0  0  0  0
  -18.9085   25.7907  -15.8887 C   0  0  0  0  0  0  0  0  0  0  0  0
  -19.9742   25.8972  -19.0289 H   0  0  0  0  0  0  0  0  0  0  0  0
  -19.9404   27.1574  -17.8806 H   0  0  0  0  0  0  0  0  0  0  0  0
  -14.8399   21.6242  -14.0266 C   0  0  0  0  0  0  0  0  0  0  0  0
  -14.6796   20.2790  -13.2901 C   0  0  0  0  0  0  0  0  0  0  0  0
  -13.3275   19.6369  -13.5838 C   0  0  0  0  0  0  0  0  0  0  0  0
  -14.8127   20.5614  -11.7826 C   0  0  0  0  0  0  0  0  0  0  0  0
  -14.4716   21.4487  -17.6247 C   0  0  0  0  0  0  0  0  0  0  0  0
  -13.1154   21.2274  -18.0862 N   0  0  0  0  0  0  0  0  0  0  0  0
  -12.0090   21.5844  -17.3914 C   0  0  0  0  0  0  0  0  0  0  0  0
  -11.9541   22.2054  -16.3518 O   0  0  0  0  0  0  0  0  0  0  0  0
  -12.9908   20.7903  -18.9595 H   0  0  0  0  0  0  0  0  0  0  0  0
  -10.9383   21.1059  -18.0774 O   0  0  0  0  0  0  0  0  0  0  0  0
  -11.0794   20.9901  -19.5146 C   0  0  0  0  0  0  0  0  0  0  0  0
   -9.8553   21.6604  -20.1345 C   0  0  0  0  0  0  0  0  0  0  0  0
   -8.8128   20.7069  -19.9650 O   0  0  0  0  0  0  0  0  0  0  0  0
   -9.3393   19.3758  -20.0633 C   0  0  0  0  0  0  0  0  0  0  0  0
   -8.8583   18.5958  -19.0138 O   0  0  0  0  0  0  0  0  0  0  0  0
   -9.9158   18.3834  -18.0826 C   0  0  0  0  0  0  0  0  0  0  0  0
  -11.2374   18.4436  -18.8718 C   0  0  0  0  0  0  0  0  0  0  0  0
  -10.8755   19.5009  -19.9205 C   0  0  0  0  0  0  0  0  0  0  0  0
  -15.4300   21.7517  -18.7990 C   0  0  0  0  0  0  0  0  0  0  0  0
  -15.2294   24.1436  -17.9796 C   0  0  0  0  0  0  0  0  0  0  0  0
  -15.4584   25.5092  -18.1022 C   0  0  0  0  0  0  0  0  0  0  0  0
  -16.2069   25.9890  -19.1767 C   0  0  0  0  0  0  0  0  0  0  0  0
  -16.6622   25.1106  -20.1662 C   0  0  0  0  0  0  0  0  0  0  0  0
  -16.3030   23.7760  -20.0909 C   0  0  0  0  0  0  0  0  0  0  0  0
  -15.6713   23.2505  -18.9530 C   0  0  0  0  0  0  0  0  0  0  0  0
  9 10  1  0  0  0
 10 11  2  0  0  0
 10 15  1  0  0  0
 11 12  1  0  0  0
 12 13  2  0  0  0
 13 14  1  0  0  0
 13  6  1  0  0  0
 14 15  2  0  0  0
  6  7  2  0  0  0
  6  8  2  0  0  0
  6  5  1  0  0  0
  5 18  1  0  0  0
  5  4  1  0  0  0
 18 19  1  0  0  0
 19 20  1  0  0  0
 19 21  1  0  0  0
  4  1  1  0  0  0
  1  2  1  0  0  0
  1 22  1  0  0  0
 22 23  1  0  0  0
 22 36  1  0  0  0
 23 24  1  0  0  0
 24 25  2  0  0  0
 24 27  1  0  0  0
 27 28  1  0  0  0
 28 29  1  0  0  0
 28 35  1  0  0  0
 29 30  1  0  0  0
 30 31  1  0  0  0
 31 32  1  0  0  0
 31 35  1  0  0  0
 32 33  1  0  0  0
 33 34  1  0  0  0
 34 35  1  0  0  0
 36 42  1  0  0  0
 37 38  2  0  0  0
 37 42  1  0  0  0
 38 39  1  0  0  0
 39 40  2  0  0  0
 40 41  1  0  0  0
 41 42  2  0  0  0
  9 16  1  0  0  0
  9 17  1  0  0  0
  2  3  1  0  0  0
 23 26  1  0  0  0
M  END
> <minimizedAffinity>
-9.70858

$$$$
3CYW_017_A_201


 42 45  0  0  0  0  0  0  0  0999 V2000
  -14.9860   20.1361  -16.4241 C   0  0  0  0  0  0  0  0  0  0  0  0
  -15.3877   18.9592  -17.1404 O   0  0  0  0  0  0  0  0  0  0  0  0
  -15.9434   19.2131  -17.8938 H   0  0  0  0  0  0  0  0  0  0  0  0
  -16.2697   20.8399  -15.9227 C   0  0  0  0  0  0  0  0  0  0  0  0
  -16.0035   21.8647  -14.9032 N   0  0  0  0  0  0  0  0  0  0  0  0
  -17.3578   22.6305  -14.2373 S   0  0  0  0  0  0  0  0  0  0  0  0
  -16.8733   23.4900  -13.1627 O   0  0  0  0  0  0  0  0  0  0  0  0
  -18.2589   21.5115  -13.9393 O   0  0  0  0  0  0  0  0  0  0  0  0
  -19.6943   26.2457  -18.2699 N   0  0  0  0  0  0  0  0  0  0  0  0
  -19.1394   25.3699  -17.3547 C   0  0  0  0  0  0  0  0  0  0  0  0
  -18.9513   25.7832  -16.0365 C   0  0  0  0  0  0  0  0  0  0  0  0
  -18.4378   24.9161  -15.0888 C   0  0  0  0  0  0  0  0  0  0  0  0
  -18.1365   23.6268  -15.4758 C   0  0  0  0  0  0  0  0  0  0  0  0
  -18.2704   23.1840  -16.7879 C   0  0  0  0  0  0  0  0  0  0  0  0
  -18.7764   24.0620  -17.7263 C   0  0  0  0  0  0  0  0  0  0  0  0
  -19.9420   27.1570  -17.9915 H   0  0  0  0  0  0  0  0  0  0  0  0
  -19.8417   25.9580  -19.1998 H   0  0  0  0  0  0  0  0  0  0  0  0
  -14.8280   21.6632  -14.0489 C   0  0  0  0  0  0  0  0  0  0  0  0
  -14.8179   20.3516  -13.2381 C   0  0  0  0  0  0  0  0  0  0  0  0
  -13.4877   19.6178  -13.3754 C   0  0  0  0  0  0  0  0  0  0  0  0
  -15.0668   20.7202  -11.7642 C   0  0  0  0  0  0  0  0  0  0  0  0
  -14.1598   21.0384  -17.3545 C   0  0  0  0  0  0  0  0  0  0  0  0
  -12.8398   20.4713  -17.5476 N   0  0  0  0  0  0  0  0  0  0  0  0
  -11.7507   20.8177  -16.8207 C   0  0  0  0  0  0  0  0  0  0  0  0
  -11.6654   21.6874  -15.9806 O   0  0  0  0  0  0  0  0  0  0  0  0
  -12.7279   19.7918  -18.2512 H   0  0  0  0  0  0  0  0  0  0  0  0
  -10.7408   19.9926  -17.2017 O   0  0  0  0  0  0  0  0  0  0  0  0
  -11.1057   18.8262  -17.9797 C   0  0  0  0  0  0  0  0  0  0  0  0
   -9.9677   18.5801  -18.9678 C   0  0  0  0  0  0  0  0  0  0  0  0
   -8.9476   17.9763  -18.1810 O   0  0  0  0  0  0  0  0  0  0  0  0
   -9.5318   17.1588  -17.1566 C   0  0  0  0  0  0  0  0  0  0  0  0
   -8.9241   17.4255  -15.9315 O   0  0  0  0  0  0  0  0  0  0  0  0
   -9.8327   18.1702  -15.1252 C   0  0  0  0  0  0  0  0  0  0  0  0
  -11.2569   17.7850  -15.5681 C   0  0  0  0  0  0  0  0  0  0  0  0
  -11.0220   17.5677  -17.0668 C   0  0  0  0  0  0  0  0  0  0  0  0
  -14.8114   21.4340  -18.6993 C   0  0  0  0  0  0  0  0  0  0  0  0
  -15.7666   23.4765  -19.8605 C   0  0  0  0  0  0  0  0  0  0  0  0
  -16.0563   24.8347  -19.9198 C   0  0  0  0  0  0  0  0  0  0  0  0
  -15.6485   25.6726  -18.8823 C   0  0  0  0  0  0  0  0  0  0  0  0
  -15.0171   25.1397  -17.7531 C   0  0  0  0  0  0  0  0  0  0  0  0
  -14.8643   23.7672  -17.6590 C   0  0  0  0  0  0  0  0  0  0  0  0
  -15.1407   22.9232  -18.7458 C   0  0  0  0  0  0  0  0  0  0  0  0
  9 10  1  0  0  0
 10 11  2  0  0  0
 10 15  1  0  0  0
 11 12  1  0  0  0
 12 13  2  0  0  0
 13 14  1  0  0  0
 13  6  1  0  0  0
 14 15  2  0  0  0
  6  7  2  0  0  0
  6  8  2  0  0  0
  6  5  1  0  0  0
  5 18  1  0  0  0
  5  4  1  0  0  0
 18 19  1  0  0  0
 19 20  1  0  0  0
 19 21  1  0  0  0
  4  1  1  0  0  0
  1  2  1  0  0  0
  1 22  1  0  0  0
 22 23  1  0  0  0
 22 36  1  0  0  0
 23 24  1  0  0  0
 24 25  2  0  0  0
 24 27  1  0  0  0
 27 28  1  0  0  0
 28 29  1  0  0  0
 28 35  1  0  0  0
 29 30  1  0  0  0
 30 31  1  0  0  0
 31 32  1  0  0  0
 31 35  1  0  0  0
 32 33  1  0  0  0
 33 34  1  0  0  0
 34 35  1  0  0  0
 36 42  1  0  0  0
 37 38  2  0  0  0
 37 42  1  0  0  0
 38 39  1  0  0  0
 39 40  2  0  0  0
 40 41  1  0  0  0
 41 42  2  0  0  0
  9 16  1  0  0  0
  9 17  1  0  0  0
  2  3  1  0  0  0
 23 26  1  0  0  0
M  END
> <minimizedAffinity>
-9.52183

$$$$
3CYW_017_A_201


 42 45  0  0  0  0  0  0  0  0999 V2000
  -14.2260   19.8144  -17.4931 C   0  0  0  0  0  0  0  0  0  0  0  0
  -14.9412   18.6672  -17.9748 O   0  0  0  0  0  0  0  0  0  0  0  0
  -15.7717   18.9533  -18.3862 H   0  0  0  0  0  0  0  0  0  0  0  0
  -15.1215   20.5186  -16.4458 C   0  0  0  0  0  0  0  0  0  0  0  0
  -14.9299   20.0012  -15.0835 N   0  0  0  0  0  0  0  0  0  0  0  0
  -13.4122   20.2707  -14.3848 S   0  0  0  0  0  0  0  0  0  0  0  0
  -13.5087   19.8582  -12.9888 O   0  0  0  0  0  0  0  0  0  0  0  0
  -13.1345   21.6710  -14.7240 O   0  0  0  0  0  0  0  0  0  0  0  0
   -9.6662   16.8472  -17.3911 N   0  0  0  0  0  0  0  0  0  0  0  0
  -10.5181   17.6822  -16.6912 C   0  0  0  0  0  0  0  0  0  0  0  0
  -11.7678   17.2095  -16.2928 C   0  0  0  0  0  0  0  0  0  0  0  0
  -12.6244   18.0069  -15.5553 C   0  0  0  0  0  0  0  0  0  0  0  0
  -12.2027   19.2732  -15.2063 C   0  0  0  0  0  0  0  0  0  0  0  0
  -10.9819   19.7996  -15.6161 C   0  0  0  0  0  0  0  0  0  0  0  0
  -10.1393   18.9961  -16.3590 C   0  0  0  0  0  0  0  0  0  0  0  0
   -9.9486   15.9310  -17.6146 H   0  0  0  0  0  0  0  0  0  0  0  0
   -8.7773   17.1691  -17.6658 H   0  0  0  0  0  0  0  0  0  0  0  0
  -16.1063   19.9845  -14.2070 C   0  0  0  0  0  0  0  0  0  0  0  0
  -16.8282   21.3374  -14.0448 C   0  0  0  0  0  0  0  0  0  0  0  0
  -18.3344   21.1538  -13.8882 C   0  0  0  0  0  0  0  0  0  0  0  0
  -16.2477   22.0214  -12.7937 C   0  0  0  0  0  0  0  0  0  0  0  0
  -13.8894   20.7355  -18.6766 C   0  0  0  0  0  0  0  0  0  0  0  0
  -14.9950   21.6383  -18.9293 N   0  0  0  0  0  0  0  0  0  0  0  0
  -15.1125   22.8687  -18.3754 C   0  0  0  0  0  0  0  0  0  0  0  0
  -14.3980   23.3768  -17.5383 O   0  0  0  0  0  0  0  0  0  0  0  0
  -15.7049   21.3384  -19.5419 H   0  0  0  0  0  0  0  0  0  0  0  0
  -16.1986   23.4565  -18.9419 O   0  0  0  0  0  0  0  0  0  0  0  0
  -16.1079   24.8765  -19.2143 C   0  0  0  0  0  0  0  0  0  0  0  0
  -16.6898   25.0973  -20.6087 C   0  0  0  0  0  0  0  0  0  0  0  0
  -18.0975   25.0274  -20.4138 O   0  0  0  0  0  0  0  0  0  0  0  0
  -18.4455   25.5568  -19.1264 C   0  0  0  0  0  0  0  0  0  0  0  0
  -19.3234   24.6910  -18.4779 O   0  0  0  0  0  0  0  0  0  0  0  0
  -18.6186   24.0263  -17.4330 C   0  0  0  0  0  0  0  0  0  0  0  0
  -17.4876   24.9668  -16.9757 C   0  0  0  0  0  0  0  0  0  0  0  0
  -17.1310   25.6269  -18.3120 C   0  0  0  0  0  0  0  0  0  0  0  0
  -12.5422   21.4905  -18.6096 C   0  0  0  0  0  0  0  0  0  0  0  0
  -11.6293   19.4085  -19.7341 C   0  0  0  0  0  0  0  0  0  0  0  0
  -10.6226   18.7005  -20.3804 C   0  0  0  0  0  0  0  0  0  0  0  0
   -9.3737   19.2924  -20.5666 C   0  0  0  0  0  0  0  0  0  0  0  0
   -9.1562   20.6172  -20.1724 C   0  0  0  0  0  0  0  0  0  0  0  0
  -10.2160   21.3429  -19.6564 C   0  0  0  0  0  0  0  0  0  0  0  0
  -11.4364   20.7289  -19.3344 C   0  0  0  0  0  0  0  0  0  0  0  0
  9 10  1  0  0  0
 10 11  2  0  0  0
 10 15  1  0  0  0
 11 12  1  0  0  0
 12 13  2  0  0  0
 13 14  1  0  0  0
 13  6  1  0  0  0
 14 15  2  0  0  0
  6  7  2  0  0  0
  6  8  2  0  0  0
  6  5  1  0  0  0
  5 18  1  0  0  0
  5  4  1  0  0  0
 18 19  1  0  0  0
 19 20  1  0  0  0
 19 21  1  0  0  0
  4  1  1  0  0  0
  1  2  1  0  0  0
  1 22  1  0  0  0
 22 23  1  0  0  0
 22 36  1  0  0  0
 23 24  1  0  0  0
 24 25  2  0  0  0
 24 27  1  0  0  0
 27 28  1  0  0  0
 28 29  1  0  0  0
 28 35  1  0  0  0
 29 30  1  0  0  0
 30 31  1  0  0  0
 31 32  1  0  0  0
 31 35  1  0  0  0
 32 33  1  0  0  0
 33 34  1  0  0  0
 34 35  1  0  0  0
 36 42  1  0  0  0
 37 38  2  0  0  0
 37 42  1  0  0  0
 38 39  1  0  0  0
 39 40  2  0  0  0
 40 41  1  0  0  0
 41 42  2  0  0  0
  9 16  1  0  0  0
  9 17  1  0  0  0
  2  3  1  0  0  0
 23 26  1  0  0  0
M  END
> <minimizedAffinity>
-9.49701

$$$$
3CYW_017_A_201


 42 45  0  0  0  0  0  0  0  0999 V2000
  -15.3608   20.6494  -16.0288 C   0  0  0  0  0  0  0  0  0  0  0  0
  -15.4410   19.2680  -16.4092 O   0  0  0  0  0  0  0  0  0  0  0  0
  -15.8335   19.1984  -17.2935 H   0  0  0  0  0  0  0  0  0  0  0  0
  -16.8009   21.2157  -16.0158 C   0  0  0  0  0  0  0  0  0  0  0  0
  -17.2389   21.6442  -14.6798 N   0  0  0  0  0  0  0  0  0  0  0  0
  -18.7246   22.4507  -14.5998 S   0  0  0  0  0  0  0  0  0  0  0  0
  -18.8765   22.9248  -13.2285 O   0  0  0  0  0  0  0  0  0  0  0  0
  -19.6655   21.4688  -15.1507 O   0  0  0  0  0  0  0  0  0  0  0  0
  -18.9491   26.9091  -18.4551 N   0  0  0  0  0  0  0  0  0  0  0  0
  -18.9008   25.8914  -17.5199 C   0  0  0  0  0  0  0  0  0  0  0  0
  -18.8700   24.5655  -17.9498 C   0  0  0  0  0  0  0  0  0  0  0  0
  -18.7791   23.5278  -17.0396 C   0  0  0  0  0  0  0  0  0  0  0  0
  -18.6986   23.8386  -15.6980 C   0  0  0  0  0  0  0  0  0  0  0  0
  -18.7662   25.1443  -15.2225 C   0  0  0  0  0  0  0  0  0  0  0  0
  -18.8652   26.1708  -16.1411 C   0  0  0  0  0  0  0  0  0  0  0  0
  -18.9735   26.6942  -19.4156 H   0  0  0  0  0  0  0  0  0  0  0  0
  -18.9590   27.8484  -18.1604 H   0  0  0  0  0  0  0  0  0  0  0  0
  -16.8445   20.7985  -13.5477 C   0  0  0  0  0  0  0  0  0  0  0  0
  -15.8780   21.4527  -12.5399 C   0  0  0  0  0  0  0  0  0  0  0  0
  -14.6725   20.5612  -12.2595 C   0  0  0  0  0  0  0  0  0  0  0  0
  -15.4152   22.7893  -13.1477 C   0  0  0  0  0  0  0  0  0  0  0  0
  -14.4564   21.3968  -17.0216 C   0  0  0  0  0  0  0  0  0  0  0  0
  -13.1371   20.7965  -17.0358 N   0  0  0  0  0  0  0  0  0  0  0  0
  -12.0409   21.3587  -16.4729 C   0  0  0  0  0  0  0  0  0  0  0  0
  -11.9486   22.4536  -15.9610 O   0  0  0  0  0  0  0  0  0  0  0  0
  -13.0312   19.9256  -17.4825 H   0  0  0  0  0  0  0  0  0  0  0  0
  -11.0330   20.4536  -16.5777 O   0  0  0  0  0  0  0  0  0  0  0  0
  -10.7565   19.6425  -15.4095 C   0  0  0  0  0  0  0  0  0  0  0  0
  -12.0779   19.4790  -14.6618 C   0  0  0  0  0  0  0  0  0  0  0  0
  -12.7849   18.4998  -15.4141 O   0  0  0  0  0  0  0  0  0  0  0  0
  -11.8676   17.5495  -15.9746 C   0  0  0  0  0  0  0  0  0  0  0  0
  -12.1613   17.3425  -17.3208 O   0  0  0  0  0  0  0  0  0  0  0  0
  -11.1623   17.9843  -18.1086 C   0  0  0  0  0  0  0  0  0  0  0  0
   -9.8688   18.0101  -17.2724 C   0  0  0  0  0  0  0  0  0  0  0  0
  -10.4601   18.1849  -15.8693 C   0  0  0  0  0  0  0  0  0  0  0  0
  -15.0072   21.5940  -18.4524 C   0  0  0  0  0  0  0  0  0  0  0  0
  -15.8028   23.4547  -19.9813 C   0  0  0  0  0  0  0  0  0  0  0  0
  -16.0489   24.7931  -20.2650 C   0  0  0  0  0  0  0  0  0  0  0  0
  -15.7088   25.7700  -19.3297 C   0  0  0  0  0  0  0  0  0  0  0  0
  -15.1916   25.4018  -18.0827 C   0  0  0  0  0  0  0  0  0  0  0  0
  -15.0852   24.0565  -17.7749 C   0  0  0  0  0  0  0  0  0  0  0  0
  -15.2903   23.0643  -18.7462 C   0  0  0  0  0  0  0  0  0  0  0  0
  9 10  1  0  0  0
 10 11  2  0  0  0
 10 15  1  0  0  0
 11 12  1  0  0  0
 12 13  2  0  0  0
 13 14  1  0  0  0
 13  6  1  0  0  0
 14 15  2  0  0  0
  6  7  2  0  0  0
  6  8  2  0  0  0
  6  5  1  0  0  0
  5 18  1  0  0  0
  5  4  1  0  0  0
 18 19  1  0  0  0
 19 20  1  0  0  0
 19 21  1  0  0  0
  4  1  1  0  0  0
  1  2  1  0  0  0
  1 22  1  0  0  0
 22 23  1  0  0  0
 22 36  1  0  0  0
 23 24  1  0  0  0
 24 25  2  0  0  0
 24 27  1  0  0  0
 27 28  1  0  0  0
 28 29  1  0  0  0
 28 35  1  0  0  0
 29 30  1  0  0  0
 30 31  1  0  0  0
 31 32  1  0  0  0
 31 35  1  0  0  0
 32 33  1  0  0  0
 33 34  1  0  0  0
 34 35  1  0  0  0
 36 42  1  0  0  0
 37 38  2  0  0  0
 37 42  1  0  0  0
 38 39  1  0  0  0
 39 40  2  0  0  0
 40 41  1  0  0  0
 41 42  2  0  0  0
  9 16  1  0  0  0
  9 17  1  0  0  0
  2  3  1  0  0  0
 23 26  1  0  0  0
M  END
> <minimizedAffinity>
-9.40364

$$$$
3CYW_017_A_201


 42 45  0  0  0  0  0  0  0  0999 V2000
  -13.0612   19.0328  -18.0748 C   0  0  0  0  0  0  0  0  0  0  0  0
  -14.2360   18.2090  -18.0973 O   0  0  0  0  0  0  0  0  0  0  0  0
  -14.1792   17.5455  -17.3919 H   0  0  0  0  0  0  0  0  0  0  0  0
  -11.8395   18.1125  -18.3097 C   0  0  0  0  0  0  0  0  0  0  0  0
  -10.7540   18.7739  -19.0476 N   0  0  0  0  0  0  0  0  0  0  0  0
   -9.2014   18.1367  -18.8298 S   0  0  0  0  0  0  0  0  0  0  0  0
   -8.3005   19.2690  -18.6438 O   0  0  0  0  0  0  0  0  0  0  0  0
   -9.0421   17.2478  -19.9862 O   0  0  0  0  0  0  0  0  0  0  0  0
   -8.7283   14.7558  -14.0197 N   0  0  0  0  0  0  0  0  0  0  0  0
   -8.8589   15.5775  -15.1244 C   0  0  0  0  0  0  0  0  0  0  0  0
   -8.2517   15.2139  -16.3256 C   0  0  0  0  0  0  0  0  0  0  0  0
   -8.3996   15.9937  -17.4585 C   0  0  0  0  0  0  0  0  0  0  0  0
   -9.1799   17.1283  -17.3753 C   0  0  0  0  0  0  0  0  0  0  0  0
   -9.7708   17.5500  -16.1885 C   0  0  0  0  0  0  0  0  0  0  0  0
   -9.6086   16.7669  -15.0625 C   0  0  0  0  0  0  0  0  0  0  0  0
   -8.1997   13.9276  -14.0820 H   0  0  0  0  0  0  0  0  0  0  0  0
   -9.1638   14.9991  -13.1709 H   0  0  0  0  0  0  0  0  0  0  0  0
  -11.0926   19.3503  -20.3535 C   0  0  0  0  0  0  0  0  0  0  0  0
  -10.9076   20.8767  -20.4697 C   0  0  0  0  0  0  0  0  0  0  0  0
  -10.8371   21.5389  -19.0974 C   0  0  0  0  0  0  0  0  0  0  0  0
   -9.5991   21.1240  -21.2422 C   0  0  0  0  0  0  0  0  0  0  0  0
  -12.9808   19.7644  -16.7255 C   0  0  0  0  0  0  0  0  0  0  0  0
  -13.8758   20.9047  -16.7282 N   0  0  0  0  0  0  0  0  0  0  0  0
  -13.4699   22.1889  -16.5848 C   0  0  0  0  0  0  0  0  0  0  0  0
  -12.3513   22.5914  -16.3478 O   0  0  0  0  0  0  0  0  0  0  0  0
  -14.8389   20.7351  -16.8414 H   0  0  0  0  0  0  0  0  0  0  0  0
  -14.5646   22.9732  -16.7648 O   0  0  0  0  0  0  0  0  0  0  0  0
  -15.7627   22.3234  -17.2560 C   0  0  0  0  0  0  0  0  0  0  0  0
  -16.8478   22.5430  -16.2042 C   0  0  0  0  0  0  0  0  0  0  0  0
  -17.2613   23.8894  -16.4061 O   0  0  0  0  0  0  0  0  0  0  0  0
  -17.1823   24.2275  -17.7983 C   0  0  0  0  0  0  0  0  0  0  0  0
  -16.5452   25.4568  -17.9534 O   0  0  0  0  0  0  0  0  0  0  0  0
  -15.2375   25.2295  -18.4718 C   0  0  0  0  0  0  0  0  0  0  0  0
  -15.2912   23.9252  -19.2895 C   0  0  0  0  0  0  0  0  0  0  0  0
  -16.3133   23.1343  -18.4658 C   0  0  0  0  0  0  0  0  0  0  0  0
  -13.1610   18.9027  -15.4548 C   0  0  0  0  0  0  0  0  0  0  0  0
  -15.4669   19.3528  -14.4994 C   0  0  0  0  0  0  0  0  0  0  0  0
  -16.3259   19.9722  -13.5990 C   0  0  0  0  0  0  0  0  0  0  0  0
  -15.8166   20.8877  -12.6785 C   0  0  0  0  0  0  0  0  0  0  0  0
  -14.4396   21.1269  -12.6109 C   0  0  0  0  0  0  0  0  0  0  0  0
  -13.5940   20.3948  -13.4262 C   0  0  0  0  0  0  0  0  0  0  0  0
  -14.0925   19.5740  -14.4498 C   0  0  0  0  0  0  0  0  0  0  0  0
  9 10  1  0  0  0
 10 11  2  0  0  0
 10 15  1  0  0  0
 11 12  1  0  0  0
 12 13  2  0  0  0
 13 14  1  0  0  0
 13  6  1  0  0  0
 14 15  2  0  0  0
  6  7  2  0  0  0
  6  8  2  0  0  0
  6  5  1  0  0  0
  5 18  1  0  0  0
  5  4  1  0  0  0
 18 19  1  0  0  0
 19 20  1  0  0  0
 19 21  1  0  0  0
  4  1  1  0  0  0
  1  2  1  0  0  0
  1 22  1  0  0  0
 22 23  1  0  0  0
 22 36  1  0  0  0
 23 24  1  0  0  0
 24 25  2  0  0  0
 24 27  1  0  0  0
 27 28  1  0  0  0
 28 29  1  0  0  0
 28 35  1  0  0  0
 29 30  1  0  0  0
 30 31  1  0  0  0
 31 32  1  0  0  0
 31 35  1  0  0  0
 32 33  1  0  0  0
 33 34  1  0  0  0
 34 35  1  0  0  0
 36 42  1  0  0  0
 37 38  2  0  0  0
 37 42  1  0  0  0
 38 39  1  0  0  0
 39 40  2  0  0  0
 40 41  1  0  0  0
 41 42  2  0  0  0
  9 16  1  0  0  0
  9 17  1  0  0  0
  2  3  1  0  0  0
 23 26  1  0  0  0
M  END
> <minimizedAffinity>
-9.30500

$$$$
