1CNW_EG1_A_555


 32 32  0  0  0  0  0  0  0  0999 V2000
   -3.7571    5.6640   14.2388 C   0  0  0  0  0  0  0  0  0  0  0  0
   -4.3680    6.5785   13.7161 O   0  0  0  0  0  0  0  0  0  0  0  0
   -2.4677    5.6884   14.1672 N   0  0  0  0  0  0  0  0  0  0  0  0
   -1.9751    4.9695   14.6251 H   0  0  0  0  0  0  0  0  0  0  0  0
   -4.3464    4.5665   14.9408 C   0  0  0  0  0  0  0  0  0  0  0  0
   -5.7673    4.5153   15.1818 C   0  0  0  0  0  0  0  0  0  0  0  0
   -6.2992    3.4071   15.8729 C   0  0  0  0  0  0  0  0  0  0  0  0
   -5.4763    2.3195   16.2591 C   0  0  0  0  0  0  0  0  0  0  0  0
   -4.0827    2.4588   16.0199 C   0  0  0  0  0  0  0  0  0  0  0  0
   -3.5197    3.5476   15.3494 C   0  0  0  0  0  0  0  0  0  0  0  0
   -6.1110    1.0778   17.1057 S   0  0  0  0  0  0  0  0  0  0  0  0
   -5.6512   -0.1872   16.6554 O   0  0  0  0  0  0  0  0  0  0  0  0
   -5.6802    1.3540   18.4519 O   0  0  0  0  0  0  0  0  0  0  0  0
   -7.5324    1.1891   16.8659 N   0  0  0  0  0  0  0  0  0  0  0  0
   -8.0204    0.4435   17.3623 H   0  0  0  0  0  0  0  0  0  0  0  0
   -7.7158    1.1083   15.8658 H   0  0  0  0  0  0  0  0  0  0  0  0
   -1.6744    6.7067   13.4544 C   0  0  0  0  0  0  0  0  0  0  0  0
   -0.6295    6.2010   12.5142 C   0  0  0  0  0  0  0  0  0  0  0  0
   -1.1470    6.2898   11.1525 O   0  0  0  0  0  0  0  0  0  0  0  0
   -1.2676    4.9440   10.6003 C   0  0  0  0  0  0  0  0  0  0  0  0
   -1.0482    3.9690   11.6993 C   0  0  0  0  0  0  0  0  0  0  0  0
   -2.2709    3.3013   12.0611 O   0  0  0  0  0  0  0  0  0  0  0  0
   -3.2236    3.6053   11.0488 C   0  0  0  0  0  0  0  0  0  0  0  0
   -4.5483    3.2047   11.4575 C   0  0  0  0  0  0  0  0  0  0  0  0
   -4.4475    2.0690   12.3594 N   0  0  0  0  0  0  0  0  0  0  0  0
   -4.6815    0.8235   11.6471 C   0  0  0  0  0  0  0  0  0  0  0  0
   -5.1351    0.8570   10.5167 O   0  0  0  0  0  0  0  0  0  0  0  0
   -4.2481    2.1344   13.3213 H   0  0  0  0  0  0  0  0  0  0  0  0
   -4.2933   -0.5014   12.3703 C   0  0  0  0  0  0  0  0  0  0  0  0
   -4.3537   -0.1862   13.8450 N   0  0  0  0  0  0  0  0  0  0  0  0
   -3.7165    0.5821   14.0549 H   0  0  0  0  0  0  0  0  0  0  0  0
   -4.0805   -1.0104   14.3803 H   0  0  0  0  0  0  0  0  0  0  0  0
 11 12  2  0  0  0
 11 13  2  0  0  0
 11 14  1  0  0  0
 11  8  1  0  0  0
  5  6  2  0  0  0
  5 10  1  0  0  0
  5  1  1  0  0  0
  6  7  1  0  0  0
  7  8  2  0  0  0
  8  9  1  0  0  0
  9 10  2  0  0  0
  1  2  2  0  0  0
  1  3  1  0  0  0
  3 17  1  0  0  0
 17 18  1  0  0  0
 18 19  1  0  0  0
 19 20  1  0  0  0
 20 21  1  0  0  0
 21 22  1  0  0  0
 22 23  1  0  0  0
 23 24  1  0  0  0
 24 25  1  0  0  0
 25 26  1  0  0  0
 26 27  2  0  0  0
 26 29  1  0  0  0
 29 30  1  0  0  0
 14 15  1  0  0  0
 14 16  1  0  0  0
  3  4  1  0  0  0
 25 28  1  0  0  0
 30 31  1  0  0  0
 30 32  1  0  0  0
M  END
> <minimizedAffinity>
-6.80399

$$$$
1CNW_EG1_A_555


 32 32  0  0  0  0  0  0  0  0999 V2000
   -4.1731    5.6990   14.1567 C   0  0  0  0  0  0  0  0  0  0  0  0
   -3.1922    6.3688   14.4250 O   0  0  0  0  0  0  0  0  0  0  0  0
   -4.8799    6.0561   13.1363 N   0  0  0  0  0  0  0  0  0  0  0  0
   -5.6490    5.4897   12.8977 H   0  0  0  0  0  0  0  0  0  0  0  0
   -4.6049    4.5370   14.8694 C   0  0  0  0  0  0  0  0  0  0  0  0
   -3.6556    3.5604   15.3434 C   0  0  0  0  0  0  0  0  0  0  0  0
   -4.1329    2.4355   16.0472 C   0  0  0  0  0  0  0  0  0  0  0  0
   -5.5085    2.2948   16.3592 C   0  0  0  0  0  0  0  0  0  0  0  0
   -6.3860    3.2778   15.8277 C   0  0  0  0  0  0  0  0  0  0  0  0
   -5.9497    4.3980   15.1160 C   0  0  0  0  0  0  0  0  0  0  0  0
   -6.0373    0.9557   17.1263 S   0  0  0  0  0  0  0  0  0  0  0  0
   -5.6705    0.9256   18.4970 O   0  0  0  0  0  0  0  0  0  0  0  0
   -7.4655    1.0323   16.9576 O   0  0  0  0  0  0  0  0  0  0  0  0
   -5.3792   -0.1244   16.4257 N   0  0  0  0  0  0  0  0  0  0  0  0
   -5.6525   -1.0152   16.8407 H   0  0  0  0  0  0  0  0  0  0  0  0
   -4.3681   -0.0111   16.4992 H   0  0  0  0  0  0  0  0  0  0  0  0
   -4.6273    7.2440   12.3001 C   0  0  0  0  0  0  0  0  0  0  0  0
   -4.6666    7.0395   10.8209 C   0  0  0  0  0  0  0  0  0  0  0  0
   -3.3757    6.5122   10.3899 O   0  0  0  0  0  0  0  0  0  0  0  0
   -2.3150    7.3785   10.8951 C   0  0  0  0  0  0  0  0  0  0  0  0
   -1.0085    6.7453   10.5815 C   0  0  0  0  0  0  0  0  0  0  0  0
   -1.1397    5.3207   10.4228 O   0  0  0  0  0  0  0  0  0  0  0  0
   -0.4367    4.7175   11.5029 C   0  0  0  0  0  0  0  0  0  0  0  0
   -1.3264    3.9135   12.3057 C   0  0  0  0  0  0  0  0  0  0  0  0
   -2.6155    3.8174   11.6404 N   0  0  0  0  0  0  0  0  0  0  0  0
   -3.3122    2.6059   12.0406 C   0  0  0  0  0  0  0  0  0  0  0  0
   -2.7082    1.7431   12.6535 O   0  0  0  0  0  0  0  0  0  0  0  0
   -2.9684    4.4819   11.0056 H   0  0  0  0  0  0  0  0  0  0  0  0
   -4.8272    2.4997   11.6905 C   0  0  0  0  0  0  0  0  0  0  0  0
   -4.8895    1.6868   10.4204 N   0  0  0  0  0  0  0  0  0  0  0  0
   -4.3455    2.1506    9.6929 H   0  0  0  0  0  0  0  0  0  0  0  0
   -5.8600    1.6027   10.1178 H   0  0  0  0  0  0  0  0  0  0  0  0
 11 12  2  0  0  0
 11 13  2  0  0  0
 11 14  1  0  0  0
 11  8  1  0  0  0
  5  6  2  0  0  0
  5 10  1  0  0  0
  5  1  1  0  0  0
  6  7  1  0  0  0
  7  8  2  0  0  0
  8  9  1  0  0  0
  9 10  2  0  0  0
  1  2  2  0  0  0
  1  3  1  0  0  0
  3 17  1  0  0  0
 17 18  1  0  0  0
 18 19  1  0  0  0
 19 20  1  0  0  0
 20 21  1  0  0  0
 21 22  1  0  0  0
 22 23  1  0  0  0
 23 24  1  0  0  0
 24 25  1  0  0  0
 25 26  1  0  0  0
 26 27  2  0  0  0
 26 29  1  0  0  0
 29 30  1  0  0  0
 14 15  1  0  0  0
 14 16  1  0  0  0
  3  4  1  0  0  0
 25 28  1  0  0  0
 30 31  1  0  0  0
 30 32  1  0  0  0
M  END
> <minimizedAffinity>
-6.69495

$$$$
1CNW_EG1_A_555


 32 32  0  0  0  0  0  0  0  0999 V2000
   -4.1073    5.7574   14.1736 C   0  0  0  0  0  0  0  0  0  0  0  0
   -4.3456    6.0179   13.0082 O   0  0  0  0  0  0  0  0  0  0  0  0
   -3.3590    6.5811   14.8292 N   0  0  0  0  0  0  0  0  0  0  0  0
   -3.2011    6.3893   15.7819 H   0  0  0  0  0  0  0  0  0  0  0  0
   -4.5981    4.6195   14.8869 C   0  0  0  0  0  0  0  0  0  0  0  0
   -6.0021    4.4774   15.1839 C   0  0  0  0  0  0  0  0  0  0  0  0
   -6.4355    3.3325   15.8839 C   0  0  0  0  0  0  0  0  0  0  0  0
   -5.5315    2.2955   16.2253 C   0  0  0  0  0  0  0  0  0  0  0  0
   -4.1601    2.5238   15.9320 C   0  0  0  0  0  0  0  0  0  0  0  0
   -3.6937    3.6510   15.2512 C   0  0  0  0  0  0  0  0  0  0  0  0
   -6.0528    1.0096   17.0832 S   0  0  0  0  0  0  0  0  0  0  0  0
   -5.6825    1.0745   18.4518 O   0  0  0  0  0  0  0  0  0  0  0  0
   -7.4817    1.0688   16.9137 O   0  0  0  0  0  0  0  0  0  0  0  0
   -5.3918   -0.1130   16.4561 N   0  0  0  0  0  0  0  0  0  0  0  0
   -5.6604   -0.9746   16.9315 H   0  0  0  0  0  0  0  0  0  0  0  0
   -4.3811    0.0090   16.5189 H   0  0  0  0  0  0  0  0  0  0  0  0
   -2.7222    7.7855   14.2654 C   0  0  0  0  0  0  0  0  0  0  0  0
   -1.4229    8.2008   14.8744 C   0  0  0  0  0  0  0  0  0  0  0  0
   -0.4510    8.4023   13.8044 O   0  0  0  0  0  0  0  0  0  0  0  0
   -1.0835    8.1004   12.5239 C   0  0  0  0  0  0  0  0  0  0  0  0
   -0.2800    7.0525   11.8438 C   0  0  0  0  0  0  0  0  0  0  0  0
   -0.3232    5.8072   12.5643 O   0  0  0  0  0  0  0  0  0  0  0  0
   -0.6878    4.7998   11.6279 C   0  0  0  0  0  0  0  0  0  0  0  0
   -1.4411    3.7516   12.2730 C   0  0  0  0  0  0  0  0  0  0  0  0
   -2.7826    3.7132   11.7140 N   0  0  0  0  0  0  0  0  0  0  0  0
   -3.4582    2.4794   12.0810 C   0  0  0  0  0  0  0  0  0  0  0  0
   -2.8155    1.5696   12.5751 O   0  0  0  0  0  0  0  0  0  0  0  0
   -3.1793    4.4255   11.1622 H   0  0  0  0  0  0  0  0  0  0  0  0
   -4.9984    2.4088   11.8535 C   0  0  0  0  0  0  0  0  0  0  0  0
   -5.2252    1.1677   11.0252 N   0  0  0  0  0  0  0  0  0  0  0  0
   -4.6982    1.2388   10.1548 H   0  0  0  0  0  0  0  0  0  0  0  0
   -6.2191    1.0766   10.8144 H   0  0  0  0  0  0  0  0  0  0  0  0
 11 12  2  0  0  0
 11 13  2  0  0  0
 11 14  1  0  0  0
 11  8  1  0  0  0
  5  6  2  0  0  0
  5 10  1  0  0  0
  5  1  1  0  0  0
  6  7  1  0  0  0
  7  8  2  0  0  0
  8  9  1  0  0  0
  9 10  2  0  0  0
  1  2  2  0  0  0
  1  3  1  0  0  0
  3 17  1  0  0  0
 17 18  1  0  0  0
 18 19  1  0  0  0
 19 20  1  0  0  0
 20 21  1  0  0  0
 21 22  1  0  0  0
 22 23  1  0  0  0
 23 24  1  0  0  0
 24 25  1  0  0  0
 25 26  1  0  0  0
 26 27  2  0  0  0
 26 29  1  0  0  0
 29 30  1  0  0  0
 14 15  1  0  0  0
 14 16  1  0  0  0
  3  4  1  0  0  0
 25 28  1  0  0  0
 30 31  1  0  0  0
 30 32  1  0  0  0
M  END
> <minimizedAffinity>
-6.61351

$$$$
1CNW_EG1_A_555


 32 32  0  0  0  0  0  0  0  0999 V2000
   -4.2748    5.7359   14.2009 C   0  0  0  0  0  0  0  0  0  0  0  0
   -3.7215    6.6991   14.6997 O   0  0  0  0  0  0  0  0  0  0  0  0
   -4.4977    5.7669   12.9291 N   0  0  0  0  0  0  0  0  0  0  0  0
   -4.9086    4.9702   12.5218 H   0  0  0  0  0  0  0  0  0  0  0  0
   -4.6891    4.5611   14.9029 C   0  0  0  0  0  0  0  0  0  0  0  0
   -3.7505    3.5115   15.2144 C   0  0  0  0  0  0  0  0  0  0  0  0
   -4.2088    2.3766   15.9148 C   0  0  0  0  0  0  0  0  0  0  0  0
   -5.5452    2.2917   16.3795 C   0  0  0  0  0  0  0  0  0  0  0  0
   -6.4189    3.3469   16.0029 C   0  0  0  0  0  0  0  0  0  0  0  0
   -6.0025    4.4798   15.2993 C   0  0  0  0  0  0  0  0  0  0  0  0
   -6.0599    0.9424   17.1384 S   0  0  0  0  0  0  0  0  0  0  0  0
   -5.5307   -0.2451   16.5690 O   0  0  0  0  0  0  0  0  0  0  0  0
   -5.5987    1.1381   18.4887 O   0  0  0  0  0  0  0  0  0  0  0  0
   -7.4936    0.9698   16.9542 N   0  0  0  0  0  0  0  0  0  0  0  0
   -7.9096    0.1529   17.4015 H   0  0  0  0  0  0  0  0  0  0  0  0
   -7.7086    0.9580   15.9572 H   0  0  0  0  0  0  0  0  0  0  0  0
   -4.1863    6.8997   12.0381 C   0  0  0  0  0  0  0  0  0  0  0  0
   -4.5434    6.7333   10.5971 C   0  0  0  0  0  0  0  0  0  0  0  0
   -4.6570    5.3073   10.3079 O   0  0  0  0  0  0  0  0  0  0  0  0
   -3.6705    4.9471    9.2941 C   0  0  0  0  0  0  0  0  0  0  0  0
   -2.3986    4.6084    9.9825 C   0  0  0  0  0  0  0  0  0  0  0  0
   -2.6294    3.7716   11.1307 O   0  0  0  0  0  0  0  0  0  0  0  0
   -1.5273    3.9627   12.0102 C   0  0  0  0  0  0  0  0  0  0  0  0
   -0.3339    4.2929   11.2691 C   0  0  0  0  0  0  0  0  0  0  0  0
    0.6217    4.9300   12.1605 N   0  0  0  0  0  0  0  0  0  0  0  0
    1.9761    4.7829   11.6533 C   0  0  0  0  0  0  0  0  0  0  0  0
    2.1917    4.0061   10.7396 O   0  0  0  0  0  0  0  0  0  0  0  0
    0.3839    5.3972   12.9938 H   0  0  0  0  0  0  0  0  0  0  0  0
    3.0834    5.6735   12.2935 C   0  0  0  0  0  0  0  0  0  0  0  0
    4.0407    4.7113   12.9533 N   0  0  0  0  0  0  0  0  0  0  0  0
    3.5380    4.1484   13.6395 H   0  0  0  0  0  0  0  0  0  0  0  0
    4.7813    5.2349   13.4200 H   0  0  0  0  0  0  0  0  0  0  0  0
 11 12  2  0  0  0
 11 13  2  0  0  0
 11 14  1  0  0  0
 11  8  1  0  0  0
  5  6  2  0  0  0
  5 10  1  0  0  0
  5  1  1  0  0  0
  6  7  1  0  0  0
  7  8  2  0  0  0
  8  9  1  0  0  0
  9 10  2  0  0  0
  1  2  2  0  0  0
  1  3  1  0  0  0
  3 17  1  0  0  0
 17 18  1  0  0  0
 18 19  1  0  0  0
 19 20  1  0  0  0
 20 21  1  0  0  0
 21 22  1  0  0  0
 22 23  1  0  0  0
 23 24  1  0  0  0
 24 25  1  0  0  0
 25 26  1  0  0  0
 26 27  2  0  0  0
 26 29  1  0  0  0
 29 30  1  0  0  0
 14 15  1  0  0  0
 14 16  1  0  0  0
  3  4  1  0  0  0
 25 28  1  0  0  0
 30 31  1  0  0  0
 30 32  1  0  0  0
M  END
> <minimizedAffinity>
-6.43768

$$$$
1CNW_EG1_A_555


 32 32  0  0  0  0  0  0  0  0999 V2000
   -4.3622    5.7416   14.0702 C   0  0  0  0  0  0  0  0  0  0  0  0
   -5.0236    6.2742   13.1975 O   0  0  0  0  0  0  0  0  0  0  0  0
   -3.2379    6.2920   14.3881 N   0  0  0  0  0  0  0  0  0  0  0  0
   -2.7246    5.8823   15.1215 H   0  0  0  0  0  0  0  0  0  0  0  0
   -4.7312    4.5607   14.7872 C   0  0  0  0  0  0  0  0  0  0  0  0
   -3.7507    3.5576   15.1219 C   0  0  0  0  0  0  0  0  0  0  0  0
   -4.1653    2.4146   15.8362 C   0  0  0  0  0  0  0  0  0  0  0  0
   -5.5006    2.2788   16.2920 C   0  0  0  0  0  0  0  0  0  0  0  0
   -6.4160    3.2894   15.8924 C   0  0  0  0  0  0  0  0  0  0  0  0
   -6.0430    4.4285   15.1746 C   0  0  0  0  0  0  0  0  0  0  0  0
   -5.9627    0.9201   17.0676 S   0  0  0  0  0  0  0  0  0  0  0  0
   -5.5452    0.8916   18.4238 O   0  0  0  0  0  0  0  0  0  0  0  0
   -7.3978    0.9568   16.9518 O   0  0  0  0  0  0  0  0  0  0  0  0
   -5.3004   -0.1361   16.3354 N   0  0  0  0  0  0  0  0  0  0  0  0
   -5.5329   -1.0371   16.7533 H   0  0  0  0  0  0  0  0  0  0  0  0
   -4.2909    0.0056   16.3728 H   0  0  0  0  0  0  0  0  0  0  0  0
   -2.6614    7.4847   13.7406 C   0  0  0  0  0  0  0  0  0  0  0  0
   -1.2361    7.3843   13.3047 C   0  0  0  0  0  0  0  0  0  0  0  0
   -0.8691    5.9733   13.2360 O   0  0  0  0  0  0  0  0  0  0  0  0
   -0.1775    5.7223   11.9753 C   0  0  0  0  0  0  0  0  0  0  0  0
   -1.1921    5.3629   10.9517 C   0  0  0  0  0  0  0  0  0  0  0  0
   -1.6004    3.9882   11.0768 O   0  0  0  0  0  0  0  0  0  0  0  0
   -3.0135    3.9898   11.2427 C   0  0  0  0  0  0  0  0  0  0  0  0
   -3.6706    4.3894   10.0217 C   0  0  0  0  0  0  0  0  0  0  0  0
   -4.9337    5.0318   10.3465 N   0  0  0  0  0  0  0  0  0  0  0  0
   -5.0683    6.2922    9.6347 C   0  0  0  0  0  0  0  0  0  0  0  0
   -4.0983    6.7671    9.0705 O   0  0  0  0  0  0  0  0  0  0  0  0
   -5.6061    4.6635   10.9642 H   0  0  0  0  0  0  0  0  0  0  0  0
   -6.4802    6.9512    9.6018 C   0  0  0  0  0  0  0  0  0  0  0  0
   -6.8218    7.2407   11.0431 N   0  0  0  0  0  0  0  0  0  0  0  0
   -6.8013    6.3726   11.5783 H   0  0  0  0  0  0  0  0  0  0  0  0
   -7.7543    7.6506   11.0958 H   0  0  0  0  0  0  0  0  0  0  0  0
 11 12  2  0  0  0
 11 13  2  0  0  0
 11 14  1  0  0  0
 11  8  1  0  0  0
  5  6  2  0  0  0
  5 10  1  0  0  0
  5  1  1  0  0  0
  6  7  1  0  0  0
  7  8  2  0  0  0
  8  9  1  0  0  0
  9 10  2  0  0  0
  1  2  2  0  0  0
  1  3  1  0  0  0
  3 17  1  0  0  0
 17 18  1  0  0  0
 18 19  1  0  0  0
 19 20  1  0  0  0
 20 21  1  0  0  0
 21 22  1  0  0  0
 22 23  1  0  0  0
 23 24  1  0  0  0
 24 25  1  0  0  0
 25 26  1  0  0  0
 26 27  2  0  0  0
 26 29  1  0  0  0
 29 30  1  0  0  0
 14 15  1  0  0  0
 14 16  1  0  0  0
  3  4  1  0  0  0
 25 28  1  0  0  0
 30 31  1  0  0  0
 30 32  1  0  0  0
M  END
> <minimizedAffinity>
-6.30729

$$$$
1CNW_EG1_A_555


 32 32  0  0  0  0  0  0  0  0999 V2000
   -4.3124    5.8772   14.2571 C   0  0  0  0  0  0  0  0  0  0  0  0
   -3.4700    6.6619   14.6540 O   0  0  0  0  0  0  0  0  0  0  0  0
   -4.8858    6.1356   13.1290 N   0  0  0  0  0  0  0  0  0  0  0  0
   -5.5370    5.4790   12.7913 H   0  0  0  0  0  0  0  0  0  0  0  0
   -4.7140    4.6806   14.9291 C   0  0  0  0  0  0  0  0  0  0  0  0
   -6.0958    4.4477   15.2699 C   0  0  0  0  0  0  0  0  0  0  0  0
   -6.4402    3.2480   15.9262 C   0  0  0  0  0  0  0  0  0  0  0  0
   -5.4700    2.2465   16.1809 C   0  0  0  0  0  0  0  0  0  0  0  0
   -4.1252    2.5634   15.8494 C   0  0  0  0  0  0  0  0  0  0  0  0
   -3.7461    3.7464   15.2101 C   0  0  0  0  0  0  0  0  0  0  0  0
   -5.8885    0.8937   16.9909 S   0  0  0  0  0  0  0  0  0  0  0  0
   -5.4215    0.8880   18.3311 O   0  0  0  0  0  0  0  0  0  0  0  0
   -7.3271    0.9137   16.9272 O   0  0  0  0  0  0  0  0  0  0  0  0
   -5.2417   -0.1653   16.2489 N   0  0  0  0  0  0  0  0  0  0  0  0
   -5.4490   -1.0629   16.6869 H   0  0  0  0  0  0  0  0  0  0  0  0
   -4.2332   -0.0126   16.2474 H   0  0  0  0  0  0  0  0  0  0  0  0
   -4.6434    7.3351   12.3065 C   0  0  0  0  0  0  0  0  0  0  0  0
   -4.8995    7.2023   10.8408 C   0  0  0  0  0  0  0  0  0  0  0  0
   -3.7413    7.7180   10.1178 O   0  0  0  0  0  0  0  0  0  0  0  0
   -2.9188    6.5965    9.6745 C   0  0  0  0  0  0  0  0  0  0  0  0
   -3.8204    5.5304    9.1676 C   0  0  0  0  0  0  0  0  0  0  0  0
   -3.2480    4.2236    9.3588 O   0  0  0  0  0  0  0  0  0  0  0  0
   -2.2794    4.3435   10.3941 C   0  0  0  0  0  0  0  0  0  0  0  0
   -2.8838    4.1263   11.6864 C   0  0  0  0  0  0  0  0  0  0  0  0
   -3.0070    2.6971   11.9225 N   0  0  0  0  0  0  0  0  0  0  0  0
   -4.4044    2.2966   11.9394 C   0  0  0  0  0  0  0  0  0  0  0  0
   -5.2712    3.1516   11.9894 O   0  0  0  0  0  0  0  0  0  0  0  0
   -2.2478    2.0841   12.0532 H   0  0  0  0  0  0  0  0  0  0  0  0
   -4.7158    0.7721   11.8501 C   0  0  0  0  0  0  0  0  0  0  0  0
   -4.3896    0.2153   13.2144 N   0  0  0  0  0  0  0  0  0  0  0  0
   -3.4129    0.4087   13.4359 H   0  0  0  0  0  0  0  0  0  0  0  0
   -4.5455   -0.7927   13.2164 H   0  0  0  0  0  0  0  0  0  0  0  0
 11 12  2  0  0  0
 11 13  2  0  0  0
 11 14  1  0  0  0
 11  8  1  0  0  0
  5  6  2  0  0  0
  5 10  1  0  0  0
  5  1  1  0  0  0
  6  7  1  0  0  0
  7  8  2  0  0  0
  8  9  1  0  0  0
  9 10  2  0  0  0
  1  2  2  0  0  0
  1  3  1  0  0  0
  3 17  1  0  0  0
 17 18  1  0  0  0
 18 19  1  0  0  0
 19 20  1  0  0  0
 20 21  1  0  0  0
 21 22  1  0  0  0
 22 23  1  0  0  0
 23 24  1  0  0  0
 24 25  1  0  0  0
 25 26  1  0  0  0
 26 27  2  0  0  0
 26 29  1  0  0  0
 29 30  1  0  0  0
 14 15  1  0  0  0
 14 16  1  0  0  0
  3  4  1  0  0  0
 25 28  1  0  0  0
 30 31  1  0  0  0
 30 32  1  0  0  0
M  END
> <minimizedAffinity>
-6.10804

$$$$
1CNW_EG1_A_555


 32 32  0  0  0  0  0  0  0  0999 V2000
   -4.4122    5.7638   14.1861 C   0  0  0  0  0  0  0  0  0  0  0  0
   -3.6787    6.6276   14.6318 O   0  0  0  0  0  0  0  0  0  0  0  0
   -4.8869    5.9376   12.9975 N   0  0  0  0  0  0  0  0  0  0  0  0
   -5.4468    5.2191   12.6241 H   0  0  0  0  0  0  0  0  0  0  0  0
   -4.7846    4.5606   14.8630 C   0  0  0  0  0  0  0  0  0  0  0  0
   -3.8047    3.5494   15.1746 C   0  0  0  0  0  0  0  0  0  0  0  0
   -4.2228    2.3841   15.8498 C   0  0  0  0  0  0  0  0  0  0  0  0
   -5.5615    2.2319   16.2902 C   0  0  0  0  0  0  0  0  0  0  0  0
   -6.4757    3.2527   15.9145 C   0  0  0  0  0  0  0  0  0  0  0  0
   -6.0992    4.4141   15.2354 C   0  0  0  0  0  0  0  0  0  0  0  0
   -6.0271    0.8490   17.0196 S   0  0  0  0  0  0  0  0  0  0  0  0
   -7.4282    0.6335   16.9476 O   0  0  0  0  0  0  0  0  0  0  0  0
   -5.2946   -0.1579   16.2959 O   0  0  0  0  0  0  0  0  0  0  0  0
   -5.6374    1.0395   18.3988 N   0  0  0  0  0  0  0  0  0  0  0  0
   -5.8918    0.2140   18.9412 H   0  0  0  0  0  0  0  0  0  0  0  0
   -6.1166    1.8563   18.7778 H   0  0  0  0  0  0  0  0  0  0  0  0
   -4.6574    7.1258   12.1550 C   0  0  0  0  0  0  0  0  0  0  0  0
   -4.8187    6.9405   10.6815 C   0  0  0  0  0  0  0  0  0  0  0  0
   -4.7992    5.5110   10.3878 O   0  0  0  0  0  0  0  0  0  0  0  0
   -3.7944    5.2496    9.3617 C   0  0  0  0  0  0  0  0  0  0  0  0
   -2.6329    4.5854   10.0067 C   0  0  0  0  0  0  0  0  0  0  0  0
   -2.9608    4.1213   11.3291 O   0  0  0  0  0  0  0  0  0  0  0  0
   -1.7756    4.2245   12.1096 C   0  0  0  0  0  0  0  0  0  0  0  0
   -1.0387    5.4161   11.7639 C   0  0  0  0  0  0  0  0  0  0  0  0
   -1.1769    6.3910   12.8335 N   0  0  0  0  0  0  0  0  0  0  0  0
   -0.1351    7.4012   12.7471 C   0  0  0  0  0  0  0  0  0  0  0  0
    0.8117    7.2219   12.0013 O   0  0  0  0  0  0  0  0  0  0  0  0
   -1.8799    6.3699   13.5223 H   0  0  0  0  0  0  0  0  0  0  0  0
   -0.3158    8.6940   13.5986 C   0  0  0  0  0  0  0  0  0  0  0  0
   -1.2562    8.3109   14.7151 N   0  0  0  0  0  0  0  0  0  0  0  0
   -2.1326    7.9703   14.3197 H   0  0  0  0  0  0  0  0  0  0  0  0
   -1.4410    9.1266   15.2990 H   0  0  0  0  0  0  0  0  0  0  0  0
 11 12  2  0  0  0
 11 13  2  0  0  0
 11 14  1  0  0  0
 11  8  1  0  0  0
  5  6  2  0  0  0
  5 10  1  0  0  0
  5  1  1  0  0  0
  6  7  1  0  0  0
  7  8  2  0  0  0
  8  9  1  0  0  0
  9 10  2  0  0  0
  1  2  2  0  0  0
  1  3  1  0  0  0
  3 17  1  0  0  0
 17 18  1  0  0  0
 18 19  1  0  0  0
 19 20  1  0  0  0
 20 21  1  0  0  0
 21 22  1  0  0  0
 22 23  1  0  0  0
 23 24  1  0  0  0
 24 25  1  0  0  0
 25 26  1  0  0  0
 26 27  2  0  0  0
 26 29  1  0  0  0
 29 30  1  0  0  0
 14 15  1  0  0  0
 14 16  1  0  0  0
  3  4  1  0  0  0
 25 28  1  0  0  0
 30 31  1  0  0  0
 30 32  1  0  0  0
M  END
> <minimizedAffinity>
-6.04489

$$$$
1CNW_EG1_A_555


 32 32  0  0  0  0  0  0  0  0999 V2000
   -4.3582    5.7799   14.3128 C   0  0  0  0  0  0  0  0  0  0  0  0
   -3.7074    6.6722   14.8256 O   0  0  0  0  0  0  0  0  0  0  0  0
   -4.7372    5.9440   13.0890 N   0  0  0  0  0  0  0  0  0  0  0  0
   -5.2284    5.2041   12.6641 H   0  0  0  0  0  0  0  0  0  0  0  0
   -4.7296    4.5535   14.9473 C   0  0  0  0  0  0  0  0  0  0  0  0
   -3.7480    3.5349   15.2279 C   0  0  0  0  0  0  0  0  0  0  0  0
   -4.1652    2.3463   15.8617 C   0  0  0  0  0  0  0  0  0  0  0  0
   -5.5050    2.1756   16.2919 C   0  0  0  0  0  0  0  0  0  0  0  0
   -6.4206    3.2062   15.9479 C   0  0  0  0  0  0  0  0  0  0  0  0
   -6.0451    4.3910   15.3099 C   0  0  0  0  0  0  0  0  0  0  0  0
   -5.9692    0.7676   16.9725 S   0  0  0  0  0  0  0  0  0  0  0  0
   -7.3746    0.5732   16.9308 O   0  0  0  0  0  0  0  0  0  0  0  0
   -5.2711   -0.2152   16.1845 O   0  0  0  0  0  0  0  0  0  0  0  0
   -5.5387    0.8916   18.3471 N   0  0  0  0  0  0  0  0  0  0  0  0
   -5.7894    0.0460   18.8595 H   0  0  0  0  0  0  0  0  0  0  0  0
   -5.9959    1.6966   18.7753 H   0  0  0  0  0  0  0  0  0  0  0  0
   -4.4932    7.1505   12.2773 C   0  0  0  0  0  0  0  0  0  0  0  0
   -5.5777    7.5482   11.3300 C   0  0  0  0  0  0  0  0  0  0  0  0
   -4.9839    7.7918   10.0192 O   0  0  0  0  0  0  0  0  0  0  0  0
   -3.5917    8.1937   10.1946 C   0  0  0  0  0  0  0  0  0  0  0  0
   -2.9674    8.3065    8.8515 C   0  0  0  0  0  0  0  0  0  0  0  0
   -1.7046    7.6176    8.7997 O   0  0  0  0  0  0  0  0  0  0  0  0
   -0.8980    8.1532    9.8423 C   0  0  0  0  0  0  0  0  0  0  0  0
   -0.0756    7.1242   10.4315 C   0  0  0  0  0  0  0  0  0  0  0  0
   -0.8069    6.4902   11.5163 N   0  0  0  0  0  0  0  0  0  0  0  0
   -1.0572    5.0894   11.2188 C   0  0  0  0  0  0  0  0  0  0  0  0
   -0.8614    4.6732   10.0904 O   0  0  0  0  0  0  0  0  0  0  0  0
   -1.0935    6.9471   12.3399 H   0  0  0  0  0  0  0  0  0  0  0  0
   -1.5308    4.1794   12.3921 C   0  0  0  0  0  0  0  0  0  0  0  0
   -0.6776    2.9374   12.3063 N   0  0  0  0  0  0  0  0  0  0  0  0
   -0.8010    2.5026   11.3919 H   0  0  0  0  0  0  0  0  0  0  0  0
   -0.9578    2.2814   13.0354 H   0  0  0  0  0  0  0  0  0  0  0  0
 11 12  2  0  0  0
 11 13  2  0  0  0
 11 14  1  0  0  0
 11  8  1  0  0  0
  5  6  2  0  0  0
  5 10  1  0  0  0
  5  1  1  0  0  0
  6  7  1  0  0  0
  7  8  2  0  0  0
  8  9  1  0  0  0
  9 10  2  0  0  0
  1  2  2  0  0  0
  1  3  1  0  0  0
  3 17  1  0  0  0
 17 18  1  0  0  0
 18 19  1  0  0  0
 19 20  1  0  0  0
 20 21  1  0  0  0
 21 22  1  0  0  0
 22 23  1  0  0  0
 23 24  1  0  0  0
 24 25  1  0  0  0
 25 26  1  0  0  0
 26 27  2  0  0  0
 26 29  1  0  0  0
 29 30  1  0  0  0
 14 15  1  0  0  0
 14 16  1  0  0  0
  3  4  1  0  0  0
 25 28  1  0  0  0
 30 31  1  0  0  0
 30 32  1  0  0  0
M  END
> <minimizedAffinity>
-5.49743

$$$$
1CNW_EG1_A_555


 32 32  0  0  0  0  0  0  0  0999 V2000
   -4.2987    5.7608   14.1649 C   0  0  0  0  0  0  0  0  0  0  0  0
   -4.8250    6.1948   13.1563 O   0  0  0  0  0  0  0  0  0  0  0  0
   -3.3112    6.4304   14.6595 N   0  0  0  0  0  0  0  0  0  0  0  0
   -2.9139    6.0991   15.4972 H   0  0  0  0  0  0  0  0  0  0  0  0
   -4.6904    4.5745   14.8607 C   0  0  0  0  0  0  0  0  0  0  0  0
   -3.7313    3.5426   15.1688 C   0  0  0  0  0  0  0  0  0  0  0  0
   -4.1678    2.3954   15.8631 C   0  0  0  0  0  0  0  0  0  0  0  0
   -5.5030    2.2813   16.3251 C   0  0  0  0  0  0  0  0  0  0  0  0
   -6.3972    3.3205   15.9519 C   0  0  0  0  0  0  0  0  0  0  0  0
   -6.0025    4.4649   15.2544 C   0  0  0  0  0  0  0  0  0  0  0  0
   -5.9916    0.9184   17.0767 S   0  0  0  0  0  0  0  0  0  0  0  0
   -5.6001    0.8713   18.4401 O   0  0  0  0  0  0  0  0  0  0  0  0
   -7.4238    0.9692   16.9342 O   0  0  0  0  0  0  0  0  0  0  0  0
   -5.3247   -0.1356   16.3454 N   0  0  0  0  0  0  0  0  0  0  0  0
   -5.5730   -1.0389   16.7487 H   0  0  0  0  0  0  0  0  0  0  0  0
   -4.3150   -0.0034   16.4034 H   0  0  0  0  0  0  0  0  0  0  0  0
   -2.7312    7.6513   14.0703 C   0  0  0  0  0  0  0  0  0  0  0  0
   -2.0054    8.5634   15.0045 C   0  0  0  0  0  0  0  0  0  0  0  0
   -0.6144    8.6598   14.5734 O   0  0  0  0  0  0  0  0  0  0  0  0
   -0.5753    8.8097   13.1219 C   0  0  0  0  0  0  0  0  0  0  0  0
    0.6469    8.1330   12.6172 C   0  0  0  0  0  0  0  0  0  0  0  0
    1.2548    8.8770   11.5455 O   0  0  0  0  0  0  0  0  0  0  0  0
    2.4877    8.2344   11.2429 C   0  0  0  0  0  0  0  0  0  0  0  0
    2.4137    6.8236   11.5370 C   0  0  0  0  0  0  0  0  0  0  0  0
    2.4646    6.0725   10.2932 N   0  0  0  0  0  0  0  0  0  0  0  0
    2.3594    4.6453   10.5489 C   0  0  0  0  0  0  0  0  0  0  0  0
    2.4698    4.2323   11.6900 O   0  0  0  0  0  0  0  0  0  0  0  0
    2.5576    6.4755    9.3998 H   0  0  0  0  0  0  0  0  0  0  0  0
    2.0662    3.7173    9.3317 C   0  0  0  0  0  0  0  0  0  0  0  0
    3.4033    3.1393    8.9364 N   0  0  0  0  0  0  0  0  0  0  0  0
    4.0481    3.8970    8.7117 H   0  0  0  0  0  0  0  0  0  0  0  0
    3.2863    2.5391    8.1201 H   0  0  0  0  0  0  0  0  0  0  0  0
 11 12  2  0  0  0
 11 13  2  0  0  0
 11 14  1  0  0  0
 11  8  1  0  0  0
  5  6  2  0  0  0
  5 10  1  0  0  0
  5  1  1  0  0  0
  6  7  1  0  0  0
  7  8  2  0  0  0
  8  9  1  0  0  0
  9 10  2  0  0  0
  1  2  2  0  0  0
  1  3  1  0  0  0
  3 17  1  0  0  0
 17 18  1  0  0  0
 18 19  1  0  0  0
 19 20  1  0  0  0
 20 21  1  0  0  0
 21 22  1  0  0  0
 22 23  1  0  0  0
 23 24  1  0  0  0
 24 25  1  0  0  0
 25 26  1  0  0  0
 26 27  2  0  0  0
 26 29  1  0  0  0
 29 30  1  0  0  0
 14 15  1  0  0  0
 14 16  1  0  0  0
  3  4  1  0  0  0
 25 28  1  0  0  0
 30 31  1  0  0  0
 30 32  1  0  0  0
M  END
> <minimizedAffinity>
-5.42925

$$$$
1CNW_EG1_A_555


 32 32  0  0  0  0  0  0  0  0999 V2000
   -2.1820    4.9601   11.6773 C   0  0  0  0  0  0  0  0  0  0  0  0
   -2.8352    4.0448   12.1447 O   0  0  0  0  0  0  0  0  0  0  0  0
   -2.8269    5.9372   11.1320 N   0  0  0  0  0  0  0  0  0  0  0  0
   -2.2981    6.6945   10.7911 H   0  0  0  0  0  0  0  0  0  0  0  0
   -0.7552    5.0536   11.6923 C   0  0  0  0  0  0  0  0  0  0  0  0
    0.0644    4.0008   11.1452 C   0  0  0  0  0  0  0  0  0  0  0  0
    1.4668    4.1453   11.1784 C   0  0  0  0  0  0  0  0  0  0  0  0
    2.0706    5.3319   11.6648 C   0  0  0  0  0  0  0  0  0  0  0  0
    1.2003    6.3082   12.2200 C   0  0  0  0  0  0  0  0  0  0  0  0
   -0.1920    6.1929   12.2152 C   0  0  0  0  0  0  0  0  0  0  0  0
    3.6961    5.4468   11.7414 S   0  0  0  0  0  0  0  0  0  0  0  0
    4.3446    4.8151   10.6484 O   0  0  0  0  0  0  0  0  0  0  0  0
    3.9174    6.8699   11.7430 O   0  0  0  0  0  0  0  0  0  0  0  0
    4.0322    4.7576   12.9671 N   0  0  0  0  0  0  0  0  0  0  0  0
    5.0430    4.7775   13.1022 H   0  0  0  0  0  0  0  0  0  0  0  0
    3.7157    3.7895   12.9106 H   0  0  0  0  0  0  0  0  0  0  0  0
   -4.2917    6.0096   10.9788 C   0  0  0  0  0  0  0  0  0  0  0  0
   -5.0385    6.7449   12.0434 C   0  0  0  0  0  0  0  0  0  0  0  0
   -5.6637    5.7695   12.9309 O   0  0  0  0  0  0  0  0  0  0  0  0
   -5.0615    5.8773   14.2562 C   0  0  0  0  0  0  0  0  0  0  0  0
   -5.9522    5.1938   15.2288 C   0  0  0  0  0  0  0  0  0  0  0  0
   -6.3627    3.9011   14.7467 O   0  0  0  0  0  0  0  0  0  0  0  0
   -6.3993    3.0321   15.8728 C   0  0  0  0  0  0  0  0  0  0  0  0
   -5.1019    2.4459   16.1078 C   0  0  0  0  0  0  0  0  0  0  0  0
   -4.4860    2.1202   14.8318 N   0  0  0  0  0  0  0  0  0  0  0  0
   -4.4401    0.6806   14.6348 C   0  0  0  0  0  0  0  0  0  0  0  0
   -4.6798   -0.0595   15.5727 O   0  0  0  0  0  0  0  0  0  0  0  0
   -4.1464    2.7839   14.1888 H   0  0  0  0  0  0  0  0  0  0  0  0
   -4.1208    0.1617   13.2003 C   0  0  0  0  0  0  0  0  0  0  0  0
   -3.2821    1.2411   12.5605 N   0  0  0  0  0  0  0  0  0  0  0  0
   -3.8015    2.1190   12.5587 H   0  0  0  0  0  0  0  0  0  0  0  0
   -3.0602    0.9754   11.6011 H   0  0  0  0  0  0  0  0  0  0  0  0
 11 12  2  0  0  0
 11 13  2  0  0  0
 11 14  1  0  0  0
 11  8  1  0  0  0
  5  6  2  0  0  0
  5 10  1  0  0  0
  5  1  1  0  0  0
  6  7  1  0  0  0
  7  8  2  0  0  0
  8  9  1  0  0  0
  9 10  2  0  0  0
  1  2  2  0  0  0
  1  3  1  0  0  0
  3 17  1  0  0  0
 17 18  1  0  0  0
 18 19  1  0  0  0
 19 20  1  0  0  0
 20 21  1  0  0  0
 21 22  1  0  0  0
 22 23  1  0  0  0
 23 24  1  0  0  0
 24 25  1  0  0  0
 25 26  1  0  0  0
 26 27  2  0  0  0
 26 29  1  0  0  0
 29 30  1  0  0  0
 14 15  1  0  0  0
 14 16  1  0  0  0
  3  4  1  0  0  0
 25 28  1  0  0  0
 30 31  1  0  0  0
 30 32  1  0  0  0
M  END
> <minimizedAffinity>
-5.40677

$$$$
