1PPK_IVV_E_700


 39 38  0  0  0  0  0  0  0  0999 V2000
   19.6179    8.1106   21.2841 C   0  0  0  0  0  0  0  0  0  0  0  0
   19.2424    6.8098   19.2845 C   0  0  0  0  0  0  0  0  0  0  0  0
   18.7744    7.7872   18.6105 O   0  0  0  0  0  0  0  0  0  0  0  0
   19.6921    6.8431   20.5436 N   0  0  0  0  0  0  0  0  0  0  0  0
   20.0650    6.0356   20.9656 H   0  0  0  0  0  0  0  0  0  0  0  0
   19.4685    5.4659   18.6233 C   0  0  0  0  0  0  0  0  0  0  0  0
   21.6295    4.9597   17.7029 C   0  0  0  0  0  0  0  0  0  0  0  0
   21.1817    5.1883   16.5678 O   0  0  0  0  0  0  0  0  0  0  0  0
   20.9136    5.0724   18.8015 N   0  0  0  0  0  0  0  0  0  0  0  0
   21.3006    4.9087   19.6919 H   0  0  0  0  0  0  0  0  0  0  0  0
   23.1026    4.4780   17.7944 C   0  0  0  0  0  0  0  0  0  0  0  0
   23.1817    3.1670   18.5397 C   0  0  0  0  0  0  0  0  0  0  0  0
   23.9670    3.2652   19.8351 C   0  0  0  0  0  0  0  0  0  0  0  0
   24.1118    2.3804   17.6459 C   0  0  0  0  0  0  0  0  0  0  0  0
   18.6529    4.3466   19.3056 C   0  0  0  0  0  0  0  0  0  0  0  0
   17.2926    4.2198   18.5788 C   0  0  0  0  0  0  0  0  0  0  0  0
   19.3403    2.9874   19.1077 C   0  0  0  0  0  0  0  0  0  0  0  0
   21.0980    8.3970   21.7173 C   0  0  0  0  0  0  0  0  0  0  0  0
   21.4811    7.9296   22.7827 O   0  0  0  0  0  0  0  0  0  0  0  0
   21.8220    9.1218   20.8347 N   0  0  0  0  0  0  0  0  0  0  0  0
   21.4053    9.4038   19.9884 H   0  0  0  0  0  0  0  0  0  0  0  0
   23.1902    9.4918   21.1032 C   0  0  0  0  0  0  0  0  0  0  0  0
   23.2060   11.1820   21.7810 P   0  0  0  0  0  0  0  0  0  0  0  0
   22.1203   11.9134   21.0660 O   0  0  0  0  0  0  0  0  0  0  0  0
   24.5737   11.7300   21.5003 O   0  0  0  0  0  0  0  0  0  0  0  0
   24.7184   11.7629   20.5418 H   0  0  0  0  0  0  0  0  0  0  0  0
   22.8739   11.0947   23.5417 C   0  0  0  0  0  0  0  0  0  0  0  0
   24.5715   11.3920   25.2376 O   0  0  0  0  0  0  0  0  0  0  0  0
   23.8006   11.9286   24.4181 C   0  0  0  0  0  0  0  0  0  0  0  0
   24.0350   13.3015   24.1381 O   0  0  0  0  0  0  0  0  0  0  0  0
   22.9423   14.1949   24.0534 C   0  0  0  0  0  0  0  0  0  0  0  0
   22.3853   14.4394   25.4383 C   0  0  0  0  0  0  0  0  0  0  0  0
   24.0300    9.3472   19.7764 C   0  0  0  0  0  0  0  0  0  0  0  0
   24.0388    7.8675   19.2202 C   0  0  0  0  0  0  0  0  0  0  0  0
   24.3398    7.9617   17.7326 C   0  0  0  0  0  0  0  0  0  0  0  0
   25.0004    6.9283   19.9319 C   0  0  0  0  0  0  0  0  0  0  0  0
   18.6898    8.0725   22.5098 C   0  0  0  0  0  0  0  0  0  0  0  0
   18.6017    9.4848   23.1304 C   0  0  0  0  0  0  0  0  0  0  0  0
   17.2994    7.6775   22.1293 C   0  0  0  0  0  0  0  0  0  0  0  0
 24 23  2  0  0  0
 22 23  1  0  0  0
 25 23  1  0  0  0
 23 27  1  0  0  0
 11  7  1  0  0  0
  9  7  1  0  0  0
  7  8  2  0  0  0
  9  6  1  0  0  0
  6  2  1  0  0  0
  3  2  2  0  0  0
  2  4  1  0  0  0
 20 18  1  0  0  0
  1 18  1  0  0  0
 18 19  2  0  0  0
  4  1  1  0  0  0
 22 20  1  0  0  0
 29 28  2  0  0  0
 27 29  1  0  0  0
 29 30  1  0  0  0
 30 31  1  0  0  0
 32 31  1  0  0  0
 12 13  1  0  0  0
 16 15  1  0  0  0
 37 38  1  0  0  0
 35 34  1  0  0  0
 14 12  1  0  0  0
 17 15  1  0  0  0
 39 37  1  0  0  0
 34 36  1  0  0  0
 11 12  1  0  0  0
 15  6  1  0  0  0
  1 37  1  0  0  0
 33 22  1  0  0  0
 34 33  1  0  0  0
  9 10  1  0  0  0
  4  5  1  0  0  0
 20 21  1  0  0  0
 25 26  1  0  0  0
M  END
> <minimizedAffinity>
-8.34403

$$$$
1PPK_IVV_E_700


 39 38  0  0  0  0  0  0  0  0999 V2000
   19.0307    5.2941   19.2496 C   0  0  0  0  0  0  0  0  0  0  0  0
   20.6352    4.2042   17.8112 C   0  0  0  0  0  0  0  0  0  0  0  0
   19.8320    4.0910   16.8258 O   0  0  0  0  0  0  0  0  0  0  0  0
   20.3806    4.7710   18.9954 N   0  0  0  0  0  0  0  0  0  0  0  0
   21.0826    4.8365   19.6825 H   0  0  0  0  0  0  0  0  0  0  0  0
   22.0868    3.7979   17.6628 C   0  0  0  0  0  0  0  0  0  0  0  0
   23.8713    5.2540   16.9782 C   0  0  0  0  0  0  0  0  0  0  0  0
   24.0166    4.5678   15.9538 O   0  0  0  0  0  0  0  0  0  0  0  0
   22.9572    5.0081   17.8925 N   0  0  0  0  0  0  0  0  0  0  0  0
   22.8474    5.5832   18.6840 H   0  0  0  0  0  0  0  0  0  0  0  0
   24.8617    6.4322   17.1822 C   0  0  0  0  0  0  0  0  0  0  0  0
   24.3578    7.3617   18.2605 C   0  0  0  0  0  0  0  0  0  0  0  0
   24.3933    8.8230   17.8509 C   0  0  0  0  0  0  0  0  0  0  0  0
   25.4792    7.2718   19.2689 C   0  0  0  0  0  0  0  0  0  0  0  0
   22.5103    2.7788   18.7424 C   0  0  0  0  0  0  0  0  0  0  0  0
   23.0165    1.4988   18.0354 C   0  0  0  0  0  0  0  0  0  0  0  0
   23.7194    3.3053   19.5299 C   0  0  0  0  0  0  0  0  0  0  0  0
   19.2537    6.8149   19.5624 C   0  0  0  0  0  0  0  0  0  0  0  0
   18.9841    7.6237   18.6829 O   0  0  0  0  0  0  0  0  0  0  0  0
   19.7029    7.0821   20.8095 N   0  0  0  0  0  0  0  0  0  0  0  0
   19.8414    6.3387   21.4398 H   0  0  0  0  0  0  0  0  0  0  0  0
   19.9841    8.4305   21.2385 C   0  0  0  0  0  0  0  0  0  0  0  0
   21.7501    8.5402   21.6688 P   0  0  0  0  0  0  0  0  0  0  0  0
   22.4384    7.5362   20.8068 O   0  0  0  0  0  0  0  0  0  0  0  0
   21.8420    8.2261   23.1326 O   0  0  0  0  0  0  0  0  0  0  0  0
   21.5246    7.3231   23.2901 H   0  0  0  0  0  0  0  0  0  0  0  0
   22.3239   10.2012   21.3087 C   0  0  0  0  0  0  0  0  0  0  0  0
   21.5207   11.9331   22.7924 O   0  0  0  0  0  0  0  0  0  0  0  0
   22.4295   11.1262   22.5151 C   0  0  0  0  0  0  0  0  0  0  0  0
   23.4082   10.9090   23.5216 O   0  0  0  0  0  0  0  0  0  0  0  0
   24.2737   11.9629   23.8951 C   0  0  0  0  0  0  0  0  0  0  0  0
   25.0523   11.5602   25.1278 C   0  0  0  0  0  0  0  0  0  0  0  0
   19.0288    8.7959   22.4387 C   0  0  0  0  0  0  0  0  0  0  0  0
   17.9653    7.6648   22.7362 C   0  0  0  0  0  0  0  0  0  0  0  0
   17.9109    7.5026   24.2472 C   0  0  0  0  0  0  0  0  0  0  0  0
   16.5869    7.9197   22.1462 C   0  0  0  0  0  0  0  0  0  0  0  0
   18.2933    4.6026   20.4086 C   0  0  0  0  0  0  0  0  0  0  0  0
   16.7690    4.6918   20.1725 C   0  0  0  0  0  0  0  0  0  0  0  0
   18.6371    3.1499   20.4845 C   0  0  0  0  0  0  0  0  0  0  0  0
 24 23  2  0  0  0
 22 23  1  0  0  0
 25 23  1  0  0  0
 23 27  1  0  0  0
 11  7  1  0  0  0
  9  7  1  0  0  0
  7  8  2  0  0  0
  9  6  1  0  0  0
  6  2  1  0  0  0
  3  2  2  0  0  0
  2  4  1  0  0  0
 20 18  1  0  0  0
  1 18  1  0  0  0
 18 19  2  0  0  0
  4  1  1  0  0  0
 22 20  1  0  0  0
 29 28  2  0  0  0
 27 29  1  0  0  0
 29 30  1  0  0  0
 30 31  1  0  0  0
 32 31  1  0  0  0
 12 13  1  0  0  0
 16 15  1  0  0  0
 37 38  1  0  0  0
 35 34  1  0  0  0
 14 12  1  0  0  0
 17 15  1  0  0  0
 39 37  1  0  0  0
 34 36  1  0  0  0
 11 12  1  0  0  0
 15  6  1  0  0  0
  1 37  1  0  0  0
 33 22  1  0  0  0
 34 33  1  0  0  0
  9 10  1  0  0  0
  4  5  1  0  0  0
 20 21  1  0  0  0
 25 26  1  0  0  0
M  END
> <minimizedAffinity>
-8.09027

$$$$
1PPK_IVV_E_700


 39 38  0  0  0  0  0  0  0  0999 V2000
   19.6740    8.2646   21.5753 C   0  0  0  0  0  0  0  0  0  0  0  0
   19.1745    6.9942   19.5834 C   0  0  0  0  0  0  0  0  0  0  0  0
   18.6348    7.9732   18.9677 O   0  0  0  0  0  0  0  0  0  0  0  0
   19.7187    7.0137   20.8048 N   0  0  0  0  0  0  0  0  0  0  0  0
   20.1404    6.2071   21.1801 H   0  0  0  0  0  0  0  0  0  0  0  0
   19.3783    5.6688   18.8788 C   0  0  0  0  0  0  0  0  0  0  0  0
   17.2498    4.5560   18.9495 C   0  0  0  0  0  0  0  0  0  0  0  0
   17.4689    4.2468   20.1317 O   0  0  0  0  0  0  0  0  0  0  0  0
   18.0840    5.2644   18.2183 N   0  0  0  0  0  0  0  0  0  0  0  0
   17.8745    5.5167   17.2901 H   0  0  0  0  0  0  0  0  0  0  0  0
   15.9332    4.0299   18.3169 C   0  0  0  0  0  0  0  0  0  0  0  0
   14.7715    4.9098   18.7127 C   0  0  0  0  0  0  0  0  0  0  0  0
   13.9595    4.3420   19.8627 C   0  0  0  0  0  0  0  0  0  0  0  0
   13.8495    4.7229   17.5305 C   0  0  0  0  0  0  0  0  0  0  0  0
   20.4051    5.7812   17.7315 C   0  0  0  0  0  0  0  0  0  0  0  0
   21.7378    5.1526   18.2041 C   0  0  0  0  0  0  0  0  0  0  0  0
   19.9635    4.9280   16.5330 C   0  0  0  0  0  0  0  0  0  0  0  0
   21.1704    8.5434   21.9543 C   0  0  0  0  0  0  0  0  0  0  0  0
   21.5816    8.0986   23.0189 O   0  0  0  0  0  0  0  0  0  0  0  0
   21.8744    9.2365   21.0310 N   0  0  0  0  0  0  0  0  0  0  0  0
   21.4344    9.5020   20.1912 H   0  0  0  0  0  0  0  0  0  0  0  0
   23.2546    9.5962   21.2468 C   0  0  0  0  0  0  0  0  0  0  0  0
   23.3076   11.2737   21.9534 P   0  0  0  0  0  0  0  0  0  0  0  0
   22.0629   11.9485   21.4841 O   0  0  0  0  0  0  0  0  0  0  0  0
   24.5601   11.9080   21.4256 O   0  0  0  0  0  0  0  0  0  0  0  0
   24.5114   11.9641   20.4584 H   0  0  0  0  0  0  0  0  0  0  0  0
   23.3338   11.1398   23.7421 C   0  0  0  0  0  0  0  0  0  0  0  0
   24.6940   13.1032   24.1178 O   0  0  0  0  0  0  0  0  0  0  0  0
   23.7206   12.4148   24.4818 C   0  0  0  0  0  0  0  0  0  0  0  0
   22.8344   13.0191   25.4133 O   0  0  0  0  0  0  0  0  0  0  0  0
   22.1729   14.2210   25.0714 C   0  0  0  0  0  0  0  0  0  0  0  0
   21.3512   14.6946   26.2499 C   0  0  0  0  0  0  0  0  0  0  0  0
   24.0358    9.4721   19.8827 C   0  0  0  0  0  0  0  0  0  0  0  0
   24.0066    8.0045   19.2961 C   0  0  0  0  0  0  0  0  0  0  0  0
   24.3073    8.1218   17.8101 C   0  0  0  0  0  0  0  0  0  0  0  0
   24.9456    7.0271   19.9861 C   0  0  0  0  0  0  0  0  0  0  0  0
   18.7964    8.1985   22.8365 C   0  0  0  0  0  0  0  0  0  0  0  0
   18.6650    9.6129   23.4445 C   0  0  0  0  0  0  0  0  0  0  0  0
   17.4127    7.7337   22.5146 C   0  0  0  0  0  0  0  0  0  0  0  0
 24 23  2  0  0  0
 22 23  1  0  0  0
 25 23  1  0  0  0
 23 27  1  0  0  0
 11  7  1  0  0  0
  9  7  1  0  0  0
  7  8  2  0  0  0
  9  6  1  0  0  0
  6  2  1  0  0  0
  3  2  2  0  0  0
  2  4  1  0  0  0
 20 18  1  0  0  0
  1 18  1  0  0  0
 18 19  2  0  0  0
  4  1  1  0  0  0
 22 20  1  0  0  0
 29 28  2  0  0  0
 27 29  1  0  0  0
 29 30  1  0  0  0
 30 31  1  0  0  0
 32 31  1  0  0  0
 12 13  1  0  0  0
 16 15  1  0  0  0
 37 38  1  0  0  0
 35 34  1  0  0  0
 14 12  1  0  0  0
 17 15  1  0  0  0
 39 37  1  0  0  0
 34 36  1  0  0  0
 11 12  1  0  0  0
 15  6  1  0  0  0
  1 37  1  0  0  0
 33 22  1  0  0  0
 34 33  1  0  0  0
  9 10  1  0  0  0
  4  5  1  0  0  0
 20 21  1  0  0  0
 25 26  1  0  0  0
M  END
> <minimizedAffinity>
-7.79286

$$$$
1PPK_IVV_E_700


 39 38  0  0  0  0  0  0  0  0999 V2000
   19.0121    2.4110   19.0004 C   0  0  0  0  0  0  0  0  0  0  0  0
   20.9023    2.8750   17.5710 C   0  0  0  0  0  0  0  0  0  0  0  0
   20.2602    2.6866   16.4843 O   0  0  0  0  0  0  0  0  0  0  0  0
   20.4185    2.7961   18.8153 N   0  0  0  0  0  0  0  0  0  0  0  0
   20.9922    2.9919   19.5910 H   0  0  0  0  0  0  0  0  0  0  0  0
   22.3332    3.3706   17.5356 C   0  0  0  0  0  0  0  0  0  0  0  0
   22.9699    5.6748   17.2934 C   0  0  0  0  0  0  0  0  0  0  0  0
   23.4583    5.4065   16.1840 O   0  0  0  0  0  0  0  0  0  0  0  0
   22.3717    4.7853   18.0571 N   0  0  0  0  0  0  0  0  0  0  0  0
   21.9710    5.0302   18.9223 H   0  0  0  0  0  0  0  0  0  0  0  0
   23.1250    7.1356   17.7959 C   0  0  0  0  0  0  0  0  0  0  0  0
   24.5851    7.5140   17.8695 C   0  0  0  0  0  0  0  0  0  0  0  0
   25.1947    7.2706   19.2382 C   0  0  0  0  0  0  0  0  0  0  0  0
   24.4981    9.0210   17.8075 C   0  0  0  0  0  0  0  0  0  0  0  0
   23.2443    2.5607   18.4830 C   0  0  0  0  0  0  0  0  0  0  0  0
   24.5012    2.1200   17.6951 C   0  0  0  0  0  0  0  0  0  0  0  0
   23.7740    3.4575   19.6118 C   0  0  0  0  0  0  0  0  0  0  0  0
   18.2254    3.7669   18.9451 C   0  0  0  0  0  0  0  0  0  0  0  0
   17.4188    3.9218   18.0364 O   0  0  0  0  0  0  0  0  0  0  0  0
   18.5051    4.6313   19.9466 N   0  0  0  0  0  0  0  0  0  0  0  0
   19.1476    4.3668   20.6441 H   0  0  0  0  0  0  0  0  0  0  0  0
   17.8844    5.9316   20.0178 C   0  0  0  0  0  0  0  0  0  0  0  0
   19.1702    7.1965   19.7671 P   0  0  0  0  0  0  0  0  0  0  0  0
   18.8872    7.8004   18.4329 O   0  0  0  0  0  0  0  0  0  0  0  0
   20.4826    6.4726   19.8232 O   0  0  0  0  0  0  0  0  0  0  0  0
   20.5234    5.8211   19.1057 H   0  0  0  0  0  0  0  0  0  0  0  0
   19.0303    8.4199   21.0717 C   0  0  0  0  0  0  0  0  0  0  0  0
   20.6958    7.9670   22.7649 O   0  0  0  0  0  0  0  0  0  0  0  0
   20.3188    8.7050   21.8337 C   0  0  0  0  0  0  0  0  0  0  0  0
   21.2753    9.6299   21.3358 O   0  0  0  0  0  0  0  0  0  0  0  0
   22.6038    9.2055   21.1028 C   0  0  0  0  0  0  0  0  0  0  0  0
   23.5197   10.4091   21.0860 C   0  0  0  0  0  0  0  0  0  0  0  0
   17.1397    6.0689   21.4009 C   0  0  0  0  0  0  0  0  0  0  0  0
   15.5807    6.2711   21.2351 C   0  0  0  0  0  0  0  0  0  0  0  0
   15.2706    7.6833   21.7063 C   0  0  0  0  0  0  0  0  0  0  0  0
   15.0540    6.0164   19.8313 C   0  0  0  0  0  0  0  0  0  0  0  0
   18.7283    1.6705   20.3181 C   0  0  0  0  0  0  0  0  0  0  0  0
   18.2533    0.2336   20.0067 C   0  0  0  0  0  0  0  0  0  0  0  0
   19.9625    1.5490   21.1524 C   0  0  0  0  0  0  0  0  0  0  0  0
 24 23  2  0  0  0
 22 23  1  0  0  0
 25 23  1  0  0  0
 23 27  1  0  0  0
 11  7  1  0  0  0
  9  7  1  0  0  0
  7  8  2  0  0  0
  9  6  1  0  0  0
  6  2  1  0  0  0
  3  2  2  0  0  0
  2  4  1  0  0  0
 20 18  1  0  0  0
  1 18  1  0  0  0
 18 19  2  0  0  0
  4  1  1  0  0  0
 22 20  1  0  0  0
 29 28  2  0  0  0
 27 29  1  0  0  0
 29 30  1  0  0  0
 30 31  1  0  0  0
 32 31  1  0  0  0
 12 13  1  0  0  0
 16 15  1  0  0  0
 37 38  1  0  0  0
 35 34  1  0  0  0
 14 12  1  0  0  0
 17 15  1  0  0  0
 39 37  1  0  0  0
 34 36  1  0  0  0
 11 12  1  0  0  0
 15  6  1  0  0  0
  1 37  1  0  0  0
 33 22  1  0  0  0
 34 33  1  0  0  0
  9 10  1  0  0  0
  4  5  1  0  0  0
 20 21  1  0  0  0
 25 26  1  0  0  0
M  END
> <minimizedAffinity>
-7.59811

$$$$
1PPK_IVV_E_700


 39 38  0  0  0  0  0  0  0  0999 V2000
   22.8635    9.4692   21.1587 C   0  0  0  0  0  0  0  0  0  0  0  0
   22.8649   11.5990   22.2968 C   0  0  0  0  0  0  0  0  0  0  0  0
   21.7653   11.9930   21.7825 O   0  0  0  0  0  0  0  0  0  0  0  0
   23.4708   10.4236   22.0973 N   0  0  0  0  0  0  0  0  0  0  0  0
   24.3060   10.2022   22.5691 H   0  0  0  0  0  0  0  0  0  0  0  0
   23.5550   12.4349   23.3548 C   0  0  0  0  0  0  0  0  0  0  0  0
   22.1970   14.0232   24.5410 C   0  0  0  0  0  0  0  0  0  0  0  0
   22.6035   14.9153   23.7793 O   0  0  0  0  0  0  0  0  0  0  0  0
   22.5614   12.7624   24.4413 N   0  0  0  0  0  0  0  0  0  0  0  0
   22.2046   12.0702   25.0437 H   0  0  0  0  0  0  0  0  0  0  0  0
   21.2419   14.4565   25.6858 C   0  0  0  0  0  0  0  0  0  0  0  0
   21.4844   13.6184   26.9183 C   0  0  0  0  0  0  0  0  0  0  0  0
   20.2351   13.4181   27.7572 C   0  0  0  0  0  0  0  0  0  0  0  0
   22.3014   14.5700   27.7606 C   0  0  0  0  0  0  0  0  0  0  0  0
   24.6854   11.6523   24.0570 C   0  0  0  0  0  0  0  0  0  0  0  0
   26.0012   12.4528   23.9069 C   0  0  0  0  0  0  0  0  0  0  0  0
   24.4291   11.5843   25.5699 C   0  0  0  0  0  0  0  0  0  0  0  0
   21.7853    8.7146   22.0123 C   0  0  0  0  0  0  0  0  0  0  0  0
   22.1558    8.1635   23.0414 O   0  0  0  0  0  0  0  0  0  0  0  0
   20.5248    8.7781   21.5267 N   0  0  0  0  0  0  0  0  0  0  0  0
   20.3517    9.2926   20.7053 H   0  0  0  0  0  0  0  0  0  0  0  0
   19.4277    8.1101   22.1832 C   0  0  0  0  0  0  0  0  0  0  0  0
   18.4459    7.2401   20.9201 P   0  0  0  0  0  0  0  0  0  0  0  0
   17.0900    7.8597   20.9658 O   0  0  0  0  0  0  0  0  0  0  0  0
   18.4493    5.7929   21.3144 O   0  0  0  0  0  0  0  0  0  0  0  0
   18.0255    5.6930   22.1812 H   0  0  0  0  0  0  0  0  0  0  0  0
   19.2180    7.4945   19.3210 C   0  0  0  0  0  0  0  0  0  0  0  0
   19.6007    5.1151   19.1257 O   0  0  0  0  0  0  0  0  0  0  0  0
   19.5533    6.2215   18.5534 C   0  0  0  0  0  0  0  0  0  0  0  0
   19.5359    6.1960   17.1331 O   0  0  0  0  0  0  0  0  0  0  0  0
   20.4598    6.9832   16.4077 C   0  0  0  0  0  0  0  0  0  0  0  0
   21.8543    6.4324   16.6077 C   0  0  0  0  0  0  0  0  0  0  0  0
   18.5926    9.1731   22.9951 C   0  0  0  0  0  0  0  0  0  0  0  0
   19.0861    9.3220   24.4896 C   0  0  0  0  0  0  0  0  0  0  0  0
   19.7603   10.6810   24.5937 C   0  0  0  0  0  0  0  0  0  0  0  0
   17.9968    9.1508   25.5370 C   0  0  0  0  0  0  0  0  0  0  0  0
   23.8586    8.4751   20.5368 C   0  0  0  0  0  0  0  0  0  0  0  0
   23.0795    7.3208   19.8676 C   0  0  0  0  0  0  0  0  0  0  0  0
   24.6800    9.1217   19.4685 C   0  0  0  0  0  0  0  0  0  0  0  0
 24 23  2  0  0  0
 22 23  1  0  0  0
 25 23  1  0  0  0
 23 27  1  0  0  0
 11  7  1  0  0  0
  9  7  1  0  0  0
  7  8  2  0  0  0
  9  6  1  0  0  0
  6  2  1  0  0  0
  3  2  2  0  0  0
  2  4  1  0  0  0
 20 18  1  0  0  0
  1 18  1  0  0  0
 18 19  2  0  0  0
  4  1  1  0  0  0
 22 20  1  0  0  0
 29 28  2  0  0  0
 27 29  1  0  0  0
 29 30  1  0  0  0
 30 31  1  0  0  0
 32 31  1  0  0  0
 12 13  1  0  0  0
 16 15  1  0  0  0
 37 38  1  0  0  0
 35 34  1  0  0  0
 14 12  1  0  0  0
 17 15  1  0  0  0
 39 37  1  0  0  0
 34 36  1  0  0  0
 11 12  1  0  0  0
 15  6  1  0  0  0
  1 37  1  0  0  0
 33 22  1  0  0  0
 34 33  1  0  0  0
  9 10  1  0  0  0
  4  5  1  0  0  0
 20 21  1  0  0  0
 25 26  1  0  0  0
M  END
> <minimizedAffinity>
-7.37038

$$$$
1PPK_IVV_E_700


 39 38  0  0  0  0  0  0  0  0999 V2000
   22.9720    9.6271   21.1326 C   0  0  0  0  0  0  0  0  0  0  0  0
   22.6746   11.4461   22.6928 C   0  0  0  0  0  0  0  0  0  0  0  0
   21.7612   12.0202   22.0109 O   0  0  0  0  0  0  0  0  0  0  0  0
   23.3043   10.3047   22.3939 N   0  0  0  0  0  0  0  0  0  0  0  0
   23.9763    9.9263   23.0058 H   0  0  0  0  0  0  0  0  0  0  0  0
   23.0529   11.9762   24.0603 C   0  0  0  0  0  0  0  0  0  0  0  0
   25.2575   11.8884   25.0120 C   0  0  0  0  0  0  0  0  0  0  0  0
   24.8307   11.1205   25.8892 O   0  0  0  0  0  0  0  0  0  0  0  0
   24.5083   12.3717   24.0438 N   0  0  0  0  0  0  0  0  0  0  0  0
   24.8781   12.9598   23.3462 H   0  0  0  0  0  0  0  0  0  0  0  0
   26.7470   12.3145   25.1137 C   0  0  0  0  0  0  0  0  0  0  0  0
   26.8611   13.8195   25.1633 C   0  0  0  0  0  0  0  0  0  0  0  0
   28.2981   14.3082   25.1474 C   0  0  0  0  0  0  0  0  0  0  0  0
   26.4314   14.0966   26.5850 C   0  0  0  0  0  0  0  0  0  0  0  0
   22.2822   13.2679   24.4081 C   0  0  0  0  0  0  0  0  0  0  0  0
   22.1333   13.3499   25.9462 C   0  0  0  0  0  0  0  0  0  0  0  0
   23.1072   14.5039   24.0198 C   0  0  0  0  0  0  0  0  0  0  0  0
   21.8613    8.5918   21.5264 C   0  0  0  0  0  0  0  0  0  0  0  0
   21.9227    8.0853   22.6399 O   0  0  0  0  0  0  0  0  0  0  0  0
   20.9135    8.3842   20.5845 N   0  0  0  0  0  0  0  0  0  0  0  0
   20.9558    8.8898   19.7408 H   0  0  0  0  0  0  0  0  0  0  0  0
   19.8419    7.4397   20.7863 C   0  0  0  0  0  0  0  0  0  0  0  0
   19.5737    6.5336   19.2297 P   0  0  0  0  0  0  0  0  0  0  0  0
   18.5217    7.2950   18.4960 O   0  0  0  0  0  0  0  0  0  0  0  0
   19.1402    5.1523   19.6218 O   0  0  0  0  0  0  0  0  0  0  0  0
   18.3071    5.2029   20.1160 H   0  0  0  0  0  0  0  0  0  0  0  0
   21.1135    6.5104   18.3095 C   0  0  0  0  0  0  0  0  0  0  0  0
   20.4921    5.9403   16.0434 O   0  0  0  0  0  0  0  0  0  0  0  0
   21.1163    5.6190   17.0734 C   0  0  0  0  0  0  0  0  0  0  0  0
   22.0476    4.5546   16.9397 O   0  0  0  0  0  0  0  0  0  0  0  0
   23.3127    4.6491   17.5640 C   0  0  0  0  0  0  0  0  0  0  0  0
   24.2667    5.3921   16.6552 C   0  0  0  0  0  0  0  0  0  0  0  0
   18.5616    8.2157   21.2815 C   0  0  0  0  0  0  0  0  0  0  0  0
   18.0539    7.7144   22.6922 C   0  0  0  0  0  0  0  0  0  0  0  0
   18.5661    8.7110   23.7202 C   0  0  0  0  0  0  0  0  0  0  0  0
   16.5485    7.5232   22.7931 C   0  0  0  0  0  0  0  0  0  0  0  0
   24.1623    8.9199   20.4630 C   0  0  0  0  0  0  0  0  0  0  0  0
   23.9428    7.3912   20.5097 C   0  0  0  0  0  0  0  0  0  0  0  0
   24.2811    9.2980   19.0218 C   0  0  0  0  0  0  0  0  0  0  0  0
 24 23  2  0  0  0
 22 23  1  0  0  0
 25 23  1  0  0  0
 23 27  1  0  0  0
 11  7  1  0  0  0
  9  7  1  0  0  0
  7  8  2  0  0  0
  9  6  1  0  0  0
  6  2  1  0  0  0
  3  2  2  0  0  0
  2  4  1  0  0  0
 20 18  1  0  0  0
  1 18  1  0  0  0
 18 19  2  0  0  0
  4  1  1  0  0  0
 22 20  1  0  0  0
 29 28  2  0  0  0
 27 29  1  0  0  0
 29 30  1  0  0  0
 30 31  1  0  0  0
 32 31  1  0  0  0
 12 13  1  0  0  0
 16 15  1  0  0  0
 37 38  1  0  0  0
 35 34  1  0  0  0
 14 12  1  0  0  0
 17 15  1  0  0  0
 39 37  1  0  0  0
 34 36  1  0  0  0
 11 12  1  0  0  0
 15  6  1  0  0  0
  1 37  1  0  0  0
 33 22  1  0  0  0
 34 33  1  0  0  0
  9 10  1  0  0  0
  4  5  1  0  0  0
 20 21  1  0  0  0
 25 26  1  0  0  0
M  END
> <minimizedAffinity>
-7.34626

$$$$
1PPK_IVV_E_700


 39 38  0  0  0  0  0  0  0  0999 V2000
   22.3884    9.4159   21.3180 C   0  0  0  0  0  0  0  0  0  0  0  0
   22.8392   11.5003   22.4510 C   0  0  0  0  0  0  0  0  0  0  0  0
   22.3987   12.2320   21.5027 O   0  0  0  0  0  0  0  0  0  0  0  0
   22.8665   10.1637   22.4896 N   0  0  0  0  0  0  0  0  0  0  0  0
   23.1999    9.6907   23.2861 H   0  0  0  0  0  0  0  0  0  0  0  0
   23.2743   12.1272   23.7594 C   0  0  0  0  0  0  0  0  0  0  0  0
   25.5657   12.0261   24.4757 C   0  0  0  0  0  0  0  0  0  0  0  0
   25.2477   11.1716   25.3183 O   0  0  0  0  0  0  0  0  0  0  0  0
   24.7113   12.5682   23.6340 N   0  0  0  0  0  0  0  0  0  0  0  0
   24.9949   13.2261   22.9588 H   0  0  0  0  0  0  0  0  0  0  0  0
   27.0478   12.4882   24.4669 C   0  0  0  0  0  0  0  0  0  0  0  0
   27.4352   13.0378   25.8191 C   0  0  0  0  0  0  0  0  0  0  0  0
   26.7186   14.3310   26.1634 C   0  0  0  0  0  0  0  0  0  0  0  0
   28.8476   13.5018   25.5503 C   0  0  0  0  0  0  0  0  0  0  0  0
   22.4782   13.4124   24.0723 C   0  0  0  0  0  0  0  0  0  0  0  0
   21.0436   13.0099   24.4901 C   0  0  0  0  0  0  0  0  0  0  0  0
   23.0682   14.1214   25.3005 C   0  0  0  0  0  0  0  0  0  0  0  0
   21.1854    8.5679   21.8605 C   0  0  0  0  0  0  0  0  0  0  0  0
   21.3258    8.0029   22.9381 O   0  0  0  0  0  0  0  0  0  0  0  0
   20.0829    8.5736   21.0775 N   0  0  0  0  0  0  0  0  0  0  0  0
   20.0845    9.1063   20.2495 H   0  0  0  0  0  0  0  0  0  0  0  0
   18.9046    7.8179   21.4262 C   0  0  0  0  0  0  0  0  0  0  0  0
   18.1854    7.1371   19.8981 P   0  0  0  0  0  0  0  0  0  0  0  0
   19.0130    7.6840   18.7843 O   0  0  0  0  0  0  0  0  0  0  0  0
   16.7613    7.6065   19.8634 O   0  0  0  0  0  0  0  0  0  0  0  0
   16.7410    8.5756   19.8284 H   0  0  0  0  0  0  0  0  0  0  0  0
   18.2935    5.3476   19.9636 C   0  0  0  0  0  0  0  0  0  0  0  0
   16.7089    4.9479   18.1816 O   0  0  0  0  0  0  0  0  0  0  0  0
   17.7823    4.6218   18.7250 C   0  0  0  0  0  0  0  0  0  0  0  0
   18.6296    3.7592   17.9792 O   0  0  0  0  0  0  0  0  0  0  0  0
   19.9369    4.1809   17.6438 C   0  0  0  0  0  0  0  0  0  0  0  0
   19.8682    5.1663   16.4983 C   0  0  0  0  0  0  0  0  0  0  0  0
   17.9114    8.7534   22.2167 C   0  0  0  0  0  0  0  0  0  0  0  0
   17.5461    8.1840   23.6455 C   0  0  0  0  0  0  0  0  0  0  0  0
   17.5180    6.6690   23.5179 C   0  0  0  0  0  0  0  0  0  0  0  0
   18.4703    8.6389   24.7645 C   0  0  0  0  0  0  0  0  0  0  0  0
   23.4482    8.5068   20.6735 C   0  0  0  0  0  0  0  0  0  0  0  0
   22.7507    7.4725   19.7619 C   0  0  0  0  0  0  0  0  0  0  0  0
   24.3836    9.2879   19.8080 C   0  0  0  0  0  0  0  0  0  0  0  0
 24 23  2  0  0  0
 22 23  1  0  0  0
 25 23  1  0  0  0
 23 27  1  0  0  0
 11  7  1  0  0  0
  9  7  1  0  0  0
  7  8  2  0  0  0
  9  6  1  0  0  0
  6  2  1  0  0  0
  3  2  2  0  0  0
  2  4  1  0  0  0
 20 18  1  0  0  0
  1 18  1  0  0  0
 18 19  2  0  0  0
  4  1  1  0  0  0
 22 20  1  0  0  0
 29 28  2  0  0  0
 27 29  1  0  0  0
 29 30  1  0  0  0
 30 31  1  0  0  0
 32 31  1  0  0  0
 12 13  1  0  0  0
 16 15  1  0  0  0
 37 38  1  0  0  0
 35 34  1  0  0  0
 14 12  1  0  0  0
 17 15  1  0  0  0
 39 37  1  0  0  0
 34 36  1  0  0  0
 11 12  1  0  0  0
 15  6  1  0  0  0
  1 37  1  0  0  0
 33 22  1  0  0  0
 34 33  1  0  0  0
  9 10  1  0  0  0
  4  5  1  0  0  0
 20 21  1  0  0  0
 25 26  1  0  0  0
M  END
> <minimizedAffinity>
-7.18518

$$$$
1PPK_IVV_E_700


 39 38  0  0  0  0  0  0  0  0999 V2000
   18.4001    4.0843   20.1339 C   0  0  0  0  0  0  0  0  0  0  0  0
   20.1952    3.4819   18.6351 C   0  0  0  0  0  0  0  0  0  0  0  0
   19.4647    2.7518   17.8854 O   0  0  0  0  0  0  0  0  0  0  0  0
   19.8042    4.1768   19.7088 N   0  0  0  0  0  0  0  0  0  0  0  0
   20.4433    4.7383   20.2042 H   0  0  0  0  0  0  0  0  0  0  0  0
   21.6400    3.7485   18.2665 C   0  0  0  0  0  0  0  0  0  0  0  0
   22.3913    6.0073   17.9389 C   0  0  0  0  0  0  0  0  0  0  0  0
   22.3695    5.8195   16.7119 O   0  0  0  0  0  0  0  0  0  0  0  0
   22.0435    5.0927   18.8191 N   0  0  0  0  0  0  0  0  0  0  0  0
   22.0466    5.2760   19.7864 H   0  0  0  0  0  0  0  0  0  0  0  0
   22.8990    7.3897   18.4303 C   0  0  0  0  0  0  0  0  0  0  0  0
   24.3847    7.5190   18.1926 C   0  0  0  0  0  0  0  0  0  0  0  0
   25.2054    7.3726   19.4612 C   0  0  0  0  0  0  0  0  0  0  0  0
   24.5030    8.9941   17.8884 C   0  0  0  0  0  0  0  0  0  0  0  0
   22.5970    2.7317   18.9249 C   0  0  0  0  0  0  0  0  0  0  0  0
   23.2669    1.8959   17.8082 C   0  0  0  0  0  0  0  0  0  0  0  0
   23.7525    3.4613   19.6262 C   0  0  0  0  0  0  0  0  0  0  0  0
   17.9362    5.5760   20.2760 C   0  0  0  0  0  0  0  0  0  0  0  0
   17.6985    6.1998   19.2490 O   0  0  0  0  0  0  0  0  0  0  0  0
   17.8160    6.0185   21.5481 N   0  0  0  0  0  0  0  0  0  0  0  0
   17.9984    5.3993   22.2914 H   0  0  0  0  0  0  0  0  0  0  0  0
   17.4270    7.3762   21.8422 C   0  0  0  0  0  0  0  0  0  0  0  0
   18.7764    8.1725   22.7701 P   0  0  0  0  0  0  0  0  0  0  0  0
   18.8823    7.4198   24.0534 O   0  0  0  0  0  0  0  0  0  0  0  0
   18.3663    9.6034   22.9549 O   0  0  0  0  0  0  0  0  0  0  0  0
   17.5482    9.6407   23.4748 H   0  0  0  0  0  0  0  0  0  0  0  0
   20.2876    8.0330   21.8137 C   0  0  0  0  0  0  0  0  0  0  0  0
   22.3549    8.2642   23.0460 O   0  0  0  0  0  0  0  0  0  0  0  0
   21.4745    8.8179   22.3590 C   0  0  0  0  0  0  0  0  0  0  0  0
   21.7787   10.1179   21.8736 O   0  0  0  0  0  0  0  0  0  0  0  0
   22.8155   10.2866   20.9272 C   0  0  0  0  0  0  0  0  0  0  0  0
   23.8687   11.2115   21.4958 C   0  0  0  0  0  0  0  0  0  0  0  0
   16.0596    7.3587   22.6273 C   0  0  0  0  0  0  0  0  0  0  0  0
   14.8058    7.3253   21.6651 C   0  0  0  0  0  0  0  0  0  0  0  0
   15.1746    8.1447   20.4383 C   0  0  0  0  0  0  0  0  0  0  0  0
   14.3317    5.9298   21.2897 C   0  0  0  0  0  0  0  0  0  0  0  0
   18.1883    3.3206   21.4518 C   0  0  0  0  0  0  0  0  0  0  0  0
   16.7644    2.7209   21.4738 C   0  0  0  0  0  0  0  0  0  0  0  0
   19.1431    2.1778   21.5797 C   0  0  0  0  0  0  0  0  0  0  0  0
 24 23  2  0  0  0
 22 23  1  0  0  0
 25 23  1  0  0  0
 23 27  1  0  0  0
 11  7  1  0  0  0
  9  7  1  0  0  0
  7  8  2  0  0  0
  9  6  1  0  0  0
  6  2  1  0  0  0
  3  2  2  0  0  0
  2  4  1  0  0  0
 20 18  1  0  0  0
  1 18  1  0  0  0
 18 19  2  0  0  0
  4  1  1  0  0  0
 22 20  1  0  0  0
 29 28  2  0  0  0
 27 29  1  0  0  0
 29 30  1  0  0  0
 30 31  1  0  0  0
 32 31  1  0  0  0
 12 13  1  0  0  0
 16 15  1  0  0  0
 37 38  1  0  0  0
 35 34  1  0  0  0
 14 12  1  0  0  0
 17 15  1  0  0  0
 39 37  1  0  0  0
 34 36  1  0  0  0
 11 12  1  0  0  0
 15  6  1  0  0  0
  1 37  1  0  0  0
 33 22  1  0  0  0
 34 33  1  0  0  0
  9 10  1  0  0  0
  4  5  1  0  0  0
 20 21  1  0  0  0
 25 26  1  0  0  0
M  END
> <minimizedAffinity>
-7.10385

$$$$
1PPK_IVV_E_700


 39 38  0  0  0  0  0  0  0  0999 V2000
   22.7614    9.7634   21.4616 C   0  0  0  0  0  0  0  0  0  0  0  0
   23.7334   11.8047   22.3099 C   0  0  0  0  0  0  0  0  0  0  0  0
   23.6636   12.4242   21.1963 O   0  0  0  0  0  0  0  0  0  0  0  0
   23.3212   10.5581   22.5641 N   0  0  0  0  0  0  0  0  0  0  0  0
   23.3913   10.1806   23.4706 H   0  0  0  0  0  0  0  0  0  0  0  0
   24.1981   12.5275   23.5572 C   0  0  0  0  0  0  0  0  0  0  0  0
   22.4027   13.8677   24.4256 C   0  0  0  0  0  0  0  0  0  0  0  0
   22.7230   14.7757   23.6420 O   0  0  0  0  0  0  0  0  0  0  0  0
   23.0210   12.7073   24.4830 N   0  0  0  0  0  0  0  0  0  0  0  0
   22.7308   11.9947   25.0973 H   0  0  0  0  0  0  0  0  0  0  0  0
   21.2340   14.1624   25.4042 C   0  0  0  0  0  0  0  0  0  0  0  0
   21.4838   13.4975   26.7369 C   0  0  0  0  0  0  0  0  0  0  0  0
   20.2081   13.2155   27.5098 C   0  0  0  0  0  0  0  0  0  0  0  0
   22.1011   14.6342   27.5175 C   0  0  0  0  0  0  0  0  0  0  0  0
   25.2225   11.6930   24.3557 C   0  0  0  0  0  0  0  0  0  0  0  0
   26.5879   12.4197   24.3098 C   0  0  0  0  0  0  0  0  0  0  0  0
   24.8392   11.6556   25.8426 C   0  0  0  0  0  0  0  0  0  0  0  0
   21.6260    8.9127   22.1307 C   0  0  0  0  0  0  0  0  0  0  0  0
   21.8953    8.3156   23.1657 O   0  0  0  0  0  0  0  0  0  0  0  0
   20.4326    8.9523   21.4961 N   0  0  0  0  0  0  0  0  0  0  0  0
   20.3356    9.5085   20.6895 H   0  0  0  0  0  0  0  0  0  0  0  0
   19.2982    8.1993   21.9726 C   0  0  0  0  0  0  0  0  0  0  0  0
   18.6274    7.2305   20.5842 P   0  0  0  0  0  0  0  0  0  0  0  0
   19.7690    7.0260   19.6463 O   0  0  0  0  0  0  0  0  0  0  0  0
   17.5199    8.0551   19.9982 O   0  0  0  0  0  0  0  0  0  0  0  0
   17.8808    8.8920   19.6662 H   0  0  0  0  0  0  0  0  0  0  0  0
   18.0250    5.6643   21.2186 C   0  0  0  0  0  0  0  0  0  0  0  0
   15.9380    6.5640   22.0436 O   0  0  0  0  0  0  0  0  0  0  0  0
   16.5280    5.6110   21.4982 C   0  0  0  0  0  0  0  0  0  0  0  0
   15.7050    4.6212   20.8971 O   0  0  0  0  0  0  0  0  0  0  0  0
   15.7299    4.4482   19.4940 C   0  0  0  0  0  0  0  0  0  0  0  0
   14.5690    5.1949   18.8754 C   0  0  0  0  0  0  0  0  0  0  0  0
   18.2485    9.1954   22.5990 C   0  0  0  0  0  0  0  0  0  0  0  0
   18.1860    9.1013   24.1758 C   0  0  0  0  0  0  0  0  0  0  0  0
   18.2779    7.6252   24.5294 C   0  0  0  0  0  0  0  0  0  0  0  0
   19.2404    9.9220   24.9022 C   0  0  0  0  0  0  0  0  0  0  0  0
   23.7816    8.8522   20.7585 C   0  0  0  0  0  0  0  0  0  0  0  0
   23.0786    7.5560   20.2968 C   0  0  0  0  0  0  0  0  0  0  0  0
   24.3415    9.5025   19.5347 C   0  0  0  0  0  0  0  0  0  0  0  0
 24 23  2  0  0  0
 22 23  1  0  0  0
 25 23  1  0  0  0
 23 27  1  0  0  0
 11  7  1  0  0  0
  9  7  1  0  0  0
  7  8  2  0  0  0
  9  6  1  0  0  0
  6  2  1  0  0  0
  3  2  2  0  0  0
  2  4  1  0  0  0
 20 18  1  0  0  0
  1 18  1  0  0  0
 18 19  2  0  0  0
  4  1  1  0  0  0
 22 20  1  0  0  0
 29 28  2  0  0  0
 27 29  1  0  0  0
 29 30  1  0  0  0
 30 31  1  0  0  0
 32 31  1  0  0  0
 12 13  1  0  0  0
 16 15  1  0  0  0
 37 38  1  0  0  0
 35 34  1  0  0  0
 14 12  1  0  0  0
 17 15  1  0  0  0
 39 37  1  0  0  0
 34 36  1  0  0  0
 11 12  1  0  0  0
 15  6  1  0  0  0
  1 37  1  0  0  0
 33 22  1  0  0  0
 34 33  1  0  0  0
  9 10  1  0  0  0
  4  5  1  0  0  0
 20 21  1  0  0  0
 25 26  1  0  0  0
M  END
> <minimizedAffinity>
-7.08544

$$$$
1PPK_IVV_E_700


 39 38  0  0  0  0  0  0  0  0999 V2000
   23.0016    9.7689   21.2071 C   0  0  0  0  0  0  0  0  0  0  0  0
   23.8003   11.6629   22.4746 C   0  0  0  0  0  0  0  0  0  0  0  0
   23.9484   12.4159   21.4550 O   0  0  0  0  0  0  0  0  0  0  0  0
   23.3421   10.4065   22.4870 N   0  0  0  0  0  0  0  0  0  0  0  0
   23.2350    9.9189   23.3356 H   0  0  0  0  0  0  0  0  0  0  0  0
   24.0193   12.2140   23.8684 C   0  0  0  0  0  0  0  0  0  0  0  0
   21.9494   12.6208   25.0189 C   0  0  0  0  0  0  0  0  0  0  0  0
   21.9315   13.7690   24.5471 O   0  0  0  0  0  0  0  0  0  0  0  0
   22.8967   11.7446   24.7597 N   0  0  0  0  0  0  0  0  0  0  0  0
   22.8738   10.8318   25.1278 H   0  0  0  0  0  0  0  0  0  0  0  0
   20.8023   12.2429   25.9945 C   0  0  0  0  0  0  0  0  0  0  0  0
   20.8485   13.1179   27.2244 C   0  0  0  0  0  0  0  0  0  0  0  0
   22.2127   13.1376   27.8899 C   0  0  0  0  0  0  0  0  0  0  0  0
   20.0190   12.3050   28.1906 C   0  0  0  0  0  0  0  0  0  0  0  0
   25.3094   11.6582   24.5088 C   0  0  0  0  0  0  0  0  0  0  0  0
   26.4587   12.6596   24.2424 C   0  0  0  0  0  0  0  0  0  0  0  0
   25.1691   11.6081   26.0375 C   0  0  0  0  0  0  0  0  0  0  0  0
   21.8890    8.7259   21.5743 C   0  0  0  0  0  0  0  0  0  0  0  0
   21.8999    8.2544   22.7046 O   0  0  0  0  0  0  0  0  0  0  0  0
   20.9959    8.4729   20.5910 N   0  0  0  0  0  0  0  0  0  0  0  0
   21.0744    8.9535   19.7353 H   0  0  0  0  0  0  0  0  0  0  0  0
   19.9310    7.5156   20.7657 C   0  0  0  0  0  0  0  0  0  0  0  0
   19.7306    6.5888   19.2110 P   0  0  0  0  0  0  0  0  0  0  0  0
   18.5909    7.2365   18.4994 O   0  0  0  0  0  0  0  0  0  0  0  0
   19.4520    5.1689   19.6060 O   0  0  0  0  0  0  0  0  0  0  0  0
   18.6275    5.1309   20.1156 H   0  0  0  0  0  0  0  0  0  0  0  0
   21.2468    6.7291   18.2626 C   0  0  0  0  0  0  0  0  0  0  0  0
   22.2885    5.2968   16.6165 O   0  0  0  0  0  0  0  0  0  0  0  0
   21.8269    5.4092   17.7689 C   0  0  0  0  0  0  0  0  0  0  0  0
   22.1305    4.3577   18.6748 O   0  0  0  0  0  0  0  0  0  0  0  0
   22.3136    3.0438   18.1857 C   0  0  0  0  0  0  0  0  0  0  0  0
   23.7395    2.6077   18.4396 C   0  0  0  0  0  0  0  0  0  0  0  0
   18.6233    8.2786   21.2065 C   0  0  0  0  0  0  0  0  0  0  0  0
   18.2779    8.0617   22.7338 C   0  0  0  0  0  0  0  0  0  0  0  0
   18.5938    9.3691   23.4432 C   0  0  0  0  0  0  0  0  0  0  0  0
   16.8526    7.6041   23.0027 C   0  0  0  0  0  0  0  0  0  0  0  0
   24.1864    9.0784   20.5108 C   0  0  0  0  0  0  0  0  0  0  0  0
   23.9651    7.5493   20.5182 C   0  0  0  0  0  0  0  0  0  0  0  0
   24.2959    9.4947   19.0794 C   0  0  0  0  0  0  0  0  0  0  0  0
 24 23  2  0  0  0
 22 23  1  0  0  0
 25 23  1  0  0  0
 23 27  1  0  0  0
 11  7  1  0  0  0
  9  7  1  0  0  0
  7  8  2  0  0  0
  9  6  1  0  0  0
  6  2  1  0  0  0
  3  2  2  0  0  0
  2  4  1  0  0  0
 20 18  1  0  0  0
  1 18  1  0  0  0
 18 19  2  0  0  0
  4  1  1  0  0  0
 22 20  1  0  0  0
 29 28  2  0  0  0
 27 29  1  0  0  0
 29 30  1  0  0  0
 30 31  1  0  0  0
 32 31  1  0  0  0
 12 13  1  0  0  0
 16 15  1  0  0  0
 37 38  1  0  0  0
 35 34  1  0  0  0
 14 12  1  0  0  0
 17 15  1  0  0  0
 39 37  1  0  0  0
 34 36  1  0  0  0
 11 12  1  0  0  0
 15  6  1  0  0  0
  1 37  1  0  0  0
 33 22  1  0  0  0
 34 33  1  0  0  0
  9 10  1  0  0  0
  4  5  1  0  0  0
 20 21  1  0  0  0
 25 26  1  0  0  0
M  END
> <minimizedAffinity>
-6.88617

$$$$
