6GZD_LCI_A_1018


 29 32  0  0  0  0  0  0  0  0999 V2000
   -3.0404  -18.8704   -4.5444 F   0  0  0  0  0  0  0  0  0  0  0  0
   -3.3551  -19.8579   -5.3781 C   0  0  0  0  0  0  0  0  0  0  0  0
   -3.7070  -21.0997   -4.8863 C   0  0  0  0  0  0  0  0  0  0  0  0
   -4.0349  -22.1283   -5.7487 N   0  0  0  0  0  0  0  0  0  0  0  0
   -3.3358  -19.6546   -6.7451 C   0  0  0  0  0  0  0  0  0  0  0  0
   -3.6622  -20.6839   -7.6016 N   0  0  0  0  0  0  0  0  0  0  0  0
   -4.0132  -21.9206   -7.1127 C   0  0  0  0  0  0  0  0  0  0  0  0
   -2.9681  -18.3540   -7.3285 C   0  0  0  0  0  0  0  0  0  0  0  0
   -1.6955  -17.8346   -7.3360 C   0  0  0  0  0  0  0  0  0  0  0  0
   -1.7773  -16.6406   -7.9541 N   0  0  0  0  0  0  0  0  0  0  0  0
   -2.9660  -16.4175   -8.3010 N   0  0  0  0  0  0  0  0  0  0  0  0
   -3.3977  -15.1971   -8.9992 C   0  0  0  0  0  0  0  0  0  0  0  0
   -3.7668  -17.4329   -7.9475 C   0  0  0  0  0  0  0  0  0  0  0  0
   -5.2568  -17.5444   -8.1854 C   0  0  0  0  0  0  0  0  0  0  0  0
   -5.5282  -18.2855   -9.4924 C   0  0  0  0  0  0  0  0  0  0  0  0
   -7.0282  -18.2519   -9.7937 C   0  0  0  0  0  0  0  0  0  0  0  0
   -6.0814  -17.2942  -10.5160 C   0  0  0  0  0  0  0  0  0  0  0  0
   -4.3404  -22.9502   -8.0135 N   0  0  0  0  0  0  0  0  0  0  0  0
   -3.7076  -23.6882   -8.1693 H   0  0  0  0  0  0  0  0  0  0  0  0
   -5.6330  -22.9230   -8.7248 C   0  0  0  0  0  0  0  0  0  0  0  0
   -5.4644  -22.1666  -10.0433 C   0  0  0  0  0  0  0  0  0  0  0  0
   -6.8139  -22.0522  -10.7634 C   0  0  0  0  0  0  0  0  0  0  0  0
   -6.1831  -24.3352   -9.0060 C   0  0  0  0  0  0  0  0  0  0  0  0
   -7.5513  -24.2172   -9.6932 C   0  0  0  0  0  0  0  0  0  0  0  0
   -7.4068  -23.4482  -11.0157 C   0  0  0  0  0  0  0  0  0  0  0  0
   -8.7280  -23.3001  -11.6414 N   0  0  0  0  0  0  0  0  0  0  0  0
   -9.3428  -22.7771  -11.0178 H   0  0  0  0  0  0  0  0  0  0  0  0
   -9.1264  -24.2225  -11.8167 H   0  0  0  0  0  0  0  0  0  0  0  0
   -8.6319  -22.7979  -12.5240 H   0  0  0  0  0  0  0  0  0  0  0  0
 26 25  1  0  0  0
 25 22  1  0  0  0
 25 24  1  0  0  0
 22 21  1  0  0  0
 21 20  1  0  0  0
 24 23  1  0  0  0
 23 20  1  0  0  0
 20 18  1  0  0  0
 18  7  1  0  0  0
  7  4  2  0  0  0
  7  6  1  0  0  0
  4  3  1  0  0  0
  6  5  2  0  0  0
  3  2  2  0  0  0
 14 15  1  0  0  0
 14 13  1  0  0  0
 16 15  1  0  0  0
 16 17  1  0  0  0
  5  2  1  0  0  0
  5  8  1  0  0  0
 15 17  1  0  0  0
  2  1  1  0  0  0
 13  8  2  0  0  0
 13 11  1  0  0  0
  8  9  1  0  0  0
 11 12  1  0  0  0
 11 10  1  0  0  0
  9 10  2  0  0  0
 18 19  1  0  0  0
 26 27  1  0  0  0
 26 28  1  0  0  0
 26 29  1  0  0  0
M  CHG 1  26   1
M  END
> <minimizedAffinity>
-7.95055

$$$$
6GZD_LCI_A_1018


 29 32  0  0  0  0  0  0  0  0999 V2000
   -3.0796  -23.4206   -6.1803 F   0  0  0  0  0  0  0  0  0  0  0  0
   -4.1674  -22.8372   -6.6760 C   0  0  0  0  0  0  0  0  0  0  0  0
   -5.0227  -23.5428   -7.4995 C   0  0  0  0  0  0  0  0  0  0  0  0
   -6.1539  -22.9407   -8.0165 N   0  0  0  0  0  0  0  0  0  0  0  0
   -4.4567  -21.5201   -6.3727 C   0  0  0  0  0  0  0  0  0  0  0  0
   -5.5855  -20.9233   -6.8916 N   0  0  0  0  0  0  0  0  0  0  0  0
   -6.4380  -21.6252   -7.7115 C   0  0  0  0  0  0  0  0  0  0  0  0
   -3.5829  -20.7170   -5.5018 C   0  0  0  0  0  0  0  0  0  0  0  0
   -3.2822  -21.0295   -4.1974 C   0  0  0  0  0  0  0  0  0  0  0  0
   -2.4634  -20.0563   -3.7538 N   0  0  0  0  0  0  0  0  0  0  0  0
   -2.2636  -19.2142   -4.6670 N   0  0  0  0  0  0  0  0  0  0  0  0
   -1.4149  -18.0234   -4.5086 C   0  0  0  0  0  0  0  0  0  0  0  0
   -2.9247  -19.5521   -5.7832 C   0  0  0  0  0  0  0  0  0  0  0  0
   -2.9411  -18.8003   -7.0962 C   0  0  0  0  0  0  0  0  0  0  0  0
   -4.0639  -17.7657   -7.0975 C   0  0  0  0  0  0  0  0  0  0  0  0
   -3.4640  -16.3647   -7.2349 C   0  0  0  0  0  0  0  0  0  0  0  0
   -4.0792  -17.0559   -8.4511 C   0  0  0  0  0  0  0  0  0  0  0  0
   -7.5813  -20.9869   -8.2252 N   0  0  0  0  0  0  0  0  0  0  0  0
   -8.4509  -21.0981   -7.7772 H   0  0  0  0  0  0  0  0  0  0  0  0
   -7.4758  -20.1505   -9.4363 C   0  0  0  0  0  0  0  0  0  0  0  0
   -7.4207  -18.6782   -9.0261 C   0  0  0  0  0  0  0  0  0  0  0  0
   -7.3947  -17.7830  -10.2715 C   0  0  0  0  0  0  0  0  0  0  0  0
   -6.2384  -20.4962  -10.2878 C   0  0  0  0  0  0  0  0  0  0  0  0
   -6.2352  -19.6247  -11.5523 C   0  0  0  0  0  0  0  0  0  0  0  0
   -6.1931  -18.1390  -11.1622 C   0  0  0  0  0  0  0  0  0  0  0  0
   -6.2380  -17.3137  -12.3771 N   0  0  0  0  0  0  0  0  0  0  0  0
   -7.1037  -17.5004  -12.8832 H   0  0  0  0  0  0  0  0  0  0  0  0
   -5.4409  -17.5403  -12.9717 H   0  0  0  0  0  0  0  0  0  0  0  0
   -6.2006  -16.3274  -12.1197 H   0  0  0  0  0  0  0  0  0  0  0  0
 26 25  1  0  0  0
 25 22  1  0  0  0
 25 24  1  0  0  0
 22 21  1  0  0  0
 21 20  1  0  0  0
 24 23  1  0  0  0
 23 20  1  0  0  0
 20 18  1  0  0  0
 18  7  1  0  0  0
  7  4  2  0  0  0
  7  6  1  0  0  0
  4  3  1  0  0  0
  6  5  2  0  0  0
  3  2  2  0  0  0
 14 15  1  0  0  0
 14 13  1  0  0  0
 16 15  1  0  0  0
 16 17  1  0  0  0
  5  2  1  0  0  0
  5  8  1  0  0  0
 15 17  1  0  0  0
  2  1  1  0  0  0
 13  8  2  0  0  0
 13 11  1  0  0  0
  8  9  1  0  0  0
 11 12  1  0  0  0
 11 10  1  0  0  0
  9 10  2  0  0  0
 18 19  1  0  0  0
 26 27  1  0  0  0
 26 28  1  0  0  0
 26 29  1  0  0  0
M  CHG 1  26   1
M  END
> <minimizedAffinity>
-7.88938

$$$$
6GZD_LCI_A_1018


 29 32  0  0  0  0  0  0  0  0999 V2000
   -6.2769  -21.4768  -11.8986 F   0  0  0  0  0  0  0  0  0  0  0  0
   -5.9999  -21.3429  -10.6045 C   0  0  0  0  0  0  0  0  0  0  0  0
   -5.3358  -22.3463   -9.9265 C   0  0  0  0  0  0  0  0  0  0  0  0
   -5.0458  -22.2113   -8.5822 N   0  0  0  0  0  0  0  0  0  0  0  0
   -6.3707  -20.1992   -9.9227 C   0  0  0  0  0  0  0  0  0  0  0  0
   -6.0807  -20.0694   -8.5815 N   0  0  0  0  0  0  0  0  0  0  0  0
   -5.4190  -21.0680   -7.9057 C   0  0  0  0  0  0  0  0  0  0  0  0
   -7.0812  -19.0966  -10.5908 C   0  0  0  0  0  0  0  0  0  0  0  0
   -8.3934  -19.1474  -10.9972 C   0  0  0  0  0  0  0  0  0  0  0  0
   -8.6623  -17.9532  -11.5594 N   0  0  0  0  0  0  0  0  0  0  0  0
   -7.6399  -17.2209  -11.5213 N   0  0  0  0  0  0  0  0  0  0  0  0
   -7.5960  -15.8510  -12.0549 C   0  0  0  0  0  0  0  0  0  0  0  0
   -6.6156  -17.8583  -10.9366 C   0  0  0  0  0  0  0  0  0  0  0  0
   -5.2214  -17.3198  -10.7011 C   0  0  0  0  0  0  0  0  0  0  0  0
   -5.1292  -16.6820   -9.3170 C   0  0  0  0  0  0  0  0  0  0  0  0
   -3.6902  -16.2289   -9.0610 C   0  0  0  0  0  0  0  0  0  0  0  0
   -4.7505  -15.2098   -9.4763 C   0  0  0  0  0  0  0  0  0  0  0  0
   -5.1384  -20.9048   -6.5371 N   0  0  0  0  0  0  0  0  0  0  0  0
   -5.8170  -21.1394   -5.8635 H   0  0  0  0  0  0  0  0  0  0  0  0
   -3.8257  -20.3816   -6.1119 C   0  0  0  0  0  0  0  0  0  0  0  0
   -3.8252  -18.8582   -6.2468 C   0  0  0  0  0  0  0  0  0  0  0  0
   -2.4433  -18.2963   -5.8897 C   0  0  0  0  0  0  0  0  0  0  0  0
   -3.4748  -20.7720   -4.6626 C   0  0  0  0  0  0  0  0  0  0  0  0
   -2.0753  -20.2403   -4.3206 C   0  0  0  0  0  0  0  0  0  0  0  0
   -2.0489  -18.7104   -4.4625 C   0  0  0  0  0  0  0  0  0  0  0  0
   -0.6942  -18.2170   -4.1790 N   0  0  0  0  0  0  0  0  0  0  0  0
   -0.0377  -18.6243   -4.8450 H   0  0  0  0  0  0  0  0  0  0  0  0
   -0.4267  -18.4835   -3.2315 H   0  0  0  0  0  0  0  0  0  0  0  0
   -0.6779  -17.2006   -4.2637 H   0  0  0  0  0  0  0  0  0  0  0  0
 26 25  1  0  0  0
 25 22  1  0  0  0
 25 24  1  0  0  0
 22 21  1  0  0  0
 21 20  1  0  0  0
 24 23  1  0  0  0
 23 20  1  0  0  0
 20 18  1  0  0  0
 18  7  1  0  0  0
  7  4  2  0  0  0
  7  6  1  0  0  0
  4  3  1  0  0  0
  6  5  2  0  0  0
  3  2  2  0  0  0
 14 15  1  0  0  0
 14 13  1  0  0  0
 16 15  1  0  0  0
 16 17  1  0  0  0
  5  2  1  0  0  0
  5  8  1  0  0  0
 15 17  1  0  0  0
  2  1  1  0  0  0
 13  8  2  0  0  0
 13 11  1  0  0  0
  8  9  1  0  0  0
 11 12  1  0  0  0
 11 10  1  0  0  0
  9 10  2  0  0  0
 18 19  1  0  0  0
 26 27  1  0  0  0
 26 28  1  0  0  0
 26 29  1  0  0  0
M  CHG 1  26   1
M  END
> <minimizedAffinity>
-7.83446

$$$$
6GZD_LCI_A_1018


 29 32  0  0  0  0  0  0  0  0999 V2000
   -5.7359  -24.5642   -7.9952 F   0  0  0  0  0  0  0  0  0  0  0  0
   -5.1849  -23.4842   -7.4482 C   0  0  0  0  0  0  0  0  0  0  0  0
   -4.0364  -23.5962   -6.6894 C   0  0  0  0  0  0  0  0  0  0  0  0
   -3.4605  -22.4768   -6.1194 N   0  0  0  0  0  0  0  0  0  0  0  0
   -5.7524  -22.2374   -7.6329 C   0  0  0  0  0  0  0  0  0  0  0  0
   -5.1753  -21.1239   -7.0615 N   0  0  0  0  0  0  0  0  0  0  0  0
   -4.0313  -21.2345   -6.3060 C   0  0  0  0  0  0  0  0  0  0  0  0
   -6.9763  -22.0552   -8.4303 C   0  0  0  0  0  0  0  0  0  0  0  0
   -8.2286  -22.4679   -8.0419 C   0  0  0  0  0  0  0  0  0  0  0  0
   -9.0674  -22.1211   -9.0371 N   0  0  0  0  0  0  0  0  0  0  0  0
   -8.4272  -21.5538   -9.9598 N   0  0  0  0  0  0  0  0  0  0  0  0
   -9.0474  -21.0524  -11.1957 C   0  0  0  0  0  0  0  0  0  0  0  0
   -7.1229  -21.4754   -9.6599 C   0  0  0  0  0  0  0  0  0  0  0  0
   -6.0274  -20.8661  -10.5072 C   0  0  0  0  0  0  0  0  0  0  0  0
   -5.5782  -19.5345   -9.9106 C   0  0  0  0  0  0  0  0  0  0  0  0
   -5.6054  -18.4562  -10.9961 C   0  0  0  0  0  0  0  0  0  0  0  0
   -6.7419  -18.5458   -9.9784 C   0  0  0  0  0  0  0  0  0  0  0  0
   -3.4675  -20.0787   -5.7360 N   0  0  0  0  0  0  0  0  0  0  0  0
   -3.3807  -20.0035   -4.7583 H   0  0  0  0  0  0  0  0  0  0  0  0
   -3.0065  -18.9789   -6.6052 C   0  0  0  0  0  0  0  0  0  0  0  0
   -4.1069  -17.9214   -6.7028 C   0  0  0  0  0  0  0  0  0  0  0  0
   -3.6846  -16.8064   -7.6679 C   0  0  0  0  0  0  0  0  0  0  0  0
   -1.7068  -18.3265   -6.0942 C   0  0  0  0  0  0  0  0  0  0  0  0
   -1.2662  -17.2362   -7.0818 C   0  0  0  0  0  0  0  0  0  0  0  0
   -2.3645  -16.1685   -7.2049 C   0  0  0  0  0  0  0  0  0  0  0  0
   -1.9532  -15.1557   -8.1868 N   0  0  0  0  0  0  0  0  0  0  0  0
   -1.8165  -15.5987   -9.0953 H   0  0  0  0  0  0  0  0  0  0  0  0
   -1.0800  -14.7238   -7.8843 H   0  0  0  0  0  0  0  0  0  0  0  0
   -2.6775  -14.4415   -8.2623 H   0  0  0  0  0  0  0  0  0  0  0  0
 26 25  1  0  0  0
 25 22  1  0  0  0
 25 24  1  0  0  0
 22 21  1  0  0  0
 21 20  1  0  0  0
 24 23  1  0  0  0
 23 20  1  0  0  0
 20 18  1  0  0  0
 18  7  1  0  0  0
  7  4  2  0  0  0
  7  6  1  0  0  0
  4  3  1  0  0  0
  6  5  2  0  0  0
  3  2  2  0  0  0
 14 15  1  0  0  0
 14 13  1  0  0  0
 16 15  1  0  0  0
 16 17  1  0  0  0
  5  2  1  0  0  0
  5  8  1  0  0  0
 15 17  1  0  0  0
  2  1  1  0  0  0
 13  8  2  0  0  0
 13 11  1  0  0  0
  8  9  1  0  0  0
 11 12  1  0  0  0
 11 10  1  0  0  0
  9 10  2  0  0  0
 18 19  1  0  0  0
 26 27  1  0  0  0
 26 28  1  0  0  0
 26 29  1  0  0  0
M  CHG 1  26   1
M  END
> <minimizedAffinity>
-7.50047

$$$$
6GZD_LCI_A_1018


 29 32  0  0  0  0  0  0  0  0999 V2000
   -1.7377  -15.5169   -7.1669 F   0  0  0  0  0  0  0  0  0  0  0  0
   -2.7729  -15.8827   -7.9177 C   0  0  0  0  0  0  0  0  0  0  0  0
   -3.0940  -15.1705   -9.0567 C   0  0  0  0  0  0  0  0  0  0  0  0
   -4.1685  -15.5472   -9.8396 N   0  0  0  0  0  0  0  0  0  0  0  0
   -3.5388  -16.9795   -7.5696 C   0  0  0  0  0  0  0  0  0  0  0  0
   -4.6104  -17.3507   -8.3528 N   0  0  0  0  0  0  0  0  0  0  0  0
   -4.9306  -16.6423   -9.4874 C   0  0  0  0  0  0  0  0  0  0  0  0
   -3.2463  -17.7768   -6.3673 C   0  0  0  0  0  0  0  0  0  0  0  0
   -3.1176  -17.2590   -5.1005 C   0  0  0  0  0  0  0  0  0  0  0  0
   -2.8525  -18.3017   -4.2901 N   0  0  0  0  0  0  0  0  0  0  0  0
   -2.8125  -19.3662   -4.9596 N   0  0  0  0  0  0  0  0  0  0  0  0
   -2.5426  -20.6888   -4.3755 C   0  0  0  0  0  0  0  0  0  0  0  0
   -3.0455  -19.1249   -6.2576 C   0  0  0  0  0  0  0  0  0  0  0  0
   -3.0828  -20.1376   -7.3810 C   0  0  0  0  0  0  0  0  0  0  0  0
   -4.4871  -20.7205   -7.5193 C   0  0  0  0  0  0  0  0  0  0  0  0
   -4.6200  -21.4091   -8.8794 C   0  0  0  0  0  0  0  0  0  0  0  0
   -4.3821  -22.2420   -7.6205 C   0  0  0  0  0  0  0  0  0  0  0  0
   -6.0308  -17.0469  -10.2648 N   0  0  0  0  0  0  0  0  0  0  0  0
   -6.6211  -16.3724  -10.6721 H   0  0  0  0  0  0  0  0  0  0  0  0
   -6.2994  -18.4834  -10.4692 C   0  0  0  0  0  0  0  0  0  0  0  0
   -7.6527  -18.8341   -9.8491 C   0  0  0  0  0  0  0  0  0  0  0  0
   -7.9178  -20.3397   -9.9751 C   0  0  0  0  0  0  0  0  0  0  0  0
   -6.2955  -18.8796  -11.9588 C   0  0  0  0  0  0  0  0  0  0  0  0
   -6.5238  -20.3934  -12.0800 C   0  0  0  0  0  0  0  0  0  0  0  0
   -7.8741  -20.7698  -11.4506 C   0  0  0  0  0  0  0  0  0  0  0  0
   -8.0610  -22.2251  -11.5296 N   0  0  0  0  0  0  0  0  0  0  0  0
   -7.3132  -22.6923  -11.0169 H   0  0  0  0  0  0  0  0  0  0  0  0
   -8.0383  -22.5182  -12.5064 H   0  0  0  0  0  0  0  0  0  0  0  0
   -8.9614  -22.4750  -11.1205 H   0  0  0  0  0  0  0  0  0  0  0  0
 26 25  1  0  0  0
 25 22  1  0  0  0
 25 24  1  0  0  0
 22 21  1  0  0  0
 21 20  1  0  0  0
 24 23  1  0  0  0
 23 20  1  0  0  0
 20 18  1  0  0  0
 18  7  1  0  0  0
  7  4  2  0  0  0
  7  6  1  0  0  0
  4  3  1  0  0  0
  6  5  2  0  0  0
  3  2  2  0  0  0
 14 15  1  0  0  0
 14 13  1  0  0  0
 16 15  1  0  0  0
 16 17  1  0  0  0
  5  2  1  0  0  0
  5  8  1  0  0  0
 15 17  1  0  0  0
  2  1  1  0  0  0
 13  8  2  0  0  0
 13 11  1  0  0  0
  8  9  1  0  0  0
 11 12  1  0  0  0
 11 10  1  0  0  0
  9 10  2  0  0  0
 18 19  1  0  0  0
 26 27  1  0  0  0
 26 28  1  0  0  0
 26 29  1  0  0  0
M  CHG 1  26   1
M  END
> <minimizedAffinity>
-7.48877

$$$$
6GZD_LCI_A_1018


 29 32  0  0  0  0  0  0  0  0999 V2000
   -5.2869  -17.8981   -7.3500 F   0  0  0  0  0  0  0  0  0  0  0  0
   -5.1972  -19.0768   -7.9598 C   0  0  0  0  0  0  0  0  0  0  0  0
   -5.8839  -19.3071   -9.1358 C   0  0  0  0  0  0  0  0  0  0  0  0
   -5.7934  -20.5301   -9.7727 N   0  0  0  0  0  0  0  0  0  0  0  0
   -4.4157  -20.0846   -7.4266 C   0  0  0  0  0  0  0  0  0  0  0  0
   -4.3295  -21.3032   -8.0647 N   0  0  0  0  0  0  0  0  0  0  0  0
   -5.0127  -21.5332   -9.2360 C   0  0  0  0  0  0  0  0  0  0  0  0
   -3.6616  -19.8990   -6.1761 C   0  0  0  0  0  0  0  0  0  0  0  0
   -3.9758  -20.4987   -4.9798 C   0  0  0  0  0  0  0  0  0  0  0  0
   -3.0556  -20.0767   -4.0913 N   0  0  0  0  0  0  0  0  0  0  0  0
   -2.2456  -19.2938   -4.6514 N   0  0  0  0  0  0  0  0  0  0  0  0
   -1.1177  -18.6525   -3.9587 C   0  0  0  0  0  0  0  0  0  0  0  0
   -2.5543  -19.1306   -5.9458 C   0  0  0  0  0  0  0  0  0  0  0  0
   -1.8255  -18.2716   -6.9558 C   0  0  0  0  0  0  0  0  0  0  0  0
   -2.2601  -16.8143   -6.8200 C   0  0  0  0  0  0  0  0  0  0  0  0
   -1.2470  -15.9135   -7.5298 C   0  0  0  0  0  0  0  0  0  0  0  0
   -2.5706  -16.2604   -8.2103 C   0  0  0  0  0  0  0  0  0  0  0  0
   -4.9040  -22.7881   -9.8621 N   0  0  0  0  0  0  0  0  0  0  0  0
   -4.0709  -23.0382  -10.3232 H   0  0  0  0  0  0  0  0  0  0  0  0
   -6.0399  -23.7293   -9.8269 C   0  0  0  0  0  0  0  0  0  0  0  0
   -6.7912  -23.5599   -8.5056 C   0  0  0  0  0  0  0  0  0  0  0  0
   -7.9279  -24.5853   -8.4084 C   0  0  0  0  0  0  0  0  0  0  0  0
   -7.0134  -23.5255  -11.0044 C   0  0  0  0  0  0  0  0  0  0  0  0
   -8.1296  -24.5772  -10.9255 C   0  0  0  0  0  0  0  0  0  0  0  0
   -8.8900  -24.4330   -9.5980 C   0  0  0  0  0  0  0  0  0  0  0  0
   -9.9242  -25.4732   -9.5121 N   0  0  0  0  0  0  0  0  0  0  0  0
   -9.4848  -26.3931   -9.5456 H   0  0  0  0  0  0  0  0  0  0  0  0
  -10.5700  -25.3761  -10.2956 H   0  0  0  0  0  0  0  0  0  0  0  0
  -10.4358  -25.3725   -8.6354 H   0  0  0  0  0  0  0  0  0  0  0  0
 26 25  1  0  0  0
 25 22  1  0  0  0
 25 24  1  0  0  0
 22 21  1  0  0  0
 21 20  1  0  0  0
 24 23  1  0  0  0
 23 20  1  0  0  0
 20 18  1  0  0  0
 18  7  1  0  0  0
  7  4  2  0  0  0
  7  6  1  0  0  0
  4  3  1  0  0  0
  6  5  2  0  0  0
  3  2  2  0  0  0
 14 15  1  0  0  0
 14 13  1  0  0  0
 16 15  1  0  0  0
 16 17  1  0  0  0
  5  2  1  0  0  0
  5  8  1  0  0  0
 15 17  1  0  0  0
  2  1  1  0  0  0
 13  8  2  0  0  0
 13 11  1  0  0  0
  8  9  1  0  0  0
 11 12  1  0  0  0
 11 10  1  0  0  0
  9 10  2  0  0  0
 18 19  1  0  0  0
 26 27  1  0  0  0
 26 28  1  0  0  0
 26 29  1  0  0  0
M  CHG 1  26   1
M  END
> <minimizedAffinity>
-7.40612

$$$$
6GZD_LCI_A_1018


 29 32  0  0  0  0  0  0  0  0999 V2000
   -7.5806  -17.8611   -7.9097 F   0  0  0  0  0  0  0  0  0  0  0  0
   -7.0346  -19.0264   -8.2460 C   0  0  0  0  0  0  0  0  0  0  0  0
   -7.7271  -20.2044   -8.0451 C   0  0  0  0  0  0  0  0  0  0  0  0
   -7.1637  -21.4172   -8.3931 N   0  0  0  0  0  0  0  0  0  0  0  0
   -5.7698  -19.0739   -8.8015 C   0  0  0  0  0  0  0  0  0  0  0  0
   -5.2112  -20.2860   -9.1458 N   0  0  0  0  0  0  0  0  0  0  0  0
   -5.9003  -21.4595   -8.9465 C   0  0  0  0  0  0  0  0  0  0  0  0
   -4.9829  -17.8527   -9.0387 C   0  0  0  0  0  0  0  0  0  0  0  0
   -5.0310  -17.1058  -10.1916 C   0  0  0  0  0  0  0  0  0  0  0  0
   -4.1732  -16.0822  -10.0160 N   0  0  0  0  0  0  0  0  0  0  0  0
   -3.6339  -16.1640   -8.8822 N   0  0  0  0  0  0  0  0  0  0  0  0
   -2.6439  -15.2006   -8.3772 C   0  0  0  0  0  0  0  0  0  0  0  0
   -4.0825  -17.2365   -8.2145 C   0  0  0  0  0  0  0  0  0  0  0  0
   -3.6791  -17.6803   -6.8255 C   0  0  0  0  0  0  0  0  0  0  0  0
   -2.5810  -18.7379   -6.9078 C   0  0  0  0  0  0  0  0  0  0  0  0
   -1.5172  -18.4499   -5.8462 C   0  0  0  0  0  0  0  0  0  0  0  0
   -2.5653  -19.5354   -5.6039 C   0  0  0  0  0  0  0  0  0  0  0  0
   -5.3020  -22.6799   -9.3082 N   0  0  0  0  0  0  0  0  0  0  0  0
   -5.2484  -22.9406  -10.2561 H   0  0  0  0  0  0  0  0  0  0  0  0
   -4.7545  -23.5691   -8.2655 C   0  0  0  0  0  0  0  0  0  0  0  0
   -4.3172  -22.7265   -7.0665 C   0  0  0  0  0  0  0  0  0  0  0  0
   -3.6677  -23.6194   -6.0016 C   0  0  0  0  0  0  0  0  0  0  0  0
   -5.7683  -24.6352   -7.8056 C   0  0  0  0  0  0  0  0  0  0  0  0
   -5.1033  -25.5506   -6.7672 C   0  0  0  0  0  0  0  0  0  0  0  0
   -4.6441  -24.7211   -5.5579 C   0  0  0  0  0  0  0  0  0  0  0  0
   -3.9677  -25.5983   -4.5925 N   0  0  0  0  0  0  0  0  0  0  0  0
   -3.1521  -26.0239   -5.0331 H   0  0  0  0  0  0  0  0  0  0  0  0
   -4.6107  -26.3297   -4.2891 H   0  0  0  0  0  0  0  0  0  0  0  0
   -3.6708  -25.0503   -3.7851 H   0  0  0  0  0  0  0  0  0  0  0  0
 26 25  1  0  0  0
 25 22  1  0  0  0
 25 24  1  0  0  0
 22 21  1  0  0  0
 21 20  1  0  0  0
 24 23  1  0  0  0
 23 20  1  0  0  0
 20 18  1  0  0  0
 18  7  1  0  0  0
  7  4  2  0  0  0
  7  6  1  0  0  0
  4  3  1  0  0  0
  6  5  2  0  0  0
  3  2  2  0  0  0
 14 15  1  0  0  0
 14 13  1  0  0  0
 16 15  1  0  0  0
 16 17  1  0  0  0
  5  2  1  0  0  0
  5  8  1  0  0  0
 15 17  1  0  0  0
  2  1  1  0  0  0
 13  8  2  0  0  0
 13 11  1  0  0  0
  8  9  1  0  0  0
 11 12  1  0  0  0
 11 10  1  0  0  0
  9 10  2  0  0  0
 18 19  1  0  0  0
 26 27  1  0  0  0
 26 28  1  0  0  0
 26 29  1  0  0  0
M  CHG 1  26   1
M  END
> <minimizedAffinity>
-7.38243

$$$$
6GZD_LCI_A_1018


 29 32  0  0  0  0  0  0  0  0999 V2000
   -3.9392  -25.0360   -6.6448 F   0  0  0  0  0  0  0  0  0  0  0  0
   -4.2088  -23.7342   -6.6015 C   0  0  0  0  0  0  0  0  0  0  0  0
   -3.4926  -22.9015   -5.7641 C   0  0  0  0  0  0  0  0  0  0  0  0
   -3.7693  -21.5485   -5.7162 N   0  0  0  0  0  0  0  0  0  0  0  0
   -5.2066  -23.1980   -7.3938 C   0  0  0  0  0  0  0  0  0  0  0  0
   -5.4800  -21.8482   -7.3417 N   0  0  0  0  0  0  0  0  0  0  0  0
   -4.7670  -21.0182   -6.5084 C   0  0  0  0  0  0  0  0  0  0  0  0
   -6.0042  -24.0349   -8.3050 C   0  0  0  0  0  0  0  0  0  0  0  0
   -6.6976  -25.1593   -7.9250 C   0  0  0  0  0  0  0  0  0  0  0  0
   -7.2891  -25.6339   -9.0382 N   0  0  0  0  0  0  0  0  0  0  0  0
   -7.0058  -24.9007  -10.0206 N   0  0  0  0  0  0  0  0  0  0  0  0
   -7.4915  -25.1429  -11.3876 C   0  0  0  0  0  0  0  0  0  0  0  0
   -6.2111  -23.8871   -9.6485 C   0  0  0  0  0  0  0  0  0  0  0  0
   -5.6535  -22.7935  -10.5329 C   0  0  0  0  0  0  0  0  0  0  0  0
   -6.6452  -21.6368  -10.6302 C   0  0  0  0  0  0  0  0  0  0  0  0
   -5.9019  -20.3126  -10.4405 C   0  0  0  0  0  0  0  0  0  0  0  0
   -6.2862  -20.7797  -11.8439 C   0  0  0  0  0  0  0  0  0  0  0  0
   -5.0711  -19.6452   -6.4783 N   0  0  0  0  0  0  0  0  0  0  0  0
   -5.9166  -19.3364   -6.0796 H   0  0  0  0  0  0  0  0  0  0  0  0
   -4.1215  -18.6682   -7.0450 C   0  0  0  0  0  0  0  0  0  0  0  0
   -4.8895  -17.6611   -7.9023 C   0  0  0  0  0  0  0  0  0  0  0  0
   -3.9144  -16.6834   -8.5704 C   0  0  0  0  0  0  0  0  0  0  0  0
   -3.3242  -17.9199   -5.9586 C   0  0  0  0  0  0  0  0  0  0  0  0
   -2.3228  -16.9693   -6.6309 C   0  0  0  0  0  0  0  0  0  0  0  0
   -3.0736  -15.9557   -7.5086 C   0  0  0  0  0  0  0  0  0  0  0  0
   -2.1042  -15.0818   -8.1836 N   0  0  0  0  0  0  0  0  0  0  0  0
   -1.4926  -15.6450   -8.7745 H   0  0  0  0  0  0  0  0  0  0  0  0
   -1.5451  -14.5912   -7.4856 H   0  0  0  0  0  0  0  0  0  0  0  0
   -2.6019  -14.4026   -8.7592 H   0  0  0  0  0  0  0  0  0  0  0  0
 26 25  1  0  0  0
 25 22  1  0  0  0
 25 24  1  0  0  0
 22 21  1  0  0  0
 21 20  1  0  0  0
 24 23  1  0  0  0
 23 20  1  0  0  0
 20 18  1  0  0  0
 18  7  1  0  0  0
  7  4  2  0  0  0
  7  6  1  0  0  0
  4  3  1  0  0  0
  6  5  2  0  0  0
  3  2  2  0  0  0
 14 15  1  0  0  0
 14 13  1  0  0  0
 16 15  1  0  0  0
 16 17  1  0  0  0
  5  2  1  0  0  0
  5  8  1  0  0  0
 15 17  1  0  0  0
  2  1  1  0  0  0
 13  8  2  0  0  0
 13 11  1  0  0  0
  8  9  1  0  0  0
 11 12  1  0  0  0
 11 10  1  0  0  0
  9 10  2  0  0  0
 18 19  1  0  0  0
 26 27  1  0  0  0
 26 28  1  0  0  0
 26 29  1  0  0  0
M  CHG 1  26   1
M  END
> <minimizedAffinity>
-7.34584

$$$$
6GZD_LCI_A_1018


 29 32  0  0  0  0  0  0  0  0999 V2000
   -7.0101  -15.7229  -11.1706 F   0  0  0  0  0  0  0  0  0  0  0  0
   -6.8180  -17.0203  -11.3924 C   0  0  0  0  0  0  0  0  0  0  0  0
   -7.6090  -17.6967  -12.3004 C   0  0  0  0  0  0  0  0  0  0  0  0
   -7.4128  -19.0444  -12.5340 N   0  0  0  0  0  0  0  0  0  0  0  0
   -5.8250  -17.7073  -10.7196 C   0  0  0  0  0  0  0  0  0  0  0  0
   -5.6338  -19.0518  -10.9548 N   0  0  0  0  0  0  0  0  0  0  0  0
   -6.4208  -19.7260  -11.8592 C   0  0  0  0  0  0  0  0  0  0  0  0
   -4.9513  -17.0411   -9.7399 C   0  0  0  0  0  0  0  0  0  0  0  0
   -4.1335  -15.9734  -10.0237 C   0  0  0  0  0  0  0  0  0  0  0  0
   -3.5053  -15.6612   -8.8738 N   0  0  0  0  0  0  0  0  0  0  0  0
   -3.8747  -16.4406   -7.9578 N   0  0  0  0  0  0  0  0  0  0  0  0
   -3.3759  -16.3713   -6.5758 C   0  0  0  0  0  0  0  0  0  0  0  0
   -4.7703  -17.3271   -8.4151 C   0  0  0  0  0  0  0  0  0  0  0  0
   -5.4505  -18.4253   -7.6274 C   0  0  0  0  0  0  0  0  0  0  0  0
   -4.5760  -19.6766   -7.6038 C   0  0  0  0  0  0  0  0  0  0  0  0
   -4.1047  -19.9404   -6.1720 C   0  0  0  0  0  0  0  0  0  0  0  0
   -5.2658  -20.7447   -6.7554 C   0  0  0  0  0  0  0  0  0  0  0  0
   -6.2003  -21.0982  -12.0759 N   0  0  0  0  0  0  0  0  0  0  0  0
   -5.7023  -21.3978  -12.8706 H   0  0  0  0  0  0  0  0  0  0  0  0
   -6.7163  -22.0883  -11.1109 C   0  0  0  0  0  0  0  0  0  0  0  0
   -5.5945  -22.4841  -10.1499 C   0  0  0  0  0  0  0  0  0  0  0  0
   -6.0826  -23.5748   -9.1880 C   0  0  0  0  0  0  0  0  0  0  0  0
   -7.9214  -21.5594  -10.3085 C   0  0  0  0  0  0  0  0  0  0  0  0
   -8.4312  -22.6660   -9.3737 C   0  0  0  0  0  0  0  0  0  0  0  0
   -7.3141  -23.0882   -8.4067 C   0  0  0  0  0  0  0  0  0  0  0  0
   -7.7972  -24.1791   -7.5489 N   0  0  0  0  0  0  0  0  0  0  0  0
   -8.0556  -24.9780   -8.1280 H   0  0  0  0  0  0  0  0  0  0  0  0
   -8.6118  -23.8627   -7.0229 H   0  0  0  0  0  0  0  0  0  0  0  0
   -7.0594  -24.4538   -6.9003 H   0  0  0  0  0  0  0  0  0  0  0  0
 26 25  1  0  0  0
 25 22  1  0  0  0
 25 24  1  0  0  0
 22 21  1  0  0  0
 21 20  1  0  0  0
 24 23  1  0  0  0
 23 20  1  0  0  0
 20 18  1  0  0  0
 18  7  1  0  0  0
  7  4  2  0  0  0
  7  6  1  0  0  0
  4  3  1  0  0  0
  6  5  2  0  0  0
  3  2  2  0  0  0
 14 15  1  0  0  0
 14 13  1  0  0  0
 16 15  1  0  0  0
 16 17  1  0  0  0
  5  2  1  0  0  0
  5  8  1  0  0  0
 15 17  1  0  0  0
  2  1  1  0  0  0
 13  8  2  0  0  0
 13 11  1  0  0  0
  8  9  1  0  0  0
 11 12  1  0  0  0
 11 10  1  0  0  0
  9 10  2  0  0  0
 18 19  1  0  0  0
 26 27  1  0  0  0
 26 28  1  0  0  0
 26 29  1  0  0  0
M  CHG 1  26   1
M  END
> <minimizedAffinity>
-7.25199

$$$$
6GZD_LCI_A_1018


 29 32  0  0  0  0  0  0  0  0999 V2000
   -1.3564  -18.1385   -6.8616 F   0  0  0  0  0  0  0  0  0  0  0  0
   -2.4436  -17.7622   -7.5292 C   0  0  0  0  0  0  0  0  0  0  0  0
   -2.4218  -16.6244   -8.3119 C   0  0  0  0  0  0  0  0  0  0  0  0
   -3.5489  -16.2299   -9.0072 N   0  0  0  0  0  0  0  0  0  0  0  0
   -3.6070  -18.5043   -7.4500 C   0  0  0  0  0  0  0  0  0  0  0  0
   -4.7292  -18.1063   -8.1442 N   0  0  0  0  0  0  0  0  0  0  0  0
   -4.7083  -16.9736   -8.9242 C   0  0  0  0  0  0  0  0  0  0  0  0
   -3.6915  -19.7251   -6.6318 C   0  0  0  0  0  0  0  0  0  0  0  0
   -3.6437  -19.7480   -5.2583 C   0  0  0  0  0  0  0  0  0  0  0  0
   -3.7503  -21.0413   -4.8971 N   0  0  0  0  0  0  0  0  0  0  0  0
   -3.8518  -21.7658   -5.9207 N   0  0  0  0  0  0  0  0  0  0  0  0
   -3.9829  -23.2301   -5.8753 C   0  0  0  0  0  0  0  0  0  0  0  0
   -3.8222  -21.0244   -7.0373 C   0  0  0  0  0  0  0  0  0  0  0  0
   -3.9166  -21.5199   -8.4637 C   0  0  0  0  0  0  0  0  0  0  0  0
   -5.3731  -21.5345   -8.9216 C   0  0  0  0  0  0  0  0  0  0  0  0
   -5.4784  -22.2731  -10.2577 C   0  0  0  0  0  0  0  0  0  0  0  0
   -5.8639  -22.9815   -8.9597 C   0  0  0  0  0  0  0  0  0  0  0  0
   -5.8706  -16.5944   -9.6197 N   0  0  0  0  0  0  0  0  0  0  0  0
   -6.2231  -15.6797   -9.5284 H   0  0  0  0  0  0  0  0  0  0  0  0
   -6.5611  -17.5690  -10.4863 C   0  0  0  0  0  0  0  0  0  0  0  0
   -7.5532  -16.8279  -11.3837 C   0  0  0  0  0  0  0  0  0  0  0  0
   -8.3440  -17.8281  -12.2364 C   0  0  0  0  0  0  0  0  0  0  0  0
   -5.5835  -18.3818  -11.3578 C   0  0  0  0  0  0  0  0  0  0  0  0
   -6.3746  -19.4077  -12.1824 C   0  0  0  0  0  0  0  0  0  0  0  0
   -7.3878  -18.6840  -13.0831 C   0  0  0  0  0  0  0  0  0  0  0  0
   -8.1711  -19.6761  -13.8322 N   0  0  0  0  0  0  0  0  0  0  0  0
   -8.6754  -20.2751  -13.1785 H   0  0  0  0  0  0  0  0  0  0  0  0
   -7.5442  -20.2454  -14.4007 H   0  0  0  0  0  0  0  0  0  0  0  0
   -8.8376  -19.1965  -14.4374 H   0  0  0  0  0  0  0  0  0  0  0  0
 26 25  1  0  0  0
 25 22  1  0  0  0
 25 24  1  0  0  0
 22 21  1  0  0  0
 21 20  1  0  0  0
 24 23  1  0  0  0
 23 20  1  0  0  0
 20 18  1  0  0  0
 18  7  1  0  0  0
  7  4  2  0  0  0
  7  6  1  0  0  0
  4  3  1  0  0  0
  6  5  2  0  0  0
  3  2  2  0  0  0
 14 15  1  0  0  0
 14 13  1  0  0  0
 16 15  1  0  0  0
 16 17  1  0  0  0
  5  2  1  0  0  0
  5  8  1  0  0  0
 15 17  1  0  0  0
  2  1  1  0  0  0
 13  8  2  0  0  0
 13 11  1  0  0  0
  8  9  1  0  0  0
 11 12  1  0  0  0
 11 10  1  0  0  0
  9 10  2  0  0  0
 18 19  1  0  0  0
 26 27  1  0  0  0
 26 28  1  0  0  0
 26 29  1  0  0  0
M  CHG 1  26   1
M  END
> <minimizedAffinity>
-7.23875

$$$$
