1NT1_T76_A_247


 38 41  0  0  0  0  0  0  0  0999 V2000
   13.2595  -11.6786   21.7496 C   0  0  0  0  0  0  0  0  0  0  0  0
   12.6685  -12.8571   22.1639 C   0  0  0  0  0  0  0  0  0  0  0  0
   11.6898  -12.8567   23.1961 C   0  0  0  0  0  0  0  0  0  0  0  0
   11.3835  -11.6699   23.8631 C   0  0  0  0  0  0  0  0  0  0  0  0
   12.0699  -10.4984   23.5217 C   0  0  0  0  0  0  0  0  0  0  0  0
   12.9914  -10.4880   22.4435 C   0  0  0  0  0  0  0  0  0  0  0  0
   14.1322  -11.6767   20.5172 C   0  0  0  0  0  0  0  0  0  0  0  0
   15.5700  -11.6621   20.8202 N   0  0  0  0  0  0  0  0  0  0  0  0
   16.2999  -12.7867   20.5941 C   0  0  0  0  0  0  0  0  0  0  0  0
   17.7836  -12.6492   20.8642 C   0  0  0  0  0  0  0  0  0  0  0  0
   15.8425  -13.8894   20.2768 O   0  0  0  0  0  0  0  0  0  0  0  0
   13.1072  -14.0534   21.5919 O   0  0  0  0  0  0  0  0  0  0  0  0
   18.5831  -12.7720   19.5540 C   0  0  0  0  0  0  0  0  0  0  0  0
   19.9566  -13.3020   19.9859 C   0  0  0  0  0  0  0  0  0  0  0  0
   19.5326  -14.3487   21.0228 C   0  0  0  0  0  0  0  0  0  0  0  0
   18.3075  -13.8125   21.5917 N   0  0  0  0  0  0  0  0  0  0  0  0
   17.6576  -14.2719   22.6886 C   0  0  0  0  0  0  0  0  0  0  0  0
   18.2652  -15.5151   23.3160 C   0  0  0  0  0  0  0  0  0  0  0  0
   17.2467  -16.5650   23.3749 N   0  0  0  0  0  0  0  0  0  0  0  0
   17.1469  -17.3435   22.2666 C   0  0  0  0  0  0  0  0  0  0  0  0
   18.0000  -17.3940   21.3587 O   0  0  0  0  0  0  0  0  0  0  0  0
   15.8281  -18.0952   22.1620 C   0  0  0  0  0  0  0  0  0  0  0  0
   15.0322  -17.5299   20.9700 C   0  0  0  0  0  0  0  0  0  0  0  0
   14.3544  -16.2583   21.3056 N   0  0  0  0  0  0  0  0  0  0  0  0
   13.1216  -16.4121   21.8367 C   0  0  0  0  0  0  0  0  0  0  0  0
   12.5743  -17.4992   22.0198 O   0  0  0  0  0  0  0  0  0  0  0  0
   12.4448  -15.1298   22.2150 C   0  0  0  0  0  0  0  0  0  0  0  0
   16.5831  -13.8199   23.1073 O   0  0  0  0  0  0  0  0  0  0  0  0
   11.8088   -9.0666   24.4699 Cl  0  0  0  0  0  0  0  0  0  0  0  0
   15.9975  -10.8518   21.1808 H   0  0  0  0  0  0  0  0  0  0  0  0
   16.6733  -16.6976   24.1641 H   0  0  0  0  0  0  0  0  0  0  0  0
   14.7660  -15.3767   21.1550 H   0  0  0  0  0  0  0  0  0  0  0  0
   18.7865  -15.1526   24.7213 C   0  0  0  0  0  0  0  0  0  0  0  0
   19.0449  -16.3931   25.5838 C   0  0  0  0  0  0  0  0  0  0  0  0
   19.5832  -15.9896   26.9670 C   0  0  0  0  0  0  0  0  0  0  0  0
   20.8701  -15.1624   26.8082 C   0  0  0  0  0  0  0  0  0  0  0  0
   20.6005  -13.9086   25.9664 C   0  0  0  0  0  0  0  0  0  0  0  0
   20.0535  -14.3025   24.5952 C   0  0  0  0  0  0  0  0  0  0  0  0
  1  2  2  0  0  0
  1  6  1  0  0  0
  1  7  1  0  0  0
  2  3  1  0  0  0
  2 12  1  0  0  0
  3  4  2  0  0  0
  4  5  1  0  0  0
  5  6  2  0  0  0
  5 29  1  0  0  0
  7  8  1  0  0  0
  8  9  1  0  0  0
  9 10  1  0  0  0
  9 11  2  0  0  0
 10 13  1  0  0  0
 10 16  1  0  0  0
 12 27  1  0  0  0
 13 14  1  0  0  0
 14 15  1  0  0  0
 15 16  1  0  0  0
 16 17  1  0  0  0
 17 18  1  0  0  0
 17 28  2  0  0  0
 18 19  1  0  0  0
 18 33  1  0  0  0
 19 20  1  0  0  0
 20 21  2  0  0  0
 20 22  1  0  0  0
 22 23  1  0  0  0
 23 24  1  0  0  0
 24 25  1  0  0  0
 25 26  2  0  0  0
 25 27  1  0  0  0
 33 34  1  0  0  0
 33 38  1  0  0  0
 34 35  1  0  0  0
 35 36  1  0  0  0
 36 37  1  0  0  0
 37 38  1  0  0  0
  8 30  1  0  0  0
 19 31  1  0  0  0
 24 32  1  0  0  0
M  END
> <minimizedAffinity>
-13.97662

$$$$
