1YEI_PGG_L_551
  RCSB PDB12061704453D
Coordinates from PDB:1YEI:L:551 Model:1 without hydrogens
 23 23  0  0  0  0            999 V2000
   11.8160   37.6100   61.7770   C 0  0  0  0  0  0  0  0  0  0  0  0
   11.6170   38.9150   61.3230   C 0  0  0  0  0  0  0  0  0  0  0  0
   10.3510   39.4890   61.4830   C 0  0  0  0  0  0  0  0  0  0  0  0
    9.3390   38.7460   62.0880   C 0  0  0  0  0  0  0  0  0  0  0  0
    9.5750   37.4180   62.5310   C 0  0  0  0  0  0  0  0  0  0  0  0
   10.8320   36.8280   62.3770   C 0  0  0  0  0  0  0  0  0  0  0  0
   14.2800   37.6130   62.6360   P 0  0  0  0  0  0  0  0  0  0  0  0
   13.0930   37.0790   61.6490   O 0  0  0  0  0  0  0  0  0  0  0  0
   14.4440   39.0080   62.3740   O 0  0  0  0  0  0  0  0  0  0  0  0
   13.9260   37.2270   63.9920   O 0  0  0  0  0  0  0  0  0  0  0  0
   15.6960   36.7280   62.1440   C 0  0  0  0  0  0  0  0  0  0  0  0
   16.1100   36.8950   60.6990   C 0  0  0  0  0  0  0  0  0  0  0  0
   17.3960   36.1000   60.5310   C 0  0  0  0  0  0  0  0  0  0  0  0
   17.8600   35.9380   59.0990   C 0  0  0  0  0  0  0  0  0  0  0  0
   17.5560   34.7760   58.4840   N 0  0  0  0  0  0  0  0  0  0  0  0
   18.4960   36.8780   58.5530   O 0  0  0  0  0  0  0  0  0  0  0  0
   17.8940   34.4970   57.2240   C 0  0  0  0  0  0  0  0  0  0  0  0
   16.7390   34.7250   56.2150   C 0  0  0  0  0  0  0  0  0  0  0  0
   16.6240   33.9260   55.2600   O 0  0  0  0  0  0  0  0  0  0  0  0
   16.2180   35.8600   56.1190   O 0  0  0  0  0  0  0  0  0  0  0  0
    8.0100   39.3660   62.3160   N 0  3  0  0  0  0  0  0  0  0  0  0
    7.7370   40.5310   61.9380   O 0  0  0  0  0  0  0  0  0  0  0  0
    7.1700   38.7140   62.9130   O 0  5  0  0  0  0  0  0  0  0  0  0
  1  2  2  0  0  0  0
  1  6  1  0  0  0  0
  1  8  1  0  0  0  0
  2  3  1  0  0  0  0
  3  4  2  0  0  0  0
  4  5  1  0  0  0  0
  4 21  1  0  0  0  0
  5  6  2  0  0  0  0
  7  8  1  0  0  0  0
  7  9  1  0  0  0  0
  7 10  2  0  0  0  0
  7 11  1  0  0  0  0
 11 12  1  0  0  0  0
 12 13  1  0  0  0  0
 13 14  1  0  0  0  0
 14 15  1  0  0  0  0
 14 16  2  0  0  0  0
 15 17  1  0  0  0  0
 17 18  1  0  0  0  0
 18 19  1  0  0  0  0
 18 20  2  0  0  0  0
 21 22  2  0  0  0  0
 21 23  1  0  0  0  0
M  CHG  2  21   1  23  -1
A    1
C1
A    2
C2
A    3
C3
A    4
C4
A    5
C5
A    6
C6
A    7
P1
A    8
O1
A    9
O2
A   10
O3
A   11
C8
A   12
C9
A   13
C10
A   14
C11
A   15
N2
A   16
O6
A   17
C12
A   18
C13
A   19
O7
A   20
O8
A   21
N1
A   22
O4
A   23
O5
M  END
>  <InstanceId>
1YEI_PGG_L_551

>  <ChemCompId>
PGG

>  <PdbId>
1YEI

>  <ChainId>
L

>  <ResidueNumber>
551

>  <InsertionCode>


>  <Model>
1

>  <AltIds>


>  <MissingHeavyAtoms>
0

>  <ObservedFormula>
C12 N2 O8 P

>  <Name>
PARA-NITROPHENYLPHOSPHONOBUTANOYL-GLYCINE

>  <SystematicName>
2-[4-[hydroxy-(4-nitrophenoxy)phosphoryl]butanoylamino]ethanoic acid

>  <Synonyms>
N-PYRIDOXYL-3-[2-AMINO-ETHOXY-METHYLENE]ALANINE-5-MONOPHOSPHATE

>  <Type>
NON-POLYMER

>  <Formula>
C12 H15 N2 O8 P

>  <MolecularWeight>
346.23

>  <ModifiedDate>
2011-06-04

>  <Parent>


>  <OneLetterCode>


>  <SubcomponentList>


>  <AmbiguousFlag>
N

>  <InChI>
InChI=1S/C12H15N2O8P/c15-11(13-8-12(16)17)2-1-7-23(20,21)22-10-5-3-9(4-6-10)14(18)19/h3-6H,1-2,7-8H2,(H,13,15)(H,16,17)(H,20,21)

>  <InChIKey>
WLNKGRQBMNPVSJ-UHFFFAOYSA-N

>  <SMILES>
c1cc(ccc1[N+](=O)[O-])O[P@@](=O)(CCCC(=O)NCC(=O)O)O

$$$$
