3GQZ_GF7_A_362


 19 20  0  0  0  0  0  0  0  0999 V2000
  -34.3091    7.6655   19.5853 N   0  0  0  0  0  0  0  0  0  0  0  0
  -35.2827    7.1451   20.3140 C   0  0  0  0  0  0  0  0  0  0  0  0
  -35.4174    7.2162   21.5311 O   0  0  0  0  0  0  0  0  0  0  0  0
  -34.3668    7.4970   18.1445 C   0  0  0  0  0  0  0  0  0  0  0  0
  -35.7078    6.7672   18.0082 C   0  0  0  0  0  0  0  0  0  0  0  0
  -36.2399    6.4185   19.4023 C   0  0  0  0  0  0  0  0  0  0  0  0
  -31.1178    9.7358   21.3337 C   0  0  0  0  0  0  0  0  0  0  0  0
  -32.2159   10.4315   20.8253 C   0  0  0  0  0  0  0  0  0  0  0  0
  -33.2733    9.7376   20.2445 C   0  0  0  0  0  0  0  0  0  0  0  0
  -31.0856    8.3414   21.2580 C   0  0  0  0  0  0  0  0  0  0  0  0
  -32.1424    7.6435   20.6775 C   0  0  0  0  0  0  0  0  0  0  0  0
  -33.2355    8.3459   20.1710 C   0  0  0  0  0  0  0  0  0  0  0  0
  -29.0806    9.8395   22.5107 O   0  0  0  0  0  0  0  0  0  0  0  0
  -29.9709   10.4738   21.9665 C   0  0  0  0  0  0  0  0  0  0  0  0
  -29.9320   11.9748   21.9386 C   0  0  0  0  0  0  0  0  0  0  0  0
  -35.5637    5.5435   17.1410 C   0  0  0  0  0  0  0  0  0  0  0  0
  -34.8556    4.5908   17.5355 O   0  0  0  0  0  0  0  0  0  0  0  0
  -36.1404    5.5328   16.0273 O   0  0  0  0  0  0  0  0  0  0  0  0
  -36.6635    6.2641   15.7635 H   0  0  0  0  0  0  0  0  0  0  0  0
 13 14  2  0  0  0
 14  7  1  0  0  0
 14 15  1  0  0  0
 10  7  2  0  0  0
  7  8  1  0  0  0
  8  9  2  0  0  0
 12  9  1  0  0  0
 10 11  1  0  0  0
 11 12  2  0  0  0
 12  1  1  0  0  0
  2  1  1  0  0  0
  1  4  1  0  0  0
  3  2  2  0  0  0
  2  6  1  0  0  0
  4  5  1  0  0  0
  6  5  1  0  0  0
  5 16  1  0  0  0
 16 17  2  0  0  0
 16 18  1  0  0  0
 18 19  1  0  0  0
M  END
> <minimizedAffinity>
-8.29708

$$$$
3GQZ_GF7_A_362


 19 20  0  0  0  0  0  0  0  0999 V2000
  -29.8880   11.5490   23.0400 N   0  0  0  0  0  0  0  0  0  0  0  0
  -29.4608   12.6356   22.4183 C   0  0  0  0  0  0  0  0  0  0  0  0
  -29.5936   12.9110   21.2304 O   0  0  0  0  0  0  0  0  0  0  0  0
  -29.6600   11.4438   24.4699 C   0  0  0  0  0  0  0  0  0  0  0  0
  -29.0084   12.8038   24.7437 C   0  0  0  0  0  0  0  0  0  0  0  0
  -28.7548   13.5219   23.4139 C   0  0  0  0  0  0  0  0  0  0  0  0
  -31.7657    8.4206   20.9871 C   0  0  0  0  0  0  0  0  0  0  0  0
  -30.4427    8.2911   21.4127 C   0  0  0  0  0  0  0  0  0  0  0  0
  -29.8237    9.3349   22.0939 C   0  0  0  0  0  0  0  0  0  0  0  0
  -32.4652    9.6009   21.2488 C   0  0  0  0  0  0  0  0  0  0  0  0
  -31.8489   10.6479   21.9307 C   0  0  0  0  0  0  0  0  0  0  0  0
  -30.5265   10.5111   22.3517 C   0  0  0  0  0  0  0  0  0  0  0  0
  -31.9281    6.1931   20.2400 O   0  0  0  0  0  0  0  0  0  0  0  0
  -32.4464    7.2987   20.2532 C   0  0  0  0  0  0  0  0  0  0  0  0
  -33.7423    7.5433   19.5350 C   0  0  0  0  0  0  0  0  0  0  0  0
  -27.7411   12.6376   25.5416 C   0  0  0  0  0  0  0  0  0  0  0  0
  -26.8601   11.8469   25.1377 O   0  0  0  0  0  0  0  0  0  0  0  0
  -27.6232   13.2819   26.6112 O   0  0  0  0  0  0  0  0  0  0  0  0
  -28.3033   13.8660   26.8836 H   0  0  0  0  0  0  0  0  0  0  0  0
 13 14  2  0  0  0
 14  7  1  0  0  0
 14 15  1  0  0  0
 10  7  2  0  0  0
  7  8  1  0  0  0
  8  9  2  0  0  0
 12  9  1  0  0  0
 10 11  1  0  0  0
 11 12  2  0  0  0
 12  1  1  0  0  0
  2  1  1  0  0  0
  1  4  1  0  0  0
  3  2  2  0  0  0
  2  6  1  0  0  0
  4  5  1  0  0  0
  6  5  1  0  0  0
  5 16  1  0  0  0
 16 17  2  0  0  0
 16 18  1  0  0  0
 18 19  1  0  0  0
M  END
> <minimizedAffinity>
-8.22226

$$$$
3GQZ_GF7_A_362


 19 20  0  0  0  0  0  0  0  0999 V2000
  -34.3374    6.8317   20.4141 N   0  0  0  0  0  0  0  0  0  0  0  0
  -34.4670    6.3411   19.1925 C   0  0  0  0  0  0  0  0  0  0  0  0
  -33.6863    6.4690   18.2552 O   0  0  0  0  0  0  0  0  0  0  0  0
  -35.3668    6.5213   21.3896 C   0  0  0  0  0  0  0  0  0  0  0  0
  -36.2594    5.5924   20.5591 C   0  0  0  0  0  0  0  0  0  0  0  0
  -35.7642    5.5758   19.1090 C   0  0  0  0  0  0  0  0  0  0  0  0
  -31.1237    9.2972   21.4727 C   0  0  0  0  0  0  0  0  0  0  0  0
  -32.3472    9.8550   21.0986 C   0  0  0  0  0  0  0  0  0  0  0  0
  -33.4116    9.0302   20.7470 C   0  0  0  0  0  0  0  0  0  0  0  0
  -30.9728    7.9087   21.4935 C   0  0  0  0  0  0  0  0  0  0  0  0
  -32.0362    7.0799   21.1424 C   0  0  0  0  0  0  0  0  0  0  0  0
  -33.2551    7.6450   20.7689 C   0  0  0  0  0  0  0  0  0  0  0  0
  -28.9549    9.6683   22.3121 O   0  0  0  0  0  0  0  0  0  0  0  0
  -29.9675   10.1776   21.8579 C   0  0  0  0  0  0  0  0  0  0  0  0
  -30.0666   11.6674   21.6963 C   0  0  0  0  0  0  0  0  0  0  0  0
  -37.7028    6.0139   20.6537 C   0  0  0  0  0  0  0  0  0  0  0  0
  -38.0619    7.0959   20.1388 O   0  0  0  0  0  0  0  0  0  0  0  0
  -38.4989    5.2727   21.2781 O   0  0  0  0  0  0  0  0  0  0  0  0
  -38.1956    4.4685   21.6513 H   0  0  0  0  0  0  0  0  0  0  0  0
 13 14  2  0  0  0
 14  7  1  0  0  0
 14 15  1  0  0  0
 10  7  2  0  0  0
  7  8  1  0  0  0
  8  9  2  0  0  0
 12  9  1  0  0  0
 10 11  1  0  0  0
 11 12  2  0  0  0
 12  1  1  0  0  0
  2  1  1  0  0  0
  1  4  1  0  0  0
  3  2  2  0  0  0
  2  6  1  0  0  0
  4  5  1  0  0  0
  6  5  1  0  0  0
  5 16  1  0  0  0
 16 17  2  0  0  0
 16 18  1  0  0  0
 18 19  1  0  0  0
M  END
> <minimizedAffinity>
-7.96155

$$$$
3GQZ_GF7_A_362


 19 20  0  0  0  0  0  0  0  0999 V2000
  -34.6971    7.7322   19.6211 N   0  0  0  0  0  0  0  0  0  0  0  0
  -34.8729    7.6253   18.3144 C   0  0  0  0  0  0  0  0  0  0  0  0
  -34.0717    7.9155   17.4321 O   0  0  0  0  0  0  0  0  0  0  0  0
  -35.7680    7.2879   20.4948 C   0  0  0  0  0  0  0  0  0  0  0  0
  -36.7596    6.7471   19.4586 C   0  0  0  0  0  0  0  0  0  0  0  0
  -36.2540    7.0792   18.0507 C   0  0  0  0  0  0  0  0  0  0  0  0
  -31.2107    9.3892   21.2418 C   0  0  0  0  0  0  0  0  0  0  0  0
  -32.2411   10.2159   20.7909 C   0  0  0  0  0  0  0  0  0  0  0  0
  -33.3972    9.6591   20.2524 C   0  0  0  0  0  0  0  0  0  0  0  0
  -31.3456    8.0019   21.1510 C   0  0  0  0  0  0  0  0  0  0  0  0
  -32.5017    7.4410   20.6127 C   0  0  0  0  0  0  0  0  0  0  0  0
  -33.5262    8.2737   20.1636 C   0  0  0  0  0  0  0  0  0  0  0  0
  -29.0260    9.2415   22.1085 O   0  0  0  0  0  0  0  0  0  0  0  0
  -29.9583    9.9788   21.8286 C   0  0  0  0  0  0  0  0  0  0  0  0
  -29.8648   11.4567   22.0781 C   0  0  0  0  0  0  0  0  0  0  0  0
  -38.1405    7.2982   19.7029 C   0  0  0  0  0  0  0  0  0  0  0  0
  -39.1392    6.5957   19.4317 O   0  0  0  0  0  0  0  0  0  0  0  0
  -38.2443    8.4667   20.1467 O   0  0  0  0  0  0  0  0  0  0  0  0
  -37.4744    8.9648   20.3392 H   0  0  0  0  0  0  0  0  0  0  0  0
 13 14  2  0  0  0
 14  7  1  0  0  0
 14 15  1  0  0  0
 10  7  2  0  0  0
  7  8  1  0  0  0
  8  9  2  0  0  0
 12  9  1  0  0  0
 10 11  1  0  0  0
 11 12  2  0  0  0
 12  1  1  0  0  0
  2  1  1  0  0  0
  1  4  1  0  0  0
  3  2  2  0  0  0
  2  6  1  0  0  0
  4  5  1  0  0  0
  6  5  1  0  0  0
  5 16  1  0  0  0
 16 17  2  0  0  0
 16 18  1  0  0  0
 18 19  1  0  0  0
M  END
> <minimizedAffinity>
-7.36050

$$$$
3GQZ_GF7_A_362


 19 20  0  0  0  0  0  0  0  0999 V2000
  -31.0145   10.2278   22.0871 N   0  0  0  0  0  0  0  0  0  0  0  0
  -29.7322   10.0872   22.3800 C   0  0  0  0  0  0  0  0  0  0  0  0
  -28.9708    9.2141   21.9770 O   0  0  0  0  0  0  0  0  0  0  0  0
  -31.7234   11.3659   22.6437 C   0  0  0  0  0  0  0  0  0  0  0  0
  -30.5753   12.0734   23.3722 C   0  0  0  0  0  0  0  0  0  0  0  0
  -29.3225   11.1926   23.3210 C   0  0  0  0  0  0  0  0  0  0  0  0
  -33.0209    7.4361   19.6979 C   0  0  0  0  0  0  0  0  0  0  0  0
  -32.1558    7.0089   20.7065 C   0  0  0  0  0  0  0  0  0  0  0  0
  -31.4911    7.9418   21.4969 C   0  0  0  0  0  0  0  0  0  0  0  0
  -33.2170    8.8028   19.4863 C   0  0  0  0  0  0  0  0  0  0  0  0
  -32.5534    9.7395   20.2757 C   0  0  0  0  0  0  0  0  0  0  0  0
  -31.6901    9.3046   21.2808 C   0  0  0  0  0  0  0  0  0  0  0  0
  -34.0251    6.7319   17.6875 O   0  0  0  0  0  0  0  0  0  0  0  0
  -33.7473    6.4380   18.8396 C   0  0  0  0  0  0  0  0  0  0  0  0
  -34.1363    5.1009   19.4018 C   0  0  0  0  0  0  0  0  0  0  0  0
  -30.9675   12.4086   24.7878 C   0  0  0  0  0  0  0  0  0  0  0  0
  -30.6119   11.6530   25.7191 O   0  0  0  0  0  0  0  0  0  0  0  0
  -31.6704   13.4285   24.9844 O   0  0  0  0  0  0  0  0  0  0  0  0
  -31.9186   13.9726   24.2630 H   0  0  0  0  0  0  0  0  0  0  0  0
 13 14  2  0  0  0
 14  7  1  0  0  0
 14 15  1  0  0  0
 10  7  2  0  0  0
  7  8  1  0  0  0
  8  9  2  0  0  0
 12  9  1  0  0  0
 10 11  1  0  0  0
 11 12  2  0  0  0
 12  1  1  0  0  0
  2  1  1  0  0  0
  1  4  1  0  0  0
  3  2  2  0  0  0
  2  6  1  0  0  0
  4  5  1  0  0  0
  6  5  1  0  0  0
  5 16  1  0  0  0
 16 17  2  0  0  0
 16 18  1  0  0  0
 18 19  1  0  0  0
M  END
> <minimizedAffinity>
-7.18210

$$$$
3GQZ_GF7_A_362


 19 20  0  0  0  0  0  0  0  0999 V2000
  -32.0717    8.7332   20.9384 N   0  0  0  0  0  0  0  0  0  0  0  0
  -31.0975    7.8849   21.2230 C   0  0  0  0  0  0  0  0  0  0  0  0
  -31.1144    6.6654   21.0930 O   0  0  0  0  0  0  0  0  0  0  0  0
  -31.8231   10.1508   21.1292 C   0  0  0  0  0  0  0  0  0  0  0  0
  -30.3538   10.1145   21.5643 C   0  0  0  0  0  0  0  0  0  0  0  0
  -29.9172    8.6582   21.7562 C   0  0  0  0  0  0  0  0  0  0  0  0
  -35.8164    7.4085   19.6156 C   0  0  0  0  0  0  0  0  0  0  0  0
  -35.4427    7.2480   20.9509 C   0  0  0  0  0  0  0  0  0  0  0  0
  -34.1962    7.6897   21.3844 C   0  0  0  0  0  0  0  0  0  0  0  0
  -34.9348    8.0147   18.7176 C   0  0  0  0  0  0  0  0  0  0  0  0
  -33.6863    8.4583   19.1481 C   0  0  0  0  0  0  0  0  0  0  0  0
  -33.3201    8.2935   20.4835 C   0  0  0  0  0  0  0  0  0  0  0  0
  -37.3475    6.7829   17.9393 O   0  0  0  0  0  0  0  0  0  0  0  0
  -37.1616    6.9385   19.1360 C   0  0  0  0  0  0  0  0  0  0  0  0
  -38.2649    6.6773   20.1207 C   0  0  0  0  0  0  0  0  0  0  0  0
  -30.1467   10.9310   22.8135 C   0  0  0  0  0  0  0  0  0  0  0  0
  -29.1168   10.7524   23.5005 O   0  0  0  0  0  0  0  0  0  0  0  0
  -31.0375   11.7502   23.1428 O   0  0  0  0  0  0  0  0  0  0  0  0
  -31.7966   11.8586   22.6042 H   0  0  0  0  0  0  0  0  0  0  0  0
 13 14  2  0  0  0
 14  7  1  0  0  0
 14 15  1  0  0  0
 10  7  2  0  0  0
  7  8  1  0  0  0
  8  9  2  0  0  0
 12  9  1  0  0  0
 10 11  1  0  0  0
 11 12  2  0  0  0
 12  1  1  0  0  0
  2  1  1  0  0  0
  1  4  1  0  0  0
  3  2  2  0  0  0
  2  6  1  0  0  0
  4  5  1  0  0  0
  6  5  1  0  0  0
  5 16  1  0  0  0
 16 17  2  0  0  0
 16 18  1  0  0  0
 18 19  1  0  0  0
M  END
> <minimizedAffinity>
-6.98578

$$$$
3GQZ_GF7_A_362


 19 20  0  0  0  0  0  0  0  0999 V2000
  -32.6029    9.2763   20.3223 N   0  0  0  0  0  0  0  0  0  0  0  0
  -32.8542   10.5749   20.3047 C   0  0  0  0  0  0  0  0  0  0  0  0
  -33.6914   11.1591   19.6247 O   0  0  0  0  0  0  0  0  0  0  0  0
  -31.5909    8.7871   21.2411 C   0  0  0  0  0  0  0  0  0  0  0  0
  -31.2184   10.0903   21.9568 C   0  0  0  0  0  0  0  0  0  0  0  0
  -31.9263   11.2649   21.2732 C   0  0  0  0  0  0  0  0  0  0  0  0
  -34.5896    6.5843   17.8058 C   0  0  0  0  0  0  0  0  0  0  0  0
  -33.8793    6.1207   18.9142 C   0  0  0  0  0  0  0  0  0  0  0  0
  -33.2202    7.0205   19.7466 C   0  0  0  0  0  0  0  0  0  0  0  0
  -34.6368    7.9541   17.5366 C   0  0  0  0  0  0  0  0  0  0  0  0
  -33.9784    8.8578   18.3678 C   0  0  0  0  0  0  0  0  0  0  0  0
  -33.2701    8.3866   19.4727 C   0  0  0  0  0  0  0  0  0  0  0  0
  -34.9930    4.4429   16.9127 O   0  0  0  0  0  0  0  0  0  0  0  0
  -35.3085    5.6225   16.9011 C   0  0  0  0  0  0  0  0  0  0  0  0
  -36.3928    6.1141   15.9857 C   0  0  0  0  0  0  0  0  0  0  0  0
  -29.7234   10.2758   21.9842 C   0  0  0  0  0  0  0  0  0  0  0  0
  -29.2416   11.4125   21.7832 O   0  0  0  0  0  0  0  0  0  0  0  0
  -29.0028    9.2681   22.1799 O   0  0  0  0  0  0  0  0  0  0  0  0
  -29.3977    8.4312   22.3273 H   0  0  0  0  0  0  0  0  0  0  0  0
 13 14  2  0  0  0
 14  7  1  0  0  0
 14 15  1  0  0  0
 10  7  2  0  0  0
  7  8  1  0  0  0
  8  9  2  0  0  0
 12  9  1  0  0  0
 10 11  1  0  0  0
 11 12  2  0  0  0
 12  1  1  0  0  0
  2  1  1  0  0  0
  1  4  1  0  0  0
  3  2  2  0  0  0
  2  6  1  0  0  0
  4  5  1  0  0  0
  6  5  1  0  0  0
  5 16  1  0  0  0
 16 17  2  0  0  0
 16 18  1  0  0  0
 18 19  1  0  0  0
M  END
> <minimizedAffinity>
-6.66492

$$$$
3GQZ_GF7_A_362


 19 20  0  0  0  0  0  0  0  0999 V2000
  -35.2390    7.7707   19.1766 N   0  0  0  0  0  0  0  0  0  0  0  0
  -36.3333    7.5347   19.8812 C   0  0  0  0  0  0  0  0  0  0  0  0
  -36.4359    7.5014   21.1030 O   0  0  0  0  0  0  0  0  0  0  0  0
  -35.3505    7.8065   17.7296 C   0  0  0  0  0  0  0  0  0  0  0  0
  -36.8613    7.6059   17.5668 C   0  0  0  0  0  0  0  0  0  0  0  0
  -37.4825    7.2977   18.9333 C   0  0  0  0  0  0  0  0  0  0  0  0
  -31.5305    8.3872   21.0191 C   0  0  0  0  0  0  0  0  0  0  0  0
  -32.3730    9.4673   20.7507 C   0  0  0  0  0  0  0  0  0  0  0  0
  -33.6042    9.2560   20.1372 C   0  0  0  0  0  0  0  0  0  0  0  0
  -31.9288    7.0946   20.6705 C   0  0  0  0  0  0  0  0  0  0  0  0
  -33.1608    6.8793   20.0565 C   0  0  0  0  0  0  0  0  0  0  0  0
  -33.9963    7.9637   19.7908 C   0  0  0  0  0  0  0  0  0  0  0  0
  -29.5309    7.6333   22.0087 O   0  0  0  0  0  0  0  0  0  0  0  0
  -30.1995    8.6023   21.6844 C   0  0  0  0  0  0  0  0  0  0  0  0
  -29.7082    9.9950   21.9568 C   0  0  0  0  0  0  0  0  0  0  0  0
  -37.1505    6.5209   16.5621 C   0  0  0  0  0  0  0  0  0  0  0  0
  -36.1999    5.8962   16.0418 O   0  0  0  0  0  0  0  0  0  0  0  0
  -38.3460    6.2982   16.2552 O   0  0  0  0  0  0  0  0  0  0  0  0
  -39.0335    6.7853   16.6651 H   0  0  0  0  0  0  0  0  0  0  0  0
 13 14  2  0  0  0
 14  7  1  0  0  0
 14 15  1  0  0  0
 10  7  2  0  0  0
  7  8  1  0  0  0
  8  9  2  0  0  0
 12  9  1  0  0  0
 10 11  1  0  0  0
 11 12  2  0  0  0
 12  1  1  0  0  0
  2  1  1  0  0  0
  1  4  1  0  0  0
  3  2  2  0  0  0
  2  6  1  0  0  0
  4  5  1  0  0  0
  6  5  1  0  0  0
  5 16  1  0  0  0
 16 17  2  0  0  0
 16 18  1  0  0  0
 18 19  1  0  0  0
M  END
> <minimizedAffinity>
-6.65565

$$$$
3GQZ_GF7_A_362


 19 20  0  0  0  0  0  0  0  0999 V2000
  -30.7904   11.2182   22.1745 N   0  0  0  0  0  0  0  0  0  0  0  0
  -30.2812   12.2502   21.5222 C   0  0  0  0  0  0  0  0  0  0  0  0
  -30.3690   12.4852   20.3215 O   0  0  0  0  0  0  0  0  0  0  0  0
  -30.6023   11.1567   23.6127 C   0  0  0  0  0  0  0  0  0  0  0  0
  -29.8724   12.4834   23.8500 C   0  0  0  0  0  0  0  0  0  0  0  0
  -29.5435   13.1302   22.5003 C   0  0  0  0  0  0  0  0  0  0  0  0
  -32.8733    8.1849   20.1776 C   0  0  0  0  0  0  0  0  0  0  0  0
  -33.4075    9.4719   20.2585 C   0  0  0  0  0  0  0  0  0  0  0  0
  -32.7107   10.4758   20.9245 C   0  0  0  0  0  0  0  0  0  0  0  0
  -31.6370    7.9097   20.7665 C   0  0  0  0  0  0  0  0  0  0  0  0
  -30.9365    8.9122   21.4337 C   0  0  0  0  0  0  0  0  0  0  0  0
  -31.4774   10.1953   21.5110 C   0  0  0  0  0  0  0  0  0  0  0  0
  -34.5877    7.3799   18.7780 O   0  0  0  0  0  0  0  0  0  0  0  0
  -33.6150    7.0928   19.4581 C   0  0  0  0  0  0  0  0  0  0  0  0
  -33.1685    5.6649   19.5881 C   0  0  0  0  0  0  0  0  0  0  0  0
  -28.6369   12.2708   24.6857 C   0  0  0  0  0  0  0  0  0  0  0  0
  -28.6064   11.3296   25.5090 O   0  0  0  0  0  0  0  0  0  0  0  0
  -27.6811   13.0713   24.5481 O   0  0  0  0  0  0  0  0  0  0  0  0
  -27.7379   13.7654   23.9213 H   0  0  0  0  0  0  0  0  0  0  0  0
 13 14  2  0  0  0
 14  7  1  0  0  0
 14 15  1  0  0  0
 10  7  2  0  0  0
  7  8  1  0  0  0
  8  9  2  0  0  0
 12  9  1  0  0  0
 10 11  1  0  0  0
 11 12  2  0  0  0
 12  1  1  0  0  0
  2  1  1  0  0  0
  1  4  1  0  0  0
  3  2  2  0  0  0
  2  6  1  0  0  0
  4  5  1  0  0  0
  6  5  1  0  0  0
  5 16  1  0  0  0
 16 17  2  0  0  0
 16 18  1  0  0  0
 18 19  1  0  0  0
M  END
> <minimizedAffinity>
-6.42533

$$$$
3GQZ_GF7_A_362


 19 20  0  0  0  0  0  0  0  0999 V2000
  -34.7079    9.2037   18.8889 N   0  0  0  0  0  0  0  0  0  0  0  0
  -35.9294    9.0976   19.3854 C   0  0  0  0  0  0  0  0  0  0  0  0
  -36.2434    8.7118   20.5066 O   0  0  0  0  0  0  0  0  0  0  0  0
  -34.5587    9.7275   17.5432 C   0  0  0  0  0  0  0  0  0  0  0  0
  -36.0197   10.0531   17.2130 C   0  0  0  0  0  0  0  0  0  0  0  0
  -36.9223    9.5302   18.3354 C   0  0  0  0  0  0  0  0  0  0  0  0
  -31.3428    7.9846   21.0608 C   0  0  0  0  0  0  0  0  0  0  0  0
  -32.1772    7.0387   20.4630 C   0  0  0  0  0  0  0  0  0  0  0  0
  -33.2948    7.4502   19.7430 C   0  0  0  0  0  0  0  0  0  0  0  0
  -31.6338    9.3447   20.9323 C   0  0  0  0  0  0  0  0  0  0  0  0
  -32.7517    9.7603   20.2121 C   0  0  0  0  0  0  0  0  0  0  0  0
  -33.5808    8.8091   19.6186 C   0  0  0  0  0  0  0  0  0  0  0  0
  -29.2375    8.3586   22.0475 O   0  0  0  0  0  0  0  0  0  0  0  0
  -30.1307    7.5527   21.8383 C   0  0  0  0  0  0  0  0  0  0  0  0
  -30.0183    6.1412   22.3385 C   0  0  0  0  0  0  0  0  0  0  0  0
  -36.4040    9.4821   15.8726 C   0  0  0  0  0  0  0  0  0  0  0  0
  -37.6142    9.3512   15.5848 O   0  0  0  0  0  0  0  0  0  0  0  0
  -35.4880    9.1253   15.0937 O   0  0  0  0  0  0  0  0  0  0  0  0
  -34.5915    9.2382   15.3418 H   0  0  0  0  0  0  0  0  0  0  0  0
 13 14  2  0  0  0
 14  7  1  0  0  0
 14 15  1  0  0  0
 10  7  2  0  0  0
  7  8  1  0  0  0
  8  9  2  0  0  0
 12  9  1  0  0  0
 10 11  1  0  0  0
 11 12  2  0  0  0
 12  1  1  0  0  0
  2  1  1  0  0  0
  1  4  1  0  0  0
  3  2  2  0  0  0
  2  6  1  0  0  0
  4  5  1  0  0  0
  6  5  1  0  0  0
  5 16  1  0  0  0
 16 17  2  0  0  0
 16 18  1  0  0  0
 18 19  1  0  0  0
M  END
> <minimizedAffinity>
-6.41619

$$$$
