2J47_GDV_A_1590


 32 34  0  0  0  0  0  0  0  0999 V2000
    1.7862   -8.4910   32.9937 C   0  0  0  0  0  0  0  0  0  0  0  0
    2.7106   -8.0476   31.8467 C   0  0  0  0  0  0  0  0  0  0  0  0
    3.2074   -9.2177   31.1762 O   0  0  0  0  0  0  0  0  0  0  0  0
    1.9782   -7.0266   30.9227 C   0  0  0  0  0  0  0  0  0  0  0  0
    2.8755   -6.6654   29.8864 O   0  0  0  0  0  0  0  0  0  0  0  0
    1.5657   -5.7506   31.7589 C   0  0  0  0  0  0  0  0  0  0  0  0
    0.5534   -7.5974   33.0518 C   0  0  0  0  0  0  0  0  0  0  0  0
    0.5134   -6.3482   32.5495 N   0  0  0  0  0  0  0  0  0  0  0  0
   -0.7723   -5.9123   32.7737 C   0  0  0  0  0  0  0  0  0  0  0  0
   -1.4374   -6.9103   33.4710 C   0  0  0  0  0  0  0  0  0  0  0  0
   -0.5914   -7.9452   33.6399 N   0  0  0  0  0  0  0  0  0  0  0  0
    2.4624   -9.7291   30.8234 H   0  0  0  0  0  0  0  0  0  0  0  0
    3.6760   -6.2770   30.2727 H   0  0  0  0  0  0  0  0  0  0  0  0
   -0.7812   -8.7915   34.1058 H   0  0  0  0  0  0  0  0  0  0  0  0
    3.5276   -6.5025   34.1824 O   0  0  0  0  0  0  0  0  0  0  0  0
    3.3437   -7.5924   34.7022 C   0  0  0  0  0  0  0  0  0  0  0  0
    4.0091   -7.9540   36.0145 C   0  0  0  0  0  0  0  0  0  0  0  0
    2.5430   -8.5747   34.2349 N   0  0  0  0  0  0  0  0  0  0  0  0
    2.4661   -9.3994   34.7672 H   0  0  0  0  0  0  0  0  0  0  0  0
   -2.7537   -6.9008   33.9349 C   0  0  0  0  0  0  0  0  0  0  0  0
   -3.5239   -6.0468   33.5509 O   0  0  0  0  0  0  0  0  0  0  0  0
   -3.1114   -7.9140   34.7657 N   0  0  0  0  0  0  0  0  0  0  0  0
   -2.4291   -8.5878   34.9888 H   0  0  0  0  0  0  0  0  0  0  0  0
   -4.3805   -8.0635   35.3236 C   0  0  0  0  0  0  0  0  0  0  0  0
   -5.4445   -8.6815   34.6510 C   0  0  0  0  0  0  0  0  0  0  0  0
   -6.6916   -8.8832   35.2717 C   0  0  0  0  0  0  0  0  0  0  0  0
   -6.8863   -8.4706   36.5889 C   0  0  0  0  0  0  0  0  0  0  0  0
   -5.8437   -7.8565   37.2732 C   0  0  0  0  0  0  0  0  0  0  0  0
   -4.5901   -7.6674   36.6517 C   0  0  0  0  0  0  0  0  0  0  0  0
    1.0451   -4.6357   30.8319 C   0  0  0  0  0  0  0  0  0  0  0  0
    0.1043   -5.1126   29.8684 O   0  0  0  0  0  0  0  0  0  0  0  0
    0.5317   -5.7696   29.2969 H   0  0  0  0  0  0  0  0  0  0  0  0
 15 16  2  0  0  0
 16 17  1  0  0  0
 16 18  1  0  0  0
 18  1  1  0  0  0
  1  2  1  0  0  0
  1  7  1  0  0  0
  2  3  1  0  0  0
  2  4  1  0  0  0
  4  5  1  0  0  0
  4  6  1  0  0  0
  6 30  1  0  0  0
  6  8  1  0  0  0
 30 31  1  0  0  0
  7  8  2  0  0  0
  7 11  1  0  0  0
  8  9  1  0  0  0
  9 10  2  0  0  0
 10 11  1  0  0  0
 10 20  1  0  0  0
 20 21  2  0  0  0
 20 22  1  0  0  0
 22 24  1  0  0  0
 24 25  1  0  0  0
 24 29  2  0  0  0
 25 26  2  0  0  0
 26 27  1  0  0  0
 27 28  2  0  0  0
 28 29  1  0  0  0
 18 19  1  0  0  0
  3 12  1  0  0  0
  5 13  1  0  0  0
 31 32  1  0  0  0
 11 14  1  0  0  0
 22 23  1  0  0  0
M  CHG 1   8   1
M  END
> <minimizedAffinity>
-10.01856

$$$$
2J47_GDV_A_1590


 32 34  0  0  0  0  0  0  0  0999 V2000
   -0.9718   -7.3950   33.1515 C   0  0  0  0  0  0  0  0  0  0  0  0
    0.4559   -7.0199   33.5848 C   0  0  0  0  0  0  0  0  0  0  0  0
    1.0031   -8.1021   34.3561 O   0  0  0  0  0  0  0  0  0  0  0  0
    1.3078   -6.6043   32.3462 C   0  0  0  0  0  0  0  0  0  0  0  0
    2.6080   -6.2805   32.8089 O   0  0  0  0  0  0  0  0  0  0  0  0
    0.6499   -5.3518   31.6419 C   0  0  0  0  0  0  0  0  0  0  0  0
   -1.2099   -6.9779   31.7054 C   0  0  0  0  0  0  0  0  0  0  0  0
   -0.5101   -6.0094   31.0836 N   0  0  0  0  0  0  0  0  0  0  0  0
   -1.0072   -5.9745   29.8011 C   0  0  0  0  0  0  0  0  0  0  0  0
   -2.0450   -6.8923   29.7290 C   0  0  0  0  0  0  0  0  0  0  0  0
   -2.1586   -7.4987   30.9268 N   0  0  0  0  0  0  0  0  0  0  0  0
    1.0209   -8.9076   33.8159 H   0  0  0  0  0  0  0  0  0  0  0  0
    2.5512   -5.5580   33.4535 H   0  0  0  0  0  0  0  0  0  0  0  0
   -2.8130   -8.1901   31.1776 H   0  0  0  0  0  0  0  0  0  0  0  0
   -3.6648   -8.3172   33.6964 O   0  0  0  0  0  0  0  0  0  0  0  0
   -3.1795   -7.3614   34.2817 C   0  0  0  0  0  0  0  0  0  0  0  0
   -3.9625   -6.6161   35.3433 C   0  0  0  0  0  0  0  0  0  0  0  0
   -1.9340   -6.8679   34.1090 N   0  0  0  0  0  0  0  0  0  0  0  0
   -1.6595   -6.1037   34.6656 H   0  0  0  0  0  0  0  0  0  0  0  0
   -2.8578   -7.1830   28.6323 C   0  0  0  0  0  0  0  0  0  0  0  0
   -2.3586   -7.3800   27.5451 O   0  0  0  0  0  0  0  0  0  0  0  0
   -4.1901   -7.2866   28.8753 N   0  0  0  0  0  0  0  0  0  0  0  0
   -4.5003   -7.1525   29.8000 H   0  0  0  0  0  0  0  0  0  0  0  0
   -5.1478   -7.5703   27.9023 C   0  0  0  0  0  0  0  0  0  0  0  0
   -5.5440   -8.8752   27.5756 C   0  0  0  0  0  0  0  0  0  0  0  0
   -6.5675   -9.1231   26.6417 C   0  0  0  0  0  0  0  0  0  0  0  0
   -7.2173   -8.0557   26.0241 C   0  0  0  0  0  0  0  0  0  0  0  0
   -6.8397   -6.7544   26.3349 C   0  0  0  0  0  0  0  0  0  0  0  0
   -5.8212   -6.5092   27.2817 C   0  0  0  0  0  0  0  0  0  0  0  0
    1.5837   -4.7831   30.5567 C   0  0  0  0  0  0  0  0  0  0  0  0
    2.4480   -5.7733   29.9971 O   0  0  0  0  0  0  0  0  0  0  0  0
    3.0203   -6.1333   30.6927 H   0  0  0  0  0  0  0  0  0  0  0  0
 15 16  2  0  0  0
 16 17  1  0  0  0
 16 18  1  0  0  0
 18  1  1  0  0  0
  1  2  1  0  0  0
  1  7  1  0  0  0
  2  3  1  0  0  0
  2  4  1  0  0  0
  4  5  1  0  0  0
  4  6  1  0  0  0
  6 30  1  0  0  0
  6  8  1  0  0  0
 30 31  1  0  0  0
  7  8  2  0  0  0
  7 11  1  0  0  0
  8  9  1  0  0  0
  9 10  2  0  0  0
 10 11  1  0  0  0
 10 20  1  0  0  0
 20 21  2  0  0  0
 20 22  1  0  0  0
 22 24  1  0  0  0
 24 25  1  0  0  0
 24 29  2  0  0  0
 25 26  2  0  0  0
 26 27  1  0  0  0
 27 28  2  0  0  0
 28 29  1  0  0  0
 18 19  1  0  0  0
  3 12  1  0  0  0
  5 13  1  0  0  0
 31 32  1  0  0  0
 11 14  1  0  0  0
 22 23  1  0  0  0
M  CHG 1   8   1
M  END
> <minimizedAffinity>
-9.10451

$$$$
2J47_GDV_A_1590


 32 34  0  0  0  0  0  0  0  0999 V2000
   -0.7402   -5.6509   30.5658 C   0  0  0  0  0  0  0  0  0  0  0  0
    0.7903   -5.5974   30.4192 C   0  0  0  0  0  0  0  0  0  0  0  0
    1.1585   -4.3116   29.8930 O   0  0  0  0  0  0  0  0  0  0  0  0
    1.4786   -5.9731   31.7674 C   0  0  0  0  0  0  0  0  0  0  0  0
    2.8802   -5.8971   31.5693 O   0  0  0  0  0  0  0  0  0  0  0  0
    1.0640   -7.4390   32.1879 C   0  0  0  0  0  0  0  0  0  0  0  0
   -1.1200   -6.3249   31.8786 C   0  0  0  0  0  0  0  0  0  0  0  0
   -0.3127   -7.1753   32.5414 N   0  0  0  0  0  0  0  0  0  0  0  0
   -1.0101   -7.5217   33.6757 C   0  0  0  0  0  0  0  0  0  0  0  0
   -2.2515   -6.9061   33.6086 C   0  0  0  0  0  0  0  0  0  0  0  0
   -2.3008   -6.1736   32.4789 N   0  0  0  0  0  0  0  0  0  0  0  0
    0.8585   -3.6163   30.4992 H   0  0  0  0  0  0  0  0  0  0  0  0
    3.1402   -6.5069   30.8613 H   0  0  0  0  0  0  0  0  0  0  0  0
   -3.0593   -5.6332   32.1596 H   0  0  0  0  0  0  0  0  0  0  0  0
   -3.5237   -5.6911   29.7599 O   0  0  0  0  0  0  0  0  0  0  0  0
   -2.6512   -6.2252   29.0927 C   0  0  0  0  0  0  0  0  0  0  0  0
   -2.9825   -6.9255   27.7906 C   0  0  0  0  0  0  0  0  0  0  0  0
   -1.3308   -6.2474   29.3760 N   0  0  0  0  0  0  0  0  0  0  0  0
   -0.7296   -6.6951   28.7376 H   0  0  0  0  0  0  0  0  0  0  0  0
   -3.3007   -6.9897   34.5252 C   0  0  0  0  0  0  0  0  0  0  0  0
   -3.9256   -5.9939   34.8213 O   0  0  0  0  0  0  0  0  0  0  0  0
   -3.5986   -8.2289   34.9946 N   0  0  0  0  0  0  0  0  0  0  0  0
   -3.0635   -8.9864   34.6642 H   0  0  0  0  0  0  0  0  0  0  0  0
   -4.6120   -8.4998   35.9133 C   0  0  0  0  0  0  0  0  0  0  0  0
   -5.9453   -8.7212   35.5392 C   0  0  0  0  0  0  0  0  0  0  0  0
   -6.9289   -9.0664   36.4850 C   0  0  0  0  0  0  0  0  0  0  0  0
   -6.5829   -9.2026   37.8284 C   0  0  0  0  0  0  0  0  0  0  0  0
   -5.2663   -8.9880   38.2195 C   0  0  0  0  0  0  0  0  0  0  0  0
   -4.2796   -8.6544   37.2661 C   0  0  0  0  0  0  0  0  0  0  0  0
    1.8992   -7.9186   33.3902 C   0  0  0  0  0  0  0  0  0  0  0  0
    2.2294   -9.3064   33.3153 O   0  0  0  0  0  0  0  0  0  0  0  0
    1.4148   -9.8331   33.3175 H   0  0  0  0  0  0  0  0  0  0  0  0
 15 16  2  0  0  0
 16 17  1  0  0  0
 16 18  1  0  0  0
 18  1  1  0  0  0
  1  2  1  0  0  0
  1  7  1  0  0  0
  2  3  1  0  0  0
  2  4  1  0  0  0
  4  5  1  0  0  0
  4  6  1  0  0  0
  6 30  1  0  0  0
  6  8  1  0  0  0
 30 31  1  0  0  0
  7  8  2  0  0  0
  7 11  1  0  0  0
  8  9  1  0  0  0
  9 10  2  0  0  0
 10 11  1  0  0  0
 10 20  1  0  0  0
 20 21  2  0  0  0
 20 22  1  0  0  0
 22 24  1  0  0  0
 24 25  1  0  0  0
 24 29  2  0  0  0
 25 26  2  0  0  0
 26 27  1  0  0  0
 27 28  2  0  0  0
 28 29  1  0  0  0
 18 19  1  0  0  0
  3 12  1  0  0  0
  5 13  1  0  0  0
 31 32  1  0  0  0
 11 14  1  0  0  0
 22 23  1  0  0  0
M  CHG 1   8   1
M  END
> <minimizedAffinity>
-9.01983

$$$$
2J47_GDV_A_1590


 32 34  0  0  0  0  0  0  0  0999 V2000
   -5.4424   -5.3020   28.8351 C   0  0  0  0  0  0  0  0  0  0  0  0
   -5.9739   -5.8129   27.4849 C   0  0  0  0  0  0  0  0  0  0  0  0
   -6.5333   -4.7049   26.7603 O   0  0  0  0  0  0  0  0  0  0  0  0
   -4.8600   -6.5957   26.7238 C   0  0  0  0  0  0  0  0  0  0  0  0
   -5.4074   -7.0304   25.4905 O   0  0  0  0  0  0  0  0  0  0  0  0
   -4.3969   -7.8372   27.5850 C   0  0  0  0  0  0  0  0  0  0  0  0
   -4.0995   -5.9490   29.1512 C   0  0  0  0  0  0  0  0  0  0  0  0
   -3.6943   -7.1212   28.6258 N   0  0  0  0  0  0  0  0  0  0  0  0
   -2.4315   -7.3244   29.1331 C   0  0  0  0  0  0  0  0  0  0  0  0
   -2.1581   -6.2816   30.0063 C   0  0  0  0  0  0  0  0  0  0  0  0
   -3.2124   -5.4427   30.0080 N   0  0  0  0  0  0  0  0  0  0  0  0
   -5.8476   -4.0343   26.6150 H   0  0  0  0  0  0  0  0  0  0  0  0
   -6.1785   -7.5940   25.6598 H   0  0  0  0  0  0  0  0  0  0  0  0
   -3.3087   -4.6184   30.5376 H   0  0  0  0  0  0  0  0  0  0  0  0
   -6.6991   -3.2689   30.4741 O   0  0  0  0  0  0  0  0  0  0  0  0
   -6.9788   -4.4524   30.5873 C   0  0  0  0  0  0  0  0  0  0  0  0
   -8.0186   -4.9171   31.5865 C   0  0  0  0  0  0  0  0  0  0  0  0
   -6.4609   -5.4678   29.8625 N   0  0  0  0  0  0  0  0  0  0  0  0
   -6.7930   -6.3774   30.0401 H   0  0  0  0  0  0  0  0  0  0  0  0
   -1.0069   -6.0822   30.7698 C   0  0  0  0  0  0  0  0  0  0  0  0
   -0.5792   -4.9601   30.9370 O   0  0  0  0  0  0  0  0  0  0  0  0
   -0.4588   -7.1861   31.3405 N   0  0  0  0  0  0  0  0  0  0  0  0
   -0.9009   -8.0518   31.1841 H   0  0  0  0  0  0  0  0  0  0  0  0
    0.6883   -7.1750   32.1331 C   0  0  0  0  0  0  0  0  0  0  0  0
    0.6502   -7.1407   33.5345 C   0  0  0  0  0  0  0  0  0  0  0  0
    1.8257   -7.2064   34.3060 C   0  0  0  0  0  0  0  0  0  0  0  0
    3.0644   -7.3159   33.6761 C   0  0  0  0  0  0  0  0  0  0  0  0
    3.1234   -7.3522   32.2877 C   0  0  0  0  0  0  0  0  0  0  0  0
    1.9413   -7.2990   31.5173 C   0  0  0  0  0  0  0  0  0  0  0  0
   -3.4651   -8.7515   26.7670 C   0  0  0  0  0  0  0  0  0  0  0  0
   -2.7583   -8.0473   25.7445 O   0  0  0  0  0  0  0  0  0  0  0  0
   -3.3922   -7.6667   25.1167 H   0  0  0  0  0  0  0  0  0  0  0  0
 15 16  2  0  0  0
 16 17  1  0  0  0
 16 18  1  0  0  0
 18  1  1  0  0  0
  1  2  1  0  0  0
  1  7  1  0  0  0
  2  3  1  0  0  0
  2  4  1  0  0  0
  4  5  1  0  0  0
  4  6  1  0  0  0
  6 30  1  0  0  0
  6  8  1  0  0  0
 30 31  1  0  0  0
  7  8  2  0  0  0
  7 11  1  0  0  0
  8  9  1  0  0  0
  9 10  2  0  0  0
 10 11  1  0  0  0
 10 20  1  0  0  0
 20 21  2  0  0  0
 20 22  1  0  0  0
 22 24  1  0  0  0
 24 25  1  0  0  0
 24 29  2  0  0  0
 25 26  2  0  0  0
 26 27  1  0  0  0
 27 28  2  0  0  0
 28 29  1  0  0  0
 18 19  1  0  0  0
  3 12  1  0  0  0
  5 13  1  0  0  0
 31 32  1  0  0  0
 11 14  1  0  0  0
 22 23  1  0  0  0
M  CHG 1   8   1
M  END
> <minimizedAffinity>
-8.63551

$$$$
2J47_GDV_A_1590


 32 34  0  0  0  0  0  0  0  0999 V2000
   -5.3204   -8.4048   36.1433 C   0  0  0  0  0  0  0  0  0  0  0  0
   -6.6939   -8.9308   35.6923 C   0  0  0  0  0  0  0  0  0  0  0  0
   -7.7185   -8.1394   36.3164 O   0  0  0  0  0  0  0  0  0  0  0  0
   -6.7695   -8.9874   34.1355 C   0  0  0  0  0  0  0  0  0  0  0  0
   -8.0557   -9.4695   33.7856 O   0  0  0  0  0  0  0  0  0  0  0  0
   -5.6519   -9.9581   33.5820 C   0  0  0  0  0  0  0  0  0  0  0  0
   -4.3564   -8.3709   34.9638 C   0  0  0  0  0  0  0  0  0  0  0  0
   -4.4986   -9.1329   33.8622 N   0  0  0  0  0  0  0  0  0  0  0  0
   -3.4543   -8.7749   33.0409 C   0  0  0  0  0  0  0  0  0  0  0  0
   -2.6821   -7.8475   33.7254 C   0  0  0  0  0  0  0  0  0  0  0  0
   -3.2572   -7.6175   34.9218 N   0  0  0  0  0  0  0  0  0  0  0  0
   -7.6157   -7.2115   36.0532 H   0  0  0  0  0  0  0  0  0  0  0  0
   -8.1888  -10.3479   34.1750 H   0  0  0  0  0  0  0  0  0  0  0  0
   -2.9303   -7.0124   35.6262 H   0  0  0  0  0  0  0  0  0  0  0  0
   -3.4678   -7.5817   38.2145 O   0  0  0  0  0  0  0  0  0  0  0  0
   -3.9727   -8.6938   38.2055 C   0  0  0  0  0  0  0  0  0  0  0  0
   -3.6660   -9.6996   39.2963 C   0  0  0  0  0  0  0  0  0  0  0  0
   -4.8543   -9.1628   37.2959 N   0  0  0  0  0  0  0  0  0  0  0  0
   -5.2037  -10.0748   37.4200 H   0  0  0  0  0  0  0  0  0  0  0  0
   -1.5096   -7.2242   33.2957 C   0  0  0  0  0  0  0  0  0  0  0  0
   -0.6510   -6.9311   34.1001 O   0  0  0  0  0  0  0  0  0  0  0  0
   -1.3789   -7.0344   31.9572 N   0  0  0  0  0  0  0  0  0  0  0  0
   -2.1103   -7.3444   31.3756 H   0  0  0  0  0  0  0  0  0  0  0  0
   -0.2779   -6.4297   31.3519 C   0  0  0  0  0  0  0  0  0  0  0  0
   -0.2279   -5.0621   31.0456 C   0  0  0  0  0  0  0  0  0  0  0  0
    0.9281   -4.4697   30.5033 C   0  0  0  0  0  0  0  0  0  0  0  0
    2.0607   -5.2470   30.2665 C   0  0  0  0  0  0  0  0  0  0  0  0
    2.0315   -6.6046   30.5640 C   0  0  0  0  0  0  0  0  0  0  0  0
    0.8745   -7.1930   31.1198 C   0  0  0  0  0  0  0  0  0  0  0  0
   -5.8446  -10.2084   32.0742 C   0  0  0  0  0  0  0  0  0  0  0  0
   -6.5434   -9.1464   31.4227 O   0  0  0  0  0  0  0  0  0  0  0  0
   -7.4313   -9.0618   31.8040 H   0  0  0  0  0  0  0  0  0  0  0  0
 15 16  2  0  0  0
 16 17  1  0  0  0
 16 18  1  0  0  0
 18  1  1  0  0  0
  1  2  1  0  0  0
  1  7  1  0  0  0
  2  3  1  0  0  0
  2  4  1  0  0  0
  4  5  1  0  0  0
  4  6  1  0  0  0
  6 30  1  0  0  0
  6  8  1  0  0  0
 30 31  1  0  0  0
  7  8  2  0  0  0
  7 11  1  0  0  0
  8  9  1  0  0  0
  9 10  2  0  0  0
 10 11  1  0  0  0
 10 20  1  0  0  0
 20 21  2  0  0  0
 20 22  1  0  0  0
 22 24  1  0  0  0
 24 25  1  0  0  0
 24 29  2  0  0  0
 25 26  2  0  0  0
 26 27  1  0  0  0
 27 28  2  0  0  0
 28 29  1  0  0  0
 18 19  1  0  0  0
  3 12  1  0  0  0
  5 13  1  0  0  0
 31 32  1  0  0  0
 11 14  1  0  0  0
 22 23  1  0  0  0
M  CHG 1   8   1
M  END
> <minimizedAffinity>
-7.79420

$$$$
2J47_GDV_A_1590


 32 34  0  0  0  0  0  0  0  0999 V2000
   -5.2219   -9.3107   35.6271 C   0  0  0  0  0  0  0  0  0  0  0  0
   -6.6430   -8.8162   35.9473 C   0  0  0  0  0  0  0  0  0  0  0  0
   -6.8959   -9.0150   37.3481 O   0  0  0  0  0  0  0  0  0  0  0  0
   -6.8327   -7.3498   35.4508 C   0  0  0  0  0  0  0  0  0  0  0  0
   -8.1524   -6.9521   35.7816 O   0  0  0  0  0  0  0  0  0  0  0  0
   -6.6170   -7.2840   33.8866 C   0  0  0  0  0  0  0  0  0  0  0  0
   -4.5282   -8.3408   34.6784 C   0  0  0  0  0  0  0  0  0  0  0  0
   -5.1873   -7.4962   33.8620 N   0  0  0  0  0  0  0  0  0  0  0  0
   -4.2047   -6.7845   33.2130 C   0  0  0  0  0  0  0  0  0  0  0  0
   -2.9801   -7.2884   33.6266 C   0  0  0  0  0  0  0  0  0  0  0  0
   -3.2055   -8.2606   34.5316 N   0  0  0  0  0  0  0  0  0  0  0  0
   -6.2460   -8.5167   37.8678 H   0  0  0  0  0  0  0  0  0  0  0  0
   -8.7866   -7.5507   35.3568 H   0  0  0  0  0  0  0  0  0  0  0  0
   -2.5273   -8.8047   34.9934 H   0  0  0  0  0  0  0  0  0  0  0  0
   -5.1911  -11.7410   37.2057 O   0  0  0  0  0  0  0  0  0  0  0  0
   -5.2371  -11.7650   35.9854 C   0  0  0  0  0  0  0  0  0  0  0  0
   -5.2990  -13.0780   35.2319 C   0  0  0  0  0  0  0  0  0  0  0  0
   -5.2704  -10.6913   35.1666 N   0  0  0  0  0  0  0  0  0  0  0  0
   -5.3312  -10.8522   34.1973 H   0  0  0  0  0  0  0  0  0  0  0  0
   -1.7067   -6.8910   33.2159 C   0  0  0  0  0  0  0  0  0  0  0  0
   -0.7872   -6.8974   34.0062 O   0  0  0  0  0  0  0  0  0  0  0  0
   -1.5653   -6.5696   31.9039 N   0  0  0  0  0  0  0  0  0  0  0  0
   -2.3600   -6.6354   31.3265 H   0  0  0  0  0  0  0  0  0  0  0  0
   -0.3696   -6.1527   31.3203 C   0  0  0  0  0  0  0  0  0  0  0  0
   -0.1008   -4.8146   30.9980 C   0  0  0  0  0  0  0  0  0  0  0  0
    1.1458   -4.4172   30.4790 C   0  0  0  0  0  0  0  0  0  0  0  0
    2.1497   -5.3641   30.2822 C   0  0  0  0  0  0  0  0  0  0  0  0
    1.9032   -6.6957   30.5961 C   0  0  0  0  0  0  0  0  0  0  0  0
    0.6559   -7.0887   31.1285 C   0  0  0  0  0  0  0  0  0  0  0  0
   -7.0165   -5.9008   33.3386 C   0  0  0  0  0  0  0  0  0  0  0  0
   -6.8913   -4.8633   34.3126 O   0  0  0  0  0  0  0  0  0  0  0  0
   -7.4841   -5.0465   35.0582 H   0  0  0  0  0  0  0  0  0  0  0  0
 15 16  2  0  0  0
 16 17  1  0  0  0
 16 18  1  0  0  0
 18  1  1  0  0  0
  1  2  1  0  0  0
  1  7  1  0  0  0
  2  3  1  0  0  0
  2  4  1  0  0  0
  4  5  1  0  0  0
  4  6  1  0  0  0
  6 30  1  0  0  0
  6  8  1  0  0  0
 30 31  1  0  0  0
  7  8  2  0  0  0
  7 11  1  0  0  0
  8  9  1  0  0  0
  9 10  2  0  0  0
 10 11  1  0  0  0
 10 20  1  0  0  0
 20 21  2  0  0  0
 20 22  1  0  0  0
 22 24  1  0  0  0
 24 25  1  0  0  0
 24 29  2  0  0  0
 25 26  2  0  0  0
 26 27  1  0  0  0
 27 28  2  0  0  0
 28 29  1  0  0  0
 18 19  1  0  0  0
  3 12  1  0  0  0
  5 13  1  0  0  0
 31 32  1  0  0  0
 11 14  1  0  0  0
 22 23  1  0  0  0
M  CHG 1   8   1
M  END
> <minimizedAffinity>
-7.33254

$$$$
2J47_GDV_A_1590


 32 34  0  0  0  0  0  0  0  0999 V2000
   -2.7107   -6.9521   31.7133 C   0  0  0  0  0  0  0  0  0  0  0  0
   -3.5230   -7.0958   30.4148 C   0  0  0  0  0  0  0  0  0  0  0  0
   -2.8759   -8.0622   29.5705 O   0  0  0  0  0  0  0  0  0  0  0  0
   -5.0161   -7.4080   30.7399 C   0  0  0  0  0  0  0  0  0  0  0  0
   -5.7057   -7.5364   29.5081 O   0  0  0  0  0  0  0  0  0  0  0  0
   -5.6342   -6.2298   31.5929 C   0  0  0  0  0  0  0  0  0  0  0  0
   -3.6462   -6.8709   32.9133 C   0  0  0  0  0  0  0  0  0  0  0  0
   -4.9312   -6.4755   32.8319 N   0  0  0  0  0  0  0  0  0  0  0  0
   -5.4204   -6.5788   34.1137 C   0  0  0  0  0  0  0  0  0  0  0  0
   -4.3718   -6.9740   34.9316 C   0  0  0  0  0  0  0  0  0  0  0  0
   -3.2765   -7.1418   34.1654 N   0  0  0  0  0  0  0  0  0  0  0  0
   -2.8315   -8.9151   30.0304 H   0  0  0  0  0  0  0  0  0  0  0  0
   -5.6219   -6.7125   29.0032 H   0  0  0  0  0  0  0  0  0  0  0  0
   -2.3799   -7.4113   34.4699 H   0  0  0  0  0  0  0  0  0  0  0  0
   -0.1614   -6.8933   30.3360 O   0  0  0  0  0  0  0  0  0  0  0  0
   -0.5941   -5.9202   30.9339 C   0  0  0  0  0  0  0  0  0  0  0  0
    0.1796   -4.6179   30.9696 C   0  0  0  0  0  0  0  0  0  0  0  0
   -1.7723   -5.8455   31.5901 N   0  0  0  0  0  0  0  0  0  0  0  0
   -2.0118   -4.9887   32.0118 H   0  0  0  0  0  0  0  0  0  0  0  0
   -4.3927   -7.1832   36.3114 C   0  0  0  0  0  0  0  0  0  0  0  0
   -4.7086   -6.2795   37.0553 O   0  0  0  0  0  0  0  0  0  0  0  0
   -4.1054   -8.4401   36.7387 N   0  0  0  0  0  0  0  0  0  0  0  0
   -3.9022   -9.1216   36.0579 H   0  0  0  0  0  0  0  0  0  0  0  0
   -4.0792   -8.8295   38.0773 C   0  0  0  0  0  0  0  0  0  0  0  0
   -3.0974   -8.3981   38.9810 C   0  0  0  0  0  0  0  0  0  0  0  0
   -3.1433   -8.7501   40.3431 C   0  0  0  0  0  0  0  0  0  0  0  0
   -4.1877   -9.5396   40.8214 C   0  0  0  0  0  0  0  0  0  0  0  0
   -5.1713   -9.9768   39.9417 C   0  0  0  0  0  0  0  0  0  0  0  0
   -5.1291   -9.6113   38.5785 C   0  0  0  0  0  0  0  0  0  0  0  0
   -7.1583   -6.4015   31.7365 C   0  0  0  0  0  0  0  0  0  0  0  0
   -7.8463   -5.1549   31.8526 O   0  0  0  0  0  0  0  0  0  0  0  0
   -7.5444   -4.6919   32.6497 H   0  0  0  0  0  0  0  0  0  0  0  0
 15 16  2  0  0  0
 16 17  1  0  0  0
 16 18  1  0  0  0
 18  1  1  0  0  0
  1  2  1  0  0  0
  1  7  1  0  0  0
  2  3  1  0  0  0
  2  4  1  0  0  0
  4  5  1  0  0  0
  4  6  1  0  0  0
  6 30  1  0  0  0
  6  8  1  0  0  0
 30 31  1  0  0  0
  7  8  2  0  0  0
  7 11  1  0  0  0
  8  9  1  0  0  0
  9 10  2  0  0  0
 10 11  1  0  0  0
 10 20  1  0  0  0
 20 21  2  0  0  0
 20 22  1  0  0  0
 22 24  1  0  0  0
 24 25  1  0  0  0
 24 29  2  0  0  0
 25 26  2  0  0  0
 26 27  1  0  0  0
 27 28  2  0  0  0
 28 29  1  0  0  0
 18 19  1  0  0  0
  3 12  1  0  0  0
  5 13  1  0  0  0
 31 32  1  0  0  0
 11 14  1  0  0  0
 22 23  1  0  0  0
M  CHG 1   8   1
M  END
> <minimizedAffinity>
-7.13802

$$$$
