2WVT_FHN_A_1473
  RCSB PDB12061707203D
Coordinates from PDB:2WVT:A:1473 Model:1 without hydrogens
 13 13  0  0  0  0            999 V2000
  -27.7290    0.9920   29.3090   O 0  0  0  0  0  0  0  0  0  0  0  0
  -27.0330    2.1630   28.8140   C 0  0  0  0  0  0  0  0  0  0  0  0
  -25.6630    1.7410   28.2990   C 0  0  0  0  0  0  0  0  0  0  0  0
  -24.9660    1.1290   29.3780   O 0  0  0  0  0  0  0  0  0  0  0  0
  -24.9190    2.9610   27.8180   C 0  0  0  0  0  0  0  0  0  0  0  0
  -24.7170    3.8990   28.8960   O 0  0  0  0  0  0  0  0  0  0  0  0
  -25.7370    3.6090   26.7150   C 0  0  0  0  0  0  0  0  0  0  0  0
  -25.0640    4.9000   26.2620   C 0  0  0  0  0  0  0  0  0  0  0  0
  -25.8680    5.4510   25.2360   O 0  0  0  0  0  0  0  0  0  0  0  0
  -27.1200    3.9780   27.1270   N 0  3  0  0  0  0  0  0  0  0  0  0
  -27.8450    2.8270   27.7290   C 0  0  0  0  0  0  0  0  0  0  0  0
  -28.2960    1.8110   26.6530   C 0  0  0  0  0  0  0  0  0  0  0  0
  -29.0250    2.5480   25.6680   O 0  0  0  0  0  0  0  0  0  0  0  0
  1  2  1  0  0  0  0
  2  3  1  0  0  0  0
  2 11  1  0  0  0  0
  3  4  1  0  0  0  0
  3  5  1  0  0  0  0
  5  6  1  0  0  0  0
  5  7  1  0  0  0  0
  7  8  1  0  0  0  0
  7 10  1  0  0  0  0
  8  9  1  0  0  0  0
 10 11  1  0  0  0  0
 11 12  1  0  0  0  0
 12 13  1  0  0  0  0
M  CHG  1  10   1
A    1
O2
A    2
C2
A    3
C3
A    4
O3
A    5
C4
A    6
O4
A    7
C5
A    8
C7
A    9
O7
A   10
N
A   11
C1
A   12
C6
A   13
O6
M  END
>  <InstanceId>
2WVT_FHN_A_1473

>  <ChemCompId>
FHN

>  <PdbId>
2WVT

>  <ChainId>
A

>  <ResidueNumber>
1473

>  <InsertionCode>


>  <Model>
1

>  <AltIds>


>  <MissingHeavyAtoms>
0

>  <ObservedFormula>
C7 N O5

>  <Name>
(2S,3R,5R,6S)-3,4,5-TRIHYDROXY-2,6-BIS(HYDROXYMETHYL)PIPERIDINIUM

>  <SystematicName>
(2S,3R,5R,6S)-2,6-bis(hydroxymethyl)piperidin-1-ium-3,4,5-triol

>  <Synonyms>


>  <Type>
NON-POLYMER

>  <Formula>
C7 H16 N O5

>  <MolecularWeight>
194.206

>  <ModifiedDate>
2011-06-04

>  <Parent>


>  <OneLetterCode>


>  <SubcomponentList>


>  <AmbiguousFlag>
N

>  <InChI>
InChI=1S/C7H15NO5/c9-1-3-5(11)7(13)6(12)4(2-10)8-3/h3-13H,1-2H2/p+1/t3-,4-,5+,6+/m0/s1

>  <InChIKey>
CLVUFWXGNIFGNC-UNTFVMJOSA-O

>  <SMILES>
C([C@H]1[C@H](C([C@@H]([C@@H]([NH2+]1)CO)O)O)O)O

$$$$
