2WVT_FHN_A_1473


 20 20  0  0  0  0  0  0  0  0999 V2000
  -28.1059    0.9152   29.0521 O   0  0  0  0  0  0  0  0  0  0  0  0
  -27.3733    2.0870   28.6154 C   0  0  0  0  0  0  0  0  0  0  0  0
  -25.9775    1.6613   28.1789 C   0  0  0  0  0  0  0  0  0  0  0  0
  -25.3513    1.0305   29.2901 O   0  0  0  0  0  0  0  0  0  0  0  0
  -25.1974    2.8816   27.7598 C   0  0  0  0  0  0  0  0  0  0  0  0
  -25.0549    3.8044   28.8601 O   0  0  0  0  0  0  0  0  0  0  0  0
  -25.9426    3.5496   26.6178 C   0  0  0  0  0  0  0  0  0  0  0  0
  -27.3456    3.9238   26.9501 N   0  0  0  0  0  0  0  0  0  0  0  0
  -28.1135    2.7708   27.4920 C   0  0  0  0  0  0  0  0  0  0  0  0
  -27.6233    0.4824   29.7737 H   0  0  0  0  0  0  0  0  0  0  0  0
  -25.3161    1.6498   30.0358 H   0  0  0  0  0  0  0  0  0  0  0  0
  -25.9327    4.0852   29.1625 H   0  0  0  0  0  0  0  0  0  0  0  0
  -27.8067    4.2588   26.1042 H   0  0  0  0  0  0  0  0  0  0  0  0
  -27.3180    4.6498   27.6659 H   0  0  0  0  0  0  0  0  0  0  0  0
  -25.2347    4.8411   26.2232 C   0  0  0  0  0  0  0  0  0  0  0  0
  -25.6142    5.8281   27.1637 O   0  0  0  0  0  0  0  0  0  0  0  0
  -26.5784    5.9331   27.1509 H   0  0  0  0  0  0  0  0  0  0  0  0
  -28.5053    1.7718   26.3775 C   0  0  0  0  0  0  0  0  0  0  0  0
  -29.6581    2.3109   25.7254 O   0  0  0  0  0  0  0  0  0  0  0  0
  -30.3716    2.4255   26.3725 H   0  0  0  0  0  0  0  0  0  0  0  0
  1  2  1  0  0  0
  2  3  1  0  0  0
  2  9  1  0  0  0
  3  4  1  0  0  0
  3  5  1  0  0  0
  5  6  1  0  0  0
  5  7  1  0  0  0
  7 15  1  0  0  0
  7  8  1  0  0  0
 15 16  1  0  0  0
  8  9  1  0  0  0
  9 18  1  0  0  0
 18 19  1  0  0  0
  1 10  1  0  0  0
  4 11  1  0  0  0
  6 12  1  0  0  0
 16 17  1  0  0  0
  8 13  1  0  0  0
  8 14  1  0  0  0
 19 20  1  0  0  0
M  CHG 1   8   1
M  END
> <minimizedAffinity>
-7.13925

$$$$
2WVT_FHN_A_1473


 20 20  0  0  0  0  0  0  0  0999 V2000
  -28.1888    2.8368   28.8604 O   0  0  0  0  0  0  0  0  0  0  0  0
  -27.6520    1.5671   28.4130 C   0  0  0  0  0  0  0  0  0  0  0  0
  -28.1434    1.2956   26.9970 C   0  0  0  0  0  0  0  0  0  0  0  0
  -29.5659    1.2862   27.0282 O   0  0  0  0  0  0  0  0  0  0  0  0
  -27.6194   -0.0423   26.5405 C   0  0  0  0  0  0  0  0  0  0  0  0
  -28.1069   -1.1030   27.3891 O   0  0  0  0  0  0  0  0  0  0  0  0
  -26.1024    0.0028   26.5887 C   0  0  0  0  0  0  0  0  0  0  0  0
  -25.5513    0.3414   27.9305 N   0  0  0  0  0  0  0  0  0  0  0  0
  -26.1443    1.5929   28.4738 C   0  0  0  0  0  0  0  0  0  0  0  0
  -29.1576    2.8112   28.8181 H   0  0  0  0  0  0  0  0  0  0  0  0
  -29.8713    0.6039   27.6463 H   0  0  0  0  0  0  0  0  0  0  0  0
  -27.8132   -0.9486   28.3006 H   0  0  0  0  0  0  0  0  0  0  0  0
  -24.5416    0.4622   27.8514 H   0  0  0  0  0  0  0  0  0  0  0  0
  -25.7816   -0.4205   28.5683 H   0  0  0  0  0  0  0  0  0  0  0  0
  -25.5321   -1.3627   26.2214 C   0  0  0  0  0  0  0  0  0  0  0  0
  -26.3032   -1.8600   25.1440 O   0  0  0  0  0  0  0  0  0  0  0  0
  -27.2327   -1.9239   25.4140 H   0  0  0  0  0  0  0  0  0  0  0  0
  -25.5679    2.8473   27.7755 C   0  0  0  0  0  0  0  0  0  0  0  0
  -25.2321    3.7778   28.8080 O   0  0  0  0  0  0  0  0  0  0  0  0
  -26.0255    3.9870   29.3253 H   0  0  0  0  0  0  0  0  0  0  0  0
  1  2  1  0  0  0
  2  3  1  0  0  0
  2  9  1  0  0  0
  3  4  1  0  0  0
  3  5  1  0  0  0
  5  6  1  0  0  0
  5  7  1  0  0  0
  7 15  1  0  0  0
  7  8  1  0  0  0
 15 16  1  0  0  0
  8  9  1  0  0  0
  9 18  1  0  0  0
 18 19  1  0  0  0
  1 10  1  0  0  0
  4 11  1  0  0  0
  6 12  1  0  0  0
 16 17  1  0  0  0
  8 13  1  0  0  0
  8 14  1  0  0  0
 19 20  1  0  0  0
M  CHG 1   8   1
M  END
> <minimizedAffinity>
-6.34480

$$$$
2WVT_FHN_A_1473


 20 20  0  0  0  0  0  0  0  0999 V2000
  -29.1659   -0.4400   27.5556 O   0  0  0  0  0  0  0  0  0  0  0  0
  -28.0733    0.4559   27.8785 C   0  0  0  0  0  0  0  0  0  0  0  0
  -26.9120    0.1779   26.9327 C   0  0  0  0  0  0  0  0  0  0  0  0
  -26.5416   -1.1865   27.0935 O   0  0  0  0  0  0  0  0  0  0  0  0
  -25.7582    1.0807   27.2887 C   0  0  0  0  0  0  0  0  0  0  0  0
  -25.3031    0.8280   28.6347 O   0  0  0  0  0  0  0  0  0  0  0  0
  -26.2275    2.5193   27.1630 C   0  0  0  0  0  0  0  0  0  0  0  0
  -27.4134    2.8427   28.0042 N   0  0  0  0  0  0  0  0  0  0  0  0
  -28.5324    1.8898   27.7749 C   0  0  0  0  0  0  0  0  0  0  0  0
  -28.8620   -1.3585   27.6247 H   0  0  0  0  0  0  0  0  0  0  0  0
  -26.2929   -1.3473   28.0172 H   0  0  0  0  0  0  0  0  0  0  0  0
  -26.0288    0.9907   29.2574 H   0  0  0  0  0  0  0  0  0  0  0  0
  -27.7311    3.7851   27.7779 H   0  0  0  0  0  0  0  0  0  0  0  0
  -27.1349    2.7737   28.9831 H   0  0  0  0  0  0  0  0  0  0  0  0
  -25.1165    3.4664   27.6031 C   0  0  0  0  0  0  0  0  0  0  0  0
  -25.3015    3.7120   28.9844 O   0  0  0  0  0  0  0  0  0  0  0  0
  -26.1782    4.1009   29.1291 H   0  0  0  0  0  0  0  0  0  0  0  0
  -29.2476    2.1627   26.4305 C   0  0  0  0  0  0  0  0  0  0  0  0
  -29.3920    3.5810   26.3193 O   0  0  0  0  0  0  0  0  0  0  0  0
  -29.9040    3.9140   27.0730 H   0  0  0  0  0  0  0  0  0  0  0  0
  1  2  1  0  0  0
  2  3  1  0  0  0
  2  9  1  0  0  0
  3  4  1  0  0  0
  3  5  1  0  0  0
  5  6  1  0  0  0
  5  7  1  0  0  0
  7 15  1  0  0  0
  7  8  1  0  0  0
 15 16  1  0  0  0
  8  9  1  0  0  0
  9 18  1  0  0  0
 18 19  1  0  0  0
  1 10  1  0  0  0
  4 11  1  0  0  0
  6 12  1  0  0  0
 16 17  1  0  0  0
  8 13  1  0  0  0
  8 14  1  0  0  0
 19 20  1  0  0  0
M  CHG 1   8   1
M  END
> <minimizedAffinity>
-6.32453

$$$$
2WVT_FHN_A_1473


 20 20  0  0  0  0  0  0  0  0999 V2000
  -25.7181    0.6488   27.9678 O   0  0  0  0  0  0  0  0  0  0  0  0
  -26.2768    0.4139   26.6513 C   0  0  0  0  0  0  0  0  0  0  0  0
  -26.1456   -1.0664   26.3172 C   0  0  0  0  0  0  0  0  0  0  0  0
  -24.7636   -1.4004   26.3718 O   0  0  0  0  0  0  0  0  0  0  0  0
  -26.6904   -1.3103   24.9326 C   0  0  0  0  0  0  0  0  0  0  0  0
  -25.9434   -0.5662   23.9471 O   0  0  0  0  0  0  0  0  0  0  0  0
  -28.1456   -0.8770   24.9142 C   0  0  0  0  0  0  0  0  0  0  0  0
  -28.3570    0.5437   25.3083 N   0  0  0  0  0  0  0  0  0  0  0  0
  -27.7187    0.8577   26.6147 C   0  0  0  0  0  0  0  0  0  0  0  0
  -24.7919    0.3609   27.9821 H   0  0  0  0  0  0  0  0  0  0  0  0
  -24.2727   -0.8499   25.7418 H   0  0  0  0  0  0  0  0  0  0  0  0
  -26.0049    0.3818   24.1429 H   0  0  0  0  0  0  0  0  0  0  0  0
  -29.3590    0.7205   25.3798 H   0  0  0  0  0  0  0  0  0  0  0  0
  -27.9290    1.1362   24.5968 H   0  0  0  0  0  0  0  0  0  0  0  0
  -28.7107   -1.0216   23.5055 C   0  0  0  0  0  0  0  0  0  0  0  0
  -28.2789    0.1050   22.7658 O   0  0  0  0  0  0  0  0  0  0  0  0
  -28.5967    0.9147   23.1950 H   0  0  0  0  0  0  0  0  0  0  0  0
  -28.5246    0.2725   27.7986 C   0  0  0  0  0  0  0  0  0  0  0  0
  -28.2042    1.0618   28.9472 O   0  0  0  0  0  0  0  0  0  0  0  0
  -27.2486    1.0239   29.1093 H   0  0  0  0  0  0  0  0  0  0  0  0
  1  2  1  0  0  0
  2  3  1  0  0  0
  2  9  1  0  0  0
  3  4  1  0  0  0
  3  5  1  0  0  0
  5  6  1  0  0  0
  5  7  1  0  0  0
  7 15  1  0  0  0
  7  8  1  0  0  0
 15 16  1  0  0  0
  8  9  1  0  0  0
  9 18  1  0  0  0
 18 19  1  0  0  0
  1 10  1  0  0  0
  4 11  1  0  0  0
  6 12  1  0  0  0
 16 17  1  0  0  0
  8 13  1  0  0  0
  8 14  1  0  0  0
 19 20  1  0  0  0
M  CHG 1   8   1
M  END
> <minimizedAffinity>
-6.18558

$$$$
2WVT_FHN_A_1473


 20 20  0  0  0  0  0  0  0  0999 V2000
  -25.3586    0.7433   27.6335 O   0  0  0  0  0  0  0  0  0  0  0  0
  -26.5276    0.9778   26.8095 C   0  0  0  0  0  0  0  0  0  0  0  0
  -27.3872   -0.2797   26.8042 C   0  0  0  0  0  0  0  0  0  0  0  0
  -26.5903   -1.3451   26.2997 O   0  0  0  0  0  0  0  0  0  0  0  0
  -28.5856   -0.0549   25.9173 C   0  0  0  0  0  0  0  0  0  0  0  0
  -28.1781    0.2084   24.5582 O   0  0  0  0  0  0  0  0  0  0  0  0
  -29.3619    1.1303   26.4634 C   0  0  0  0  0  0  0  0  0  0  0  0
  -28.5585    2.3800   26.5705 N   0  0  0  0  0  0  0  0  0  0  0  0
  -27.2984    2.1656   27.3314 C   0  0  0  0  0  0  0  0  0  0  0  0
  -24.8697   -0.0213   27.2910 H   0  0  0  0  0  0  0  0  0  0  0  0
  -26.2812   -1.1232   25.4074 H   0  0  0  0  0  0  0  0  0  0  0  0
  -27.6213    1.0024   24.5356 H   0  0  0  0  0  0  0  0  0  0  0  0
  -29.1148    3.0898   27.0470 H   0  0  0  0  0  0  0  0  0  0  0  0
  -28.3112    2.6787   25.6271 H   0  0  0  0  0  0  0  0  0  0  0  0
  -30.5341    1.4499   25.5421 C   0  0  0  0  0  0  0  0  0  0  0  0
  -30.4401    2.8222   25.2093 O   0  0  0  0  0  0  0  0  0  0  0  0
  -30.4697    3.3542   26.0198 H   0  0  0  0  0  0  0  0  0  0  0  0
  -27.5626    2.0495   28.8514 C   0  0  0  0  0  0  0  0  0  0  0  0
  -26.4952    2.7360   29.5103 O   0  0  0  0  0  0  0  0  0  0  0  0
  -25.6488    2.3332   29.2607 H   0  0  0  0  0  0  0  0  0  0  0  0
  1  2  1  0  0  0
  2  3  1  0  0  0
  2  9  1  0  0  0
  3  4  1  0  0  0
  3  5  1  0  0  0
  5  6  1  0  0  0
  5  7  1  0  0  0
  7 15  1  0  0  0
  7  8  1  0  0  0
 15 16  1  0  0  0
  8  9  1  0  0  0
  9 18  1  0  0  0
 18 19  1  0  0  0
  1 10  1  0  0  0
  4 11  1  0  0  0
  6 12  1  0  0  0
 16 17  1  0  0  0
  8 13  1  0  0  0
  8 14  1  0  0  0
 19 20  1  0  0  0
M  CHG 1   8   1
M  END
> <minimizedAffinity>
-5.76174

$$$$
2WVT_FHN_A_1473


 20 20  0  0  0  0  0  0  0  0999 V2000
  -25.1728   -1.1513   26.5668 O   0  0  0  0  0  0  0  0  0  0  0  0
  -26.4121   -0.4542   26.8474 C   0  0  0  0  0  0  0  0  0  0  0  0
  -26.0881    0.9622   27.3046 C   0  0  0  0  0  0  0  0  0  0  0  0
  -25.2635    0.8648   28.4601 O   0  0  0  0  0  0  0  0  0  0  0  0
  -27.3721    1.6803   27.6349 C   0  0  0  0  0  0  0  0  0  0  0  0
  -28.0710    1.0172   28.7094 O   0  0  0  0  0  0  0  0  0  0  0  0
  -28.2381    1.6978   26.3877 C   0  0  0  0  0  0  0  0  0  0  0  0
  -28.5310    0.3449   25.8378 N   0  0  0  0  0  0  0  0  0  0  0  0
  -27.2900   -0.4458   25.6199 C   0  0  0  0  0  0  0  0  0  0  0  0
  -24.6152   -1.1518   27.3605 H   0  0  0  0  0  0  0  0  0  0  0  0
  -25.7307    0.3677   29.1497 H   0  0  0  0  0  0  0  0  0  0  0  0
  -28.2823    0.1081   28.4453 H   0  0  0  0  0  0  0  0  0  0  0  0
  -29.0164    0.4491   24.9467 H   0  0  0  0  0  0  0  0  0  0  0  0
  -29.1086   -0.1534   26.5149 H   0  0  0  0  0  0  0  0  0  0  0  0
  -29.5867    2.3354   26.7031 C   0  0  0  0  0  0  0  0  0  0  0  0
  -30.1226    2.8029   25.4796 O   0  0  0  0  0  0  0  0  0  0  0  0
  -29.5112    3.4426   25.0822 H   0  0  0  0  0  0  0  0  0  0  0  0
  -26.5170    0.0384   24.3704 C   0  0  0  0  0  0  0  0  0  0  0  0
  -26.3065   -1.1092   23.5437 O   0  0  0  0  0  0  0  0  0  0  0  0
  -25.8070   -1.7772   24.0389 H   0  0  0  0  0  0  0  0  0  0  0  0
  1  2  1  0  0  0
  2  3  1  0  0  0
  2  9  1  0  0  0
  3  4  1  0  0  0
  3  5  1  0  0  0
  5  6  1  0  0  0
  5  7  1  0  0  0
  7 15  1  0  0  0
  7  8  1  0  0  0
 15 16  1  0  0  0
  8  9  1  0  0  0
  9 18  1  0  0  0
 18 19  1  0  0  0
  1 10  1  0  0  0
  4 11  1  0  0  0
  6 12  1  0  0  0
 16 17  1  0  0  0
  8 13  1  0  0  0
  8 14  1  0  0  0
 19 20  1  0  0  0
M  CHG 1   8   1
M  END
> <minimizedAffinity>
-5.59179

$$$$
2WVT_FHN_A_1473


 20 20  0  0  0  0  0  0  0  0999 V2000
  -28.9900   -1.2798   25.3517 O   0  0  0  0  0  0  0  0  0  0  0  0
  -28.3800   -0.0998   25.9315 C   0  0  0  0  0  0  0  0  0  0  0  0
  -28.7156   -0.0507   27.4164 C   0  0  0  0  0  0  0  0  0  0  0  0
  -30.1331   -0.0265   27.5381 O   0  0  0  0  0  0  0  0  0  0  0  0
  -28.1157    1.1953   28.0173 C   0  0  0  0  0  0  0  0  0  0  0  0
  -28.6633    2.3794   27.4002 O   0  0  0  0  0  0  0  0  0  0  0  0
  -26.6134    1.1476   27.8021 C   0  0  0  0  0  0  0  0  0  0  0  0
  -26.2124    1.0200   26.3733 N   0  0  0  0  0  0  0  0  0  0  0  0
  -26.8877   -0.1264   25.7080 C   0  0  0  0  0  0  0  0  0  0  0  0
  -29.9483   -1.2544   25.4999 H   0  0  0  0  0  0  0  0  0  0  0  0
  -30.4846    0.7466   27.0693 H   0  0  0  0  0  0  0  0  0  0  0  0
  -28.4693    2.3680   26.4499 H   0  0  0  0  0  0  0  0  0  0  0  0
  -25.2030    0.8812   26.3251 H   0  0  0  0  0  0  0  0  0  0  0  0
  -26.4895    1.8742   25.8896 H   0  0  0  0  0  0  0  0  0  0  0  0
  -25.9761    2.4345   28.3146 C   0  0  0  0  0  0  0  0  0  0  0  0
  -26.6095    2.7539   29.5392 O   0  0  0  0  0  0  0  0  0  0  0  0
  -27.5619    2.8631   29.3917 H   0  0  0  0  0  0  0  0  0  0  0  0
  -26.2718   -1.4789   26.1378 C   0  0  0  0  0  0  0  0  0  0  0  0
  -24.8623   -1.2712   26.2602 O   0  0  0  0  0  0  0  0  0  0  0  0
  -24.5053   -0.9673   25.4111 H   0  0  0  0  0  0  0  0  0  0  0  0
  1  2  1  0  0  0
  2  3  1  0  0  0
  2  9  1  0  0  0
  3  4  1  0  0  0
  3  5  1  0  0  0
  5  6  1  0  0  0
  5  7  1  0  0  0
  7 15  1  0  0  0
  7  8  1  0  0  0
 15 16  1  0  0  0
  8  9  1  0  0  0
  9 18  1  0  0  0
 18 19  1  0  0  0
  1 10  1  0  0  0
  4 11  1  0  0  0
  6 12  1  0  0  0
 16 17  1  0  0  0
  8 13  1  0  0  0
  8 14  1  0  0  0
 19 20  1  0  0  0
M  CHG 1   8   1
M  END
> <minimizedAffinity>
-5.48192

$$$$
2WVT_FHN_A_1473


 20 20  0  0  0  0  0  0  0  0999 V2000
  -28.8573    3.2847   27.7476 O   0  0  0  0  0  0  0  0  0  0  0  0
  -27.8567    2.3538   27.2651 C   0  0  0  0  0  0  0  0  0  0  0  0
  -27.2378    1.6343   28.4566 C   0  0  0  0  0  0  0  0  0  0  0  0
  -26.6724    2.6217   29.3110 O   0  0  0  0  0  0  0  0  0  0  0  0
  -26.1689    0.6921   27.9637 C   0  0  0  0  0  0  0  0  0  0  0  0
  -25.1179    1.4143   27.2880 O   0  0  0  0  0  0  0  0  0  0  0  0
  -26.8140   -0.2964   27.0085 C   0  0  0  0  0  0  0  0  0  0  0  0
  -27.5082    0.3434   25.8564 N   0  0  0  0  0  0  0  0  0  0  0  0
  -28.4821    1.3766   26.3000 C   0  0  0  0  0  0  0  0  0  0  0  0
  -28.4468    3.9085   28.3667 H   0  0  0  0  0  0  0  0  0  0  0  0
  -26.0086    3.1316   28.8209 H   0  0  0  0  0  0  0  0  0  0  0  0
  -25.4888    1.8888   26.5276 H   0  0  0  0  0  0  0  0  0  0  0  0
  -28.0062   -0.3752   25.3311 H   0  0  0  0  0  0  0  0  0  0  0  0
  -26.8040    0.8006   25.2772 H   0  0  0  0  0  0  0  0  0  0  0  0
  -25.7494   -1.2123   26.4148 C   0  0  0  0  0  0  0  0  0  0  0  0
  -25.5779   -0.8301   25.0631 O   0  0  0  0  0  0  0  0  0  0  0  0
  -26.4223   -0.9153   24.5933 H   0  0  0  0  0  0  0  0  0  0  0  0
  -29.7635    0.7384   26.8865 C   0  0  0  0  0  0  0  0  0  0  0  0
  -30.5749    0.3451   25.7767 O   0  0  0  0  0  0  0  0  0  0  0  0
  -30.7771    1.1222   25.2325 H   0  0  0  0  0  0  0  0  0  0  0  0
  1  2  1  0  0  0
  2  3  1  0  0  0
  2  9  1  0  0  0
  3  4  1  0  0  0
  3  5  1  0  0  0
  5  6  1  0  0  0
  5  7  1  0  0  0
  7 15  1  0  0  0
  7  8  1  0  0  0
 15 16  1  0  0  0
  8  9  1  0  0  0
  9 18  1  0  0  0
 18 19  1  0  0  0
  1 10  1  0  0  0
  4 11  1  0  0  0
  6 12  1  0  0  0
 16 17  1  0  0  0
  8 13  1  0  0  0
  8 14  1  0  0  0
 19 20  1  0  0  0
M  CHG 1   8   1
M  END
> <minimizedAffinity>
-5.13143

$$$$
2WVT_FHN_A_1473


 20 20  0  0  0  0  0  0  0  0999 V2000
  -25.8429    0.0501   23.8510 O   0  0  0  0  0  0  0  0  0  0  0  0
  -26.6292   -0.8552   24.6652 C   0  0  0  0  0  0  0  0  0  0  0  0
  -27.0490   -0.1336   25.9393 C   0  0  0  0  0  0  0  0  0  0  0  0
  -25.8650    0.2853   26.6081 O   0  0  0  0  0  0  0  0  0  0  0  0
  -27.8350   -1.0826   26.8081 C   0  0  0  0  0  0  0  0  0  0  0  0
  -27.0308   -2.2192   27.1875 O   0  0  0  0  0  0  0  0  0  0  0  0
  -29.0489   -1.5469   26.0228 C   0  0  0  0  0  0  0  0  0  0  0  0
  -28.7153   -2.1941   24.7234 N   0  0  0  0  0  0  0  0  0  0  0  0
  -27.8298   -1.3384   23.8889 C   0  0  0  0  0  0  0  0  0  0  0  0
  -25.0740    0.3554   24.3575 H   0  0  0  0  0  0  0  0  0  0  0  0
  -25.3134   -0.4882   26.8040 H   0  0  0  0  0  0  0  0  0  0  0  0
  -26.7435   -2.6924   26.3910 H   0  0  0  0  0  0  0  0  0  0  0  0
  -29.5797   -2.3718   24.2120 H   0  0  0  0  0  0  0  0  0  0  0  0
  -28.2198   -3.0635   24.9212 H   0  0  0  0  0  0  0  0  0  0  0  0
  -29.8242   -2.5808   26.8320 C   0  0  0  0  0  0  0  0  0  0  0  0
  -30.7571   -1.8732   27.6268 O   0  0  0  0  0  0  0  0  0  0  0  0
  -30.2853   -1.2518   28.2031 H   0  0  0  0  0  0  0  0  0  0  0  0
  -28.6076   -0.1620   23.2529 C   0  0  0  0  0  0  0  0  0  0  0  0
  -27.8773    0.2359   22.0897 O   0  0  0  0  0  0  0  0  0  0  0  0
  -26.9785    0.4958   22.3454 H   0  0  0  0  0  0  0  0  0  0  0  0
  1  2  1  0  0  0
  2  3  1  0  0  0
  2  9  1  0  0  0
  3  4  1  0  0  0
  3  5  1  0  0  0
  5  6  1  0  0  0
  5  7  1  0  0  0
  7 15  1  0  0  0
  7  8  1  0  0  0
 15 16  1  0  0  0
  8  9  1  0  0  0
  9 18  1  0  0  0
 18 19  1  0  0  0
  1 10  1  0  0  0
  4 11  1  0  0  0
  6 12  1  0  0  0
 16 17  1  0  0  0
  8 13  1  0  0  0
  8 14  1  0  0  0
 19 20  1  0  0  0
M  CHG 1   8   1
M  END
> <minimizedAffinity>
-4.82288

$$$$
2WVT_FHN_A_1473


 20 20  0  0  0  0  0  0  0  0999 V2000
  -25.9070   -0.5589   23.8495 O   0  0  0  0  0  0  0  0  0  0  0  0
  -27.1902   -0.6094   24.5216 C   0  0  0  0  0  0  0  0  0  0  0  0
  -27.6799   -2.0516   24.5411 C   0  0  0  0  0  0  0  0  0  0  0  0
  -27.7725   -2.4942   23.1920 O   0  0  0  0  0  0  0  0  0  0  0  0
  -29.0326   -2.1048   25.2050 C   0  0  0  0  0  0  0  0  0  0  0  0
  -29.9968   -1.3197   24.4726 O   0  0  0  0  0  0  0  0  0  0  0  0
  -28.8882   -1.5620   26.6158 C   0  0  0  0  0  0  0  0  0  0  0  0
  -28.3383   -0.1791   26.6767 N   0  0  0  0  0  0  0  0  0  0  0  0
  -27.0638   -0.0553   25.9196 C   0  0  0  0  0  0  0  0  0  0  0  0
  -25.9976   -0.9167   22.9525 H   0  0  0  0  0  0  0  0  0  0  0  0
  -28.3825   -1.9192   22.7041 H   0  0  0  0  0  0  0  0  0  0  0  0
  -29.7030   -0.3959   24.4390 H   0  0  0  0  0  0  0  0  0  0  0  0
  -28.1675    0.0652   27.6522 H   0  0  0  0  0  0  0  0  0  0  0  0
  -29.0198    0.4510   26.2538 H   0  0  0  0  0  0  0  0  0  0  0  0
  -30.2531   -1.5127   27.2935 C   0  0  0  0  0  0  0  0  0  0  0  0
  -30.7416   -0.1922   27.1505 O   0  0  0  0  0  0  0  0  0  0  0  0
  -30.1189    0.4289   27.5596 H   0  0  0  0  0  0  0  0  0  0  0  0
  -25.8821   -0.6994   26.6826 C   0  0  0  0  0  0  0  0  0  0  0  0
  -25.5949    0.1519   27.7951 O   0  0  0  0  0  0  0  0  0  0  0  0
  -25.3740    1.0402   27.4740 H   0  0  0  0  0  0  0  0  0  0  0  0
  1  2  1  0  0  0
  2  3  1  0  0  0
  2  9  1  0  0  0
  3  4  1  0  0  0
  3  5  1  0  0  0
  5  6  1  0  0  0
  5  7  1  0  0  0
  7 15  1  0  0  0
  7  8  1  0  0  0
 15 16  1  0  0  0
  8  9  1  0  0  0
  9 18  1  0  0  0
 18 19  1  0  0  0
  1 10  1  0  0  0
  4 11  1  0  0  0
  6 12  1  0  0  0
 16 17  1  0  0  0
  8 13  1  0  0  0
  8 14  1  0  0  0
 19 20  1  0  0  0
M  CHG 1   8   1
M  END
> <minimizedAffinity>
-4.80559

$$$$
