5G46_6VD_A_1510
  RCSB PDB12061717483D
Coordinates from PDB:5G46:A:1510 Model:1 without hydrogens
 13 14  0  0  0  0            999 V2000
  -27.1960    4.1860  -30.3160   C 0  0  0  0  0  0  0  0  0  0  0  0
  -27.3090    2.8480  -30.6350   C 0  0  0  0  0  0  0  0  0  0  0  0
  -26.9320    5.1270  -31.2850   C 0  0  0  0  0  0  0  0  0  0  0  0
  -27.1820    2.4260  -31.9440   C 0  0  0  0  0  0  0  0  0  0  0  0
  -26.7910    4.6870  -32.5880   C 0  0  0  0  0  0  0  0  0  0  0  0
  -26.9230    3.3520  -32.9320   C 0  0  0  0  0  0  0  0  0  0  0  0
  -26.3620    5.1990  -35.0240   C 0  0  0  0  0  0  0  0  0  0  0  0
  -26.5060    5.6780  -33.6340   C 0  0  0  0  0  0  0  0  0  0  0  0
  -26.5070    3.8820  -35.2370   C 0  0  0  0  0  0  0  0  0  0  0  0
  -27.6430    3.0650  -37.3040   C 0  0  0  0  0  0  0  0  0  0  0  0
  -26.3270    3.3600  -36.6270   C 0  0  0  0  0  0  0  0  0  0  0  0
  -26.7710    2.9350  -34.2650   N 0  0  0  0  0  0  0  0  0  0  0  0
  -26.3700    6.8590  -33.3440   O 0  0  0  0  0  0  0  0  0  0  0  0
  1  2  1  0  0  0  0
  1  3  2  0  0  0  0
  2  4  2  0  0  0  0
  3  5  1  0  0  0  0
  4  6  1  0  0  0  0
  5  6  2  0  0  0  0
  5  8  1  0  0  0  0
  6 12  1  0  0  0  0
  7  8  2  0  0  0  0
  7  9  1  0  0  0  0
  8 13  1  0  0  0  0
  9 11  1  0  0  0  0
  9 12  2  0  0  0  0
 10 11  1  0  0  0  0
A    1
C1
A    2
C2
A    3
C3
A    4
C4
A    5
C5
A    6
C6
A    7
C7
A    8
C8
A    9
C9
A   10
C10
A   11
C11
A   12
N12
A   13
O13
M  END
>  <InstanceId>
5G46_6VD_A_1510

>  <ChemCompId>
6VD

>  <PdbId>
5G46

>  <ChainId>
A

>  <ResidueNumber>
1510

>  <InsertionCode>


>  <Model>
1

>  <AltIds>


>  <MissingHeavyAtoms>
0

>  <ObservedFormula>
C11 N O

>  <Name>
2-ETHYL-4(1H)-QUINOLINONE

>  <SystematicName>
2-ethylquinolin-4-ol

>  <Synonyms>


>  <Type>
non-polymer

>  <Formula>
C11 H11 N O

>  <MolecularWeight>
173.211

>  <ModifiedDate>
2016-07-29

>  <Parent>


>  <OneLetterCode>


>  <SubcomponentList>


>  <AmbiguousFlag>
N

>  <InChI>
InChI=1S/C11H11NO/c1-2-8-7-11(13)9-5-3-4-6-10(9)12-8/h3-7H,2H2,1H3,(H,12,13)

>  <InChIKey>
YBKUKKHOCTXYGB-UHFFFAOYSA-N

>  <SMILES>
CCc1cc(c2ccccc2n1)O

$$$$
