2V54_TYD_A_1205


 30 31  0  0  0  0  0  0  0  0999 V2000
   10.3790   23.8885    1.3652 C   0  0  0  0  0  0  0  0  0  0  0  0
    9.6502   23.6260    0.1524 O   0  0  0  0  0  0  0  0  0  0  0  0
    9.3372   24.1959    2.4465 C   0  0  0  0  0  0  0  0  0  0  0  0
    9.2156   25.6120    2.6091 O   0  0  0  0  0  0  0  0  0  0  0  0
    8.0673   23.6175    1.8253 C   0  0  0  0  0  0  0  0  0  0  0  0
    8.2952   24.0486    0.3763 C   0  0  0  0  0  0  0  0  0  0  0  0
    9.0069   26.0189    1.7536 H   0  0  0  0  0  0  0  0  0  0  0  0
    7.4138   23.3459   -0.5850 N   0  0  0  0  0  0  0  0  0  0  0  0
    6.4729   24.0426   -1.3525 C   0  0  0  0  0  0  0  0  0  0  0  0
    6.3466   25.2590   -1.2312 O   0  0  0  0  0  0  0  0  0  0  0  0
    5.7006   23.3546   -2.2990 N   0  0  0  0  0  0  0  0  0  0  0  0
    5.8771   21.9810   -2.4820 C   0  0  0  0  0  0  0  0  0  0  0  0
    5.2292   21.3861   -3.3464 O   0  0  0  0  0  0  0  0  0  0  0  0
    6.8120   21.2893   -1.7174 C   0  0  0  0  0  0  0  0  0  0  0  0
    7.0023   19.7817   -1.9055 C   0  0  0  0  0  0  0  0  0  0  0  0
    7.5733   21.9653   -0.7758 C   0  0  0  0  0  0  0  0  0  0  0  0
    5.0330   23.8402   -2.8354 H   0  0  0  0  0  0  0  0  0  0  0  0
   11.1916   22.6452    1.7316 C   0  0  0  0  0  0  0  0  0  0  0  0
   10.5198   21.8367    2.7007 O   0  0  0  0  0  0  0  0  0  0  0  0
   11.2361   21.5444    4.1127 P   0  0  0  0  0  0  0  0  0  0  0  0
   10.2917   20.8501    5.0156 O   0  0  0  0  0  0  0  0  0  0  0  0
   11.8911   22.7791    4.5973 O   0  0  0  0  0  0  0  0  0  0  0  0
   12.3229   22.6036    5.4480 H   0  0  0  0  0  0  0  0  0  0  0  0
   12.3636   20.4739    3.6964 O   0  0  0  0  0  0  0  0  0  0  0  0
   11.9957   18.9903    3.1943 P   0  0  0  0  0  0  0  0  0  0  0  0
   12.4153   17.9505    4.1616 O   0  0  0  0  0  0  0  0  0  0  0  0
   10.4060   19.0016    2.9395 O   0  0  0  0  0  0  0  0  0  0  0  0
   12.6639   18.7982    1.7437 O   0  0  0  0  0  0  0  0  0  0  0  0
    9.9438   19.1154    3.7847 H   0  0  0  0  0  0  0  0  0  0  0  0
   13.6298   18.7833    1.8320 H   0  0  0  0  0  0  0  0  0  0  0  0
 20 21  2  0  0  0
 20 22  1  0  0  0
 20 24  1  0  0  0
 20 19  1  0  0  0
 24 25  1  0  0  0
 25 26  2  0  0  0
 25 27  1  0  0  0
 25 28  1  0  0  0
 19 18  1  0  0  0
 18  1  1  0  0  0
  1  2  1  0  0  0
  1  3  1  0  0  0
  2  6  1  0  0  0
  3  4  1  0  0  0
  3  5  1  0  0  0
  5  6  1  0  0  0
  6  8  1  0  0  0
  8  9  1  0  0  0
  8 16  1  0  0  0
  9 10  2  0  0  0
  9 11  1  0  0  0
 11 12  1  0  0  0
 12 13  2  0  0  0
 12 14  1  0  0  0
 14 15  1  0  0  0
 14 16  2  0  0  0
 22 23  1  0  0  0
 27 29  1  0  0  0
 28 30  1  0  0  0
  4  7  1  0  0  0
 11 17  1  0  0  0
M  END
> <minimizedAffinity>
-10.53521

$$$$
2V54_TYD_A_1205


 30 31  0  0  0  0  0  0  0  0999 V2000
   10.1962   23.8629    1.5199 C   0  0  0  0  0  0  0  0  0  0  0  0
    9.5304   23.5876    0.2741 O   0  0  0  0  0  0  0  0  0  0  0  0
    9.1062   24.2527    2.5243 C   0  0  0  0  0  0  0  0  0  0  0  0
    9.0378   25.6777    2.6315 O   0  0  0  0  0  0  0  0  0  0  0  0
    7.8514   23.7062    1.8460 C   0  0  0  0  0  0  0  0  0  0  0  0
    8.1845   24.0747    0.4001 C   0  0  0  0  0  0  0  0  0  0  0  0
    8.8989   26.0618    1.7517 H   0  0  0  0  0  0  0  0  0  0  0  0
    7.3321   23.3755   -0.5894 N   0  0  0  0  0  0  0  0  0  0  0  0
    6.4241   24.0767   -1.3917 C   0  0  0  0  0  0  0  0  0  0  0  0
    6.3030   25.2944   -1.2787 O   0  0  0  0  0  0  0  0  0  0  0  0
    5.6802   23.3913   -2.3626 N   0  0  0  0  0  0  0  0  0  0  0  0
    5.8525   22.0158   -2.5350 C   0  0  0  0  0  0  0  0  0  0  0  0
    5.2308   21.4229   -3.4198 O   0  0  0  0  0  0  0  0  0  0  0  0
    6.7545   21.3196   -1.7358 C   0  0  0  0  0  0  0  0  0  0  0  0
    6.9397   19.8101   -1.9124 C   0  0  0  0  0  0  0  0  0  0  0  0
    7.4875   21.9930   -0.7702 C   0  0  0  0  0  0  0  0  0  0  0  0
    5.0356   23.8801   -2.9237 H   0  0  0  0  0  0  0  0  0  0  0  0
   10.9296   22.6004    1.9770 C   0  0  0  0  0  0  0  0  0  0  0  0
   10.3024   22.0028    3.1143 O   0  0  0  0  0  0  0  0  0  0  0  0
   11.2153   21.2751    4.2231 P   0  0  0  0  0  0  0  0  0  0  0  0
   12.3790   22.1293    4.5482 O   0  0  0  0  0  0  0  0  0  0  0  0
   11.4646   19.8755    3.8141 O   0  0  0  0  0  0  0  0  0  0  0  0
   12.0146   19.4366    4.4818 H   0  0  0  0  0  0  0  0  0  0  0  0
   10.2474   21.2879    5.5090 O   0  0  0  0  0  0  0  0  0  0  0  0
   10.8007   21.0638    7.0029 P   0  0  0  0  0  0  0  0  0  0  0  0
    9.7425   20.6014    7.9297 O   0  0  0  0  0  0  0  0  0  0  0  0
   12.0117   20.0120    6.8624 O   0  0  0  0  0  0  0  0  0  0  0  0
   11.4805   22.4443    7.4720 O   0  0  0  0  0  0  0  0  0  0  0  0
   11.6622   19.1524    6.5796 H   0  0  0  0  0  0  0  0  0  0  0  0
   10.7956   23.1234    7.5749 H   0  0  0  0  0  0  0  0  0  0  0  0
 20 21  2  0  0  0
 20 22  1  0  0  0
 20 24  1  0  0  0
 20 19  1  0  0  0
 24 25  1  0  0  0
 25 26  2  0  0  0
 25 27  1  0  0  0
 25 28  1  0  0  0
 19 18  1  0  0  0
 18  1  1  0  0  0
  1  2  1  0  0  0
  1  3  1  0  0  0
  2  6  1  0  0  0
  3  4  1  0  0  0
  3  5  1  0  0  0
  5  6  1  0  0  0
  6  8  1  0  0  0
  8  9  1  0  0  0
  8 16  1  0  0  0
  9 10  2  0  0  0
  9 11  1  0  0  0
 11 12  1  0  0  0
 12 13  2  0  0  0
 12 14  1  0  0  0
 14 15  1  0  0  0
 14 16  2  0  0  0
 22 23  1  0  0  0
 27 29  1  0  0  0
 28 30  1  0  0  0
  4  7  1  0  0  0
 11 17  1  0  0  0
M  END
> <minimizedAffinity>
-10.34132

$$$$
2V54_TYD_A_1205


 30 31  0  0  0  0  0  0  0  0999 V2000
   10.3879   24.1764    1.4428 C   0  0  0  0  0  0  0  0  0  0  0  0
    9.7013   23.9111    0.2062 O   0  0  0  0  0  0  0  0  0  0  0  0
    9.3102   24.3116    2.5241 C   0  0  0  0  0  0  0  0  0  0  0  0
    9.0410   25.6959    2.7649 O   0  0  0  0  0  0  0  0  0  0  0  0
    8.1127   23.6426    1.8520 C   0  0  0  0  0  0  0  0  0  0  0  0
    8.3078   24.1781    0.4334 C   0  0  0  0  0  0  0  0  0  0  0  0
    8.7990   26.1281    1.9309 H   0  0  0  0  0  0  0  0  0  0  0  0
    7.5127   23.4455   -0.5793 N   0  0  0  0  0  0  0  0  0  0  0  0
    7.6938   22.0739   -0.7933 C   0  0  0  0  0  0  0  0  0  0  0  0
    8.5346   21.4482   -0.1516 O   0  0  0  0  0  0  0  0  0  0  0  0
    6.8789   21.3999   -1.7138 N   0  0  0  0  0  0  0  0  0  0  0  0
    5.8836   22.0931   -2.4070 C   0  0  0  0  0  0  0  0  0  0  0  0
    5.1383   21.4896   -3.1823 O   0  0  0  0  0  0  0  0  0  0  0  0
    5.7055   23.4569   -2.1943 C   0  0  0  0  0  0  0  0  0  0  0  0
    4.6236   24.2244   -2.9590 C   0  0  0  0  0  0  0  0  0  0  0  0
    6.5137   24.1282   -1.2892 C   0  0  0  0  0  0  0  0  0  0  0  0
    7.0083   20.4369   -1.8720 H   0  0  0  0  0  0  0  0  0  0  0  0
   11.3217   23.0041    1.7502 C   0  0  0  0  0  0  0  0  0  0  0  0
   10.6836   22.0136    2.5599 O   0  0  0  0  0  0  0  0  0  0  0  0
   11.3038   21.6596    4.0030 P   0  0  0  0  0  0  0  0  0  0  0  0
   10.2930   20.9512    4.8189 O   0  0  0  0  0  0  0  0  0  0  0  0
   11.9456   22.8649    4.5720 O   0  0  0  0  0  0  0  0  0  0  0  0
   12.3195   22.6522    5.4414 H   0  0  0  0  0  0  0  0  0  0  0  0
   12.4388   20.5843    3.6207 O   0  0  0  0  0  0  0  0  0  0  0  0
   12.1101   19.2481    2.7871 P   0  0  0  0  0  0  0  0  0  0  0  0
   12.9466   18.1023    3.2113 O   0  0  0  0  0  0  0  0  0  0  0  0
   10.5357   18.9839    2.9965 O   0  0  0  0  0  0  0  0  0  0  0  0
   12.2843   19.6036    1.2279 O   0  0  0  0  0  0  0  0  0  0  0  0
   10.3657   18.7628    3.9255 H   0  0  0  0  0  0  0  0  0  0  0  0
   13.2200   19.7746    1.0378 H   0  0  0  0  0  0  0  0  0  0  0  0
 20 21  2  0  0  0
 20 22  1  0  0  0
 20 24  1  0  0  0
 20 19  1  0  0  0
 24 25  1  0  0  0
 25 26  2  0  0  0
 25 27  1  0  0  0
 25 28  1  0  0  0
 19 18  1  0  0  0
 18  1  1  0  0  0
  1  2  1  0  0  0
  1  3  1  0  0  0
  2  6  1  0  0  0
  3  4  1  0  0  0
  3  5  1  0  0  0
  5  6  1  0  0  0
  6  8  1  0  0  0
  8  9  1  0  0  0
  8 16  1  0  0  0
  9 10  2  0  0  0
  9 11  1  0  0  0
 11 12  1  0  0  0
 12 13  2  0  0  0
 12 14  1  0  0  0
 14 15  1  0  0  0
 14 16  2  0  0  0
 22 23  1  0  0  0
 27 29  1  0  0  0
 28 30  1  0  0  0
  4  7  1  0  0  0
 11 17  1  0  0  0
M  END
> <minimizedAffinity>
-9.82051

$$$$
2V54_TYD_A_1205


 30 31  0  0  0  0  0  0  0  0999 V2000
   10.2863   23.9949    1.4185 C   0  0  0  0  0  0  0  0  0  0  0  0
    9.5822   23.7169    0.1946 O   0  0  0  0  0  0  0  0  0  0  0  0
    9.2222   24.3013    2.4781 C   0  0  0  0  0  0  0  0  0  0  0  0
    9.0854   25.7175    2.6274 O   0  0  0  0  0  0  0  0  0  0  0  0
    7.9689   23.7071    1.8382 C   0  0  0  0  0  0  0  0  0  0  0  0
    8.2198   24.1292    0.3904 C   0  0  0  0  0  0  0  0  0  0  0  0
    8.8890   26.1161    1.7652 H   0  0  0  0  0  0  0  0  0  0  0  0
    7.3623   23.4116   -0.5814 N   0  0  0  0  0  0  0  0  0  0  0  0
    6.4463   24.0970   -1.3883 C   0  0  0  0  0  0  0  0  0  0  0  0
    6.3223   25.3160   -1.2941 O   0  0  0  0  0  0  0  0  0  0  0  0
    5.6976   23.3938   -2.3426 N   0  0  0  0  0  0  0  0  0  0  0  0
    5.8728   22.0162   -2.4940 C   0  0  0  0  0  0  0  0  0  0  0  0
    5.2466   21.4073   -3.3645 O   0  0  0  0  0  0  0  0  0  0  0  0
    6.7828   21.3357   -1.6903 C   0  0  0  0  0  0  0  0  0  0  0  0
    6.9714   19.8241   -1.8439 C   0  0  0  0  0  0  0  0  0  0  0  0
    7.5207   22.0268   -0.7410 C   0  0  0  0  0  0  0  0  0  0  0  0
    5.0474   23.8716   -2.9067 H   0  0  0  0  0  0  0  0  0  0  0  0
   11.1027   22.7615    1.8094 C   0  0  0  0  0  0  0  0  0  0  0  0
   11.4507   22.7711    3.1960 O   0  0  0  0  0  0  0  0  0  0  0  0
   11.6895   21.3718    3.9559 P   0  0  0  0  0  0  0  0  0  0  0  0
   12.7840   20.6271    3.2951 O   0  0  0  0  0  0  0  0  0  0  0  0
   10.3917   20.6882    4.1478 O   0  0  0  0  0  0  0  0  0  0  0  0
   10.5349   19.8451    4.6055 H   0  0  0  0  0  0  0  0  0  0  0  0
   12.2476   21.8617    5.3838 O   0  0  0  0  0  0  0  0  0  0  0  0
   13.3926   22.9836    5.5196 P   0  0  0  0  0  0  0  0  0  0  0  0
   14.1121   22.8975    6.8109 O   0  0  0  0  0  0  0  0  0  0  0  0
   14.3596   22.7706    4.2499 O   0  0  0  0  0  0  0  0  0  0  0  0
   12.6897   24.4126    5.2917 O   0  0  0  0  0  0  0  0  0  0  0  0
   14.8156   21.9183    4.3302 H   0  0  0  0  0  0  0  0  0  0  0  0
   12.0896   24.5992    6.0305 H   0  0  0  0  0  0  0  0  0  0  0  0
 20 21  2  0  0  0
 20 22  1  0  0  0
 20 24  1  0  0  0
 20 19  1  0  0  0
 24 25  1  0  0  0
 25 26  2  0  0  0
 25 27  1  0  0  0
 25 28  1  0  0  0
 19 18  1  0  0  0
 18  1  1  0  0  0
  1  2  1  0  0  0
  1  3  1  0  0  0
  2  6  1  0  0  0
  3  4  1  0  0  0
  3  5  1  0  0  0
  5  6  1  0  0  0
  6  8  1  0  0  0
  8  9  1  0  0  0
  8 16  1  0  0  0
  9 10  2  0  0  0
  9 11  1  0  0  0
 11 12  1  0  0  0
 12 13  2  0  0  0
 12 14  1  0  0  0
 14 15  1  0  0  0
 14 16  2  0  0  0
 22 23  1  0  0  0
 27 29  1  0  0  0
 28 30  1  0  0  0
  4  7  1  0  0  0
 11 17  1  0  0  0
M  END
> <minimizedAffinity>
-9.81342

$$$$
2V54_TYD_A_1205


 30 31  0  0  0  0  0  0  0  0999 V2000
   10.5041   24.2289    1.5192 C   0  0  0  0  0  0  0  0  0  0  0  0
    9.8206   23.9314    0.2882 O   0  0  0  0  0  0  0  0  0  0  0  0
    9.4216   24.4418    2.5830 C   0  0  0  0  0  0  0  0  0  0  0  0
    9.1918   25.8424    2.7623 O   0  0  0  0  0  0  0  0  0  0  0  0
    8.2105   23.7803    1.9281 C   0  0  0  0  0  0  0  0  0  0  0  0
    8.4339   24.2489    0.4901 C   0  0  0  0  0  0  0  0  0  0  0  0
    8.9701   26.2456    1.9083 H   0  0  0  0  0  0  0  0  0  0  0  0
    7.6260   23.4974   -0.4985 N   0  0  0  0  0  0  0  0  0  0  0  0
    7.8176   22.1257   -0.7025 C   0  0  0  0  0  0  0  0  0  0  0  0
    8.6782   21.5156   -0.0721 O   0  0  0  0  0  0  0  0  0  0  0  0
    6.9912   21.4337   -1.5991 N   0  0  0  0  0  0  0  0  0  0  0  0
    5.9743   22.1091   -2.2784 C   0  0  0  0  0  0  0  0  0  0  0  0
    5.2198   21.4898   -3.0320 O   0  0  0  0  0  0  0  0  0  0  0  0
    5.7858   23.4731   -2.0757 C   0  0  0  0  0  0  0  0  0  0  0  0
    4.6802   24.2211   -2.8255 C   0  0  0  0  0  0  0  0  0  0  0  0
    6.6052   24.1622   -1.1943 C   0  0  0  0  0  0  0  0  0  0  0  0
    7.1278   20.4705   -1.7502 H   0  0  0  0  0  0  0  0  0  0  0  0
   11.3997   23.0437    1.8853 C   0  0  0  0  0  0  0  0  0  0  0  0
   11.6967   23.0129    3.2834 O   0  0  0  0  0  0  0  0  0  0  0  0
   11.4387   21.6566    4.1118 P   0  0  0  0  0  0  0  0  0  0  0  0
   11.8244   20.4894    3.2882 O   0  0  0  0  0  0  0  0  0  0  0  0
   10.0789   21.6863    4.6936 O   0  0  0  0  0  0  0  0  0  0  0  0
    9.9229   20.8693    5.1928 H   0  0  0  0  0  0  0  0  0  0  0  0
   12.5244   21.7790    5.2936 O   0  0  0  0  0  0  0  0  0  0  0  0
   13.6203   22.9561    5.3347 P   0  0  0  0  0  0  0  0  0  0  0  0
   14.5585   22.8894    4.1911 O   0  0  0  0  0  0  0  0  0  0  0  0
   12.7795   24.3287    5.3741 O   0  0  0  0  0  0  0  0  0  0  0  0
   14.3648   22.8653    6.7579 O   0  0  0  0  0  0  0  0  0  0  0  0
   12.3043   24.4409    4.5359 H   0  0  0  0  0  0  0  0  0  0  0  0
   14.8923   22.0521    6.7955 H   0  0  0  0  0  0  0  0  0  0  0  0
 20 21  2  0  0  0
 20 22  1  0  0  0
 20 24  1  0  0  0
 20 19  1  0  0  0
 24 25  1  0  0  0
 25 26  2  0  0  0
 25 27  1  0  0  0
 25 28  1  0  0  0
 19 18  1  0  0  0
 18  1  1  0  0  0
  1  2  1  0  0  0
  1  3  1  0  0  0
  2  6  1  0  0  0
  3  4  1  0  0  0
  3  5  1  0  0  0
  5  6  1  0  0  0
  6  8  1  0  0  0
  8  9  1  0  0  0
  8 16  1  0  0  0
  9 10  2  0  0  0
  9 11  1  0  0  0
 11 12  1  0  0  0
 12 13  2  0  0  0
 12 14  1  0  0  0
 14 15  1  0  0  0
 14 16  2  0  0  0
 22 23  1  0  0  0
 27 29  1  0  0  0
 28 30  1  0  0  0
  4  7  1  0  0  0
 11 17  1  0  0  0
M  END
> <minimizedAffinity>
-8.99415

$$$$
2V54_TYD_A_1205


 30 31  0  0  0  0  0  0  0  0999 V2000
   11.5678   21.1126    2.1094 C   0  0  0  0  0  0  0  0  0  0  0  0
   10.4954   21.1918    1.1531 O   0  0  0  0  0  0  0  0  0  0  0  0
   11.8768   22.5495    2.5438 C   0  0  0  0  0  0  0  0  0  0  0  0
   13.0082   23.0390    1.8178 O   0  0  0  0  0  0  0  0  0  0  0  0
   10.6073   23.2820    2.1138 C   0  0  0  0  0  0  0  0  0  0  0  0
   10.3653   22.5735    0.7808 C   0  0  0  0  0  0  0  0  0  0  0  0
   12.8415   22.9573    0.8657 H   0  0  0  0  0  0  0  0  0  0  0  0
    9.0024   22.7942    0.2438 N   0  0  0  0  0  0  0  0  0  0  0  0
    8.3286   24.0048    0.4448 C   0  0  0  0  0  0  0  0  0  0  0  0
    8.8519   24.9102    1.0902 O   0  0  0  0  0  0  0  0  0  0  0  0
    7.0665   24.2025   -0.1328 N   0  0  0  0  0  0  0  0  0  0  0  0
    6.4886   23.1989   -0.9141 C   0  0  0  0  0  0  0  0  0  0  0  0
    5.3991   23.3920   -1.4584 O   0  0  0  0  0  0  0  0  0  0  0  0
    7.1590   21.9953   -1.1119 C   0  0  0  0  0  0  0  0  0  0  0  0
    6.5261   20.8873   -1.9580 C   0  0  0  0  0  0  0  0  0  0  0  0
    8.4048   21.7937   -0.5371 C   0  0  0  0  0  0  0  0  0  0  0  0
    6.5867   25.0499    0.0123 H   0  0  0  0  0  0  0  0  0  0  0  0
   11.1051   20.2725    3.3014 C   0  0  0  0  0  0  0  0  0  0  0  0
   10.7711   21.0863    4.4285 O   0  0  0  0  0  0  0  0  0  0  0  0
   11.5674   20.8773    5.8121 P   0  0  0  0  0  0  0  0  0  0  0  0
   12.3149   22.1095    6.1470 O   0  0  0  0  0  0  0  0  0  0  0  0
   12.3086   19.5979    5.7651 O   0  0  0  0  0  0  0  0  0  0  0  0
   12.7886   19.4714    6.5985 H   0  0  0  0  0  0  0  0  0  0  0  0
   10.3626   20.7541    6.8721 O   0  0  0  0  0  0  0  0  0  0  0  0
   10.5696   20.1257    8.3386 P   0  0  0  0  0  0  0  0  0  0  0  0
   11.0469   18.7250    8.2866 O   0  0  0  0  0  0  0  0  0  0  0  0
   11.5996   21.1095    9.0892 O   0  0  0  0  0  0  0  0  0  0  0  0
    9.1747   20.2801    9.1249 O   0  0  0  0  0  0  0  0  0  0  0  0
   12.4667   21.0604    8.6573 H   0  0  0  0  0  0  0  0  0  0  0  0
    8.5078   19.7067    8.7159 H   0  0  0  0  0  0  0  0  0  0  0  0
 20 21  2  0  0  0
 20 22  1  0  0  0
 20 24  1  0  0  0
 20 19  1  0  0  0
 24 25  1  0  0  0
 25 26  2  0  0  0
 25 27  1  0  0  0
 25 28  1  0  0  0
 19 18  1  0  0  0
 18  1  1  0  0  0
  1  2  1  0  0  0
  1  3  1  0  0  0
  2  6  1  0  0  0
  3  4  1  0  0  0
  3  5  1  0  0  0
  5  6  1  0  0  0
  6  8  1  0  0  0
  8  9  1  0  0  0
  8 16  1  0  0  0
  9 10  2  0  0  0
  9 11  1  0  0  0
 11 12  1  0  0  0
 12 13  2  0  0  0
 12 14  1  0  0  0
 14 15  1  0  0  0
 14 16  2  0  0  0
 22 23  1  0  0  0
 27 29  1  0  0  0
 28 30  1  0  0  0
  4  7  1  0  0  0
 11 17  1  0  0  0
M  END
> <minimizedAffinity>
-8.47405

$$$$
2V54_TYD_A_1205


 30 31  0  0  0  0  0  0  0  0999 V2000
   11.5154   22.1207    1.5304 C   0  0  0  0  0  0  0  0  0  0  0  0
   10.6073   22.1940    0.4164 O   0  0  0  0  0  0  0  0  0  0  0  0
   10.8306   22.8306    2.7035 C   0  0  0  0  0  0  0  0  0  0  0  0
   11.3300   24.1665    2.8154 O   0  0  0  0  0  0  0  0  0  0  0  0
    9.3721   22.8407    2.2496 C   0  0  0  0  0  0  0  0  0  0  0  0
    9.5880   23.1441    0.7668 C   0  0  0  0  0  0  0  0  0  0  0  0
   11.2114   24.6278    1.9704 H   0  0  0  0  0  0  0  0  0  0  0  0
    8.3883   22.8804   -0.0614 N   0  0  0  0  0  0  0  0  0  0  0  0
    7.4294   23.8744   -0.2901 C   0  0  0  0  0  0  0  0  0  0  0  0
    7.5562   24.9901    0.2093 O   0  0  0  0  0  0  0  0  0  0  0  0
    6.3400   23.6095   -1.1319 N   0  0  0  0  0  0  0  0  0  0  0  0
    6.2180   22.3615   -1.7477 C   0  0  0  0  0  0  0  0  0  0  0  0
    5.2838   22.1457   -2.5233 O   0  0  0  0  0  0  0  0  0  0  0  0
    7.1713   21.3737   -1.5185 C   0  0  0  0  0  0  0  0  0  0  0  0
    7.0372   20.0003   -2.1817 C   0  0  0  0  0  0  0  0  0  0  0  0
    8.2469   21.6300   -0.6815 C   0  0  0  0  0  0  0  0  0  0  0  0
    5.6601   24.3038   -1.2893 H   0  0  0  0  0  0  0  0  0  0  0  0
   11.7727   20.6493    1.8614 C   0  0  0  0  0  0  0  0  0  0  0  0
   12.7717   20.4981    2.8729 O   0  0  0  0  0  0  0  0  0  0  0  0
   12.4635   19.5651    4.1484 P   0  0  0  0  0  0  0  0  0  0  0  0
   13.5809   19.6573    5.1140 O   0  0  0  0  0  0  0  0  0  0  0  0
   12.0436   18.2238    3.6872 O   0  0  0  0  0  0  0  0  0  0  0  0
   11.8578   17.6612    4.4552 H   0  0  0  0  0  0  0  0  0  0  0  0
   11.2042   20.3167    4.8116 O   0  0  0  0  0  0  0  0  0  0  0  0
   11.2721   20.9766    6.2773 P   0  0  0  0  0  0  0  0  0  0  0  0
   12.0934   22.2085    6.3005 O   0  0  0  0  0  0  0  0  0  0  0  0
    9.7420   21.2375    6.7055 O   0  0  0  0  0  0  0  0  0  0  0  0
   11.8153   19.8462    7.2847 O   0  0  0  0  0  0  0  0  0  0  0  0
    9.3562   21.9157    6.1293 H   0  0  0  0  0  0  0  0  0  0  0  0
   12.7406   19.6441    7.0753 H   0  0  0  0  0  0  0  0  0  0  0  0
 20 21  2  0  0  0
 20 22  1  0  0  0
 20 24  1  0  0  0
 20 19  1  0  0  0
 24 25  1  0  0  0
 25 26  2  0  0  0
 25 27  1  0  0  0
 25 28  1  0  0  0
 19 18  1  0  0  0
 18  1  1  0  0  0
  1  2  1  0  0  0
  1  3  1  0  0  0
  2  6  1  0  0  0
  3  4  1  0  0  0
  3  5  1  0  0  0
  5  6  1  0  0  0
  6  8  1  0  0  0
  8  9  1  0  0  0
  8 16  1  0  0  0
  9 10  2  0  0  0
  9 11  1  0  0  0
 11 12  1  0  0  0
 12 13  2  0  0  0
 12 14  1  0  0  0
 14 15  1  0  0  0
 14 16  2  0  0  0
 22 23  1  0  0  0
 27 29  1  0  0  0
 28 30  1  0  0  0
  4  7  1  0  0  0
 11 17  1  0  0  0
M  END
> <minimizedAffinity>
-8.18296

$$$$
2V54_TYD_A_1205


 30 31  0  0  0  0  0  0  0  0999 V2000
   11.7726   21.3281    1.6300 C   0  0  0  0  0  0  0  0  0  0  0  0
   12.1202   21.7933    2.9467 O   0  0  0  0  0  0  0  0  0  0  0  0
   11.7338   19.7976    1.7003 C   0  0  0  0  0  0  0  0  0  0  0  0
   12.9624   19.2615    1.2005 O   0  0  0  0  0  0  0  0  0  0  0  0
   11.6191   19.5602    3.2048 C   0  0  0  0  0  0  0  0  0  0  0  0
   12.5747   20.6506    3.6899 C   0  0  0  0  0  0  0  0  0  0  0  0
   13.7060   19.6458    1.6908 H   0  0  0  0  0  0  0  0  0  0  0  0
   12.4398   20.9407    5.1363 N   0  0  0  0  0  0  0  0  0  0  0  0
   11.1910   21.2015    5.7126 C   0  0  0  0  0  0  0  0  0  0  0  0
   10.1749   21.2113    5.0214 O   0  0  0  0  0  0  0  0  0  0  0  0
   11.0926   21.4079    7.0959 N   0  0  0  0  0  0  0  0  0  0  0  0
   12.2355   21.3435    7.8967 C   0  0  0  0  0  0  0  0  0  0  0  0
   12.1403   21.4802    9.1186 O   0  0  0  0  0  0  0  0  0  0  0  0
   13.4767   21.0855    7.3223 C   0  0  0  0  0  0  0  0  0  0  0  0
   14.7345   21.0245    8.1932 C   0  0  0  0  0  0  0  0  0  0  0  0
   13.5788   20.8869    5.9537 C   0  0  0  0  0  0  0  0  0  0  0  0
   10.2169   21.5986    7.5034 H   0  0  0  0  0  0  0  0  0  0  0  0
   10.3998   21.8896    1.2547 C   0  0  0  0  0  0  0  0  0  0  0  0
    9.9402   22.8524    2.2064 O   0  0  0  0  0  0  0  0  0  0  0  0
    9.0203   24.0752    1.7054 P   0  0  0  0  0  0  0  0  0  0  0  0
    9.4983   24.5504    0.3882 O   0  0  0  0  0  0  0  0  0  0  0  0
    8.8763   25.0625    2.7976 O   0  0  0  0  0  0  0  0  0  0  0  0
    8.3221   25.7994    2.4963 H   0  0  0  0  0  0  0  0  0  0  0  0
    7.6066   23.3464    1.4590 O   0  0  0  0  0  0  0  0  0  0  0  0
    6.9367   23.2422   -0.0001 P   0  0  0  0  0  0  0  0  0  0  0  0
    5.5568   22.7076    0.0530 O   0  0  0  0  0  0  0  0  0  0  0  0
    7.0079   24.7282   -0.6159 O   0  0  0  0  0  0  0  0  0  0  0  0
    7.9163   22.3498   -0.9121 O   0  0  0  0  0  0  0  0  0  0  0  0
    6.4329   25.3182   -0.1039 H   0  0  0  0  0  0  0  0  0  0  0  0
    7.9161   21.4355   -0.5880 H   0  0  0  0  0  0  0  0  0  0  0  0
 20 21  2  0  0  0
 20 22  1  0  0  0
 20 24  1  0  0  0
 20 19  1  0  0  0
 24 25  1  0  0  0
 25 26  2  0  0  0
 25 27  1  0  0  0
 25 28  1  0  0  0
 19 18  1  0  0  0
 18  1  1  0  0  0
  1  2  1  0  0  0
  1  3  1  0  0  0
  2  6  1  0  0  0
  3  4  1  0  0  0
  3  5  1  0  0  0
  5  6  1  0  0  0
  6  8  1  0  0  0
  8  9  1  0  0  0
  8 16  1  0  0  0
  9 10  2  0  0  0
  9 11  1  0  0  0
 11 12  1  0  0  0
 12 13  2  0  0  0
 12 14  1  0  0  0
 14 15  1  0  0  0
 14 16  2  0  0  0
 22 23  1  0  0  0
 27 29  1  0  0  0
 28 30  1  0  0  0
  4  7  1  0  0  0
 11 17  1  0  0  0
M  END
> <minimizedAffinity>
-8.01353

$$$$
2V54_TYD_A_1205


 30 31  0  0  0  0  0  0  0  0999 V2000
   12.4302   21.6849    2.4407 C   0  0  0  0  0  0  0  0  0  0  0  0
   11.5351   22.1624    1.4200 O   0  0  0  0  0  0  0  0  0  0  0  0
   11.8591   22.1568    3.7824 C   0  0  0  0  0  0  0  0  0  0  0  0
   12.5424   23.3398    4.2070 O   0  0  0  0  0  0  0  0  0  0  0  0
   10.4140   22.4792    3.4067 C   0  0  0  0  0  0  0  0  0  0  0  0
   10.6619   23.1198    2.0409 C   0  0  0  0  0  0  0  0  0  0  0  0
   12.4852   24.0135    3.5115 H   0  0  0  0  0  0  0  0  0  0  0  0
    9.4324   23.2409    1.2235 N   0  0  0  0  0  0  0  0  0  0  0  0
    8.6262   24.3836    1.2872 C   0  0  0  0  0  0  0  0  0  0  0  0
    8.9157   25.3100    2.0410 O   0  0  0  0  0  0  0  0  0  0  0  0
    7.5054   24.4915    0.4518 N   0  0  0  0  0  0  0  0  0  0  0  0
    7.2008   23.4669   -0.4476 C   0  0  0  0  0  0  0  0  0  0  0  0
    6.2411   23.5838   -1.2131 O   0  0  0  0  0  0  0  0  0  0  0  0
    8.0024   22.3307   -0.5089 C   0  0  0  0  0  0  0  0  0  0  0  0
    7.6675   21.1993   -1.4846 C   0  0  0  0  0  0  0  0  0  0  0  0
    9.1082   22.2176    0.3203 C   0  0  0  0  0  0  0  0  0  0  0  0
    6.9322   25.2906    0.4990 H   0  0  0  0  0  0  0  0  0  0  0  0
   12.4795   20.1571    2.3787 C   0  0  0  0  0  0  0  0  0  0  0  0
   13.6252   19.6335    3.0550 O   0  0  0  0  0  0  0  0  0  0  0  0
   13.5115   18.2171    3.8121 P   0  0  0  0  0  0  0  0  0  0  0  0
   14.3722   17.2212    3.1363 O   0  0  0  0  0  0  0  0  0  0  0  0
   12.0855   17.8845    4.0224 O   0  0  0  0  0  0  0  0  0  0  0  0
   12.0164   17.0312    4.4785 H   0  0  0  0  0  0  0  0  0  0  0  0
   14.1951   18.5449    5.2318 O   0  0  0  0  0  0  0  0  0  0  0  0
   13.6697   19.7298    6.1849 P   0  0  0  0  0  0  0  0  0  0  0  0
   12.1914   19.8087    6.2189 O   0  0  0  0  0  0  0  0  0  0  0  0
   14.3133   19.4386    7.6318 O   0  0  0  0  0  0  0  0  0  0  0  0
   14.3551   21.0925    5.6740 O   0  0  0  0  0  0  0  0  0  0  0  0
   13.9363   18.6221    7.9950 H   0  0  0  0  0  0  0  0  0  0  0  0
   14.0049   21.3223    4.7992 H   0  0  0  0  0  0  0  0  0  0  0  0
 20 21  2  0  0  0
 20 22  1  0  0  0
 20 24  1  0  0  0
 20 19  1  0  0  0
 24 25  1  0  0  0
 25 26  2  0  0  0
 25 27  1  0  0  0
 25 28  1  0  0  0
 19 18  1  0  0  0
 18  1  1  0  0  0
  1  2  1  0  0  0
  1  3  1  0  0  0
  2  6  1  0  0  0
  3  4  1  0  0  0
  3  5  1  0  0  0
  5  6  1  0  0  0
  6  8  1  0  0  0
  8  9  1  0  0  0
  8 16  1  0  0  0
  9 10  2  0  0  0
  9 11  1  0  0  0
 11 12  1  0  0  0
 12 13  2  0  0  0
 12 14  1  0  0  0
 14 15  1  0  0  0
 14 16  2  0  0  0
 22 23  1  0  0  0
 27 29  1  0  0  0
 28 30  1  0  0  0
  4  7  1  0  0  0
 11 17  1  0  0  0
M  END
> <minimizedAffinity>
-7.86846

$$$$
2V54_TYD_A_1205


 30 31  0  0  0  0  0  0  0  0999 V2000
   11.7700   21.3450    2.0902 C   0  0  0  0  0  0  0  0  0  0  0  0
   12.6054   21.3624    3.2619 O   0  0  0  0  0  0  0  0  0  0  0  0
   11.4588   19.8738    1.7938 C   0  0  0  0  0  0  0  0  0  0  0  0
   12.3329   19.3943    0.7677 O   0  0  0  0  0  0  0  0  0  0  0  0
   11.7894   19.2127    3.1305 C   0  0  0  0  0  0  0  0  0  0  0  0
   13.0429   20.0123    3.4863 C   0  0  0  0  0  0  0  0  0  0  0  0
   13.2542   19.5420    1.0328 H   0  0  0  0  0  0  0  0  0  0  0  0
   13.4388   19.8715    4.9069 N   0  0  0  0  0  0  0  0  0  0  0  0
   14.4686   19.0052    5.2927 C   0  0  0  0  0  0  0  0  0  0  0  0
   15.0587   18.3260    4.4556 O   0  0  0  0  0  0  0  0  0  0  0  0
   14.8603   18.9456    6.6376 N   0  0  0  0  0  0  0  0  0  0  0  0
   14.2317   19.7553    7.5867 C   0  0  0  0  0  0  0  0  0  0  0  0
   14.6082   19.7345    8.7608 O   0  0  0  0  0  0  0  0  0  0  0  0
   13.2071   20.6151    7.2021 C   0  0  0  0  0  0  0  0  0  0  0  0
   12.5068   21.4970    8.2395 C   0  0  0  0  0  0  0  0  0  0  0  0
   12.8127   20.6723    5.8738 C   0  0  0  0  0  0  0  0  0  0  0  0
   15.5793   18.3322    6.9135 H   0  0  0  0  0  0  0  0  0  0  0  0
   10.4863   22.1223    2.3878 C   0  0  0  0  0  0  0  0  0  0  0  0
   10.3495   23.2675    1.5429 O   0  0  0  0  0  0  0  0  0  0  0  0
    9.3347   24.4423    1.9699 P   0  0  0  0  0  0  0  0  0  0  0  0
   10.0778   25.7135    2.1150 O   0  0  0  0  0  0  0  0  0  0  0  0
    8.5000   23.9843    3.1022 O   0  0  0  0  0  0  0  0  0  0  0  0
    7.8884   24.6917    3.3599 H   0  0  0  0  0  0  0  0  0  0  0  0
    8.4164   24.5804    0.6554 O   0  0  0  0  0  0  0  0  0  0  0  0
    7.4503   23.3956    0.1541 P   0  0  0  0  0  0  0  0  0  0  0  0
    6.5910   22.8744    1.2415 O   0  0  0  0  0  0  0  0  0  0  0  0
    6.6048   24.0148   -1.0682 O   0  0  0  0  0  0  0  0  0  0  0  0
    8.3857   22.2615   -0.4991 O   0  0  0  0  0  0  0  0  0  0  0  0
    6.0167   24.7105   -0.7349 H   0  0  0  0  0  0  0  0  0  0  0  0
    8.9242   21.8480    0.1937 H   0  0  0  0  0  0  0  0  0  0  0  0
 20 21  2  0  0  0
 20 22  1  0  0  0
 20 24  1  0  0  0
 20 19  1  0  0  0
 24 25  1  0  0  0
 25 26  2  0  0  0
 25 27  1  0  0  0
 25 28  1  0  0  0
 19 18  1  0  0  0
 18  1  1  0  0  0
  1  2  1  0  0  0
  1  3  1  0  0  0
  2  6  1  0  0  0
  3  4  1  0  0  0
  3  5  1  0  0  0
  5  6  1  0  0  0
  6  8  1  0  0  0
  8  9  1  0  0  0
  8 16  1  0  0  0
  9 10  2  0  0  0
  9 11  1  0  0  0
 11 12  1  0  0  0
 12 13  2  0  0  0
 12 14  1  0  0  0
 14 15  1  0  0  0
 14 16  2  0  0  0
 22 23  1  0  0  0
 27 29  1  0  0  0
 28 30  1  0  0  0
  4  7  1  0  0  0
 11 17  1  0  0  0
M  END
> <minimizedAffinity>
-7.73190

$$$$
