6FA4_D1W_B_203
  RCSB PDB08181802393D
Coordinates from PDB:6FA4:B:203 Model:1 without hydrogens
 29 32  0  0  0  0            999 V2000
   32.8020   96.6310   29.2240   C 0  0  0  0  0  0  0  0  0  0  0  0
   31.7040   97.0500   28.6290   N 0  0  0  0  0  0  0  0  0  0  0  0
   31.7870   97.5390   27.3840   C 0  0  0  0  0  0  0  0  0  0  0  0
   33.0020   97.5860   26.7000   C 0  0  0  0  0  0  0  0  0  0  0  0
   34.1550   97.1540   27.3270   C 0  0  0  0  0  0  0  0  0  0  0  0
   34.1070   96.6360   28.6260   C 0  0  0  0  0  0  0  0  0  0  0  0
   30.5120   98.0370   26.7870   C 0  0  0  0  0  0  0  0  0  0  0  0
   30.4350   99.3560   26.3010   C 0  0  0  0  0  0  0  0  0  0  0  0
   29.2540   99.8450   25.7590   C 0  0  0  0  0  0  0  0  0  0  0  0
   28.1260   99.0280   25.6800   C 0  0  0  0  0  0  0  0  0  0  0  0
   29.3580   97.2200   26.6900   C 0  0  0  0  0  0  0  0  0  0  0  0
   28.1680   97.7270   26.1610   C 0  0  0  0  0  0  0  0  0  0  0  0
   27.0160   96.9650   26.0730   O 0  0  0  0  0  0  0  0  0  0  0  0
   27.0200   95.6280   26.6360   C 0  0  0  0  0  0  0  0  0  0  0  0
   28.4150   94.9880   26.7890   C 0  0  0  0  0  0  0  0  0  0  0  0
   29.4660   95.9250   27.1210   O 0  0  0  0  0  0  0  0  0  0  0  0
   32.7370   96.1630   30.4800   O 0  0  0  0  0  0  0  0  0  0  0  0
   32.2680   94.8210   30.6490   C 0  0  0  0  0  0  0  0  0  0  0  0
   35.2070   96.1300   29.3520   N 0  0  0  0  0  0  0  0  0  0  0  0
   36.5500   95.9230   28.9870   C 0  0  0  0  0  0  0  0  0  0  0  0
   36.9930   95.6360   27.6930   C 0  0  0  0  0  0  0  0  0  0  0  0
   38.3170   95.3090   27.4670   C 0  0  0  0  0  0  0  0  0  0  0  0
   39.2240   95.2470   28.5040   C 0  0  0  0  0  0  0  0  0  0  0  0
   38.7810   95.5350   29.7890   C 0  0  0  0  0  0  0  0  0  0  0  0
   37.4660   95.8770   30.0350   C 0  0  0  0  0  0  0  0  0  0  0  0
   40.6740   94.8860   28.2590   C 0  0  0  0  0  0  0  0  0  0  0  0
   40.9510   93.4710   28.6220   N 0  0  0  0  0  0  0  0  0  0  0  0
   40.2860   92.5230   27.6820   C 0  0  0  0  0  0  0  0  0  0  0  0
   42.3990   93.2060   28.6450   C 0  0  0  0  0  0  0  0  0  0  0  0
 10  9  2  0  0  0  0
 10 12  1  0  0  0  0
 13 12  1  0  0  0  0
 13 14  1  0  0  0  0
  9  8  1  0  0  0  0
 12 11  2  0  0  0  0
 14 15  1  0  0  0  0
  8  7  2  0  0  0  0
 11  7  1  0  0  0  0
 11 16  1  0  0  0  0
  7  3  1  0  0  0  0
 16 15  1  0  0  0  0
  4  3  2  0  0  0  0
  4  5  1  0  0  0  0
  3  2  1  0  0  0  0
  5  6  2  0  0  0  0
  2  1  2  0  0  0  0
  6  1  1  0  0  0  0
  6 19  1  0  0  0  0
 22 21  2  0  0  0  0
 22 23  1  0  0  0  0
  1 17  1  0  0  0  0
 26 23  1  0  0  0  0
 26 27  1  0  0  0  0
 21 20  1  0  0  0  0
 23 24  2  0  0  0  0
 20 19  1  0  0  0  0
 20 25  2  0  0  0  0
 27 29  1  0  0  0  0
 27 28  1  0  0  0  0
 24 25  1  0  0  0  0
 17 18  1  0  0  0  0
A    1
C1
A    2
N2
A    3
C3
A    4
C4
A    5
C5
A    6
C6
A    7
C7
A    8
C8
A    9
C9
A   10
C10
A   11
C11
A   12
C12
A   13
O13
A   14
C14
A   15
C15
A   16
O16
A   17
O17
A   18
C18
A   19
N19
A   20
C20
A   21
C21
A   22
C22
A   23
C23
A   24
C24
A   25
C25
A   26
C26
A   27
N27
A   28
C28
A   29
C29
M  END
>  <InstanceId>
6FA4_D1W_B_203

>  <ChemCompId>
D1W

>  <PdbId>
6FA4

>  <ChainId>
B

>  <ResidueNumber>
203

>  <InsertionCode>


>  <Model>
1

>  <AltIds>


>  <MissingHeavyAtoms>
0

>  <ObservedFormula>
C23 N3 O3

>  <Name>
6-(2,3-dihydro-1,4-benzodioxin-5-yl)-~{N}-[4-[(dimethylamino)methyl]phenyl]-2-methoxy-pyridin-3-amine

>  <SystematicName>
6-(2,3-dihydro-1,4-benzodioxin-5-yl)-~{N}-[4-[(dimethylamino)methyl]phenyl]-2-methoxy-pyridin-3-amine

>  <Synonyms>


>  <Type>
NON-POLYMER

>  <Formula>
C23 H25 N3 O3

>  <MolecularWeight>
391.463

>  <ModifiedDate>
2018-08-17

>  <Parent>


>  <OneLetterCode>


>  <SubcomponentList>


>  <AmbiguousFlag>
N

>  <InChI>
InChI=1S/C23H25N3O3/c1-26(2)15-16-7-9-17(10-8-16)24-20-12-11-19(25-23(20)27-3)18-5-4-6-21-22(18)29-14-13-28-21/h4-12,24H,13-15H2,1-3H3

>  <InChIKey>
MJHHFDJNRRCUOB-UHFFFAOYSA-N

>  <SMILES>
CN(C)Cc1ccc(cc1)Nc2ccc(nc2OC)c3cccc4c3OCCO4

$$$$
