4PZV_J1D_A_501


 54 58  0  0  0  0  0  0  0  0999 V2000
    2.8223   28.5823  -14.1590 N   0  0  0  0  0  0  0  0  0  0  0  0
    4.0710   28.3320  -13.6209 C   0  0  0  0  0  0  0  0  0  0  0  0
    5.0953   28.1718  -14.2825 O   0  0  0  0  0  0  0  0  0  0  0  0
    2.0632   28.6910  -13.5416 H   0  0  0  0  0  0  0  0  0  0  0  0
    2.5644   28.6955  -15.6065 C   0  0  0  0  0  0  0  0  0  0  0  0
    1.2814   28.1164  -15.8375 C   0  0  0  0  0  0  0  0  0  0  0  0
    0.0929   29.0157  -15.9454 S   0  0  0  0  0  0  0  0  0  0  0  0
    0.1368   30.3130  -14.9836 O   0  0  0  0  0  0  0  0  0  0  0  0
    0.1636   29.8338  -17.3496 O   0  0  0  0  0  0  0  0  0  0  0  0
   -1.3750   28.0940  -16.1201 C   0  0  0  0  0  0  0  0  0  0  0  0
   -1.7023   27.3230  -14.8691 C   0  0  0  0  0  0  0  0  0  0  0  0
   -1.3558   28.0698  -13.7101 O   0  0  0  0  0  0  0  0  0  0  0  0
   -3.2166   27.0751  -14.7564 C   0  0  0  0  0  0  0  0  0  0  0  0
   -3.4851   25.8453  -15.3329 O   0  0  0  0  0  0  0  0  0  0  0  0
   -3.4572   27.0212  -13.2298 C   0  0  0  0  0  0  0  0  0  0  0  0
   -3.4574   25.7025  -12.8106 O   0  0  0  0  0  0  0  0  0  0  0  0
   -2.1630   27.6435  -12.6379 C   0  0  0  0  0  0  0  0  0  0  0  0
   -2.9388   25.1641  -14.9106 H   0  0  0  0  0  0  0  0  0  0  0  0
   -2.6238   25.2803  -13.0708 H   0  0  0  0  0  0  0  0  0  0  0  0
   -2.4796   28.8021  -11.8060 N   0  0  0  0  0  0  0  0  0  0  0  0
   -3.5378   29.7142  -11.9731 C   0  0  0  0  0  0  0  0  0  0  0  0
   -3.5655   30.6551  -11.0470 N   0  0  0  0  0  0  0  0  0  0  0  0
   -2.4706   30.3782  -10.2393 C   0  0  0  0  0  0  0  0  0  0  0  0
   -1.9678   31.0004   -9.1119 C   0  0  0  0  0  0  0  0  0  0  0  0
   -2.5580   32.1167   -8.6131 N   0  0  0  0  0  0  0  0  0  0  0  0
   -0.8592   30.4706   -8.4937 N   0  0  0  0  0  0  0  0  0  0  0  0
   -0.3000   29.3733   -9.0410 C   0  0  0  0  0  0  0  0  0  0  0  0
   -0.6672   28.6653  -10.1153 N   0  0  0  0  0  0  0  0  0  0  0  0
   -1.7788   29.2124  -10.6911 C   0  0  0  0  0  0  0  0  0  0  0  0
   -2.1904   32.5507   -7.8095 H   0  0  0  0  0  0  0  0  0  0  0  0
   -3.3536   32.4923   -9.0550 H   0  0  0  0  0  0  0  0  0  0  0  0
    4.0047   28.2892  -12.1066 C   0  0  0  0  0  0  0  0  0  0  0  0
    5.2066   27.7621  -11.4974 N   0  0  0  0  0  0  0  0  0  0  0  0
    5.9884   28.5069  -10.6607 C   0  0  0  0  0  0  0  0  0  0  0  0
    5.7416   29.6838  -10.3583 O   0  0  0  0  0  0  0  0  0  0  0  0
    5.4703   26.8339  -11.6928 H   0  0  0  0  0  0  0  0  0  0  0  0
   10.4522   25.5530   -8.9574 N   0  0  0  0  0  0  0  0  0  0  0  0
   10.1883   24.6386   -7.9687 C   0  0  0  0  0  0  0  0  0  0  0  0
   11.1915   23.8013   -7.5473 N   0  0  0  0  0  0  0  0  0  0  0  0
    8.9776   24.4599   -7.3289 N   0  0  0  0  0  0  0  0  0  0  0  0
    7.9069   25.2663   -7.7049 C   0  0  0  0  0  0  0  0  0  0  0  0
    6.7623   25.0695   -7.0688 O   0  0  0  0  0  0  0  0  0  0  0  0
    7.0220   27.0213   -9.0752 N   0  0  0  0  0  0  0  0  0  0  0  0
    7.1888   27.7943  -10.1332 C   0  0  0  0  0  0  0  0  0  0  0  0
    8.4895   28.1691  -10.7422 C   0  0  0  0  0  0  0  0  0  0  0  0
    8.8124   29.5923  -10.3326 C   0  0  0  0  0  0  0  0  0  0  0  0
    8.4122   27.9897  -12.2558 C   0  0  0  0  0  0  0  0  0  0  0  0
    9.5780   27.2748  -10.2679 N   0  0  0  0  0  0  0  0  0  0  0  0
    9.3874   26.3410   -9.3074 C   0  0  0  0  0  0  0  0  0  0  0  0
    8.0902   26.2336   -8.7054 C   0  0  0  0  0  0  0  0  0  0  0  0
   11.0161   23.1405   -6.8389 H   0  0  0  0  0  0  0  0  0  0  0  0
   12.0862   23.8616   -7.9537 H   0  0  0  0  0  0  0  0  0  0  0  0
    8.8743   23.7795   -6.6249 H   0  0  0  0  0  0  0  0  0  0  0  0
   10.4728   27.3654  -10.6684 H   0  0  0  0  0  0  0  0  0  0  0  0
 39 38  1  0  0  0
 38 40  1  0  0  0
 38 37  2  0  0  0
 40 41  1  0  0  0
 37 49  1  0  0  0
 41 42  2  0  0  0
 41 50  1  0  0  0
 49 48  1  0  0  0
 49 50  2  0  0  0
 48 45  1  0  0  0
 50 43  1  0  0  0
 47 45  1  0  0  0
 43 44  2  0  0  0
 45 44  1  0  0  0
 45 46  1  0  0  0
 44 34  1  0  0  0
  3  2  2  0  0  0
 34 33  1  0  0  0
 34 35  2  0  0  0
 33 32  1  0  0  0
 25 24  1  0  0  0
  2 32  1  0  0  0
  2  1  1  0  0  0
 24 26  2  0  0  0
 24 23  1  0  0  0
 26 27  1  0  0  0
 22 23  1  0  0  0
 22 21  2  0  0  0
  6  5  1  0  0  0
  6  7  1  0  0  0
 23 29  2  0  0  0
  1  5  1  0  0  0
 27 28  2  0  0  0
 21 20  1  0  0  0
  8  7  2  0  0  0
 10  7  1  0  0  0
 10 11  1  0  0  0
 29 28  1  0  0  0
 29 20  1  0  0  0
  7  9  2  0  0  0
 20 17  1  0  0  0
 13 11  1  0  0  0
 13 14  1  0  0  0
 13 15  1  0  0  0
 11 12  1  0  0  0
 12 17  1  0  0  0
 17 15  1  0  0  0
 15 16  1  0  0  0
 14 18  1  0  0  0
 16 19  1  0  0  0
 25 30  1  0  0  0
 25 31  1  0  0  0
  1  4  1  0  0  0
 33 36  1  0  0  0
 39 51  1  0  0  0
 39 52  1  0  0  0
 40 53  1  0  0  0
 48 54  1  0  0  0
M  END
> <minimizedAffinity>
-10.90165

$$$$
4PZV_J1D_A_501


 54 58  0  0  0  0  0  0  0  0999 V2000
    3.4990   30.2299  -12.1115 N   0  0  0  0  0  0  0  0  0  0  0  0
    4.0216   29.1259  -12.7591 C   0  0  0  0  0  0  0  0  0  0  0  0
    4.5396   29.1529  -13.8743 O   0  0  0  0  0  0  0  0  0  0  0  0
    3.1010   30.1010  -11.2203 H   0  0  0  0  0  0  0  0  0  0  0  0
    3.5046   31.5899  -12.6817 C   0  0  0  0  0  0  0  0  0  0  0  0
    2.2851   32.2072  -12.2734 C   0  0  0  0  0  0  0  0  0  0  0  0
    2.0647   32.4777  -10.8204 S   0  0  0  0  0  0  0  0  0  0  0  0
    2.4108   31.2397   -9.8418 O   0  0  0  0  0  0  0  0  0  0  0  0
    3.2346   33.4674  -10.2745 O   0  0  0  0  0  0  0  0  0  0  0  0
    0.6239   33.4249  -10.5721 C   0  0  0  0  0  0  0  0  0  0  0  0
   -0.5937   32.5556  -10.4046 C   0  0  0  0  0  0  0  0  0  0  0  0
   -0.9648   31.9620  -11.6419 O   0  0  0  0  0  0  0  0  0  0  0  0
   -0.3024   31.3777   -9.4586 C   0  0  0  0  0  0  0  0  0  0  0  0
   -0.6628   31.7669   -8.1798 O   0  0  0  0  0  0  0  0  0  0  0  0
   -1.2461   30.2654   -9.9720 C   0  0  0  0  0  0  0  0  0  0  0  0
   -2.4076   30.2643   -9.2198 O   0  0  0  0  0  0  0  0  0  0  0  0
   -1.6654   30.7688  -11.3802 C   0  0  0  0  0  0  0  0  0  0  0  0
   -1.5884   32.0572   -8.1789 H   0  0  0  0  0  0  0  0  0  0  0  0
   -2.8158   31.1435   -9.2541 H   0  0  0  0  0  0  0  0  0  0  0  0
   -1.3136   29.7894  -12.4058 N   0  0  0  0  0  0  0  0  0  0  0  0
   -0.0322   29.4964  -12.9077 C   0  0  0  0  0  0  0  0  0  0  0  0
   -0.0375   28.5493  -13.8280 N   0  0  0  0  0  0  0  0  0  0  0  0
   -1.3764   28.2085  -13.9662 C   0  0  0  0  0  0  0  0  0  0  0  0
   -2.0216   27.2879  -14.7708 C   0  0  0  0  0  0  0  0  0  0  0  0
   -1.3238   26.5249  -15.6508 N   0  0  0  0  0  0  0  0  0  0  0  0
   -3.3860   27.1485  -14.6666 N   0  0  0  0  0  0  0  0  0  0  0  0
   -4.0329   27.9441  -13.7921 C   0  0  0  0  0  0  0  0  0  0  0  0
   -3.5533   28.8703  -12.9540 N   0  0  0  0  0  0  0  0  0  0  0  0
   -2.1960   28.9678  -13.0756 C   0  0  0  0  0  0  0  0  0  0  0  0
   -1.7949   25.8727  -16.2183 H   0  0  0  0  0  0  0  0  0  0  0  0
   -0.3469   26.6237  -15.7213 H   0  0  0  0  0  0  0  0  0  0  0  0
    3.8746   27.8822  -11.9043 C   0  0  0  0  0  0  0  0  0  0  0  0
    5.1248   27.4326  -11.3310 N   0  0  0  0  0  0  0  0  0  0  0  0
    5.8599   28.2097  -10.4815 C   0  0  0  0  0  0  0  0  0  0  0  0
    5.5266   29.3530  -10.1361 O   0  0  0  0  0  0  0  0  0  0  0  0
    5.4573   26.5351  -11.5613 H   0  0  0  0  0  0  0  0  0  0  0  0
   10.5663   25.5600   -8.9386 N   0  0  0  0  0  0  0  0  0  0  0  0
   10.3950   24.6178   -7.9554 C   0  0  0  0  0  0  0  0  0  0  0  0
   11.4661   23.8489   -7.5724 N   0  0  0  0  0  0  0  0  0  0  0  0
    9.2182   24.3466   -7.2858 N   0  0  0  0  0  0  0  0  0  0  0  0
    8.0833   25.0794   -7.6220 C   0  0  0  0  0  0  0  0  0  0  0  0
    6.9735   24.7948   -6.9581 O   0  0  0  0  0  0  0  0  0  0  0  0
    7.0393   26.7829   -8.9444 N   0  0  0  0  0  0  0  0  0  0  0  0
    7.1218   27.5779   -9.9960 C   0  0  0  0  0  0  0  0  0  0  0  0
    8.3754   28.0508  -10.6347 C   0  0  0  0  0  0  0  0  0  0  0  0
    8.6085   29.4886  -10.2149 C   0  0  0  0  0  0  0  0  0  0  0  0
    8.2689   27.8838  -12.1479 C   0  0  0  0  0  0  0  0  0  0  0  0
    9.5370   27.2304  -10.2019 N   0  0  0  0  0  0  0  0  0  0  0  0
    9.4394   26.2746   -9.2492 C   0  0  0  0  0  0  0  0  0  0  0  0
    8.1702   26.0686   -8.6140 C   0  0  0  0  0  0  0  0  0  0  0  0
   11.3574   23.1693   -6.8684 H   0  0  0  0  0  0  0  0  0  0  0  0
   12.3427   23.9771   -8.0018 H   0  0  0  0  0  0  0  0  0  0  0  0
    9.1826   23.6526   -6.5884 H   0  0  0  0  0  0  0  0  0  0  0  0
   10.4117   27.3888  -10.6250 H   0  0  0  0  0  0  0  0  0  0  0  0
 39 38  1  0  0  0
 38 40  1  0  0  0
 38 37  2  0  0  0
 40 41  1  0  0  0
 37 49  1  0  0  0
 41 42  2  0  0  0
 41 50  1  0  0  0
 49 48  1  0  0  0
 49 50  2  0  0  0
 48 45  1  0  0  0
 50 43  1  0  0  0
 47 45  1  0  0  0
 43 44  2  0  0  0
 45 44  1  0  0  0
 45 46  1  0  0  0
 44 34  1  0  0  0
  3  2  2  0  0  0
 34 33  1  0  0  0
 34 35  2  0  0  0
 33 32  1  0  0  0
 25 24  1  0  0  0
  2 32  1  0  0  0
  2  1  1  0  0  0
 24 26  2  0  0  0
 24 23  1  0  0  0
 26 27  1  0  0  0
 22 23  1  0  0  0
 22 21  2  0  0  0
  6  5  1  0  0  0
  6  7  1  0  0  0
 23 29  2  0  0  0
  1  5  1  0  0  0
 27 28  2  0  0  0
 21 20  1  0  0  0
  8  7  2  0  0  0
 10  7  1  0  0  0
 10 11  1  0  0  0
 29 28  1  0  0  0
 29 20  1  0  0  0
  7  9  2  0  0  0
 20 17  1  0  0  0
 13 11  1  0  0  0
 13 14  1  0  0  0
 13 15  1  0  0  0
 11 12  1  0  0  0
 12 17  1  0  0  0
 17 15  1  0  0  0
 15 16  1  0  0  0
 14 18  1  0  0  0
 16 19  1  0  0  0
 25 30  1  0  0  0
 25 31  1  0  0  0
  1  4  1  0  0  0
 33 36  1  0  0  0
 39 51  1  0  0  0
 39 52  1  0  0  0
 40 53  1  0  0  0
 48 54  1  0  0  0
M  END
> <minimizedAffinity>
-10.38893

$$$$
4PZV_J1D_A_501


 54 58  0  0  0  0  0  0  0  0999 V2000
    1.5467   33.7225  -10.6621 N   0  0  0  0  0  0  0  0  0  0  0  0
    0.9864   34.4125   -9.6032 C   0  0  0  0  0  0  0  0  0  0  0  0
    1.6301   35.0157   -8.7461 O   0  0  0  0  0  0  0  0  0  0  0  0
    0.9425   33.2678  -11.2926 H   0  0  0  0  0  0  0  0  0  0  0  0
    2.9991   33.6297  -10.8997 C   0  0  0  0  0  0  0  0  0  0  0  0
    3.2231   32.3916  -11.5717 C   0  0  0  0  0  0  0  0  0  0  0  0
    2.9999   31.1157  -10.8266 S   0  0  0  0  0  0  0  0  0  0  0  0
    4.1581   30.7414   -9.7643 O   0  0  0  0  0  0  0  0  0  0  0  0
    1.8177   31.3330   -9.7306 O   0  0  0  0  0  0  0  0  0  0  0  0
    2.3271   29.8924  -11.8686 C   0  0  0  0  0  0  0  0  0  0  0  0
    3.1809   28.6528  -11.8980 C   0  0  0  0  0  0  0  0  0  0  0  0
    4.5338   28.9779  -12.1897 O   0  0  0  0  0  0  0  0  0  0  0  0
    3.2134   27.9748  -10.5173 C   0  0  0  0  0  0  0  0  0  0  0  0
    2.2055   27.0259  -10.4913 O   0  0  0  0  0  0  0  0  0  0  0  0
    4.6005   27.2918  -10.4872 C   0  0  0  0  0  0  0  0  0  0  0  0
    4.4688   25.9667  -10.8636 O   0  0  0  0  0  0  0  0  0  0  0  0
    5.3666   27.9784  -11.6508 C   0  0  0  0  0  0  0  0  0  0  0  0
    2.3173   26.4150  -11.2364 H   0  0  0  0  0  0  0  0  0  0  0  0
    4.0495   25.9188  -11.7370 H   0  0  0  0  0  0  0  0  0  0  0  0
    6.5916   28.6081  -11.1633 N   0  0  0  0  0  0  0  0  0  0  0  0
    6.9656   29.9595  -11.2789 C   0  0  0  0  0  0  0  0  0  0  0  0
    8.1349   30.2254  -10.7258 N   0  0  0  0  0  0  0  0  0  0  0  0
    8.5741   29.0013  -10.2394 C   0  0  0  0  0  0  0  0  0  0  0  0
    9.7217   28.6282   -9.5650 C   0  0  0  0  0  0  0  0  0  0  0  0
   10.6887   29.5385   -9.2831 N   0  0  0  0  0  0  0  0  0  0  0  0
    9.8725   27.3177   -9.1756 N   0  0  0  0  0  0  0  0  0  0  0  0
    8.8924   26.4506   -9.4978 C   0  0  0  0  0  0  0  0  0  0  0  0
    7.7363   26.6583  -10.1384 N   0  0  0  0  0  0  0  0  0  0  0  0
    7.6163   27.9720  -10.4941 C   0  0  0  0  0  0  0  0  0  0  0  0
   11.5015   29.2603   -8.8022 H   0  0  0  0  0  0  0  0  0  0  0  0
   10.5772   30.4768   -9.5595 H   0  0  0  0  0  0  0  0  0  0  0  0
   -0.5270   34.3291   -9.6481 C   0  0  0  0  0  0  0  0  0  0  0  0
   -1.0142   33.0552  -10.1313 N   0  0  0  0  0  0  0  0  0  0  0  0
   -2.1635   32.4866   -9.6604 C   0  0  0  0  0  0  0  0  0  0  0  0
   -2.8766   33.0035   -8.7876 O   0  0  0  0  0  0  0  0  0  0  0  0
   -0.4992   32.5814  -10.8238 H   0  0  0  0  0  0  0  0  0  0  0  0
   -3.0553   27.4842  -12.0546 N   0  0  0  0  0  0  0  0  0  0  0  0
   -3.3711   27.5380  -13.3891 C   0  0  0  0  0  0  0  0  0  0  0  0
   -3.5169   26.3661  -14.0894 N   0  0  0  0  0  0  0  0  0  0  0  0
   -3.5627   28.6853  -14.1333 N   0  0  0  0  0  0  0  0  0  0  0  0
   -3.4253   29.9158  -13.4968 C   0  0  0  0  0  0  0  0  0  0  0  0
   -3.6187   30.9945  -14.2400 O   0  0  0  0  0  0  0  0  0  0  0  0
   -2.9679   31.1764  -11.5113 N   0  0  0  0  0  0  0  0  0  0  0  0
   -2.5027   31.1697  -10.2750 C   0  0  0  0  0  0  0  0  0  0  0  0
   -2.4541   29.9953   -9.3687 C   0  0  0  0  0  0  0  0  0  0  0  0
   -3.5793   30.1266   -8.3615 C   0  0  0  0  0  0  0  0  0  0  0  0
   -1.0777   29.9152   -8.7143 C   0  0  0  0  0  0  0  0  0  0  0  0
   -2.6338   28.7290  -10.1262 N   0  0  0  0  0  0  0  0  0  0  0  0
   -2.9317   28.7053  -11.4459 C   0  0  0  0  0  0  0  0  0  0  0  0
   -3.1091   29.9534  -12.1297 C   0  0  0  0  0  0  0  0  0  0  0  0
   -3.7433   26.3900  -15.0472 H   0  0  0  0  0  0  0  0  0  0  0  0
   -3.3951   25.5020  -13.6337 H   0  0  0  0  0  0  0  0  0  0  0  0
   -3.7908   28.6345  -15.0897 H   0  0  0  0  0  0  0  0  0  0  0  0
   -2.5321   27.8739   -9.6490 H   0  0  0  0  0  0  0  0  0  0  0  0
 39 38  1  0  0  0
 38 40  1  0  0  0
 38 37  2  0  0  0
 40 41  1  0  0  0
 37 49  1  0  0  0
 41 42  2  0  0  0
 41 50  1  0  0  0
 49 48  1  0  0  0
 49 50  2  0  0  0
 48 45  1  0  0  0
 50 43  1  0  0  0
 47 45  1  0  0  0
 43 44  2  0  0  0
 45 44  1  0  0  0
 45 46  1  0  0  0
 44 34  1  0  0  0
  3  2  2  0  0  0
 34 33  1  0  0  0
 34 35  2  0  0  0
 33 32  1  0  0  0
 25 24  1  0  0  0
  2 32  1  0  0  0
  2  1  1  0  0  0
 24 26  2  0  0  0
 24 23  1  0  0  0
 26 27  1  0  0  0
 22 23  1  0  0  0
 22 21  2  0  0  0
  6  5  1  0  0  0
  6  7  1  0  0  0
 23 29  2  0  0  0
  1  5  1  0  0  0
 27 28  2  0  0  0
 21 20  1  0  0  0
  8  7  2  0  0  0
 10  7  1  0  0  0
 10 11  1  0  0  0
 29 28  1  0  0  0
 29 20  1  0  0  0
  7  9  2  0  0  0
 20 17  1  0  0  0
 13 11  1  0  0  0
 13 14  1  0  0  0
 13 15  1  0  0  0
 11 12  1  0  0  0
 12 17  1  0  0  0
 17 15  1  0  0  0
 15 16  1  0  0  0
 14 18  1  0  0  0
 16 19  1  0  0  0
 25 30  1  0  0  0
 25 31  1  0  0  0
  1  4  1  0  0  0
 33 36  1  0  0  0
 39 51  1  0  0  0
 39 52  1  0  0  0
 40 53  1  0  0  0
 48 54  1  0  0  0
M  END
> <minimizedAffinity>
-10.28629

$$$$
4PZV_J1D_A_501


 54 58  0  0  0  0  0  0  0  0999 V2000
    1.7045   34.8504  -11.0348 N   0  0  0  0  0  0  0  0  0  0  0  0
    1.7178   34.8598   -9.6524 C   0  0  0  0  0  0  0  0  0  0  0  0
    2.6660   35.2398   -8.9674 O   0  0  0  0  0  0  0  0  0  0  0  0
    0.8957   34.5215  -11.4898 H   0  0  0  0  0  0  0  0  0  0  0  0
    2.8346   35.3056  -11.8657 C   0  0  0  0  0  0  0  0  0  0  0  0
    2.5620   34.8706  -13.1966 C   0  0  0  0  0  0  0  0  0  0  0  0
    2.4273   33.4066  -13.4637 S   0  0  0  0  0  0  0  0  0  0  0  0
    1.0082   32.7677  -13.0302 O   0  0  0  0  0  0  0  0  0  0  0  0
    2.2488   33.1662  -15.0626 O   0  0  0  0  0  0  0  0  0  0  0  0
    3.9157   32.5688  -13.1208 C   0  0  0  0  0  0  0  0  0  0  0  0
    3.6715   31.2676  -12.4041 C   0  0  0  0  0  0  0  0  0  0  0  0
    4.7806   30.3912  -12.5558 O   0  0  0  0  0  0  0  0  0  0  0  0
    3.5341   31.4921  -10.8882 C   0  0  0  0  0  0  0  0  0  0  0  0
    2.1883   31.6570  -10.6082 O   0  0  0  0  0  0  0  0  0  0  0  0
    4.0548   30.1681  -10.2822 C   0  0  0  0  0  0  0  0  0  0  0  0
    2.9841   29.3352  -10.0088 O   0  0  0  0  0  0  0  0  0  0  0  0
    4.8070   29.5003  -11.4656 C   0  0  0  0  0  0  0  0  0  0  0  0
    1.6925   30.8934  -10.9430 H   0  0  0  0  0  0  0  0  0  0  0  0
    2.4677   29.1961  -10.8181 H   0  0  0  0  0  0  0  0  0  0  0  0
    6.2007   29.2405  -11.1121 N   0  0  0  0  0  0  0  0  0  0  0  0
    7.3394   29.9501  -11.5359 C   0  0  0  0  0  0  0  0  0  0  0  0
    8.4651   29.4763  -11.0338 N   0  0  0  0  0  0  0  0  0  0  0  0
    8.0701   28.3927  -10.2607 C   0  0  0  0  0  0  0  0  0  0  0  0
    8.7830   27.4935   -9.4898 C   0  0  0  0  0  0  0  0  0  0  0  0
   10.1363   27.5681   -9.4087 N   0  0  0  0  0  0  0  0  0  0  0  0
    8.1025   26.5193   -8.7973 N   0  0  0  0  0  0  0  0  0  0  0  0
    6.7619   26.4770   -8.9281 C   0  0  0  0  0  0  0  0  0  0  0  0
    5.9402   27.2685   -9.6272 N   0  0  0  0  0  0  0  0  0  0  0  0
    6.6507   28.2311  -10.2869 C   0  0  0  0  0  0  0  0  0  0  0  0
   10.6326   26.9218   -8.8563 H   0  0  0  0  0  0  0  0  0  0  0  0
   10.6212   28.2684   -9.9023 H   0  0  0  0  0  0  0  0  0  0  0  0
    0.4033   34.3449   -9.0990 C   0  0  0  0  0  0  0  0  0  0  0  0
   -0.2078   33.3305   -9.9304 N   0  0  0  0  0  0  0  0  0  0  0  0
   -0.6922   32.1606   -9.4181 C   0  0  0  0  0  0  0  0  0  0  0  0
   -0.6471   31.8686   -8.2138 O   0  0  0  0  0  0  0  0  0  0  0  0
   -0.2769   33.4892  -10.8996 H   0  0  0  0  0  0  0  0  0  0  0  0
   -2.9585   28.4148  -12.9373 N   0  0  0  0  0  0  0  0  0  0  0  0
   -2.0490   27.6161  -13.5842 C   0  0  0  0  0  0  0  0  0  0  0  0
   -2.5040   26.6063  -14.3955 N   0  0  0  0  0  0  0  0  0  0  0  0
   -0.6743   27.7192  -13.5031 N   0  0  0  0  0  0  0  0  0  0  0  0
   -0.1334   28.7147  -12.6941 C   0  0  0  0  0  0  0  0  0  0  0  0
    1.1878   28.7861  -12.6422 O   0  0  0  0  0  0  0  0  0  0  0  0
   -0.4465   30.5582  -11.1960 N   0  0  0  0  0  0  0  0  0  0  0  0
   -1.2823   31.2360  -10.4300 C   0  0  0  0  0  0  0  0  0  0  0  0
   -2.7554   31.3071  -10.5975 C   0  0  0  0  0  0  0  0  0  0  0  0
   -3.0982   32.6476  -11.2167 C   0  0  0  0  0  0  0  0  0  0  0  0
   -3.4314   31.0865   -9.2472 C   0  0  0  0  0  0  0  0  0  0  0  0
   -3.2432   30.2260  -11.4936 N   0  0  0  0  0  0  0  0  0  0  0  0
   -2.4056   29.3921  -12.1522 C   0  0  0  0  0  0  0  0  0  0  0  0
   -0.9922   29.5812  -11.9999 C   0  0  0  0  0  0  0  0  0  0  0  0
   -1.8628   26.0257  -14.8656 H   0  0  0  0  0  0  0  0  0  0  0  0
   -3.4716   26.4627  -14.5071 H   0  0  0  0  0  0  0  0  0  0  0  0
   -0.0916   27.1043  -14.0047 H   0  0  0  0  0  0  0  0  0  0  0  0
   -4.2138   30.1123  -11.6125 H   0  0  0  0  0  0  0  0  0  0  0  0
 39 38  1  0  0  0
 38 40  1  0  0  0
 38 37  2  0  0  0
 40 41  1  0  0  0
 37 49  1  0  0  0
 41 42  2  0  0  0
 41 50  1  0  0  0
 49 48  1  0  0  0
 49 50  2  0  0  0
 48 45  1  0  0  0
 50 43  1  0  0  0
 47 45  1  0  0  0
 43 44  2  0  0  0
 45 44  1  0  0  0
 45 46  1  0  0  0
 44 34  1  0  0  0
  3  2  2  0  0  0
 34 33  1  0  0  0
 34 35  2  0  0  0
 33 32  1  0  0  0
 25 24  1  0  0  0
  2 32  1  0  0  0
  2  1  1  0  0  0
 24 26  2  0  0  0
 24 23  1  0  0  0
 26 27  1  0  0  0
 22 23  1  0  0  0
 22 21  2  0  0  0
  6  5  1  0  0  0
  6  7  1  0  0  0
 23 29  2  0  0  0
  1  5  1  0  0  0
 27 28  2  0  0  0
 21 20  1  0  0  0
  8  7  2  0  0  0
 10  7  1  0  0  0
 10 11  1  0  0  0
 29 28  1  0  0  0
 29 20  1  0  0  0
  7  9  2  0  0  0
 20 17  1  0  0  0
 13 11  1  0  0  0
 13 14  1  0  0  0
 13 15  1  0  0  0
 11 12  1  0  0  0
 12 17  1  0  0  0
 17 15  1  0  0  0
 15 16  1  0  0  0
 14 18  1  0  0  0
 16 19  1  0  0  0
 25 30  1  0  0  0
 25 31  1  0  0  0
  1  4  1  0  0  0
 33 36  1  0  0  0
 39 51  1  0  0  0
 39 52  1  0  0  0
 40 53  1  0  0  0
 48 54  1  0  0  0
M  END
> <minimizedAffinity>
-10.18539

$$$$
4PZV_J1D_A_501


 54 58  0  0  0  0  0  0  0  0999 V2000
    7.2383   29.3811  -12.8156 N   0  0  0  0  0  0  0  0  0  0  0  0
    6.5785   29.7235  -13.9813 C   0  0  0  0  0  0  0  0  0  0  0  0
    6.3552   28.9475  -14.9091 O   0  0  0  0  0  0  0  0  0  0  0  0
    7.3709   30.0792  -12.1342 H   0  0  0  0  0  0  0  0  0  0  0  0
    7.7545   28.0282  -12.5364 C   0  0  0  0  0  0  0  0  0  0  0  0
    8.6208   28.1481  -11.4095 C   0  0  0  0  0  0  0  0  0  0  0  0
    8.0267   28.4478  -10.0715 S   0  0  0  0  0  0  0  0  0  0  0  0
    9.0108   29.2256   -9.0533 O   0  0  0  0  0  0  0  0  0  0  0  0
    6.9417   29.6504  -10.2224 O   0  0  0  0  0  0  0  0  0  0  0  0
    7.0443   27.1224   -9.5122 C   0  0  0  0  0  0  0  0  0  0  0  0
    5.9770   26.7587  -10.5098 C   0  0  0  0  0  0  0  0  0  0  0  0
    5.8359   25.3474  -10.6070 O   0  0  0  0  0  0  0  0  0  0  0  0
    4.6008   27.2755  -10.0557 C   0  0  0  0  0  0  0  0  0  0  0  0
    4.4121   28.5236  -10.6243 O   0  0  0  0  0  0  0  0  0  0  0  0
    3.6158   26.2496  -10.6628 C   0  0  0  0  0  0  0  0  0  0  0  0
    3.1293   26.7346  -11.8641 O   0  0  0  0  0  0  0  0  0  0  0  0
    4.5290   25.0511  -11.0396 C   0  0  0  0  0  0  0  0  0  0  0  0
    4.5142   28.4592  -11.5868 H   0  0  0  0  0  0  0  0  0  0  0  0
    3.8710   26.9336  -12.4566 H   0  0  0  0  0  0  0  0  0  0  0  0
    4.0839   23.8310  -10.3704 N   0  0  0  0  0  0  0  0  0  0  0  0
    3.6013   22.6524  -10.9683 C   0  0  0  0  0  0  0  0  0  0  0  0
    3.2856   21.7157  -10.0926 N   0  0  0  0  0  0  0  0  0  0  0  0
    3.5445   22.2951   -8.8576 C   0  0  0  0  0  0  0  0  0  0  0  0
    3.4138   21.8226   -7.5651 C   0  0  0  0  0  0  0  0  0  0  0  0
    2.9321   20.5758   -7.3266 N   0  0  0  0  0  0  0  0  0  0  0  0
    3.7840   22.6320   -6.5164 N   0  0  0  0  0  0  0  0  0  0  0  0
    4.2370   23.8675   -6.8071 C   0  0  0  0  0  0  0  0  0  0  0  0
    4.4192   24.4603   -7.9927 N   0  0  0  0  0  0  0  0  0  0  0  0
    4.0562   23.6207   -9.0075 C   0  0  0  0  0  0  0  0  0  0  0  0
    2.8438   20.2509   -6.4015 H   0  0  0  0  0  0  0  0  0  0  0  0
    2.6711   19.9968   -8.0788 H   0  0  0  0  0  0  0  0  0  0  0  0
    6.1634   31.1817  -13.9553 C   0  0  0  0  0  0  0  0  0  0  0  0
    4.9208   31.4088  -13.2495 N   0  0  0  0  0  0  0  0  0  0  0  0
    4.8832   31.9143  -11.9810 C   0  0  0  0  0  0  0  0  0  0  0  0
    5.8963   32.2140  -11.3320 O   0  0  0  0  0  0  0  0  0  0  0  0
    4.0725   31.1914  -13.6994 H   0  0  0  0  0  0  0  0  0  0  0  0
   -0.1171   32.5206   -9.4949 N   0  0  0  0  0  0  0  0  0  0  0  0
   -0.7710   31.3428   -9.2329 C   0  0  0  0  0  0  0  0  0  0  0  0
   -1.9581   31.3762   -8.5438 N   0  0  0  0  0  0  0  0  0  0  0  0
   -0.3484   30.0799   -9.5980 N   0  0  0  0  0  0  0  0  0  0  0  0
    0.8513   29.9607  -10.2941 C   0  0  0  0  0  0  0  0  0  0  0  0
    1.2244   28.7355  -10.6304 O   0  0  0  0  0  0  0  0  0  0  0  0
    2.7728   30.9864  -11.2923 N   0  0  0  0  0  0  0  0  0  0  0  0
    3.5112   32.0746  -11.4162 C   0  0  0  0  0  0  0  0  0  0  0  0
    3.0464   33.4703  -11.2187 C   0  0  0  0  0  0  0  0  0  0  0  0
    2.8583   34.1050  -12.5824 C   0  0  0  0  0  0  0  0  0  0  0  0
    4.0494   34.2213  -10.3475 C   0  0  0  0  0  0  0  0  0  0  0  0
    1.7503   33.5031  -10.4916 N   0  0  0  0  0  0  0  0  0  0  0  0
    1.0573   32.3817  -10.1867 C   0  0  0  0  0  0  0  0  0  0  0  0
    1.5831   31.1162  -10.6097 C   0  0  0  0  0  0  0  0  0  0  0  0
   -2.4379   30.5389   -8.3490 H   0  0  0  0  0  0  0  0  0  0  0  0
   -2.3295   32.2374   -8.2446 H   0  0  0  0  0  0  0  0  0  0  0  0
   -0.8819   29.2840   -9.3717 H   0  0  0  0  0  0  0  0  0  0  0  0
    1.3817   34.3750  -10.2211 H   0  0  0  0  0  0  0  0  0  0  0  0
 39 38  1  0  0  0
 38 40  1  0  0  0
 38 37  2  0  0  0
 40 41  1  0  0  0
 37 49  1  0  0  0
 41 42  2  0  0  0
 41 50  1  0  0  0
 49 48  1  0  0  0
 49 50  2  0  0  0
 48 45  1  0  0  0
 50 43  1  0  0  0
 47 45  1  0  0  0
 43 44  2  0  0  0
 45 44  1  0  0  0
 45 46  1  0  0  0
 44 34  1  0  0  0
  3  2  2  0  0  0
 34 33  1  0  0  0
 34 35  2  0  0  0
 33 32  1  0  0  0
 25 24  1  0  0  0
  2 32  1  0  0  0
  2  1  1  0  0  0
 24 26  2  0  0  0
 24 23  1  0  0  0
 26 27  1  0  0  0
 22 23  1  0  0  0
 22 21  2  0  0  0
  6  5  1  0  0  0
  6  7  1  0  0  0
 23 29  2  0  0  0
  1  5  1  0  0  0
 27 28  2  0  0  0
 21 20  1  0  0  0
  8  7  2  0  0  0
 10  7  1  0  0  0
 10 11  1  0  0  0
 29 28  1  0  0  0
 29 20  1  0  0  0
  7  9  2  0  0  0
 20 17  1  0  0  0
 13 11  1  0  0  0
 13 14  1  0  0  0
 13 15  1  0  0  0
 11 12  1  0  0  0
 12 17  1  0  0  0
 17 15  1  0  0  0
 15 16  1  0  0  0
 14 18  1  0  0  0
 16 19  1  0  0  0
 25 30  1  0  0  0
 25 31  1  0  0  0
  1  4  1  0  0  0
 33 36  1  0  0  0
 39 51  1  0  0  0
 39 52  1  0  0  0
 40 53  1  0  0  0
 48 54  1  0  0  0
M  END
> <minimizedAffinity>
-10.05293

$$$$
4PZV_J1D_A_501


 54 58  0  0  0  0  0  0  0  0999 V2000
    1.3526   27.7521  -15.6237 N   0  0  0  0  0  0  0  0  0  0  0  0
    2.6158   28.0998  -15.1822 C   0  0  0  0  0  0  0  0  0  0  0  0
    3.6290   28.0735  -15.8788 O   0  0  0  0  0  0  0  0  0  0  0  0
    0.6061   27.8032  -14.9839 H   0  0  0  0  0  0  0  0  0  0  0  0
    1.0615   27.3091  -16.9997 C   0  0  0  0  0  0  0  0  0  0  0  0
   -0.0618   28.0685  -17.4425 C   0  0  0  0  0  0  0  0  0  0  0  0
   -1.4351   27.5259  -17.2131 S   0  0  0  0  0  0  0  0  0  0  0  0
   -2.3050   27.2976  -18.5551 O   0  0  0  0  0  0  0  0  0  0  0  0
   -1.3307   25.9560  -16.8003 O   0  0  0  0  0  0  0  0  0  0  0  0
   -2.1613   28.2394  -15.7994 C   0  0  0  0  0  0  0  0  0  0  0  0
   -2.0657   27.3301  -14.6034 C   0  0  0  0  0  0  0  0  0  0  0  0
   -1.4267   27.9889  -13.5177 O   0  0  0  0  0  0  0  0  0  0  0  0
   -3.4647   26.9540  -14.0854 C   0  0  0  0  0  0  0  0  0  0  0  0
   -3.8334   25.7670  -14.6951 O   0  0  0  0  0  0  0  0  0  0  0  0
   -3.2386   26.7371  -12.5710 C   0  0  0  0  0  0  0  0  0  0  0  0
   -3.0518   25.3887  -12.3225 O   0  0  0  0  0  0  0  0  0  0  0  0
   -1.8582   27.4007  -12.3132 C   0  0  0  0  0  0  0  0  0  0  0  0
   -3.1547   25.0940  -14.5297 H   0  0  0  0  0  0  0  0  0  0  0  0
   -2.3139   25.0602  -12.8595 H   0  0  0  0  0  0  0  0  0  0  0  0
   -1.9684   28.4468  -11.2991 N   0  0  0  0  0  0  0  0  0  0  0  0
   -3.1362   28.9009  -10.6591 C   0  0  0  0  0  0  0  0  0  0  0  0
   -2.9085   29.8570   -9.7771 N   0  0  0  0  0  0  0  0  0  0  0  0
   -1.5379   30.0694   -9.8430 C   0  0  0  0  0  0  0  0  0  0  0  0
   -0.6998   30.9381   -9.1692 C   0  0  0  0  0  0  0  0  0  0  0  0
   -1.1950   31.8146   -8.2582 N   0  0  0  0  0  0  0  0  0  0  0  0
    0.6503   30.9017   -9.4292 N   0  0  0  0  0  0  0  0  0  0  0  0
    1.0872   30.0271  -10.3568 C   0  0  0  0  0  0  0  0  0  0  0  0
    0.4077   29.1322  -11.0832 N   0  0  0  0  0  0  0  0  0  0  0  0
   -0.9246   29.1879  -10.7856 C   0  0  0  0  0  0  0  0  0  0  0  0
   -0.5878   32.4282   -7.7848 H   0  0  0  0  0  0  0  0  0  0  0  0
   -2.1612   31.8365   -8.0709 H   0  0  0  0  0  0  0  0  0  0  0  0
    2.5785   28.5233  -13.7266 C   0  0  0  0  0  0  0  0  0  0  0  0
    3.8059   28.2349  -13.0167 N   0  0  0  0  0  0  0  0  0  0  0  0
    4.3842   29.1316  -12.1638 C   0  0  0  0  0  0  0  0  0  0  0  0
    3.9166   30.2560  -11.9306 O   0  0  0  0  0  0  0  0  0  0  0  0
    4.2395   27.3616  -13.1531 H   0  0  0  0  0  0  0  0  0  0  0  0
    9.1450   27.0511  -10.0287 N   0  0  0  0  0  0  0  0  0  0  0  0
    8.9691   26.1839   -8.9795 C   0  0  0  0  0  0  0  0  0  0  0  0
   10.0634   25.5485   -8.4468 N   0  0  0  0  0  0  0  0  0  0  0  0
    7.7662   25.8666   -8.3802 N   0  0  0  0  0  0  0  0  0  0  0  0
    6.6075   26.4645   -8.8680 C   0  0  0  0  0  0  0  0  0  0  0  0
    5.4728   26.1394   -8.2680 O   0  0  0  0  0  0  0  0  0  0  0  0
    5.5427   27.9505  -10.4168 N   0  0  0  0  0  0  0  0  0  0  0  0
    5.6482   28.6579  -11.5273 C   0  0  0  0  0  0  0  0  0  0  0  0
    6.9082   29.1848  -12.1084 C   0  0  0  0  0  0  0  0  0  0  0  0
    6.9866   30.6679  -11.8053 C   0  0  0  0  0  0  0  0  0  0  0  0
    6.9437   28.8817  -13.6038 C   0  0  0  0  0  0  0  0  0  0  0  0
    8.0925   28.5106  -11.5146 N   0  0  0  0  0  0  0  0  0  0  0  0
    7.9935   27.6338  -10.4888 C   0  0  0  0  0  0  0  0  0  0  0  0
    6.6964   27.3702   -9.9368 C   0  0  0  0  0  0  0  0  0  0  0  0
    9.9519   24.9239   -7.6941 H   0  0  0  0  0  0  0  0  0  0  0  0
   10.9596   25.7174   -8.8177 H   0  0  0  0  0  0  0  0  0  0  0  0
    7.7290   25.2336   -7.6271 H   0  0  0  0  0  0  0  0  0  0  0  0
    8.9838   28.7098  -11.8821 H   0  0  0  0  0  0  0  0  0  0  0  0
 39 38  1  0  0  0
 38 40  1  0  0  0
 38 37  2  0  0  0
 40 41  1  0  0  0
 37 49  1  0  0  0
 41 42  2  0  0  0
 41 50  1  0  0  0
 49 48  1  0  0  0
 49 50  2  0  0  0
 48 45  1  0  0  0
 50 43  1  0  0  0
 47 45  1  0  0  0
 43 44  2  0  0  0
 45 44  1  0  0  0
 45 46  1  0  0  0
 44 34  1  0  0  0
  3  2  2  0  0  0
 34 33  1  0  0  0
 34 35  2  0  0  0
 33 32  1  0  0  0
 25 24  1  0  0  0
  2 32  1  0  0  0
  2  1  1  0  0  0
 24 26  2  0  0  0
 24 23  1  0  0  0
 26 27  1  0  0  0
 22 23  1  0  0  0
 22 21  2  0  0  0
  6  5  1  0  0  0
  6  7  1  0  0  0
 23 29  2  0  0  0
  1  5  1  0  0  0
 27 28  2  0  0  0
 21 20  1  0  0  0
  8  7  2  0  0  0
 10  7  1  0  0  0
 10 11  1  0  0  0
 29 28  1  0  0  0
 29 20  1  0  0  0
  7  9  2  0  0  0
 20 17  1  0  0  0
 13 11  1  0  0  0
 13 14  1  0  0  0
 13 15  1  0  0  0
 11 12  1  0  0  0
 12 17  1  0  0  0
 17 15  1  0  0  0
 15 16  1  0  0  0
 14 18  1  0  0  0
 16 19  1  0  0  0
 25 30  1  0  0  0
 25 31  1  0  0  0
  1  4  1  0  0  0
 33 36  1  0  0  0
 39 51  1  0  0  0
 39 52  1  0  0  0
 40 53  1  0  0  0
 48 54  1  0  0  0
M  END
> <minimizedAffinity>
-10.04508

$$$$
4PZV_J1D_A_501


 54 58  0  0  0  0  0  0  0  0999 V2000
   -0.7105   28.4303  -15.7620 N   0  0  0  0  0  0  0  0  0  0  0  0
   -0.2567   28.8278  -17.0060 C   0  0  0  0  0  0  0  0  0  0  0  0
   -0.8601   28.6385  -18.0609 O   0  0  0  0  0  0  0  0  0  0  0  0
   -0.1485   28.6260  -14.9778 H   0  0  0  0  0  0  0  0  0  0  0  0
   -1.9897   27.7295  -15.5448 C   0  0  0  0  0  0  0  0  0  0  0  0
   -2.8038   28.6020  -14.7633 C   0  0  0  0  0  0  0  0  0  0  0  0
   -2.8415   28.4184  -13.2808 S   0  0  0  0  0  0  0  0  0  0  0  0
   -4.0487   27.4880  -12.7450 O   0  0  0  0  0  0  0  0  0  0  0  0
   -1.6369   27.4216  -12.8319 O   0  0  0  0  0  0  0  0  0  0  0  0
   -2.4327   29.8978  -12.4568 C   0  0  0  0  0  0  0  0  0  0  0  0
   -1.4263   29.6669  -11.3613 C   0  0  0  0  0  0  0  0  0  0  0  0
   -0.3999   30.6497  -11.4027 O   0  0  0  0  0  0  0  0  0  0  0  0
   -2.0779   29.8164   -9.9756 C   0  0  0  0  0  0  0  0  0  0  0  0
   -2.4950   28.5602   -9.5697 O   0  0  0  0  0  0  0  0  0  0  0  0
   -0.9151   30.3142   -9.0858 C   0  0  0  0  0  0  0  0  0  0  0  0
   -0.3439   29.2374   -8.4307 O   0  0  0  0  0  0  0  0  0  0  0  0
    0.1497   30.7860  -10.1134 C   0  0  0  0  0  0  0  0  0  0  0  0
   -1.7434   27.9474   -9.5910 H   0  0  0  0  0  0  0  0  0  0  0  0
   -0.0579   28.5776   -9.0817 H   0  0  0  0  0  0  0  0  0  0  0  0
    0.4884   32.1910   -9.8992 N   0  0  0  0  0  0  0  0  0  0  0  0
   -0.2219   33.1380   -9.1387 C   0  0  0  0  0  0  0  0  0  0  0  0
    0.3462   34.3301   -9.1290 N   0  0  0  0  0  0  0  0  0  0  0  0
    1.4694   34.1848   -9.9322 C   0  0  0  0  0  0  0  0  0  0  0  0
    2.4610   35.0706  -10.3102 C   0  0  0  0  0  0  0  0  0  0  0  0
    2.4311   36.3639   -9.8981 N   0  0  0  0  0  0  0  0  0  0  0  0
    3.4877   34.6243  -11.1093 N   0  0  0  0  0  0  0  0  0  0  0  0
    3.4591   33.3368  -11.5067 C   0  0  0  0  0  0  0  0  0  0  0  0
    2.5785   32.3692  -11.2265 N   0  0  0  0  0  0  0  0  0  0  0  0
    1.5848   32.8465  -10.4195 C   0  0  0  0  0  0  0  0  0  0  0  0
    3.1433   36.9851  -10.1741 H   0  0  0  0  0  0  0  0  0  0  0  0
    1.6973   36.6805   -9.3232 H   0  0  0  0  0  0  0  0  0  0  0  0
    1.0806   29.5332  -16.8899 C   0  0  0  0  0  0  0  0  0  0  0  0
    1.8610   29.0935  -15.7535 N   0  0  0  0  0  0  0  0  0  0  0  0
    2.4375   29.9713  -14.8800 C   0  0  0  0  0  0  0  0  0  0  0  0
    2.3471   31.2034  -14.9859 O   0  0  0  0  0  0  0  0  0  0  0  0
    1.9806   28.1277  -15.6046 H   0  0  0  0  0  0  0  0  0  0  0  0
    5.3444   27.2322  -10.9303 N   0  0  0  0  0  0  0  0  0  0  0  0
    4.5728   26.6265   -9.9705 C   0  0  0  0  0  0  0  0  0  0  0  0
    5.1817   25.8538   -9.0127 N   0  0  0  0  0  0  0  0  0  0  0  0
    3.1989   26.7102   -9.8600 N   0  0  0  0  0  0  0  0  0  0  0  0
    2.5061   27.4699  -10.7986 C   0  0  0  0  0  0  0  0  0  0  0  0
    1.1906   27.5302  -10.6607 O   0  0  0  0  0  0  0  0  0  0  0  0
    2.5220   28.8725  -12.7410 N   0  0  0  0  0  0  0  0  0  0  0  0
    3.2071   29.3314  -13.7729 C   0  0  0  0  0  0  0  0  0  0  0  0
    4.6850   29.4378  -13.8597 C   0  0  0  0  0  0  0  0  0  0  0  0
    5.0686   30.8903  -13.6577 C   0  0  0  0  0  0  0  0  0  0  0  0
    5.1566   28.8800  -15.1997 C   0  0  0  0  0  0  0  0  0  0  0  0
    5.3416   28.6175  -12.8083 N   0  0  0  0  0  0  0  0  0  0  0  0
    4.6441   27.9805  -11.8396 C   0  0  0  0  0  0  0  0  0  0  0  0
    3.2180   28.1294  -11.8128 C   0  0  0  0  0  0  0  0  0  0  0  0
    4.6404   25.4135   -8.3182 H   0  0  0  0  0  0  0  0  0  0  0  0
    6.1596   25.7401   -9.0205 H   0  0  0  0  0  0  0  0  0  0  0  0
    2.7214   26.2444   -9.1359 H   0  0  0  0  0  0  0  0  0  0  0  0
    6.3226   28.5345  -12.8171 H   0  0  0  0  0  0  0  0  0  0  0  0
 39 38  1  0  0  0
 38 40  1  0  0  0
 38 37  2  0  0  0
 40 41  1  0  0  0
 37 49  1  0  0  0
 41 42  2  0  0  0
 41 50  1  0  0  0
 49 48  1  0  0  0
 49 50  2  0  0  0
 48 45  1  0  0  0
 50 43  1  0  0  0
 47 45  1  0  0  0
 43 44  2  0  0  0
 45 44  1  0  0  0
 45 46  1  0  0  0
 44 34  1  0  0  0
  3  2  2  0  0  0
 34 33  1  0  0  0
 34 35  2  0  0  0
 33 32  1  0  0  0
 25 24  1  0  0  0
  2 32  1  0  0  0
  2  1  1  0  0  0
 24 26  2  0  0  0
 24 23  1  0  0  0
 26 27  1  0  0  0
 22 23  1  0  0  0
 22 21  2  0  0  0
  6  5  1  0  0  0
  6  7  1  0  0  0
 23 29  2  0  0  0
  1  5  1  0  0  0
 27 28  2  0  0  0
 21 20  1  0  0  0
  8  7  2  0  0  0
 10  7  1  0  0  0
 10 11  1  0  0  0
 29 28  1  0  0  0
 29 20  1  0  0  0
  7  9  2  0  0  0
 20 17  1  0  0  0
 13 11  1  0  0  0
 13 14  1  0  0  0
 13 15  1  0  0  0
 11 12  1  0  0  0
 12 17  1  0  0  0
 17 15  1  0  0  0
 15 16  1  0  0  0
 14 18  1  0  0  0
 16 19  1  0  0  0
 25 30  1  0  0  0
 25 31  1  0  0  0
  1  4  1  0  0  0
 33 36  1  0  0  0
 39 51  1  0  0  0
 39 52  1  0  0  0
 40 53  1  0  0  0
 48 54  1  0  0  0
M  END
> <minimizedAffinity>
-9.90806

$$$$
4PZV_J1D_A_501


 54 58  0  0  0  0  0  0  0  0999 V2000
    2.0629   33.9313  -10.7605 N   0  0  0  0  0  0  0  0  0  0  0  0
    3.2037   34.0914  -11.5250 C   0  0  0  0  0  0  0  0  0  0  0  0
    3.2542   34.7279  -12.5762 O   0  0  0  0  0  0  0  0  0  0  0  0
    2.1271   33.3976   -9.9357 H   0  0  0  0  0  0  0  0  0  0  0  0
    0.7554   34.5156  -11.1121 C   0  0  0  0  0  0  0  0  0  0  0  0
   -0.2277   33.5307  -10.7985 C   0  0  0  0  0  0  0  0  0  0  0  0
   -0.1260   32.7978   -9.5002 S   0  0  0  0  0  0  0  0  0  0  0  0
    1.0253   31.6654   -9.4512 O   0  0  0  0  0  0  0  0  0  0  0  0
    0.5386   33.7746   -8.3822 O   0  0  0  0  0  0  0  0  0  0  0  0
   -1.7047   32.4828   -8.8344 C   0  0  0  0  0  0  0  0  0  0  0  0
   -2.2020   31.1103   -9.2022 C   0  0  0  0  0  0  0  0  0  0  0  0
   -2.9553   31.1519  -10.4072 O   0  0  0  0  0  0  0  0  0  0  0  0
   -1.0277   30.1584   -9.4885 C   0  0  0  0  0  0  0  0  0  0  0  0
   -0.7217   29.5020   -8.3086 O   0  0  0  0  0  0  0  0  0  0  0  0
   -1.6138   29.1687  -10.5222 C   0  0  0  0  0  0  0  0  0  0  0  0
   -2.0574   28.0318   -9.8699 O   0  0  0  0  0  0  0  0  0  0  0  0
   -2.8972   29.8865  -11.0222 C   0  0  0  0  0  0  0  0  0  0  0  0
   -1.5160   29.0613   -7.9684 H   0  0  0  0  0  0  0  0  0  0  0  0
   -2.7001   28.2806   -9.1873 H   0  0  0  0  0  0  0  0  0  0  0  0
   -2.8534   30.0757  -12.4703 N   0  0  0  0  0  0  0  0  0  0  0  0
   -2.5273   31.2508  -13.1719 C   0  0  0  0  0  0  0  0  0  0  0  0
   -2.5673   31.1024  -14.4835 N   0  0  0  0  0  0  0  0  0  0  0  0
   -2.9571   29.7830  -14.6707 C   0  0  0  0  0  0  0  0  0  0  0  0
   -3.1773   29.0331  -15.8110 C   0  0  0  0  0  0  0  0  0  0  0  0
   -3.0377   29.5855  -17.0434 N   0  0  0  0  0  0  0  0  0  0  0  0
   -3.5368   27.7116  -15.6834 N   0  0  0  0  0  0  0  0  0  0  0  0
   -3.6813   27.2181  -14.4377 C   0  0  0  0  0  0  0  0  0  0  0  0
   -3.5044   27.8112  -13.2515 N   0  0  0  0  0  0  0  0  0  0  0  0
   -3.1333   29.1152  -13.4198 C   0  0  0  0  0  0  0  0  0  0  0  0
   -3.1974   29.0409  -17.8479 H   0  0  0  0  0  0  0  0  0  0  0  0
   -2.7768   30.5306  -17.1325 H   0  0  0  0  0  0  0  0  0  0  0  0
    4.3820   33.3817  -10.8869 C   0  0  0  0  0  0  0  0  0  0  0  0
    4.2570   31.9402  -10.9031 N   0  0  0  0  0  0  0  0  0  0  0  0
    5.2121   31.1305  -11.4489 C   0  0  0  0  0  0  0  0  0  0  0  0
    6.2523   31.5544  -11.9741 O   0  0  0  0  0  0  0  0  0  0  0  0
    3.4553   31.5286  -10.5068 H   0  0  0  0  0  0  0  0  0  0  0  0
    3.7506   25.7303  -10.9452 N   0  0  0  0  0  0  0  0  0  0  0  0
    4.3716   25.0641   -9.9185 C   0  0  0  0  0  0  0  0  0  0  0  0
    4.0149   23.7653   -9.6518 N   0  0  0  0  0  0  0  0  0  0  0  0
    5.3509   25.5774   -9.0913 N   0  0  0  0  0  0  0  0  0  0  0  0
    5.7630   26.8918   -9.2927 C   0  0  0  0  0  0  0  0  0  0  0  0
    6.7054   27.3501   -8.4832 O   0  0  0  0  0  0  0  0  0  0  0  0
    5.5939   28.9474  -10.5119 N   0  0  0  0  0  0  0  0  0  0  0  0
    4.9059   29.6717  -11.3762 C   0  0  0  0  0  0  0  0  0  0  0  0
    3.9833   29.1465  -12.4135 C   0  0  0  0  0  0  0  0  0  0  0  0
    4.6889   29.2130  -13.7534 C   0  0  0  0  0  0  0  0  0  0  0  0
    2.6825   29.9443  -12.3872 C   0  0  0  0  0  0  0  0  0  0  0  0
    3.6156   27.7335  -12.1345 N   0  0  0  0  0  0  0  0  0  0  0  0
    4.1756   27.0194  -11.1309 C   0  0  0  0  0  0  0  0  0  0  0  0
    5.1842   27.6452  -10.3260 C   0  0  0  0  0  0  0  0  0  0  0  0
    4.4522   23.2755   -8.9183 H   0  0  0  0  0  0  0  0  0  0  0  0
    3.3219   23.3239  -10.1942 H   0  0  0  0  0  0  0  0  0  0  0  0
    5.7476   25.0279   -8.3772 H   0  0  0  0  0  0  0  0  0  0  0  0
    2.9381   27.3002  -12.7024 H   0  0  0  0  0  0  0  0  0  0  0  0
 39 38  1  0  0  0
 38 40  1  0  0  0
 38 37  2  0  0  0
 40 41  1  0  0  0
 37 49  1  0  0  0
 41 42  2  0  0  0
 41 50  1  0  0  0
 49 48  1  0  0  0
 49 50  2  0  0  0
 48 45  1  0  0  0
 50 43  1  0  0  0
 47 45  1  0  0  0
 43 44  2  0  0  0
 45 44  1  0  0  0
 45 46  1  0  0  0
 44 34  1  0  0  0
  3  2  2  0  0  0
 34 33  1  0  0  0
 34 35  2  0  0  0
 33 32  1  0  0  0
 25 24  1  0  0  0
  2 32  1  0  0  0
  2  1  1  0  0  0
 24 26  2  0  0  0
 24 23  1  0  0  0
 26 27  1  0  0  0
 22 23  1  0  0  0
 22 21  2  0  0  0
  6  5  1  0  0  0
  6  7  1  0  0  0
 23 29  2  0  0  0
  1  5  1  0  0  0
 27 28  2  0  0  0
 21 20  1  0  0  0
  8  7  2  0  0  0
 10  7  1  0  0  0
 10 11  1  0  0  0
 29 28  1  0  0  0
 29 20  1  0  0  0
  7  9  2  0  0  0
 20 17  1  0  0  0
 13 11  1  0  0  0
 13 14  1  0  0  0
 13 15  1  0  0  0
 11 12  1  0  0  0
 12 17  1  0  0  0
 17 15  1  0  0  0
 15 16  1  0  0  0
 14 18  1  0  0  0
 16 19  1  0  0  0
 25 30  1  0  0  0
 25 31  1  0  0  0
  1  4  1  0  0  0
 33 36  1  0  0  0
 39 51  1  0  0  0
 39 52  1  0  0  0
 40 53  1  0  0  0
 48 54  1  0  0  0
M  END
> <minimizedAffinity>
-9.86042

$$$$
4PZV_J1D_A_501


 54 58  0  0  0  0  0  0  0  0999 V2000
    1.7885   34.1445  -10.8923 N   0  0  0  0  0  0  0  0  0  0  0  0
    1.6641   34.6002   -9.5929 C   0  0  0  0  0  0  0  0  0  0  0  0
    2.5034   35.2862   -9.0118 O   0  0  0  0  0  0  0  0  0  0  0  0
    1.0603   33.5966  -11.2646 H   0  0  0  0  0  0  0  0  0  0  0  0
    2.9516   34.4338  -11.7514 C   0  0  0  0  0  0  0  0  0  0  0  0
    3.4117   33.1787  -12.2493 C   0  0  0  0  0  0  0  0  0  0  0  0
    4.3232   32.3554  -11.3982 S   0  0  0  0  0  0  0  0  0  0  0  0
    5.7843   32.0885  -12.0338 O   0  0  0  0  0  0  0  0  0  0  0  0
    4.8377   33.2495  -10.1405 O   0  0  0  0  0  0  0  0  0  0  0  0
    3.4519   31.0673  -10.6131 C   0  0  0  0  0  0  0  0  0  0  0  0
    3.5946   29.7643  -11.3535 C   0  0  0  0  0  0  0  0  0  0  0  0
    4.8838   29.2028  -11.1442 O   0  0  0  0  0  0  0  0  0  0  0  0
    2.6023   28.7169  -10.8196 C   0  0  0  0  0  0  0  0  0  0  0  0
    1.4570   28.7899  -11.5940 O   0  0  0  0  0  0  0  0  0  0  0  0
    3.3339   27.3760  -11.0606 C   0  0  0  0  0  0  0  0  0  0  0  0
    2.8993   26.8227  -12.2521 O   0  0  0  0  0  0  0  0  0  0  0  0
    4.8039   27.8074  -11.3164 C   0  0  0  0  0  0  0  0  0  0  0  0
    1.6907   28.6753  -12.5284 H   0  0  0  0  0  0  0  0  0  0  0  0
    3.0382   27.4570  -12.9728 H   0  0  0  0  0  0  0  0  0  0  0  0
    5.7045   27.1693  -10.3590 N   0  0  0  0  0  0  0  0  0  0  0  0
    5.3850   26.6692   -9.0833 C   0  0  0  0  0  0  0  0  0  0  0  0
    6.4198   26.1382   -8.4579 N   0  0  0  0  0  0  0  0  0  0  0  0
    7.4804   26.3083   -9.3377 C   0  0  0  0  0  0  0  0  0  0  0  0
    8.8173   25.9658   -9.2571 C   0  0  0  0  0  0  0  0  0  0  0  0
    9.3137   25.3609   -8.1476 N   0  0  0  0  0  0  0  0  0  0  0  0
    9.6438   26.2416  -10.3213 N   0  0  0  0  0  0  0  0  0  0  0  0
    9.1050   26.8611  -11.3900 C   0  0  0  0  0  0  0  0  0  0  0  0
    7.8446   27.2500  -11.6141 N   0  0  0  0  0  0  0  0  0  0  0  0
    7.0529   26.9451  -10.5432 C   0  0  0  0  0  0  0  0  0  0  0  0
   10.2677   25.1219   -8.1023 H   0  0  0  0  0  0  0  0  0  0  0  0
    8.7196   25.1611   -7.3883 H   0  0  0  0  0  0  0  0  0  0  0  0
    0.3508   34.1444   -8.9873 C   0  0  0  0  0  0  0  0  0  0  0  0
   -0.4473   33.3444   -9.8910 N   0  0  0  0  0  0  0  0  0  0  0  0
   -0.5361   31.9859   -9.7794 C   0  0  0  0  0  0  0  0  0  0  0  0
    0.0545   31.3293   -8.9091 O   0  0  0  0  0  0  0  0  0  0  0  0
   -0.9439   33.7951  -10.6118 H   0  0  0  0  0  0  0  0  0  0  0  0
   -3.7873   29.2011  -13.4163 N   0  0  0  0  0  0  0  0  0  0  0  0
   -3.1059   28.5882  -14.4379 C   0  0  0  0  0  0  0  0  0  0  0  0
   -3.7983   27.8047  -15.3277 N   0  0  0  0  0  0  0  0  0  0  0  0
   -1.7485   28.6744  -14.6761 N   0  0  0  0  0  0  0  0  0  0  0  0
   -0.9743   29.4450  -13.8131 C   0  0  0  0  0  0  0  0  0  0  0  0
    0.3226   29.5074  -14.0731 O   0  0  0  0  0  0  0  0  0  0  0  0
   -0.8147   30.8663  -11.8909 N   0  0  0  0  0  0  0  0  0  0  0  0
   -1.4028   31.3333  -10.8042 C   0  0  0  0  0  0  0  0  0  0  0  0
   -2.8666   31.4367  -10.5816 C   0  0  0  0  0  0  0  0  0  0  0  0
   -3.2724   32.8861  -10.7608 C   0  0  0  0  0  0  0  0  0  0  0  0
   -3.2099   30.8906   -9.1984 C   0  0  0  0  0  0  0  0  0  0  0  0
   -3.6151   30.6045  -11.5598 N   0  0  0  0  0  0  0  0  0  0  0  0
   -3.0082   29.9600  -12.5830 C   0  0  0  0  0  0  0  0  0  0  0  0
   -1.5912   30.1124  -12.7434 C   0  0  0  0  0  0  0  0  0  0  0  0
   -3.3223   27.3590  -16.0653 H   0  0  0  0  0  0  0  0  0  0  0  0
   -4.7708   27.6884  -15.2281 H   0  0  0  0  0  0  0  0  0  0  0  0
   -1.3386   28.2029  -15.4370 H   0  0  0  0  0  0  0  0  0  0  0  0
   -4.5907   30.5190  -11.4592 H   0  0  0  0  0  0  0  0  0  0  0  0
 39 38  1  0  0  0
 38 40  1  0  0  0
 38 37  2  0  0  0
 40 41  1  0  0  0
 37 49  1  0  0  0
 41 42  2  0  0  0
 41 50  1  0  0  0
 49 48  1  0  0  0
 49 50  2  0  0  0
 48 45  1  0  0  0
 50 43  1  0  0  0
 47 45  1  0  0  0
 43 44  2  0  0  0
 45 44  1  0  0  0
 45 46  1  0  0  0
 44 34  1  0  0  0
  3  2  2  0  0  0
 34 33  1  0  0  0
 34 35  2  0  0  0
 33 32  1  0  0  0
 25 24  1  0  0  0
  2 32  1  0  0  0
  2  1  1  0  0  0
 24 26  2  0  0  0
 24 23  1  0  0  0
 26 27  1  0  0  0
 22 23  1  0  0  0
 22 21  2  0  0  0
  6  5  1  0  0  0
  6  7  1  0  0  0
 23 29  2  0  0  0
  1  5  1  0  0  0
 27 28  2  0  0  0
 21 20  1  0  0  0
  8  7  2  0  0  0
 10  7  1  0  0  0
 10 11  1  0  0  0
 29 28  1  0  0  0
 29 20  1  0  0  0
  7  9  2  0  0  0
 20 17  1  0  0  0
 13 11  1  0  0  0
 13 14  1  0  0  0
 13 15  1  0  0  0
 11 12  1  0  0  0
 12 17  1  0  0  0
 17 15  1  0  0  0
 15 16  1  0  0  0
 14 18  1  0  0  0
 16 19  1  0  0  0
 25 30  1  0  0  0
 25 31  1  0  0  0
  1  4  1  0  0  0
 33 36  1  0  0  0
 39 51  1  0  0  0
 39 52  1  0  0  0
 40 53  1  0  0  0
 48 54  1  0  0  0
M  END
> <minimizedAffinity>
-9.85752

$$$$
4PZV_J1D_A_501


 54 58  0  0  0  0  0  0  0  0999 V2000
    1.9872   29.0138  -16.4954 N   0  0  0  0  0  0  0  0  0  0  0  0
    1.3038   28.3503  -17.4974 C   0  0  0  0  0  0  0  0  0  0  0  0
    1.3458   28.6541  -18.6885 O   0  0  0  0  0  0  0  0  0  0  0  0
    1.8825   28.6935  -15.5704 H   0  0  0  0  0  0  0  0  0  0  0  0
    2.8643   30.1747  -16.7353 C   0  0  0  0  0  0  0  0  0  0  0  0
    4.1827   29.6591  -16.9104 C   0  0  0  0  0  0  0  0  0  0  0  0
    4.8123   28.8937  -15.7920 S   0  0  0  0  0  0  0  0  0  0  0  0
    4.2766   27.3789  -15.6234 O   0  0  0  0  0  0  0  0  0  0  0  0
    6.3359   28.4982  -16.2022 O   0  0  0  0  0  0  0  0  0  0  0  0
    5.0496   29.9081  -14.3957 C   0  0  0  0  0  0  0  0  0  0  0  0
    4.4958   29.2767  -13.1463 C   0  0  0  0  0  0  0  0  0  0  0  0
    5.2624   28.1393  -12.7725 O   0  0  0  0  0  0  0  0  0  0  0  0
    4.5918   30.2429  -11.9529 C   0  0  0  0  0  0  0  0  0  0  0  0
    3.3973   30.9390  -11.8787 O   0  0  0  0  0  0  0  0  0  0  0  0
    4.7435   29.2973  -10.7388 C   0  0  0  0  0  0  0  0  0  0  0  0
    3.5041   29.0915  -10.1586 O   0  0  0  0  0  0  0  0  0  0  0  0
    5.1287   27.9385  -11.3851 C   0  0  0  0  0  0  0  0  0  0  0  0
    2.6601   30.3110  -11.8227 H   0  0  0  0  0  0  0  0  0  0  0  0
    2.8888   28.7463  -10.8243 H   0  0  0  0  0  0  0  0  0  0  0  0
    6.4054   27.4594  -10.8603 N   0  0  0  0  0  0  0  0  0  0  0  0
    7.6838   27.6380  -11.4202 C   0  0  0  0  0  0  0  0  0  0  0  0
    8.6479   27.0924  -10.7015 N   0  0  0  0  0  0  0  0  0  0  0  0
    7.9901   26.5050   -9.6290 C   0  0  0  0  0  0  0  0  0  0  0  0
    8.4475   25.7854   -8.5409 C   0  0  0  0  0  0  0  0  0  0  0  0
    9.7703   25.5189   -8.3907 N   0  0  0  0  0  0  0  0  0  0  0  0
    7.5434   25.3435   -7.6033 N   0  0  0  0  0  0  0  0  0  0  0  0
    6.2402   25.6177   -7.8103 C   0  0  0  0  0  0  0  0  0  0  0  0
    5.6506   26.2958   -8.8017 N   0  0  0  0  0  0  0  0  0  0  0  0
    6.5811   26.7309   -9.7024 C   0  0  0  0  0  0  0  0  0  0  0  0
   10.0835   25.0053   -7.6114 H   0  0  0  0  0  0  0  0  0  0  0  0
   10.4162   25.8391   -9.0611 H   0  0  0  0  0  0  0  0  0  0  0  0
    0.5030   27.1955  -16.9278 C   0  0  0  0  0  0  0  0  0  0  0  0
   -0.0403   27.4703  -15.6152 N   0  0  0  0  0  0  0  0  0  0  0  0
   -1.3722   27.3511  -15.3364 C   0  0  0  0  0  0  0  0  0  0  0  0
   -2.2198   27.0062  -16.1731 O   0  0  0  0  0  0  0  0  0  0  0  0
    0.5716   27.7531  -14.8976 H   0  0  0  0  0  0  0  0  0  0  0  0
   -2.9180   28.9359  -10.1740 N   0  0  0  0  0  0  0  0  0  0  0  0
   -1.9393   29.5767   -9.4563 C   0  0  0  0  0  0  0  0  0  0  0  0
   -2.2434   30.0866   -8.2184 N   0  0  0  0  0  0  0  0  0  0  0  0
   -0.6334   29.7744   -9.8596 N   0  0  0  0  0  0  0  0  0  0  0  0
   -0.2476   29.2926  -11.1074 C   0  0  0  0  0  0  0  0  0  0  0  0
    1.0121   29.4975  -11.4603 O   0  0  0  0  0  0  0  0  0  0  0  0
   -0.7944   28.1525  -13.1425 N   0  0  0  0  0  0  0  0  0  0  0  0
   -1.7447   27.6808  -13.9294 C   0  0  0  0  0  0  0  0  0  0  0  0
   -3.1070   27.2739  -13.5031 C   0  0  0  0  0  0  0  0  0  0  0  0
   -3.1556   25.7596  -13.4529 C   0  0  0  0  0  0  0  0  0  0  0  0
   -4.1374   27.8697  -14.4582 C   0  0  0  0  0  0  0  0  0  0  0  0
   -3.4258   27.8091  -12.1535 N   0  0  0  0  0  0  0  0  0  0  0  0
   -2.5158   28.4635  -11.3955 C   0  0  0  0  0  0  0  0  0  0  0  0
   -1.1846   28.6186  -11.9061 C   0  0  0  0  0  0  0  0  0  0  0  0
   -1.5510   30.5487   -7.6927 H   0  0  0  0  0  0  0  0  0  0  0  0
   -3.1538   29.9903   -7.8564 H   0  0  0  0  0  0  0  0  0  0  0  0
    0.0084   30.2442   -9.2794 H   0  0  0  0  0  0  0  0  0  0  0  0
   -4.3347   27.6824  -11.7971 H   0  0  0  0  0  0  0  0  0  0  0  0
 39 38  1  0  0  0
 38 40  1  0  0  0
 38 37  2  0  0  0
 40 41  1  0  0  0
 37 49  1  0  0  0
 41 42  2  0  0  0
 41 50  1  0  0  0
 49 48  1  0  0  0
 49 50  2  0  0  0
 48 45  1  0  0  0
 50 43  1  0  0  0
 47 45  1  0  0  0
 43 44  2  0  0  0
 45 44  1  0  0  0
 45 46  1  0  0  0
 44 34  1  0  0  0
  3  2  2  0  0  0
 34 33  1  0  0  0
 34 35  2  0  0  0
 33 32  1  0  0  0
 25 24  1  0  0  0
  2 32  1  0  0  0
  2  1  1  0  0  0
 24 26  2  0  0  0
 24 23  1  0  0  0
 26 27  1  0  0  0
 22 23  1  0  0  0
 22 21  2  0  0  0
  6  5  1  0  0  0
  6  7  1  0  0  0
 23 29  2  0  0  0
  1  5  1  0  0  0
 27 28  2  0  0  0
 21 20  1  0  0  0
  8  7  2  0  0  0
 10  7  1  0  0  0
 10 11  1  0  0  0
 29 28  1  0  0  0
 29 20  1  0  0  0
  7  9  2  0  0  0
 20 17  1  0  0  0
 13 11  1  0  0  0
 13 14  1  0  0  0
 13 15  1  0  0  0
 11 12  1  0  0  0
 12 17  1  0  0  0
 17 15  1  0  0  0
 15 16  1  0  0  0
 14 18  1  0  0  0
 16 19  1  0  0  0
 25 30  1  0  0  0
 25 31  1  0  0  0
  1  4  1  0  0  0
 33 36  1  0  0  0
 39 51  1  0  0  0
 39 52  1  0  0  0
 40 53  1  0  0  0
 48 54  1  0  0  0
M  END
> <minimizedAffinity>
-9.85434

$$$$
