2VVC_LZF_A_1244


 36 39  0  0  0  0  0  0  0  0999 V2000
   16.2419    6.3237   26.8945 N   0  0  0  0  0  0  0  0  0  0  0  0
   16.1135    6.9213   25.6889 C   0  0  0  0  0  0  0  0  0  0  0  0
   16.1731    8.1292   25.5637 O   0  0  0  0  0  0  0  0  0  0  0  0
   16.1516    5.3474   26.9837 H   0  0  0  0  0  0  0  0  0  0  0  0
   14.1908    7.5800   28.3426 F   0  0  0  0  0  0  0  0  0  0  0  0
   15.4705    7.7072   28.7065 C   0  0  0  0  0  0  0  0  0  0  0  0
   15.7255    8.4807   29.8363 C   0  0  0  0  0  0  0  0  0  0  0  0
   17.0311    8.6659   30.2588 C   0  0  0  0  0  0  0  0  0  0  0  0
   18.0635    8.0492   29.5453 C   0  0  0  0  0  0  0  0  0  0  0  0
   17.8163    7.2715   28.4066 C   0  0  0  0  0  0  0  0  0  0  0  0
   16.4986    7.0996   27.9824 C   0  0  0  0  0  0  0  0  0  0  0  0
   17.2758    9.4464   31.4128 N   0  0  0  0  0  0  0  0  0  0  0  0
   17.1746    8.9374   32.7246 C   0  0  0  0  0  0  0  0  0  0  0  0
   17.4146    9.7352   33.7966 C   0  0  0  0  0  0  0  0  0  0  0  0
   17.7891   11.0870   33.5968 C   0  0  0  0  0  0  0  0  0  0  0  0
   17.9054   11.5967   32.3373 C   0  0  0  0  0  0  0  0  0  0  0  0
   17.6485   10.7831   31.2058 C   0  0  0  0  0  0  0  0  0  0  0  0
   17.7413   11.1964   30.0502 O   0  0  0  0  0  0  0  0  0  0  0  0
   15.8733    6.0927   24.4456 C   0  0  0  0  0  0  0  0  0  0  0  0
   15.7103    4.6851   24.8249 N   0  0  0  0  0  0  0  0  0  0  0  0
   15.8414    3.7595   23.6807 C   0  0  0  0  0  0  0  0  0  0  0  0
   15.0906    2.5110   24.1474 C   0  0  0  0  0  0  0  0  0  0  0  0
   14.4025    4.4221   25.4765 C   0  0  0  0  0  0  0  0  0  0  0  0
   13.9643    3.0279   25.0278 C   0  0  0  0  0  0  0  0  0  0  0  0
   13.9546    2.1276   26.1884 N   0  0  0  0  0  0  0  0  0  0  0  0
   12.8510    1.9198   26.9042 C   0  0  0  0  0  0  0  0  0  0  0  0
   11.8389    2.4973   26.6285 O   0  0  0  0  0  0  0  0  0  0  0  0
   14.7857    1.6658   26.4438 H   0  0  0  0  0  0  0  0  0  0  0  0
   12.8158    1.0030   28.0716 C   0  0  0  0  0  0  0  0  0  0  0  0
   13.6503   -0.0226   28.4954 C   0  0  0  0  0  0  0  0  0  0  0  0
   13.2030   -0.6243   29.6587 C   0  0  0  0  0  0  0  0  0  0  0  0
   11.4200    1.2985   29.0735 S   0  0  0  0  0  0  0  0  0  0  0  0
   12.0579    0.0349   30.0400 C   0  0  0  0  0  0  0  0  0  0  0  0
   11.0918   -0.3446   31.5301 Cl  0  0  0  0  0  0  0  0  0  0  0  0
   14.5138    1.7321   23.0937 O   0  0  0  0  0  0  0  0  0  0  0  0
   14.8659    2.1484   21.7687 C   0  0  0  0  0  0  0  0  0  0  0  0
  5  6  1  0  0  0
  6  7  1  0  0  0
  6 11  2  0  0  0
  7  8  2  0  0  0
  8 12  1  0  0  0
  8  9  1  0  0  0
 12 13  1  0  0  0
 12 17  1  0  0  0
 13 14  2  0  0  0
 14 15  1  0  0  0
 15 16  2  0  0  0
 16 17  1  0  0  0
 17 18  2  0  0  0
  9 10  2  0  0  0
 10 11  1  0  0  0
 11  1  1  0  0  0
  1  2  1  0  0  0
  2  3  2  0  0  0
  2 19  1  0  0  0
 19 20  1  0  0  0
 20 21  1  0  0  0
 20 23  1  0  0  0
 21 22  1  0  0  0
 22 35  1  0  0  0
 22 24  1  0  0  0
 35 36  1  0  0  0
 23 24  1  0  0  0
 24 25  1  0  0  0
 25 26  1  0  0  0
 26 27  2  0  0  0
 26 29  1  0  0  0
 29 30  2  0  0  0
 29 32  1  0  0  0
 30 31  1  0  0  0
 31 33  2  0  0  0
 32 33  1  0  0  0
 33 34  1  0  0  0
  1  4  1  0  0  0
 25 28  1  0  0  0
M  END
> <minimizedAffinity>
-10.59080

$$$$
2VVC_LZF_A_1244


 36 39  0  0  0  0  0  0  0  0999 V2000
   15.0995    8.1438   27.2808 N   0  0  0  0  0  0  0  0  0  0  0  0
   15.8559    7.4403   26.4089 C   0  0  0  0  0  0  0  0  0  0  0  0
   17.0609    7.3445   26.5393 O   0  0  0  0  0  0  0  0  0  0  0  0
   14.1305    8.2441   27.1383 H   0  0  0  0  0  0  0  0  0  0  0  0
   16.4310   10.6098   27.1139 F   0  0  0  0  0  0  0  0  0  0  0  0
   16.3510    9.9454   28.2707 C   0  0  0  0  0  0  0  0  0  0  0  0
   16.9497   10.5424   29.3776 C   0  0  0  0  0  0  0  0  0  0  0  0
   16.9168    9.8996   30.6036 C   0  0  0  0  0  0  0  0  0  0  0  0
   16.2603    8.6689   30.7012 C   0  0  0  0  0  0  0  0  0  0  0  0
   15.6575    8.0602   29.5927 C   0  0  0  0  0  0  0  0  0  0  0  0
   15.7052    8.7102   28.3594 C   0  0  0  0  0  0  0  0  0  0  0  0
   17.5209   10.5208   31.7216 N   0  0  0  0  0  0  0  0  0  0  0  0
   18.3561   11.6530   31.6178 C   0  0  0  0  0  0  0  0  0  0  0  0
   18.9151   12.2042   32.7255 C   0  0  0  0  0  0  0  0  0  0  0  0
   18.6423   11.6496   34.0005 C   0  0  0  0  0  0  0  0  0  0  0  0
   17.8277   10.5631   34.1256 C   0  0  0  0  0  0  0  0  0  0  0  0
   17.2436    9.9668   32.9805 C   0  0  0  0  0  0  0  0  0  0  0  0
   16.5013    8.9870   33.0420 O   0  0  0  0  0  0  0  0  0  0  0  0
   15.2168    6.7552   25.2205 C   0  0  0  0  0  0  0  0  0  0  0  0
   15.1513    5.3112   25.4704 N   0  0  0  0  0  0  0  0  0  0  0  0
   15.3185    4.5044   24.2440 C   0  0  0  0  0  0  0  0  0  0  0  0
   14.6582    3.1722   24.6039 C   0  0  0  0  0  0  0  0  0  0  0  0
   13.8761    4.9051   26.1131 C   0  0  0  0  0  0  0  0  0  0  0  0
   13.5189    3.5320   25.5437 C   0  0  0  0  0  0  0  0  0  0  0  0
   13.5895    2.5310   26.6163 N   0  0  0  0  0  0  0  0  0  0  0  0
   12.5001    2.1176   27.2612 C   0  0  0  0  0  0  0  0  0  0  0  0
   11.4308    2.5860   26.9949 O   0  0  0  0  0  0  0  0  0  0  0  0
   14.4651    2.1558   26.8649 H   0  0  0  0  0  0  0  0  0  0  0  0
   12.5475    1.0964   28.3380 C   0  0  0  0  0  0  0  0  0  0  0  0
   13.4138    0.0457   28.6088 C   0  0  0  0  0  0  0  0  0  0  0  0
   13.0480   -0.6662   29.7379 C   0  0  0  0  0  0  0  0  0  0  0  0
   11.2195    1.2816   29.4523 S   0  0  0  0  0  0  0  0  0  0  0  0
   11.9271   -0.0585   30.2531 C   0  0  0  0  0  0  0  0  0  0  0  0
   11.0639   -0.5855   31.7614 Cl  0  0  0  0  0  0  0  0  0  0  0  0
   14.1115    2.4567   23.4908 O   0  0  0  0  0  0  0  0  0  0  0  0
   15.0432    2.1592   22.4438 C   0  0  0  0  0  0  0  0  0  0  0  0
  5  6  1  0  0  0
  6  7  1  0  0  0
  6 11  2  0  0  0
  7  8  2  0  0  0
  8 12  1  0  0  0
  8  9  1  0  0  0
 12 13  1  0  0  0
 12 17  1  0  0  0
 13 14  2  0  0  0
 14 15  1  0  0  0
 15 16  2  0  0  0
 16 17  1  0  0  0
 17 18  2  0  0  0
  9 10  2  0  0  0
 10 11  1  0  0  0
 11  1  1  0  0  0
  1  2  1  0  0  0
  2  3  2  0  0  0
  2 19  1  0  0  0
 19 20  1  0  0  0
 20 21  1  0  0  0
 20 23  1  0  0  0
 21 22  1  0  0  0
 22 35  1  0  0  0
 22 24  1  0  0  0
 35 36  1  0  0  0
 23 24  1  0  0  0
 24 25  1  0  0  0
 25 26  1  0  0  0
 26 27  2  0  0  0
 26 29  1  0  0  0
 29 30  2  0  0  0
 29 32  1  0  0  0
 30 31  1  0  0  0
 31 33  2  0  0  0
 32 33  1  0  0  0
 33 34  1  0  0  0
  1  4  1  0  0  0
 25 28  1  0  0  0
M  END
> <minimizedAffinity>
-9.18713

$$$$
2VVC_LZF_A_1244


 36 39  0  0  0  0  0  0  0  0999 V2000
   15.7134    8.8600   27.6115 N   0  0  0  0  0  0  0  0  0  0  0  0
   16.3290    7.8406   26.9719 C   0  0  0  0  0  0  0  0  0  0  0  0
   17.2793    7.2598   27.4596 O   0  0  0  0  0  0  0  0  0  0  0  0
   14.9705    9.3453   27.1850 H   0  0  0  0  0  0  0  0  0  0  0  0
   14.9207    7.4380   29.8987 F   0  0  0  0  0  0  0  0  0  0  0  0
   15.7554    8.4779   29.9873 C   0  0  0  0  0  0  0  0  0  0  0  0
   16.2120    8.8067   31.2614 C   0  0  0  0  0  0  0  0  0  0  0  0
   17.0672    9.8833   31.4255 C   0  0  0  0  0  0  0  0  0  0  0  0
   17.4678   10.6033   30.2957 C   0  0  0  0  0  0  0  0  0  0  0  0
   17.0117   10.2809   29.0110 C   0  0  0  0  0  0  0  0  0  0  0  0
   16.1418    9.2015   28.8569 C   0  0  0  0  0  0  0  0  0  0  0  0
   17.5306   10.2012   32.7236 N   0  0  0  0  0  0  0  0  0  0  0  0
   17.2492    9.4117   33.8584 C   0  0  0  0  0  0  0  0  0  0  0  0
   17.7149    9.7691   35.0826 C   0  0  0  0  0  0  0  0  0  0  0  0
   18.5075   10.9356   35.2198 C   0  0  0  0  0  0  0  0  0  0  0  0
   18.8026   11.7066   34.1344 C   0  0  0  0  0  0  0  0  0  0  0  0
   18.3166   11.3564   32.8502 C   0  0  0  0  0  0  0  0  0  0  0  0
   18.5567   12.0187   31.8410 O   0  0  0  0  0  0  0  0  0  0  0  0
   15.8554    7.3975   25.6046 C   0  0  0  0  0  0  0  0  0  0  0  0
   15.3011    6.0426   25.6990 N   0  0  0  0  0  0  0  0  0  0  0  0
   14.4703    5.6758   24.5335 C   0  0  0  0  0  0  0  0  0  0  0  0
   13.5710    4.5635   25.0757 C   0  0  0  0  0  0  0  0  0  0  0  0
   14.4814    5.8501   26.9218 C   0  0  0  0  0  0  0  0  0  0  0  0
   13.3338    4.9172   26.5350 C   0  0  0  0  0  0  0  0  0  0  0  0
   13.4807    3.6459   27.2559 N   0  0  0  0  0  0  0  0  0  0  0  0
   12.4249    2.9149   27.6087 C   0  0  0  0  0  0  0  0  0  0  0  0
   11.3181    3.3035   27.3684 O   0  0  0  0  0  0  0  0  0  0  0  0
   14.3832    3.3258   27.4841 H   0  0  0  0  0  0  0  0  0  0  0  0
   12.5518    1.6203   28.3246 C   0  0  0  0  0  0  0  0  0  0  0  0
   13.4290    0.5513   28.1996 C   0  0  0  0  0  0  0  0  0  0  0  0
   13.1508   -0.4705   29.0906 C   0  0  0  0  0  0  0  0  0  0  0  0
   11.3206    1.4430   29.5462 S   0  0  0  0  0  0  0  0  0  0  0  0
   12.0805   -0.0627   29.8516 C   0  0  0  0  0  0  0  0  0  0  0  0
   11.3390   -1.0294   31.1984 Cl  0  0  0  0  0  0  0  0  0  0  0  0
   12.2984    4.4555   24.4286 O   0  0  0  0  0  0  0  0  0  0  0  0
   11.3558    5.4795   24.7686 C   0  0  0  0  0  0  0  0  0  0  0  0
  5  6  1  0  0  0
  6  7  1  0  0  0
  6 11  2  0  0  0
  7  8  2  0  0  0
  8 12  1  0  0  0
  8  9  1  0  0  0
 12 13  1  0  0  0
 12 17  1  0  0  0
 13 14  2  0  0  0
 14 15  1  0  0  0
 15 16  2  0  0  0
 16 17  1  0  0  0
 17 18  2  0  0  0
  9 10  2  0  0  0
 10 11  1  0  0  0
 11  1  1  0  0  0
  1  2  1  0  0  0
  2  3  2  0  0  0
  2 19  1  0  0  0
 19 20  1  0  0  0
 20 21  1  0  0  0
 20 23  1  0  0  0
 21 22  1  0  0  0
 22 35  1  0  0  0
 22 24  1  0  0  0
 35 36  1  0  0  0
 23 24  1  0  0  0
 24 25  1  0  0  0
 25 26  1  0  0  0
 26 27  2  0  0  0
 26 29  1  0  0  0
 29 30  2  0  0  0
 29 32  1  0  0  0
 30 31  1  0  0  0
 31 33  2  0  0  0
 32 33  1  0  0  0
 33 34  1  0  0  0
  1  4  1  0  0  0
 25 28  1  0  0  0
M  END
> <minimizedAffinity>
-8.85512

$$$$
2VVC_LZF_A_1244


 36 39  0  0  0  0  0  0  0  0999 V2000
   12.8188    6.7234   24.8076 N   0  0  0  0  0  0  0  0  0  0  0  0
   12.1720    7.8217   25.2578 C   0  0  0  0  0  0  0  0  0  0  0  0
   11.4935    7.7965   26.2663 O   0  0  0  0  0  0  0  0  0  0  0  0
   13.3317    6.7512   23.9677 H   0  0  0  0  0  0  0  0  0  0  0  0
   14.5515    6.2212   26.9589 F   0  0  0  0  0  0  0  0  0  0  0  0
   13.6016    5.3449   26.6185 C   0  0  0  0  0  0  0  0  0  0  0  0
   13.5143    4.1870   27.3876 C   0  0  0  0  0  0  0  0  0  0  0  0
   12.5620    3.2303   27.0789 C   0  0  0  0  0  0  0  0  0  0  0  0
   11.6944    3.4650   26.0078 C   0  0  0  0  0  0  0  0  0  0  0  0
   11.7766    4.6256   25.2277 C   0  0  0  0  0  0  0  0  0  0  0  0
   12.7462    5.5787   25.5395 C   0  0  0  0  0  0  0  0  0  0  0  0
   12.4781    2.0629   27.8733 N   0  0  0  0  0  0  0  0  0  0  0  0
   13.4162    1.0117   27.8019 C   0  0  0  0  0  0  0  0  0  0  0  0
   13.2820   -0.0896   28.5845 C   0  0  0  0  0  0  0  0  0  0  0  0
   12.2006   -0.1766   29.4958 C   0  0  0  0  0  0  0  0  0  0  0  0
   11.2891    0.8333   29.5906 C   0  0  0  0  0  0  0  0  0  0  0  0
   11.4057    1.9860   28.7747 C   0  0  0  0  0  0  0  0  0  0  0  0
   10.6100    2.9237   28.8245 O   0  0  0  0  0  0  0  0  0  0  0  0
   12.2633    9.1282   24.4997 C   0  0  0  0  0  0  0  0  0  0  0  0
   13.0338   10.0946   25.2897 N   0  0  0  0  0  0  0  0  0  0  0  0
   13.3802   11.3149   24.5321 C   0  0  0  0  0  0  0  0  0  0  0  0
   14.5983   11.8614   25.2789 C   0  0  0  0  0  0  0  0  0  0  0  0
   14.2931    9.5152   25.8215 C   0  0  0  0  0  0  0  0  0  0  0  0
   15.3332   10.6353   25.7960 C   0  0  0  0  0  0  0  0  0  0  0  0
   15.7078   10.9783   27.1742 N   0  0  0  0  0  0  0  0  0  0  0  0
   16.5214   10.2057   27.8917 C   0  0  0  0  0  0  0  0  0  0  0  0
   16.9432    9.1851   27.4289 O   0  0  0  0  0  0  0  0  0  0  0  0
   15.3480   11.8008   27.5782 H   0  0  0  0  0  0  0  0  0  0  0  0
   16.9241   10.5414   29.2808 C   0  0  0  0  0  0  0  0  0  0  0  0
   17.4694   11.6796   29.8596 C   0  0  0  0  0  0  0  0  0  0  0  0
   17.6990   11.5273   31.2159 C   0  0  0  0  0  0  0  0  0  0  0  0
   16.6572    9.2018   30.3642 S   0  0  0  0  0  0  0  0  0  0  0  0
   17.2684   10.2674   31.5596 C   0  0  0  0  0  0  0  0  0  0  0  0
   17.3150    9.5792   33.2395 Cl  0  0  0  0  0  0  0  0  0  0  0  0
   15.5048   12.6185   24.4696 O   0  0  0  0  0  0  0  0  0  0  0  0
   16.4436   11.8393   23.7185 C   0  0  0  0  0  0  0  0  0  0  0  0
  5  6  1  0  0  0
  6  7  1  0  0  0
  6 11  2  0  0  0
  7  8  2  0  0  0
  8 12  1  0  0  0
  8  9  1  0  0  0
 12 13  1  0  0  0
 12 17  1  0  0  0
 13 14  2  0  0  0
 14 15  1  0  0  0
 15 16  2  0  0  0
 16 17  1  0  0  0
 17 18  2  0  0  0
  9 10  2  0  0  0
 10 11  1  0  0  0
 11  1  1  0  0  0
  1  2  1  0  0  0
  2  3  2  0  0  0
  2 19  1  0  0  0
 19 20  1  0  0  0
 20 21  1  0  0  0
 20 23  1  0  0  0
 21 22  1  0  0  0
 22 35  1  0  0  0
 22 24  1  0  0  0
 35 36  1  0  0  0
 23 24  1  0  0  0
 24 25  1  0  0  0
 25 26  1  0  0  0
 26 27  2  0  0  0
 26 29  1  0  0  0
 29 30  2  0  0  0
 29 32  1  0  0  0
 30 31  1  0  0  0
 31 33  2  0  0  0
 32 33  1  0  0  0
 33 34  1  0  0  0
  1  4  1  0  0  0
 25 28  1  0  0  0
M  END
> <minimizedAffinity>
-8.70362

$$$$
2VVC_LZF_A_1244


 36 39  0  0  0  0  0  0  0  0999 V2000
   15.2276    8.1879   27.2158 N   0  0  0  0  0  0  0  0  0  0  0  0
   15.4135    7.7968   25.9353 C   0  0  0  0  0  0  0  0  0  0  0  0
   16.3268    8.2301   25.2599 O   0  0  0  0  0  0  0  0  0  0  0  0
   14.4598    7.8572   27.7358 H   0  0  0  0  0  0  0  0  0  0  0  0
   15.0416   10.9660   26.8557 F   0  0  0  0  0  0  0  0  0  0  0  0
   16.0135   10.4299   27.6001 C   0  0  0  0  0  0  0  0  0  0  0  0
   16.9124   11.3167   28.1879 C   0  0  0  0  0  0  0  0  0  0  0  0
   17.9526   10.8263   28.9592 C   0  0  0  0  0  0  0  0  0  0  0  0
   18.0601    9.4446   29.1444 C   0  0  0  0  0  0  0  0  0  0  0  0
   17.1619    8.5454   28.5551 C   0  0  0  0  0  0  0  0  0  0  0  0
   16.1236    9.0482   27.7710 C   0  0  0  0  0  0  0  0  0  0  0  0
   18.8534   11.7381   29.5578 N   0  0  0  0  0  0  0  0  0  0  0  0
   19.8993   12.3669   28.8501 C   0  0  0  0  0  0  0  0  0  0  0  0
   20.7390   13.2292   29.4782 C   0  0  0  0  0  0  0  0  0  0  0  0
   20.5521   13.5160   30.8532 C   0  0  0  0  0  0  0  0  0  0  0  0
   19.5398   12.9294   31.5538 C   0  0  0  0  0  0  0  0  0  0  0  0
   18.6597   12.0182   30.9189 C   0  0  0  0  0  0  0  0  0  0  0  0
   17.7313   11.4649   31.5077 O   0  0  0  0  0  0  0  0  0  0  0  0
   14.4674    6.8058   25.2926 C   0  0  0  0  0  0  0  0  0  0  0  0
   14.8073    5.4506   25.7398 N   0  0  0  0  0  0  0  0  0  0  0  0
   15.7097    4.7439   24.8075 C   0  0  0  0  0  0  0  0  0  0  0  0
   15.4606    3.2681   25.1241 C   0  0  0  0  0  0  0  0  0  0  0  0
   13.6053    4.6029   25.9416 C   0  0  0  0  0  0  0  0  0  0  0  0
   13.9952    3.1862   25.5198 C   0  0  0  0  0  0  0  0  0  0  0  0
   13.9750    2.3086   26.6975 N   0  0  0  0  0  0  0  0  0  0  0  0
   12.8412    1.7888   27.1642 C   0  0  0  0  0  0  0  0  0  0  0  0
   11.7977    2.0579   26.6421 O   0  0  0  0  0  0  0  0  0  0  0  0
   14.8219    2.0992   27.1538 H   0  0  0  0  0  0  0  0  0  0  0  0
   12.8004    0.8881   28.3439 C   0  0  0  0  0  0  0  0  0  0  0  0
   13.6410   -0.1212   28.7938 C   0  0  0  0  0  0  0  0  0  0  0  0
   13.1844   -0.7119   29.9592 C   0  0  0  0  0  0  0  0  0  0  0  0
   11.3870    1.1806   29.3217 S   0  0  0  0  0  0  0  0  0  0  0  0
   12.0262   -0.0615   30.3150 C   0  0  0  0  0  0  0  0  0  0  0  0
   11.0436   -0.4318   31.7966 Cl  0  0  0  0  0  0  0  0  0  0  0  0
   15.6782    2.3765   24.0252 O   0  0  0  0  0  0  0  0  0  0  0  0
   14.6678    2.4068   23.0098 C   0  0  0  0  0  0  0  0  0  0  0  0
  5  6  1  0  0  0
  6  7  1  0  0  0
  6 11  2  0  0  0
  7  8  2  0  0  0
  8 12  1  0  0  0
  8  9  1  0  0  0
 12 13  1  0  0  0
 12 17  1  0  0  0
 13 14  2  0  0  0
 14 15  1  0  0  0
 15 16  2  0  0  0
 16 17  1  0  0  0
 17 18  2  0  0  0
  9 10  2  0  0  0
 10 11  1  0  0  0
 11  1  1  0  0  0
  1  2  1  0  0  0
  2  3  2  0  0  0
  2 19  1  0  0  0
 19 20  1  0  0  0
 20 21  1  0  0  0
 20 23  1  0  0  0
 21 22  1  0  0  0
 22 35  1  0  0  0
 22 24  1  0  0  0
 35 36  1  0  0  0
 23 24  1  0  0  0
 24 25  1  0  0  0
 25 26  1  0  0  0
 26 27  2  0  0  0
 26 29  1  0  0  0
 29 30  2  0  0  0
 29 32  1  0  0  0
 30 31  1  0  0  0
 31 33  2  0  0  0
 32 33  1  0  0  0
 33 34  1  0  0  0
  1  4  1  0  0  0
 25 28  1  0  0  0
M  END
> <minimizedAffinity>
-8.67017

$$$$
2VVC_LZF_A_1244


 36 39  0  0  0  0  0  0  0  0999 V2000
   14.9319    2.7457   25.6175 N   0  0  0  0  0  0  0  0  0  0  0  0
   13.6662    3.2009   25.7510 C   0  0  0  0  0  0  0  0  0  0  0  0
   13.0707    3.7172   24.8252 O   0  0  0  0  0  0  0  0  0  0  0  0
   15.4134    2.3663   26.3879 H   0  0  0  0  0  0  0  0  0  0  0  0
   16.8291    4.7238   25.0094 F   0  0  0  0  0  0  0  0  0  0  0  0
   16.4818    3.8002   24.1081 C   0  0  0  0  0  0  0  0  0  0  0  0
   17.1132    3.8674   22.8685 C   0  0  0  0  0  0  0  0  0  0  0  0
   16.7880    2.9498   21.8838 C   0  0  0  0  0  0  0  0  0  0  0  0
   15.8420    1.9609   22.1711 C   0  0  0  0  0  0  0  0  0  0  0  0
   15.2005    1.8873   23.4142 C   0  0  0  0  0  0  0  0  0  0  0  0
   15.5267    2.8227   24.3963 C   0  0  0  0  0  0  0  0  0  0  0  0
   17.4429    3.0236   20.6323 N   0  0  0  0  0  0  0  0  0  0  0  0
   18.7805    2.6205   20.4361 C   0  0  0  0  0  0  0  0  0  0  0  0
   19.3608    2.7202   19.2128 C   0  0  0  0  0  0  0  0  0  0  0  0
   18.6108    3.2158   18.1175 C   0  0  0  0  0  0  0  0  0  0  0  0
   17.3125    3.5993   18.2815 C   0  0  0  0  0  0  0  0  0  0  0  0
   16.6923    3.5132   19.5527 C   0  0  0  0  0  0  0  0  0  0  0  0
   15.5238    3.8454   19.7505 O   0  0  0  0  0  0  0  0  0  0  0  0
   12.9501    3.0930   27.0798 C   0  0  0  0  0  0  0  0  0  0  0  0
   12.9280    4.4091   27.7272 N   0  0  0  0  0  0  0  0  0  0  0  0
   11.7575    5.2236   27.3407 C   0  0  0  0  0  0  0  0  0  0  0  0
   12.2150    6.6562   27.6208 C   0  0  0  0  0  0  0  0  0  0  0  0
   14.1500    5.2018   27.4401 C   0  0  0  0  0  0  0  0  0  0  0  0
   13.7082    6.6617   27.3361 C   0  0  0  0  0  0  0  0  0  0  0  0
   14.2968    7.4247   28.4446 N   0  0  0  0  0  0  0  0  0  0  0  0
   15.5069    7.9731   28.3525 C   0  0  0  0  0  0  0  0  0  0  0  0
   16.1596    7.8242   27.3598 O   0  0  0  0  0  0  0  0  0  0  0  0
   13.7833    7.5336   29.2775 H   0  0  0  0  0  0  0  0  0  0  0  0
   16.1141    8.7603   29.4553 C   0  0  0  0  0  0  0  0  0  0  0  0
   16.1812    8.5698   30.8290 C   0  0  0  0  0  0  0  0  0  0  0  0
   16.8497    9.5951   31.4750 C   0  0  0  0  0  0  0  0  0  0  0  0
   16.8670   10.2161   28.8610 S   0  0  0  0  0  0  0  0  0  0  0  0
   17.2672   10.4781   30.5069 C   0  0  0  0  0  0  0  0  0  0  0  0
   18.2257   11.9873   30.8255 Cl  0  0  0  0  0  0  0  0  0  0  0  0
   11.5985    7.6519   26.7972 O   0  0  0  0  0  0  0  0  0  0  0  0
   12.0951    7.7218   25.4551 C   0  0  0  0  0  0  0  0  0  0  0  0
  5  6  1  0  0  0
  6  7  1  0  0  0
  6 11  2  0  0  0
  7  8  2  0  0  0
  8 12  1  0  0  0
  8  9  1  0  0  0
 12 13  1  0  0  0
 12 17  1  0  0  0
 13 14  2  0  0  0
 14 15  1  0  0  0
 15 16  2  0  0  0
 16 17  1  0  0  0
 17 18  2  0  0  0
  9 10  2  0  0  0
 10 11  1  0  0  0
 11  1  1  0  0  0
  1  2  1  0  0  0
  2  3  2  0  0  0
  2 19  1  0  0  0
 19 20  1  0  0  0
 20 21  1  0  0  0
 20 23  1  0  0  0
 21 22  1  0  0  0
 22 35  1  0  0  0
 22 24  1  0  0  0
 35 36  1  0  0  0
 23 24  1  0  0  0
 24 25  1  0  0  0
 25 26  1  0  0  0
 26 27  2  0  0  0
 26 29  1  0  0  0
 29 30  2  0  0  0
 29 32  1  0  0  0
 30 31  1  0  0  0
 31 33  2  0  0  0
 32 33  1  0  0  0
 33 34  1  0  0  0
  1  4  1  0  0  0
 25 28  1  0  0  0
M  END
> <minimizedAffinity>
-8.64887

$$$$
2VVC_LZF_A_1244


 36 39  0  0  0  0  0  0  0  0999 V2000
   11.4390    7.4935   25.5803 N   0  0  0  0  0  0  0  0  0  0  0  0
   12.2015    7.8961   24.5393 C   0  0  0  0  0  0  0  0  0  0  0  0
   13.0937    7.2012   24.0930 O   0  0  0  0  0  0  0  0  0  0  0  0
   10.7468    8.0851   25.9546 H   0  0  0  0  0  0  0  0  0  0  0  0
   12.8703    7.1019   27.9636 F   0  0  0  0  0  0  0  0  0  0  0  0
   12.3471    6.0697   27.2950 C   0  0  0  0  0  0  0  0  0  0  0  0
   12.5411    4.8050   27.8454 C   0  0  0  0  0  0  0  0  0  0  0  0
   12.0382    3.6908   27.1950 C   0  0  0  0  0  0  0  0  0  0  0  0
   11.3263    3.8701   26.0050 C   0  0  0  0  0  0  0  0  0  0  0  0
   11.1284    5.1381   25.4433 C   0  0  0  0  0  0  0  0  0  0  0  0
   11.6480    6.2536   26.1000 C   0  0  0  0  0  0  0  0  0  0  0  0
   12.2347    2.4131   27.7692 N   0  0  0  0  0  0  0  0  0  0  0  0
   13.3079    1.5667   27.4200 C   0  0  0  0  0  0  0  0  0  0  0  0
   13.4433    0.3463   27.9992 C   0  0  0  0  0  0  0  0  0  0  0  0
   12.5093   -0.0745   28.9780 C   0  0  0  0  0  0  0  0  0  0  0  0
   11.4714    0.7325   29.3401 C   0  0  0  0  0  0  0  0  0  0  0  0
   11.3066    2.0052   28.7392 C   0  0  0  0  0  0  0  0  0  0  0  0
   10.3878    2.7695   29.0331 O   0  0  0  0  0  0  0  0  0  0  0  0
   11.9725    9.2489   23.9008 C   0  0  0  0  0  0  0  0  0  0  0  0
   12.4730   10.2983   24.7953 N   0  0  0  0  0  0  0  0  0  0  0  0
   12.0893   11.6579   24.3625 C   0  0  0  0  0  0  0  0  0  0  0  0
   13.1387   12.5505   25.0275 C   0  0  0  0  0  0  0  0  0  0  0  0
   13.9506   10.2647   24.9364 C   0  0  0  0  0  0  0  0  0  0  0  0
   14.4100   11.7177   25.0583 C   0  0  0  0  0  0  0  0  0  0  0  0
   14.9677   11.9373   26.3993 N   0  0  0  0  0  0  0  0  0  0  0  0
   16.2659   11.7817   26.6519 C   0  0  0  0  0  0  0  0  0  0  0  0
   17.0080   11.4235   25.7831 O   0  0  0  0  0  0  0  0  0  0  0  0
   14.3659   12.2064   27.1305 H   0  0  0  0  0  0  0  0  0  0  0  0
   16.8523   12.0126   27.9963 C   0  0  0  0  0  0  0  0  0  0  0  0
   17.4750   13.1065   28.5824 C   0  0  0  0  0  0  0  0  0  0  0  0
   17.8833   12.8523   29.8802 C   0  0  0  0  0  0  0  0  0  0  0  0
   16.7271   10.5925   28.9998 S   0  0  0  0  0  0  0  0  0  0  0  0
   17.4971   11.5672   30.1809 C   0  0  0  0  0  0  0  0  0  0  0  0
   17.7652   10.7529   31.7818 Cl  0  0  0  0  0  0  0  0  0  0  0  0
   13.4176   13.7678   24.3273 O   0  0  0  0  0  0  0  0  0  0  0  0
   13.3739   13.6698   22.8986 C   0  0  0  0  0  0  0  0  0  0  0  0
  5  6  1  0  0  0
  6  7  1  0  0  0
  6 11  2  0  0  0
  7  8  2  0  0  0
  8 12  1  0  0  0
  8  9  1  0  0  0
 12 13  1  0  0  0
 12 17  1  0  0  0
 13 14  2  0  0  0
 14 15  1  0  0  0
 15 16  2  0  0  0
 16 17  1  0  0  0
 17 18  2  0  0  0
  9 10  2  0  0  0
 10 11  1  0  0  0
 11  1  1  0  0  0
  1  2  1  0  0  0
  2  3  2  0  0  0
  2 19  1  0  0  0
 19 20  1  0  0  0
 20 21  1  0  0  0
 20 23  1  0  0  0
 21 22  1  0  0  0
 22 35  1  0  0  0
 22 24  1  0  0  0
 35 36  1  0  0  0
 23 24  1  0  0  0
 24 25  1  0  0  0
 25 26  1  0  0  0
 26 27  2  0  0  0
 26 29  1  0  0  0
 29 30  2  0  0  0
 29 32  1  0  0  0
 30 31  1  0  0  0
 31 33  2  0  0  0
 32 33  1  0  0  0
 33 34  1  0  0  0
  1  4  1  0  0  0
 25 28  1  0  0  0
M  END
> <minimizedAffinity>
-8.40787

$$$$
2VVC_LZF_A_1244


 36 39  0  0  0  0  0  0  0  0999 V2000
   12.4177    8.0054   26.0390 N   0  0  0  0  0  0  0  0  0  0  0  0
   13.0841    8.3254   24.9073 C   0  0  0  0  0  0  0  0  0  0  0  0
   13.7265    7.5000   24.2876 O   0  0  0  0  0  0  0  0  0  0  0  0
   11.9351    8.6947   26.5500 H   0  0  0  0  0  0  0  0  0  0  0  0
   10.5768    6.1169   25.0763 F   0  0  0  0  0  0  0  0  0  0  0  0
   11.5188    5.7742   25.9602 C   0  0  0  0  0  0  0  0  0  0  0  0
   11.5418    4.4417   26.3648 C   0  0  0  0  0  0  0  0  0  0  0  0
   12.4827    4.0234   27.2905 C   0  0  0  0  0  0  0  0  0  0  0  0
   13.4038    4.9537   27.7817 C   0  0  0  0  0  0  0  0  0  0  0  0
   13.3865    6.2962   27.3820 C   0  0  0  0  0  0  0  0  0  0  0  0
   12.4281    6.7106   26.4571 C   0  0  0  0  0  0  0  0  0  0  0  0
   12.5009    2.6655   27.6864 N   0  0  0  0  0  0  0  0  0  0  0  0
   13.5170    1.7640   27.3056 C   0  0  0  0  0  0  0  0  0  0  0  0
   13.4796    0.4685   27.7099 C   0  0  0  0  0  0  0  0  0  0  0  0
   12.4206    0.0211   28.5382 C   0  0  0  0  0  0  0  0  0  0  0  0
   11.4346    0.8783   28.9289 C   0  0  0  0  0  0  0  0  0  0  0  0
   11.4499    2.2314   28.5084 C   0  0  0  0  0  0  0  0  0  0  0  0
   10.5843    3.0430   28.8353 O   0  0  0  0  0  0  0  0  0  0  0  0
   13.0612    9.7441   24.3809 C   0  0  0  0  0  0  0  0  0  0  0  0
   13.5870   10.6508   25.4072 N   0  0  0  0  0  0  0  0  0  0  0  0
   13.6747   12.0528   24.9494 C   0  0  0  0  0  0  0  0  0  0  0  0
   14.7295   12.6621   25.8748 C   0  0  0  0  0  0  0  0  0  0  0  0
   14.9312   10.2431   25.8879 C   0  0  0  0  0  0  0  0  0  0  0  0
   15.7030   11.5324   26.1695 C   0  0  0  0  0  0  0  0  0  0  0  0
   15.9661   11.6329   27.6111 N   0  0  0  0  0  0  0  0  0  0  0  0
   16.9094   10.9028   28.2033 C   0  0  0  0  0  0  0  0  0  0  0  0
   17.5481   10.1158   27.5659 O   0  0  0  0  0  0  0  0  0  0  0  0
   15.4312   12.2564   28.1537 H   0  0  0  0  0  0  0  0  0  0  0  0
   17.2013   10.9997   29.6559 C   0  0  0  0  0  0  0  0  0  0  0  0
   17.7454   12.0024   30.4474 C   0  0  0  0  0  0  0  0  0  0  0  0
   17.8452   11.6331   31.7775 C   0  0  0  0  0  0  0  0  0  0  0  0
   16.7760    9.5301   30.4919 S   0  0  0  0  0  0  0  0  0  0  0  0
   17.3269   10.3639   31.8845 C   0  0  0  0  0  0  0  0  0  0  0  0
   17.1906    9.4280   33.4347 Cl  0  0  0  0  0  0  0  0  0  0  0  0
   15.4656   13.7507   25.3065 O   0  0  0  0  0  0  0  0  0  0  0  0
   15.2219   15.0279   25.9083 C   0  0  0  0  0  0  0  0  0  0  0  0
  5  6  1  0  0  0
  6  7  1  0  0  0
  6 11  2  0  0  0
  7  8  2  0  0  0
  8 12  1  0  0  0
  8  9  1  0  0  0
 12 13  1  0  0  0
 12 17  1  0  0  0
 13 14  2  0  0  0
 14 15  1  0  0  0
 15 16  2  0  0  0
 16 17  1  0  0  0
 17 18  2  0  0  0
  9 10  2  0  0  0
 10 11  1  0  0  0
 11  1  1  0  0  0
  1  2  1  0  0  0
  2  3  2  0  0  0
  2 19  1  0  0  0
 19 20  1  0  0  0
 20 21  1  0  0  0
 20 23  1  0  0  0
 21 22  1  0  0  0
 22 35  1  0  0  0
 22 24  1  0  0  0
 35 36  1  0  0  0
 23 24  1  0  0  0
 24 25  1  0  0  0
 25 26  1  0  0  0
 26 27  2  0  0  0
 26 29  1  0  0  0
 29 30  2  0  0  0
 29 32  1  0  0  0
 30 31  1  0  0  0
 31 33  2  0  0  0
 32 33  1  0  0  0
 33 34  1  0  0  0
  1  4  1  0  0  0
 25 28  1  0  0  0
M  END
> <minimizedAffinity>
-8.06720

$$$$
