4DEU_NAR_A_205


 23 25  0  0  0  0  0  0  0  0999 V2000
   22.0750   40.4783   41.7897 C   0  0  0  0  0  0  0  0  0  0  0  0
   21.7987   40.0394   43.0218 C   0  0  0  0  0  0  0  0  0  0  0  0
   21.7777   40.8926   44.0879 C   0  0  0  0  0  0  0  0  0  0  0  0
   22.0392   42.2228   43.8878 C   0  0  0  0  0  0  0  0  0  0  0  0
   22.3096   42.6941   42.6654 C   0  0  0  0  0  0  0  0  0  0  0  0
   22.3238   41.8148   41.6108 C   0  0  0  0  0  0  0  0  0  0  0  0
   22.5360   44.0387   42.3485 C   0  0  0  0  0  0  0  0  0  0  0  0
   22.4630   44.4325   40.8729 C   0  0  0  0  0  0  0  0  0  0  0  0
   21.8484   43.2215   40.0952 C   0  0  0  0  0  0  0  0  0  0  0  0
   22.6255   42.2471   40.3989 O   0  0  0  0  0  0  0  0  0  0  0  0
   22.6668   44.9365   43.1633 O   0  0  0  0  0  0  0  0  0  0  0  0
   21.5489   38.7380   43.1681 O   0  0  0  0  0  0  0  0  0  0  0  0
   22.0313   43.0792   44.8979 O   0  0  0  0  0  0  0  0  0  0  0  0
   21.5687   38.1705   42.4227 H   0  0  0  0  0  0  0  0  0  0  0  0
   21.8452   42.7785   45.7656 H   0  0  0  0  0  0  0  0  0  0  0  0
   21.9536   43.0904   38.5658 C   0  0  0  0  0  0  0  0  0  0  0  0
   23.0982   43.4673   37.9706 C   0  0  0  0  0  0  0  0  0  0  0  0
   23.1366   43.2819   36.5909 C   0  0  0  0  0  0  0  0  0  0  0  0
   22.1319   42.6906   35.8244 C   0  0  0  0  0  0  0  0  0  0  0  0
   20.9544   42.2677   36.3818 C   0  0  0  0  0  0  0  0  0  0  0  0
   20.8189   42.4035   37.7783 C   0  0  0  0  0  0  0  0  0  0  0  0
   22.3458   42.5860   34.5076 O   0  0  0  0  0  0  0  0  0  0  0  0
   23.1561   42.8794   34.1398 H   0  0  0  0  0  0  0  0  0  0  0  0
  1  2  2  0  0  0
  1  6  1  0  0  0
  2  3  1  0  0  0
  2 12  1  0  0  0
  3  4  2  0  0  0
  4  5  1  0  0  0
  4 13  1  0  0  0
  5  6  2  0  0  0
  5  7  1  0  0  0
  6 10  1  0  0  0
  7  8  1  0  0  0
  7 11  2  0  0  0
  8  9  1  0  0  0
  9 10  1  0  0  0
  9 16  1  0  0  0
 16 17  1  0  0  0
 16 21  2  0  0  0
 17 18  2  0  0  0
 18 19  1  0  0  0
 19 20  2  0  0  0
 19 22  1  0  0  0
 20 21  1  0  0  0
 22 23  1  0  0  0
 12 14  1  0  0  0
 13 15  1  0  0  0
M  END
> <minimizedAffinity>
-9.05622

$$$$
4DEU_NAR_A_205


 23 25  0  0  0  0  0  0  0  0999 V2000
   21.8151   44.5914   41.8513 C   0  0  0  0  0  0  0  0  0  0  0  0
   22.1305   45.0016   43.0839 C   0  0  0  0  0  0  0  0  0  0  0  0
   22.1156   44.1380   44.1417 C   0  0  0  0  0  0  0  0  0  0  0  0
   21.7765   42.8269   43.9324 C   0  0  0  0  0  0  0  0  0  0  0  0
   21.4651   42.3839   42.7092 C   0  0  0  0  0  0  0  0  0  0  0  0
   21.4885   43.2731   41.6631 C   0  0  0  0  0  0  0  0  0  0  0  0
   21.1588   41.0576   42.3827 C   0  0  0  0  0  0  0  0  0  0  0  0
   21.1916   40.6750   40.9026 C   0  0  0  0  0  0  0  0  0  0  0  0
   21.8649   41.8569   40.1287 C   0  0  0  0  0  0  0  0  0  0  0  0
   21.1482   42.8709   40.4510 O   0  0  0  0  0  0  0  0  0  0  0  0
   20.9867   40.1606   43.1907 O   0  0  0  0  0  0  0  0  0  0  0  0
   22.4558   46.2852   43.2391 O   0  0  0  0  0  0  0  0  0  0  0  0
   21.7476   41.9614   44.9344 O   0  0  0  0  0  0  0  0  0  0  0  0
   22.4595   46.8604   42.4994 H   0  0  0  0  0  0  0  0  0  0  0  0
   21.9608   42.2423   45.8025 H   0  0  0  0  0  0  0  0  0  0  0  0
   21.7491   42.0091   38.6020 C   0  0  0  0  0  0  0  0  0  0  0  0
   20.6229   41.5865   38.0025 C   0  0  0  0  0  0  0  0  0  0  0  0
   20.5716   41.7935   36.6263 C   0  0  0  0  0  0  0  0  0  0  0  0
   21.5438   42.4469   35.8683 C   0  0  0  0  0  0  0  0  0  0  0  0
   22.7005   42.9177   36.4307 C   0  0  0  0  0  0  0  0  0  0  0  0
   22.8465   42.7646   37.8244 C   0  0  0  0  0  0  0  0  0  0  0  0
   21.3213   42.5635   34.5539 O   0  0  0  0  0  0  0  0  0  0  0  0
   20.5255   42.2368   34.1826 H   0  0  0  0  0  0  0  0  0  0  0  0
  1  2  2  0  0  0
  1  6  1  0  0  0
  2  3  1  0  0  0
  2 12  1  0  0  0
  3  4  2  0  0  0
  4  5  1  0  0  0
  4 13  1  0  0  0
  5  6  2  0  0  0
  5  7  1  0  0  0
  6 10  1  0  0  0
  7  8  1  0  0  0
  7 11  2  0  0  0
  8  9  1  0  0  0
  9 10  1  0  0  0
  9 16  1  0  0  0
 16 17  1  0  0  0
 16 21  2  0  0  0
 17 18  2  0  0  0
 18 19  1  0  0  0
 19 20  2  0  0  0
 19 22  1  0  0  0
 20 21  1  0  0  0
 22 23  1  0  0  0
 12 14  1  0  0  0
 13 15  1  0  0  0
M  END
> <minimizedAffinity>
-8.98387

$$$$
4DEU_NAR_A_205


 23 25  0  0  0  0  0  0  0  0999 V2000
   21.1842   40.5503   41.3048 C   0  0  0  0  0  0  0  0  0  0  0  0
   21.4225   40.6784   42.6139 C   0  0  0  0  0  0  0  0  0  0  0  0
   22.2439   41.6600   43.0902 C   0  0  0  0  0  0  0  0  0  0  0  0
   22.8287   42.5314   42.2089 C   0  0  0  0  0  0  0  0  0  0  0  0
   22.6023   42.4350   40.8941 C   0  0  0  0  0  0  0  0  0  0  0  0
   21.7718   41.4393   40.4419 C   0  0  0  0  0  0  0  0  0  0  0  0
   23.1064   43.3053   39.9203 C   0  0  0  0  0  0  0  0  0  0  0  0
   22.4550   43.2623   38.5376 C   0  0  0  0  0  0  0  0  0  0  0  0
   21.1472   42.4119   38.6627 C   0  0  0  0  0  0  0  0  0  0  0  0
   21.5613   41.2976   39.1449 O   0  0  0  0  0  0  0  0  0  0  0  0
   23.9384   44.1736   40.1221 O   0  0  0  0  0  0  0  0  0  0  0  0
   20.8305   39.8093   43.4335 O   0  0  0  0  0  0  0  0  0  0  0  0
   23.6337   43.4935   42.6335 O   0  0  0  0  0  0  0  0  0  0  0  0
   20.2706   39.1436   43.0852 H   0  0  0  0  0  0  0  0  0  0  0  0
   23.8112   43.5859   43.5489 H   0  0  0  0  0  0  0  0  0  0  0  0
   20.4209   41.8387   37.4334 C   0  0  0  0  0  0  0  0  0  0  0  0
   19.8434   40.6298   37.5400 C   0  0  0  0  0  0  0  0  0  0  0  0
   19.1698   40.1934   36.4019 C   0  0  0  0  0  0  0  0  0  0  0  0
   19.0023   40.9280   35.2276 C   0  0  0  0  0  0  0  0  0  0  0  0
   19.5498   42.1739   35.0725 C   0  0  0  0  0  0  0  0  0  0  0  0
   20.2469   42.7115   36.1734 C   0  0  0  0  0  0  0  0  0  0  0  0
   18.3146   40.3507   34.2354 O   0  0  0  0  0  0  0  0  0  0  0  0
   17.9456   39.4979   34.3555 H   0  0  0  0  0  0  0  0  0  0  0  0
  1  2  2  0  0  0
  1  6  1  0  0  0
  2  3  1  0  0  0
  2 12  1  0  0  0
  3  4  2  0  0  0
  4  5  1  0  0  0
  4 13  1  0  0  0
  5  6  2  0  0  0
  5  7  1  0  0  0
  6 10  1  0  0  0
  7  8  1  0  0  0
  7 11  2  0  0  0
  8  9  1  0  0  0
  9 10  1  0  0  0
  9 16  1  0  0  0
 16 17  1  0  0  0
 16 21  2  0  0  0
 17 18  2  0  0  0
 18 19  1  0  0  0
 19 20  2  0  0  0
 19 22  1  0  0  0
 20 21  1  0  0  0
 22 23  1  0  0  0
 12 14  1  0  0  0
 13 15  1  0  0  0
M  END
> <minimizedAffinity>
-7.62352

$$$$
4DEU_NAR_A_205


 23 25  0  0  0  0  0  0  0  0999 V2000
   22.9246   43.2500   38.3915 C   0  0  0  0  0  0  0  0  0  0  0  0
   22.9696   43.5593   37.0918 C   0  0  0  0  0  0  0  0  0  0  0  0
   22.0592   43.0481   36.2116 C   0  0  0  0  0  0  0  0  0  0  0  0
   21.0796   42.2077   36.6721 C   0  0  0  0  0  0  0  0  0  0  0  0
   21.0024   41.8869   37.9684 C   0  0  0  0  0  0  0  0  0  0  0  0
   21.9300   42.4153   38.8322 C   0  0  0  0  0  0  0  0  0  0  0  0
   20.0118   41.0835   38.5455 C   0  0  0  0  0  0  0  0  0  0  0  0
   19.8727   41.1278   40.0676 C   0  0  0  0  0  0  0  0  0  0  0  0
   20.7320   42.3307   40.5813 C   0  0  0  0  0  0  0  0  0  0  0  0
   21.9000   42.0846   40.1114 O   0  0  0  0  0  0  0  0  0  0  0  0
   19.1776   40.4475   37.9238 O   0  0  0  0  0  0  0  0  0  0  0  0
   23.9388   44.3819   36.6899 O   0  0  0  0  0  0  0  0  0  0  0  0
   20.1818   41.6899   35.8477 O   0  0  0  0  0  0  0  0  0  0  0  0
   24.5530   44.7211   37.3110 H   0  0  0  0  0  0  0  0  0  0  0  0
   20.2105   41.8964   34.9342 H   0  0  0  0  0  0  0  0  0  0  0  0
   21.1386   42.4766   42.0579 C   0  0  0  0  0  0  0  0  0  0  0  0
   21.1699   41.3720   42.8230 C   0  0  0  0  0  0  0  0  0  0  0  0
   21.5863   41.5738   44.1366 C   0  0  0  0  0  0  0  0  0  0  0  0
   22.0216   42.7865   44.6716 C   0  0  0  0  0  0  0  0  0  0  0  0
   22.0320   43.9387   43.9312 C   0  0  0  0  0  0  0  0  0  0  0  0
   21.6354   43.8397   42.5822 C   0  0  0  0  0  0  0  0  0  0  0  0
   22.3952   42.7915   45.9566 O   0  0  0  0  0  0  0  0  0  0  0  0
   22.3831   41.9958   46.4511 H   0  0  0  0  0  0  0  0  0  0  0  0
  1  2  2  0  0  0
  1  6  1  0  0  0
  2  3  1  0  0  0
  2 12  1  0  0  0
  3  4  2  0  0  0
  4  5  1  0  0  0
  4 13  1  0  0  0
  5  6  2  0  0  0
  5  7  1  0  0  0
  6 10  1  0  0  0
  7  8  1  0  0  0
  7 11  2  0  0  0
  8  9  1  0  0  0
  9 10  1  0  0  0
  9 16  1  0  0  0
 16 17  1  0  0  0
 16 21  2  0  0  0
 17 18  2  0  0  0
 18 19  1  0  0  0
 19 20  2  0  0  0
 19 22  1  0  0  0
 20 21  1  0  0  0
 22 23  1  0  0  0
 12 14  1  0  0  0
 13 15  1  0  0  0
M  END
> <minimizedAffinity>
-7.52031

$$$$
4DEU_NAR_A_205


 23 25  0  0  0  0  0  0  0  0999 V2000
   20.7088   41.8539   38.4933 C   0  0  0  0  0  0  0  0  0  0  0  0
   20.6515   41.5118   37.2023 C   0  0  0  0  0  0  0  0  0  0  0  0
   21.5541   41.9995   36.3010 C   0  0  0  0  0  0  0  0  0  0  0  0
   22.5387   42.8502   36.7310 C   0  0  0  0  0  0  0  0  0  0  0  0
   22.6282   43.2037   38.0180 C   0  0  0  0  0  0  0  0  0  0  0  0
   21.7082   42.6985   38.9034 C   0  0  0  0  0  0  0  0  0  0  0  0
   23.6248   44.0203   38.5653 C   0  0  0  0  0  0  0  0  0  0  0  0
   23.7781   44.0145   40.0867 C   0  0  0  0  0  0  0  0  0  0  0  0
   22.9224   42.8260   40.6386 C   0  0  0  0  0  0  0  0  0  0  0  0
   21.7503   43.0614   40.1735 O   0  0  0  0  0  0  0  0  0  0  0  0
   24.4538   44.6394   37.9200 O   0  0  0  0  0  0  0  0  0  0  0  0
   19.6778   40.6804   36.8304 O   0  0  0  0  0  0  0  0  0  0  0  0
   23.4293   43.3459   35.8854 O   0  0  0  0  0  0  0  0  0  0  0  0
   19.0692   40.3578   37.4655 H   0  0  0  0  0  0  0  0  0  0  0  0
   23.3920   43.1163   34.9777 H   0  0  0  0  0  0  0  0  0  0  0  0
   22.5295   42.7180   42.1222 C   0  0  0  0  0  0  0  0  0  0  0  0
   22.5656   43.8314   42.8743 C   0  0  0  0  0  0  0  0  0  0  0  0
   22.1578   43.6663   44.1956 C   0  0  0  0  0  0  0  0  0  0  0  0
   21.6680   42.4838   44.7510 C   0  0  0  0  0  0  0  0  0  0  0  0
   21.5880   41.3253   44.0247 C   0  0  0  0  0  0  0  0  0  0  0  0
   21.9705   41.3884   42.6694 C   0  0  0  0  0  0  0  0  0  0  0  0
   21.3126   42.5127   46.0407 O   0  0  0  0  0  0  0  0  0  0  0  0
   21.3725   43.3123   46.5254 H   0  0  0  0  0  0  0  0  0  0  0  0
  1  2  2  0  0  0
  1  6  1  0  0  0
  2  3  1  0  0  0
  2 12  1  0  0  0
  3  4  2  0  0  0
  4  5  1  0  0  0
  4 13  1  0  0  0
  5  6  2  0  0  0
  5  7  1  0  0  0
  6 10  1  0  0  0
  7  8  1  0  0  0
  7 11  2  0  0  0
  8  9  1  0  0  0
  9 10  1  0  0  0
  9 16  1  0  0  0
 16 17  1  0  0  0
 16 21  2  0  0  0
 17 18  2  0  0  0
 18 19  1  0  0  0
 19 20  2  0  0  0
 19 22  1  0  0  0
 20 21  1  0  0  0
 22 23  1  0  0  0
 12 14  1  0  0  0
 13 15  1  0  0  0
M  END
> <minimizedAffinity>
-7.48247

$$$$
4DEU_NAR_A_205


 23 25  0  0  0  0  0  0  0  0999 V2000
   23.1324   43.6249   39.9748 C   0  0  0  0  0  0  0  0  0  0  0  0
   22.7385   43.1658   41.1669 C   0  0  0  0  0  0  0  0  0  0  0  0
   21.7043   42.2808   41.2771 C   0  0  0  0  0  0  0  0  0  0  0  0
   21.0640   41.8529   40.1436 C   0  0  0  0  0  0  0  0  0  0  0  0
   21.4410   42.2867   38.9356 C   0  0  0  0  0  0  0  0  0  0  0  0
   22.4842   43.1757   38.8531 C   0  0  0  0  0  0  0  0  0  0  0  0
   20.8895   41.8705   37.7181 C   0  0  0  0  0  0  0  0  0  0  0  0
   21.6790   42.1860   36.4472 C   0  0  0  0  0  0  0  0  0  0  0  0
   23.1011   42.6686   36.8874 C   0  0  0  0  0  0  0  0  0  0  0  0
   22.8522   43.6497   37.6755 O   0  0  0  0  0  0  0  0  0  0  0  0
   19.8947   41.1748   37.6028 O   0  0  0  0  0  0  0  0  0  0  0  0
   23.3919   43.6085   42.2415 O   0  0  0  0  0  0  0  0  0  0  0  0
   20.0548   40.9980   40.2115 O   0  0  0  0  0  0  0  0  0  0  0  0
   24.0987   44.2157   42.1429 H   0  0  0  0  0  0  0  0  0  0  0  0
   19.7683   40.6767   41.0437 H   0  0  0  0  0  0  0  0  0  0  0  0
   24.0458   43.4169   35.9309 C   0  0  0  0  0  0  0  0  0  0  0  0
   24.4282   44.6632   36.2577 C   0  0  0  0  0  0  0  0  0  0  0  0
   25.3152   45.2627   35.3670 C   0  0  0  0  0  0  0  0  0  0  0  0
   25.8656   44.6543   34.2385 C   0  0  0  0  0  0  0  0  0  0  0  0
   25.5289   43.3786   33.8708 C   0  0  0  0  0  0  0  0  0  0  0  0
   24.6410   42.6797   34.7136 C   0  0  0  0  0  0  0  0  0  0  0  0
   26.7117   45.3820   33.5001 O   0  0  0  0  0  0  0  0  0  0  0  0
   26.9331   46.2535   33.7637 H   0  0  0  0  0  0  0  0  0  0  0  0
  1  2  2  0  0  0
  1  6  1  0  0  0
  2  3  1  0  0  0
  2 12  1  0  0  0
  3  4  2  0  0  0
  4  5  1  0  0  0
  4 13  1  0  0  0
  5  6  2  0  0  0
  5  7  1  0  0  0
  6 10  1  0  0  0
  7  8  1  0  0  0
  7 11  2  0  0  0
  8  9  1  0  0  0
  9 10  1  0  0  0
  9 16  1  0  0  0
 16 17  1  0  0  0
 16 21  2  0  0  0
 17 18  2  0  0  0
 18 19  1  0  0  0
 19 20  2  0  0  0
 19 22  1  0  0  0
 20 21  1  0  0  0
 22 23  1  0  0  0
 12 14  1  0  0  0
 13 15  1  0  0  0
M  END
> <minimizedAffinity>
-7.45516

$$$$
4DEU_NAR_A_205


 23 25  0  0  0  0  0  0  0  0999 V2000
   22.4180   44.7347   41.6708 C   0  0  0  0  0  0  0  0  0  0  0  0
   22.2594   44.7058   42.9979 C   0  0  0  0  0  0  0  0  0  0  0  0
   21.7004   43.6260   43.6197 C   0  0  0  0  0  0  0  0  0  0  0  0
   21.3009   42.5519   42.8684 C   0  0  0  0  0  0  0  0  0  0  0  0
   21.4549   42.5468   41.5396 C   0  0  0  0  0  0  0  0  0  0  0  0
   22.0203   43.6450   40.9397 C   0  0  0  0  0  0  0  0  0  0  0  0
   21.1305   41.4812   40.6916 C   0  0  0  0  0  0  0  0  0  0  0  0
   21.7080   41.5116   39.2761 C   0  0  0  0  0  0  0  0  0  0  0  0
   22.7904   42.6412   39.2364 C   0  0  0  0  0  0  0  0  0  0  0  0
   22.1491   43.6821   39.6249 O   0  0  0  0  0  0  0  0  0  0  0  0
   20.5262   40.4776   41.0299 O   0  0  0  0  0  0  0  0  0  0  0  0
   22.6644   45.7724   43.6877 O   0  0  0  0  0  0  0  0  0  0  0  0
   20.7517   41.4888   43.4359 O   0  0  0  0  0  0  0  0  0  0  0  0
   23.0453   46.5025   43.2407 H   0  0  0  0  0  0  0  0  0  0  0  0
   20.6309   41.4634   44.3647 H   0  0  0  0  0  0  0  0  0  0  0  0
   23.3248   43.2190   37.9144 C   0  0  0  0  0  0  0  0  0  0  0  0
   24.0005   44.3802   37.9528 C   0  0  0  0  0  0  0  0  0  0  0  0
   24.4895   44.8210   36.7255 C   0  0  0  0  0  0  0  0  0  0  0  0
   24.3881   44.1306   35.5174 C   0  0  0  0  0  0  0  0  0  0  0  0
   23.7304   42.9328   35.4247 C   0  0  0  0  0  0  0  0  0  0  0  0
   23.2042   42.3942   36.6163 C   0  0  0  0  0  0  0  0  0  0  0  0
   24.9275   44.7043   34.4355 O   0  0  0  0  0  0  0  0  0  0  0  0
   25.3747   45.5240   34.5137 H   0  0  0  0  0  0  0  0  0  0  0  0
  1  2  2  0  0  0
  1  6  1  0  0  0
  2  3  1  0  0  0
  2 12  1  0  0  0
  3  4  2  0  0  0
  4  5  1  0  0  0
  4 13  1  0  0  0
  5  6  2  0  0  0
  5  7  1  0  0  0
  6 10  1  0  0  0
  7  8  1  0  0  0
  7 11  2  0  0  0
  8  9  1  0  0  0
  9 10  1  0  0  0
  9 16  1  0  0  0
 16 17  1  0  0  0
 16 21  2  0  0  0
 17 18  2  0  0  0
 18 19  1  0  0  0
 19 20  2  0  0  0
 19 22  1  0  0  0
 20 21  1  0  0  0
 22 23  1  0  0  0
 12 14  1  0  0  0
 13 15  1  0  0  0
M  END
> <minimizedAffinity>
-7.44268

$$$$
4DEU_NAR_A_205


 23 25  0  0  0  0  0  0  0  0999 V2000
   20.5667   41.5548   39.9580 C   0  0  0  0  0  0  0  0  0  0  0  0
   20.9610   42.0153   41.1495 C   0  0  0  0  0  0  0  0  0  0  0  0
   22.0004   42.8943   41.2589 C   0  0  0  0  0  0  0  0  0  0  0  0
   22.6456   43.3146   40.1253 C   0  0  0  0  0  0  0  0  0  0  0  0
   22.2684   42.8793   38.9180 C   0  0  0  0  0  0  0  0  0  0  0  0
   21.2199   41.9964   38.8362 C   0  0  0  0  0  0  0  0  0  0  0  0
   22.8249   43.2882   37.7002 C   0  0  0  0  0  0  0  0  0  0  0  0
   22.0360   42.9734   36.4288 C   0  0  0  0  0  0  0  0  0  0  0  0
   20.6101   42.5010   36.8676 C   0  0  0  0  0  0  0  0  0  0  0  0
   20.8515   41.5209   37.6594 O   0  0  0  0  0  0  0  0  0  0  0  0
   23.8242   43.9774   37.5847 O   0  0  0  0  0  0  0  0  0  0  0  0
   20.3027   41.5801   42.2241 O   0  0  0  0  0  0  0  0  0  0  0  0
   23.6598   44.1636   40.1926 O   0  0  0  0  0  0  0  0  0  0  0  0
   19.5924   40.9769   42.1260 H   0  0  0  0  0  0  0  0  0  0  0  0
   23.9467   44.4858   41.0243 H   0  0  0  0  0  0  0  0  0  0  0  0
   19.6628   41.7554   35.9116 C   0  0  0  0  0  0  0  0  0  0  0  0
   19.2968   40.5010   36.2262 C   0  0  0  0  0  0  0  0  0  0  0  0
   18.4063   39.9040   35.3373 C   0  0  0  0  0  0  0  0  0  0  0  0
   17.8375   40.5212   34.2228 C   0  0  0  0  0  0  0  0  0  0  0  0
   18.1571   41.8050   33.8682 C   0  0  0  0  0  0  0  0  0  0  0  0
   19.0469   42.5021   34.7105 C   0  0  0  0  0  0  0  0  0  0  0  0
   16.9909   39.7944   33.4841 O   0  0  0  0  0  0  0  0  0  0  0  0
   16.7812   38.9174   33.7386 H   0  0  0  0  0  0  0  0  0  0  0  0
  1  2  2  0  0  0
  1  6  1  0  0  0
  2  3  1  0  0  0
  2 12  1  0  0  0
  3  4  2  0  0  0
  4  5  1  0  0  0
  4 13  1  0  0  0
  5  6  2  0  0  0
  5  7  1  0  0  0
  6 10  1  0  0  0
  7  8  1  0  0  0
  7 11  2  0  0  0
  8  9  1  0  0  0
  9 10  1  0  0  0
  9 16  1  0  0  0
 16 17  1  0  0  0
 16 21  2  0  0  0
 17 18  2  0  0  0
 18 19  1  0  0  0
 19 20  2  0  0  0
 19 22  1  0  0  0
 20 21  1  0  0  0
 22 23  1  0  0  0
 12 14  1  0  0  0
 13 15  1  0  0  0
M  END
> <minimizedAffinity>
-7.43802

$$$$
4DEU_NAR_A_205


 23 25  0  0  0  0  0  0  0  0999 V2000
   23.1384   41.2394   40.2140 C   0  0  0  0  0  0  0  0  0  0  0  0
   22.5780   40.4580   41.1426 C   0  0  0  0  0  0  0  0  0  0  0  0
   21.3607   40.7623   41.6816 C   0  0  0  0  0  0  0  0  0  0  0  0
   20.7013   41.8862   41.2574 C   0  0  0  0  0  0  0  0  0  0  0  0
   21.2315   42.6829   40.3229 C   0  0  0  0  0  0  0  0  0  0  0  0
   22.4565   42.3536   39.7970 C   0  0  0  0  0  0  0  0  0  0  0  0
   20.6165   43.8196   39.7849 C   0  0  0  0  0  0  0  0  0  0  0  0
   21.1985   44.3835   38.4882 C   0  0  0  0  0  0  0  0  0  0  0  0
   22.2045   43.3241   37.9272 C   0  0  0  0  0  0  0  0  0  0  0  0
   23.0207   43.1437   38.9003 O   0  0  0  0  0  0  0  0  0  0  0  0
   19.5858   44.3202   40.2020 O   0  0  0  0  0  0  0  0  0  0  0  0
   23.2553   39.3744   41.5231 O   0  0  0  0  0  0  0  0  0  0  0  0
   19.5209   42.2151   41.7598 O   0  0  0  0  0  0  0  0  0  0  0  0
   24.0891   39.1846   41.1400 H   0  0  0  0  0  0  0  0  0  0  0  0
   19.1243   41.6764   42.4158 H   0  0  0  0  0  0  0  0  0  0  0  0
   23.2496   43.6736   36.8535 C   0  0  0  0  0  0  0  0  0  0  0  0
   23.9416   44.8181   36.9858 C   0  0  0  0  0  0  0  0  0  0  0  0
   24.8982   45.0484   36.0001 C   0  0  0  0  0  0  0  0  0  0  0  0
   25.2212   44.1721   34.9637 C   0  0  0  0  0  0  0  0  0  0  0  0
   24.5640   42.9823   34.7945 C   0  0  0  0  0  0  0  0  0  0  0  0
   23.5798   42.6503   35.7474 C   0  0  0  0  0  0  0  0  0  0  0  0
   26.1777   44.5566   34.1105 O   0  0  0  0  0  0  0  0  0  0  0  0
   26.6191   45.3731   34.2385 H   0  0  0  0  0  0  0  0  0  0  0  0
  1  2  2  0  0  0
  1  6  1  0  0  0
  2  3  1  0  0  0
  2 12  1  0  0  0
  3  4  2  0  0  0
  4  5  1  0  0  0
  4 13  1  0  0  0
  5  6  2  0  0  0
  5  7  1  0  0  0
  6 10  1  0  0  0
  7  8  1  0  0  0
  7 11  2  0  0  0
  8  9  1  0  0  0
  9 10  1  0  0  0
  9 16  1  0  0  0
 16 17  1  0  0  0
 16 21  2  0  0  0
 17 18  2  0  0  0
 18 19  1  0  0  0
 19 20  2  0  0  0
 19 22  1  0  0  0
 20 21  1  0  0  0
 22 23  1  0  0  0
 12 14  1  0  0  0
 13 15  1  0  0  0
M  END
> <minimizedAffinity>
-7.35319

$$$$
4DEU_NAR_A_205


 23 25  0  0  0  0  0  0  0  0999 V2000
   20.7397   43.9760   40.2848 C   0  0  0  0  0  0  0  0  0  0  0  0
   21.3278   44.7470   41.2049 C   0  0  0  0  0  0  0  0  0  0  0  0
   22.5258   44.3971   41.7593 C   0  0  0  0  0  0  0  0  0  0  0  0
   23.1366   43.2373   41.3598 C   0  0  0  0  0  0  0  0  0  0  0  0
   22.5779   42.4495   40.4343 C   0  0  0  0  0  0  0  0  0  0  0  0
   21.3734   42.8250   39.8925 C   0  0  0  0  0  0  0  0  0  0  0  0
   23.1447   41.2770   39.9208 C   0  0  0  0  0  0  0  0  0  0  0  0
   22.5479   40.7179   38.6288 C   0  0  0  0  0  0  0  0  0  0  0  0
   21.5955   41.8121   38.0415 C   0  0  0  0  0  0  0  0  0  0  0  0
   20.7809   42.0461   39.0043 O   0  0  0  0  0  0  0  0  0  0  0  0
   24.1483   40.7373   40.3551 O   0  0  0  0  0  0  0  0  0  0  0  0
   20.6976   45.8666   41.5612 O   0  0  0  0  0  0  0  0  0  0  0  0
   24.2968   42.8638   41.8777 O   0  0  0  0  0  0  0  0  0  0  0  0
   19.8764   46.0875   41.1678 H   0  0  0  0  0  0  0  0  0  0  0  0
   24.7124   43.3952   42.5280 H   0  0  0  0  0  0  0  0  0  0  0  0
   20.5441   41.4920   36.9648 C   0  0  0  0  0  0  0  0  0  0  0  0
   19.7781   40.3995   37.1264 C   0  0  0  0  0  0  0  0  0  0  0  0
   18.8215   40.1957   36.1350 C   0  0  0  0  0  0  0  0  0  0  0  0
   18.5690   41.0533   35.0638 C   0  0  0  0  0  0  0  0  0  0  0  0
   19.3036   42.1918   34.8633 C   0  0  0  0  0  0  0  0  0  0  0  0
   20.2948   42.4941   35.8188 C   0  0  0  0  0  0  0  0  0  0  0  0
   17.6008   40.7005   34.2102 O   0  0  0  0  0  0  0  0  0  0  0  0
   17.1061   39.9189   34.3598 H   0  0  0  0  0  0  0  0  0  0  0  0
  1  2  2  0  0  0
  1  6  1  0  0  0
  2  3  1  0  0  0
  2 12  1  0  0  0
  3  4  2  0  0  0
  4  5  1  0  0  0
  4 13  1  0  0  0
  5  6  2  0  0  0
  5  7  1  0  0  0
  6 10  1  0  0  0
  7  8  1  0  0  0
  7 11  2  0  0  0
  8  9  1  0  0  0
  9 10  1  0  0  0
  9 16  1  0  0  0
 16 17  1  0  0  0
 16 21  2  0  0  0
 17 18  2  0  0  0
 18 19  1  0  0  0
 19 20  2  0  0  0
 19 22  1  0  0  0
 20 21  1  0  0  0
 22 23  1  0  0  0
 12 14  1  0  0  0
 13 15  1  0  0  0
M  END
> <minimizedAffinity>
-7.23118

$$$$
