4GGZ_BTN_A_900
  RCSB PDB12061712423D
Coordinates from PDB:4GGZ:A:900 Model:1 without hydrogens
 16 17  0  0  0  0            999 V2000
   38.0110  -12.6940    1.2720   C 0  0  0  0  0  0  0  0  0  0  0  0
   38.3050  -12.7470    0.0300   O 0  0  0  0  0  0  0  0  0  0  0  0
   38.2550  -13.6920    2.0090   O 0  0  0  0  0  0  0  0  0  0  0  0
   37.3540  -11.4810    1.8970   C 0  0  0  0  0  0  0  0  0  0  0  0
   37.7330  -10.1500    1.2310   C 0  0  0  0  0  0  0  0  0  0  0  0
   39.2310   -9.8740    1.4140   C 0  0  0  0  0  0  0  0  0  0  0  0
   39.6440   -8.5380    0.7550   C 0  0  0  0  0  0  0  0  0  0  0  0
   41.1490   -8.2780    0.9500   C 0  0  0  0  0  0  0  0  0  0  0  0
   41.5140   -7.4820    2.3980   S 0  0  0  0  0  0  0  0  0  0  0  0
   43.1970   -7.1960    1.7800   C 0  0  0  0  0  0  0  0  0  0  0  0
   43.0390   -6.8020    0.3110   C 0  0  0  0  0  0  0  0  0  0  0  0
   42.8080   -5.3790    0.1740   N 0  0  0  0  0  0  0  0  0  0  0  0
   41.5810   -5.1530   -0.3000   C 0  0  0  0  0  0  0  0  0  0  0  0
   41.1190   -3.8930   -0.5430   O 0  0  0  0  0  0  0  0  0  0  0  0
   40.8930   -6.2540   -0.4970   N 0  0  0  0  0  0  0  0  0  0  0  0
   41.7390   -7.4010   -0.1590   C 0  0  0  0  0  0  0  0  0  0  0  0
  1  2  2  0  0  0  0
  1  3  1  0  0  0  0
  1  4  1  0  0  0  0
  4  5  1  0  0  0  0
  5  6  1  0  0  0  0
  6  7  1  0  0  0  0
  7  8  1  0  0  0  0
  8  9  1  0  0  0  0
  8 16  1  0  0  0  0
  9 10  1  0  0  0  0
 10 11  1  0  0  0  0
 11 12  1  0  0  0  0
 11 16  1  0  0  0  0
 12 13  1  0  0  0  0
 13 14  2  0  0  0  0
 13 15  1  0  0  0  0
 15 16  1  0  0  0  0
A    1
C11
A    2
O11
A    3
O12
A    4
C10
A    5
C9
A    6
C8
A    7
C7
A    8
C2
A    9
S1
A   10
C6
A   11
C5
A   12
N1
A   13
C3
A   14
O3
A   15
N2
A   16
C4
M  END
>  <InstanceId>
4GGZ_BTN_A_900

>  <ChemCompId>
BTN

>  <PdbId>
4GGZ

>  <ChainId>
A

>  <ResidueNumber>
900

>  <InsertionCode>


>  <Model>
1

>  <AltIds>


>  <MissingHeavyAtoms>
0

>  <ObservedFormula>
C10 N2 O3 S

>  <Name>
BIOTIN

>  <SystematicName>
5-[(3aS,4S,6aR)-2-oxidanylidene-1,3,3a,4,6,6a-hexahydrothieno[3,4-d]imidazol-4-yl]pentanoic acid

>  <Synonyms>


>  <Type>
NON-POLYMER

>  <Formula>
C10 H16 N2 O3 S

>  <MolecularWeight>
244.311

>  <ModifiedDate>
2014-04-29

>  <Parent>


>  <OneLetterCode>


>  <SubcomponentList>


>  <AmbiguousFlag>
N

>  <InChI>
InChI=1S/C10H16N2O3S/c13-8(14)4-2-1-3-7-9-6(5-16-7)11-10(15)12-9/h6-7,9H,1-5H2,(H,13,14)(H2,11,12,15)/t6-,7-,9-/m0/s1

>  <InChIKey>
YBJHBAHKTGYVGT-ZKWXMUAHSA-N

>  <SMILES>
C1[C@H]2[C@@H]([C@@H](S1)CCCCC(=O)O)NC(=O)N2

$$$$
