3SI3_B03_H_5


 29 31  0  0  0  0  0  0  0  0999 V2000
   17.8869  -13.2365   22.6078 C   0  0  0  0  0  0  0  0  0  0  0  0
   16.9106  -12.6135   23.0201 O   0  0  0  0  0  0  0  0  0  0  0  0
   18.6733  -12.7563   21.6562 N   0  0  0  0  0  0  0  0  0  0  0  0
   18.3603  -11.4542   21.0876 C   0  0  0  0  0  0  0  0  0  0  0  0
   19.4229  -11.2175   20.0174 C   0  0  0  0  0  0  0  0  0  0  0  0
   20.5120  -12.2460   20.2663 C   0  0  0  0  0  0  0  0  0  0  0  0
   19.8675  -13.3742   21.0644 C   0  0  0  0  0  0  0  0  0  0  0  0
   17.0097  -15.3834   23.1939 N   0  0  0  0  0  0  0  0  0  0  0  0
   18.2209  -14.5861   23.1867 C   0  0  0  0  0  0  0  0  0  0  0  0
   17.2113  -16.3046   23.5828 H   0  0  0  0  0  0  0  0  0  0  0  0
   16.6641  -15.4854   22.2397 H   0  0  0  0  0  0  0  0  0  0  0  0
   18.7072  -14.4579   24.6350 C   0  0  0  0  0  0  0  0  0  0  0  0
   20.0649  -13.7951   24.6967 C   0  0  0  0  0  0  0  0  0  0  0  0
   21.1939  -14.4016   24.1502 C   0  0  0  0  0  0  0  0  0  0  0  0
   20.1825  -12.5574   25.2996 C   0  0  0  0  0  0  0  0  0  0  0  0
   22.4276  -13.7590   24.2140 C   0  0  0  0  0  0  0  0  0  0  0  0
   21.4102  -11.9133   25.3573 C   0  0  0  0  0  0  0  0  0  0  0  0
   22.5439  -12.5174   24.8158 C   0  0  0  0  0  0  0  0  0  0  0  0
   16.9957  -11.4497   20.4555 C   0  0  0  0  0  0  0  0  0  0  0  0
   16.7587  -12.2090   19.5284 O   0  0  0  0  0  0  0  0  0  0  0  0
   16.0674  -10.6203   20.9434 N   0  0  0  0  0  0  0  0  0  0  0  0
   16.3212  -10.0510   21.7055 H   0  0  0  0  0  0  0  0  0  0  0  0
   14.7049  -10.4948   20.4309 C   0  0  0  0  0  0  0  0  0  0  0  0
   13.6781  -10.2787   21.5234 C   0  0  0  0  0  0  0  0  0  0  0  0
   13.4959   -9.0242   22.0958 C   0  0  0  0  0  0  0  0  0  0  0  0
   12.5452   -8.8593   23.0960 C   0  0  0  0  0  0  0  0  0  0  0  0
   11.7896   -9.9498   23.4994 C   0  0  0  0  0  0  0  0  0  0  0  0
   12.0012  -11.1838   22.8968 C   0  0  0  0  0  0  0  0  0  0  0  0
   12.9231  -11.3207   21.9354 N   0  0  0  0  0  0  0  0  0  0  0  0
 18 16  2  0  0  0
 18 17  1  0  0  0
 16 14  1  0  0  0
 14 13  2  0  0  0
 13 15  1  0  0  0
 13 12  1  0  0  0
 15 17  2  0  0  0
 12  9  1  0  0  0
  9  1  1  0  0  0
  9  8  1  0  0  0
  1  3  1  0  0  0
  1  2  2  0  0  0
  3  4  1  0  0  0
  3  7  1  0  0  0
  4  5  1  0  0  0
  4 19  1  0  0  0
  7  6  1  0  0  0
  5  6  1  0  0  0
 19 21  1  0  0  0
 19 20  2  0  0  0
 21 23  1  0  0  0
 23 24  1  0  0  0
 24 29  2  0  0  0
 24 25  1  0  0  0
 29 28  1  0  0  0
 25 26  2  0  0  0
 26 27  1  0  0  0
 27 28  2  0  0  0
  8 10  1  0  0  0
  8 11  1  0  0  0
 21 22  1  0  0  0
M  END
> <minimizedAffinity>
-9.07030

$$$$
3SI3_B03_H_5


 29 31  0  0  0  0  0  0  0  0999 V2000
   18.0237  -13.2529   22.6200 C   0  0  0  0  0  0  0  0  0  0  0  0
   17.0690  -12.6156   23.0601 O   0  0  0  0  0  0  0  0  0  0  0  0
   18.8051  -12.7733   21.6642 N   0  0  0  0  0  0  0  0  0  0  0  0
   18.5130  -11.4540   21.1247 C   0  0  0  0  0  0  0  0  0  0  0  0
   19.5629  -11.2218   20.0412 C   0  0  0  0  0  0  0  0  0  0  0  0
   20.6319  -12.2793   20.2528 C   0  0  0  0  0  0  0  0  0  0  0  0
   19.9748  -13.4072   21.0410 C   0  0  0  0  0  0  0  0  0  0  0  0
   17.1105  -15.3957   23.1651 N   0  0  0  0  0  0  0  0  0  0  0  0
   18.3359  -14.6204   23.1686 C   0  0  0  0  0  0  0  0  0  0  0  0
   17.2972  -16.3284   23.5333 H   0  0  0  0  0  0  0  0  0  0  0  0
   16.7586  -15.4712   22.2107 H   0  0  0  0  0  0  0  0  0  0  0  0
   18.8312  -14.5318   24.6168 C   0  0  0  0  0  0  0  0  0  0  0  0
   20.1600  -13.8144   24.6947 C   0  0  0  0  0  0  0  0  0  0  0  0
   21.3160  -14.3666   24.1470 C   0  0  0  0  0  0  0  0  0  0  0  0
   20.2231  -12.5807   25.3138 C   0  0  0  0  0  0  0  0  0  0  0  0
   22.5217  -13.6746   24.2261 C   0  0  0  0  0  0  0  0  0  0  0  0
   21.4228  -11.8874   25.3867 C   0  0  0  0  0  0  0  0  0  0  0  0
   22.5835  -12.4371   24.8442 C   0  0  0  0  0  0  0  0  0  0  0  0
   17.1386  -11.4066   20.5161 C   0  0  0  0  0  0  0  0  0  0  0  0
   16.9081  -12.0419   19.4984 O   0  0  0  0  0  0  0  0  0  0  0  0
   16.1952  -10.6786   21.1225 N   0  0  0  0  0  0  0  0  0  0  0  0
   16.4451  -10.2090   21.9509 H   0  0  0  0  0  0  0  0  0  0  0  0
   14.8213  -10.5273   20.6486 C   0  0  0  0  0  0  0  0  0  0  0  0
   13.9994  -11.7906   20.8001 C   0  0  0  0  0  0  0  0  0  0  0  0
   13.3656  -12.3674   19.7045 C   0  0  0  0  0  0  0  0  0  0  0  0
   12.6190  -13.5268   19.8772 C   0  0  0  0  0  0  0  0  0  0  0  0
   12.5267  -14.0916   21.1402 C   0  0  0  0  0  0  0  0  0  0  0  0
   13.1801  -13.4848   22.2058 C   0  0  0  0  0  0  0  0  0  0  0  0
   13.8936  -12.3675   22.0174 N   0  0  0  0  0  0  0  0  0  0  0  0
 18 16  2  0  0  0
 18 17  1  0  0  0
 16 14  1  0  0  0
 14 13  2  0  0  0
 13 15  1  0  0  0
 13 12  1  0  0  0
 15 17  2  0  0  0
 12  9  1  0  0  0
  9  1  1  0  0  0
  9  8  1  0  0  0
  1  3  1  0  0  0
  1  2  2  0  0  0
  3  4  1  0  0  0
  3  7  1  0  0  0
  4  5  1  0  0  0
  4 19  1  0  0  0
  7  6  1  0  0  0
  5  6  1  0  0  0
 19 21  1  0  0  0
 19 20  2  0  0  0
 21 23  1  0  0  0
 23 24  1  0  0  0
 24 29  2  0  0  0
 24 25  1  0  0  0
 29 28  1  0  0  0
 25 26  2  0  0  0
 26 27  1  0  0  0
 27 28  2  0  0  0
  8 10  1  0  0  0
  8 11  1  0  0  0
 21 22  1  0  0  0
M  END
> <minimizedAffinity>
-8.39435

$$$$
3SI3_B03_H_5


 29 31  0  0  0  0  0  0  0  0999 V2000
   17.3050  -12.4040   20.4466 C   0  0  0  0  0  0  0  0  0  0  0  0
   17.1790  -11.8674   19.3477 O   0  0  0  0  0  0  0  0  0  0  0  0
   16.6037  -13.4745   20.7879 N   0  0  0  0  0  0  0  0  0  0  0  0
   15.6571  -14.0202   19.8271 C   0  0  0  0  0  0  0  0  0  0  0  0
   15.0063  -15.2065   20.5340 C   0  0  0  0  0  0  0  0  0  0  0  0
   15.8695  -15.5024   21.7478 C   0  0  0  0  0  0  0  0  0  0  0  0
   16.6431  -14.2239   22.0509 C   0  0  0  0  0  0  0  0  0  0  0  0
   18.5405  -10.4642   21.1047 N   0  0  0  0  0  0  0  0  0  0  0  0
   18.2801  -11.8480   21.4509 C   0  0  0  0  0  0  0  0  0  0  0  0
   19.2001  -10.0650   21.7725 H   0  0  0  0  0  0  0  0  0  0  0  0
   17.6679   -9.9368   21.1321 H   0  0  0  0  0  0  0  0  0  0  0  0
   19.6130  -12.6037   21.3993 C   0  0  0  0  0  0  0  0  0  0  0  0
   20.2495  -12.6788   22.7689 C   0  0  0  0  0  0  0  0  0  0  0  0
   19.4770  -12.7953   23.9225 C   0  0  0  0  0  0  0  0  0  0  0  0
   21.6267  -12.6410   22.8737 C   0  0  0  0  0  0  0  0  0  0  0  0
   20.0951  -12.8734   25.1679 C   0  0  0  0  0  0  0  0  0  0  0  0
   22.2435  -12.7260   24.1137 C   0  0  0  0  0  0  0  0  0  0  0  0
   21.4754  -12.8384   25.2717 C   0  0  0  0  0  0  0  0  0  0  0  0
   14.6054  -13.0085   19.4639 C   0  0  0  0  0  0  0  0  0  0  0  0
   14.2228  -12.9261   18.3067 O   0  0  0  0  0  0  0  0  0  0  0  0
   14.1018  -12.2341   20.4306 N   0  0  0  0  0  0  0  0  0  0  0  0
   14.4413  -12.3689   21.3448 H   0  0  0  0  0  0  0  0  0  0  0  0
   13.0856  -11.2030   20.2327 C   0  0  0  0  0  0  0  0  0  0  0  0
   12.6014  -10.5909   21.5309 C   0  0  0  0  0  0  0  0  0  0  0  0
   13.0445   -9.3374   21.9398 C   0  0  0  0  0  0  0  0  0  0  0  0
   12.5807   -8.8037   23.1363 C   0  0  0  0  0  0  0  0  0  0  0  0
   11.6771   -9.5299   23.8972 C   0  0  0  0  0  0  0  0  0  0  0  0
   11.2572  -10.7760   23.4483 C   0  0  0  0  0  0  0  0  0  0  0  0
   11.7173  -11.2718   22.2927 N   0  0  0  0  0  0  0  0  0  0  0  0
 18 16  2  0  0  0
 18 17  1  0  0  0
 16 14  1  0  0  0
 14 13  2  0  0  0
 13 15  1  0  0  0
 13 12  1  0  0  0
 15 17  2  0  0  0
 12  9  1  0  0  0
  9  1  1  0  0  0
  9  8  1  0  0  0
  1  3  1  0  0  0
  1  2  2  0  0  0
  3  4  1  0  0  0
  3  7  1  0  0  0
  4  5  1  0  0  0
  4 19  1  0  0  0
  7  6  1  0  0  0
  5  6  1  0  0  0
 19 21  1  0  0  0
 19 20  2  0  0  0
 21 23  1  0  0  0
 23 24  1  0  0  0
 24 29  2  0  0  0
 24 25  1  0  0  0
 29 28  1  0  0  0
 25 26  2  0  0  0
 26 27  1  0  0  0
 27 28  2  0  0  0
  8 10  1  0  0  0
  8 11  1  0  0  0
 21 22  1  0  0  0
M  END
> <minimizedAffinity>
-7.74083

$$$$
3SI3_B03_H_5


 29 31  0  0  0  0  0  0  0  0999 V2000
   14.7863  -12.0455   21.2801 C   0  0  0  0  0  0  0  0  0  0  0  0
   15.7997  -11.8087   21.9345 O   0  0  0  0  0  0  0  0  0  0  0  0
   14.2611  -13.2597   21.2172 N   0  0  0  0  0  0  0  0  0  0  0  0
   14.9133  -14.3374   21.9451 C   0  0  0  0  0  0  0  0  0  0  0  0
   14.0879  -15.5849   21.6406 C   0  0  0  0  0  0  0  0  0  0  0  0
   12.7866  -15.0940   21.0310 C   0  0  0  0  0  0  0  0  0  0  0  0
   13.0636  -13.6967   20.4868 C   0  0  0  0  0  0  0  0  0  0  0  0
   14.7865  -10.7760   19.2526 N   0  0  0  0  0  0  0  0  0  0  0  0
   14.1024  -10.9392   20.5206 C   0  0  0  0  0  0  0  0  0  0  0  0
   14.3401  -10.0302   18.7189 H   0  0  0  0  0  0  0  0  0  0  0  0
   14.7375  -11.6477   18.7251 H   0  0  0  0  0  0  0  0  0  0  0  0
   14.1978   -9.6107   21.2798 C   0  0  0  0  0  0  0  0  0  0  0  0
   13.1333   -9.5175   22.3497 C   0  0  0  0  0  0  0  0  0  0  0  0
   12.3114  -10.6012   22.6519 C   0  0  0  0  0  0  0  0  0  0  0  0
   12.9822   -8.3343   23.0472 C   0  0  0  0  0  0  0  0  0  0  0  0
   11.3482  -10.4857   23.6508 C   0  0  0  0  0  0  0  0  0  0  0  0
   12.0273   -8.2208   24.0475 C   0  0  0  0  0  0  0  0  0  0  0  0
   11.1995   -9.3006   24.3512 C   0  0  0  0  0  0  0  0  0  0  0  0
   16.3265  -14.5375   21.4710 C   0  0  0  0  0  0  0  0  0  0  0  0
   16.5348  -14.8245   20.3021 O   0  0  0  0  0  0  0  0  0  0  0  0
   17.3239  -14.3757   22.3466 N   0  0  0  0  0  0  0  0  0  0  0  0
   17.0845  -14.1237   23.2677 H   0  0  0  0  0  0  0  0  0  0  0  0
   18.7425  -14.5446   22.0398 C   0  0  0  0  0  0  0  0  0  0  0  0
   19.6481  -13.7785   22.9817 C   0  0  0  0  0  0  0  0  0  0  0  0
   19.2339  -13.4593   24.2707 C   0  0  0  0  0  0  0  0  0  0  0  0
   20.0891  -12.7557   25.1104 C   0  0  0  0  0  0  0  0  0  0  0  0
   21.3447  -12.3914   24.6481 C   0  0  0  0  0  0  0  0  0  0  0  0
   21.7193  -12.7353   23.3551 C   0  0  0  0  0  0  0  0  0  0  0  0
   20.8795  -13.4129   22.5624 N   0  0  0  0  0  0  0  0  0  0  0  0
 18 16  2  0  0  0
 18 17  1  0  0  0
 16 14  1  0  0  0
 14 13  2  0  0  0
 13 15  1  0  0  0
 13 12  1  0  0  0
 15 17  2  0  0  0
 12  9  1  0  0  0
  9  1  1  0  0  0
  9  8  1  0  0  0
  1  3  1  0  0  0
  1  2  2  0  0  0
  3  4  1  0  0  0
  3  7  1  0  0  0
  4  5  1  0  0  0
  4 19  1  0  0  0
  7  6  1  0  0  0
  5  6  1  0  0  0
 19 21  1  0  0  0
 19 20  2  0  0  0
 21 23  1  0  0  0
 23 24  1  0  0  0
 24 29  2  0  0  0
 24 25  1  0  0  0
 29 28  1  0  0  0
 25 26  2  0  0  0
 26 27  1  0  0  0
 27 28  2  0  0  0
  8 10  1  0  0  0
  8 11  1  0  0  0
 21 22  1  0  0  0
M  END
> <minimizedAffinity>
-7.68383

$$$$
3SI3_B03_H_5


 29 31  0  0  0  0  0  0  0  0999 V2000
   15.3320  -11.8696   21.5428 C   0  0  0  0  0  0  0  0  0  0  0  0
   15.3141  -13.0901   21.6894 O   0  0  0  0  0  0  0  0  0  0  0  0
   14.2641  -11.1208   21.7733 N   0  0  0  0  0  0  0  0  0  0  0  0
   13.0388  -11.7734   22.2089 C   0  0  0  0  0  0  0  0  0  0  0  0
   12.0144  -10.6506   22.3509 C   0  0  0  0  0  0  0  0  0  0  0  0
   12.8023   -9.3526   22.3295 C   0  0  0  0  0  0  0  0  0  0  0  0
   14.1299   -9.6633   21.6470 C   0  0  0  0  0  0  0  0  0  0  0  0
   16.2456  -10.2617   20.0254 N   0  0  0  0  0  0  0  0  0  0  0  0
   16.5934  -11.1819   21.0907 C   0  0  0  0  0  0  0  0  0  0  0  0
   17.0860   -9.7828   19.7019 H   0  0  0  0  0  0  0  0  0  0  0  0
   15.5760   -9.5756   20.3738 H   0  0  0  0  0  0  0  0  0  0  0  0
   17.5992  -12.1929   20.5280 C   0  0  0  0  0  0  0  0  0  0  0  0
   18.7596  -12.3920   21.4769 C   0  0  0  0  0  0  0  0  0  0  0  0
   18.5564  -12.7701   22.8024 C   0  0  0  0  0  0  0  0  0  0  0  0
   20.0476  -12.2039   21.0132 C   0  0  0  0  0  0  0  0  0  0  0  0
   19.6477  -12.9559   23.6471 C   0  0  0  0  0  0  0  0  0  0  0  0
   21.1357  -12.3959   21.8526 C   0  0  0  0  0  0  0  0  0  0  0  0
   20.9381  -12.7701   23.1809 C   0  0  0  0  0  0  0  0  0  0  0  0
   12.5599  -12.7693   21.1888 C   0  0  0  0  0  0  0  0  0  0  0  0
   12.1758  -12.3767   20.0977 O   0  0  0  0  0  0  0  0  0  0  0  0
   12.5863  -14.0689   21.5020 N   0  0  0  0  0  0  0  0  0  0  0  0
   12.9280  -14.3156   22.3917 H   0  0  0  0  0  0  0  0  0  0  0  0
   12.1463  -15.1505   20.6237 C   0  0  0  0  0  0  0  0  0  0  0  0
   13.2423  -15.6525   19.7066 C   0  0  0  0  0  0  0  0  0  0  0  0
   13.3335  -15.2089   18.3914 C   0  0  0  0  0  0  0  0  0  0  0  0
   14.3514  -15.6888   17.5758 C   0  0  0  0  0  0  0  0  0  0  0  0
   15.2628  -16.5970   18.0927 C   0  0  0  0  0  0  0  0  0  0  0  0
   15.1372  -17.0093   19.4136 C   0  0  0  0  0  0  0  0  0  0  0  0
   14.1485  -16.5348   20.1819 N   0  0  0  0  0  0  0  0  0  0  0  0
 18 16  2  0  0  0
 18 17  1  0  0  0
 16 14  1  0  0  0
 14 13  2  0  0  0
 13 15  1  0  0  0
 13 12  1  0  0  0
 15 17  2  0  0  0
 12  9  1  0  0  0
  9  1  1  0  0  0
  9  8  1  0  0  0
  1  3  1  0  0  0
  1  2  2  0  0  0
  3  4  1  0  0  0
  3  7  1  0  0  0
  4  5  1  0  0  0
  4 19  1  0  0  0
  7  6  1  0  0  0
  5  6  1  0  0  0
 19 21  1  0  0  0
 19 20  2  0  0  0
 21 23  1  0  0  0
 23 24  1  0  0  0
 24 29  2  0  0  0
 24 25  1  0  0  0
 29 28  1  0  0  0
 25 26  2  0  0  0
 26 27  1  0  0  0
 27 28  2  0  0  0
  8 10  1  0  0  0
  8 11  1  0  0  0
 21 22  1  0  0  0
M  END
> <minimizedAffinity>
-7.63470

$$$$
3SI3_B03_H_5


 29 31  0  0  0  0  0  0  0  0999 V2000
   17.0116  -14.1107   22.1922 C   0  0  0  0  0  0  0  0  0  0  0  0
   16.4479  -13.0195   22.1398 O   0  0  0  0  0  0  0  0  0  0  0  0
   16.7370  -15.0828   21.3355 N   0  0  0  0  0  0  0  0  0  0  0  0
   15.7346  -14.8415   20.3089 C   0  0  0  0  0  0  0  0  0  0  0  0
   15.6392  -16.1484   19.5258 C   0  0  0  0  0  0  0  0  0  0  0  0
   16.8540  -16.9694   19.9211 C   0  0  0  0  0  0  0  0  0  0  0  0
   17.3220  -16.4287   21.2679 C   0  0  0  0  0  0  0  0  0  0  0  0
   17.5216  -15.3737   24.1587 N   0  0  0  0  0  0  0  0  0  0  0  0
   18.0500  -14.3740   23.2509 C   0  0  0  0  0  0  0  0  0  0  0  0
   18.2089  -15.5692   24.8866 H   0  0  0  0  0  0  0  0  0  0  0  0
   17.3208  -16.2299   23.6420 H   0  0  0  0  0  0  0  0  0  0  0  0
   18.3389  -13.1071   24.0645 C   0  0  0  0  0  0  0  0  0  0  0  0
   19.8246  -12.9246   24.2784 C   0  0  0  0  0  0  0  0  0  0  0  0
   20.7246  -12.9958   23.2172 C   0  0  0  0  0  0  0  0  0  0  0  0
   20.2948  -12.6720   25.5530 C   0  0  0  0  0  0  0  0  0  0  0  0
   22.0857  -12.8119   23.4468 C   0  0  0  0  0  0  0  0  0  0  0  0
   21.6501  -12.4817   25.7813 C   0  0  0  0  0  0  0  0  0  0  0  0
   22.5556  -12.5560   24.7239 C   0  0  0  0  0  0  0  0  0  0  0  0
   14.3982  -14.5180   20.9182 C   0  0  0  0  0  0  0  0  0  0  0  0
   13.8675  -15.3227   21.6685 O   0  0  0  0  0  0  0  0  0  0  0  0
   13.8334  -13.3402   20.6328 N   0  0  0  0  0  0  0  0  0  0  0  0
   14.3269  -12.7312   20.0372 H   0  0  0  0  0  0  0  0  0  0  0  0
   12.5389  -12.8886   21.1381 C   0  0  0  0  0  0  0  0  0  0  0  0
   12.5905  -11.5019   21.7454 C   0  0  0  0  0  0  0  0  0  0  0  0
   13.5993  -10.6078   21.4023 C   0  0  0  0  0  0  0  0  0  0  0  0
   13.6180   -9.3427   21.9773 C   0  0  0  0  0  0  0  0  0  0  0  0
   12.6237   -8.9930   22.8784 C   0  0  0  0  0  0  0  0  0  0  0  0
   11.6323   -9.9156   23.1887 C   0  0  0  0  0  0  0  0  0  0  0  0
   11.6335  -11.1296   22.6236 N   0  0  0  0  0  0  0  0  0  0  0  0
 18 16  2  0  0  0
 18 17  1  0  0  0
 16 14  1  0  0  0
 14 13  2  0  0  0
 13 15  1  0  0  0
 13 12  1  0  0  0
 15 17  2  0  0  0
 12  9  1  0  0  0
  9  1  1  0  0  0
  9  8  1  0  0  0
  1  3  1  0  0  0
  1  2  2  0  0  0
  3  4  1  0  0  0
  3  7  1  0  0  0
  4  5  1  0  0  0
  4 19  1  0  0  0
  7  6  1  0  0  0
  5  6  1  0  0  0
 19 21  1  0  0  0
 19 20  2  0  0  0
 21 23  1  0  0  0
 23 24  1  0  0  0
 24 29  2  0  0  0
 24 25  1  0  0  0
 29 28  1  0  0  0
 25 26  2  0  0  0
 26 27  1  0  0  0
 27 28  2  0  0  0
  8 10  1  0  0  0
  8 11  1  0  0  0
 21 22  1  0  0  0
M  END
> <minimizedAffinity>
-7.37168

$$$$
3SI3_B03_H_5


 29 31  0  0  0  0  0  0  0  0999 V2000
   14.7255  -13.5773   20.9846 C   0  0  0  0  0  0  0  0  0  0  0  0
   15.4461  -13.2098   21.9104 O   0  0  0  0  0  0  0  0  0  0  0  0
   14.9498  -13.2066   19.7330 N   0  0  0  0  0  0  0  0  0  0  0  0
   16.0830  -12.3363   19.4586 C   0  0  0  0  0  0  0  0  0  0  0  0
   16.0377  -12.0804   17.9543 C   0  0  0  0  0  0  0  0  0  0  0  0
   15.0800  -13.1082   17.3779 C   0  0  0  0  0  0  0  0  0  0  0  0
   14.1873  -13.5609   18.5283 C   0  0  0  0  0  0  0  0  0  0  0  0
   13.1330  -14.2710   22.6294 N   0  0  0  0  0  0  0  0  0  0  0  0
   13.5483  -14.4768   21.2554 C   0  0  0  0  0  0  0  0  0  0  0  0
   12.3348  -14.8712   22.8368 H   0  0  0  0  0  0  0  0  0  0  0  0
   12.8681  -13.2950   22.7619 H   0  0  0  0  0  0  0  0  0  0  0  0
   13.9360  -15.9518   21.0981 C   0  0  0  0  0  0  0  0  0  0  0  0
   12.9304  -16.6909   20.2443 C   0  0  0  0  0  0  0  0  0  0  0  0
   13.1368  -18.0148   19.8623 C   0  0  0  0  0  0  0  0  0  0  0  0
   11.7791  -16.0395   19.8450 C   0  0  0  0  0  0  0  0  0  0  0  0
   12.1854  -18.6702   19.0850 C   0  0  0  0  0  0  0  0  0  0  0  0
   10.8274  -16.6942   19.0763 C   0  0  0  0  0  0  0  0  0  0  0  0
   11.0306  -18.0176   18.6877 C   0  0  0  0  0  0  0  0  0  0  0  0
   15.9597  -11.0324   20.1977 C   0  0  0  0  0  0  0  0  0  0  0  0
   16.9622  -10.4956   20.6439 O   0  0  0  0  0  0  0  0  0  0  0  0
   14.7474  -10.4842   20.3299 N   0  0  0  0  0  0  0  0  0  0  0  0
   13.9860  -10.9609   19.9271 H   0  0  0  0  0  0  0  0  0  0  0  0
   14.4671   -9.2310   21.0270 C   0  0  0  0  0  0  0  0  0  0  0  0
   13.3915   -9.3686   22.0845 C   0  0  0  0  0  0  0  0  0  0  0  0
   12.6433  -10.5358   22.1963 C   0  0  0  0  0  0  0  0  0  0  0  0
   11.6638  -10.6303   23.1777 C   0  0  0  0  0  0  0  0  0  0  0  0
   11.4563   -9.5591   24.0334 C   0  0  0  0  0  0  0  0  0  0  0  0
   12.2301   -8.4140   23.8894 C   0  0  0  0  0  0  0  0  0  0  0  0
   13.1681   -8.3438   22.9364 N   0  0  0  0  0  0  0  0  0  0  0  0
 18 16  2  0  0  0
 18 17  1  0  0  0
 16 14  1  0  0  0
 14 13  2  0  0  0
 13 15  1  0  0  0
 13 12  1  0  0  0
 15 17  2  0  0  0
 12  9  1  0  0  0
  9  1  1  0  0  0
  9  8  1  0  0  0
  1  3  1  0  0  0
  1  2  2  0  0  0
  3  4  1  0  0  0
  3  7  1  0  0  0
  4  5  1  0  0  0
  4 19  1  0  0  0
  7  6  1  0  0  0
  5  6  1  0  0  0
 19 21  1  0  0  0
 19 20  2  0  0  0
 21 23  1  0  0  0
 23 24  1  0  0  0
 24 29  2  0  0  0
 24 25  1  0  0  0
 29 28  1  0  0  0
 25 26  2  0  0  0
 26 27  1  0  0  0
 27 28  2  0  0  0
  8 10  1  0  0  0
  8 11  1  0  0  0
 21 22  1  0  0  0
M  END
> <minimizedAffinity>
-7.34351

$$$$
3SI3_B03_H_5


 29 31  0  0  0  0  0  0  0  0999 V2000
   17.7820  -13.1151   22.4673 C   0  0  0  0  0  0  0  0  0  0  0  0
   16.7726  -12.5006   22.8064 O   0  0  0  0  0  0  0  0  0  0  0  0
   18.5917  -12.6641   21.5211 N   0  0  0  0  0  0  0  0  0  0  0  0
   18.2649  -11.4053   20.8689 C   0  0  0  0  0  0  0  0  0  0  0  0
   19.3621  -11.1953   19.8286 C   0  0  0  0  0  0  0  0  0  0  0  0
   20.4692  -12.1748   20.1762 C   0  0  0  0  0  0  0  0  0  0  0  0
   19.8257  -13.2768   21.0110 C   0  0  0  0  0  0  0  0  0  0  0  0
   16.9336  -15.2374   23.1734 N   0  0  0  0  0  0  0  0  0  0  0  0
   18.1308  -14.4202   23.1332 C   0  0  0  0  0  0  0  0  0  0  0  0
   17.1454  -16.1290   23.6213 H   0  0  0  0  0  0  0  0  0  0  0  0
   16.6038  -15.4044   22.2227 H   0  0  0  0  0  0  0  0  0  0  0  0
   18.5933  -14.1940   24.5773 C   0  0  0  0  0  0  0  0  0  0  0  0
   20.0025  -13.6471   24.6181 C   0  0  0  0  0  0  0  0  0  0  0  0
   20.2679  -12.3594   25.0793 C   0  0  0  0  0  0  0  0  0  0  0  0
   21.0473  -14.4477   24.1980 C   0  0  0  0  0  0  0  0  0  0  0  0
   21.5785  -11.8902   25.1145 C   0  0  0  0  0  0  0  0  0  0  0  0
   22.3542  -13.9833   24.2394 C   0  0  0  0  0  0  0  0  0  0  0  0
   22.6252  -12.6942   24.6960 C   0  0  0  0  0  0  0  0  0  0  0  0
   16.9270  -11.4772   20.1858 C   0  0  0  0  0  0  0  0  0  0  0  0
   16.2810  -10.4542   20.0169 O   0  0  0  0  0  0  0  0  0  0  0  0
   16.4878  -12.6671   19.7628 N   0  0  0  0  0  0  0  0  0  0  0  0
   17.0698  -13.4468   19.9134 H   0  0  0  0  0  0  0  0  0  0  0  0
   15.2095  -12.8978   19.0938 C   0  0  0  0  0  0  0  0  0  0  0  0
   15.3012  -13.9138   17.9741 C   0  0  0  0  0  0  0  0  0  0  0  0
   15.0333  -15.2590   18.2050 C   0  0  0  0  0  0  0  0  0  0  0  0
   15.1260  -16.1658   17.1559 C   0  0  0  0  0  0  0  0  0  0  0  0
   15.4774  -15.7093   15.8946 C   0  0  0  0  0  0  0  0  0  0  0  0
   15.7314  -14.3562   15.7077 C   0  0  0  0  0  0  0  0  0  0  0  0
   15.6370  -13.4996   16.7325 N   0  0  0  0  0  0  0  0  0  0  0  0
 18 16  2  0  0  0
 18 17  1  0  0  0
 16 14  1  0  0  0
 14 13  2  0  0  0
 13 15  1  0  0  0
 13 12  1  0  0  0
 15 17  2  0  0  0
 12  9  1  0  0  0
  9  1  1  0  0  0
  9  8  1  0  0  0
  1  3  1  0  0  0
  1  2  2  0  0  0
  3  4  1  0  0  0
  3  7  1  0  0  0
  4  5  1  0  0  0
  4 19  1  0  0  0
  7  6  1  0  0  0
  5  6  1  0  0  0
 19 21  1  0  0  0
 19 20  2  0  0  0
 21 23  1  0  0  0
 23 24  1  0  0  0
 24 29  2  0  0  0
 24 25  1  0  0  0
 29 28  1  0  0  0
 25 26  2  0  0  0
 26 27  1  0  0  0
 27 28  2  0  0  0
  8 10  1  0  0  0
  8 11  1  0  0  0
 21 22  1  0  0  0
M  END
> <minimizedAffinity>
-7.33772

$$$$
3SI3_B03_H_5


 29 31  0  0  0  0  0  0  0  0999 V2000
   15.4128  -14.0505   21.5655 C   0  0  0  0  0  0  0  0  0  0  0  0
   15.6287  -15.2498   21.4030 O   0  0  0  0  0  0  0  0  0  0  0  0
   16.3247  -13.1309   21.2878 N   0  0  0  0  0  0  0  0  0  0  0  0
   17.6169  -13.5650   20.7795 C   0  0  0  0  0  0  0  0  0  0  0  0
   18.4276  -12.2844   20.5972 C   0  0  0  0  0  0  0  0  0  0  0  0
   17.4342  -11.1387   20.6767 C   0  0  0  0  0  0  0  0  0  0  0  0
   16.2173  -11.6721   21.4250 C   0  0  0  0  0  0  0  0  0  0  0  0
   13.3561  -14.7519   22.5656 N   0  0  0  0  0  0  0  0  0  0  0  0
   14.0800  -13.5879   22.0926 C   0  0  0  0  0  0  0  0  0  0  0  0
   12.4476  -14.4630   22.9284 H   0  0  0  0  0  0  0  0  0  0  0  0
   13.8895  -15.2059   23.3070 H   0  0  0  0  0  0  0  0  0  0  0  0
   13.2466  -12.9356   20.9833 C   0  0  0  0  0  0  0  0  0  0  0  0
   12.7754  -11.5588   21.3945 C   0  0  0  0  0  0  0  0  0  0  0  0
   12.8635  -10.4725   20.5265 C   0  0  0  0  0  0  0  0  0  0  0  0
   12.2375  -11.3804   22.6547 C   0  0  0  0  0  0  0  0  0  0  0  0
   12.4102   -9.2201   20.9325 C   0  0  0  0  0  0  0  0  0  0  0  0
   11.7791  -10.1342   23.0572 C   0  0  0  0  0  0  0  0  0  0  0  0
   11.8686   -9.0428   22.1944 C   0  0  0  0  0  0  0  0  0  0  0  0
   18.3122  -14.4687   21.7602 C   0  0  0  0  0  0  0  0  0  0  0  0
   18.9926  -15.3955   21.3477 O   0  0  0  0  0  0  0  0  0  0  0  0
   18.1790  -14.2178   23.0668 N   0  0  0  0  0  0  0  0  0  0  0  0
   17.6326  -13.4415   23.3277 H   0  0  0  0  0  0  0  0  0  0  0  0
   18.7831  -15.0088   24.1366 C   0  0  0  0  0  0  0  0  0  0  0  0
   19.9122  -14.2869   24.8425 C   0  0  0  0  0  0  0  0  0  0  0  0
   19.7751  -12.9613   25.2412 C   0  0  0  0  0  0  0  0  0  0  0  0
   20.8300  -12.3277   25.8871 C   0  0  0  0  0  0  0  0  0  0  0  0
   21.9988  -13.0336   26.1288 C   0  0  0  0  0  0  0  0  0  0  0  0
   22.0908  -14.3577   25.7178 C   0  0  0  0  0  0  0  0  0  0  0  0
   21.0625  -14.9487   25.0964 N   0  0  0  0  0  0  0  0  0  0  0  0
 18 16  2  0  0  0
 18 17  1  0  0  0
 16 14  1  0  0  0
 14 13  2  0  0  0
 13 15  1  0  0  0
 13 12  1  0  0  0
 15 17  2  0  0  0
 12  9  1  0  0  0
  9  1  1  0  0  0
  9  8  1  0  0  0
  1  3  1  0  0  0
  1  2  2  0  0  0
  3  4  1  0  0  0
  3  7  1  0  0  0
  4  5  1  0  0  0
  4 19  1  0  0  0
  7  6  1  0  0  0
  5  6  1  0  0  0
 19 21  1  0  0  0
 19 20  2  0  0  0
 21 23  1  0  0  0
 23 24  1  0  0  0
 24 29  2  0  0  0
 24 25  1  0  0  0
 29 28  1  0  0  0
 25 26  2  0  0  0
 26 27  1  0  0  0
 27 28  2  0  0  0
  8 10  1  0  0  0
  8 11  1  0  0  0
 21 22  1  0  0  0
M  END
> <minimizedAffinity>
-7.23135

$$$$
3SI3_B03_H_5


 29 31  0  0  0  0  0  0  0  0999 V2000
   15.2063  -11.6694   21.5468 C   0  0  0  0  0  0  0  0  0  0  0  0
   15.3045  -12.8803   21.7349 O   0  0  0  0  0  0  0  0  0  0  0  0
   14.0802  -11.0131   21.7825 N   0  0  0  0  0  0  0  0  0  0  0  0
   12.9318  -11.7584   22.2750 C   0  0  0  0  0  0  0  0  0  0  0  0
   11.8124  -10.7291   22.4084 C   0  0  0  0  0  0  0  0  0  0  0  0
   12.4766   -9.3663   22.3206 C   0  0  0  0  0  0  0  0  0  0  0  0
   13.8093   -9.5794   21.6110 C   0  0  0  0  0  0  0  0  0  0  0  0
   15.8845   -9.7984   20.2194 N   0  0  0  0  0  0  0  0  0  0  0  0
   16.3871  -10.8865   21.0356 C   0  0  0  0  0  0  0  0  0  0  0  0
   16.6680   -9.2524   19.8610 H   0  0  0  0  0  0  0  0  0  0  0  0
   15.2829   -9.1992   20.7846 H   0  0  0  0  0  0  0  0  0  0  0  0
   17.2850  -11.7603   20.1520 C   0  0  0  0  0  0  0  0  0  0  0  0
   16.7333  -11.8622   18.7478 C   0  0  0  0  0  0  0  0  0  0  0  0
   15.7241  -12.7683   18.4288 C   0  0  0  0  0  0  0  0  0  0  0  0
   17.2360  -11.0307   17.7655 C   0  0  0  0  0  0  0  0  0  0  0  0
   15.2303  -12.8290   17.1282 C   0  0  0  0  0  0  0  0  0  0  0  0
   16.7395  -11.0858   16.4709 C   0  0  0  0  0  0  0  0  0  0  0  0
   15.7326  -11.9934   16.1451 C   0  0  0  0  0  0  0  0  0  0  0  0
   12.5206  -12.8300   21.3032 C   0  0  0  0  0  0  0  0  0  0  0  0
   12.1090  -12.5146   20.1972 O   0  0  0  0  0  0  0  0  0  0  0  0
   12.6362  -14.1091   21.6749 N   0  0  0  0  0  0  0  0  0  0  0  0
   12.9952  -14.2913   22.5734 H   0  0  0  0  0  0  0  0  0  0  0  0
   12.2699  -15.2571   20.8485 C   0  0  0  0  0  0  0  0  0  0  0  0
   13.3783  -15.6911   19.9119 C   0  0  0  0  0  0  0  0  0  0  0  0
   14.6666  -15.9182   20.3848 C   0  0  0  0  0  0  0  0  0  0  0  0
   15.6611  -16.3160   19.4992 C   0  0  0  0  0  0  0  0  0  0  0  0
   15.3470  -16.4865   18.1594 C   0  0  0  0  0  0  0  0  0  0  0  0
   14.0459  -16.2535   17.7312 C   0  0  0  0  0  0  0  0  0  0  0  0
   13.1030  -15.8701   18.6012 N   0  0  0  0  0  0  0  0  0  0  0  0
 18 16  2  0  0  0
 18 17  1  0  0  0
 16 14  1  0  0  0
 14 13  2  0  0  0
 13 15  1  0  0  0
 13 12  1  0  0  0
 15 17  2  0  0  0
 12  9  1  0  0  0
  9  1  1  0  0  0
  9  8  1  0  0  0
  1  3  1  0  0  0
  1  2  2  0  0  0
  3  4  1  0  0  0
  3  7  1  0  0  0
  4  5  1  0  0  0
  4 19  1  0  0  0
  7  6  1  0  0  0
  5  6  1  0  0  0
 19 21  1  0  0  0
 19 20  2  0  0  0
 21 23  1  0  0  0
 23 24  1  0  0  0
 24 29  2  0  0  0
 24 25  1  0  0  0
 29 28  1  0  0  0
 25 26  2  0  0  0
 26 27  1  0  0  0
 27 28  2  0  0  0
  8 10  1  0  0  0
  8 11  1  0  0  0
 21 22  1  0  0  0
M  END
> <minimizedAffinity>
-7.01888

$$$$
