3SI3_B03_H_5
  RCSB PDB12061710443D
Coordinates from PDB:3SI3:H:5 Model:1 without hydrogens
 26 28  0  0  0  0            999 V2000
   16.6920  -15.3670   23.3600   N 0  0  0  0  0  0  0  0  0  0  0  0
   17.9710  -14.6840   23.3400   C 0  0  0  0  0  0  0  0  0  0  0  0
   17.7590  -13.3150   22.7490   C 0  0  0  0  0  0  0  0  0  0  0  0
   16.8250  -12.6150   23.1350   O 0  0  0  0  0  0  0  0  0  0  0  0
   18.4740  -14.5870   24.7850   C 0  0  0  0  0  0  0  0  0  0  0  0
   19.8740  -14.0180   24.8370   C 0  0  0  0  0  0  0  0  0  0  0  0
   20.9500  -14.6840   24.2540   C 0  0  0  0  0  0  0  0  0  0  0  0
   20.0850  -12.8070   25.4680   C 0  0  0  0  0  0  0  0  0  0  0  0
   22.2250  -14.1270   24.3100   C 0  0  0  0  0  0  0  0  0  0  0  0
   21.3540  -12.2480   25.5180   C 0  0  0  0  0  0  0  0  0  0  0  0
   22.4350  -12.9120   24.9400   C 0  0  0  0  0  0  0  0  0  0  0  0
   18.6040  -12.9030   21.8160   N 0  0  0  0  0  0  0  0  0  0  0  0
   18.4090  -11.5830   21.2360   C 0  0  0  0  0  0  0  0  0  0  0  0
   17.0650  -11.4740   20.5700   C 0  0  0  0  0  0  0  0  0  0  0  0
   16.7190  -12.3280   19.7680   O 0  0  0  0  0  0  0  0  0  0  0  0
   19.5130  -11.4360   20.1920   C 0  0  0  0  0  0  0  0  0  0  0  0
   20.5110  -12.5460   20.4710   C 0  0  0  0  0  0  0  0  0  0  0  0
   19.7600  -13.6160   21.2560   C 0  0  0  0  0  0  0  0  0  0  0  0
   16.2730  -10.4460   20.8920   N 0  0  0  0  0  0  0  0  0  0  0  0
   14.9490  -10.2000   20.3250   C 0  0  0  0  0  0  0  0  0  0  0  0
   13.8650  -10.0880   21.3770   C 0  0  0  0  0  0  0  0  0  0  0  0
   13.8200   -9.0020   22.2450   C 0  0  0  0  0  0  0  0  0  0  0  0
   12.8120   -8.9290   23.1990   C 0  0  0  0  0  0  0  0  0  0  0  0
   11.8640   -9.9390   23.2620   C 0  0  0  0  0  0  0  0  0  0  0  0
   11.9440  -11.0030   22.3720   C 0  0  0  0  0  0  0  0  0  0  0  0
   12.9240  -11.0540   21.4610   N 0  0  0  0  0  0  0  0  0  0  0  0
 11  9  2  0  0  0  0
 11 10  1  0  0  0  0
  9  7  1  0  0  0  0
  7  6  2  0  0  0  0
  6  8  1  0  0  0  0
  6  5  1  0  0  0  0
  8 10  2  0  0  0  0
  5  2  1  0  0  0  0
  2  3  1  0  0  0  0
  2  1  1  0  0  0  0
  3 12  1  0  0  0  0
  3  4  2  0  0  0  0
 12 13  1  0  0  0  0
 12 18  1  0  0  0  0
 13 16  1  0  0  0  0
 13 14  1  0  0  0  0
 18 17  1  0  0  0  0
 16 17  1  0  0  0  0
 14 19  1  0  0  0  0
 14 15  2  0  0  0  0
 19 20  1  0  0  0  0
 20 21  1  0  0  0  0
 21 26  2  0  0  0  0
 21 22  1  0  0  0  0
 26 25  1  0  0  0  0
 22 23  2  0  0  0  0
 23 24  1  0  0  0  0
 24 25  2  0  0  0  0
A    1
N10
A    2
C8
A    3
C9
A    4
O12
A    5
C7
A    6
C4
A    7
C3
A    8
C5
A    9
C2
A   10
C6
A   11
C1
A   12
N11
A   13
C13
A   14
C17
A   15
O28
A   16
C15
A   17
C16
A   18
C14
A   19
N18
A   20
C19
A   21
C20
A   22
C22
A   23
C23
A   24
C24
A   25
C25
A   26
N21
M  END
>  <InstanceId>
3SI3_B03_H_5

>  <ChemCompId>
B03

>  <PdbId>
3SI3

>  <ChainId>
H

>  <ResidueNumber>
5

>  <InsertionCode>


>  <Model>
1

>  <AltIds>


>  <MissingHeavyAtoms>
0

>  <ObservedFormula>
C20 N4 O2

>  <Name>
D-phenylalanyl-N-(pyridin-2-ylmethyl)-L-prolinamide

>  <SystematicName>
(2S)-1-[(2R)-2-azanyl-3-phenyl-propanoyl]-N-(pyridin-2-ylmethyl)pyrrolidine-2-carboxamide

>  <Synonyms>


>  <Type>
peptide-like

>  <Formula>
C20 H24 N4 O2

>  <MolecularWeight>
352.43

>  <ModifiedDate>
2012-06-15

>  <Parent>


>  <OneLetterCode>


>  <SubcomponentList>
DPN PRO APY

>  <AmbiguousFlag>
N

>  <InChI>
InChI=1S/C20H24N4O2/c21-17(13-15-7-2-1-3-8-15)20(26)24-12-6-10-18(24)19(25)23-14-16-9-4-5-11-22-16/h1-5,7-9,11,17-18H,6,10,12-14,21H2,(H,23,25)/t17-,18+/m1/s1

>  <InChIKey>
BUZZZPBDSHVEFR-MSOLQXFVSA-N

>  <SMILES>
c1ccc(cc1)C[C@H](C(=O)N2CCC[C@H]2C(=O)NCc3ccccn3)N

$$$$
