1D9I_00P_A_380


 36 39  0  0  0  0  0  0  0  0999 V2000
   16.2896  -14.3814   20.7295 N   0  0  0  0  0  0  0  0  0  0  0  0
   17.1099  -13.2704   20.5080 C   0  0  0  0  0  0  0  0  0  0  0  0
   16.8280  -12.2124   19.9511 O   0  0  0  0  0  0  0  0  0  0  0  0
   18.3602  -13.5784   21.0571 N   0  0  0  0  0  0  0  0  0  0  0  0
   18.2821  -14.8526   21.6091 N   0  0  0  0  0  0  0  0  0  0  0  0
   17.0075  -15.3487   21.4118 C   0  0  0  0  0  0  0  0  0  0  0  0
   16.6331  -16.4318   21.8233 O   0  0  0  0  0  0  0  0  0  0  0  0
   19.6401  -13.0248   20.6390 C   0  0  0  0  0  0  0  0  0  0  0  0
   20.6982  -13.4180   21.6436 C   0  0  0  0  0  0  0  0  0  0  0  0
   20.5167  -14.4974   22.4255 C   0  0  0  0  0  0  0  0  0  0  0  0
   19.3623  -15.4578   22.3695 C   0  0  0  0  0  0  0  0  0  0  0  0
   19.2466  -16.8266   24.5012 N   0  0  0  0  0  0  0  0  0  0  0  0
   18.8678  -15.6338   23.8455 C   0  0  0  0  0  0  0  0  0  0  0  0
   18.0643  -14.8623   24.3473 O   0  0  0  0  0  0  0  0  0  0  0  0
   19.1687  -17.6719   24.0025 H   0  0  0  0  0  0  0  0  0  0  0  0
   19.7473  -16.8845   25.8741 C   0  0  0  0  0  0  0  0  0  0  0  0
   21.1410  -16.2127   26.1540 C   0  0  0  0  0  0  0  0  0  0  0  0
   24.2674  -13.5772   24.4053 N   0  0  0  0  0  0  0  0  0  0  0  0
   21.0294  -14.6554   26.1710 C   0  0  0  0  0  0  0  0  0  0  0  0
   22.4023  -13.9036   26.0585 C   0  0  0  0  0  0  0  0  0  0  0  0
   23.1450  -14.4372   24.8050 C   0  0  0  0  0  0  0  0  0  0  0  0
   23.5437  -15.8864   25.1162 C   0  0  0  0  0  0  0  0  0  0  0  0
   22.2523  -16.7567   25.1976 C   0  0  0  0  0  0  0  0  0  0  0  0
   23.9237  -12.6356   24.2165 H   0  0  0  0  0  0  0  0  0  0  0  0
   24.7026  -13.9554   23.5639 H   0  0  0  0  0  0  0  0  0  0  0  0
   14.8721  -14.4341   20.4097 C   0  0  0  0  0  0  0  0  0  0  0  0
   13.9208  -14.4079   21.5944 C   0  0  0  0  0  0  0  0  0  0  0  0
   12.7672  -13.2175   20.9937 S   0  0  0  0  0  0  0  0  0  0  0  0
   13.3087  -12.3395   19.9966 O   0  0  0  0  0  0  0  0  0  0  0  0
   11.5330  -13.9652   20.6559 O   0  0  0  0  0  0  0  0  0  0  0  0
   12.2215  -12.1740   22.3386 C   0  0  0  0  0  0  0  0  0  0  0  0
   11.0943  -12.5085   23.0790 C   0  0  0  0  0  0  0  0  0  0  0  0
   10.7232  -11.6918   24.1453 C   0  0  0  0  0  0  0  0  0  0  0  0
   11.4689  -10.5612   24.4656 C   0  0  0  0  0  0  0  0  0  0  0  0
   12.6031  -10.2282   23.7292 C   0  0  0  0  0  0  0  0  0  0  0  0
   12.9809  -11.0443   22.6695 C   0  0  0  0  0  0  0  0  0  0  0  0
 16 17  1  0  0  0
 16 12  1  0  0  0
 13 12  1  0  0  0
 23 17  1  0  0  0
 17 19  1  0  0  0
 21 18  1  0  0  0
 19 20  1  0  0  0
 21 20  1  0  0  0
 22 21  1  0  0  0
 23 22  1  0  0  0
  2  1  1  0  0  0
  6  1  1  0  0  0
  1 26  1  0  0  0
  4  2  1  0  0  0
  3  2  2  0  0  0
  8  4  1  0  0  0
  4  5  1  0  0  0
 11  5  1  0  0  0
  5  6  1  0  0  0
  6  7  2  0  0  0
  9  8  1  0  0  0
  9 10  2  0  0  0
 10 11  1  0  0  0
 13 11  1  0  0  0
 14 13  2  0  0  0
 26 27  1  0  0  0
 27 28  1  0  0  0
 30 28  2  0  0  0
 31 28  1  0  0  0
 28 29  2  0  0  0
 36 31  2  0  0  0
 31 32  1  0  0  0
 33 32  2  0  0  0
 34 33  1  0  0  0
 35 34  2  0  0  0
 35 36  1  0  0  0
 12 15  1  0  0  0
 18 24  1  0  0  0
 18 25  1  0  0  0
M  END
> <minimizedAffinity>
-9.43829

$$$$
1D9I_00P_A_380


 36 39  0  0  0  0  0  0  0  0999 V2000
   17.2545  -14.0722   21.3849 N   0  0  0  0  0  0  0  0  0  0  0  0
   16.6165  -15.3145   21.4621 C   0  0  0  0  0  0  0  0  0  0  0  0
   16.7741  -16.2031   22.2955 O   0  0  0  0  0  0  0  0  0  0  0  0
   15.7242  -15.3754   20.3851 N   0  0  0  0  0  0  0  0  0  0  0  0
   15.8214  -14.1793   19.6819 N   0  0  0  0  0  0  0  0  0  0  0  0
   16.7605  -13.3734   20.2968 C   0  0  0  0  0  0  0  0  0  0  0  0
   17.0310  -12.2462   19.9242 O   0  0  0  0  0  0  0  0  0  0  0  0
   15.2498  -16.5870   19.7323 C   0  0  0  0  0  0  0  0  0  0  0  0
   14.1171  -16.2312   18.7974 C   0  0  0  0  0  0  0  0  0  0  0  0
   14.0024  -14.9770   18.3250 C   0  0  0  0  0  0  0  0  0  0  0  0
   14.9561  -13.8407   18.5648 C   0  0  0  0  0  0  0  0  0  0  0  0
   13.6650  -12.5768   20.3444 N   0  0  0  0  0  0  0  0  0  0  0  0
   14.0784  -12.6162   18.9939 C   0  0  0  0  0  0  0  0  0  0  0  0
   13.6381  -11.8256   18.1730 O   0  0  0  0  0  0  0  0  0  0  0  0
   13.3266  -13.4087   20.7477 H   0  0  0  0  0  0  0  0  0  0  0  0
   13.7084  -11.3778   21.1809 C   0  0  0  0  0  0  0  0  0  0  0  0
   12.4481  -11.0855   22.0741 C   0  0  0  0  0  0  0  0  0  0  0  0
   10.6645  -11.7631   26.0913 N   0  0  0  0  0  0  0  0  0  0  0  0
   12.8190  -10.2114   23.3136 C   0  0  0  0  0  0  0  0  0  0  0  0
   11.7312  -10.1919   24.4447 C   0  0  0  0  0  0  0  0  0  0  0  0
   11.4011  -11.6597   24.8241 C   0  0  0  0  0  0  0  0  0  0  0  0
   10.6690  -12.2690   23.6203 C   0  0  0  0  0  0  0  0  0  0  0  0
   11.6721  -12.3950   22.4330 C   0  0  0  0  0  0  0  0  0  0  0  0
   11.2130  -11.3383   26.8390 H   0  0  0  0  0  0  0  0  0  0  0  0
   10.4975  -12.7457   26.3083 H   0  0  0  0  0  0  0  0  0  0  0  0
   18.1830  -13.5612   22.3805 C   0  0  0  0  0  0  0  0  0  0  0  0
   19.5279  -13.0870   21.8554 C   0  0  0  0  0  0  0  0  0  0  0  0
   20.5520  -14.3425   22.5508 S   0  0  0  0  0  0  0  0  0  0  0  0
   20.3079  -15.6506   22.0147 O   0  0  0  0  0  0  0  0  0  0  0  0
   21.9400  -13.8253   22.4995 O   0  0  0  0  0  0  0  0  0  0  0  0
   20.2555  -14.4574   24.3098 C   0  0  0  0  0  0  0  0  0  0  0  0
   19.3728  -15.4033   24.8166 C   0  0  0  0  0  0  0  0  0  0  0  0
   19.1983  -15.4892   26.1963 C   0  0  0  0  0  0  0  0  0  0  0  0
   19.8967  -14.6441   27.0536 C   0  0  0  0  0  0  0  0  0  0  0  0
   20.7872  -13.7001   26.5480 C   0  0  0  0  0  0  0  0  0  0  0  0
   20.9699  -13.6162   25.1727 C   0  0  0  0  0  0  0  0  0  0  0  0
 16 17  1  0  0  0
 16 12  1  0  0  0
 13 12  1  0  0  0
 23 17  1  0  0  0
 17 19  1  0  0  0
 21 18  1  0  0  0
 19 20  1  0  0  0
 21 20  1  0  0  0
 22 21  1  0  0  0
 23 22  1  0  0  0
  2  1  1  0  0  0
  6  1  1  0  0  0
  1 26  1  0  0  0
  4  2  1  0  0  0
  3  2  2  0  0  0
  8  4  1  0  0  0
  4  5  1  0  0  0
 11  5  1  0  0  0
  5  6  1  0  0  0
  6  7  2  0  0  0
  9  8  1  0  0  0
  9 10  2  0  0  0
 10 11  1  0  0  0
 13 11  1  0  0  0
 14 13  2  0  0  0
 26 27  1  0  0  0
 27 28  1  0  0  0
 30 28  2  0  0  0
 31 28  1  0  0  0
 28 29  2  0  0  0
 36 31  2  0  0  0
 31 32  1  0  0  0
 33 32  2  0  0  0
 34 33  1  0  0  0
 35 34  2  0  0  0
 35 36  1  0  0  0
 12 15  1  0  0  0
 18 24  1  0  0  0
 18 25  1  0  0  0
M  END
> <minimizedAffinity>
-9.37104

$$$$
1D9I_00P_A_380


 36 39  0  0  0  0  0  0  0  0999 V2000
   16.4352  -14.3364   21.2819 N   0  0  0  0  0  0  0  0  0  0  0  0
   15.8565  -15.5758   20.9897 C   0  0  0  0  0  0  0  0  0  0  0  0
   15.5518  -16.4779   21.7658 O   0  0  0  0  0  0  0  0  0  0  0  0
   15.6694  -15.6148   19.6029 N   0  0  0  0  0  0  0  0  0  0  0  0
   16.1205  -14.4087   19.0770 N   0  0  0  0  0  0  0  0  0  0  0  0
   16.5898  -13.6181   20.1086 C   0  0  0  0  0  0  0  0  0  0  0  0
   17.0133  -12.4870   19.9538 O   0  0  0  0  0  0  0  0  0  0  0  0
   15.6156  -16.8133   18.7784 C   0  0  0  0  0  0  0  0  0  0  0  0
   15.1480  -16.4363   17.3917 C   0  0  0  0  0  0  0  0  0  0  0  0
   15.2971  -15.1744   16.9506 C   0  0  0  0  0  0  0  0  0  0  0  0
   15.9763  -14.0478   17.6770 C   0  0  0  0  0  0  0  0  0  0  0  0
   13.8900  -12.8433   18.4690 N   0  0  0  0  0  0  0  0  0  0  0  0
   15.0010  -12.8246   17.5965 C   0  0  0  0  0  0  0  0  0  0  0  0
   15.1024  -11.9823   16.7172 O   0  0  0  0  0  0  0  0  0  0  0  0
   13.3885  -13.6857   18.5594 H   0  0  0  0  0  0  0  0  0  0  0  0
   13.4381  -11.6899   19.2465 C   0  0  0  0  0  0  0  0  0  0  0  0
   13.2640  -11.8976   20.7952 C   0  0  0  0  0  0  0  0  0  0  0  0
   10.2787  -12.6961   23.9933 N   0  0  0  0  0  0  0  0  0  0  0  0
   12.7518  -13.3357   21.1229 C   0  0  0  0  0  0  0  0  0  0  0  0
   12.1895  -13.5102   22.5775 C   0  0  0  0  0  0  0  0  0  0  0  0
   11.1091  -12.4215   22.8126 C   0  0  0  0  0  0  0  0  0  0  0  0
   11.8467  -11.0763   22.8623 C   0  0  0  0  0  0  0  0  0  0  0  0
   12.4100  -10.7591   21.4432 C   0  0  0  0  0  0  0  0  0  0  0  0
    9.8239  -13.6027   23.8857 H   0  0  0  0  0  0  0  0  0  0  0  0
    9.5695  -11.9689   24.0867 H   0  0  0  0  0  0  0  0  0  0  0  0
   16.6949  -13.8463   22.6260 C   0  0  0  0  0  0  0  0  0  0  0  0
   17.5890  -14.7185   23.4916 C   0  0  0  0  0  0  0  0  0  0  0  0
   19.1576  -14.1987   22.8768 S   0  0  0  0  0  0  0  0  0  0  0  0
   19.6997  -15.0646   21.8696 O   0  0  0  0  0  0  0  0  0  0  0  0
   19.0213  -12.7602   22.5474 O   0  0  0  0  0  0  0  0  0  0  0  0
   20.3489  -14.1709   24.2092 C   0  0  0  0  0  0  0  0  0  0  0  0
   19.9269  -14.1373   25.5327 C   0  0  0  0  0  0  0  0  0  0  0  0
   20.8846  -14.1571   26.5446 C   0  0  0  0  0  0  0  0  0  0  0  0
   22.2408  -14.2114   26.2367 C   0  0  0  0  0  0  0  0  0  0  0  0
   22.6654  -14.2523   24.9109 C   0  0  0  0  0  0  0  0  0  0  0  0
   21.7131  -14.2403   23.8986 C   0  0  0  0  0  0  0  0  0  0  0  0
 16 17  1  0  0  0
 16 12  1  0  0  0
 13 12  1  0  0  0
 23 17  1  0  0  0
 17 19  1  0  0  0
 21 18  1  0  0  0
 19 20  1  0  0  0
 21 20  1  0  0  0
 22 21  1  0  0  0
 23 22  1  0  0  0
  2  1  1  0  0  0
  6  1  1  0  0  0
  1 26  1  0  0  0
  4  2  1  0  0  0
  3  2  2  0  0  0
  8  4  1  0  0  0
  4  5  1  0  0  0
 11  5  1  0  0  0
  5  6  1  0  0  0
  6  7  2  0  0  0
  9  8  1  0  0  0
  9 10  2  0  0  0
 10 11  1  0  0  0
 13 11  1  0  0  0
 14 13  2  0  0  0
 26 27  1  0  0  0
 27 28  1  0  0  0
 30 28  2  0  0  0
 31 28  1  0  0  0
 28 29  2  0  0  0
 36 31  2  0  0  0
 31 32  1  0  0  0
 33 32  2  0  0  0
 34 33  1  0  0  0
 35 34  2  0  0  0
 35 36  1  0  0  0
 12 15  1  0  0  0
 18 24  1  0  0  0
 18 25  1  0  0  0
M  END
> <minimizedAffinity>
-9.36068

$$$$
1D9I_00P_A_380


 36 39  0  0  0  0  0  0  0  0999 V2000
   18.3657  -16.0327   23.2755 N   0  0  0  0  0  0  0  0  0  0  0  0
   19.5348  -16.0520   22.5079 C   0  0  0  0  0  0  0  0  0  0  0  0
   20.3319  -16.9740   22.3544 O   0  0  0  0  0  0  0  0  0  0  0  0
   19.6456  -14.7897   21.9130 N   0  0  0  0  0  0  0  0  0  0  0  0
   18.5498  -14.0317   22.3123 N   0  0  0  0  0  0  0  0  0  0  0  0
   17.7581  -14.7952   23.1488 C   0  0  0  0  0  0  0  0  0  0  0  0
   16.7068  -14.4064   23.6244 O   0  0  0  0  0  0  0  0  0  0  0  0
   20.8812  -14.1471   21.4891 C   0  0  0  0  0  0  0  0  0  0  0  0
   20.5435  -12.9214   20.6724 C   0  0  0  0  0  0  0  0  0  0  0  0
   19.3466  -12.3249   20.8163 C   0  0  0  0  0  0  0  0  0  0  0  0
   18.2719  -12.7020   21.7966 C   0  0  0  0  0  0  0  0  0  0  0  0
   15.8021  -12.1758   21.5638 N   0  0  0  0  0  0  0  0  0  0  0  0
   16.9388  -12.7759   20.9773 C   0  0  0  0  0  0  0  0  0  0  0  0
   16.8462  -13.4550   19.9659 O   0  0  0  0  0  0  0  0  0  0  0  0
   15.6351  -12.3405   22.5200 H   0  0  0  0  0  0  0  0  0  0  0  0
   14.8580  -11.3252   20.8398 C   0  0  0  0  0  0  0  0  0  0  0  0
   13.3649  -11.3372   21.3320 C   0  0  0  0  0  0  0  0  0  0  0  0
   10.6490  -12.8516   24.5113 N   0  0  0  0  0  0  0  0  0  0  0  0
   13.2152  -10.6268   22.7143 C   0  0  0  0  0  0  0  0  0  0  0  0
   11.8628  -10.9212   23.4539 C   0  0  0  0  0  0  0  0  0  0  0  0
   11.6883  -12.4600   23.5493 C   0  0  0  0  0  0  0  0  0  0  0  0
   11.4427  -12.9622   22.1197 C   0  0  0  0  0  0  0  0  0  0  0  0
   12.7491  -12.7740   21.2893 C   0  0  0  0  0  0  0  0  0  0  0  0
   10.8824  -12.4824   25.4330 H   0  0  0  0  0  0  0  0  0  0  0  0
   10.5937  -13.8691   24.5566 H   0  0  0  0  0  0  0  0  0  0  0  0
   17.8214  -17.1858   23.9744 C   0  0  0  0  0  0  0  0  0  0  0  0
   17.4915  -16.9795   25.4434 C   0  0  0  0  0  0  0  0  0  0  0  0
   19.0080  -17.5403   26.1465 S   0  0  0  0  0  0  0  0  0  0  0  0
   18.8912  -17.9603   27.5133 O   0  0  0  0  0  0  0  0  0  0  0  0
   19.5876  -18.5009   25.1781 O   0  0  0  0  0  0  0  0  0  0  0  0
   20.2076  -16.2150   26.1292 C   0  0  0  0  0  0  0  0  0  0  0  0
   21.5199  -16.4559   25.7414 C   0  0  0  0  0  0  0  0  0  0  0  0
   22.4161  -15.3897   25.7021 C   0  0  0  0  0  0  0  0  0  0  0  0
   22.0049  -14.1046   26.0434 C   0  0  0  0  0  0  0  0  0  0  0  0
   20.6882  -13.8599   26.4256 C   0  0  0  0  0  0  0  0  0  0  0  0
   19.7892  -14.9194   26.4589 C   0  0  0  0  0  0  0  0  0  0  0  0
 16 17  1  0  0  0
 16 12  1  0  0  0
 13 12  1  0  0  0
 23 17  1  0  0  0
 17 19  1  0  0  0
 21 18  1  0  0  0
 19 20  1  0  0  0
 21 20  1  0  0  0
 22 21  1  0  0  0
 23 22  1  0  0  0
  2  1  1  0  0  0
  6  1  1  0  0  0
  1 26  1  0  0  0
  4  2  1  0  0  0
  3  2  2  0  0  0
  8  4  1  0  0  0
  4  5  1  0  0  0
 11  5  1  0  0  0
  5  6  1  0  0  0
  6  7  2  0  0  0
  9  8  1  0  0  0
  9 10  2  0  0  0
 10 11  1  0  0  0
 13 11  1  0  0  0
 14 13  2  0  0  0
 26 27  1  0  0  0
 27 28  1  0  0  0
 30 28  2  0  0  0
 31 28  1  0  0  0
 28 29  2  0  0  0
 36 31  2  0  0  0
 31 32  1  0  0  0
 33 32  2  0  0  0
 34 33  1  0  0  0
 35 34  2  0  0  0
 35 36  1  0  0  0
 12 15  1  0  0  0
 18 24  1  0  0  0
 18 25  1  0  0  0
M  END
> <minimizedAffinity>
-9.27905

$$$$
1D9I_00P_A_380


 36 39  0  0  0  0  0  0  0  0999 V2000
   14.8188  -14.1499   20.0024 N   0  0  0  0  0  0  0  0  0  0  0  0
   14.7599  -15.2836   19.1852 C   0  0  0  0  0  0  0  0  0  0  0  0
   14.5259  -15.3451   17.9809 O   0  0  0  0  0  0  0  0  0  0  0  0
   15.0301  -16.3849   20.0062 N   0  0  0  0  0  0  0  0  0  0  0  0
   15.2584  -15.9117   21.2940 N   0  0  0  0  0  0  0  0  0  0  0  0
   15.1321  -14.5356   21.2944 C   0  0  0  0  0  0  0  0  0  0  0  0
   15.3155  -13.8409   22.2774 O   0  0  0  0  0  0  0  0  0  0  0  0
   14.5797  -17.7512   19.7834 C   0  0  0  0  0  0  0  0  0  0  0  0
   15.2935  -18.6684   20.7493 C   0  0  0  0  0  0  0  0  0  0  0  0
   15.8049  -18.1766   21.8921 C   0  0  0  0  0  0  0  0  0  0  0  0
   15.6830  -16.7645   22.3912 C   0  0  0  0  0  0  0  0  0  0  0  0
   17.2254  -15.4622   23.9261 N   0  0  0  0  0  0  0  0  0  0  0  0
   17.1264  -16.3223   22.8096 C   0  0  0  0  0  0  0  0  0  0  0  0
   18.0990  -16.5721   22.1136 O   0  0  0  0  0  0  0  0  0  0  0  0
   16.5972  -14.7063   23.9833 H   0  0  0  0  0  0  0  0  0  0  0  0
   18.2026  -15.6241   25.0021 C   0  0  0  0  0  0  0  0  0  0  0  0
   19.4039  -14.6103   25.0333 C   0  0  0  0  0  0  0  0  0  0  0  0
   23.8170  -14.2918   25.4817 N   0  0  0  0  0  0  0  0  0  0  0  0
   20.3865  -14.8550   23.8448 C   0  0  0  0  0  0  0  0  0  0  0  0
   21.7865  -14.1644   24.0056 C   0  0  0  0  0  0  0  0  0  0  0  0
   22.3825  -14.5912   25.3731 C   0  0  0  0  0  0  0  0  0  0  0  0
   21.5184  -13.9268   26.4538 C   0  0  0  0  0  0  0  0  0  0  0  0
   20.1005  -14.5755   26.4329 C   0  0  0  0  0  0  0  0  0  0  0  0
   24.3210  -14.7667   24.7328 H   0  0  0  0  0  0  0  0  0  0  0  0
   24.1645  -14.6159   26.3842 H   0  0  0  0  0  0  0  0  0  0  0  0
   14.7042  -12.7825   19.5213 C   0  0  0  0  0  0  0  0  0  0  0  0
   13.3026  -12.1953   19.5116 C   0  0  0  0  0  0  0  0  0  0  0  0
   13.5451  -10.8873   20.6687 S   0  0  0  0  0  0  0  0  0  0  0  0
   14.9052  -10.7430   21.1017 O   0  0  0  0  0  0  0  0  0  0  0  0
   12.8740   -9.6953   20.0985 O   0  0  0  0  0  0  0  0  0  0  0  0
   12.5797  -11.1973   22.1409 C   0  0  0  0  0  0  0  0  0  0  0  0
   12.6895  -10.3621   23.2459 C   0  0  0  0  0  0  0  0  0  0  0  0
   11.8912  -10.6124   24.3601 C   0  0  0  0  0  0  0  0  0  0  0  0
   10.9974  -11.6792   24.3670 C   0  0  0  0  0  0  0  0  0  0  0  0
   10.8808  -12.5132   23.2578 C   0  0  0  0  0  0  0  0  0  0  0  0
   11.6699  -12.2625   22.1414 C   0  0  0  0  0  0  0  0  0  0  0  0
 16 17  1  0  0  0
 16 12  1  0  0  0
 13 12  1  0  0  0
 23 17  1  0  0  0
 17 19  1  0  0  0
 21 18  1  0  0  0
 19 20  1  0  0  0
 21 20  1  0  0  0
 22 21  1  0  0  0
 23 22  1  0  0  0
  2  1  1  0  0  0
  6  1  1  0  0  0
  1 26  1  0  0  0
  4  2  1  0  0  0
  3  2  2  0  0  0
  8  4  1  0  0  0
  4  5  1  0  0  0
 11  5  1  0  0  0
  5  6  1  0  0  0
  6  7  2  0  0  0
  9  8  1  0  0  0
  9 10  2  0  0  0
 10 11  1  0  0  0
 13 11  1  0  0  0
 14 13  2  0  0  0
 26 27  1  0  0  0
 27 28  1  0  0  0
 30 28  2  0  0  0
 31 28  1  0  0  0
 28 29  2  0  0  0
 36 31  2  0  0  0
 31 32  1  0  0  0
 33 32  2  0  0  0
 34 33  1  0  0  0
 35 34  2  0  0  0
 35 36  1  0  0  0
 12 15  1  0  0  0
 18 24  1  0  0  0
 18 25  1  0  0  0
M  END
> <minimizedAffinity>
-9.17241

$$$$
1D9I_00P_A_380


 36 39  0  0  0  0  0  0  0  0999 V2000
   16.1514  -13.5582   21.1474 N   0  0  0  0  0  0  0  0  0  0  0  0
   15.6172  -12.2881   20.9072 C   0  0  0  0  0  0  0  0  0  0  0  0
   16.1770  -11.3011   20.4365 O   0  0  0  0  0  0  0  0  0  0  0  0
   14.2760  -12.3345   21.3057 N   0  0  0  0  0  0  0  0  0  0  0  0
   14.0118  -13.6199   21.7669 N   0  0  0  0  0  0  0  0  0  0  0  0
   15.1637  -14.3767   21.6679 C   0  0  0  0  0  0  0  0  0  0  0  0
   15.2242  -15.5564   21.9634 O   0  0  0  0  0  0  0  0  0  0  0  0
   13.4742  -11.2039   21.7507 C   0  0  0  0  0  0  0  0  0  0  0  0
   12.0275  -11.6313   21.8403 C   0  0  0  0  0  0  0  0  0  0  0  0
   11.7173  -12.9319   21.9866 C   0  0  0  0  0  0  0  0  0  0  0  0
   12.6858  -14.0683   22.1565 C   0  0  0  0  0  0  0  0  0  0  0  0
   12.4387  -16.5176   21.5476 N   0  0  0  0  0  0  0  0  0  0  0  0
   12.2398  -15.1780   21.1449 C   0  0  0  0  0  0  0  0  0  0  0  0
   11.8921  -14.9034   20.0063 O   0  0  0  0  0  0  0  0  0  0  0  0
   13.2988  -16.7505   21.9663 H   0  0  0  0  0  0  0  0  0  0  0  0
   11.4473  -17.5799   21.3816 C   0  0  0  0  0  0  0  0  0  0  0  0
   11.5979  -18.5052   20.1194 C   0  0  0  0  0  0  0  0  0  0  0  0
    9.5565  -21.6262   17.6967 N   0  0  0  0  0  0  0  0  0  0  0  0
   10.5362  -18.1576   19.0286 C   0  0  0  0  0  0  0  0  0  0  0  0
   10.3591  -19.2547   17.9205 C   0  0  0  0  0  0  0  0  0  0  0  0
   10.0759  -20.6096   18.6218 C   0  0  0  0  0  0  0  0  0  0  0  0
   11.3738  -21.0132   19.3348 C   0  0  0  0  0  0  0  0  0  0  0  0
   11.6328  -20.0195   20.5083 C   0  0  0  0  0  0  0  0  0  0  0  0
    8.6976  -21.2857   17.2647 H   0  0  0  0  0  0  0  0  0  0  0  0
    9.3613  -22.4854   18.2105 H   0  0  0  0  0  0  0  0  0  0  0  0
   17.4944  -13.9701   20.7719 C   0  0  0  0  0  0  0  0  0  0  0  0
   18.6264  -13.3846   21.5996 C   0  0  0  0  0  0  0  0  0  0  0  0
   19.3054  -14.8828   22.2345 S   0  0  0  0  0  0  0  0  0  0  0  0
   18.4094  -16.0007   22.1606 O   0  0  0  0  0  0  0  0  0  0  0  0
   20.6435  -15.0307   21.6145 O   0  0  0  0  0  0  0  0  0  0  0  0
   19.7099  -14.6769   23.9635 C   0  0  0  0  0  0  0  0  0  0  0  0
   20.7176  -13.8032   24.3534 C   0  0  0  0  0  0  0  0  0  0  0  0
   20.9769  -13.6393   25.7127 C   0  0  0  0  0  0  0  0  0  0  0  0
   20.2389  -14.3366   26.6646 C   0  0  0  0  0  0  0  0  0  0  0  0
   19.2238  -15.2074   26.2760 C   0  0  0  0  0  0  0  0  0  0  0  0
   18.9570  -15.3681   24.9214 C   0  0  0  0  0  0  0  0  0  0  0  0
 16 17  1  0  0  0
 16 12  1  0  0  0
 13 12  1  0  0  0
 23 17  1  0  0  0
 17 19  1  0  0  0
 21 18  1  0  0  0
 19 20  1  0  0  0
 21 20  1  0  0  0
 22 21  1  0  0  0
 23 22  1  0  0  0
  2  1  1  0  0  0
  6  1  1  0  0  0
  1 26  1  0  0  0
  4  2  1  0  0  0
  3  2  2  0  0  0
  8  4  1  0  0  0
  4  5  1  0  0  0
 11  5  1  0  0  0
  5  6  1  0  0  0
  6  7  2  0  0  0
  9  8  1  0  0  0
  9 10  2  0  0  0
 10 11  1  0  0  0
 13 11  1  0  0  0
 14 13  2  0  0  0
 26 27  1  0  0  0
 27 28  1  0  0  0
 30 28  2  0  0  0
 31 28  1  0  0  0
 28 29  2  0  0  0
 36 31  2  0  0  0
 31 32  1  0  0  0
 33 32  2  0  0  0
 34 33  1  0  0  0
 35 34  2  0  0  0
 35 36  1  0  0  0
 12 15  1  0  0  0
 18 24  1  0  0  0
 18 25  1  0  0  0
M  END
> <minimizedAffinity>
-8.99360

$$$$
1D9I_00P_A_380


 36 39  0  0  0  0  0  0  0  0999 V2000
   16.5213  -13.2322   21.3284 N   0  0  0  0  0  0  0  0  0  0  0  0
   15.6829  -12.2026   20.8885 C   0  0  0  0  0  0  0  0  0  0  0  0
   15.9821  -11.1911   20.2589 O   0  0  0  0  0  0  0  0  0  0  0  0
   14.3872  -12.5362   21.3000 N   0  0  0  0  0  0  0  0  0  0  0  0
   14.4513  -13.7552   21.9667 N   0  0  0  0  0  0  0  0  0  0  0  0
   15.7636  -14.1880   21.9831 C   0  0  0  0  0  0  0  0  0  0  0  0
   16.1193  -15.2475   22.4666 O   0  0  0  0  0  0  0  0  0  0  0  0
   13.3030  -11.6005   21.5612 C   0  0  0  0  0  0  0  0  0  0  0  0
   12.0157  -12.3735   21.7309 C   0  0  0  0  0  0  0  0  0  0  0  0
   12.0506  -13.6694   22.0897 C   0  0  0  0  0  0  0  0  0  0  0  0
   13.2754  -14.4688   22.4348 C   0  0  0  0  0  0  0  0  0  0  0  0
   12.8970  -15.6820   20.2403 N   0  0  0  0  0  0  0  0  0  0  0  0
   13.1704  -15.8033   21.6212 C   0  0  0  0  0  0  0  0  0  0  0  0
   13.1614  -16.8918   22.1759 O   0  0  0  0  0  0  0  0  0  0  0  0
   12.1984  -15.0465   19.9624 H   0  0  0  0  0  0  0  0  0  0  0  0
   13.5868  -16.4413   19.1978 C   0  0  0  0  0  0  0  0  0  0  0  0
   14.1572  -15.6258   17.9807 C   0  0  0  0  0  0  0  0  0  0  0  0
   17.3969  -12.8491   16.7269 N   0  0  0  0  0  0  0  0  0  0  0  0
   15.5797  -16.1266   17.5763 C   0  0  0  0  0  0  0  0  0  0  0  0
   16.3749  -15.1442   16.6460 C   0  0  0  0  0  0  0  0  0  0  0  0
   16.4015  -13.7493   17.3252 C   0  0  0  0  0  0  0  0  0  0  0  0
   14.9637  -13.2139   17.2820 C   0  0  0  0  0  0  0  0  0  0  0  0
   14.0750  -14.0831   18.2234 C   0  0  0  0  0  0  0  0  0  0  0  0
   18.3223  -13.2729   16.7938 H   0  0  0  0  0  0  0  0  0  0  0  0
   17.3936  -11.9592   17.2254 H   0  0  0  0  0  0  0  0  0  0  0  0
   17.9376  -13.3305   21.0142 C   0  0  0  0  0  0  0  0  0  0  0  0
   18.8880  -12.7049   22.0215 C   0  0  0  0  0  0  0  0  0  0  0  0
   19.8465  -14.1309   22.4168 S   0  0  0  0  0  0  0  0  0  0  0  0
   19.2868  -15.3578   21.9272 O   0  0  0  0  0  0  0  0  0  0  0  0
   21.2440  -13.8127   22.0396 O   0  0  0  0  0  0  0  0  0  0  0  0
   19.9641  -14.3058   24.1919 C   0  0  0  0  0  0  0  0  0  0  0  0
   20.8540  -13.5262   24.9206 C   0  0  0  0  0  0  0  0  0  0  0  0
   20.8884  -13.6625   26.3069 C   0  0  0  0  0  0  0  0  0  0  0  0
   20.0452  -14.5623   26.9523 C   0  0  0  0  0  0  0  0  0  0  0  0
   19.1476  -15.3395   26.2243 C   0  0  0  0  0  0  0  0  0  0  0  0
   19.1049  -15.2012   24.8419 C   0  0  0  0  0  0  0  0  0  0  0  0
 16 17  1  0  0  0
 16 12  1  0  0  0
 13 12  1  0  0  0
 23 17  1  0  0  0
 17 19  1  0  0  0
 21 18  1  0  0  0
 19 20  1  0  0  0
 21 20  1  0  0  0
 22 21  1  0  0  0
 23 22  1  0  0  0
  2  1  1  0  0  0
  6  1  1  0  0  0
  1 26  1  0  0  0
  4  2  1  0  0  0
  3  2  2  0  0  0
  8  4  1  0  0  0
  4  5  1  0  0  0
 11  5  1  0  0  0
  5  6  1  0  0  0
  6  7  2  0  0  0
  9  8  1  0  0  0
  9 10  2  0  0  0
 10 11  1  0  0  0
 13 11  1  0  0  0
 14 13  2  0  0  0
 26 27  1  0  0  0
 27 28  1  0  0  0
 30 28  2  0  0  0
 31 28  1  0  0  0
 28 29  2  0  0  0
 36 31  2  0  0  0
 31 32  1  0  0  0
 33 32  2  0  0  0
 34 33  1  0  0  0
 35 34  2  0  0  0
 35 36  1  0  0  0
 12 15  1  0  0  0
 18 24  1  0  0  0
 18 25  1  0  0  0
M  END
> <minimizedAffinity>
-8.85358

$$$$
1D9I_00P_A_380


 36 39  0  0  0  0  0  0  0  0999 V2000
   16.4062  -14.3210   20.7596 N   0  0  0  0  0  0  0  0  0  0  0  0
   17.1805  -13.1952   20.4604 C   0  0  0  0  0  0  0  0  0  0  0  0
   16.8339  -12.1564   19.9040 O   0  0  0  0  0  0  0  0  0  0  0  0
   18.4731  -13.4611   20.9275 N   0  0  0  0  0  0  0  0  0  0  0  0
   18.4658  -14.7251   21.5081 N   0  0  0  0  0  0  0  0  0  0  0  0
   17.1939  -15.2559   21.4091 C   0  0  0  0  0  0  0  0  0  0  0  0
   16.8765  -16.3389   21.8664 O   0  0  0  0  0  0  0  0  0  0  0  0
   19.7066  -12.8856   20.4113 C   0  0  0  0  0  0  0  0  0  0  0  0
   20.8410  -13.2318   21.3476 C   0  0  0  0  0  0  0  0  0  0  0  0
   20.7414  -14.2986   22.1608 C   0  0  0  0  0  0  0  0  0  0  0  0
   19.6109  -15.2877   22.2035 C   0  0  0  0  0  0  0  0  0  0  0  0
   19.0825  -16.7649   24.1958 N   0  0  0  0  0  0  0  0  0  0  0  0
   19.2237  -15.4446   23.7133 C   0  0  0  0  0  0  0  0  0  0  0  0
   18.9010  -14.4829   24.3943 O   0  0  0  0  0  0  0  0  0  0  0  0
   18.5888  -17.4094   23.6389 H   0  0  0  0  0  0  0  0  0  0  0  0
   19.6238  -17.2345   25.4708 C   0  0  0  0  0  0  0  0  0  0  0  0
   21.1007  -17.7736   25.4635 C   0  0  0  0  0  0  0  0  0  0  0  0
   24.8591  -17.9681   27.8329 N   0  0  0  0  0  0  0  0  0  0  0  0
   21.3268  -18.8304   26.5904 C   0  0  0  0  0  0  0  0  0  0  0  0
   22.8341  -19.1330   26.9053 C   0  0  0  0  0  0  0  0  0  0  0  0
   23.5478  -17.7861   27.1954 C   0  0  0  0  0  0  0  0  0  0  0  0
   23.5964  -17.0211   25.8656 C   0  0  0  0  0  0  0  0  0  0  0  0
   22.1454  -16.6099   25.4689 C   0  0  0  0  0  0  0  0  0  0  0  0
   24.7441  -18.4821   28.7064 H   0  0  0  0  0  0  0  0  0  0  0  0
   25.2723  -17.0559   28.0270 H   0  0  0  0  0  0  0  0  0  0  0  0
   14.9719  -14.4148   20.5397 C   0  0  0  0  0  0  0  0  0  0  0  0
   14.0981  -14.2702   21.7746 C   0  0  0  0  0  0  0  0  0  0  0  0
   12.9250  -13.1135   21.1467 S   0  0  0  0  0  0  0  0  0  0  0  0
   13.4544  -12.2437   20.1361 O   0  0  0  0  0  0  0  0  0  0  0  0
   11.7070  -13.8909   20.8169 O   0  0  0  0  0  0  0  0  0  0  0  0
   12.3526  -12.0562   22.4695 C   0  0  0  0  0  0  0  0  0  0  0  0
   13.0512  -10.9024   22.8035 C   0  0  0  0  0  0  0  0  0  0  0  0
   12.5520  -10.0825   23.8135 C   0  0  0  0  0  0  0  0  0  0  0  0
   11.3731  -10.4112   24.4761 C   0  0  0  0  0  0  0  0  0  0  0  0
   10.6677  -11.5634   24.1380 C   0  0  0  0  0  0  0  0  0  0  0  0
   11.1582  -12.3802   23.1260 C   0  0  0  0  0  0  0  0  0  0  0  0
 16 17  1  0  0  0
 16 12  1  0  0  0
 13 12  1  0  0  0
 23 17  1  0  0  0
 17 19  1  0  0  0
 21 18  1  0  0  0
 19 20  1  0  0  0
 21 20  1  0  0  0
 22 21  1  0  0  0
 23 22  1  0  0  0
  2  1  1  0  0  0
  6  1  1  0  0  0
  1 26  1  0  0  0
  4  2  1  0  0  0
  3  2  2  0  0  0
  8  4  1  0  0  0
  4  5  1  0  0  0
 11  5  1  0  0  0
  5  6  1  0  0  0
  6  7  2  0  0  0
  9  8  1  0  0  0
  9 10  2  0  0  0
 10 11  1  0  0  0
 13 11  1  0  0  0
 14 13  2  0  0  0
 26 27  1  0  0  0
 27 28  1  0  0  0
 30 28  2  0  0  0
 31 28  1  0  0  0
 28 29  2  0  0  0
 36 31  2  0  0  0
 31 32  1  0  0  0
 33 32  2  0  0  0
 34 33  1  0  0  0
 35 34  2  0  0  0
 35 36  1  0  0  0
 12 15  1  0  0  0
 18 24  1  0  0  0
 18 25  1  0  0  0
M  END
> <minimizedAffinity>
-8.61966

$$$$
1D9I_00P_A_380


 36 39  0  0  0  0  0  0  0  0999 V2000
   16.4565  -14.2968   20.8279 N   0  0  0  0  0  0  0  0  0  0  0  0
   17.2264  -13.1904   20.4542 C   0  0  0  0  0  0  0  0  0  0  0  0
   16.8688  -12.1785   19.8566 O   0  0  0  0  0  0  0  0  0  0  0  0
   18.5297  -13.4388   20.9007 N   0  0  0  0  0  0  0  0  0  0  0  0
   18.5335  -14.6727   21.5425 N   0  0  0  0  0  0  0  0  0  0  0  0
   17.2577  -15.2022   21.5022 C   0  0  0  0  0  0  0  0  0  0  0  0
   16.9489  -16.2602   22.0200 O   0  0  0  0  0  0  0  0  0  0  0  0
   19.7513  -12.8945   20.3255 C   0  0  0  0  0  0  0  0  0  0  0  0
   20.9083  -13.1994   21.2485 C   0  0  0  0  0  0  0  0  0  0  0  0
   20.8263  -14.2247   22.1153 C   0  0  0  0  0  0  0  0  0  0  0  0
   19.6942  -15.2056   22.2352 C   0  0  0  0  0  0  0  0  0  0  0  0
   19.1647  -16.5800   24.2995 N   0  0  0  0  0  0  0  0  0  0  0  0
   19.3455  -15.2867   23.7603 C   0  0  0  0  0  0  0  0  0  0  0  0
   19.0826  -14.2863   24.4106 O   0  0  0  0  0  0  0  0  0  0  0  0
   18.6288  -17.2244   23.7830 H   0  0  0  0  0  0  0  0  0  0  0  0
   19.7235  -17.0216   25.5770 C   0  0  0  0  0  0  0  0  0  0  0  0
   19.3433  -18.4687   26.0597 C   0  0  0  0  0  0  0  0  0  0  0  0
   18.0220  -20.8435   29.5800 N   0  0  0  0  0  0  0  0  0  0  0  0
   17.8486  -18.5463   26.5046 C   0  0  0  0  0  0  0  0  0  0  0  0
   17.4863  -19.8192   27.3479 C   0  0  0  0  0  0  0  0  0  0  0  0
   18.4722  -19.9049   28.5430 C   0  0  0  0  0  0  0  0  0  0  0  0
   19.8495  -20.2354   27.9515 C   0  0  0  0  0  0  0  0  0  0  0  0
   20.3499  -19.0099   27.1271 C   0  0  0  0  0  0  0  0  0  0  0  0
   17.1043  -20.5580   29.9216 H   0  0  0  0  0  0  0  0  0  0  0  0
   18.6880  -20.8417   30.3525 H   0  0  0  0  0  0  0  0  0  0  0  0
   15.0167  -14.3950   20.6496 C   0  0  0  0  0  0  0  0  0  0  0  0
   14.1729  -14.1258   21.8844 C   0  0  0  0  0  0  0  0  0  0  0  0
   13.0895  -12.9060   21.2158 S   0  0  0  0  0  0  0  0  0  0  0  0
   13.7479  -11.9434   20.3804 O   0  0  0  0  0  0  0  0  0  0  0  0
   11.9363  -13.6402   20.6434 O   0  0  0  0  0  0  0  0  0  0  0  0
   12.3287  -11.9819   22.5434 C   0  0  0  0  0  0  0  0  0  0  0  0
   11.2097  -12.4801   23.1993 C   0  0  0  0  0  0  0  0  0  0  0  0
   10.6689  -11.7501   24.2558 C   0  0  0  0  0  0  0  0  0  0  0  0
   11.2396  -10.5434   24.6496 C   0  0  0  0  0  0  0  0  0  0  0  0
   12.3655  -10.0459   23.9980 C   0  0  0  0  0  0  0  0  0  0  0  0
   12.9125  -10.7747   22.9485 C   0  0  0  0  0  0  0  0  0  0  0  0
 16 17  1  0  0  0
 16 12  1  0  0  0
 13 12  1  0  0  0
 23 17  1  0  0  0
 17 19  1  0  0  0
 21 18  1  0  0  0
 19 20  1  0  0  0
 21 20  1  0  0  0
 22 21  1  0  0  0
 23 22  1  0  0  0
  2  1  1  0  0  0
  6  1  1  0  0  0
  1 26  1  0  0  0
  4  2  1  0  0  0
  3  2  2  0  0  0
  8  4  1  0  0  0
  4  5  1  0  0  0
 11  5  1  0  0  0
  5  6  1  0  0  0
  6  7  2  0  0  0
  9  8  1  0  0  0
  9 10  2  0  0  0
 10 11  1  0  0  0
 13 11  1  0  0  0
 14 13  2  0  0  0
 26 27  1  0  0  0
 27 28  1  0  0  0
 30 28  2  0  0  0
 31 28  1  0  0  0
 28 29  2  0  0  0
 36 31  2  0  0  0
 31 32  1  0  0  0
 33 32  2  0  0  0
 34 33  1  0  0  0
 35 34  2  0  0  0
 35 36  1  0  0  0
 12 15  1  0  0  0
 18 24  1  0  0  0
 18 25  1  0  0  0
M  END
> <minimizedAffinity>
-8.56706

$$$$
1D9I_00P_A_380


 36 39  0  0  0  0  0  0  0  0999 V2000
   17.6477  -17.0621   24.4416 N   0  0  0  0  0  0  0  0  0  0  0  0
   17.0430  -17.9750   25.3118 C   0  0  0  0  0  0  0  0  0  0  0  0
   17.3337  -18.2244   26.4790 O   0  0  0  0  0  0  0  0  0  0  0  0
   16.0008  -18.5795   24.5991 N   0  0  0  0  0  0  0  0  0  0  0  0
   15.9778  -18.0251   23.3237 N   0  0  0  0  0  0  0  0  0  0  0  0
   16.9886  -17.0881   23.2244 C   0  0  0  0  0  0  0  0  0  0  0  0
   17.1871  -16.4113   22.2319 O   0  0  0  0  0  0  0  0  0  0  0  0
   15.4485  -19.9037   24.8458 C   0  0  0  0  0  0  0  0  0  0  0  0
   14.1848  -20.0691   24.0338 C   0  0  0  0  0  0  0  0  0  0  0  0
   13.9862  -19.3172   22.9364 C   0  0  0  0  0  0  0  0  0  0  0  0
   14.9515  -18.3310   22.3417 C   0  0  0  0  0  0  0  0  0  0  0  0
   14.5828  -16.1938   21.0274 N   0  0  0  0  0  0  0  0  0  0  0  0
   14.1333  -17.0208   22.0810 C   0  0  0  0  0  0  0  0  0  0  0  0
   13.2567  -16.6509   22.8474 O   0  0  0  0  0  0  0  0  0  0  0  0
   15.5497  -16.0231   20.9553 H   0  0  0  0  0  0  0  0  0  0  0  0
   13.7019  -15.5754   20.0371 C   0  0  0  0  0  0  0  0  0  0  0  0
   13.4363  -14.0327   20.1833 C   0  0  0  0  0  0  0  0  0  0  0  0
   13.3011  -10.6777   23.0994 N   0  0  0  0  0  0  0  0  0  0  0  0
   14.7199  -13.2755   20.6492 C   0  0  0  0  0  0  0  0  0  0  0  0
   14.4599  -11.8239   21.1859 C   0  0  0  0  0  0  0  0  0  0  0  0
   13.3766  -11.9042   22.2938 C   0  0  0  0  0  0  0  0  0  0  0  0
   12.0624  -12.2787   21.5947 C   0  0  0  0  0  0  0  0  0  0  0  0
   12.1755  -13.7394   21.0608 C   0  0  0  0  0  0  0  0  0  0  0  0
   14.2082  -10.4969   23.5293 H   0  0  0  0  0  0  0  0  0  0  0  0
   12.5964  -10.7922   23.8279 H   0  0  0  0  0  0  0  0  0  0  0  0
   18.7083  -16.1426   24.8211 C   0  0  0  0  0  0  0  0  0  0  0  0
   20.0633  -16.3872   24.1782 C   0  0  0  0  0  0  0  0  0  0  0  0
   20.6439  -14.7234   24.1204 S   0  0  0  0  0  0  0  0  0  0  0  0
   20.1895  -13.9141   25.2143 O   0  0  0  0  0  0  0  0  0  0  0  0
   22.1044  -14.7987   23.8798 O   0  0  0  0  0  0  0  0  0  0  0  0
   20.0552  -13.9303   22.6306 C   0  0  0  0  0  0  0  0  0  0  0  0
   18.7745  -13.3941   22.5752 C   0  0  0  0  0  0  0  0  0  0  0  0
   18.3656  -12.7481   21.4102 C   0  0  0  0  0  0  0  0  0  0  0  0
   19.2246  -12.6394   20.3206 C   0  0  0  0  0  0  0  0  0  0  0  0
   20.5111  -13.1700   20.3768 C   0  0  0  0  0  0  0  0  0  0  0  0
   20.9255  -13.8085   21.5397 C   0  0  0  0  0  0  0  0  0  0  0  0
 16 17  1  0  0  0
 16 12  1  0  0  0
 13 12  1  0  0  0
 23 17  1  0  0  0
 17 19  1  0  0  0
 21 18  1  0  0  0
 19 20  1  0  0  0
 21 20  1  0  0  0
 22 21  1  0  0  0
 23 22  1  0  0  0
  2  1  1  0  0  0
  6  1  1  0  0  0
  1 26  1  0  0  0
  4  2  1  0  0  0
  3  2  2  0  0  0
  8  4  1  0  0  0
  4  5  1  0  0  0
 11  5  1  0  0  0
  5  6  1  0  0  0
  6  7  2  0  0  0
  9  8  1  0  0  0
  9 10  2  0  0  0
 10 11  1  0  0  0
 13 11  1  0  0  0
 14 13  2  0  0  0
 26 27  1  0  0  0
 27 28  1  0  0  0
 30 28  2  0  0  0
 31 28  1  0  0  0
 28 29  2  0  0  0
 36 31  2  0  0  0
 31 32  1  0  0  0
 33 32  2  0  0  0
 34 33  1  0  0  0
 35 34  2  0  0  0
 35 36  1  0  0  0
 12 15  1  0  0  0
 18 24  1  0  0  0
 18 25  1  0  0  0
M  END
> <minimizedAffinity>
-8.36461

$$$$
