2AVS_MK1_B_902
  RCSB PDB12061705033D
Coordinates from PDB:2AVS:B:902 Model:1 without hydrogens
 45 49  0  0  0  0            999 V2000
   22.4450   34.8440   16.1780   N 0  0  0  0  0  0  0  0  0  0  0  0
   21.0910   34.7250   15.5750   C 0  0  0  0  0  0  0  0  0  0  0  0
   20.2950   33.5670   16.1210   C 0  0  0  0  0  0  0  0  0  0  0  0
   18.9550   33.5470   15.4590   C 0  0  0  0  0  0  0  0  0  0  0  0
   18.8220   33.1750   14.2840   O 0  0  0  0  0  0  0  0  0  0  0  0
   17.9760   33.9960   16.2110   N 0  0  0  0  0  0  0  0  0  0  0  0
   16.5460   34.0910   15.7640   C 0  0  0  0  0  0  0  0  0  0  0  0
   15.8040   34.6790   16.9650   C 0  0  0  0  0  0  0  0  0  0  0  0
   16.0250   32.7930   15.4150   C 0  0  0  0  0  0  0  0  0  0  0  0
   16.4750   35.0410   14.6250   C 0  0  0  0  0  0  0  0  0  0  0  0
   21.0870   32.3120   15.8580   N 0  0  0  0  0  0  0  0  0  0  0  0
   22.4500   32.3980   16.4160   C 0  0  0  0  0  0  0  0  0  0  0  0
   23.1680   33.6540   15.8720   C 0  0  0  0  0  0  0  0  0  0  0  0
   20.4550   31.1210   16.4030   C 0  0  0  0  0  0  0  0  0  0  0  0
   20.6130   29.9120   15.5060   C 0  0  0  0  0  0  0  0  0  0  0  0
   20.6030   28.7120   16.2840   O 0  0  0  0  0  0  0  0  0  0  0  0
   19.4780   29.8040   14.4820   C 0  0  0  0  0  0  0  0  0  0  0  0
   19.5580   28.6430   13.5010   C 0  0  0  0  0  0  0  0  0  0  0  0
   18.2620   28.5260   12.6700   C 0  0  0  0  0  0  0  0  0  0  0  0
   18.2940   27.5220   11.5900   C 0  0  0  0  0  0  0  0  0  0  0  0
   18.4210   26.1680   11.8720   C 0  0  0  0  0  0  0  0  0  0  0  0
   18.4530   25.2370   10.8450   C 0  0  0  0  0  0  0  0  0  0  0  0
   18.3730   25.6420    9.5080   C 0  0  0  0  0  0  0  0  0  0  0  0
   18.2450   27.0060    9.2440   C 0  0  0  0  0  0  0  0  0  0  0  0
   18.1830   27.9270   10.2500   C 0  0  0  0  0  0  0  0  0  0  0  0
   20.7160   28.7700   12.5140   C 0  0  0  0  0  0  0  0  0  0  0  0
   20.9860   29.8580   11.9420   O 0  0  0  0  0  0  0  0  0  0  0  0
   21.3860   27.6660   12.2640   N 0  0  0  0  0  0  0  0  0  0  0  0
   22.2740   27.5340   11.1350   C 0  0  0  0  0  0  0  0  0  0  0  0
   22.1980   26.2110   10.4130   C 0  0  0  0  0  0  0  0  0  0  0  0
   22.1160   25.1530   11.3660   O 0  0  0  0  0  0  0  0  0  0  0  0
   23.5390   26.1090    9.6840   C 0  0  0  0  0  0  0  0  0  0  0  0
   24.5400   26.8250   10.5540   C 0  0  0  0  0  0  0  0  0  0  0  0
   25.9030   26.8170   10.6690   C 0  0  0  0  0  0  0  0  0  0  0  0
   26.5310   27.5940   11.6000   C 0  0  0  0  0  0  0  0  0  0  0  0
   25.8220   28.4500   12.4520   C 0  0  0  0  0  0  0  0  0  0  0  0
   24.4400   28.4810   12.3620   C 0  0  0  0  0  0  0  0  0  0  0  0
   23.7590   27.7090   11.4620   C 0  0  0  0  0  0  0  0  0  0  0  0
   23.1370   36.0060   15.5760   C 0  0  0  0  0  0  0  0  0  0  0  0
   22.5420   37.3420   15.9960   C 0  0  0  0  0  0  0  0  0  0  0  0
   22.4430   37.6860   17.3480   C 0  0  0  0  0  0  0  0  0  0  0  0
   21.9150   38.8730   17.7980   N 0  0  0  0  0  0  0  0  0  0  0  0
   21.5130   39.7450   16.8190   C 0  0  0  0  0  0  0  0  0  0  0  0
   21.6110   39.4840   15.4540   C 0  0  0  0  0  0  0  0  0  0  0  0
   22.1070   38.2470   15.0610   C 0  0  0  0  0  0  0  0  0  0  0  0
  1  2  1  0  0  0  0
  1 13  1  0  0  0  0
  1 39  1  0  0  0  0
  2  3  1  0  0  0  0
  3  4  1  0  0  0  0
  3 11  1  0  0  0  0
  4  5  2  0  0  0  0
  4  6  1  0  0  0  0
  6  7  1  0  0  0  0
  7  8  1  0  0  0  0
  7  9  1  0  0  0  0
  7 10  1  0  0  0  0
 11 12  1  0  0  0  0
 11 14  1  0  0  0  0
 12 13  1  0  0  0  0
 14 15  1  0  0  0  0
 15 16  1  0  0  0  0
 15 17  1  0  0  0  0
 17 18  1  0  0  0  0
 18 19  1  0  0  0  0
 18 26  1  0  0  0  0
 19 20  1  0  0  0  0
 20 21  2  0  0  0  0
 20 25  1  0  0  0  0
 21 22  1  0  0  0  0
 22 23  2  0  0  0  0
 23 24  1  0  0  0  0
 24 25  2  0  0  0  0
 26 27  2  0  0  0  0
 26 28  1  0  0  0  0
 28 29  1  0  0  0  0
 29 30  1  0  0  0  0
 29 38  1  0  0  0  0
 30 31  1  0  0  0  0
 30 32  1  0  0  0  0
 32 33  1  0  0  0  0
 33 34  2  0  0  0  0
 33 38  1  0  0  0  0
 34 35  1  0  0  0  0
 35 36  2  0  0  0  0
 36 37  1  0  0  0  0
 37 38  2  0  0  0  0
 39 40  1  0  0  0  0
 40 41  1  0  0  0  0
 40 45  2  0  0  0  0
 41 42  2  0  0  0  0
 42 43  1  0  0  0  0
 43 44  2  0  0  0  0
 44 45  1  0  0  0  0
A    1
N1
A    2
C1
A    3
C2
A    4
C3
A    5
O1
A    6
N2
A    7
C4
A    8
C5
A    9
C6
A   10
C7
A   11
N3
A   12
C8
A   13
C9
A   14
C10
A   15
C11
A   16
O2
A   17
C12
A   18
C13
A   19
C14
A   20
C15
A   21
C16
A   22
C17
A   23
C18
A   24
C19
A   25
C20
A   26
C21
A   27
O3
A   28
N4
A   29
C22
A   30
C23
A   31
O4
A   32
C24
A   33
C25
A   34
C26
A   35
C27
A   36
C28
A   37
C29
A   38
C30
A   39
C31
A   40
C32
A   41
C33
A   42
N5
A   43
C34
A   44
C35
A   45
C36
M  END
>  <InstanceId>
2AVS_MK1_B_902

>  <ChemCompId>
MK1

>  <PdbId>
2AVS

>  <ChainId>
B

>  <ResidueNumber>
902

>  <InsertionCode>


>  <Model>
1

>  <AltIds>


>  <MissingHeavyAtoms>
0

>  <ObservedFormula>
C36 N5 O4

>  <Name>
N-[2(R)-HYDROXY-1(S)-INDANYL]-5-[(2(S)-TERTIARY BUTYLAMINOCARBONYL)-4(3-PYRIDYLMETHYL)PIPERAZINO]-4(S)-HYDROXY-2(R)-PHENYLMETHYLPENTANAMIDE

>  <SystematicName>
(1S,2S,4R)-N-tert-butyl-1-[(2S,4R)-2-hydroxy-5-[[(1S,2R)-2-hydroxy-2,3-dihydro-1H-inden-1-yl]amino]-5-oxo-4-(phenylmethyl)pentyl]-4-(pyridin-3-ylmethyl)piperazine-2-carboxamide

>  <Synonyms>
INDINAVIR

>  <Type>
NON-POLYMER

>  <Formula>
C36 H47 N5 O4

>  <MolecularWeight>
613.789

>  <ModifiedDate>
2011-06-04

>  <Parent>


>  <OneLetterCode>


>  <SubcomponentList>


>  <AmbiguousFlag>
N

>  <InChI>
InChI=1S/C36H47N5O4/c1-36(2,3)39-35(45)31-24-40(22-26-12-9-15-37-21-26)16-17-41(31)23-29(42)19-28(18-25-10-5-4-6-11-25)34(44)38-33-30-14-8-7-13-27(30)20-32(33)43/h4-15,21,28-29,31-33,42-43H,16-20,22-24H2,1-3H3,(H,38,44)(H,39,45)/t28-,29+,31+,32-,33+/m1/s1

>  <InChIKey>
CBVCZFGXHXORBI-PXQQMZJSSA-N

>  <SMILES>
CC(C)(C)NC(=O)[C@@H]1C[N@@](CC[N@]1C[C@H](C[C@@H](Cc2ccccc2)C(=O)N[C@H]3c4ccccc4C[C@H]3O)O)Cc5cccnc5

$$$$
