2AVS_MK1_B_902


 49 53  0  0  0  0  0  0  0  0999 V2000
   20.6607   30.0676   15.4263 C   0  0  0  0  0  0  0  0  0  0  0  0
   20.6992   28.8554   16.1841 O   0  0  0  0  0  0  0  0  0  0  0  0
   19.8671   28.7525   16.6720 H   0  0  0  0  0  0  0  0  0  0  0  0
   20.5276   31.2601   16.3490 C   0  0  0  0  0  0  0  0  0  0  0  0
   22.4096   35.0347   16.0618 N   0  0  0  0  0  0  0  0  0  0  0  0
   21.0255   34.8896   15.5378 C   0  0  0  0  0  0  0  0  0  0  0  0
   20.2917   33.7048   16.1127 C   0  0  0  0  0  0  0  0  0  0  0  0
   21.0971   32.4737   15.7853 N   0  0  0  0  0  0  0  0  0  0  0  0
   22.4882   32.5867   16.2633 C   0  0  0  0  0  0  0  0  0  0  0  0
   23.1419   33.8674   15.6964 C   0  0  0  0  0  0  0  0  0  0  0  0
   18.9157   33.6598   15.5305 C   0  0  0  0  0  0  0  0  0  0  0  0
   18.7312   33.4046   14.3315 O   0  0  0  0  0  0  0  0  0  0  0  0
   17.9606   33.9572   16.3819 N   0  0  0  0  0  0  0  0  0  0  0  0
   18.2179   34.1670   17.3088 H   0  0  0  0  0  0  0  0  0  0  0  0
   16.5016   33.9974   16.0307 C   0  0  0  0  0  0  0  0  0  0  0  0
   15.8008   34.3817   17.3346 C   0  0  0  0  0  0  0  0  0  0  0  0
   16.0479   32.7146   15.5546 C   0  0  0  0  0  0  0  0  0  0  0  0
   16.2932   35.0678   15.0229 C   0  0  0  0  0  0  0  0  0  0  0  0
   23.0362   36.2216   15.4372 C   0  0  0  0  0  0  0  0  0  0  0  0
   22.8215   37.5012   16.2319 C   0  0  0  0  0  0  0  0  0  0  0  0
   23.5051   37.7193   17.4324 C   0  0  0  0  0  0  0  0  0  0  0  0
   23.3577   38.8493   18.2015 N   0  0  0  0  0  0  0  0  0  0  0  0
   22.5071   39.7977   17.6941 C   0  0  0  0  0  0  0  0  0  0  0  0
   21.8182   39.6634   16.4906 C   0  0  0  0  0  0  0  0  0  0  0  0
   21.9692   38.4778   15.7821 C   0  0  0  0  0  0  0  0  0  0  0  0
   19.4833   29.9615   14.4511 C   0  0  0  0  0  0  0  0  0  0  0  0
   19.4837   28.7606   13.5158 C   0  0  0  0  0  0  0  0  0  0  0  0
   20.6127   28.8003   12.4887 C   0  0  0  0  0  0  0  0  0  0  0  0
   20.8442   29.8239   11.7941 O   0  0  0  0  0  0  0  0  0  0  0  0
   21.2996   27.6882   12.3417 N   0  0  0  0  0  0  0  0  0  0  0  0
   21.2230   26.9906   13.0323 H   0  0  0  0  0  0  0  0  0  0  0  0
   22.1606   27.4498   11.2093 C   0  0  0  0  0  0  0  0  0  0  0  0
   22.0760   26.0620   10.6227 C   0  0  0  0  0  0  0  0  0  0  0  0
   22.0245   25.1023   11.6766 O   0  0  0  0  0  0  0  0  0  0  0  0
   23.3995   25.8947    9.8739 C   0  0  0  0  0  0  0  0  0  0  0  0
   24.4165   26.6971   10.6442 C   0  0  0  0  0  0  0  0  0  0  0  0
   25.7820   26.7064   10.7254 C   0  0  0  0  0  0  0  0  0  0  0  0
   26.4272   27.5738   11.5598 C   0  0  0  0  0  0  0  0  0  0  0  0
   25.7334   28.5062   12.3411 C   0  0  0  0  0  0  0  0  0  0  0  0
   24.3494   28.5222   12.2831 C   0  0  0  0  0  0  0  0  0  0  0  0
   23.6519   27.6626   11.4804 C   0  0  0  0  0  0  0  0  0  0  0  0
   22.7994   25.2099   12.2500 H   0  0  0  0  0  0  0  0  0  0  0  0
   18.1573   28.6656   12.7313 C   0  0  0  0  0  0  0  0  0  0  0  0
   18.0863   27.5733   11.7427 C   0  0  0  0  0  0  0  0  0  0  0  0
   18.1828   26.2440   12.1334 C   0  0  0  0  0  0  0  0  0  0  0  0
   18.1177   25.2289   11.1912 C   0  0  0  0  0  0  0  0  0  0  0  0
   17.9687   25.5222    9.8311 C   0  0  0  0  0  0  0  0  0  0  0  0
   17.8727   26.8630    9.4575 C   0  0  0  0  0  0  0  0  0  0  0  0
   17.9062   27.8676   10.3815 C   0  0  0  0  0  0  0  0  0  0  0  0
  5  6  1  0  0  0
  5 10  1  0  0  0
  5 19  1  0  0  0
  6  7  1  0  0  0
  7 11  1  0  0  0
  7  8  1  0  0  0
 11 12  2  0  0  0
 11 13  1  0  0  0
 13 15  1  0  0  0
 15 16  1  0  0  0
 15 17  1  0  0  0
 15 18  1  0  0  0
  8  9  1  0  0  0
  8  4  1  0  0  0
  9 10  1  0  0  0
  4  1  1  0  0  0
  1  2  1  0  0  0
  1 26  1  0  0  0
 26 27  1  0  0  0
 27 43  1  0  0  0
 27 28  1  0  0  0
 43 44  1  0  0  0
 44 45  2  0  0  0
 44 49  1  0  0  0
 45 46  1  0  0  0
 46 47  2  0  0  0
 47 48  1  0  0  0
 48 49  2  0  0  0
 28 29  2  0  0  0
 28 30  1  0  0  0
 30 32  1  0  0  0
 32 33  1  0  0  0
 32 41  1  0  0  0
 33 34  1  0  0  0
 33 35  1  0  0  0
 35 36  1  0  0  0
 36 37  2  0  0  0
 36 41  1  0  0  0
 37 38  1  0  0  0
 38 39  2  0  0  0
 39 40  1  0  0  0
 40 41  2  0  0  0
 19 20  1  0  0  0
 20 21  1  0  0  0
 20 25  2  0  0  0
 21 22  2  0  0  0
 22 23  1  0  0  0
 23 24  2  0  0  0
 24 25  1  0  0  0
 13 14  1  0  0  0
  2  3  1  0  0  0
 30 31  1  0  0  0
 34 42  1  0  0  0
M  END
> <minimizedAffinity>
-12.17913

$$$$
2AVS_MK1_B_902


 49 53  0  0  0  0  0  0  0  0999 V2000
   20.2162   30.2574   14.8962 C   0  0  0  0  0  0  0  0  0  0  0  0
   18.7915   30.1448   14.8428 O   0  0  0  0  0  0  0  0  0  0  0  0
   18.4049   31.0159   14.6623 H   0  0  0  0  0  0  0  0  0  0  0  0
   20.6286   31.1775   16.0252 C   0  0  0  0  0  0  0  0  0  0  0  0
   22.4566   34.9893   16.0062 N   0  0  0  0  0  0  0  0  0  0  0  0
   21.0534   34.8723   15.5284 C   0  0  0  0  0  0  0  0  0  0  0  0
   20.3570   33.6299   16.0225 C   0  0  0  0  0  0  0  0  0  0  0  0
   21.1609   32.4453   15.5515 N   0  0  0  0  0  0  0  0  0  0  0  0
   22.5697   32.5345   15.9804 C   0  0  0  0  0  0  0  0  0  0  0  0
   23.1853   33.8706   15.5063 C   0  0  0  0  0  0  0  0  0  0  0  0
   18.9583   33.6180   15.4954 C   0  0  0  0  0  0  0  0  0  0  0  0
   18.7213   33.3825   14.3016 O   0  0  0  0  0  0  0  0  0  0  0  0
   18.0438   33.9214   16.3881 N   0  0  0  0  0  0  0  0  0  0  0  0
   18.3417   34.1139   17.3065 H   0  0  0  0  0  0  0  0  0  0  0  0
   16.5729   33.9931   16.0963 C   0  0  0  0  0  0  0  0  0  0  0  0
   16.4463   35.0605   15.0085 C   0  0  0  0  0  0  0  0  0  0  0  0
   15.8282   34.3603   17.2748 C   0  0  0  0  0  0  0  0  0  0  0  0
   16.1399   32.6803   15.5542 C   0  0  0  0  0  0  0  0  0  0  0  0
   23.0438   36.2368   15.4673 C   0  0  0  0  0  0  0  0  0  0  0  0
   22.3131   37.4904   15.9254 C   0  0  0  0  0  0  0  0  0  0  0  0
   21.8525   37.6078   17.2407 C   0  0  0  0  0  0  0  0  0  0  0  0
   21.1838   38.7089   17.7210 N   0  0  0  0  0  0  0  0  0  0  0  0
   21.0209   39.7337   16.8245 C   0  0  0  0  0  0  0  0  0  0  0  0
   21.4810   39.7003   15.5099 C   0  0  0  0  0  0  0  0  0  0  0  0
   22.1057   38.5407   15.0673 C   0  0  0  0  0  0  0  0  0  0  0  0
   20.6867   30.7746   13.5325 C   0  0  0  0  0  0  0  0  0  0  0  0
   20.9695   29.7229   12.4692 C   0  0  0  0  0  0  0  0  0  0  0  0
   19.7023   29.1581   11.8316 C   0  0  0  0  0  0  0  0  0  0  0  0
   18.6359   29.8235   11.7691 O   0  0  0  0  0  0  0  0  0  0  0  0
   19.7787   27.9208   11.3918 N   0  0  0  0  0  0  0  0  0  0  0  0
   20.6679   27.5145   11.2758 H   0  0  0  0  0  0  0  0  0  0  0  0
   18.6117   27.1354   11.0728 C   0  0  0  0  0  0  0  0  0  0  0  0
   18.5599   25.7742   11.7221 C   0  0  0  0  0  0  0  0  0  0  0  0
   19.8495   25.1680   11.6598 O   0  0  0  0  0  0  0  0  0  0  0  0
   17.6019   24.9767   10.8354 C   0  0  0  0  0  0  0  0  0  0  0  0
   17.7805   25.5174    9.4399 C   0  0  0  0  0  0  0  0  0  0  0  0
   17.5079   25.0567    8.1812 C   0  0  0  0  0  0  0  0  0  0  0  0
   17.8166   25.8040    7.0807 C   0  0  0  0  0  0  0  0  0  0  0  0
   18.3921   27.0764    7.1856 C   0  0  0  0  0  0  0  0  0  0  0  0
   18.6820   27.5720    8.4463 C   0  0  0  0  0  0  0  0  0  0  0  0
   18.4127   26.8577    9.5808 C   0  0  0  0  0  0  0  0  0  0  0  0
   20.1404   25.1211   10.7356 H   0  0  0  0  0  0  0  0  0  0  0  0
   21.7525   28.5305   13.0600 C   0  0  0  0  0  0  0  0  0  0  0  0
   23.1213   28.3550   12.5394 C   0  0  0  0  0  0  0  0  0  0  0  0
   23.4141   27.3668   11.6084 C   0  0  0  0  0  0  0  0  0  0  0  0
   24.7069   27.2125   11.1315 C   0  0  0  0  0  0  0  0  0  0  0  0
   25.7419   28.0365   11.5874 C   0  0  0  0  0  0  0  0  0  0  0  0
   25.4288   29.0240   12.5218 C   0  0  0  0  0  0  0  0  0  0  0  0
   24.1531   29.2022   12.9748 C   0  0  0  0  0  0  0  0  0  0  0  0
  5  6  1  0  0  0
  5 10  1  0  0  0
  5 19  1  0  0  0
  6  7  1  0  0  0
  7 11  1  0  0  0
  7  8  1  0  0  0
 11 12  2  0  0  0
 11 13  1  0  0  0
 13 15  1  0  0  0
 15 16  1  0  0  0
 15 17  1  0  0  0
 15 18  1  0  0  0
  8  9  1  0  0  0
  8  4  1  0  0  0
  9 10  1  0  0  0
  4  1  1  0  0  0
  1  2  1  0  0  0
  1 26  1  0  0  0
 26 27  1  0  0  0
 27 43  1  0  0  0
 27 28  1  0  0  0
 43 44  1  0  0  0
 44 45  2  0  0  0
 44 49  1  0  0  0
 45 46  1  0  0  0
 46 47  2  0  0  0
 47 48  1  0  0  0
 48 49  2  0  0  0
 28 29  2  0  0  0
 28 30  1  0  0  0
 30 32  1  0  0  0
 32 33  1  0  0  0
 32 41  1  0  0  0
 33 34  1  0  0  0
 33 35  1  0  0  0
 35 36  1  0  0  0
 36 37  2  0  0  0
 36 41  1  0  0  0
 37 38  1  0  0  0
 38 39  2  0  0  0
 39 40  1  0  0  0
 40 41  2  0  0  0
 19 20  1  0  0  0
 20 21  1  0  0  0
 20 25  2  0  0  0
 21 22  2  0  0  0
 22 23  1  0  0  0
 23 24  2  0  0  0
 24 25  1  0  0  0
 13 14  1  0  0  0
  2  3  1  0  0  0
 30 31  1  0  0  0
 34 42  1  0  0  0
M  END
> <minimizedAffinity>
-11.15719

$$$$
2AVS_MK1_B_902


 49 53  0  0  0  0  0  0  0  0999 V2000
   21.6859   29.5273   14.4783 C   0  0  0  0  0  0  0  0  0  0  0  0
   20.9241   28.9911   15.5635 O   0  0  0  0  0  0  0  0  0  0  0  0
   20.0212   28.8032   15.2629 H   0  0  0  0  0  0  0  0  0  0  0  0
   21.0845   30.8350   14.0098 C   0  0  0  0  0  0  0  0  0  0  0  0
   17.3537   32.4892   15.1125 N   0  0  0  0  0  0  0  0  0  0  0  0
   18.5877   33.0502   15.7238 C   0  0  0  0  0  0  0  0  0  0  0  0
   19.8343   32.7529   14.9299 C   0  0  0  0  0  0  0  0  0  0  0  0
   19.9511   31.2544   14.8188 N   0  0  0  0  0  0  0  0  0  0  0  0
   18.7342   30.6520   14.2418 C   0  0  0  0  0  0  0  0  0  0  0  0
   17.4937   31.0713   15.0630 C   0  0  0  0  0  0  0  0  0  0  0  0
   21.0068   33.3681   15.6234 C   0  0  0  0  0  0  0  0  0  0  0  0
   21.5467   32.8137   16.5918 O   0  0  0  0  0  0  0  0  0  0  0  0
   21.3607   34.5398   15.1465 N   0  0  0  0  0  0  0  0  0  0  0  0
   20.8499   34.9020   14.3868 H   0  0  0  0  0  0  0  0  0  0  0  0
   22.4950   35.3616   15.6868 C   0  0  0  0  0  0  0  0  0  0  0  0
   23.7562   34.6478   15.1984 C   0  0  0  0  0  0  0  0  0  0  0  0
   22.4537   35.4182   17.1267 C   0  0  0  0  0  0  0  0  0  0  0  0
   22.4240   36.7136   15.0770 C   0  0  0  0  0  0  0  0  0  0  0  0
   16.1954   32.8374   15.9661 C   0  0  0  0  0  0  0  0  0  0  0  0
   16.2127   34.2833   16.4400 C   0  0  0  0  0  0  0  0  0  0  0  0
   16.3151   34.5872   17.8013 C   0  0  0  0  0  0  0  0  0  0  0  0
   16.3341   35.8687   18.2990 N   0  0  0  0  0  0  0  0  0  0  0  0
   16.2841   36.8646   17.3577 C   0  0  0  0  0  0  0  0  0  0  0  0
   16.2141   36.6373   15.9850 C   0  0  0  0  0  0  0  0  0  0  0  0
   16.1477   35.3211   15.5449 C   0  0  0  0  0  0  0  0  0  0  0  0
   21.7052   28.4727   13.3666 C   0  0  0  0  0  0  0  0  0  0  0  0
   21.4682   28.9765   11.9500 C   0  0  0  0  0  0  0  0  0  0  0  0
   20.0780   28.6376   11.4172 C   0  0  0  0  0  0  0  0  0  0  0  0
   19.1181   29.4471   11.5012 O   0  0  0  0  0  0  0  0  0  0  0  0
   19.9325   27.4344   10.9060 N   0  0  0  0  0  0  0  0  0  0  0  0
   20.7385   26.9175   10.6771 H   0  0  0  0  0  0  0  0  0  0  0  0
   18.6391   26.8420   10.6674 C   0  0  0  0  0  0  0  0  0  0  0  0
   18.4071   25.5165   11.3506 C   0  0  0  0  0  0  0  0  0  0  0  0
   19.5779   24.7103   11.2348 O   0  0  0  0  0  0  0  0  0  0  0  0
   17.2862   24.8702   10.5345 C   0  0  0  0  0  0  0  0  0  0  0  0
   17.4707   25.3544    9.1192 C   0  0  0  0  0  0  0  0  0  0  0  0
   17.0585   24.9247    7.8878 C   0  0  0  0  0  0  0  0  0  0  0  0
   17.4206   25.5963    6.7552 C   0  0  0  0  0  0  0  0  0  0  0  0
   18.1968   26.7612    6.7996 C   0  0  0  0  0  0  0  0  0  0  0  0
   18.6318   27.2225    8.0313 C   0  0  0  0  0  0  0  0  0  0  0  0
   18.3156   26.5777    9.1949 C   0  0  0  0  0  0  0  0  0  0  0  0
   19.8056   24.6035   10.2980 H   0  0  0  0  0  0  0  0  0  0  0  0
   22.4929   28.3724   10.9656 C   0  0  0  0  0  0  0  0  0  0  0  0
   23.8789   28.2986   11.4647 C   0  0  0  0  0  0  0  0  0  0  0  0
   24.5787   27.0989   11.4656 C   0  0  0  0  0  0  0  0  0  0  0  0
   25.8799   27.0456   11.9415 C   0  0  0  0  0  0  0  0  0  0  0  0
   26.5072   28.1917   12.4422 C   0  0  0  0  0  0  0  0  0  0  0  0
   25.7891   29.3879   12.4327 C   0  0  0  0  0  0  0  0  0  0  0  0
   24.5180   29.4556   11.9388 C   0  0  0  0  0  0  0  0  0  0  0  0
  5  6  1  0  0  0
  5 10  1  0  0  0
  5 19  1  0  0  0
  6  7  1  0  0  0
  7 11  1  0  0  0
  7  8  1  0  0  0
 11 12  2  0  0  0
 11 13  1  0  0  0
 13 15  1  0  0  0
 15 16  1  0  0  0
 15 17  1  0  0  0
 15 18  1  0  0  0
  8  9  1  0  0  0
  8  4  1  0  0  0
  9 10  1  0  0  0
  4  1  1  0  0  0
  1  2  1  0  0  0
  1 26  1  0  0  0
 26 27  1  0  0  0
 27 43  1  0  0  0
 27 28  1  0  0  0
 43 44  1  0  0  0
 44 45  2  0  0  0
 44 49  1  0  0  0
 45 46  1  0  0  0
 46 47  2  0  0  0
 47 48  1  0  0  0
 48 49  2  0  0  0
 28 29  2  0  0  0
 28 30  1  0  0  0
 30 32  1  0  0  0
 32 33  1  0  0  0
 32 41  1  0  0  0
 33 34  1  0  0  0
 33 35  1  0  0  0
 35 36  1  0  0  0
 36 37  2  0  0  0
 36 41  1  0  0  0
 37 38  1  0  0  0
 38 39  2  0  0  0
 39 40  1  0  0  0
 40 41  2  0  0  0
 19 20  1  0  0  0
 20 21  1  0  0  0
 20 25  2  0  0  0
 21 22  2  0  0  0
 22 23  1  0  0  0
 23 24  2  0  0  0
 24 25  1  0  0  0
 13 14  1  0  0  0
  2  3  1  0  0  0
 30 31  1  0  0  0
 34 42  1  0  0  0
M  END
> <minimizedAffinity>
-10.46645

$$$$
2AVS_MK1_B_902


 49 53  0  0  0  0  0  0  0  0999 V2000
   20.8253   30.1078   15.3069 C   0  0  0  0  0  0  0  0  0  0  0  0
   20.6998   29.7378   16.6826 O   0  0  0  0  0  0  0  0  0  0  0  0
   21.5164   29.3046   16.9767 H   0  0  0  0  0  0  0  0  0  0  0  0
   21.0184   28.8768   14.4473 C   0  0  0  0  0  0  0  0  0  0  0  0
   18.4377   27.6483   11.3325 N   0  0  0  0  0  0  0  0  0  0  0  0
   19.8126   28.0930   10.9817 C   0  0  0  0  0  0  0  0  0  0  0  0
   20.7731   28.0320   12.1421 C   0  0  0  0  0  0  0  0  0  0  0  0
   20.2139   28.9048   13.2362 N   0  0  0  0  0  0  0  0  0  0  0  0
   18.8373   28.5157   13.5969 C   0  0  0  0  0  0  0  0  0  0  0  0
   17.9371   28.5233   12.3405 C   0  0  0  0  0  0  0  0  0  0  0  0
   22.1195   28.4871   11.6792 C   0  0  0  0  0  0  0  0  0  0  0  0
   22.3119   29.6525   11.3031 O   0  0  0  0  0  0  0  0  0  0  0  0
   23.0324   27.5426   11.6668 N   0  0  0  0  0  0  0  0  0  0  0  0
   22.7687   26.6424   11.9656 H   0  0  0  0  0  0  0  0  0  0  0  0
   24.4524   27.7494   11.2257 C   0  0  0  0  0  0  0  0  0  0  0  0
   25.1979   26.5137   11.7314 C   0  0  0  0  0  0  0  0  0  0  0  0
   25.0005   28.9561   11.7927 C   0  0  0  0  0  0  0  0  0  0  0  0
   24.4816   27.7719    9.7413 C   0  0  0  0  0  0  0  0  0  0  0  0
   17.5810   27.7463   10.1292 C   0  0  0  0  0  0  0  0  0  0  0  0
   18.0520   26.8621    8.9840 C   0  0  0  0  0  0  0  0  0  0  0  0
   17.9354   25.4705    9.0618 C   0  0  0  0  0  0  0  0  0  0  0  0
   18.3419   24.6126    8.0673 N   0  0  0  0  0  0  0  0  0  0  0  0
   18.8486   25.2144    6.9441 C   0  0  0  0  0  0  0  0  0  0  0  0
   18.9647   26.5933    6.7832 C   0  0  0  0  0  0  0  0  0  0  0  0
   18.5834   27.4075    7.8427 C   0  0  0  0  0  0  0  0  0  0  0  0
   22.0084   31.0757   15.1984 C   0  0  0  0  0  0  0  0  0  0  0  0
   21.9176   32.3525   16.0220 C   0  0  0  0  0  0  0  0  0  0  0  0
   20.6708   33.1781   15.7137 C   0  0  0  0  0  0  0  0  0  0  0  0
   20.3153   33.4302   14.5331 O   0  0  0  0  0  0  0  0  0  0  0  0
   20.0161   33.6467   16.7539 N   0  0  0  0  0  0  0  0  0  0  0  0
   20.2045   33.2654   17.6418 H   0  0  0  0  0  0  0  0  0  0  0  0
   19.0333   34.6969   16.6457 C   0  0  0  0  0  0  0  0  0  0  0  0
   19.0399   35.6977   17.7752 C   0  0  0  0  0  0  0  0  0  0  0  0
   19.1985   35.0132   19.0163 O   0  0  0  0  0  0  0  0  0  0  0  0
   17.6405   36.3141   17.7325 C   0  0  0  0  0  0  0  0  0  0  0  0
   16.7220   35.2250   17.2407 C   0  0  0  0  0  0  0  0  0  0  0  0
   15.3740   34.9987   17.2932 C   0  0  0  0  0  0  0  0  0  0  0  0
   14.8327   33.8687   16.7501 C   0  0  0  0  0  0  0  0  0  0  0  0
   15.6170   32.9120   16.0937 C   0  0  0  0  0  0  0  0  0  0  0  0
   16.9862   33.1105   16.0240 C   0  0  0  0  0  0  0  0  0  0  0  0
   17.5830   34.2138   16.5683 C   0  0  0  0  0  0  0  0  0  0  0  0
   18.4925   34.3554   19.1153 H   0  0  0  0  0  0  0  0  0  0  0  0
   23.1396   33.2630   15.7741 C   0  0  0  0  0  0  0  0  0  0  0  0
   23.0618   34.6030   16.3854 C   0  0  0  0  0  0  0  0  0  0  0  0
   23.1719   35.7520   15.6130 C   0  0  0  0  0  0  0  0  0  0  0  0
   23.1001   37.0045   16.2035 C   0  0  0  0  0  0  0  0  0  0  0  0
   22.9307   37.1360   17.5863 C   0  0  0  0  0  0  0  0  0  0  0  0
   22.8213   35.9709   18.3459 C   0  0  0  0  0  0  0  0  0  0  0  0
   22.8613   34.7340   17.7691 C   0  0  0  0  0  0  0  0  0  0  0  0
  5  6  1  0  0  0
  5 10  1  0  0  0
  5 19  1  0  0  0
  6  7  1  0  0  0
  7 11  1  0  0  0
  7  8  1  0  0  0
 11 12  2  0  0  0
 11 13  1  0  0  0
 13 15  1  0  0  0
 15 16  1  0  0  0
 15 17  1  0  0  0
 15 18  1  0  0  0
  8  9  1  0  0  0
  8  4  1  0  0  0
  9 10  1  0  0  0
  4  1  1  0  0  0
  1  2  1  0  0  0
  1 26  1  0  0  0
 26 27  1  0  0  0
 27 43  1  0  0  0
 27 28  1  0  0  0
 43 44  1  0  0  0
 44 45  2  0  0  0
 44 49  1  0  0  0
 45 46  1  0  0  0
 46 47  2  0  0  0
 47 48  1  0  0  0
 48 49  2  0  0  0
 28 29  2  0  0  0
 28 30  1  0  0  0
 30 32  1  0  0  0
 32 33  1  0  0  0
 32 41  1  0  0  0
 33 34  1  0  0  0
 33 35  1  0  0  0
 35 36  1  0  0  0
 36 37  2  0  0  0
 36 41  1  0  0  0
 37 38  1  0  0  0
 38 39  2  0  0  0
 39 40  1  0  0  0
 40 41  2  0  0  0
 19 20  1  0  0  0
 20 21  1  0  0  0
 20 25  2  0  0  0
 21 22  2  0  0  0
 22 23  1  0  0  0
 23 24  2  0  0  0
 24 25  1  0  0  0
 13 14  1  0  0  0
  2  3  1  0  0  0
 30 31  1  0  0  0
 34 42  1  0  0  0
M  END
> <minimizedAffinity>
-10.34439

$$$$
2AVS_MK1_B_902


 49 53  0  0  0  0  0  0  0  0999 V2000
   18.4213   31.1520   14.8640 C   0  0  0  0  0  0  0  0  0  0  0  0
   17.4661   30.5524   15.7434 O   0  0  0  0  0  0  0  0  0  0  0  0
   16.6064   30.4970   15.2975 H   0  0  0  0  0  0  0  0  0  0  0  0
   18.0012   32.5639   14.5159 C   0  0  0  0  0  0  0  0  0  0  0  0
   17.0019   35.8767   16.9445 N   0  0  0  0  0  0  0  0  0  0  0  0
   18.3130   35.2089   17.1589 C   0  0  0  0  0  0  0  0  0  0  0  0
   18.7717   34.4010   15.9716 C   0  0  0  0  0  0  0  0  0  0  0  0
   17.7093   33.3696   15.6909 N   0  0  0  0  0  0  0  0  0  0  0  0
   16.3835   33.9877   15.4991 C   0  0  0  0  0  0  0  0  0  0  0  0
   16.0243   34.8633   16.7212 C   0  0  0  0  0  0  0  0  0  0  0  0
   20.0966   33.7859   16.2886 C   0  0  0  0  0  0  0  0  0  0  0  0
   20.1879   32.8017   17.0369 O   0  0  0  0  0  0  0  0  0  0  0  0
   21.1213   34.4063   15.7496 N   0  0  0  0  0  0  0  0  0  0  0  0
   20.9400   35.1941   15.1876 H   0  0  0  0  0  0  0  0  0  0  0  0
   22.5515   33.9898   15.9363 C   0  0  0  0  0  0  0  0  0  0  0  0
   23.3503   34.9391   15.0421 C   0  0  0  0  0  0  0  0  0  0  0  0
   22.7468   32.6167   15.5431 C   0  0  0  0  0  0  0  0  0  0  0  0
   22.9226   34.2177   17.3559 C   0  0  0  0  0  0  0  0  0  0  0  0
   16.6476   36.6389   18.1631 C   0  0  0  0  0  0  0  0  0  0  0  0
   16.9792   38.1205   18.0614 C   0  0  0  0  0  0  0  0  0  0  0  0
   16.9303   38.7801   16.8291 C   0  0  0  0  0  0  0  0  0  0  0  0
   17.2194   40.1141   16.6642 N   0  0  0  0  0  0  0  0  0  0  0  0
   17.5308   40.7935   17.8139 C   0  0  0  0  0  0  0  0  0  0  0  0
   17.5675   40.2104   19.0787 C   0  0  0  0  0  0  0  0  0  0  0  0
   17.3147   38.8476   19.1755 C   0  0  0  0  0  0  0  0  0  0  0  0
   18.5241   30.2603   13.6219 C   0  0  0  0  0  0  0  0  0  0  0  0
   19.4442   29.0525   13.7285 C   0  0  0  0  0  0  0  0  0  0  0  0
   20.5167   29.0174   12.6423 C   0  0  0  0  0  0  0  0  0  0  0  0
   20.6978   29.9825   11.8551 O   0  0  0  0  0  0  0  0  0  0  0  0
   21.2094   27.9030   12.5499 N   0  0  0  0  0  0  0  0  0  0  0  0
   21.1785   27.2640   13.2981 H   0  0  0  0  0  0  0  0  0  0  0  0
   22.0124   27.5800   11.3960 C   0  0  0  0  0  0  0  0  0  0  0  0
   21.8391   26.1765   10.8691 C   0  0  0  0  0  0  0  0  0  0  0  0
   21.7845   25.2615   11.9618 O   0  0  0  0  0  0  0  0  0  0  0  0
   23.1224   25.9166   10.0779 C   0  0  0  0  0  0  0  0  0  0  0  0
   24.2060   26.6973   10.7763 C   0  0  0  0  0  0  0  0  0  0  0  0
   25.5725   26.6432   10.8051 C   0  0  0  0  0  0  0  0  0  0  0  0
   26.2907   27.5094   11.5790 C   0  0  0  0  0  0  0  0  0  0  0  0
   25.6733   28.5036   12.3481 C   0  0  0  0  0  0  0  0  0  0  0  0
   24.2905   28.5847   12.3421 C   0  0  0  0  0  0  0  0  0  0  0  0
   23.5217   27.7301   11.6016 C   0  0  0  0  0  0  0  0  0  0  0  0
   22.5858   25.3530   12.5006 H   0  0  0  0  0  0  0  0  0  0  0  0
   18.6470   27.7344   13.6242 C   0  0  0  0  0  0  0  0  0  0  0  0
   18.2709   27.3316   12.2560 C   0  0  0  0  0  0  0  0  0  0  0  0
   18.3889   26.0124   11.8379 C   0  0  0  0  0  0  0  0  0  0  0  0
   18.0344   25.6506   10.5472 C   0  0  0  0  0  0  0  0  0  0  0  0
   17.5660   26.6060    9.6384 C   0  0  0  0  0  0  0  0  0  0  0  0
   17.4533   27.9258   10.0764 C   0  0  0  0  0  0  0  0  0  0  0  0
   17.7722   28.2856   11.3543 C   0  0  0  0  0  0  0  0  0  0  0  0
  5  6  1  0  0  0
  5 10  1  0  0  0
  5 19  1  0  0  0
  6  7  1  0  0  0
  7 11  1  0  0  0
  7  8  1  0  0  0
 11 12  2  0  0  0
 11 13  1  0  0  0
 13 15  1  0  0  0
 15 16  1  0  0  0
 15 17  1  0  0  0
 15 18  1  0  0  0
  8  9  1  0  0  0
  8  4  1  0  0  0
  9 10  1  0  0  0
  4  1  1  0  0  0
  1  2  1  0  0  0
  1 26  1  0  0  0
 26 27  1  0  0  0
 27 43  1  0  0  0
 27 28  1  0  0  0
 43 44  1  0  0  0
 44 45  2  0  0  0
 44 49  1  0  0  0
 45 46  1  0  0  0
 46 47  2  0  0  0
 47 48  1  0  0  0
 48 49  2  0  0  0
 28 29  2  0  0  0
 28 30  1  0  0  0
 30 32  1  0  0  0
 32 33  1  0  0  0
 32 41  1  0  0  0
 33 34  1  0  0  0
 33 35  1  0  0  0
 35 36  1  0  0  0
 36 37  2  0  0  0
 36 41  1  0  0  0
 37 38  1  0  0  0
 38 39  2  0  0  0
 39 40  1  0  0  0
 40 41  2  0  0  0
 19 20  1  0  0  0
 20 21  1  0  0  0
 20 25  2  0  0  0
 21 22  2  0  0  0
 22 23  1  0  0  0
 23 24  2  0  0  0
 24 25  1  0  0  0
 13 14  1  0  0  0
  2  3  1  0  0  0
 30 31  1  0  0  0
 34 42  1  0  0  0
M  END
> <minimizedAffinity>
-10.33347

$$$$
2AVS_MK1_B_902


 49 53  0  0  0  0  0  0  0  0999 V2000
   21.7312   32.6311   15.8973 C   0  0  0  0  0  0  0  0  0  0  0  0
   22.8852   32.2372   16.6447 O   0  0  0  0  0  0  0  0  0  0  0  0
   22.6063   31.7715   17.4486 H   0  0  0  0  0  0  0  0  0  0  0  0
   20.8848   33.5915   16.7050 C   0  0  0  0  0  0  0  0  0  0  0  0
   22.5500   37.4586   16.3258 N   0  0  0  0  0  0  0  0  0  0  0  0
   21.1903   37.3254   16.9128 C   0  0  0  0  0  0  0  0  0  0  0  0
   20.9040   35.9448   17.4463 C   0  0  0  0  0  0  0  0  0  0  0  0
   21.0672   34.9770   16.3025 N   0  0  0  0  0  0  0  0  0  0  0  0
   22.3953   35.0949   15.6711 C   0  0  0  0  0  0  0  0  0  0  0  0
   22.6445   36.5544   15.2276 C   0  0  0  0  0  0  0  0  0  0  0  0
   19.5238   35.9251   18.0198 C   0  0  0  0  0  0  0  0  0  0  0  0
   19.2666   35.3006   19.0593 O   0  0  0  0  0  0  0  0  0  0  0  0
   18.6341   36.5750   17.3047 N   0  0  0  0  0  0  0  0  0  0  0  0
   18.9398   37.0196   16.4812 H   0  0  0  0  0  0  0  0  0  0  0  0
   17.1804   36.6828   17.6639 C   0  0  0  0  0  0  0  0  0  0  0  0
   16.5046   37.1938   16.3908 C   0  0  0  0  0  0  0  0  0  0  0  0
   16.9842   37.5977   18.7605 C   0  0  0  0  0  0  0  0  0  0  0  0
   16.6756   35.3226   17.9802 C   0  0  0  0  0  0  0  0  0  0  0  0
   22.7265   38.8444   15.8358 C   0  0  0  0  0  0  0  0  0  0  0  0
   22.7008   39.8818   16.9487 C   0  0  0  0  0  0  0  0  0  0  0  0
   23.4516   39.6974   18.1141 C   0  0  0  0  0  0  0  0  0  0  0  0
   23.4734   40.5910   19.1587 N   0  0  0  0  0  0  0  0  0  0  0  0
   22.7265   41.7263   18.9754 C   0  0  0  0  0  0  0  0  0  0  0  0
   21.9805   41.9924   17.8292 C   0  0  0  0  0  0  0  0  0  0  0  0
   21.9579   41.0290   16.8283 C   0  0  0  0  0  0  0  0  0  0  0  0
   20.9638   31.3557   15.5326 C   0  0  0  0  0  0  0  0  0  0  0  0
   20.0814   31.4259   14.2944 C   0  0  0  0  0  0  0  0  0  0  0  0
   20.8216   31.0646   13.0088 C   0  0  0  0  0  0  0  0  0  0  0  0
   20.6343   31.6930   11.9346 O   0  0  0  0  0  0  0  0  0  0  0  0
   21.6323   30.0312   13.0796 N   0  0  0  0  0  0  0  0  0  0  0  0
   21.9008   29.7011   13.9674 H   0  0  0  0  0  0  0  0  0  0  0  0
   22.1436   29.3621   11.9085 C   0  0  0  0  0  0  0  0  0  0  0  0
   21.3409   28.1683   11.4525 C   0  0  0  0  0  0  0  0  0  0  0  0
   20.9525   27.3951   12.5863 O   0  0  0  0  0  0  0  0  0  0  0  0
   22.3312   27.3518   10.6203 C   0  0  0  0  0  0  0  0  0  0  0  0
   23.6860   27.5888   11.2367 C   0  0  0  0  0  0  0  0  0  0  0  0
   24.8887   26.9377   11.2102 C   0  0  0  0  0  0  0  0  0  0  0  0
   25.9578   27.4144   11.9136 C   0  0  0  0  0  0  0  0  0  0  0  0
   25.8858   28.5953   12.6630 C   0  0  0  0  0  0  0  0  0  0  0  0
   24.6816   29.2783   12.7117 C   0  0  0  0  0  0  0  0  0  0  0  0
   23.5742   28.8350   12.0432 C   0  0  0  0  0  0  0  0  0  0  0  0
   21.7421   27.1350   13.0862 H   0  0  0  0  0  0  0  0  0  0  0  0
   19.5022   32.8443   14.1032 C   0  0  0  0  0  0  0  0  0  0  0  0
   18.0879   33.0052   14.4895 C   0  0  0  0  0  0  0  0  0  0  0  0
   17.4164   32.0094   15.1870 C   0  0  0  0  0  0  0  0  0  0  0  0
   16.0857   32.1746   15.5397 C   0  0  0  0  0  0  0  0  0  0  0  0
   15.3904   33.3371   15.1888 C   0  0  0  0  0  0  0  0  0  0  0  0
   16.0814   34.3268   14.4891 C   0  0  0  0  0  0  0  0  0  0  0  0
   17.3998   34.1851   14.1635 C   0  0  0  0  0  0  0  0  0  0  0  0
  5  6  1  0  0  0
  5 10  1  0  0  0
  5 19  1  0  0  0
  6  7  1  0  0  0
  7 11  1  0  0  0
  7  8  1  0  0  0
 11 12  2  0  0  0
 11 13  1  0  0  0
 13 15  1  0  0  0
 15 16  1  0  0  0
 15 17  1  0  0  0
 15 18  1  0  0  0
  8  9  1  0  0  0
  8  4  1  0  0  0
  9 10  1  0  0  0
  4  1  1  0  0  0
  1  2  1  0  0  0
  1 26  1  0  0  0
 26 27  1  0  0  0
 27 43  1  0  0  0
 27 28  1  0  0  0
 43 44  1  0  0  0
 44 45  2  0  0  0
 44 49  1  0  0  0
 45 46  1  0  0  0
 46 47  2  0  0  0
 47 48  1  0  0  0
 48 49  2  0  0  0
 28 29  2  0  0  0
 28 30  1  0  0  0
 30 32  1  0  0  0
 32 33  1  0  0  0
 32 41  1  0  0  0
 33 34  1  0  0  0
 33 35  1  0  0  0
 35 36  1  0  0  0
 36 37  2  0  0  0
 36 41  1  0  0  0
 37 38  1  0  0  0
 38 39  2  0  0  0
 39 40  1  0  0  0
 40 41  2  0  0  0
 19 20  1  0  0  0
 20 21  1  0  0  0
 20 25  2  0  0  0
 21 22  2  0  0  0
 22 23  1  0  0  0
 23 24  2  0  0  0
 24 25  1  0  0  0
 13 14  1  0  0  0
  2  3  1  0  0  0
 30 31  1  0  0  0
 34 42  1  0  0  0
M  END
> <minimizedAffinity>
-10.29596

$$$$
2AVS_MK1_B_902


 49 53  0  0  0  0  0  0  0  0999 V2000
   20.4329   32.1125   13.8226 C   0  0  0  0  0  0  0  0  0  0  0  0
   20.5865   32.3072   12.4141 O   0  0  0  0  0  0  0  0  0  0  0  0
   21.4008   31.8734   12.1147 H   0  0  0  0  0  0  0  0  0  0  0  0
   21.5850   32.7494   14.5698 C   0  0  0  0  0  0  0  0  0  0  0  0
   21.8683   36.5321   16.4358 N   0  0  0  0  0  0  0  0  0  0  0  0
   20.5604   35.8249   16.4593 C   0  0  0  0  0  0  0  0  0  0  0  0
   20.6811   34.3406   16.2248 C   0  0  0  0  0  0  0  0  0  0  0  0
   21.3454   34.1486   14.8856 N   0  0  0  0  0  0  0  0  0  0  0  0
   22.6364   34.8586   14.8083 C   0  0  0  0  0  0  0  0  0  0  0  0
   22.4400   36.3550   15.1419 C   0  0  0  0  0  0  0  0  0  0  0  0
   19.3177   33.7304   16.2797 C   0  0  0  0  0  0  0  0  0  0  0  0
   19.1196   32.6451   16.8449 O   0  0  0  0  0  0  0  0  0  0  0  0
   18.3945   34.4169   15.6457 N   0  0  0  0  0  0  0  0  0  0  0  0
   18.6629   35.2577   15.2097 H   0  0  0  0  0  0  0  0  0  0  0  0
   16.9558   34.0000   15.5441 C   0  0  0  0  0  0  0  0  0  0  0  0
   16.3463   34.9610   14.5224 C   0  0  0  0  0  0  0  0  0  0  0  0
   16.2937   34.1084   16.8200 C   0  0  0  0  0  0  0  0  0  0  0  0
   16.9076   32.6150   15.0108 C   0  0  0  0  0  0  0  0  0  0  0  0
   21.6372   37.9745   16.6758 C   0  0  0  0  0  0  0  0  0  0  0  0
   22.9184   38.7509   16.9429 C   0  0  0  0  0  0  0  0  0  0  0  0
   23.0884   40.0436   16.4369 C   0  0  0  0  0  0  0  0  0  0  0  0
   24.2188   40.8001   16.6370 N   0  0  0  0  0  0  0  0  0  0  0  0
   25.1853   40.2165   17.4153 C   0  0  0  0  0  0  0  0  0  0  0  0
   25.0717   38.9475   17.9788 C   0  0  0  0  0  0  0  0  0  0  0  0
   23.9270   38.2108   17.7001 C   0  0  0  0  0  0  0  0  0  0  0  0
   20.3519   30.6024   14.0706 C   0  0  0  0  0  0  0  0  0  0  0  0
   20.6233   29.7030   12.8730 C   0  0  0  0  0  0  0  0  0  0  0  0
   19.3515   29.1278   12.2541 C   0  0  0  0  0  0  0  0  0  0  0  0
   18.2110   29.5761   12.5404 O   0  0  0  0  0  0  0  0  0  0  0  0
   19.5154   28.1085   11.4390 N   0  0  0  0  0  0  0  0  0  0  0  0
   20.4169   27.9232   11.0894 H   0  0  0  0  0  0  0  0  0  0  0  0
   18.4271   27.2514   11.0370 C   0  0  0  0  0  0  0  0  0  0  0  0
   18.4198   25.8846   11.6768 C   0  0  0  0  0  0  0  0  0  0  0  0
   19.7475   25.3642   11.7023 O   0  0  0  0  0  0  0  0  0  0  0  0
   17.5796   25.0335   10.7230 C   0  0  0  0  0  0  0  0  0  0  0  0
   17.8185   25.5956    9.3451 C   0  0  0  0  0  0  0  0  0  0  0  0
   17.6644   25.1279    8.0689 C   0  0  0  0  0  0  0  0  0  0  0  0
   17.9989   25.9022    6.9950 C   0  0  0  0  0  0  0  0  0  0  0  0
   18.4813   27.2085    7.1438 C   0  0  0  0  0  0  0  0  0  0  0  0
   18.6502   27.7121    8.4232 C   0  0  0  0  0  0  0  0  0  0  0  0
   18.3504   26.9730    9.5339 C   0  0  0  0  0  0  0  0  0  0  0  0
   20.1040   25.3435   10.8004 H   0  0  0  0  0  0  0  0  0  0  0  0
   21.5194   28.5086   13.2655 C   0  0  0  0  0  0  0  0  0  0  0  0
   22.8595   28.4965   12.6496 C   0  0  0  0  0  0  0  0  0  0  0  0
   23.1074   27.7838   11.4836 C   0  0  0  0  0  0  0  0  0  0  0  0
   24.3737   27.7798   10.9190 C   0  0  0  0  0  0  0  0  0  0  0  0
   25.4274   28.4791   11.5179 C   0  0  0  0  0  0  0  0  0  0  0  0
   25.1595   29.1900   12.6882 C   0  0  0  0  0  0  0  0  0  0  0  0
   23.9088   29.2235   13.2348 C   0  0  0  0  0  0  0  0  0  0  0  0
  5  6  1  0  0  0
  5 10  1  0  0  0
  5 19  1  0  0  0
  6  7  1  0  0  0
  7 11  1  0  0  0
  7  8  1  0  0  0
 11 12  2  0  0  0
 11 13  1  0  0  0
 13 15  1  0  0  0
 15 16  1  0  0  0
 15 17  1  0  0  0
 15 18  1  0  0  0
  8  9  1  0  0  0
  8  4  1  0  0  0
  9 10  1  0  0  0
  4  1  1  0  0  0
  1  2  1  0  0  0
  1 26  1  0  0  0
 26 27  1  0  0  0
 27 43  1  0  0  0
 27 28  1  0  0  0
 43 44  1  0  0  0
 44 45  2  0  0  0
 44 49  1  0  0  0
 45 46  1  0  0  0
 46 47  2  0  0  0
 47 48  1  0  0  0
 48 49  2  0  0  0
 28 29  2  0  0  0
 28 30  1  0  0  0
 30 32  1  0  0  0
 32 33  1  0  0  0
 32 41  1  0  0  0
 33 34  1  0  0  0
 33 35  1  0  0  0
 35 36  1  0  0  0
 36 37  2  0  0  0
 36 41  1  0  0  0
 37 38  1  0  0  0
 38 39  2  0  0  0
 39 40  1  0  0  0
 40 41  2  0  0  0
 19 20  1  0  0  0
 20 21  1  0  0  0
 20 25  2  0  0  0
 21 22  2  0  0  0
 22 23  1  0  0  0
 23 24  2  0  0  0
 24 25  1  0  0  0
 13 14  1  0  0  0
  2  3  1  0  0  0
 30 31  1  0  0  0
 34 42  1  0  0  0
M  END
> <minimizedAffinity>
-10.02656

$$$$
2AVS_MK1_B_902


 49 53  0  0  0  0  0  0  0  0999 V2000
   22.0247   32.9503   16.3356 C   0  0  0  0  0  0  0  0  0  0  0  0
   22.2675   32.0804   17.4445 O   0  0  0  0  0  0  0  0  0  0  0  0
   21.4952   31.5103   17.5834 H   0  0  0  0  0  0  0  0  0  0  0  0
   20.8436   33.8520   16.6240 C   0  0  0  0  0  0  0  0  0  0  0  0
   22.7903   37.5952   16.8891 N   0  0  0  0  0  0  0  0  0  0  0  0
   21.3832   37.4918   17.3586 C   0  0  0  0  0  0  0  0  0  0  0  0
   20.9638   36.0796   17.6784 C   0  0  0  0  0  0  0  0  0  0  0  0
   21.1498   35.2600   16.4273 N   0  0  0  0  0  0  0  0  0  0  0  0
   22.5280   35.3566   15.9098 C   0  0  0  0  0  0  0  0  0  0  0  0
   22.9089   36.8379   15.6871 C   0  0  0  0  0  0  0  0  0  0  0  0
   19.5450   36.0917   18.1485 C   0  0  0  0  0  0  0  0  0  0  0  0
   19.1716   35.3763   19.0896 O   0  0  0  0  0  0  0  0  0  0  0  0
   18.7535   36.8753   17.4521 N   0  0  0  0  0  0  0  0  0  0  0  0
   19.1477   37.3853   16.7080 H   0  0  0  0  0  0  0  0  0  0  0  0
   17.2857   37.0422   17.7193 C   0  0  0  0  0  0  0  0  0  0  0  0
   17.2094   38.1309   18.7907 C   0  0  0  0  0  0  0  0  0  0  0  0
   16.7008   35.8104   18.1866 C   0  0  0  0  0  0  0  0  0  0  0  0
   16.6366   37.5266   16.4747 C   0  0  0  0  0  0  0  0  0  0  0  0
   23.0975   39.0154   16.6056 C   0  0  0  0  0  0  0  0  0  0  0  0
   23.8946   39.6892   17.7128 C   0  0  0  0  0  0  0  0  0  0  0  0
   23.2985   40.6458   18.5409 C   0  0  0  0  0  0  0  0  0  0  0  0
   23.9587   41.2949   19.5573 N   0  0  0  0  0  0  0  0  0  0  0  0
   25.2627   40.9151   19.7465 C   0  0  0  0  0  0  0  0  0  0  0  0
   25.9119   39.9476   18.9826 C   0  0  0  0  0  0  0  0  0  0  0  0
   25.2080   39.3621   17.9375 C   0  0  0  0  0  0  0  0  0  0  0  0
   21.7876   32.0688   15.1047 C   0  0  0  0  0  0  0  0  0  0  0  0
   20.4492   31.3473   15.0351 C   0  0  0  0  0  0  0  0  0  0  0  0
   20.5837   29.8643   14.6975 C   0  0  0  0  0  0  0  0  0  0  0  0
   20.7248   28.9891   15.5907 O   0  0  0  0  0  0  0  0  0  0  0  0
   20.5877   29.5610   13.4175 N   0  0  0  0  0  0  0  0  0  0  0  0
   20.2763   30.2352   12.7711 H   0  0  0  0  0  0  0  0  0  0  0  0
   21.0300   28.2802   12.9232 C   0  0  0  0  0  0  0  0  0  0  0  0
   22.3927   28.2809   12.2748 C   0  0  0  0  0  0  0  0  0  0  0  0
   22.5245   29.4342   11.4460 O   0  0  0  0  0  0  0  0  0  0  0  0
   22.3798   27.0377   11.3836 C   0  0  0  0  0  0  0  0  0  0  0  0
   20.9525   26.8663   10.9308 C   0  0  0  0  0  0  0  0  0  0  0  0
   20.3355   26.2048    9.9047 C   0  0  0  0  0  0  0  0  0  0  0  0
   18.9798   26.2612    9.7511 C   0  0  0  0  0  0  0  0  0  0  0  0
   18.1608   26.9650   10.6429 C   0  0  0  0  0  0  0  0  0  0  0  0
   18.7544   27.6469   11.6924 C   0  0  0  0  0  0  0  0  0  0  0  0
   20.1087   27.6409   11.8814 C   0  0  0  0  0  0  0  0  0  0  0  0
   21.8086   29.4456   10.7916 H   0  0  0  0  0  0  0  0  0  0  0  0
   19.5324   31.9769   13.9641 C   0  0  0  0  0  0  0  0  0  0  0  0
   18.2740   32.5548   14.4721 C   0  0  0  0  0  0  0  0  0  0  0  0
   17.9209   33.8677   14.1883 C   0  0  0  0  0  0  0  0  0  0  0  0
   16.7360   34.3971   14.6764 C   0  0  0  0  0  0  0  0  0  0  0  0
   15.8820   33.6271   15.4738 C   0  0  0  0  0  0  0  0  0  0  0  0
   16.2528   32.3103   15.7477 C   0  0  0  0  0  0  0  0  0  0  0  0
   17.4031   31.7717   15.2469 C   0  0  0  0  0  0  0  0  0  0  0  0
  5  6  1  0  0  0
  5 10  1  0  0  0
  5 19  1  0  0  0
  6  7  1  0  0  0
  7 11  1  0  0  0
  7  8  1  0  0  0
 11 12  2  0  0  0
 11 13  1  0  0  0
 13 15  1  0  0  0
 15 16  1  0  0  0
 15 17  1  0  0  0
 15 18  1  0  0  0
  8  9  1  0  0  0
  8  4  1  0  0  0
  9 10  1  0  0  0
  4  1  1  0  0  0
  1  2  1  0  0  0
  1 26  1  0  0  0
 26 27  1  0  0  0
 27 43  1  0  0  0
 27 28  1  0  0  0
 43 44  1  0  0  0
 44 45  2  0  0  0
 44 49  1  0  0  0
 45 46  1  0  0  0
 46 47  2  0  0  0
 47 48  1  0  0  0
 48 49  2  0  0  0
 28 29  2  0  0  0
 28 30  1  0  0  0
 30 32  1  0  0  0
 32 33  1  0  0  0
 32 41  1  0  0  0
 33 34  1  0  0  0
 33 35  1  0  0  0
 35 36  1  0  0  0
 36 37  2  0  0  0
 36 41  1  0  0  0
 37 38  1  0  0  0
 38 39  2  0  0  0
 39 40  1  0  0  0
 40 41  2  0  0  0
 19 20  1  0  0  0
 20 21  1  0  0  0
 20 25  2  0  0  0
 21 22  2  0  0  0
 22 23  1  0  0  0
 23 24  2  0  0  0
 24 25  1  0  0  0
 13 14  1  0  0  0
  2  3  1  0  0  0
 30 31  1  0  0  0
 34 42  1  0  0  0
M  END
> <minimizedAffinity>
-9.90519

$$$$
2AVS_MK1_B_902


 49 53  0  0  0  0  0  0  0  0999 V2000
   21.7140   30.3392   14.4923 C   0  0  0  0  0  0  0  0  0  0  0  0
   21.6325   29.0097   15.0130 O   0  0  0  0  0  0  0  0  0  0  0  0
   22.5229   28.6290   15.0685 H   0  0  0  0  0  0  0  0  0  0  0  0
   22.2853   30.3203   13.0907 C   0  0  0  0  0  0  0  0  0  0  0  0
   23.5907   27.1344   10.6376 N   0  0  0  0  0  0  0  0  0  0  0  0
   22.1395   27.2481   10.9414 C   0  0  0  0  0  0  0  0  0  0  0  0
   21.7291   28.6305   11.3809 C   0  0  0  0  0  0  0  0  0  0  0  0
   22.5390   28.9732   12.6049 N   0  0  0  0  0  0  0  0  0  0  0  0
   23.9875   28.8460   12.3559 C   0  0  0  0  0  0  0  0  0  0  0  0
   24.3134   27.4293   11.8306 C   0  0  0  0  0  0  0  0  0  0  0  0
   20.2584   28.6358   11.6482 C   0  0  0  0  0  0  0  0  0  0  0  0
   19.6286   29.6969   11.7665 O   0  0  0  0  0  0  0  0  0  0  0  0
   19.7323   27.4404   11.7886 N   0  0  0  0  0  0  0  0  0  0  0  0
   20.3269   26.6611   11.6971 H   0  0  0  0  0  0  0  0  0  0  0  0
   18.2814   27.1876   12.0799 C   0  0  0  0  0  0  0  0  0  0  0  0
   18.1214   25.6715   11.9587 C   0  0  0  0  0  0  0  0  0  0  0  0
   17.4361   27.8770   11.1374 C   0  0  0  0  0  0  0  0  0  0  0  0
   18.0065   27.6040   13.4784 C   0  0  0  0  0  0  0  0  0  0  0  0
   23.8847   25.7456   10.2176 C   0  0  0  0  0  0  0  0  0  0  0  0
   23.5756   25.4845    8.7507 C   0  0  0  0  0  0  0  0  0  0  0  0
   24.5299   25.7463    7.7625 C   0  0  0  0  0  0  0  0  0  0  0  0
   24.3177   25.5367    6.4203 N   0  0  0  0  0  0  0  0  0  0  0  0
   23.0963   25.0048    6.0954 C   0  0  0  0  0  0  0  0  0  0  0  0
   22.1104   24.6889    7.0277 C   0  0  0  0  0  0  0  0  0  0  0  0
   22.3639   24.9696    8.3647 C   0  0  0  0  0  0  0  0  0  0  0  0
   22.5817   31.1564   15.4555 C   0  0  0  0  0  0  0  0  0  0  0  0
   21.9050   32.3314   16.1470 C   0  0  0  0  0  0  0  0  0  0  0  0
   20.4440   32.0606   16.4982 C   0  0  0  0  0  0  0  0  0  0  0  0
   20.0578   30.9388   16.9178 O   0  0  0  0  0  0  0  0  0  0  0  0
   19.6068   33.0546   16.2946 N   0  0  0  0  0  0  0  0  0  0  0  0
   19.9710   33.9598   16.1629 H   0  0  0  0  0  0  0  0  0  0  0  0
   18.1766   32.8714   16.2566 C   0  0  0  0  0  0  0  0  0  0  0  0
   17.6134   32.5148   14.9027 C   0  0  0  0  0  0  0  0  0  0  0  0
   18.2437   33.3104   13.9007 O   0  0  0  0  0  0  0  0  0  0  0  0
   16.1415   32.9210   14.9948 C   0  0  0  0  0  0  0  0  0  0  0  0
   16.0960   34.1096   15.9204 C   0  0  0  0  0  0  0  0  0  0  0  0
   15.2041   35.1198   16.1553 C   0  0  0  0  0  0  0  0  0  0  0  0
   15.4721   36.0886   17.0796 C   0  0  0  0  0  0  0  0  0  0  0  0
   16.6447   36.0794   17.8453 C   0  0  0  0  0  0  0  0  0  0  0  0
   17.5695   35.0705   17.6311 C   0  0  0  0  0  0  0  0  0  0  0  0
   17.3613   34.0870   16.7043 C   0  0  0  0  0  0  0  0  0  0  0  0
   18.1232   34.2498   14.1105 H   0  0  0  0  0  0  0  0  0  0  0  0
   21.9332   33.5927   15.2569 C   0  0  0  0  0  0  0  0  0  0  0  0
   22.2705   34.8484   15.9532 C   0  0  0  0  0  0  0  0  0  0  0  0
   22.3704   36.0485   15.2614 C   0  0  0  0  0  0  0  0  0  0  0  0
   22.6918   37.2198   15.9303 C   0  0  0  0  0  0  0  0  0  0  0  0
   22.9355   37.2143   17.3081 C   0  0  0  0  0  0  0  0  0  0  0  0
   22.8299   35.9997   17.9865 C   0  0  0  0  0  0  0  0  0  0  0  0
   22.4850   34.8470   17.3410 C   0  0  0  0  0  0  0  0  0  0  0  0
  5  6  1  0  0  0
  5 10  1  0  0  0
  5 19  1  0  0  0
  6  7  1  0  0  0
  7 11  1  0  0  0
  7  8  1  0  0  0
 11 12  2  0  0  0
 11 13  1  0  0  0
 13 15  1  0  0  0
 15 16  1  0  0  0
 15 17  1  0  0  0
 15 18  1  0  0  0
  8  9  1  0  0  0
  8  4  1  0  0  0
  9 10  1  0  0  0
  4  1  1  0  0  0
  1  2  1  0  0  0
  1 26  1  0  0  0
 26 27  1  0  0  0
 27 43  1  0  0  0
 27 28  1  0  0  0
 43 44  1  0  0  0
 44 45  2  0  0  0
 44 49  1  0  0  0
 45 46  1  0  0  0
 46 47  2  0  0  0
 47 48  1  0  0  0
 48 49  2  0  0  0
 28 29  2  0  0  0
 28 30  1  0  0  0
 30 32  1  0  0  0
 32 33  1  0  0  0
 32 41  1  0  0  0
 33 34  1  0  0  0
 33 35  1  0  0  0
 35 36  1  0  0  0
 36 37  2  0  0  0
 36 41  1  0  0  0
 37 38  1  0  0  0
 38 39  2  0  0  0
 39 40  1  0  0  0
 40 41  2  0  0  0
 19 20  1  0  0  0
 20 21  1  0  0  0
 20 25  2  0  0  0
 21 22  2  0  0  0
 22 23  1  0  0  0
 23 24  2  0  0  0
 24 25  1  0  0  0
 13 14  1  0  0  0
  2  3  1  0  0  0
 30 31  1  0  0  0
 34 42  1  0  0  0
M  END
> <minimizedAffinity>
-9.82394

$$$$
2AVS_MK1_B_902


 49 53  0  0  0  0  0  0  0  0999 V2000
   20.8569   30.8362   15.6646 C   0  0  0  0  0  0  0  0  0  0  0  0
   20.6647   30.0528   16.8456 O   0  0  0  0  0  0  0  0  0  0  0  0
   21.5218   29.7226   17.1576 H   0  0  0  0  0  0  0  0  0  0  0  0
   21.4426   29.9846   14.5587 C   0  0  0  0  0  0  0  0  0  0  0  0
   18.5283   28.3232   11.9861 N   0  0  0  0  0  0  0  0  0  0  0  0
   19.8868   28.5885   11.4428 C   0  0  0  0  0  0  0  0  0  0  0  0
   20.9445   28.7013   12.5111 C   0  0  0  0  0  0  0  0  0  0  0  0
   20.5336   29.8182   13.4358 N   0  0  0  0  0  0  0  0  0  0  0  0
   19.1772   29.6094   13.9772 C   0  0  0  0  0  0  0  0  0  0  0  0
   18.1678   29.4204   12.8220 C   0  0  0  0  0  0  0  0  0  0  0  0
   22.2650   28.9555   11.8585 C   0  0  0  0  0  0  0  0  0  0  0  0
   22.4527   29.9565   11.1518 O   0  0  0  0  0  0  0  0  0  0  0  0
   23.1581   28.0146   12.0654 N   0  0  0  0  0  0  0  0  0  0  0  0
   22.8988   27.2480   12.6260 H   0  0  0  0  0  0  0  0  0  0  0  0
   24.5490   28.0347   11.5010 C   0  0  0  0  0  0  0  0  0  0  0  0
   25.1396   26.6760   11.8803 C   0  0  0  0  0  0  0  0  0  0  0  0
   25.3213   29.1135   12.0648 C   0  0  0  0  0  0  0  0  0  0  0  0
   24.4516   28.1367   10.0228 C   0  0  0  0  0  0  0  0  0  0  0  0
   17.5718   28.2304   10.8601 C   0  0  0  0  0  0  0  0  0  0  0  0
   17.9908   27.2239    9.7986 C   0  0  0  0  0  0  0  0  0  0  0  0
   17.8586   25.8502   10.0255 C   0  0  0  0  0  0  0  0  0  0  0  0
   18.2187   24.8867    9.1133 N   0  0  0  0  0  0  0  0  0  0  0  0
   18.6938   25.3596    7.9170 C   0  0  0  0  0  0  0  0  0  0  0  0
   18.8225   26.7122    7.6088 C   0  0  0  0  0  0  0  0  0  0  0  0
   18.4892   27.6385    8.5894 C   0  0  0  0  0  0  0  0  0  0  0  0
   21.7737   32.0069   16.0352 C   0  0  0  0  0  0  0  0  0  0  0  0
   21.2803   33.3983   15.6647 C   0  0  0  0  0  0  0  0  0  0  0  0
   22.4004   34.4336   15.5956 C   0  0  0  0  0  0  0  0  0  0  0  0
   23.5906   34.1100   15.3460 O   0  0  0  0  0  0  0  0  0  0  0  0
   22.0557   35.6761   15.8557 N   0  0  0  0  0  0  0  0  0  0  0  0
   21.1003   35.9136   15.8450 H   0  0  0  0  0  0  0  0  0  0  0  0
   23.0216   36.7045   16.1558 C   0  0  0  0  0  0  0  0  0  0  0  0
   23.2816   36.9282   17.6254 C   0  0  0  0  0  0  0  0  0  0  0  0
   22.0458   36.9000   18.3369 O   0  0  0  0  0  0  0  0  0  0  0  0
   23.8500   38.3470   17.6895 C   0  0  0  0  0  0  0  0  0  0  0  0
   23.1943   39.1080   16.5660 C   0  0  0  0  0  0  0  0  0  0  0  0
   22.9946   40.4307   16.2802 C   0  0  0  0  0  0  0  0  0  0  0  0
   22.3252   40.8092   15.1517 C   0  0  0  0  0  0  0  0  0  0  0  0
   21.8428   39.8748   14.2267 C   0  0  0  0  0  0  0  0  0  0  0  0
   22.0276   38.5268   14.4870 C   0  0  0  0  0  0  0  0  0  0  0  0
   22.6727   38.0918   15.6114 C   0  0  0  0  0  0  0  0  0  0  0  0
   21.4445   37.5652   17.9669 H   0  0  0  0  0  0  0  0  0  0  0  0
   20.2464   33.9134   16.6892 C   0  0  0  0  0  0  0  0  0  0  0  0
   18.8627   34.0195   16.1896 C   0  0  0  0  0  0  0  0  0  0  0  0
   17.8515   34.5465   16.9826 C   0  0  0  0  0  0  0  0  0  0  0  0
   16.5550   34.6361   16.4994 C   0  0  0  0  0  0  0  0  0  0  0  0
   16.2369   34.1857   15.2133 C   0  0  0  0  0  0  0  0  0  0  0  0
   17.2657   33.6601   14.4310 C   0  0  0  0  0  0  0  0  0  0  0  0
   18.5507   33.5952   14.8879 C   0  0  0  0  0  0  0  0  0  0  0  0
  5  6  1  0  0  0
  5 10  1  0  0  0
  5 19  1  0  0  0
  6  7  1  0  0  0
  7 11  1  0  0  0
  7  8  1  0  0  0
 11 12  2  0  0  0
 11 13  1  0  0  0
 13 15  1  0  0  0
 15 16  1  0  0  0
 15 17  1  0  0  0
 15 18  1  0  0  0
  8  9  1  0  0  0
  8  4  1  0  0  0
  9 10  1  0  0  0
  4  1  1  0  0  0
  1  2  1  0  0  0
  1 26  1  0  0  0
 26 27  1  0  0  0
 27 43  1  0  0  0
 27 28  1  0  0  0
 43 44  1  0  0  0
 44 45  2  0  0  0
 44 49  1  0  0  0
 45 46  1  0  0  0
 46 47  2  0  0  0
 47 48  1  0  0  0
 48 49  2  0  0  0
 28 29  2  0  0  0
 28 30  1  0  0  0
 30 32  1  0  0  0
 32 33  1  0  0  0
 32 41  1  0  0  0
 33 34  1  0  0  0
 33 35  1  0  0  0
 35 36  1  0  0  0
 36 37  2  0  0  0
 36 41  1  0  0  0
 37 38  1  0  0  0
 38 39  2  0  0  0
 39 40  1  0  0  0
 40 41  2  0  0  0
 19 20  1  0  0  0
 20 21  1  0  0  0
 20 25  2  0  0  0
 21 22  2  0  0  0
 22 23  1  0  0  0
 23 24  2  0  0  0
 24 25  1  0  0  0
 13 14  1  0  0  0
  2  3  1  0  0  0
 30 31  1  0  0  0
 34 42  1  0  0  0
M  END
> <minimizedAffinity>
-9.55317

$$$$
