4M14_QWS_A_701


 31 33  0  0  0  0  0  0  0  0999 V2000
    9.3784    5.5809   21.4545 N   0  0  0  0  0  0  0  0  0  0  0  0
   10.2297    6.5966   21.2082 N   0  0  0  0  0  0  0  0  0  0  0  0
   10.1006    6.8533   19.8995 C   0  0  0  0  0  0  0  0  0  0  0  0
    9.1615    5.9827   19.2932 C   0  0  0  0  0  0  0  0  0  0  0  0
    8.7298    5.1688   20.3193 C   0  0  0  0  0  0  0  0  0  0  0  0
    9.2226    5.0025   22.7331 C   0  0  0  0  0  0  0  0  0  0  0  0
   10.3357    4.3856   23.2714 C   0  0  0  0  0  0  0  0  0  0  0  0
   10.2672    3.7771   24.5075 C   0  0  0  0  0  0  0  0  0  0  0  0
    9.0711    3.7610   25.1960 C   0  0  0  0  0  0  0  0  0  0  0  0
    8.0159    5.0084   23.4234 C   0  0  0  0  0  0  0  0  0  0  0  0
    7.9546    4.3676   24.6586 C   0  0  0  0  0  0  0  0  0  0  0  0
    6.7836    4.3474   25.3858 C   0  0  0  0  0  0  0  0  0  0  0  0
    5.6463    4.9437   24.8828 C   0  0  0  0  0  0  0  0  0  0  0  0
    5.6888    5.5855   23.6624 C   0  0  0  0  0  0  0  0  0  0  0  0
    6.8733    5.6226   22.9390 C   0  0  0  0  0  0  0  0  0  0  0  0
    4.4727    6.1155   23.2376 O   0  0  0  0  0  0  0  0  0  0  0  0
    3.7957    5.3547   22.2366 C   0  0  0  0  0  0  0  0  0  0  0  0
    3.0609    4.2110   22.9029 C   0  0  0  0  0  0  0  0  0  0  0  0
    2.7611    6.2820   21.6417 C   0  0  0  0  0  0  0  0  0  0  0  0
    8.7759    5.9416   17.9548 N   0  0  0  0  0  0  0  0  0  0  0  0
    7.8438    6.8322   17.4399 C   0  0  0  0  0  0  0  0  0  0  0  0
    7.3398    6.3877   16.2436 N   0  0  0  0  0  0  0  0  0  0  0  0
    7.4914    7.8764   17.9960 O   0  0  0  0  0  0  0  0  0  0  0  0
    9.1738    5.2652   17.3604 H   0  0  0  0  0  0  0  0  0  0  0  0
    6.6665    6.9224   15.7640 H   0  0  0  0  0  0  0  0  0  0  0  0
    7.6515    5.5341   15.8649 H   0  0  0  0  0  0  0  0  0  0  0  0
   10.8620    7.8968   19.2603 C   0  0  0  0  0  0  0  0  0  0  0  0
   10.1746    9.0811   19.1301 N   0  0  0  0  0  0  0  0  0  0  0  0
   12.0206    7.7257   18.9081 O   0  0  0  0  0  0  0  0  0  0  0  0
    9.2413    9.1448   19.4370 H   0  0  0  0  0  0  0  0  0  0  0  0
   10.6158    9.8650   18.7300 H   0  0  0  0  0  0  0  0  0  0  0  0
  8  9  2  0  0  0
  8  7  1  0  0  0
  9 11  1  0  0  0
  7  6  2  0  0  0
 11 12  2  0  0  0
 11 10  1  0  0  0
 12 13  1  0  0  0
  6 10  1  0  0  0
  6  1  1  0  0  0
 10 15  2  0  0  0
  1  2  1  0  0  0
  1  5  1  0  0  0
 13 14  2  0  0  0
  2  3  2  0  0  0
  5  4  2  0  0  0
 15 14  1  0  0  0
 14 16  1  0  0  0
  3  4  1  0  0  0
  3 27  1  0  0  0
  4 20  1  0  0  0
 23 21  2  0  0  0
 28 27  1  0  0  0
 27 29  2  0  0  0
 20 21  1  0  0  0
 16 17  1  0  0  0
 21 22  1  0  0  0
 19 17  1  0  0  0
 17 18  1  0  0  0
 20 24  1  0  0  0
 22 25  1  0  0  0
 22 26  1  0  0  0
 28 30  1  0  0  0
 28 31  1  0  0  0
M  END
> <minimizedAffinity>
-7.63059

$$$$
4M14_QWS_A_701


 31 33  0  0  0  0  0  0  0  0999 V2000
    7.3250    6.0065   21.2553 N   0  0  0  0  0  0  0  0  0  0  0  0
    7.6460    7.3157   21.2450 N   0  0  0  0  0  0  0  0  0  0  0  0
    8.3395    7.4981   20.1131 C   0  0  0  0  0  0  0  0  0  0  0  0
    8.4762    6.2868   19.3909 C   0  0  0  0  0  0  0  0  0  0  0  0
    7.8256    5.3472   20.1626 C   0  0  0  0  0  0  0  0  0  0  0  0
    6.5923    5.4039   22.3011 C   0  0  0  0  0  0  0  0  0  0  0  0
    5.2176    5.3867   22.1616 C   0  0  0  0  0  0  0  0  0  0  0  0
    4.4230    4.8357   23.1453 C   0  0  0  0  0  0  0  0  0  0  0  0
    5.0051    4.3247   24.2877 C   0  0  0  0  0  0  0  0  0  0  0  0
    7.1928    4.8774   23.4390 C   0  0  0  0  0  0  0  0  0  0  0  0
    6.3765    4.3478   24.4357 C   0  0  0  0  0  0  0  0  0  0  0  0
    6.9212    3.8099   25.5822 C   0  0  0  0  0  0  0  0  0  0  0  0
    8.2881    3.8134   25.7665 C   0  0  0  0  0  0  0  0  0  0  0  0
    9.1123    4.3311   24.7890 C   0  0  0  0  0  0  0  0  0  0  0  0
    8.5647    4.8552   23.6257 C   0  0  0  0  0  0  0  0  0  0  0  0
   10.4698    4.3180   25.1012 O   0  0  0  0  0  0  0  0  0  0  0  0
   11.2671    5.2591   24.3816 C   0  0  0  0  0  0  0  0  0  0  0  0
   11.6439    6.3941   25.3100 C   0  0  0  0  0  0  0  0  0  0  0  0
   12.5363    4.5274   24.0104 C   0  0  0  0  0  0  0  0  0  0  0  0
    9.1390    6.0839   18.1822 N   0  0  0  0  0  0  0  0  0  0  0  0
   10.5205    6.1806   18.0863 C   0  0  0  0  0  0  0  0  0  0  0  0
   10.9194    6.3212   16.7811 N   0  0  0  0  0  0  0  0  0  0  0  0
   11.2918    6.1689   19.0501 O   0  0  0  0  0  0  0  0  0  0  0  0
    8.6153    5.8669   17.3773 H   0  0  0  0  0  0  0  0  0  0  0  0
   11.8765    6.4014   16.5648 H   0  0  0  0  0  0  0  0  0  0  0  0
   10.2486    6.3420   16.0608 H   0  0  0  0  0  0  0  0  0  0  0  0
    8.8548    8.7939   19.7488 C   0  0  0  0  0  0  0  0  0  0  0  0
   10.1704    8.9840   20.1022 N   0  0  0  0  0  0  0  0  0  0  0  0
    8.1721    9.6142   19.1516 O   0  0  0  0  0  0  0  0  0  0  0  0
   10.6580    8.2769   20.5833 H   0  0  0  0  0  0  0  0  0  0  0  0
   10.6245    9.8272   19.8740 H   0  0  0  0  0  0  0  0  0  0  0  0
  8  9  2  0  0  0
  8  7  1  0  0  0
  9 11  1  0  0  0
  7  6  2  0  0  0
 11 12  2  0  0  0
 11 10  1  0  0  0
 12 13  1  0  0  0
  6 10  1  0  0  0
  6  1  1  0  0  0
 10 15  2  0  0  0
  1  2  1  0  0  0
  1  5  1  0  0  0
 13 14  2  0  0  0
  2  3  2  0  0  0
  5  4  2  0  0  0
 15 14  1  0  0  0
 14 16  1  0  0  0
  3  4  1  0  0  0
  3 27  1  0  0  0
  4 20  1  0  0  0
 23 21  2  0  0  0
 28 27  1  0  0  0
 27 29  2  0  0  0
 20 21  1  0  0  0
 16 17  1  0  0  0
 21 22  1  0  0  0
 19 17  1  0  0  0
 17 18  1  0  0  0
 20 24  1  0  0  0
 22 25  1  0  0  0
 22 26  1  0  0  0
 28 30  1  0  0  0
 28 31  1  0  0  0
M  END
> <minimizedAffinity>
-7.38112

$$$$
4M14_QWS_A_701


 31 33  0  0  0  0  0  0  0  0999 V2000
    7.1502    6.2117   21.5928 N   0  0  0  0  0  0  0  0  0  0  0  0
    7.6744    7.4225   21.8687 N   0  0  0  0  0  0  0  0  0  0  0  0
    8.3535    7.7701   20.7671 C   0  0  0  0  0  0  0  0  0  0  0  0
    8.2744    6.7636   19.7732 C   0  0  0  0  0  0  0  0  0  0  0  0
    7.5066    5.7709   20.3447 C   0  0  0  0  0  0  0  0  0  0  0  0
    6.3631    5.4877   22.5147 C   0  0  0  0  0  0  0  0  0  0  0  0
    5.0081    5.4218   22.2517 C   0  0  0  0  0  0  0  0  0  0  0  0
    4.1620    4.7519   23.1108 C   0  0  0  0  0  0  0  0  0  0  0  0
    4.6700    4.1690   24.2541 C   0  0  0  0  0  0  0  0  0  0  0  0
    6.8907    4.8906   23.6539 C   0  0  0  0  0  0  0  0  0  0  0  0
    6.0208    4.2399   24.5258 C   0  0  0  0  0  0  0  0  0  0  0  0
    6.4927    3.6282   25.6675 C   0  0  0  0  0  0  0  0  0  0  0  0
    7.8367    3.6762   25.9733 C   0  0  0  0  0  0  0  0  0  0  0  0
    8.7135    4.3137   25.1202 C   0  0  0  0  0  0  0  0  0  0  0  0
    8.2408    4.9130   23.9603 C   0  0  0  0  0  0  0  0  0  0  0  0
   10.0382    4.3336   25.5506 O   0  0  0  0  0  0  0  0  0  0  0  0
   10.9624    4.9339   24.6425 C   0  0  0  0  0  0  0  0  0  0  0  0
   11.8193    5.9264   25.3994 C   0  0  0  0  0  0  0  0  0  0  0  0
   11.8624    3.8159   24.1690 C   0  0  0  0  0  0  0  0  0  0  0  0
    8.8599    6.7648   18.5087 N   0  0  0  0  0  0  0  0  0  0  0  0
    8.2635    7.4083   17.4329 C   0  0  0  0  0  0  0  0  0  0  0  0
    8.7892    6.9759   16.2416 N   0  0  0  0  0  0  0  0  0  0  0  0
    7.3586    8.2423   17.5298 O   0  0  0  0  0  0  0  0  0  0  0  0
    9.7165    6.2985   18.3751 H   0  0  0  0  0  0  0  0  0  0  0  0
    8.4580    7.3492   15.3930 H   0  0  0  0  0  0  0  0  0  0  0  0
    9.4977    6.2924   16.2354 H   0  0  0  0  0  0  0  0  0  0  0  0
    9.0567    9.0255   20.6835 C   0  0  0  0  0  0  0  0  0  0  0  0
    8.3871    9.9863   19.9622 N   0  0  0  0  0  0  0  0  0  0  0  0
   10.1312    9.2006   21.2409 O   0  0  0  0  0  0  0  0  0  0  0  0
    7.5238    9.7724   19.5400 H   0  0  0  0  0  0  0  0  0  0  0  0
    8.7710   10.8880   19.8682 H   0  0  0  0  0  0  0  0  0  0  0  0
  8  9  2  0  0  0
  8  7  1  0  0  0
  9 11  1  0  0  0
  7  6  2  0  0  0
 11 12  2  0  0  0
 11 10  1  0  0  0
 12 13  1  0  0  0
  6 10  1  0  0  0
  6  1  1  0  0  0
 10 15  2  0  0  0
  1  2  1  0  0  0
  1  5  1  0  0  0
 13 14  2  0  0  0
  2  3  2  0  0  0
  5  4  2  0  0  0
 15 14  1  0  0  0
 14 16  1  0  0  0
  3  4  1  0  0  0
  3 27  1  0  0  0
  4 20  1  0  0  0
 23 21  2  0  0  0
 28 27  1  0  0  0
 27 29  2  0  0  0
 20 21  1  0  0  0
 16 17  1  0  0  0
 21 22  1  0  0  0
 19 17  1  0  0  0
 17 18  1  0  0  0
 20 24  1  0  0  0
 22 25  1  0  0  0
 22 26  1  0  0  0
 28 30  1  0  0  0
 28 31  1  0  0  0
M  END
> <minimizedAffinity>
-7.27680

$$$$
4M14_QWS_A_701


 31 33  0  0  0  0  0  0  0  0999 V2000
    8.4661    5.8364   21.6261 N   0  0  0  0  0  0  0  0  0  0  0  0
    8.2217    7.1398   21.3844 N   0  0  0  0  0  0  0  0  0  0  0  0
    8.5565    7.3275   20.1006 C   0  0  0  0  0  0  0  0  0  0  0  0
    9.0337    6.1305   19.5116 C   0  0  0  0  0  0  0  0  0  0  0  0
    8.9762    5.1977   20.5256 C   0  0  0  0  0  0  0  0  0  0  0  0
    8.2500    5.2353   22.8853 C   0  0  0  0  0  0  0  0  0  0  0  0
    9.3746    4.9643   23.6411 C   0  0  0  0  0  0  0  0  0  0  0  0
    9.2571    4.3595   24.8753 C   0  0  0  0  0  0  0  0  0  0  0  0
    8.0100    3.9983   25.3435 C   0  0  0  0  0  0  0  0  0  0  0  0
    6.9863    4.8921   23.3522 C   0  0  0  0  0  0  0  0  0  0  0  0
    6.8850    4.2585   24.5885 C   0  0  0  0  0  0  0  0  0  0  0  0
    5.6556    3.9004   25.0993 C   0  0  0  0  0  0  0  0  0  0  0  0
    4.5076    4.1447   24.3750 C   0  0  0  0  0  0  0  0  0  0  0  0
    4.5884    4.7738   23.1500 C   0  0  0  0  0  0  0  0  0  0  0  0
    5.8250    5.1519   22.6444 C   0  0  0  0  0  0  0  0  0  0  0  0
    3.3707    4.9317   22.4922 O   0  0  0  0  0  0  0  0  0  0  0  0
    3.2776    6.0860   21.6565 C   0  0  0  0  0  0  0  0  0  0  0  0
    2.3022    5.8016   20.5341 C   0  0  0  0  0  0  0  0  0  0  0  0
    2.6817    7.1742   22.5195 C   0  0  0  0  0  0  0  0  0  0  0  0
    9.4826    5.9416   18.2061 N   0  0  0  0  0  0  0  0  0  0  0  0
   10.7829    6.2532   17.8329 C   0  0  0  0  0  0  0  0  0  0  0  0
   10.8985    6.3517   16.4693 N   0  0  0  0  0  0  0  0  0  0  0  0
   11.7115    6.4443   18.6235 O   0  0  0  0  0  0  0  0  0  0  0  0
    8.8631    5.5787   17.5325 H   0  0  0  0  0  0  0  0  0  0  0  0
   11.7689    6.5685   16.0634 H   0  0  0  0  0  0  0  0  0  0  0  0
   10.1111    6.2054   15.8967 H   0  0  0  0  0  0  0  0  0  0  0  0
    8.4252    8.6175   19.4713 C   0  0  0  0  0  0  0  0  0  0  0  0
    8.5228    9.6722   20.3488 N   0  0  0  0  0  0  0  0  0  0  0  0
    8.2757    8.7327   18.2630 O   0  0  0  0  0  0  0  0  0  0  0  0
    8.6427    9.5025   21.3111 H   0  0  0  0  0  0  0  0  0  0  0  0
    8.4728   10.5969   20.0145 H   0  0  0  0  0  0  0  0  0  0  0  0
  8  9  2  0  0  0
  8  7  1  0  0  0
  9 11  1  0  0  0
  7  6  2  0  0  0
 11 12  2  0  0  0
 11 10  1  0  0  0
 12 13  1  0  0  0
  6 10  1  0  0  0
  6  1  1  0  0  0
 10 15  2  0  0  0
  1  2  1  0  0  0
  1  5  1  0  0  0
 13 14  2  0  0  0
  2  3  2  0  0  0
  5  4  2  0  0  0
 15 14  1  0  0  0
 14 16  1  0  0  0
  3  4  1  0  0  0
  3 27  1  0  0  0
  4 20  1  0  0  0
 23 21  2  0  0  0
 28 27  1  0  0  0
 27 29  2  0  0  0
 20 21  1  0  0  0
 16 17  1  0  0  0
 21 22  1  0  0  0
 19 17  1  0  0  0
 17 18  1  0  0  0
 20 24  1  0  0  0
 22 25  1  0  0  0
 22 26  1  0  0  0
 28 30  1  0  0  0
 28 31  1  0  0  0
M  END
> <minimizedAffinity>
-7.25361

$$$$
4M14_QWS_A_701


 31 33  0  0  0  0  0  0  0  0999 V2000
   10.0972    5.6815   22.4878 N   0  0  0  0  0  0  0  0  0  0  0  0
   10.6149    6.9240   22.5588 N   0  0  0  0  0  0  0  0  0  0  0  0
   10.6619    7.3576   21.2918 C   0  0  0  0  0  0  0  0  0  0  0  0
   10.1782    6.3757   20.3923 C   0  0  0  0  0  0  0  0  0  0  0  0
    9.8390    5.3067   21.1947 C   0  0  0  0  0  0  0  0  0  0  0  0
    9.8924    4.8689   23.6242 C   0  0  0  0  0  0  0  0  0  0  0  0
   11.0029    4.2166   24.1249 C   0  0  0  0  0  0  0  0  0  0  0  0
   10.8898    3.3865   25.2207 C   0  0  0  0  0  0  0  0  0  0  0  0
    9.6539    3.1857   25.8014 C   0  0  0  0  0  0  0  0  0  0  0  0
    8.6444    4.6889   24.2098 C   0  0  0  0  0  0  0  0  0  0  0  0
    8.5406    3.8276   25.2995 C   0  0  0  0  0  0  0  0  0  0  0  0
    7.3273    3.6167   25.9192 C   0  0  0  0  0  0  0  0  0  0  0  0
    6.1916    4.2412   25.4476 C   0  0  0  0  0  0  0  0  0  0  0  0
    6.2758    5.0998   24.3712 C   0  0  0  0  0  0  0  0  0  0  0  0
    7.5012    5.3272   23.7592 C   0  0  0  0  0  0  0  0  0  0  0  0
    5.0605    5.6408   23.9581 O   0  0  0  0  0  0  0  0  0  0  0  0
    4.5052    5.0562   22.7795 C   0  0  0  0  0  0  0  0  0  0  0  0
    3.4843    4.0137   23.1833 C   0  0  0  0  0  0  0  0  0  0  0  0
    3.7696    6.1710   22.0722 C   0  0  0  0  0  0  0  0  0  0  0  0
   10.0862    6.4608   19.0045 N   0  0  0  0  0  0  0  0  0  0  0  0
    8.9275    6.9005   18.3791 C   0  0  0  0  0  0  0  0  0  0  0  0
    8.9170    6.5536   17.0516 N   0  0  0  0  0  0  0  0  0  0  0  0
    8.0109    7.5023   18.9461 O   0  0  0  0  0  0  0  0  0  0  0  0
   10.8611    6.2032   18.4546 H   0  0  0  0  0  0  0  0  0  0  0  0
    8.1523    6.8026   16.4838 H   0  0  0  0  0  0  0  0  0  0  0  0
    9.6742    6.0556   16.6670 H   0  0  0  0  0  0  0  0  0  0  0  0
   11.1619    8.6693   20.9652 C   0  0  0  0  0  0  0  0  0  0  0  0
   11.9118    9.2396   21.9674 N   0  0  0  0  0  0  0  0  0  0  0  0
   10.9508    9.1869   19.8774 O   0  0  0  0  0  0  0  0  0  0  0  0
   12.0391    8.7626   22.8192 H   0  0  0  0  0  0  0  0  0  0  0  0
   12.3214   10.1247   21.8329 H   0  0  0  0  0  0  0  0  0  0  0  0
  8  9  2  0  0  0
  8  7  1  0  0  0
  9 11  1  0  0  0
  7  6  2  0  0  0
 11 12  2  0  0  0
 11 10  1  0  0  0
 12 13  1  0  0  0
  6 10  1  0  0  0
  6  1  1  0  0  0
 10 15  2  0  0  0
  1  2  1  0  0  0
  1  5  1  0  0  0
 13 14  2  0  0  0
  2  3  2  0  0  0
  5  4  2  0  0  0
 15 14  1  0  0  0
 14 16  1  0  0  0
  3  4  1  0  0  0
  3 27  1  0  0  0
  4 20  1  0  0  0
 23 21  2  0  0  0
 28 27  1  0  0  0
 27 29  2  0  0  0
 20 21  1  0  0  0
 16 17  1  0  0  0
 21 22  1  0  0  0
 19 17  1  0  0  0
 17 18  1  0  0  0
 20 24  1  0  0  0
 22 25  1  0  0  0
 22 26  1  0  0  0
 28 30  1  0  0  0
 28 31  1  0  0  0
M  END
> <minimizedAffinity>
-7.16229

$$$$
4M14_QWS_A_701


 31 33  0  0  0  0  0  0  0  0999 V2000
   11.2278    3.8424   22.7437 N   0  0  0  0  0  0  0  0  0  0  0  0
   11.7758    2.6907   22.3075 N   0  0  0  0  0  0  0  0  0  0  0  0
   12.0918    2.0098   23.4175 C   0  0  0  0  0  0  0  0  0  0  0  0
   11.7527    2.7389   24.5840 C   0  0  0  0  0  0  0  0  0  0  0  0
   11.2144    3.9177   24.1124 C   0  0  0  0  0  0  0  0  0  0  0  0
   10.7664    4.8520   21.8712 C   0  0  0  0  0  0  0  0  0  0  0  0
   11.7328    5.6174   21.2467 C   0  0  0  0  0  0  0  0  0  0  0  0
   11.3705    6.6388   20.3934 C   0  0  0  0  0  0  0  0  0  0  0  0
   10.0341    6.9145   20.1857 C   0  0  0  0  0  0  0  0  0  0  0  0
    9.4167    5.1078   21.6578 C   0  0  0  0  0  0  0  0  0  0  0  0
    9.0657    6.1590   20.8140 C   0  0  0  0  0  0  0  0  0  0  0  0
    7.7418    6.4526   20.5656 C   0  0  0  0  0  0  0  0  0  0  0  0
    6.7445    5.7195   21.1740 C   0  0  0  0  0  0  0  0  0  0  0  0
    7.0732    4.6731   22.0105 C   0  0  0  0  0  0  0  0  0  0  0  0
    8.4066    4.3651   22.2454 C   0  0  0  0  0  0  0  0  0  0  0  0
    5.9862    4.0309   22.5990 O   0  0  0  0  0  0  0  0  0  0  0  0
    5.0229    4.8965   23.2007 C   0  0  0  0  0  0  0  0  0  0  0  0
    3.6705    4.2163   23.1784 C   0  0  0  0  0  0  0  0  0  0  0  0
    5.4420    5.0404   24.6456 C   0  0  0  0  0  0  0  0  0  0  0  0
   11.9410    2.3606   25.9118 N   0  0  0  0  0  0  0  0  0  0  0  0
   10.9260    1.7655   26.6484 C   0  0  0  0  0  0  0  0  0  0  0  0
   11.1882    1.8245   27.9939 N   0  0  0  0  0  0  0  0  0  0  0  0
    9.9055    1.2702   26.1615 O   0  0  0  0  0  0  0  0  0  0  0  0
   12.8144    2.5192   26.3375 H   0  0  0  0  0  0  0  0  0  0  0  0
   10.5501    1.4392   28.6371 H   0  0  0  0  0  0  0  0  0  0  0  0
   12.0143    2.2521   28.3161 H   0  0  0  0  0  0  0  0  0  0  0  0
   12.7041    0.7068   23.3502 C   0  0  0  0  0  0  0  0  0  0  0  0
   12.1199   -0.1308   22.4288 N   0  0  0  0  0  0  0  0  0  0  0  0
   13.6729    0.4139   24.0368 O   0  0  0  0  0  0  0  0  0  0  0  0
   11.3402    0.1744   21.9109 H   0  0  0  0  0  0  0  0  0  0  0  0
   12.4815   -1.0354   22.2871 H   0  0  0  0  0  0  0  0  0  0  0  0
  8  9  2  0  0  0
  8  7  1  0  0  0
  9 11  1  0  0  0
  7  6  2  0  0  0
 11 12  2  0  0  0
 11 10  1  0  0  0
 12 13  1  0  0  0
  6 10  1  0  0  0
  6  1  1  0  0  0
 10 15  2  0  0  0
  1  2  1  0  0  0
  1  5  1  0  0  0
 13 14  2  0  0  0
  2  3  2  0  0  0
  5  4  2  0  0  0
 15 14  1  0  0  0
 14 16  1  0  0  0
  3  4  1  0  0  0
  3 27  1  0  0  0
  4 20  1  0  0  0
 23 21  2  0  0  0
 28 27  1  0  0  0
 27 29  2  0  0  0
 20 21  1  0  0  0
 16 17  1  0  0  0
 21 22  1  0  0  0
 19 17  1  0  0  0
 17 18  1  0  0  0
 20 24  1  0  0  0
 22 25  1  0  0  0
 22 26  1  0  0  0
 28 30  1  0  0  0
 28 31  1  0  0  0
M  END
> <minimizedAffinity>
-7.15302

$$$$
4M14_QWS_A_701


 31 33  0  0  0  0  0  0  0  0999 V2000
    7.6622    6.1949   21.7592 N   0  0  0  0  0  0  0  0  0  0  0  0
    7.8165    5.5167   20.6046 N   0  0  0  0  0  0  0  0  0  0  0  0
    8.5280    6.3300   19.8123 C   0  0  0  0  0  0  0  0  0  0  0  0
    8.8258    7.5530   20.4626 C   0  0  0  0  0  0  0  0  0  0  0  0
    8.2403    7.4368   21.7057 C   0  0  0  0  0  0  0  0  0  0  0  0
    6.9503    5.6785   22.8638 C   0  0  0  0  0  0  0  0  0  0  0  0
    5.5971    5.9547   22.9099 C   0  0  0  0  0  0  0  0  0  0  0  0
    4.8286    5.5061   23.9639 C   0  0  0  0  0  0  0  0  0  0  0  0
    5.4225    4.8016   24.9916 C   0  0  0  0  0  0  0  0  0  0  0  0
    7.5582    4.9555   23.8838 C   0  0  0  0  0  0  0  0  0  0  0  0
    6.7748    4.5313   24.9546 C   0  0  0  0  0  0  0  0  0  0  0  0
    7.3272    3.8080   25.9901 C   0  0  0  0  0  0  0  0  0  0  0  0
    8.6753    3.5167   25.9888 C   0  0  0  0  0  0  0  0  0  0  0  0
    9.4661    3.9263   24.9353 C   0  0  0  0  0  0  0  0  0  0  0  0
    8.9059    4.6379   23.8829 C   0  0  0  0  0  0  0  0  0  0  0  0
   10.8171    3.6111   25.0610 O   0  0  0  0  0  0  0  0  0  0  0  0
   11.4561    3.1871   23.8564 C   0  0  0  0  0  0  0  0  0  0  0  0
   12.6742    4.0533   23.6160 C   0  0  0  0  0  0  0  0  0  0  0  0
   11.9373    1.7784   24.1172 C   0  0  0  0  0  0  0  0  0  0  0  0
    9.5326    8.6405   19.9532 N   0  0  0  0  0  0  0  0  0  0  0  0
    9.0175    9.4278   18.9325 C   0  0  0  0  0  0  0  0  0  0  0  0
   10.0011   10.1785   18.3394 N   0  0  0  0  0  0  0  0  0  0  0  0
    7.8337    9.4347   18.5829 O   0  0  0  0  0  0  0  0  0  0  0  0
   10.4181    8.8555   20.3260 H   0  0  0  0  0  0  0  0  0  0  0  0
    9.7771   10.7853   17.5972 H   0  0  0  0  0  0  0  0  0  0  0  0
   10.9308   10.1102   18.6560 H   0  0  0  0  0  0  0  0  0  0  0  0
    8.8993    5.9398   18.4754 C   0  0  0  0  0  0  0  0  0  0  0  0
    7.8469    5.4684   17.7256 N   0  0  0  0  0  0  0  0  0  0  0  0
   10.0446    6.0600   18.0636 O   0  0  0  0  0  0  0  0  0  0  0  0
    6.9498    5.3989   18.1253 H   0  0  0  0  0  0  0  0  0  0  0  0
    7.9907    5.2004   16.7892 H   0  0  0  0  0  0  0  0  0  0  0  0
  8  9  2  0  0  0
  8  7  1  0  0  0
  9 11  1  0  0  0
  7  6  2  0  0  0
 11 12  2  0  0  0
 11 10  1  0  0  0
 12 13  1  0  0  0
  6 10  1  0  0  0
  6  1  1  0  0  0
 10 15  2  0  0  0
  1  2  1  0  0  0
  1  5  1  0  0  0
 13 14  2  0  0  0
  2  3  2  0  0  0
  5  4  2  0  0  0
 15 14  1  0  0  0
 14 16  1  0  0  0
  3  4  1  0  0  0
  3 27  1  0  0  0
  4 20  1  0  0  0
 23 21  2  0  0  0
 28 27  1  0  0  0
 27 29  2  0  0  0
 20 21  1  0  0  0
 16 17  1  0  0  0
 21 22  1  0  0  0
 19 17  1  0  0  0
 17 18  1  0  0  0
 20 24  1  0  0  0
 22 25  1  0  0  0
 22 26  1  0  0  0
 28 30  1  0  0  0
 28 31  1  0  0  0
M  END
> <minimizedAffinity>
-7.09510

$$$$
4M14_QWS_A_701


 31 33  0  0  0  0  0  0  0  0999 V2000
   10.8775    3.7570   24.4881 N   0  0  0  0  0  0  0  0  0  0  0  0
   10.3692    3.1719   25.5909 N   0  0  0  0  0  0  0  0  0  0  0  0
   10.7982    1.9033   25.5445 C   0  0  0  0  0  0  0  0  0  0  0  0
   11.5839    1.6663   24.3895 C   0  0  0  0  0  0  0  0  0  0  0  0
   11.6001    2.8754   23.7266 C   0  0  0  0  0  0  0  0  0  0  0  0
   10.6440    5.1104   24.1601 C   0  0  0  0  0  0  0  0  0  0  0  0
   11.6879    5.9882   24.3816 C   0  0  0  0  0  0  0  0  0  0  0  0
   11.5399    7.3321   24.1082 C   0  0  0  0  0  0  0  0  0  0  0  0
   10.3316    7.8048   23.6373 C   0  0  0  0  0  0  0  0  0  0  0  0
    9.4270    5.5703   23.6702 C   0  0  0  0  0  0  0  0  0  0  0  0
    9.2834    6.9336   23.4232 C   0  0  0  0  0  0  0  0  0  0  0  0
    8.0989    7.4412   22.9335 C   0  0  0  0  0  0  0  0  0  0  0  0
    7.0283    6.6021   22.7054 C   0  0  0  0  0  0  0  0  0  0  0  0
    7.1530    5.2487   22.9416 C   0  0  0  0  0  0  0  0  0  0  0  0
    8.3523    4.7349   23.4164 C   0  0  0  0  0  0  0  0  0  0  0  0
    5.9965    4.5063   22.7143 O   0  0  0  0  0  0  0  0  0  0  0  0
    4.8718    4.8748   23.5133 C   0  0  0  0  0  0  0  0  0  0  0  0
    3.6412    4.1703   22.9829 C   0  0  0  0  0  0  0  0  0  0  0  0
    5.1520    4.3335   24.8963 C   0  0  0  0  0  0  0  0  0  0  0  0
   12.1872    0.4730   23.9979 N   0  0  0  0  0  0  0  0  0  0  0  0
   13.5239    0.2124   24.2671 C   0  0  0  0  0  0  0  0  0  0  0  0
   13.9977   -0.8115   23.4862 N   0  0  0  0  0  0  0  0  0  0  0  0
   14.2084    0.8364   25.0831 O   0  0  0  0  0  0  0  0  0  0  0  0
   11.6531   -0.2012   23.5190 H   0  0  0  0  0  0  0  0  0  0  0  0
   14.9340   -1.1033   23.5720 H   0  0  0  0  0  0  0  0  0  0  0  0
   13.4013   -1.2543   22.8401 H   0  0  0  0  0  0  0  0  0  0  0  0
   10.4548    0.9565   26.5755 C   0  0  0  0  0  0  0  0  0  0  0  0
    9.4066    1.3605   27.3692 N   0  0  0  0  0  0  0  0  0  0  0  0
   11.0371   -0.1132   26.6878 O   0  0  0  0  0  0  0  0  0  0  0  0
    8.9857    2.2378   27.2198 H   0  0  0  0  0  0  0  0  0  0  0  0
    9.0773    0.7723   28.0867 H   0  0  0  0  0  0  0  0  0  0  0  0
  8  9  2  0  0  0
  8  7  1  0  0  0
  9 11  1  0  0  0
  7  6  2  0  0  0
 11 12  2  0  0  0
 11 10  1  0  0  0
 12 13  1  0  0  0
  6 10  1  0  0  0
  6  1  1  0  0  0
 10 15  2  0  0  0
  1  2  1  0  0  0
  1  5  1  0  0  0
 13 14  2  0  0  0
  2  3  2  0  0  0
  5  4  2  0  0  0
 15 14  1  0  0  0
 14 16  1  0  0  0
  3  4  1  0  0  0
  3 27  1  0  0  0
  4 20  1  0  0  0
 23 21  2  0  0  0
 28 27  1  0  0  0
 27 29  2  0  0  0
 20 21  1  0  0  0
 16 17  1  0  0  0
 21 22  1  0  0  0
 19 17  1  0  0  0
 17 18  1  0  0  0
 20 24  1  0  0  0
 22 25  1  0  0  0
 22 26  1  0  0  0
 28 30  1  0  0  0
 28 31  1  0  0  0
M  END
> <minimizedAffinity>
-7.07699

$$$$
4M14_QWS_A_701


 31 33  0  0  0  0  0  0  0  0999 V2000
   10.2620    5.4602   22.9120 N   0  0  0  0  0  0  0  0  0  0  0  0
   10.7234    6.7168   23.0707 N   0  0  0  0  0  0  0  0  0  0  0  0
   11.1236    7.1003   21.8508 C   0  0  0  0  0  0  0  0  0  0  0  0
   10.9273    6.0718   20.8963 C   0  0  0  0  0  0  0  0  0  0  0  0
   10.3867    5.0279   21.6171 C   0  0  0  0  0  0  0  0  0  0  0  0
    9.7522    4.6890   23.9792 C   0  0  0  0  0  0  0  0  0  0  0  0
   10.6600    3.9002   24.6596 C   0  0  0  0  0  0  0  0  0  0  0  0
   10.2446    3.0993   25.7031 C   0  0  0  0  0  0  0  0  0  0  0  0
    8.9089    3.0660   26.0493 C   0  0  0  0  0  0  0  0  0  0  0  0
    8.4066    4.6780   24.3285 C   0  0  0  0  0  0  0  0  0  0  0  0
    7.9973    3.8449   25.3670 C   0  0  0  0  0  0  0  0  0  0  0  0
    6.6753    3.7990   25.7556 C   0  0  0  0  0  0  0  0  0  0  0  0
    5.7340    4.5637   25.0988 C   0  0  0  0  0  0  0  0  0  0  0  0
    6.1215    5.3967   24.0698 C   0  0  0  0  0  0  0  0  0  0  0  0
    7.4560    5.4575   23.6914 C   0  0  0  0  0  0  0  0  0  0  0  0
    5.0812    6.0896   23.4549 O   0  0  0  0  0  0  0  0  0  0  0  0
    4.4758    5.4193   22.3488 C   0  0  0  0  0  0  0  0  0  0  0  0
    3.1542    6.0873   22.0340 C   0  0  0  0  0  0  0  0  0  0  0  0
    5.3978    5.6462   21.1730 C   0  0  0  0  0  0  0  0  0  0  0  0
   11.2328    6.0991   19.5371 N   0  0  0  0  0  0  0  0  0  0  0  0
   10.2664    6.3806   18.5810 C   0  0  0  0  0  0  0  0  0  0  0  0
   10.6757    5.9904   17.3309 N   0  0  0  0  0  0  0  0  0  0  0  0
    9.1689    6.8909   18.8239 O   0  0  0  0  0  0  0  0  0  0  0  0
   12.1556    5.9146   19.2479 H   0  0  0  0  0  0  0  0  0  0  0  0
   10.0869    6.1301   16.5543 H   0  0  0  0  0  0  0  0  0  0  0  0
   11.5581    5.5708   17.2105 H   0  0  0  0  0  0  0  0  0  0  0  0
   11.6802    8.4097   21.6204 C   0  0  0  0  0  0  0  0  0  0  0  0
   11.5039    9.2775   22.6729 N   0  0  0  0  0  0  0  0  0  0  0  0
   12.2775    8.6836   20.5889 O   0  0  0  0  0  0  0  0  0  0  0  0
   11.0105    8.9864   23.4736 H   0  0  0  0  0  0  0  0  0  0  0  0
   11.8711   10.1897   22.6255 H   0  0  0  0  0  0  0  0  0  0  0  0
  8  9  2  0  0  0
  8  7  1  0  0  0
  9 11  1  0  0  0
  7  6  2  0  0  0
 11 12  2  0  0  0
 11 10  1  0  0  0
 12 13  1  0  0  0
  6 10  1  0  0  0
  6  1  1  0  0  0
 10 15  2  0  0  0
  1  2  1  0  0  0
  1  5  1  0  0  0
 13 14  2  0  0  0
  2  3  2  0  0  0
  5  4  2  0  0  0
 15 14  1  0  0  0
 14 16  1  0  0  0
  3  4  1  0  0  0
  3 27  1  0  0  0
  4 20  1  0  0  0
 23 21  2  0  0  0
 28 27  1  0  0  0
 27 29  2  0  0  0
 20 21  1  0  0  0
 16 17  1  0  0  0
 21 22  1  0  0  0
 19 17  1  0  0  0
 17 18  1  0  0  0
 20 24  1  0  0  0
 22 25  1  0  0  0
 22 26  1  0  0  0
 28 30  1  0  0  0
 28 31  1  0  0  0
M  END
> <minimizedAffinity>
-6.99176

$$$$
4M14_QWS_A_701


 31 33  0  0  0  0  0  0  0  0999 V2000
    7.2095    6.2997   21.5007 N   0  0  0  0  0  0  0  0  0  0  0  0
    7.1111    6.0256   20.1846 N   0  0  0  0  0  0  0  0  0  0  0  0
    7.9812    6.8516   19.5880 C   0  0  0  0  0  0  0  0  0  0  0  0
    8.6401    7.6767   20.5327 C   0  0  0  0  0  0  0  0  0  0  0  0
    8.1077    7.3050   21.7492 C   0  0  0  0  0  0  0  0  0  0  0  0
    6.4372    5.6409   22.4821 C   0  0  0  0  0  0  0  0  0  0  0  0
    5.0651    5.6960   22.3276 C   0  0  0  0  0  0  0  0  0  0  0  0
    4.2341    5.0967   23.2511 C   0  0  0  0  0  0  0  0  0  0  0  0
    4.7778    4.4632   24.3502 C   0  0  0  0  0  0  0  0  0  0  0  0
    6.9988    4.9915   23.5755 C   0  0  0  0  0  0  0  0  0  0  0  0
    6.1468    4.4134   24.5136 C   0  0  0  0  0  0  0  0  0  0  0  0
    6.6520    3.7543   25.6141 C   0  0  0  0  0  0  0  0  0  0  0  0
    8.0150    3.6821   25.8120 C   0  0  0  0  0  0  0  0  0  0  0  0
    8.8741    4.2464   24.8920 C   0  0  0  0  0  0  0  0  0  0  0  0
    8.3657    4.8933   23.7736 C   0  0  0  0  0  0  0  0  0  0  0  0
   10.2253    4.1469   25.2157 O   0  0  0  0  0  0  0  0  0  0  0  0
   11.0809    5.0690   24.5397 C   0  0  0  0  0  0  0  0  0  0  0  0
   11.6149    6.0690   25.5431 C   0  0  0  0  0  0  0  0  0  0  0  0
   12.2497    4.2547   24.0348 C   0  0  0  0  0  0  0  0  0  0  0  0
    9.5963    8.6601   20.2870 N   0  0  0  0  0  0  0  0  0  0  0  0
   10.9289    8.3388   20.0681 C   0  0  0  0  0  0  0  0  0  0  0  0
   11.7370    9.4365   20.2249 N   0  0  0  0  0  0  0  0  0  0  0  0
   11.3406    7.2077   19.7942 O   0  0  0  0  0  0  0  0  0  0  0  0
    9.3202    9.6049   20.2682 H   0  0  0  0  0  0  0  0  0  0  0  0
   12.7099    9.3536   20.0991 H   0  0  0  0  0  0  0  0  0  0  0  0
   11.3438   10.3071   20.4633 H   0  0  0  0  0  0  0  0  0  0  0  0
    8.1623    6.8461   18.1581 C   0  0  0  0  0  0  0  0  0  0  0  0
    9.2201    6.0735   17.7386 N   0  0  0  0  0  0  0  0  0  0  0  0
    7.4089    7.4542   17.4108 O   0  0  0  0  0  0  0  0  0  0  0  0
    9.7851    5.6118   18.3996 H   0  0  0  0  0  0  0  0  0  0  0  0
    9.4122    5.9821   16.7774 H   0  0  0  0  0  0  0  0  0  0  0  0
  8  9  2  0  0  0
  8  7  1  0  0  0
  9 11  1  0  0  0
  7  6  2  0  0  0
 11 12  2  0  0  0
 11 10  1  0  0  0
 12 13  1  0  0  0
  6 10  1  0  0  0
  6  1  1  0  0  0
 10 15  2  0  0  0
  1  2  1  0  0  0
  1  5  1  0  0  0
 13 14  2  0  0  0
  2  3  2  0  0  0
  5  4  2  0  0  0
 15 14  1  0  0  0
 14 16  1  0  0  0
  3  4  1  0  0  0
  3 27  1  0  0  0
  4 20  1  0  0  0
 23 21  2  0  0  0
 28 27  1  0  0  0
 27 29  2  0  0  0
 20 21  1  0  0  0
 16 17  1  0  0  0
 21 22  1  0  0  0
 19 17  1  0  0  0
 17 18  1  0  0  0
 20 24  1  0  0  0
 22 25  1  0  0  0
 22 26  1  0  0  0
 28 30  1  0  0  0
 28 31  1  0  0  0
M  END
> <minimizedAffinity>
-6.90205

$$$$
