5UV2_LA6_A_704
  RCSB PDB12061719553D
Coordinates from PDB:5UV2:A:704 Model:1 without hydrogens
 20 19  0  0  0  0            999 V2000
   -7.4720   12.5330  -21.0460   C 0  0  0  0  0  0  0  0  0  0  0  0
   -7.6100   11.3800  -21.8630   O 0  0  0  0  0  0  0  0  0  0  0  0
   -7.1410   12.0860  -19.6430   C 0  0  0  0  0  0  0  0  0  0  0  0
   -6.1440   11.2640  -19.4090   F 0  0  0  0  0  0  0  0  0  0  0  0
   -7.8810   12.5240  -18.6370   C 0  0  0  0  0  0  0  0  0  0  0  0
   -7.5100   12.0530  -17.2650   C 0  0  0  0  0  0  0  0  0  0  0  0
   -9.0230   13.4790  -18.9580   C 0  0  0  0  0  0  0  0  0  0  0  0
  -10.0740   13.7890  -17.8840   C 0  0  0  0  0  0  0  0  0  0  0  0
   -9.6560   14.3130  -16.5190   C 0  0  0  0  0  0  0  0  0  0  0  0
   -8.6560   15.1280  -16.1340   C 0  0  0  0  0  0  0  0  0  0  0  0
   -7.6340   15.7420  -17.0440   C 0  0  0  0  0  0  0  0  0  0  0  0
   -8.9040   11.1250  -22.7690   P 0  0  0  0  0  0  0  0  0  0  0  0
  -11.4610    9.9790  -22.3860   P 0  0  0  0  0  0  0  0  0  0  0  0
   -8.5690   15.4240  -14.6690   C 0  0  0  0  0  0  0  0  0  0  0  0
   -8.5760    9.9730  -23.6970   O 0  0  0  0  0  0  0  0  0  0  0  0
  -12.4090    9.8390  -21.2150   O 0  0  0  0  0  0  0  0  0  0  0  0
   -9.2570   12.3740  -23.5330   O 0  0  0  0  0  0  0  0  0  0  0  0
  -11.1120    8.6150  -22.9340   O 0  0  0  0  0  0  0  0  0  0  0  0
  -10.1400   10.7070  -21.8190   O 0  0  0  0  0  0  0  0  0  0  0  0
  -12.0590   10.8310  -23.4860   O 0  0  0  0  0  0  0  0  0  0  0  0
  3  1  1  0  0  0  0
  1  2  1  0  0  0  0
 12  2  1  0  0  0  0
  5  3  2  0  0  0  0
  3  4  1  0  0  0  0
  6  5  1  0  0  0  0
  7  5  1  0  0  0  0
  8  7  1  0  0  0  0
  9  8  1  0  0  0  0
  9 10  2  0  0  0  0
 14 10  1  0  0  0  0
 10 11  1  0  0  0  0
 15 12  2  0  0  0  0
 12 19  1  0  0  0  0
 12 17  1  0  0  0  0
 19 13  1  0  0  0  0
 20 13  2  0  0  0  0
 13 18  1  0  0  0  0
 13 16  1  0  0  0  0
A    1
C1
A    2
O1
A    3
C2
A    4
F2
A    5
C3
A    6
C4
A    7
C5
A    8
C6
A    9
C7
A   10
C8
A   11
C9
A   12
PA
A   13
PB
A   14
C10
A   15
O1A
A   16
O1B
A   17
O2A
A   18
O2B
A   19
O3A
A   20
O3B
M  END
>  <InstanceId>
5UV2_LA6_A_704

>  <ChemCompId>
LA6

>  <PdbId>
5UV2

>  <ChainId>
A

>  <ResidueNumber>
704

>  <InsertionCode>


>  <Model>
1

>  <AltIds>


>  <MissingHeavyAtoms>
0

>  <ObservedFormula>
C10 O7 P2 F

>  <Name>
(2E)-2-fluoro-3,7-dimethylocta-2,6-dien-1-yl trihydrogen diphosphate

>  <SystematicName>
[(2E)-2-fluoranyl-3,7-dimethyl-octa-2,6-dienyl] phosphono hydrogen phosphate

>  <Synonyms>


>  <Type>
NON-POLYMER

>  <Formula>
C10 H19 F O7 P2

>  <MolecularWeight>
332.2

>  <ModifiedDate>
2013-07-26

>  <Parent>


>  <OneLetterCode>


>  <SubcomponentList>


>  <AmbiguousFlag>
N

>  <InChI>
InChI=1S/C10H19FO7P2/c1-8(2)5-4-6-9(3)10(11)7-17-20(15,16)18-19(12,13)14/h5H,4,6-7H2,1-3H3,(H,15,16)(H2,12,13,14)/b10-9+

>  <InChIKey>
BYJNSLXDWGDGAC-MDZDMXLPSA-N

>  <SMILES>
CC(=CCC/C(=C(\CO[P@@](=O)(O)OP(=O)(O)O)/F)/C)C

$$$$
