2VW2_NHE_A_1000


 15 15  0  0  0  0  0  0  0  0999 V2000
   -4.8657   76.4161   22.8389 N   0  0  0  0  0  0  0  0  0  0  0  0
   -4.0791   76.5891   22.2131 H   0  0  0  0  0  0  0  0  0  0  0  0
   -6.5910   75.0725   19.6411 C   0  0  0  0  0  0  0  0  0  0  0  0
   -5.4873   75.3611   20.6653 C   0  0  0  0  0  0  0  0  0  0  0  0
   -5.9683   75.9956   21.9782 C   0  0  0  0  0  0  0  0  0  0  0  0
   -6.9222   77.1827   21.7799 C   0  0  0  0  0  0  0  0  0  0  0  0
   -7.7262   77.1845   20.4758 C   0  0  0  0  0  0  0  0  0  0  0  0
   -7.9181   75.7849   19.9033 C   0  0  0  0  0  0  0  0  0  0  0  0
   -4.9137   77.5600   23.7327 C   0  0  0  0  0  0  0  0  0  0  0  0
   -3.5130   78.0919   24.0188 C   0  0  0  0  0  0  0  0  0  0  0  0
   -2.7202   77.1994   25.1870 S   0  0  0  0  0  0  0  0  0  0  0  0
   -1.3685   77.7478   25.4554 O   0  0  0  0  0  0  0  0  0  0  0  0
   -2.5814   75.7994   24.7366 O   0  0  0  0  0  0  0  0  0  0  0  0
   -3.5379   77.2444   26.4190 O   0  0  0  0  0  0  0  0  0  0  0  0
   -3.6283   78.1641   26.7137 H   0  0  0  0  0  0  0  0  0  0  0  0
  3  4  1  0  0  0
  3  8  1  0  0  0
  4  5  1  0  0  0
  5  6  1  0  0  0
  5  1  1  0  0  0
  6  7  1  0  0  0
  1  9  1  0  0  0
  9 10  1  0  0  0
 10 11  1  0  0  0
 11 12  2  0  0  0
 11 13  2  0  0  0
 11 14  1  0  0  0
  7  8  1  0  0  0
  1  2  1  0  0  0
 14 15  1  0  0  0
M  END
> <minimizedAffinity>
-6.49558

$$$$
2VW2_NHE_A_1000


 15 15  0  0  0  0  0  0  0  0999 V2000
   -5.0434   77.2814   22.9190 N   0  0  0  0  0  0  0  0  0  0  0  0
   -4.1719   76.9295   22.5225 H   0  0  0  0  0  0  0  0  0  0  0  0
   -8.3492   78.1268   21.0847 C   0  0  0  0  0  0  0  0  0  0  0  0
   -7.2683   78.1273   22.1719 C   0  0  0  0  0  0  0  0  0  0  0  0
   -5.9641   77.4111   21.7926 C   0  0  0  0  0  0  0  0  0  0  0  0
   -6.1775   76.0258   21.1653 C   0  0  0  0  0  0  0  0  0  0  0  0
   -7.5170   75.8129   20.4529 C   0  0  0  0  0  0  0  0  0  0  0  0
   -8.1315   77.1169   19.9576 C   0  0  0  0  0  0  0  0  0  0  0  0
   -4.6612   78.3747   23.7955 C   0  0  0  0  0  0  0  0  0  0  0  0
   -3.1560   78.3792   24.0428 C   0  0  0  0  0  0  0  0  0  0  0  0
   -2.7053   77.3072   25.2417 S   0  0  0  0  0  0  0  0  0  0  0  0
   -3.6552   77.3456   26.3802 O   0  0  0  0  0  0  0  0  0  0  0  0
   -1.3576   77.6521   25.7386 O   0  0  0  0  0  0  0  0  0  0  0  0
   -2.6823   75.9524   24.6478 O   0  0  0  0  0  0  0  0  0  0  0  0
   -3.5677   75.7271   24.3220 H   0  0  0  0  0  0  0  0  0  0  0  0
  3  4  1  0  0  0
  3  8  1  0  0  0
  4  5  1  0  0  0
  5  6  1  0  0  0
  5  1  1  0  0  0
  6  7  1  0  0  0
  1  9  1  0  0  0
  9 10  1  0  0  0
 10 11  1  0  0  0
 11 12  2  0  0  0
 11 13  2  0  0  0
 11 14  1  0  0  0
  7  8  1  0  0  0
  1  2  1  0  0  0
 14 15  1  0  0  0
M  END
> <minimizedAffinity>
-6.26371

$$$$
2VW2_NHE_A_1000


 15 15  0  0  0  0  0  0  0  0999 V2000
   -1.6295   79.6825   22.5879 N   0  0  0  0  0  0  0  0  0  0  0  0
   -1.9961   78.8864   22.0662 H   0  0  0  0  0  0  0  0  0  0  0  0
    1.5266   79.8581   20.3481 C   0  0  0  0  0  0  0  0  0  0  0  0
    0.0586   79.9757   20.7745 C   0  0  0  0  0  0  0  0  0  0  0  0
   -0.2053   79.7401   22.2687 C   0  0  0  0  0  0  0  0  0  0  0  0
    0.4789   78.4844   22.8286 C   0  0  0  0  0  0  0  0  0  0  0  0
    1.7427   78.0269   22.0934 C   0  0  0  0  0  0  0  0  0  0  0  0
    2.4402   79.1671   21.3608 C   0  0  0  0  0  0  0  0  0  0  0  0
   -2.1635   79.5490   23.9320 C   0  0  0  0  0  0  0  0  0  0  0  0
   -3.0881   78.3404   24.0375 C   0  0  0  0  0  0  0  0  0  0  0  0
   -2.6346   77.2976   25.2610 S   0  0  0  0  0  0  0  0  0  0  0  0
   -1.2912   77.6408   25.7877 O   0  0  0  0  0  0  0  0  0  0  0  0
   -2.6021   75.9122   24.7494 O   0  0  0  0  0  0  0  0  0  0  0  0
   -3.6426   77.4039   26.3387 O   0  0  0  0  0  0  0  0  0  0  0  0
   -3.6630   78.3139   26.6737 H   0  0  0  0  0  0  0  0  0  0  0  0
  3  4  1  0  0  0
  3  8  1  0  0  0
  4  5  1  0  0  0
  5  6  1  0  0  0
  5  1  1  0  0  0
  6  7  1  0  0  0
  1  9  1  0  0  0
  9 10  1  0  0  0
 10 11  1  0  0  0
 11 12  2  0  0  0
 11 13  2  0  0  0
 11 14  1  0  0  0
  7  8  1  0  0  0
  1  2  1  0  0  0
 14 15  1  0  0  0
M  END
> <minimizedAffinity>
-6.12036

$$$$
2VW2_NHE_A_1000


 15 15  0  0  0  0  0  0  0  0999 V2000
   -5.3473   78.4861   22.2137 N   0  0  0  0  0  0  0  0  0  0  0  0
   -4.5659   78.9204   21.7225 H   0  0  0  0  0  0  0  0  0  0  0  0
   -8.7275   77.8322   20.4376 C   0  0  0  0  0  0  0  0  0  0  0  0
   -7.7024   78.4569   21.3913 C   0  0  0  0  0  0  0  0  0  0  0  0
   -6.2508   78.0076   21.1706 C   0  0  0  0  0  0  0  0  0  0  0  0
   -6.0868   76.4870   21.0327 C   0  0  0  0  0  0  0  0  0  0  0  0
   -7.3128   75.7255   20.5188 C   0  0  0  0  0  0  0  0  0  0  0  0
   -8.2361   76.5997   19.6780 C   0  0  0  0  0  0  0  0  0  0  0  0
   -5.7234   79.4238   23.2572 C   0  0  0  0  0  0  0  0  0  0  0  0
   -4.7833   79.3190   24.4539 C   0  0  0  0  0  0  0  0  0  0  0  0
   -4.3689   77.7385   24.8006 S   0  0  0  0  0  0  0  0  0  0  0  0
   -5.5489   76.8439   24.7161 O   0  0  0  0  0  0  0  0  0  0  0  0
   -3.8106   77.6570   26.1658 O   0  0  0  0  0  0  0  0  0  0  0  0
   -3.3438   77.3173   23.8205 O   0  0  0  0  0  0  0  0  0  0  0  0
   -3.7116   77.3712   22.9246 H   0  0  0  0  0  0  0  0  0  0  0  0
  3  4  1  0  0  0
  3  8  1  0  0  0
  4  5  1  0  0  0
  5  6  1  0  0  0
  5  1  1  0  0  0
  6  7  1  0  0  0
  1  9  1  0  0  0
  9 10  1  0  0  0
 10 11  1  0  0  0
 11 12  2  0  0  0
 11 13  2  0  0  0
 11 14  1  0  0  0
  7  8  1  0  0  0
  1  2  1  0  0  0
 14 15  1  0  0  0
M  END
> <minimizedAffinity>
-5.92344

$$$$
2VW2_NHE_A_1000


 15 15  0  0  0  0  0  0  0  0999 V2000
   -5.3619   76.3720   20.0071 N   0  0  0  0  0  0  0  0  0  0  0  0
   -4.4674   76.8222   20.2009 H   0  0  0  0  0  0  0  0  0  0  0  0
   -7.4983   79.0203   21.8591 C   0  0  0  0  0  0  0  0  0  0  0  0
   -6.3447   78.0542   21.5653 C   0  0  0  0  0  0  0  0  0  0  0  0
   -6.3711   77.4153   20.1693 C   0  0  0  0  0  0  0  0  0  0  0  0
   -7.7411   76.8448   19.7745 C   0  0  0  0  0  0  0  0  0  0  0  0
   -8.9548   77.4905   20.4506 C   0  0  0  0  0  0  0  0  0  0  0  0
   -8.6840   78.9219   20.8988 C   0  0  0  0  0  0  0  0  0  0  0  0
   -5.3431   75.1264   20.7540 C   0  0  0  0  0  0  0  0  0  0  0  0
   -5.1493   75.3837   22.2450 C   0  0  0  0  0  0  0  0  0  0  0  0
   -4.0491   74.3326   22.9340 S   0  0  0  0  0  0  0  0  0  0  0  0
   -4.7357   73.2613   23.6960 O   0  0  0  0  0  0  0  0  0  0  0  0
   -3.1610   75.0723   23.8539 O   0  0  0  0  0  0  0  0  0  0  0  0
   -3.2472   73.7410   21.8405 O   0  0  0  0  0  0  0  0  0  0  0  0
   -3.8315   73.2556   21.2372 H   0  0  0  0  0  0  0  0  0  0  0  0
  3  4  1  0  0  0
  3  8  1  0  0  0
  4  5  1  0  0  0
  5  6  1  0  0  0
  5  1  1  0  0  0
  6  7  1  0  0  0
  1  9  1  0  0  0
  9 10  1  0  0  0
 10 11  1  0  0  0
 11 12  2  0  0  0
 11 13  2  0  0  0
 11 14  1  0  0  0
  7  8  1  0  0  0
  1  2  1  0  0  0
 14 15  1  0  0  0
M  END
> <minimizedAffinity>
-5.32060

$$$$
2VW2_NHE_A_1000


 15 15  0  0  0  0  0  0  0  0999 V2000
   -6.2335   76.2647   20.0684 N   0  0  0  0  0  0  0  0  0  0  0  0
   -5.3584   76.7771   20.1780 H   0  0  0  0  0  0  0  0  0  0  0  0
   -9.5248   78.2455   20.5705 C   0  0  0  0  0  0  0  0  0  0  0  0
   -8.5113   77.2756   19.9519 C   0  0  0  0  0  0  0  0  0  0  0  0
   -7.2397   77.0472   20.7816 C   0  0  0  0  0  0  0  0  0  0  0  0
   -6.5906   78.3425   21.2905 C   0  0  0  0  0  0  0  0  0  0  0  0
   -7.5318   79.5385   21.4662 C   0  0  0  0  0  0  0  0  0  0  0  0
   -8.9778   79.1172   21.7012 C   0  0  0  0  0  0  0  0  0  0  0  0
   -5.9145   74.8782   20.3609 C   0  0  0  0  0  0  0  0  0  0  0  0
   -4.7012   74.7765   21.2797 C   0  0  0  0  0  0  0  0  0  0  0  0
   -5.1269   74.7472   22.8945 S   0  0  0  0  0  0  0  0  0  0  0  0
   -4.6323   75.9536   23.6016 O   0  0  0  0  0  0  0  0  0  0  0  0
   -4.5504   73.5506   23.5410 O   0  0  0  0  0  0  0  0  0  0  0  0
   -6.6033   74.6872   22.9690 O   0  0  0  0  0  0  0  0  0  0  0  0
   -6.9807   75.4734   22.5443 H   0  0  0  0  0  0  0  0  0  0  0  0
  3  4  1  0  0  0
  3  8  1  0  0  0
  4  5  1  0  0  0
  5  6  1  0  0  0
  5  1  1  0  0  0
  6  7  1  0  0  0
  1  9  1  0  0  0
  9 10  1  0  0  0
 10 11  1  0  0  0
 11 12  2  0  0  0
 11 13  2  0  0  0
 11 14  1  0  0  0
  7  8  1  0  0  0
  1  2  1  0  0  0
 14 15  1  0  0  0
M  END
> <minimizedAffinity>
-5.29372

$$$$
2VW2_NHE_A_1000


 15 15  0  0  0  0  0  0  0  0999 V2000
   -4.1055   77.1708   24.3728 N   0  0  0  0  0  0  0  0  0  0  0  0
   -4.8613   76.5079   24.2005 H   0  0  0  0  0  0  0  0  0  0  0  0
   -3.9000   80.8761   23.2607 C   0  0  0  0  0  0  0  0  0  0  0  0
   -3.4481   79.4532   23.6097 C   0  0  0  0  0  0  0  0  0  0  0  0
   -4.5855   78.4548   23.8686 C   0  0  0  0  0  0  0  0  0  0  0  0
   -5.6714   78.9844   24.8166 C   0  0  0  0  0  0  0  0  0  0  0  0
   -5.8328   80.5071   24.8651 C   0  0  0  0  0  0  0  0  0  0  0  0
   -5.3611   81.1879   23.5855 C   0  0  0  0  0  0  0  0  0  0  0  0
   -2.8948   76.5114   23.9154 C   0  0  0  0  0  0  0  0  0  0  0  0
   -3.0531   74.9945   23.9409 C   0  0  0  0  0  0  0  0  0  0  0  0
   -4.1642   74.4520   22.8179 S   0  0  0  0  0  0  0  0  0  0  0  0
   -3.5122   73.6215   21.7763 O   0  0  0  0  0  0  0  0  0  0  0  0
   -4.8161   75.6050   22.1638 O   0  0  0  0  0  0  0  0  0  0  0  0
   -5.1792   73.6533   23.5395 O   0  0  0  0  0  0  0  0  0  0  0  0
   -4.7499   72.8966   23.9686 H   0  0  0  0  0  0  0  0  0  0  0  0
  3  4  1  0  0  0
  3  8  1  0  0  0
  4  5  1  0  0  0
  5  6  1  0  0  0
  5  1  1  0  0  0
  6  7  1  0  0  0
  1  9  1  0  0  0
  9 10  1  0  0  0
 10 11  1  0  0  0
 11 12  2  0  0  0
 11 13  2  0  0  0
 11 14  1  0  0  0
  7  8  1  0  0  0
  1  2  1  0  0  0
 14 15  1  0  0  0
M  END
> <minimizedAffinity>
-5.27768

$$$$
2VW2_NHE_A_1000


 15 15  0  0  0  0  0  0  0  0999 V2000
   -5.6249   77.0945   20.9464 N   0  0  0  0  0  0  0  0  0  0  0  0
   -4.8609   76.9235   21.6002 H   0  0  0  0  0  0  0  0  0  0  0  0
   -6.2017   80.3695   22.9338 C   0  0  0  0  0  0  0  0  0  0  0  0
   -5.6351   78.9937   22.5640 C   0  0  0  0  0  0  0  0  0  0  0  0
   -6.0363   78.4772   21.1749 C   0  0  0  0  0  0  0  0  0  0  0  0
   -7.5375   78.6030   20.8765 C   0  0  0  0  0  0  0  0  0  0  0  0
   -8.2796   79.7096   21.6326 C   0  0  0  0  0  0  0  0  0  0  0  0
   -7.3595   80.8482   22.0575 C   0  0  0  0  0  0  0  0  0  0  0  0
   -6.5067   75.9465   21.0658 C   0  0  0  0  0  0  0  0  0  0  0  0
   -6.4453   75.3512   22.4689 C   0  0  0  0  0  0  0  0  0  0  0  0
   -4.9247   74.7741   22.8490 S   0  0  0  0  0  0  0  0  0  0  0  0
   -4.1463   75.7777   23.6152 O   0  0  0  0  0  0  0  0  0  0  0  0
   -4.1892   74.4514   21.6093 O   0  0  0  0  0  0  0  0  0  0  0  0
   -5.0987   73.5460   23.6554 O   0  0  0  0  0  0  0  0  0  0  0  0
   -5.5817   73.7593   24.4691 H   0  0  0  0  0  0  0  0  0  0  0  0
  3  4  1  0  0  0
  3  8  1  0  0  0
  4  5  1  0  0  0
  5  6  1  0  0  0
  5  1  1  0  0  0
  6  7  1  0  0  0
  1  9  1  0  0  0
  9 10  1  0  0  0
 10 11  1  0  0  0
 11 12  2  0  0  0
 11 13  2  0  0  0
 11 14  1  0  0  0
  7  8  1  0  0  0
  1  2  1  0  0  0
 14 15  1  0  0  0
M  END
> <minimizedAffinity>
-5.27335

$$$$
2VW2_NHE_A_1000


 15 15  0  0  0  0  0  0  0  0999 V2000
   -8.6686   79.5052   21.6508 N   0  0  0  0  0  0  0  0  0  0  0  0
   -8.9629   79.1264   22.5510 H   0  0  0  0  0  0  0  0  0  0  0  0
   -7.8557   76.3013   19.6304 C   0  0  0  0  0  0  0  0  0  0  0  0
   -8.6366   77.5159   20.1456 C   0  0  0  0  0  0  0  0  0  0  0  0
   -7.8357   78.4713   21.0420 C   0  0  0  0  0  0  0  0  0  0  0  0
   -7.0390   77.7627   22.1472 C   0  0  0  0  0  0  0  0  0  0  0  0
   -6.6393   76.3121   21.8589 C   0  0  0  0  0  0  0  0  0  0  0  0
   -6.5468   76.0148   20.3668 C   0  0  0  0  0  0  0  0  0  0  0  0
   -8.2242   80.8609   21.9231 C   0  0  0  0  0  0  0  0  0  0  0  0
   -9.2916   81.8775   21.5308 C   0  0  0  0  0  0  0  0  0  0  0  0
  -10.8391   81.2722   21.7003 S   0  0  0  0  0  0  0  0  0  0  0  0
  -10.9965   80.5556   22.9894 O   0  0  0  0  0  0  0  0  0  0  0  0
  -11.1309   80.3326   20.5985 O   0  0  0  0  0  0  0  0  0  0  0  0
  -11.7777   82.4142   21.6389 O   0  0  0  0  0  0  0  0  0  0  0  0
  -11.5850   83.0303   22.3628 H   0  0  0  0  0  0  0  0  0  0  0  0
  3  4  1  0  0  0
  3  8  1  0  0  0
  4  5  1  0  0  0
  5  6  1  0  0  0
  5  1  1  0  0  0
  6  7  1  0  0  0
  1  9  1  0  0  0
  9 10  1  0  0  0
 10 11  1  0  0  0
 11 12  2  0  0  0
 11 13  2  0  0  0
 11 14  1  0  0  0
  7  8  1  0  0  0
  1  2  1  0  0  0
 14 15  1  0  0  0
M  END
> <minimizedAffinity>
-5.19230

$$$$
2VW2_NHE_A_1000


 15 15  0  0  0  0  0  0  0  0999 V2000
   -5.7542   78.2914   20.8832 N   0  0  0  0  0  0  0  0  0  0  0  0
   -6.2526   78.9318   20.2653 H   0  0  0  0  0  0  0  0  0  0  0  0
   -6.1044   75.5206   18.1984 C   0  0  0  0  0  0  0  0  0  0  0  0
   -5.6835   76.8406   18.8549 C   0  0  0  0  0  0  0  0  0  0  0  0
   -6.0070   76.9547   20.3515 C   0  0  0  0  0  0  0  0  0  0  0  0
   -7.4428   76.5432   20.7085 C   0  0  0  0  0  0  0  0  0  0  0  0
   -8.1096   75.5460   19.7555 C   0  0  0  0  0  0  0  0  0  0  0  0
   -7.0990   74.6859   19.0057 C   0  0  0  0  0  0  0  0  0  0  0  0
   -6.0854   78.7129   22.2332 C   0  0  0  0  0  0  0  0  0  0  0  0
   -5.4937   77.7593   23.2663 C   0  0  0  0  0  0  0  0  0  0  0  0
   -4.9393   78.5577   24.6247 S   0  0  0  0  0  0  0  0  0  0  0  0
   -4.5026   77.5994   25.6691 O   0  0  0  0  0  0  0  0  0  0  0  0
   -6.0151   79.4042   25.1798 O   0  0  0  0  0  0  0  0  0  0  0  0
   -3.8020   79.4095   24.2125 O   0  0  0  0  0  0  0  0  0  0  0  0
   -3.0964   78.8525   23.8482 H   0  0  0  0  0  0  0  0  0  0  0  0
  3  4  1  0  0  0
  3  8  1  0  0  0
  4  5  1  0  0  0
  5  6  1  0  0  0
  5  1  1  0  0  0
  6  7  1  0  0  0
  1  9  1  0  0  0
  9 10  1  0  0  0
 10 11  1  0  0  0
 11 12  2  0  0  0
 11 13  2  0  0  0
 11 14  1  0  0  0
  7  8  1  0  0  0
  1  2  1  0  0  0
 14 15  1  0  0  0
M  END
> <minimizedAffinity>
-5.18781

$$$$
