1PPL_1Z7_E_324


 46 46  0  0  0  0  0  0  0  0999 V2000
   21.0138    8.6152   21.9148 C   0  0  0  0  0  0  0  0  0  0  0  0
   21.4540    8.0666   22.9220 O   0  0  0  0  0  0  0  0  0  0  0  0
   21.6493    9.4200   21.0877 N   0  0  0  0  0  0  0  0  0  0  0  0
   21.1842    9.7395   20.2810 H   0  0  0  0  0  0  0  0  0  0  0  0
   23.0092    9.8485   21.3288 C   0  0  0  0  0  0  0  0  0  0  0  0
   23.1493   11.6394   21.4309 P   0  0  0  0  0  0  0  0  0  0  0  0
   24.5795   12.0183   21.3979 O   0  0  0  0  0  0  0  0  0  0  0  0
   22.3772   12.1712   20.3138 O   0  0  0  0  0  0  0  0  0  0  0  0
   22.8074   11.9288   19.4789 H   0  0  0  0  0  0  0  0  0  0  0  0
   22.5918   11.9433   22.7884 O   0  0  0  0  0  0  0  0  0  0  0  0
   23.0666   13.1145   23.5530 C   0  0  0  0  0  0  0  0  0  0  0  0
   23.8462   12.5850   24.7782 C   0  0  0  0  0  0  0  0  0  0  0  0
   23.8342   11.3917   25.1024 O   0  0  0  0  0  0  0  0  0  0  0  0
   24.6595   13.3446   26.9179 C   0  0  0  0  0  0  0  0  0  0  0  0
   24.5428   13.5433   25.5299 O   0  0  0  0  0  0  0  0  0  0  0  0
   21.9114   14.0047   24.0869 C   0  0  0  0  0  0  0  0  0  0  0  0
   21.0245   13.4146   25.1662 C   0  0  0  0  0  0  0  0  0  0  0  0
   20.2017   12.3351   24.8820 C   0  0  0  0  0  0  0  0  0  0  0  0
   20.9980   13.9617   26.4528 C   0  0  0  0  0  0  0  0  0  0  0  0
   19.3594   11.8391   25.8814 C   0  0  0  0  0  0  0  0  0  0  0  0
   20.0926   13.5046   27.3818 C   0  0  0  0  0  0  0  0  0  0  0  0
   19.3159   12.4165   27.1455 C   0  0  0  0  0  0  0  0  0  0  0  0
   23.9950    9.2683   20.2694 C   0  0  0  0  0  0  0  0  0  0  0  0
   23.7167    7.8863   19.6086 C   0  0  0  0  0  0  0  0  0  0  0  0
   24.0980    7.8904   18.1299 C   0  0  0  0  0  0  0  0  0  0  0  0
   24.0726    6.7281   20.4862 C   0  0  0  0  0  0  0  0  0  0  0  0
   19.5383    8.2614   21.4929 C   0  0  0  0  0  0  0  0  0  0  0  0
   19.2164    6.8746   19.5515 C   0  0  0  0  0  0  0  0  0  0  0  0
   18.5089    7.7664   18.9781 O   0  0  0  0  0  0  0  0  0  0  0  0
   19.7408    6.9343   20.7625 N   0  0  0  0  0  0  0  0  0  0  0  0
   20.2268    6.1788   21.1653 H   0  0  0  0  0  0  0  0  0  0  0  0
   19.4722    5.5385   18.8691 C   0  0  0  0  0  0  0  0  0  0  0  0
   17.3883    4.3419   18.5708 C   0  0  0  0  0  0  0  0  0  0  0  0
   17.4473    4.0024   19.8078 O   0  0  0  0  0  0  0  0  0  0  0  0
   18.3053    5.1247   18.1025 N   0  0  0  0  0  0  0  0  0  0  0  0
   18.2094    5.4578   17.1810 H   0  0  0  0  0  0  0  0  0  0  0  0
   16.2129    3.7675   17.7607 C   0  0  0  0  0  0  0  0  0  0  0  0
   15.0023    4.7325   17.7022 C   0  0  0  0  0  0  0  0  0  0  0  0
   13.9303    3.8622   17.0543 C   0  0  0  0  0  0  0  0  0  0  0  0
   14.4399    5.0940   19.0483 C   0  0  0  0  0  0  0  0  0  0  0  0
   20.6304    5.7132   17.8088 C   0  0  0  0  0  0  0  0  0  0  0  0
   20.9210    4.3349   17.1960 C   0  0  0  0  0  0  0  0  0  0  0  0
   20.3208    6.6759   16.6807 C   0  0  0  0  0  0  0  0  0  0  0  0
   18.6619    8.0726   22.6931 C   0  0  0  0  0  0  0  0  0  0  0  0
   18.4667    9.4515   23.4237 C   0  0  0  0  0  0  0  0  0  0  0  0
   17.2777    7.6388   22.2366 C   0  0  0  0  0  0  0  0  0  0  0  0
 37 38  1  0  0  0
 37 33  1  0  0  0
 38 39  1  0  0  0
 38 40  1  0  0  0
 33 34  2  0  0  0
 35 32  1  0  0  0
 32 28  1  0  0  0
 32 41  1  0  0  0
 28 29  2  0  0  0
 41 42  1  0  0  0
 41 43  1  0  0  0
 30 27  1  0  0  0
 27  1  1  0  0  0
 27 44  1  0  0  0
  1  2  2  0  0  0
 44 45  1  0  0  0
 44 46  1  0  0  0
  5 23  1  0  0  0
  5  3  1  0  0  0
  5  6  1  0  0  0
 23 24  1  0  0  0
 24 25  1  0  0  0
 24 26  1  0  0  0
  6  7  2  0  0  0
  6  8  1  0  0  0
 11 16  1  0  0  0
 11 12  1  0  0  0
 11 10  1  0  0  0
 16 17  1  0  0  0
 17 18  2  0  0  0
 17 19  1  0  0  0
 18 20  1  0  0  0
 19 21  2  0  0  0
 20 22  2  0  0  0
 21 22  1  0  0  0
 12 15  1  0  0  0
 12 13  2  0  0  0
 14 15  1  0  0  0
 33 35  1  0  0  0
 28 30  1  0  0  0
  1  3  1  0  0  0
  6 10  1  0  0  0
 35 36  1  0  0  0
 30 31  1  0  0  0
  3  4  1  0  0  0
  8  9  1  0  0  0
M  END
> <minimizedAffinity>
-9.43914

$$$$
1PPL_1Z7_E_324


 46 46  0  0  0  0  0  0  0  0999 V2000
   18.6556    7.9328   21.8471 C   0  0  0  0  0  0  0  0  0  0  0  0
   18.3239    8.9068   21.1760 O   0  0  0  0  0  0  0  0  0  0  0  0
   18.8342    6.6924   21.4406 N   0  0  0  0  0  0  0  0  0  0  0  0
   19.1625    6.0223   22.0828 H   0  0  0  0  0  0  0  0  0  0  0  0
   18.5627    6.2851   20.0799 C   0  0  0  0  0  0  0  0  0  0  0  0
   19.8824    6.7593   18.9526 P   0  0  0  0  0  0  0  0  0  0  0  0
   19.2925    7.1777   17.6614 O   0  0  0  0  0  0  0  0  0  0  0  0
   20.6297    7.8161   19.6244 O   0  0  0  0  0  0  0  0  0  0  0  0
   20.0706    8.6043   19.7085 H   0  0  0  0  0  0  0  0  0  0  0  0
   20.6339    5.4776   18.7568 O   0  0  0  0  0  0  0  0  0  0  0  0
   21.1953    5.1275   17.4362 C   0  0  0  0  0  0  0  0  0  0  0  0
   20.7019    3.7058   17.0834 C   0  0  0  0  0  0  0  0  0  0  0  0
   21.0227    3.1379   16.0328 O   0  0  0  0  0  0  0  0  0  0  0  0
   18.4600    3.0723   17.7077 C   0  0  0  0  0  0  0  0  0  0  0  0
   19.8343    3.1046   18.0078 O   0  0  0  0  0  0  0  0  0  0  0  0
   22.7480    5.0972   17.4210 C   0  0  0  0  0  0  0  0  0  0  0  0
   23.4694    6.1748   18.2072 C   0  0  0  0  0  0  0  0  0  0  0  0
   23.5826    7.4577   17.6931 C   0  0  0  0  0  0  0  0  0  0  0  0
   24.0553    5.8906   19.4447 C   0  0  0  0  0  0  0  0  0  0  0  0
   24.2925    8.4209   18.4160 C   0  0  0  0  0  0  0  0  0  0  0  0
   24.8207    6.8383   20.0831 C   0  0  0  0  0  0  0  0  0  0  0  0
   24.9021    8.1147   19.6277 C   0  0  0  0  0  0  0  0  0  0  0  0
   17.1829    6.8136   19.5821 C   0  0  0  0  0  0  0  0  0  0  0  0
   15.8613    6.2566   20.1881 C   0  0  0  0  0  0  0  0  0  0  0  0
   15.1380    7.3180   21.0140 C   0  0  0  0  0  0  0  0  0  0  0  0
   15.1043    5.3739   19.2467 C   0  0  0  0  0  0  0  0  0  0  0  0
   18.9970    8.1894   23.3628 C   0  0  0  0  0  0  0  0  0  0  0  0
   21.0083    9.4784   23.0639 C   0  0  0  0  0  0  0  0  0  0  0  0
   21.7222    8.4258   22.9805 O   0  0  0  0  0  0  0  0  0  0  0  0
   19.7082    9.5402   23.2898 N   0  0  0  0  0  0  0  0  0  0  0  0
   19.2320   10.3944   23.4028 H   0  0  0  0  0  0  0  0  0  0  0  0
   21.6528   10.8544   22.9790 C   0  0  0  0  0  0  0  0  0  0  0  0
   20.6317   12.4470   24.4905 C   0  0  0  0  0  0  0  0  0  0  0  0
   19.7227   12.6493   23.6064 O   0  0  0  0  0  0  0  0  0  0  0  0
   21.5353   11.5530   24.2513 N   0  0  0  0  0  0  0  0  0  0  0  0
   22.1762   11.3337   24.9657 H   0  0  0  0  0  0  0  0  0  0  0  0
   20.5500   13.3082   25.7629 C   0  0  0  0  0  0  0  0  0  0  0  0
   20.3261   12.4620   27.0412 C   0  0  0  0  0  0  0  0  0  0  0  0
   20.8365   13.3940   28.1355 C   0  0  0  0  0  0  0  0  0  0  0  0
   18.8798   12.2311   27.3790 C   0  0  0  0  0  0  0  0  0  0  0  0
   23.2046   10.6840   22.7357 C   0  0  0  0  0  0  0  0  0  0  0  0
   23.4986   11.0679   21.2777 C   0  0  0  0  0  0  0  0  0  0  0  0
   24.0862   11.5279   23.6334 C   0  0  0  0  0  0  0  0  0  0  0  0
   17.7516    8.2949   24.1887 C   0  0  0  0  0  0  0  0  0  0  0  0
   17.3411    6.8676   24.7056 C   0  0  0  0  0  0  0  0  0  0  0  0
   18.0448    9.1235   25.4296 C   0  0  0  0  0  0  0  0  0  0  0  0
 37 38  1  0  0  0
 37 33  1  0  0  0
 38 39  1  0  0  0
 38 40  1  0  0  0
 33 34  2  0  0  0
 35 32  1  0  0  0
 32 28  1  0  0  0
 32 41  1  0  0  0
 28 29  2  0  0  0
 41 42  1  0  0  0
 41 43  1  0  0  0
 30 27  1  0  0  0
 27  1  1  0  0  0
 27 44  1  0  0  0
  1  2  2  0  0  0
 44 45  1  0  0  0
 44 46  1  0  0  0
  5 23  1  0  0  0
  5  3  1  0  0  0
  5  6  1  0  0  0
 23 24  1  0  0  0
 24 25  1  0  0  0
 24 26  1  0  0  0
  6  7  2  0  0  0
  6  8  1  0  0  0
 11 16  1  0  0  0
 11 12  1  0  0  0
 11 10  1  0  0  0
 16 17  1  0  0  0
 17 18  2  0  0  0
 17 19  1  0  0  0
 18 20  1  0  0  0
 19 21  2  0  0  0
 20 22  2  0  0  0
 21 22  1  0  0  0
 12 15  1  0  0  0
 12 13  2  0  0  0
 14 15  1  0  0  0
 33 35  1  0  0  0
 28 30  1  0  0  0
  1  3  1  0  0  0
  6 10  1  0  0  0
 35 36  1  0  0  0
 30 31  1  0  0  0
  3  4  1  0  0  0
  8  9  1  0  0  0
M  END
> <minimizedAffinity>
-9.17009

$$$$
1PPL_1Z7_E_324


 46 46  0  0  0  0  0  0  0  0999 V2000
   19.2885    7.6306   20.5990 C   0  0  0  0  0  0  0  0  0  0  0  0
   18.3748    8.1722   19.9818 O   0  0  0  0  0  0  0  0  0  0  0  0
   20.2940    6.9335   20.1104 N   0  0  0  0  0  0  0  0  0  0  0  0
   20.9915    6.6075   20.7239 H   0  0  0  0  0  0  0  0  0  0  0  0
   20.4043    6.6325   18.7004 C   0  0  0  0  0  0  0  0  0  0  0  0
   19.8054    4.9815   18.3092 P   0  0  0  0  0  0  0  0  0  0  0  0
   20.4655    4.5045   17.0735 O   0  0  0  0  0  0  0  0  0  0  0  0
   20.0896    4.1589   19.4793 O   0  0  0  0  0  0  0  0  0  0  0  0
   21.0494    4.0642   19.5827 H   0  0  0  0  0  0  0  0  0  0  0  0
   18.3502    5.2087   18.0323 O   0  0  0  0  0  0  0  0  0  0  0  0
   17.3187    4.7041   18.9614 C   0  0  0  0  0  0  0  0  0  0  0  0
   17.1824    3.1830   18.7229 C   0  0  0  0  0  0  0  0  0  0  0  0
   16.6649    2.7193   17.7000 O   0  0  0  0  0  0  0  0  0  0  0  0
   18.3431    1.1804   19.4007 C   0  0  0  0  0  0  0  0  0  0  0  0
   17.6465    2.3510   19.7530 O   0  0  0  0  0  0  0  0  0  0  0  0
   15.9209    5.3382   18.7251 C   0  0  0  0  0  0  0  0  0  0  0  0
   15.2208    5.9394   19.9285 C   0  0  0  0  0  0  0  0  0  0  0  0
   15.2619    7.3078   20.1496 C   0  0  0  0  0  0  0  0  0  0  0  0
   14.5486    5.1281   20.8480 C   0  0  0  0  0  0  0  0  0  0  0  0
   14.6481    7.8319   21.2910 C   0  0  0  0  0  0  0  0  0  0  0  0
   14.0347    5.6688   22.0035 C   0  0  0  0  0  0  0  0  0  0  0  0
   14.0153    7.0095   22.2166 C   0  0  0  0  0  0  0  0  0  0  0  0
   21.8579    6.8405   18.1763 C   0  0  0  0  0  0  0  0  0  0  0  0
   23.0448    6.0629   18.8172 C   0  0  0  0  0  0  0  0  0  0  0  0
   23.8389    5.2939   17.7638 C   0  0  0  0  0  0  0  0  0  0  0  0
   23.7461    6.8332   19.8911 C   0  0  0  0  0  0  0  0  0  0  0  0
   19.3322    7.8544   22.1572 C   0  0  0  0  0  0  0  0  0  0  0  0
   21.2004    9.3130   22.5791 C   0  0  0  0  0  0  0  0  0  0  0  0
   21.9487    8.3328   22.9013 O   0  0  0  0  0  0  0  0  0  0  0  0
   19.9231    9.2610   22.2460 N   0  0  0  0  0  0  0  0  0  0  0  0
   19.3906   10.0696   22.0679 H   0  0  0  0  0  0  0  0  0  0  0  0
   21.7342   10.7374   22.6273 C   0  0  0  0  0  0  0  0  0  0  0  0
   20.6230   12.1354   24.2626 C   0  0  0  0  0  0  0  0  0  0  0  0
   19.7256   12.3923   23.3808 O   0  0  0  0  0  0  0  0  0  0  0  0
   21.5642   11.3019   23.9589 N   0  0  0  0  0  0  0  0  0  0  0  0
   22.1979   11.0356   24.6637 H   0  0  0  0  0  0  0  0  0  0  0  0
   20.4826   12.8629   25.6112 C   0  0  0  0  0  0  0  0  0  0  0  0
   21.8519   13.2473   26.2256 C   0  0  0  0  0  0  0  0  0  0  0  0
   22.1468   14.5788   25.5424 C   0  0  0  0  0  0  0  0  0  0  0  0
   21.7971   13.5732   27.6918 C   0  0  0  0  0  0  0  0  0  0  0  0
   23.2941   10.7133   22.3779 C   0  0  0  0  0  0  0  0  0  0  0  0
   23.5290   10.6898   20.8601 C   0  0  0  0  0  0  0  0  0  0  0  0
   24.0494   11.8932   22.9546 C   0  0  0  0  0  0  0  0  0  0  0  0
   17.9557    7.8241   22.7479 C   0  0  0  0  0  0  0  0  0  0  0  0
   17.5030    6.3317   22.9498 C   0  0  0  0  0  0  0  0  0  0  0  0
   17.9951    8.4432   24.1363 C   0  0  0  0  0  0  0  0  0  0  0  0
 37 38  1  0  0  0
 37 33  1  0  0  0
 38 39  1  0  0  0
 38 40  1  0  0  0
 33 34  2  0  0  0
 35 32  1  0  0  0
 32 28  1  0  0  0
 32 41  1  0  0  0
 28 29  2  0  0  0
 41 42  1  0  0  0
 41 43  1  0  0  0
 30 27  1  0  0  0
 27  1  1  0  0  0
 27 44  1  0  0  0
  1  2  2  0  0  0
 44 45  1  0  0  0
 44 46  1  0  0  0
  5 23  1  0  0  0
  5  3  1  0  0  0
  5  6  1  0  0  0
 23 24  1  0  0  0
 24 25  1  0  0  0
 24 26  1  0  0  0
  6  7  2  0  0  0
  6  8  1  0  0  0
 11 16  1  0  0  0
 11 12  1  0  0  0
 11 10  1  0  0  0
 16 17  1  0  0  0
 17 18  2  0  0  0
 17 19  1  0  0  0
 18 20  1  0  0  0
 19 21  2  0  0  0
 20 22  2  0  0  0
 21 22  1  0  0  0
 12 15  1  0  0  0
 12 13  2  0  0  0
 14 15  1  0  0  0
 33 35  1  0  0  0
 28 30  1  0  0  0
  1  3  1  0  0  0
  6 10  1  0  0  0
 35 36  1  0  0  0
 30 31  1  0  0  0
  3  4  1  0  0  0
  8  9  1  0  0  0
M  END
> <minimizedAffinity>
-8.94404

$$$$
1PPL_1Z7_E_324


 46 46  0  0  0  0  0  0  0  0999 V2000
   21.5162    8.5521   22.0528 C   0  0  0  0  0  0  0  0  0  0  0  0
   21.9071    7.9026   23.0196 O   0  0  0  0  0  0  0  0  0  0  0  0
   20.2763    8.7290   21.6441 N   0  0  0  0  0  0  0  0  0  0  0  0
   20.1058    9.3299   20.8831 H   0  0  0  0  0  0  0  0  0  0  0  0
   19.1582    8.0676   22.2792 C   0  0  0  0  0  0  0  0  0  0  0  0
   18.2130    7.0672   21.1202 P   0  0  0  0  0  0  0  0  0  0  0  0
   17.6203    7.9474   20.0886 O   0  0  0  0  0  0  0  0  0  0  0  0
   19.1430    6.0805   20.5835 O   0  0  0  0  0  0  0  0  0  0  0  0
   19.8145    6.5281   20.0455 H   0  0  0  0  0  0  0  0  0  0  0  0
   17.1177    6.5066   21.9757 O   0  0  0  0  0  0  0  0  0  0  0  0
   15.7641    6.2947   21.4238 C   0  0  0  0  0  0  0  0  0  0  0  0
   14.7490    6.6325   22.5394 C   0  0  0  0  0  0  0  0  0  0  0  0
   13.5441    6.3750   22.4351 O   0  0  0  0  0  0  0  0  0  0  0  0
   14.4401    7.4092   24.8018 C   0  0  0  0  0  0  0  0  0  0  0  0
   15.2654    7.2854   23.6690 O   0  0  0  0  0  0  0  0  0  0  0  0
   15.5046    4.8266   20.9888 C   0  0  0  0  0  0  0  0  0  0  0  0
   14.9713    4.6036   19.5868 C   0  0  0  0  0  0  0  0  0  0  0  0
   15.8450    4.4983   18.5152 C   0  0  0  0  0  0  0  0  0  0  0  0
   13.5960    4.5286   19.3449 C   0  0  0  0  0  0  0  0  0  0  0  0
   15.3264    4.3395   17.2267 C   0  0  0  0  0  0  0  0  0  0  0  0
   13.1217    4.4620   18.0556 C   0  0  0  0  0  0  0  0  0  0  0  0
   13.9557    4.3041   16.9960 C   0  0  0  0  0  0  0  0  0  0  0  0
   18.2374    9.0785   23.0283 C   0  0  0  0  0  0  0  0  0  0  0  0
   18.6898    9.7024   24.3811 C   0  0  0  0  0  0  0  0  0  0  0  0
   18.9154   11.2071   24.2514 C   0  0  0  0  0  0  0  0  0  0  0  0
   17.9693    9.1370   25.5641 C   0  0  0  0  0  0  0  0  0  0  0  0
   22.6031    9.3486   21.2377 C   0  0  0  0  0  0  0  0  0  0  0  0
   22.7313   11.5439   22.2175 C   0  0  0  0  0  0  0  0  0  0  0  0
   21.9933   12.0416   21.3053 O   0  0  0  0  0  0  0  0  0  0  0  0
   23.1513   10.2945   22.3056 N   0  0  0  0  0  0  0  0  0  0  0  0
   23.7722    9.9945   23.0082 H   0  0  0  0  0  0  0  0  0  0  0  0
   23.2933   12.4285   23.3211 C   0  0  0  0  0  0  0  0  0  0  0  0
   21.7478   13.8636   24.5110 C   0  0  0  0  0  0  0  0  0  0  0  0
   22.0486   14.8063   23.6926 O   0  0  0  0  0  0  0  0  0  0  0  0
   22.2762   12.6973   24.3281 N   0  0  0  0  0  0  0  0  0  0  0  0
   21.9756   11.9534   24.8986 H   0  0  0  0  0  0  0  0  0  0  0  0
   20.7753   14.2293   25.6458 C   0  0  0  0  0  0  0  0  0  0  0  0
   20.7950   13.1985   26.8022 C   0  0  0  0  0  0  0  0  0  0  0  0
   21.8573   13.7788   27.7302 C   0  0  0  0  0  0  0  0  0  0  0  0
   19.5381   13.1760   27.6259 C   0  0  0  0  0  0  0  0  0  0  0  0
   24.4373   11.6455   24.0788 C   0  0  0  0  0  0  0  0  0  0  0  0
   25.7820   12.2715   23.6793 C   0  0  0  0  0  0  0  0  0  0  0  0
   24.3341   11.6725   25.5900 C   0  0  0  0  0  0  0  0  0  0  0  0
   23.6822    8.4370   20.7388 C   0  0  0  0  0  0  0  0  0  0  0  0
   23.0331    7.1989   20.0185 C   0  0  0  0  0  0  0  0  0  0  0  0
   24.4961    9.1616   19.6781 C   0  0  0  0  0  0  0  0  0  0  0  0
 37 38  1  0  0  0
 37 33  1  0  0  0
 38 39  1  0  0  0
 38 40  1  0  0  0
 33 34  2  0  0  0
 35 32  1  0  0  0
 32 28  1  0  0  0
 32 41  1  0  0  0
 28 29  2  0  0  0
 41 42  1  0  0  0
 41 43  1  0  0  0
 30 27  1  0  0  0
 27  1  1  0  0  0
 27 44  1  0  0  0
  1  2  2  0  0  0
 44 45  1  0  0  0
 44 46  1  0  0  0
  5 23  1  0  0  0
  5  3  1  0  0  0
  5  6  1  0  0  0
 23 24  1  0  0  0
 24 25  1  0  0  0
 24 26  1  0  0  0
  6  7  2  0  0  0
  6  8  1  0  0  0
 11 16  1  0  0  0
 11 12  1  0  0  0
 11 10  1  0  0  0
 16 17  1  0  0  0
 17 18  2  0  0  0
 17 19  1  0  0  0
 18 20  1  0  0  0
 19 21  2  0  0  0
 20 22  2  0  0  0
 21 22  1  0  0  0
 12 15  1  0  0  0
 12 13  2  0  0  0
 14 15  1  0  0  0
 33 35  1  0  0  0
 28 30  1  0  0  0
  1  3  1  0  0  0
  6 10  1  0  0  0
 35 36  1  0  0  0
 30 31  1  0  0  0
  3  4  1  0  0  0
  8  9  1  0  0  0
M  END
> <minimizedAffinity>
-8.84963

$$$$
1PPL_1Z7_E_324


 46 46  0  0  0  0  0  0  0  0999 V2000
   19.7316    7.5450   20.2241 C   0  0  0  0  0  0  0  0  0  0  0  0
   19.0013    8.1172   19.4188 O   0  0  0  0  0  0  0  0  0  0  0  0
   20.7640    6.7669   19.9702 N   0  0  0  0  0  0  0  0  0  0  0  0
   21.2988    6.4232   20.7219 H   0  0  0  0  0  0  0  0  0  0  0  0
   21.1357    6.4025   18.6211 C   0  0  0  0  0  0  0  0  0  0  0  0
   20.1880    5.0000   18.0107 P   0  0  0  0  0  0  0  0  0  0  0  0
   19.4665    5.3983   16.7815 O   0  0  0  0  0  0  0  0  0  0  0  0
   21.1475    3.9217   17.8027 O   0  0  0  0  0  0  0  0  0  0  0  0
   21.7480    4.1584   17.0786 H   0  0  0  0  0  0  0  0  0  0  0  0
   19.1952    4.7623   19.1078 O   0  0  0  0  0  0  0  0  0  0  0  0
   18.1397    3.7396   18.9601 C   0  0  0  0  0  0  0  0  0  0  0  0
   18.8383    2.3814   18.7223 C   0  0  0  0  0  0  0  0  0  0  0  0
   19.4571    1.7923   19.6163 O   0  0  0  0  0  0  0  0  0  0  0  0
   18.4083    0.5156   17.2558 C   0  0  0  0  0  0  0  0  0  0  0  0
   18.7640    1.8671   17.4190 O   0  0  0  0  0  0  0  0  0  0  0  0
   17.2033    3.9986   17.7485 C   0  0  0  0  0  0  0  0  0  0  0  0
   15.7322    4.2177   18.0445 C   0  0  0  0  0  0  0  0  0  0  0  0
   15.2861    4.2890   19.3555 C   0  0  0  0  0  0  0  0  0  0  0  0
   14.7990    4.3233   17.0084 C   0  0  0  0  0  0  0  0  0  0  0  0
   13.9189    4.4450   19.6021 C   0  0  0  0  0  0  0  0  0  0  0  0
   13.4544    4.3861   17.2906 C   0  0  0  0  0  0  0  0  0  0  0  0
   12.9975    4.5110   18.5629 C   0  0  0  0  0  0  0  0  0  0  0  0
   22.6676    6.1426   18.4932 C   0  0  0  0  0  0  0  0  0  0  0  0
   23.6906    7.1684   19.0636 C   0  0  0  0  0  0  0  0  0  0  0  0
   24.3006    6.6752   20.3737 C   0  0  0  0  0  0  0  0  0  0  0  0
   24.5475    7.7977   18.0109 C   0  0  0  0  0  0  0  0  0  0  0  0
   19.4751    7.8288   21.7517 C   0  0  0  0  0  0  0  0  0  0  0  0
   21.2382    9.3002   22.4743 C   0  0  0  0  0  0  0  0  0  0  0  0
   21.9001    8.3324   22.9740 O   0  0  0  0  0  0  0  0  0  0  0  0
   20.0502    9.2369   21.9002 N   0  0  0  0  0  0  0  0  0  0  0  0
   19.5701   10.0387   21.5904 H   0  0  0  0  0  0  0  0  0  0  0  0
   21.7654   10.7246   22.5712 C   0  0  0  0  0  0  0  0  0  0  0  0
   20.7310   12.1667   24.2185 C   0  0  0  0  0  0  0  0  0  0  0  0
   19.9181   12.5647   23.3075 O   0  0  0  0  0  0  0  0  0  0  0  0
   21.5874   11.2447   23.9197 N   0  0  0  0  0  0  0  0  0  0  0  0
   22.1473   10.8757   24.6405 H   0  0  0  0  0  0  0  0  0  0  0  0
   20.5998   12.8443   25.5937 C   0  0  0  0  0  0  0  0  0  0  0  0
   19.8828   11.9472   26.6335 C   0  0  0  0  0  0  0  0  0  0  0  0
   19.3912   12.9694   27.6533 C   0  0  0  0  0  0  0  0  0  0  0  0
   18.6337   11.2888   26.1186 C   0  0  0  0  0  0  0  0  0  0  0  0
   23.3265   10.7154   22.3278 C   0  0  0  0  0  0  0  0  0  0  0  0
   23.5695   10.4574   20.8331 C   0  0  0  0  0  0  0  0  0  0  0  0
   24.0375   11.9981   22.7075 C   0  0  0  0  0  0  0  0  0  0  0  0
   18.0102    7.8234   22.0654 C   0  0  0  0  0  0  0  0  0  0  0  0
   17.4555    6.3556   21.9605 C   0  0  0  0  0  0  0  0  0  0  0  0
   17.8084    8.2469   23.5119 C   0  0  0  0  0  0  0  0  0  0  0  0
 37 38  1  0  0  0
 37 33  1  0  0  0
 38 39  1  0  0  0
 38 40  1  0  0  0
 33 34  2  0  0  0
 35 32  1  0  0  0
 32 28  1  0  0  0
 32 41  1  0  0  0
 28 29  2  0  0  0
 41 42  1  0  0  0
 41 43  1  0  0  0
 30 27  1  0  0  0
 27  1  1  0  0  0
 27 44  1  0  0  0
  1  2  2  0  0  0
 44 45  1  0  0  0
 44 46  1  0  0  0
  5 23  1  0  0  0
  5  3  1  0  0  0
  5  6  1  0  0  0
 23 24  1  0  0  0
 24 25  1  0  0  0
 24 26  1  0  0  0
  6  7  2  0  0  0
  6  8  1  0  0  0
 11 16  1  0  0  0
 11 12  1  0  0  0
 11 10  1  0  0  0
 16 17  1  0  0  0
 17 18  2  0  0  0
 17 19  1  0  0  0
 18 20  1  0  0  0
 19 21  2  0  0  0
 20 22  2  0  0  0
 21 22  1  0  0  0
 12 15  1  0  0  0
 12 13  2  0  0  0
 14 15  1  0  0  0
 33 35  1  0  0  0
 28 30  1  0  0  0
  1  3  1  0  0  0
  6 10  1  0  0  0
 35 36  1  0  0  0
 30 31  1  0  0  0
  3  4  1  0  0  0
  8  9  1  0  0  0
M  END
> <minimizedAffinity>
-8.73868

$$$$
1PPL_1Z7_E_324


 46 46  0  0  0  0  0  0  0  0999 V2000
   18.9025    6.8861   19.5505 C   0  0  0  0  0  0  0  0  0  0  0  0
   18.4197    7.6809   18.7477 O   0  0  0  0  0  0  0  0  0  0  0  0
   19.2584    7.1116   20.7988 N   0  0  0  0  0  0  0  0  0  0  0  0
   19.5767    6.3588   21.3476 H   0  0  0  0  0  0  0  0  0  0  0  0
   19.1960    8.4309   21.3872 C   0  0  0  0  0  0  0  0  0  0  0  0
   20.6469    8.7990   22.3856 P   0  0  0  0  0  0  0  0  0  0  0  0
   20.2161    9.4049   23.6652 O   0  0  0  0  0  0  0  0  0  0  0  0
   21.3597    7.5370   22.5463 O   0  0  0  0  0  0  0  0  0  0  0  0
   20.8268    6.9309   23.0845 H   0  0  0  0  0  0  0  0  0  0  0  0
   21.3630    9.8320   21.5695 O   0  0  0  0  0  0  0  0  0  0  0  0
   22.8139   10.0521   21.7376 C   0  0  0  0  0  0  0  0  0  0  0  0
   22.9955   11.3524   22.5533 C   0  0  0  0  0  0  0  0  0  0  0  0
   22.7746   12.4697   22.0716 O   0  0  0  0  0  0  0  0  0  0  0  0
   24.2163   12.2443   24.4324 C   0  0  0  0  0  0  0  0  0  0  0  0
   23.4636   11.1986   23.8671 O   0  0  0  0  0  0  0  0  0  0  0  0
   23.5634   10.2405   20.3905 C   0  0  0  0  0  0  0  0  0  0  0  0
   24.0457    8.9877   19.6851 C   0  0  0  0  0  0  0  0  0  0  0  0
   24.2917    9.0046   18.3205 C   0  0  0  0  0  0  0  0  0  0  0  0
   24.2233    7.7913   20.3871 C   0  0  0  0  0  0  0  0  0  0  0  0
   24.6908    7.8248   17.6858 C   0  0  0  0  0  0  0  0  0  0  0  0
   24.5298    6.6318   19.7140 C   0  0  0  0  0  0  0  0  0  0  0  0
   24.8274    6.6333   18.3893 C   0  0  0  0  0  0  0  0  0  0  0  0
   17.8850    8.6381   22.2054 C   0  0  0  0  0  0  0  0  0  0  0  0
   16.8002    7.5221   22.2501 C   0  0  0  0  0  0  0  0  0  0  0  0
   16.7521    6.8484   23.6196 C   0  0  0  0  0  0  0  0  0  0  0  0
   15.5388    7.8939   21.5366 C   0  0  0  0  0  0  0  0  0  0  0  0
   19.0433    5.3896   19.0808 C   0  0  0  0  0  0  0  0  0  0  0  0
   17.0634    4.1850   19.7325 C   0  0  0  0  0  0  0  0  0  0  0  0
   17.6688    3.6310   20.7077 O   0  0  0  0  0  0  0  0  0  0  0  0
   17.5832    5.0080   18.8395 N   0  0  0  0  0  0  0  0  0  0  0  0
   17.0675    5.3506   18.0741 H   0  0  0  0  0  0  0  0  0  0  0  0
   15.6030    3.8627   19.4500 C   0  0  0  0  0  0  0  0  0  0  0  0
   14.0283    4.1403   21.2684 C   0  0  0  0  0  0  0  0  0  0  0  0
   14.1922    2.8988   21.5526 O   0  0  0  0  0  0  0  0  0  0  0  0
   14.7305    4.6505   20.3095 N   0  0  0  0  0  0  0  0  0  0  0  0
   14.6721    5.6207   20.1527 H   0  0  0  0  0  0  0  0  0  0  0  0
   12.9919    4.9026   22.1124 C   0  0  0  0  0  0  0  0  0  0  0  0
   13.5779    5.4201   23.4499 C   0  0  0  0  0  0  0  0  0  0  0  0
   12.7033    6.6374   23.7328 C   0  0  0  0  0  0  0  0  0  0  0  0
   13.3460    4.5026   24.6175 C   0  0  0  0  0  0  0  0  0  0  0  0
   15.2518    4.3073   17.9752 C   0  0  0  0  0  0  0  0  0  0  0  0
   15.2095    3.0459   17.0995 C   0  0  0  0  0  0  0  0  0  0  0  0
   13.9288    5.0303   17.8262 C   0  0  0  0  0  0  0  0  0  0  0  0
   19.8293    5.2923   17.8092 C   0  0  0  0  0  0  0  0  0  0  0  0
   21.3190    5.7181   18.0781 C   0  0  0  0  0  0  0  0  0  0  0  0
   19.8808    3.8389   17.3648 C   0  0  0  0  0  0  0  0  0  0  0  0
 37 38  1  0  0  0
 37 33  1  0  0  0
 38 39  1  0  0  0
 38 40  1  0  0  0
 33 34  2  0  0  0
 35 32  1  0  0  0
 32 28  1  0  0  0
 32 41  1  0  0  0
 28 29  2  0  0  0
 41 42  1  0  0  0
 41 43  1  0  0  0
 30 27  1  0  0  0
 27  1  1  0  0  0
 27 44  1  0  0  0
  1  2  2  0  0  0
 44 45  1  0  0  0
 44 46  1  0  0  0
  5 23  1  0  0  0
  5  3  1  0  0  0
  5  6  1  0  0  0
 23 24  1  0  0  0
 24 25  1  0  0  0
 24 26  1  0  0  0
  6  7  2  0  0  0
  6  8  1  0  0  0
 11 16  1  0  0  0
 11 12  1  0  0  0
 11 10  1  0  0  0
 16 17  1  0  0  0
 17 18  2  0  0  0
 17 19  1  0  0  0
 18 20  1  0  0  0
 19 21  2  0  0  0
 20 22  2  0  0  0
 21 22  1  0  0  0
 12 15  1  0  0  0
 12 13  2  0  0  0
 14 15  1  0  0  0
 33 35  1  0  0  0
 28 30  1  0  0  0
  1  3  1  0  0  0
  6 10  1  0  0  0
 35 36  1  0  0  0
 30 31  1  0  0  0
  3  4  1  0  0  0
  8  9  1  0  0  0
M  END
> <minimizedAffinity>
-8.71326

$$$$
1PPL_1Z7_E_324


 46 46  0  0  0  0  0  0  0  0999 V2000
   21.4170    8.7772   21.7135 C   0  0  0  0  0  0  0  0  0  0  0  0
   21.5284    8.2504   22.8177 O   0  0  0  0  0  0  0  0  0  0  0  0
   20.4210    8.6630   20.8587 N   0  0  0  0  0  0  0  0  0  0  0  0
   20.4389    9.1960   20.0311 H   0  0  0  0  0  0  0  0  0  0  0  0
   19.3023    7.7789   21.0990 C   0  0  0  0  0  0  0  0  0  0  0  0
   18.5587    7.1928   19.5689 P   0  0  0  0  0  0  0  0  0  0  0  0
   17.1352    7.5960   19.5341 O   0  0  0  0  0  0  0  0  0  0  0  0
   19.3546    7.7612   18.4872 O   0  0  0  0  0  0  0  0  0  0  0  0
   19.2406    8.7244   18.4736 H   0  0  0  0  0  0  0  0  0  0  0  0
   18.6439    5.7026   19.7031 O   0  0  0  0  0  0  0  0  0  0  0  0
   17.4359    4.8636   19.5675 C   0  0  0  0  0  0  0  0  0  0  0  0
   17.6612    3.5850   20.4063 C   0  0  0  0  0  0  0  0  0  0  0  0
   18.7704    3.0471   20.5041 O   0  0  0  0  0  0  0  0  0  0  0  0
   15.6147    3.9237   21.6367 C   0  0  0  0  0  0  0  0  0  0  0  0
   16.5248    3.0422   21.0247 O   0  0  0  0  0  0  0  0  0  0  0  0
   17.1630    4.4175   18.1051 C   0  0  0  0  0  0  0  0  0  0  0  0
   15.7516    3.9777   17.7671 C   0  0  0  0  0  0  0  0  0  0  0  0
   15.5181    2.7104   17.2548 C   0  0  0  0  0  0  0  0  0  0  0  0
   14.6685    4.8456   17.9377 C   0  0  0  0  0  0  0  0  0  0  0  0
   14.2140    2.3457   16.9078 C   0  0  0  0  0  0  0  0  0  0  0  0
   13.4151    4.4838   17.5020 C   0  0  0  0  0  0  0  0  0  0  0  0
   13.1517    3.2319   17.0476 C   0  0  0  0  0  0  0  0  0  0  0  0
   18.2345    8.4355   22.0259 C   0  0  0  0  0  0  0  0  0  0  0  0
   17.4408    7.5704   23.0486 C   0  0  0  0  0  0  0  0  0  0  0  0
   17.9195    7.8195   24.4770 C   0  0  0  0  0  0  0  0  0  0  0  0
   15.9803    7.4773   22.7375 C   0  0  0  0  0  0  0  0  0  0  0  0
   22.5495    9.7827   21.2815 C   0  0  0  0  0  0  0  0  0  0  0  0
   23.1196   11.7853   22.4900 C   0  0  0  0  0  0  0  0  0  0  0  0
   23.2452   12.4525   21.4113 O   0  0  0  0  0  0  0  0  0  0  0  0
   22.8391   10.4991   22.6001 N   0  0  0  0  0  0  0  0  0  0  0  0
   22.8182   10.0357   23.4684 H   0  0  0  0  0  0  0  0  0  0  0  0
   23.3746   12.4452   23.8375 C   0  0  0  0  0  0  0  0  0  0  0  0
   21.2600   12.9605   24.8988 C   0  0  0  0  0  0  0  0  0  0  0  0
   21.1535   13.9719   24.1148 O   0  0  0  0  0  0  0  0  0  0  0  0
   22.2769   12.1742   24.7551 N   0  0  0  0  0  0  0  0  0  0  0  0
   22.3104   11.3505   25.2934 H   0  0  0  0  0  0  0  0  0  0  0  0
   20.1476   12.7902   25.9482 C   0  0  0  0  0  0  0  0  0  0  0  0
   19.3948   11.4438   25.8047 C   0  0  0  0  0  0  0  0  0  0  0  0
   18.3629   11.5332   26.9243 C   0  0  0  0  0  0  0  0  0  0  0  0
   18.5836   11.3253   24.5450 C   0  0  0  0  0  0  0  0  0  0  0  0
   24.6487   11.7881   24.5017 C   0  0  0  0  0  0  0  0  0  0  0  0
   25.8859   12.5530   24.0078 C   0  0  0  0  0  0  0  0  0  0  0  0
   24.6568   11.8045   26.0166 C   0  0  0  0  0  0  0  0  0  0  0  0
   23.7668    9.0539   20.8007 C   0  0  0  0  0  0  0  0  0  0  0  0
   23.4263    7.5305   20.6098 C   0  0  0  0  0  0  0  0  0  0  0  0
   24.1489    9.5752   19.4242 C   0  0  0  0  0  0  0  0  0  0  0  0
 37 38  1  0  0  0
 37 33  1  0  0  0
 38 39  1  0  0  0
 38 40  1  0  0  0
 33 34  2  0  0  0
 35 32  1  0  0  0
 32 28  1  0  0  0
 32 41  1  0  0  0
 28 29  2  0  0  0
 41 42  1  0  0  0
 41 43  1  0  0  0
 30 27  1  0  0  0
 27  1  1  0  0  0
 27 44  1  0  0  0
  1  2  2  0  0  0
 44 45  1  0  0  0
 44 46  1  0  0  0
  5 23  1  0  0  0
  5  3  1  0  0  0
  5  6  1  0  0  0
 23 24  1  0  0  0
 24 25  1  0  0  0
 24 26  1  0  0  0
  6  7  2  0  0  0
  6  8  1  0  0  0
 11 16  1  0  0  0
 11 12  1  0  0  0
 11 10  1  0  0  0
 16 17  1  0  0  0
 17 18  2  0  0  0
 17 19  1  0  0  0
 18 20  1  0  0  0
 19 21  2  0  0  0
 20 22  2  0  0  0
 21 22  1  0  0  0
 12 15  1  0  0  0
 12 13  2  0  0  0
 14 15  1  0  0  0
 33 35  1  0  0  0
 28 30  1  0  0  0
  1  3  1  0  0  0
  6 10  1  0  0  0
 35 36  1  0  0  0
 30 31  1  0  0  0
  3  4  1  0  0  0
  8  9  1  0  0  0
M  END
> <minimizedAffinity>
-8.60672

$$$$
1PPL_1Z7_E_324


 46 46  0  0  0  0  0  0  0  0999 V2000
   21.2984    8.5526   21.8762 C   0  0  0  0  0  0  0  0  0  0  0  0
   21.5265    7.9933   22.9459 O   0  0  0  0  0  0  0  0  0  0  0  0
   20.1988    8.4984   21.1525 N   0  0  0  0  0  0  0  0  0  0  0  0
   20.1340    9.0517   20.3407 H   0  0  0  0  0  0  0  0  0  0  0  0
   19.0843    7.6510   21.5140 C   0  0  0  0  0  0  0  0  0  0  0  0
   18.3169    6.8877   20.0767 P   0  0  0  0  0  0  0  0  0  0  0  0
   18.8078    7.5557   18.8508 O   0  0  0  0  0  0  0  0  0  0  0  0
   18.6502    5.4696   20.1439 O   0  0  0  0  0  0  0  0  0  0  0  0
   19.6047    5.3552   20.0144 H   0  0  0  0  0  0  0  0  0  0  0  0
   16.8645    7.2070   20.2619 O   0  0  0  0  0  0  0  0  0  0  0  0
   15.9173    6.1697   20.7187 C   0  0  0  0  0  0  0  0  0  0  0  0
   15.4607    5.3761   19.4734 C   0  0  0  0  0  0  0  0  0  0  0  0
   14.5184    5.7469   18.7637 O   0  0  0  0  0  0  0  0  0  0  0  0
   16.4521    3.8692   17.8724 C   0  0  0  0  0  0  0  0  0  0  0  0
   16.1534    4.1845   19.2107 O   0  0  0  0  0  0  0  0  0  0  0  0
   14.6445    6.7566   21.3877 C   0  0  0  0  0  0  0  0  0  0  0  0
   14.2690    6.2173   22.7544 C   0  0  0  0  0  0  0  0  0  0  0  0
   13.2640    6.8234   23.4930 C   0  0  0  0  0  0  0  0  0  0  0  0
   14.9437    5.1233   23.3051 C   0  0  0  0  0  0  0  0  0  0  0  0
   12.9685    6.3360   24.7695 C   0  0  0  0  0  0  0  0  0  0  0  0
   14.6866    4.7293   24.5975 C   0  0  0  0  0  0  0  0  0  0  0  0
   13.6727    5.2709   25.3200 C   0  0  0  0  0  0  0  0  0  0  0  0
   18.0310    8.4154   22.3725 C   0  0  0  0  0  0  0  0  0  0  0  0
   18.1791    8.4864   23.9208 C   0  0  0  0  0  0  0  0  0  0  0  0
   18.7231    9.8422   24.3654 C   0  0  0  0  0  0  0  0  0  0  0  0
   17.0467    7.8397   24.6541 C   0  0  0  0  0  0  0  0  0  0  0  0
   22.4074    9.5256   21.3253 C   0  0  0  0  0  0  0  0  0  0  0  0
   22.5753   11.6254   22.4908 C   0  0  0  0  0  0  0  0  0  0  0  0
   22.2066   12.2770   21.4593 O   0  0  0  0  0  0  0  0  0  0  0  0
   22.7645   10.3212   22.5804 N   0  0  0  0  0  0  0  0  0  0  0  0
   23.1105    9.8927   23.3965 H   0  0  0  0  0  0  0  0  0  0  0  0
   22.9264   12.3568   23.7785 C   0  0  0  0  0  0  0  0  0  0  0  0
   20.9096   12.9781   24.9659 C   0  0  0  0  0  0  0  0  0  0  0  0
   20.7784   13.9647   24.1546 O   0  0  0  0  0  0  0  0  0  0  0  0
   21.8891   12.1541   24.7802 N   0  0  0  0  0  0  0  0  0  0  0  0
   21.9357   11.3489   25.3449 H   0  0  0  0  0  0  0  0  0  0  0  0
   19.8702   12.8812   26.0964 C   0  0  0  0  0  0  0  0  0  0  0  0
   20.3895   12.0784   27.3154 C   0  0  0  0  0  0  0  0  0  0  0  0
   20.6323   13.1788   28.3433 C   0  0  0  0  0  0  0  0  0  0  0  0
   19.3585   11.1855   27.9468 C   0  0  0  0  0  0  0  0  0  0  0  0
   24.2345   11.7198   24.3943 C   0  0  0  0  0  0  0  0  0  0  0  0
   25.4443   12.3596   23.6967 C   0  0  0  0  0  0  0  0  0  0  0  0
   24.3941   11.9130   25.8884 C   0  0  0  0  0  0  0  0  0  0  0  0
   23.5983    8.7643   20.8288 C   0  0  0  0  0  0  0  0  0  0  0  0
   23.1223    7.4280   20.1499 C   0  0  0  0  0  0  0  0  0  0  0  0
   24.2849    9.5695   19.7367 C   0  0  0  0  0  0  0  0  0  0  0  0
 37 38  1  0  0  0
 37 33  1  0  0  0
 38 39  1  0  0  0
 38 40  1  0  0  0
 33 34  2  0  0  0
 35 32  1  0  0  0
 32 28  1  0  0  0
 32 41  1  0  0  0
 28 29  2  0  0  0
 41 42  1  0  0  0
 41 43  1  0  0  0
 30 27  1  0  0  0
 27  1  1  0  0  0
 27 44  1  0  0  0
  1  2  2  0  0  0
 44 45  1  0  0  0
 44 46  1  0  0  0
  5 23  1  0  0  0
  5  3  1  0  0  0
  5  6  1  0  0  0
 23 24  1  0  0  0
 24 25  1  0  0  0
 24 26  1  0  0  0
  6  7  2  0  0  0
  6  8  1  0  0  0
 11 16  1  0  0  0
 11 12  1  0  0  0
 11 10  1  0  0  0
 16 17  1  0  0  0
 17 18  2  0  0  0
 17 19  1  0  0  0
 18 20  1  0  0  0
 19 21  2  0  0  0
 20 22  2  0  0  0
 21 22  1  0  0  0
 12 15  1  0  0  0
 12 13  2  0  0  0
 14 15  1  0  0  0
 33 35  1  0  0  0
 28 30  1  0  0  0
  1  3  1  0  0  0
  6 10  1  0  0  0
 35 36  1  0  0  0
 30 31  1  0  0  0
  3  4  1  0  0  0
  8  9  1  0  0  0
M  END
> <minimizedAffinity>
-8.51497

$$$$
1PPL_1Z7_E_324


 46 46  0  0  0  0  0  0  0  0999 V2000
   18.6001    6.6919   19.5362 C   0  0  0  0  0  0  0  0  0  0  0  0
   18.0565    7.6016   18.9147 O   0  0  0  0  0  0  0  0  0  0  0  0
   18.7030    6.5521   20.8422 N   0  0  0  0  0  0  0  0  0  0  0  0
   19.1156    5.7345   21.2036 H   0  0  0  0  0  0  0  0  0  0  0  0
   18.2286    7.5629   21.7609 C   0  0  0  0  0  0  0  0  0  0  0  0
   19.5218    8.7283   22.2160 P   0  0  0  0  0  0  0  0  0  0  0  0
   20.4767    8.0629   23.1301 O   0  0  0  0  0  0  0  0  0  0  0  0
   20.1238    9.1752   20.9651 O   0  0  0  0  0  0  0  0  0  0  0  0
   20.5856    8.4328   20.5451 H   0  0  0  0  0  0  0  0  0  0  0  0
   18.7726    9.7835   22.9715 O   0  0  0  0  0  0  0  0  0  0  0  0
   19.3712   10.4296   24.1573 C   0  0  0  0  0  0  0  0  0  0  0  0
   18.4705   10.1015   25.3698 C   0  0  0  0  0  0  0  0  0  0  0  0
   18.1270    8.9454   25.6429 O   0  0  0  0  0  0  0  0  0  0  0  0
   17.1323   10.9576   27.1846 C   0  0  0  0  0  0  0  0  0  0  0  0
   18.0297   11.1970   26.1277 O   0  0  0  0  0  0  0  0  0  0  0  0
   19.4447   11.9763   24.0385 C   0  0  0  0  0  0  0  0  0  0  0  0
   20.6950   12.6529   24.5667 C   0  0  0  0  0  0  0  0  0  0  0  0
   20.5951   13.7932   25.3492 C   0  0  0  0  0  0  0  0  0  0  0  0
   21.9655   12.1597   24.2535 C   0  0  0  0  0  0  0  0  0  0  0  0
   21.7637   14.4246   25.7851 C   0  0  0  0  0  0  0  0  0  0  0  0
   23.0908   12.8577   24.6249 C   0  0  0  0  0  0  0  0  0  0  0  0
   23.0209   13.9448   25.4351 C   0  0  0  0  0  0  0  0  0  0  0  0
   17.5716    6.9321   23.0263 C   0  0  0  0  0  0  0  0  0  0  0  0
   16.0233    6.8030   23.1281 C   0  0  0  0  0  0  0  0  0  0  0  0
   15.5578    6.8288   24.5822 C   0  0  0  0  0  0  0  0  0  0  0  0
   15.2942    7.5810   22.0785 C   0  0  0  0  0  0  0  0  0  0  0  0
   19.1764    5.4927   18.6936 C   0  0  0  0  0  0  0  0  0  0  0  0
   21.0642    6.5356   17.6237 C   0  0  0  0  0  0  0  0  0  0  0  0
   20.3573    6.8891   16.6237 O   0  0  0  0  0  0  0  0  0  0  0  0
   20.6671    5.8288   18.6666 N   0  0  0  0  0  0  0  0  0  0  0  0
   21.2864    5.5395   19.3751 H   0  0  0  0  0  0  0  0  0  0  0  0
   22.5511    6.8570   17.6674 C   0  0  0  0  0  0  0  0  0  0  0  0
   23.7706    8.6986   18.6597 C   0  0  0  0  0  0  0  0  0  0  0  0
   24.4018    8.8323   17.5494 O   0  0  0  0  0  0  0  0  0  0  0  0
   22.8375    7.8061   18.7341 N   0  0  0  0  0  0  0  0  0  0  0  0
   22.2932    7.7663   19.5535 H   0  0  0  0  0  0  0  0  0  0  0  0
   24.2019    9.6296   19.8064 C   0  0  0  0  0  0  0  0  0  0  0  0
   22.9973   10.1921   20.6017 C   0  0  0  0  0  0  0  0  0  0  0  0
   23.2861    9.6949   22.0144 C   0  0  0  0  0  0  0  0  0  0  0  0
   22.9846   11.6905   20.7184 C   0  0  0  0  0  0  0  0  0  0  0  0
   23.3518    5.5481   18.0443 C   0  0  0  0  0  0  0  0  0  0  0  0
   24.2753    5.2042   16.8660 C   0  0  0  0  0  0  0  0  0  0  0  0
   24.2014    5.6591   19.2937 C   0  0  0  0  0  0  0  0  0  0  0  0
   18.9448    4.1839   19.3848 C   0  0  0  0  0  0  0  0  0  0  0  0
   17.4050    3.8650   19.4045 C   0  0  0  0  0  0  0  0  0  0  0  0
   19.5945    3.0715   18.5768 C   0  0  0  0  0  0  0  0  0  0  0  0
 37 38  1  0  0  0
 37 33  1  0  0  0
 38 39  1  0  0  0
 38 40  1  0  0  0
 33 34  2  0  0  0
 35 32  1  0  0  0
 32 28  1  0  0  0
 32 41  1  0  0  0
 28 29  2  0  0  0
 41 42  1  0  0  0
 41 43  1  0  0  0
 30 27  1  0  0  0
 27  1  1  0  0  0
 27 44  1  0  0  0
  1  2  2  0  0  0
 44 45  1  0  0  0
 44 46  1  0  0  0
  5 23  1  0  0  0
  5  3  1  0  0  0
  5  6  1  0  0  0
 23 24  1  0  0  0
 24 25  1  0  0  0
 24 26  1  0  0  0
  6  7  2  0  0  0
  6  8  1  0  0  0
 11 16  1  0  0  0
 11 12  1  0  0  0
 11 10  1  0  0  0
 16 17  1  0  0  0
 17 18  2  0  0  0
 17 19  1  0  0  0
 18 20  1  0  0  0
 19 21  2  0  0  0
 20 22  2  0  0  0
 21 22  1  0  0  0
 12 15  1  0  0  0
 12 13  2  0  0  0
 14 15  1  0  0  0
 33 35  1  0  0  0
 28 30  1  0  0  0
  1  3  1  0  0  0
  6 10  1  0  0  0
 35 36  1  0  0  0
 30 31  1  0  0  0
  3  4  1  0  0  0
  8  9  1  0  0  0
M  END
> <minimizedAffinity>
-8.48413

$$$$
1PPL_1Z7_E_324


 46 46  0  0  0  0  0  0  0  0999 V2000
   20.1466    8.8287   22.6841 C   0  0  0  0  0  0  0  0  0  0  0  0
   21.1404    8.1255   22.8493 O   0  0  0  0  0  0  0  0  0  0  0  0
   20.0207   10.1196   22.9148 N   0  0  0  0  0  0  0  0  0  0  0  0
   19.1769   10.5670   22.6761 H   0  0  0  0  0  0  0  0  0  0  0  0
   21.0841   10.8995   23.5081 C   0  0  0  0  0  0  0  0  0  0  0  0
   20.4576   12.3103   24.4325 P   0  0  0  0  0  0  0  0  0  0  0  0
   21.0475   13.5519   23.8844 O   0  0  0  0  0  0  0  0  0  0  0  0
   19.0045   12.2546   24.3225 O   0  0  0  0  0  0  0  0  0  0  0  0
   18.7435   12.4163   23.4024 H   0  0  0  0  0  0  0  0  0  0  0  0
   20.9984   12.0761   25.8104 O   0  0  0  0  0  0  0  0  0  0  0  0
   20.6152   12.9595   26.9305 C   0  0  0  0  0  0  0  0  0  0  0  0
   21.8477   13.8223   27.2849 C   0  0  0  0  0  0  0  0  0  0  0  0
   22.0756   14.9053   26.7332 O   0  0  0  0  0  0  0  0  0  0  0  0
   23.9356   12.7335   27.8063 C   0  0  0  0  0  0  0  0  0  0  0  0
   22.7203   13.2897   28.2459 O   0  0  0  0  0  0  0  0  0  0  0  0
   20.2096   12.1808   28.2115 C   0  0  0  0  0  0  0  0  0  0  0  0
   18.9944   11.2784   28.1178 C   0  0  0  0  0  0  0  0  0  0  0  0
   19.0055   10.0268   28.7148 C   0  0  0  0  0  0  0  0  0  0  0  0
   17.8570   11.6765   27.4084 C   0  0  0  0  0  0  0  0  0  0  0  0
   17.8904    9.1955   28.5746 C   0  0  0  0  0  0  0  0  0  0  0  0
   16.8166   10.7976   27.2171 C   0  0  0  0  0  0  0  0  0  0  0  0
   16.7809    9.5891   27.8348 C   0  0  0  0  0  0  0  0  0  0  0  0
   22.1352   11.3464   22.4468 C   0  0  0  0  0  0  0  0  0  0  0  0
   23.6539   11.3349   22.7895 C   0  0  0  0  0  0  0  0  0  0  0  0
   24.4517   12.1900   21.8076 C   0  0  0  0  0  0  0  0  0  0  0  0
   23.9298   11.4000   24.2585 C   0  0  0  0  0  0  0  0  0  0  0  0
   18.8836    8.1441   22.0390 C   0  0  0  0  0  0  0  0  0  0  0  0
   19.0752    7.1863   19.8386 C   0  0  0  0  0  0  0  0  0  0  0  0
   18.1128    7.8966   19.3983 O   0  0  0  0  0  0  0  0  0  0  0  0
   19.5342    7.1509   21.0768 N   0  0  0  0  0  0  0  0  0  0  0  0
   20.2439    6.5298   21.3592 H   0  0  0  0  0  0  0  0  0  0  0  0
   19.7784    6.1921   18.9259 C   0  0  0  0  0  0  0  0  0  0  0  0
   22.1417    6.4598   18.4714 C   0  0  0  0  0  0  0  0  0  0  0  0
   21.8278    7.0420   17.3707 O   0  0  0  0  0  0  0  0  0  0  0  0
   21.1906    6.0947   19.2681 N   0  0  0  0  0  0  0  0  0  0  0  0
   21.4336    5.7325   20.1507 H   0  0  0  0  0  0  0  0  0  0  0  0
   23.6444    6.2514   18.7287 C   0  0  0  0  0  0  0  0  0  0  0  0
   24.1487    7.0269   19.9715 C   0  0  0  0  0  0  0  0  0  0  0  0
   25.5949    7.3311   19.5937 C   0  0  0  0  0  0  0  0  0  0  0  0
   23.5094    8.3746   20.1551 C   0  0  0  0  0  0  0  0  0  0  0  0
   19.1851    4.7497   19.1785 C   0  0  0  0  0  0  0  0  0  0  0  0
   17.7032    4.7717   18.7749 C   0  0  0  0  0  0  0  0  0  0  0  0
   19.8677    3.6370   18.4097 C   0  0  0  0  0  0  0  0  0  0  0  0
   18.0722    7.4220   23.0708 C   0  0  0  0  0  0  0  0  0  0  0  0
   18.0471    8.2603   24.4011 C   0  0  0  0  0  0  0  0  0  0  0  0
   16.6287    7.3369   22.6001 C   0  0  0  0  0  0  0  0  0  0  0  0
 37 38  1  0  0  0
 37 33  1  0  0  0
 38 39  1  0  0  0
 38 40  1  0  0  0
 33 34  2  0  0  0
 35 32  1  0  0  0
 32 28  1  0  0  0
 32 41  1  0  0  0
 28 29  2  0  0  0
 41 42  1  0  0  0
 41 43  1  0  0  0
 30 27  1  0  0  0
 27  1  1  0  0  0
 27 44  1  0  0  0
  1  2  2  0  0  0
 44 45  1  0  0  0
 44 46  1  0  0  0
  5 23  1  0  0  0
  5  3  1  0  0  0
  5  6  1  0  0  0
 23 24  1  0  0  0
 24 25  1  0  0  0
 24 26  1  0  0  0
  6  7  2  0  0  0
  6  8  1  0  0  0
 11 16  1  0  0  0
 11 12  1  0  0  0
 11 10  1  0  0  0
 16 17  1  0  0  0
 17 18  2  0  0  0
 17 19  1  0  0  0
 18 20  1  0  0  0
 19 21  2  0  0  0
 20 22  2  0  0  0
 21 22  1  0  0  0
 12 15  1  0  0  0
 12 13  2  0  0  0
 14 15  1  0  0  0
 33 35  1  0  0  0
 28 30  1  0  0  0
  1  3  1  0  0  0
  6 10  1  0  0  0
 35 36  1  0  0  0
 30 31  1  0  0  0
  3  4  1  0  0  0
  8  9  1  0  0  0
M  END
> <minimizedAffinity>
-8.46235

$$$$
