2OJJ_82A_A_360


 35 38  0  0  0  0  0  0  0  0999 V2000
  -12.5322   16.8045   39.9865 C   0  0  0  0  0  0  0  0  0  0  0  0
  -10.3660   16.7787   39.5285 C   0  0  0  0  0  0  0  0  0  0  0  0
  -10.5205   16.2749   40.7896 C   0  0  0  0  0  0  0  0  0  0  0  0
  -11.9052   16.2914   41.0894 C   0  0  0  0  0  0  0  0  0  0  0  0
  -11.6116   17.0970   39.0490 N   0  0  0  0  0  0  0  0  0  0  0  0
  -11.8016   17.4783   38.1615 H   0  0  0  0  0  0  0  0  0  0  0  0
  -12.6121   15.8516   42.3536 C   0  0  0  0  0  0  0  0  0  0  0  0
  -13.1650   15.7748   44.5000 N   0  0  0  0  0  0  0  0  0  0  0  0
  -13.9200   14.8407   43.9016 C   0  0  0  0  0  0  0  0  0  0  0  0
  -13.6329   14.8275   42.5627 C   0  0  0  0  0  0  0  0  0  0  0  0
  -12.3666   16.3871   43.5364 N   0  0  0  0  0  0  0  0  0  0  0  0
  -13.1738   15.9914   45.4604 H   0  0  0  0  0  0  0  0  0  0  0  0
  -14.2981   13.9001   41.5693 C   0  0  0  0  0  0  0  0  0  0  0  0
  -13.4922   13.0478   40.7502 C   0  0  0  0  0  0  0  0  0  0  0  0
  -14.0953   12.1794   39.8192 C   0  0  0  0  0  0  0  0  0  0  0  0
  -15.4993   12.1465   39.6897 C   0  0  0  0  0  0  0  0  0  0  0  0
  -16.3077   12.9817   40.4910 C   0  0  0  0  0  0  0  0  0  0  0  0
  -15.7168   13.8569   41.4227 C   0  0  0  0  0  0  0  0  0  0  0  0
  -18.0323   12.9282   40.3326 Cl  0  0  0  0  0  0  0  0  0  0  0  0
   -8.7482   16.0866   37.8260 N   0  0  0  0  0  0  0  0  0  0  0  0
   -9.0957   16.9610   38.8106 C   0  0  0  0  0  0  0  0  0  0  0  0
   -8.3488   17.8739   39.1285 O   0  0  0  0  0  0  0  0  0  0  0  0
   -9.3723   15.3625   37.5902 H   0  0  0  0  0  0  0  0  0  0  0  0
   -7.4644   16.1889   37.0994 C   0  0  0  0  0  0  0  0  0  0  0  0
   -6.9686   14.7714   36.8311 C   0  0  0  0  0  0  0  0  0  0  0  0
   -5.6426   12.8234   37.5184 C   0  0  0  0  0  0  0  0  0  0  0  0
   -6.0199   12.1444   36.3417 C   0  0  0  0  0  0  0  0  0  0  0  0
   -6.1111   14.1289   37.7634 C   0  0  0  0  0  0  0  0  0  0  0  0
   -5.5580   10.8920   36.1237 F   0  0  0  0  0  0  0  0  0  0  0  0
   -6.8793   12.7802   35.4002 C   0  0  0  0  0  0  0  0  0  0  0  0
   -7.3568   11.9576   33.9376 Cl  0  0  0  0  0  0  0  0  0  0  0  0
   -7.3494   14.0945   35.6504 C   0  0  0  0  0  0  0  0  0  0  0  0
   -7.8765   18.3481   36.0332 O   0  0  0  0  0  0  0  0  0  0  0  0
   -7.6334   16.9616   35.7767 C   0  0  0  0  0  0  0  0  0  0  0  0
   -7.9804   18.8193   35.1917 H   0  0  0  0  0  0  0  0  0  0  0  0
  1  5  1  0  0  0
  1  4  2  0  0  0
  7  4  1  0  0  0
  7 11  2  0  0  0
  7 10  1  0  0  0
  8 11  1  0  0  0
  8  9  1  0  0  0
  9 10  2  0  0  0
 10 13  1  0  0  0
 13 18  1  0  0  0
 13 14  2  0  0  0
 14 15  1  0  0  0
 15 16  2  0  0  0
 16 17  1  0  0  0
 17 19  1  0  0  0
 17 18  2  0  0  0
 25 32  2  0  0  0
 25 28  1  0  0  0
 25 24  1  0  0  0
 26 27  1  0  0  0
 26 28  2  0  0  0
 27 29  1  0  0  0
 27 30  2  0  0  0
 33 34  1  0  0  0
 34 24  1  0  0  0
 24 20  1  0  0  0
 20 21  1  0  0  0
 21 22  2  0  0  0
 21  2  1  0  0  0
  2  5  1  0  0  0
  2  3  2  0  0  0
  3  4  1  0  0  0
 30 31  1  0  0  0
 30 32  1  0  0  0
  8 12  1  0  0  0
 33 35  1  0  0  0
 20 23  1  0  0  0
  5  6  1  0  0  0
M  END
> <minimizedAffinity>
-10.52535

$$$$
2OJJ_82A_A_360


 35 38  0  0  0  0  0  0  0  0999 V2000
  -12.4457   16.9353   40.0505 C   0  0  0  0  0  0  0  0  0  0  0  0
  -10.2814   16.8497   39.5907 C   0  0  0  0  0  0  0  0  0  0  0  0
  -10.4536   16.3135   40.8361 C   0  0  0  0  0  0  0  0  0  0  0  0
  -11.8371   16.3680   41.1370 C   0  0  0  0  0  0  0  0  0  0  0  0
  -11.5153   17.2245   39.1218 N   0  0  0  0  0  0  0  0  0  0  0  0
  -11.6919   17.6387   38.2463 H   0  0  0  0  0  0  0  0  0  0  0  0
  -12.5590   15.9144   42.3878 C   0  0  0  0  0  0  0  0  0  0  0  0
  -13.2170   15.8826   44.5055 N   0  0  0  0  0  0  0  0  0  0  0  0
  -13.8296   14.8400   43.9240 C   0  0  0  0  0  0  0  0  0  0  0  0
  -13.4697   14.7926   42.6036 C   0  0  0  0  0  0  0  0  0  0  0  0
  -12.4398   16.5328   43.5493 N   0  0  0  0  0  0  0  0  0  0  0  0
  -13.3024   16.1446   45.4507 H   0  0  0  0  0  0  0  0  0  0  0  0
  -13.9724   13.7470   41.6322 C   0  0  0  0  0  0  0  0  0  0  0  0
  -15.3748   13.6434   41.3698 C   0  0  0  0  0  0  0  0  0  0  0  0
  -15.8598   12.6745   40.4694 C   0  0  0  0  0  0  0  0  0  0  0  0
  -14.9629   11.7998   39.8217 C   0  0  0  0  0  0  0  0  0  0  0  0
  -13.5762   11.8899   40.0706 C   0  0  0  0  0  0  0  0  0  0  0  0
  -13.0792   12.8516   40.9713 C   0  0  0  0  0  0  0  0  0  0  0  0
  -12.4801   10.8179   39.2633 Cl  0  0  0  0  0  0  0  0  0  0  0  0
   -8.6980   16.1698   37.8514 N   0  0  0  0  0  0  0  0  0  0  0  0
   -9.0054   17.0104   38.8779 C   0  0  0  0  0  0  0  0  0  0  0  0
   -8.2187   17.8735   39.2365 O   0  0  0  0  0  0  0  0  0  0  0  0
   -9.3536   15.4859   37.5835 H   0  0  0  0  0  0  0  0  0  0  0  0
   -7.4120   16.2505   37.1261 C   0  0  0  0  0  0  0  0  0  0  0  0
   -6.9352   14.8249   36.8663 C   0  0  0  0  0  0  0  0  0  0  0  0
   -5.6263   12.8675   37.5599 C   0  0  0  0  0  0  0  0  0  0  0  0
   -6.0219   12.1826   36.3927 C   0  0  0  0  0  0  0  0  0  0  0  0
   -6.0773   14.1806   37.7971 C   0  0  0  0  0  0  0  0  0  0  0  0
   -5.5766   10.9228   36.1820 F   0  0  0  0  0  0  0  0  0  0  0  0
   -6.8819   12.8200   35.4529 C   0  0  0  0  0  0  0  0  0  0  0  0
   -7.3817   11.9901   34.0020 Cl  0  0  0  0  0  0  0  0  0  0  0  0
   -7.3343   14.1420   35.6952 C   0  0  0  0  0  0  0  0  0  0  0  0
   -7.9165   18.3835   36.0471 O   0  0  0  0  0  0  0  0  0  0  0  0
   -7.5686   17.0180   35.7988 C   0  0  0  0  0  0  0  0  0  0  0  0
   -8.0112   18.8517   35.2028 H   0  0  0  0  0  0  0  0  0  0  0  0
  1  5  1  0  0  0
  1  4  2  0  0  0
  7  4  1  0  0  0
  7 11  2  0  0  0
  7 10  1  0  0  0
  8 11  1  0  0  0
  8  9  1  0  0  0
  9 10  2  0  0  0
 10 13  1  0  0  0
 13 18  1  0  0  0
 13 14  2  0  0  0
 14 15  1  0  0  0
 15 16  2  0  0  0
 16 17  1  0  0  0
 17 19  1  0  0  0
 17 18  2  0  0  0
 25 32  2  0  0  0
 25 28  1  0  0  0
 25 24  1  0  0  0
 26 27  1  0  0  0
 26 28  2  0  0  0
 27 29  1  0  0  0
 27 30  2  0  0  0
 33 34  1  0  0  0
 34 24  1  0  0  0
 24 20  1  0  0  0
 20 21  1  0  0  0
 21 22  2  0  0  0
 21  2  1  0  0  0
  2  5  1  0  0  0
  2  3  2  0  0  0
  3  4  1  0  0  0
 30 31  1  0  0  0
 30 32  1  0  0  0
  8 12  1  0  0  0
 33 35  1  0  0  0
 20 23  1  0  0  0
  5  6  1  0  0  0
M  END
> <minimizedAffinity>
-10.34490

$$$$
2OJJ_82A_A_360


 35 38  0  0  0  0  0  0  0  0999 V2000
  -14.6436   11.7191   38.3323 C   0  0  0  0  0  0  0  0  0  0  0  0
  -12.7497   12.3396   39.2973 C   0  0  0  0  0  0  0  0  0  0  0  0
  -13.7316   12.4122   40.2454 C   0  0  0  0  0  0  0  0  0  0  0  0
  -14.9470   12.0186   39.6327 C   0  0  0  0  0  0  0  0  0  0  0  0
  -13.3268   11.9103   38.1288 N   0  0  0  0  0  0  0  0  0  0  0  0
  -12.8535   11.7653   37.2777 H   0  0  0  0  0  0  0  0  0  0  0  0
  -16.3331   11.9308   40.2345 C   0  0  0  0  0  0  0  0  0  0  0  0
  -18.3370   11.1102   40.7140 N   0  0  0  0  0  0  0  0  0  0  0  0
  -18.2757   12.2955   41.3400 C   0  0  0  0  0  0  0  0  0  0  0  0
  -17.0576   12.8686   41.0890 C   0  0  0  0  0  0  0  0  0  0  0  0
  -17.1364   10.9001   40.0390 N   0  0  0  0  0  0  0  0  0  0  0  0
  -19.1029   10.4918   40.7292 H   0  0  0  0  0  0  0  0  0  0  0  0
  -16.6320   14.2131   41.6375 C   0  0  0  0  0  0  0  0  0  0  0  0
  -17.0197   14.5899   42.9619 C   0  0  0  0  0  0  0  0  0  0  0  0
  -16.6333   15.8386   43.4874 C   0  0  0  0  0  0  0  0  0  0  0  0
  -15.8612   16.7250   42.7082 C   0  0  0  0  0  0  0  0  0  0  0  0
  -15.4710   16.3672   41.3994 C   0  0  0  0  0  0  0  0  0  0  0  0
  -15.8542   15.1234   40.8613 C   0  0  0  0  0  0  0  0  0  0  0  0
  -14.5143   17.4579   40.4523 Cl  0  0  0  0  0  0  0  0  0  0  0  0
  -10.9693   13.9543   39.7632 N   0  0  0  0  0  0  0  0  0  0  0  0
  -11.3294   12.6709   39.4840 C   0  0  0  0  0  0  0  0  0  0  0  0
  -10.4842   11.7988   39.3521 O   0  0  0  0  0  0  0  0  0  0  0  0
  -11.6735   14.6346   39.8665 H   0  0  0  0  0  0  0  0  0  0  0  0
   -9.5555   14.3596   39.9163 C   0  0  0  0  0  0  0  0  0  0  0  0
   -9.0903   14.9345   38.5819 C   0  0  0  0  0  0  0  0  0  0  0  0
   -8.9619   16.8195   37.0149 C   0  0  0  0  0  0  0  0  0  0  0  0
   -8.2521   16.0166   36.0986 C   0  0  0  0  0  0  0  0  0  0  0  0
   -9.3808   16.2843   38.2485 C   0  0  0  0  0  0  0  0  0  0  0  0
   -7.8600   16.5484   34.9184 F   0  0  0  0  0  0  0  0  0  0  0  0
   -7.9560   14.6616   36.4234 C   0  0  0  0  0  0  0  0  0  0  0  0
   -7.0799   13.6512   35.3030 Cl  0  0  0  0  0  0  0  0  0  0  0  0
   -8.3790   14.1262   37.6667 C   0  0  0  0  0  0  0  0  0  0  0  0
   -8.0236   15.4993   41.4404 O   0  0  0  0  0  0  0  0  0  0  0  0
   -9.3937   15.4024   41.0395 C   0  0  0  0  0  0  0  0  0  0  0  0
   -7.9393   16.1587   42.1468 H   0  0  0  0  0  0  0  0  0  0  0  0
  1  5  1  0  0  0
  1  4  2  0  0  0
  7  4  1  0  0  0
  7 11  2  0  0  0
  7 10  1  0  0  0
  8 11  1  0  0  0
  8  9  1  0  0  0
  9 10  2  0  0  0
 10 13  1  0  0  0
 13 18  1  0  0  0
 13 14  2  0  0  0
 14 15  1  0  0  0
 15 16  2  0  0  0
 16 17  1  0  0  0
 17 19  1  0  0  0
 17 18  2  0  0  0
 25 32  2  0  0  0
 25 28  1  0  0  0
 25 24  1  0  0  0
 26 27  1  0  0  0
 26 28  2  0  0  0
 27 29  1  0  0  0
 27 30  2  0  0  0
 33 34  1  0  0  0
 34 24  1  0  0  0
 24 20  1  0  0  0
 20 21  1  0  0  0
 21 22  2  0  0  0
 21  2  1  0  0  0
  2  5  1  0  0  0
  2  3  2  0  0  0
  3  4  1  0  0  0
 30 31  1  0  0  0
 30 32  1  0  0  0
  8 12  1  0  0  0
 33 35  1  0  0  0
 20 23  1  0  0  0
  5  6  1  0  0  0
M  END
> <minimizedAffinity>
-10.16439

$$$$
2OJJ_82A_A_360


 35 38  0  0  0  0  0  0  0  0999 V2000
   -9.5340   15.4423   39.9785 C   0  0  0  0  0  0  0  0  0  0  0  0
  -11.0147   13.8407   39.5973 C   0  0  0  0  0  0  0  0  0  0  0  0
  -10.5737   14.2838   38.3818 C   0  0  0  0  0  0  0  0  0  0  0  0
   -9.6273   15.3111   38.6195 C   0  0  0  0  0  0  0  0  0  0  0  0
  -10.3644   14.5615   40.5670 N   0  0  0  0  0  0  0  0  0  0  0  0
  -10.4857   14.4519   41.5379 H   0  0  0  0  0  0  0  0  0  0  0  0
   -8.8475   16.1384   37.6201 C   0  0  0  0  0  0  0  0  0  0  0  0
   -8.1637   17.9178   36.4864 N   0  0  0  0  0  0  0  0  0  0  0  0
   -7.4550   16.8880   35.9990 C   0  0  0  0  0  0  0  0  0  0  0  0
   -7.8243   15.7439   36.6547 C   0  0  0  0  0  0  0  0  0  0  0  0
   -9.0150   17.4417   37.4813 N   0  0  0  0  0  0  0  0  0  0  0  0
   -8.0939   18.8541   36.1903 H   0  0  0  0  0  0  0  0  0  0  0  0
   -7.2295   14.3821   36.3696 C   0  0  0  0  0  0  0  0  0  0  0  0
   -6.4473   13.7292   37.3738 C   0  0  0  0  0  0  0  0  0  0  0  0
   -5.8850   12.4619   37.1242 C   0  0  0  0  0  0  0  0  0  0  0  0
   -6.0906   11.8298   35.8804 C   0  0  0  0  0  0  0  0  0  0  0  0
   -6.8601   12.4618   34.8795 C   0  0  0  0  0  0  0  0  0  0  0  0
   -7.4244   13.7303   35.1153 C   0  0  0  0  0  0  0  0  0  0  0  0
   -7.1159   11.6742   33.3575 Cl  0  0  0  0  0  0  0  0  0  0  0  0
  -13.3354   13.0618   39.6438 N   0  0  0  0  0  0  0  0  0  0  0  0
  -12.0145   12.7886   39.8329 C   0  0  0  0  0  0  0  0  0  0  0  0
  -11.6534   11.6911   40.2296 O   0  0  0  0  0  0  0  0  0  0  0  0
  -13.5954   13.9546   39.3207 H   0  0  0  0  0  0  0  0  0  0  0  0
  -14.3917   12.0612   39.9080 C   0  0  0  0  0  0  0  0  0  0  0  0
  -15.4648   12.7329   40.7591 C   0  0  0  0  0  0  0  0  0  0  0  0
  -17.8091   12.9073   41.4658 C   0  0  0  0  0  0  0  0  0  0  0  0
  -17.4781   13.9806   42.3181 C   0  0  0  0  0  0  0  0  0  0  0  0
  -16.8114   12.2865   40.6892 C   0  0  0  0  0  0  0  0  0  0  0  0
  -18.4508   14.5648   43.0544 F   0  0  0  0  0  0  0  0  0  0  0  0
  -16.1305   14.4359   42.3952 C   0  0  0  0  0  0  0  0  0  0  0  0
  -15.7006   15.7633   43.4426 Cl  0  0  0  0  0  0  0  0  0  0  0  0
  -15.1285   13.8083   41.6121 C   0  0  0  0  0  0  0  0  0  0  0  0
  -14.1469   11.8448   37.4868 O   0  0  0  0  0  0  0  0  0  0  0  0
  -14.9977   11.5314   38.5937 C   0  0  0  0  0  0  0  0  0  0  0  0
  -14.5422   11.5049   36.6688 H   0  0  0  0  0  0  0  0  0  0  0  0
  1  5  1  0  0  0
  1  4  2  0  0  0
  7  4  1  0  0  0
  7 11  2  0  0  0
  7 10  1  0  0  0
  8 11  1  0  0  0
  8  9  1  0  0  0
  9 10  2  0  0  0
 10 13  1  0  0  0
 13 18  1  0  0  0
 13 14  2  0  0  0
 14 15  1  0  0  0
 15 16  2  0  0  0
 16 17  1  0  0  0
 17 19  1  0  0  0
 17 18  2  0  0  0
 25 32  2  0  0  0
 25 28  1  0  0  0
 25 24  1  0  0  0
 26 27  1  0  0  0
 26 28  2  0  0  0
 27 29  1  0  0  0
 27 30  2  0  0  0
 33 34  1  0  0  0
 34 24  1  0  0  0
 24 20  1  0  0  0
 20 21  1  0  0  0
 21 22  2  0  0  0
 21  2  1  0  0  0
  2  5  1  0  0  0
  2  3  2  0  0  0
  3  4  1  0  0  0
 30 31  1  0  0  0
 30 32  1  0  0  0
  8 12  1  0  0  0
 33 35  1  0  0  0
 20 23  1  0  0  0
  5  6  1  0  0  0
M  END
> <minimizedAffinity>
-9.93515

$$$$
2OJJ_82A_A_360


 35 38  0  0  0  0  0  0  0  0999 V2000
  -11.9697   14.3431   41.4358 C   0  0  0  0  0  0  0  0  0  0  0  0
  -10.4627   14.6900   39.8510 C   0  0  0  0  0  0  0  0  0  0  0  0
  -11.5164   14.0383   39.2738 C   0  0  0  0  0  0  0  0  0  0  0  0
  -12.4834   13.8111   40.2843 C   0  0  0  0  0  0  0  0  0  0  0  0
  -10.7586   14.8710   41.1786 N   0  0  0  0  0  0  0  0  0  0  0  0
  -10.1779   15.3159   41.8376 H   0  0  0  0  0  0  0  0  0  0  0  0
  -13.8272   13.1223   40.1799 C   0  0  0  0  0  0  0  0  0  0  0  0
  -15.3290   11.5748   39.6614 N   0  0  0  0  0  0  0  0  0  0  0  0
  -16.0153   12.5470   40.2813 C   0  0  0  0  0  0  0  0  0  0  0  0
  -15.1490   13.5469   40.6348 C   0  0  0  0  0  0  0  0  0  0  0  0
  -13.9863   11.9425   39.6064 N   0  0  0  0  0  0  0  0  0  0  0  0
  -15.7108   10.7404   39.3046 H   0  0  0  0  0  0  0  0  0  0  0  0
  -15.5703   14.8076   41.3580 C   0  0  0  0  0  0  0  0  0  0  0  0
  -15.2302   16.0838   40.8083 C   0  0  0  0  0  0  0  0  0  0  0  0
  -15.6133   17.2673   41.4694 C   0  0  0  0  0  0  0  0  0  0  0  0
  -16.3349   17.1993   42.6792 C   0  0  0  0  0  0  0  0  0  0  0  0
  -16.6777   15.9471   43.2340 C   0  0  0  0  0  0  0  0  0  0  0  0
  -16.2973   14.7568   42.5847 C   0  0  0  0  0  0  0  0  0  0  0  0
  -17.5729   15.8724   44.7157 Cl  0  0  0  0  0  0  0  0  0  0  0  0
   -9.2039   15.2379   37.8238 N   0  0  0  0  0  0  0  0  0  0  0  0
   -9.2252   15.1147   39.1800 C   0  0  0  0  0  0  0  0  0  0  0  0
   -8.2193   15.3187   39.8424 O   0  0  0  0  0  0  0  0  0  0  0  0
  -10.0312   15.0696   37.3174 H   0  0  0  0  0  0  0  0  0  0  0  0
   -7.9788   15.6161   37.0870 C   0  0  0  0  0  0  0  0  0  0  0  0
   -7.2822   14.3300   36.6535 C   0  0  0  0  0  0  0  0  0  0  0  0
   -5.7415   12.4837   37.1460 C   0  0  0  0  0  0  0  0  0  0  0  0
   -5.9622   11.9492   35.8601 C   0  0  0  0  0  0  0  0  0  0  0  0
   -6.3947   13.6669   37.5423 C   0  0  0  0  0  0  0  0  0  0  0  0
   -5.3240   10.8129   35.4976 F   0  0  0  0  0  0  0  0  0  0  0  0
   -6.8502   12.6067   34.9611 C   0  0  0  0  0  0  0  0  0  0  0  0
   -7.1358   11.9623   33.3652 Cl  0  0  0  0  0  0  0  0  0  0  0  0
   -7.5065   13.7977   35.3637 C   0  0  0  0  0  0  0  0  0  0  0  0
   -7.4459   17.6252   35.8032 O   0  0  0  0  0  0  0  0  0  0  0  0
   -8.3133   16.4888   35.8615 C   0  0  0  0  0  0  0  0  0  0  0  0
   -7.6694   18.1631   35.0276 H   0  0  0  0  0  0  0  0  0  0  0  0
  1  5  1  0  0  0
  1  4  2  0  0  0
  7  4  1  0  0  0
  7 11  2  0  0  0
  7 10  1  0  0  0
  8 11  1  0  0  0
  8  9  1  0  0  0
  9 10  2  0  0  0
 10 13  1  0  0  0
 13 18  1  0  0  0
 13 14  2  0  0  0
 14 15  1  0  0  0
 15 16  2  0  0  0
 16 17  1  0  0  0
 17 19  1  0  0  0
 17 18  2  0  0  0
 25 32  2  0  0  0
 25 28  1  0  0  0
 25 24  1  0  0  0
 26 27  1  0  0  0
 26 28  2  0  0  0
 27 29  1  0  0  0
 27 30  2  0  0  0
 33 34  1  0  0  0
 34 24  1  0  0  0
 24 20  1  0  0  0
 20 21  1  0  0  0
 21 22  2  0  0  0
 21  2  1  0  0  0
  2  5  1  0  0  0
  2  3  2  0  0  0
  3  4  1  0  0  0
 30 31  1  0  0  0
 30 32  1  0  0  0
  8 12  1  0  0  0
 33 35  1  0  0  0
 20 23  1  0  0  0
  5  6  1  0  0  0
M  END
> <minimizedAffinity>
-9.82293

$$$$
2OJJ_82A_A_360


 35 38  0  0  0  0  0  0  0  0999 V2000
   -9.4206   14.1458   38.7654 C   0  0  0  0  0  0  0  0  0  0  0  0
  -10.9446   14.9097   40.1786 C   0  0  0  0  0  0  0  0  0  0  0  0
  -10.5664   15.9559   39.3844 C   0  0  0  0  0  0  0  0  0  0  0  0
   -9.5889   15.4735   38.4793 C   0  0  0  0  0  0  0  0  0  0  0  0
  -10.2326   13.8052   39.7835 N   0  0  0  0  0  0  0  0  0  0  0  0
  -10.3043   12.9074   40.1810 H   0  0  0  0  0  0  0  0  0  0  0  0
   -8.8402   16.2216   37.3971 C   0  0  0  0  0  0  0  0  0  0  0  0
   -8.2079   17.9040   36.0977 N   0  0  0  0  0  0  0  0  0  0  0  0
   -7.4871   16.8473   35.6923 C   0  0  0  0  0  0  0  0  0  0  0  0
   -7.8245   15.7603   36.4538 C   0  0  0  0  0  0  0  0  0  0  0  0
   -9.0347   17.5040   37.1453 N   0  0  0  0  0  0  0  0  0  0  0  0
   -8.1605   18.8111   35.7180 H   0  0  0  0  0  0  0  0  0  0  0  0
   -7.2081   14.3891   36.2814 C   0  0  0  0  0  0  0  0  0  0  0  0
   -6.3861   13.8491   37.3203 C   0  0  0  0  0  0  0  0  0  0  0  0
   -5.8033   12.5748   37.1754 C   0  0  0  0  0  0  0  0  0  0  0  0
   -6.0276   11.8241   36.0027 C   0  0  0  0  0  0  0  0  0  0  0  0
   -6.8365   12.3438   34.9688 C   0  0  0  0  0  0  0  0  0  0  0  0
   -7.4216   13.6180   35.1000 C   0  0  0  0  0  0  0  0  0  0  0  0
   -7.1150   11.4111   33.5354 Cl  0  0  0  0  0  0  0  0  0  0  0  0
  -13.1933   14.4959   41.0541 N   0  0  0  0  0  0  0  0  0  0  0  0
  -11.9287   14.9532   41.2702 C   0  0  0  0  0  0  0  0  0  0  0  0
  -11.6123   15.4314   42.3489 O   0  0  0  0  0  0  0  0  0  0  0  0
  -13.4176   14.1134   40.1752 H   0  0  0  0  0  0  0  0  0  0  0  0
  -14.2405   14.5552   42.0965 C   0  0  0  0  0  0  0  0  0  0  0  0
  -15.4392   13.7551   41.5962 C   0  0  0  0  0  0  0  0  0  0  0  0
  -17.8448   13.2723   41.6672 C   0  0  0  0  0  0  0  0  0  0  0  0
  -17.6772   12.2658   40.6943 C   0  0  0  0  0  0  0  0  0  0  0  0
  -16.7348   14.0127   42.1182 C   0  0  0  0  0  0  0  0  0  0  0  0
  -18.7553   11.5644   40.2754 F   0  0  0  0  0  0  0  0  0  0  0  0
  -16.3819   11.9994   40.1647 C   0  0  0  0  0  0  0  0  0  0  0  0
  -16.1531   10.7574   38.9611 Cl  0  0  0  0  0  0  0  0  0  0  0  0
  -15.2665   12.7472   40.6208 C   0  0  0  0  0  0  0  0  0  0  0  0
  -13.6812   15.0066   44.4315 O   0  0  0  0  0  0  0  0  0  0  0  0
  -13.7288   13.9830   43.4329 C   0  0  0  0  0  0  0  0  0  0  0  0
  -13.3576   14.6305   45.2649 H   0  0  0  0  0  0  0  0  0  0  0  0
  1  5  1  0  0  0
  1  4  2  0  0  0
  7  4  1  0  0  0
  7 11  2  0  0  0
  7 10  1  0  0  0
  8 11  1  0  0  0
  8  9  1  0  0  0
  9 10  2  0  0  0
 10 13  1  0  0  0
 13 18  1  0  0  0
 13 14  2  0  0  0
 14 15  1  0  0  0
 15 16  2  0  0  0
 16 17  1  0  0  0
 17 19  1  0  0  0
 17 18  2  0  0  0
 25 32  2  0  0  0
 25 28  1  0  0  0
 25 24  1  0  0  0
 26 27  1  0  0  0
 26 28  2  0  0  0
 27 29  1  0  0  0
 27 30  2  0  0  0
 33 34  1  0  0  0
 34 24  1  0  0  0
 24 20  1  0  0  0
 20 21  1  0  0  0
 21 22  2  0  0  0
 21  2  1  0  0  0
  2  5  1  0  0  0
  2  3  2  0  0  0
  3  4  1  0  0  0
 30 31  1  0  0  0
 30 32  1  0  0  0
  8 12  1  0  0  0
 33 35  1  0  0  0
 20 23  1  0  0  0
  5  6  1  0  0  0
M  END
> <minimizedAffinity>
-9.60254

$$$$
2OJJ_82A_A_360


 35 38  0  0  0  0  0  0  0  0999 V2000
  -12.6370   13.4131   41.2566 C   0  0  0  0  0  0  0  0  0  0  0  0
  -11.2678   14.6633   40.0461 C   0  0  0  0  0  0  0  0  0  0  0  0
  -12.1721   14.1032   39.1878 C   0  0  0  0  0  0  0  0  0  0  0  0
  -13.0498   13.2995   39.9568 C   0  0  0  0  0  0  0  0  0  0  0  0
  -11.5691   14.2306   41.3129 N   0  0  0  0  0  0  0  0  0  0  0  0
  -11.0821   14.4783   42.1319 H   0  0  0  0  0  0  0  0  0  0  0  0
  -14.2206   12.4575   39.4968 C   0  0  0  0  0  0  0  0  0  0  0  0
  -15.3664   10.9653   38.3225 N   0  0  0  0  0  0  0  0  0  0  0  0
  -16.2411   11.4783   39.2014 C   0  0  0  0  0  0  0  0  0  0  0  0
  -15.6025   12.4155   39.9689 C   0  0  0  0  0  0  0  0  0  0  0  0
  -14.1296   11.5768   38.5160 N   0  0  0  0  0  0  0  0  0  0  0  0
  -15.5656   10.2720   37.6524 H   0  0  0  0  0  0  0  0  0  0  0  0
  -16.2781   13.2013   41.0714 C   0  0  0  0  0  0  0  0  0  0  0  0
  -17.3570   12.6093   41.8010 C   0  0  0  0  0  0  0  0  0  0  0  0
  -17.9980   13.3276   42.8295 C   0  0  0  0  0  0  0  0  0  0  0  0
  -17.5785   14.6366   43.1450 C   0  0  0  0  0  0  0  0  0  0  0  0
  -16.5154   15.2342   42.4338 C   0  0  0  0  0  0  0  0  0  0  0  0
  -15.8690   14.5280   41.4009 C   0  0  0  0  0  0  0  0  0  0  0  0
  -15.9998   16.8392   42.8341 Cl  0  0  0  0  0  0  0  0  0  0  0  0
   -9.8603   15.7629   38.3715 N   0  0  0  0  0  0  0  0  0  0  0  0
  -10.1606   15.5607   39.6844 C   0  0  0  0  0  0  0  0  0  0  0  0
   -9.4990   16.0880   40.5657 O   0  0  0  0  0  0  0  0  0  0  0  0
  -10.4135   15.3265   37.6839 H   0  0  0  0  0  0  0  0  0  0  0  0
   -8.7307   16.6165   37.9448 C   0  0  0  0  0  0  0  0  0  0  0  0
   -7.4694   15.7585   37.9589 C   0  0  0  0  0  0  0  0  0  0  0  0
   -5.0955   15.4880   38.5216 C   0  0  0  0  0  0  0  0  0  0  0  0
   -5.1090   14.1874   37.9771 C   0  0  0  0  0  0  0  0  0  0  0  0
   -6.2661   16.2711   38.5126 C   0  0  0  0  0  0  0  0  0  0  0  0
   -3.9741   13.4517   37.9934 F   0  0  0  0  0  0  0  0  0  0  0  0
   -6.3107   13.6642   37.4192 C   0  0  0  0  0  0  0  0  0  0  0  0
   -6.3479   12.0579   36.7394 Cl  0  0  0  0  0  0  0  0  0  0  0  0
   -7.4875   14.4554   37.4122 C   0  0  0  0  0  0  0  0  0  0  0  0
   -7.9837   18.1838   36.2260 O   0  0  0  0  0  0  0  0  0  0  0  0
   -8.9728   17.1981   36.5382 C   0  0  0  0  0  0  0  0  0  0  0  0
   -8.1502   18.5393   35.3390 H   0  0  0  0  0  0  0  0  0  0  0  0
  1  5  1  0  0  0
  1  4  2  0  0  0
  7  4  1  0  0  0
  7 11  2  0  0  0
  7 10  1  0  0  0
  8 11  1  0  0  0
  8  9  1  0  0  0
  9 10  2  0  0  0
 10 13  1  0  0  0
 13 18  1  0  0  0
 13 14  2  0  0  0
 14 15  1  0  0  0
 15 16  2  0  0  0
 16 17  1  0  0  0
 17 19  1  0  0  0
 17 18  2  0  0  0
 25 32  2  0  0  0
 25 28  1  0  0  0
 25 24  1  0  0  0
 26 27  1  0  0  0
 26 28  2  0  0  0
 27 29  1  0  0  0
 27 30  2  0  0  0
 33 34  1  0  0  0
 34 24  1  0  0  0
 24 20  1  0  0  0
 20 21  1  0  0  0
 21 22  2  0  0  0
 21  2  1  0  0  0
  2  5  1  0  0  0
  2  3  2  0  0  0
  3  4  1  0  0  0
 30 31  1  0  0  0
 30 32  1  0  0  0
  8 12  1  0  0  0
 33 35  1  0  0  0
 20 23  1  0  0  0
  5  6  1  0  0  0
M  END
> <minimizedAffinity>
-9.56676

$$$$
2OJJ_82A_A_360


 35 38  0  0  0  0  0  0  0  0999 V2000
  -14.2653   16.6194   41.0432 C   0  0  0  0  0  0  0  0  0  0  0  0
  -12.3173   15.6084   41.3363 C   0  0  0  0  0  0  0  0  0  0  0  0
  -13.1692   15.1342   42.2942 C   0  0  0  0  0  0  0  0  0  0  0  0
  -14.4174   15.7799   42.1132 C   0  0  0  0  0  0  0  0  0  0  0  0
  -13.0072   16.5181   40.5753 N   0  0  0  0  0  0  0  0  0  0  0  0
  -12.6408   17.0168   39.8096 H   0  0  0  0  0  0  0  0  0  0  0  0
  -15.6957   15.6235   42.9085 C   0  0  0  0  0  0  0  0  0  0  0  0
  -17.2568   16.0418   44.4274 N   0  0  0  0  0  0  0  0  0  0  0  0
  -17.6787   14.9503   43.7708 C   0  0  0  0  0  0  0  0  0  0  0  0
  -16.7594   14.6270   42.8087 C   0  0  0  0  0  0  0  0  0  0  0  0
  -16.0373   16.4436   43.8866 N   0  0  0  0  0  0  0  0  0  0  0  0
  -17.7303   16.4851   45.1680 H   0  0  0  0  0  0  0  0  0  0  0  0
  -16.9049   13.4504   41.8684 C   0  0  0  0  0  0  0  0  0  0  0  0
  -17.9823   12.5277   42.0537 C   0  0  0  0  0  0  0  0  0  0  0  0
  -18.1315   11.4262   41.1883 C   0  0  0  0  0  0  0  0  0  0  0  0
  -17.2170   11.2272   40.1332 C   0  0  0  0  0  0  0  0  0  0  0  0
  -16.1487   12.1292   39.9378 C   0  0  0  0  0  0  0  0  0  0  0  0
  -15.9865   13.2321   40.7984 C   0  0  0  0  0  0  0  0  0  0  0  0
  -15.0352   11.8831   38.6333 Cl  0  0  0  0  0  0  0  0  0  0  0  0
  -10.1319   15.9218   40.2778 N   0  0  0  0  0  0  0  0  0  0  0  0
  -10.9092   15.2262   41.1536 C   0  0  0  0  0  0  0  0  0  0  0  0
  -10.4605   14.2671   41.7627 O   0  0  0  0  0  0  0  0  0  0  0  0
  -10.5209   16.6919   39.8038 H   0  0  0  0  0  0  0  0  0  0  0  0
   -8.7227   15.5581   40.0157 C   0  0  0  0  0  0  0  0  0  0  0  0
   -8.4374   15.8378   38.5434 C   0  0  0  0  0  0  0  0  0  0  0  0
   -8.3367   17.4157   36.6658 C   0  0  0  0  0  0  0  0  0  0  0  0
   -7.9312   16.3748   35.8056 C   0  0  0  0  0  0  0  0  0  0  0  0
   -8.5902   17.1516   38.0259 C   0  0  0  0  0  0  0  0  0  0  0  0
   -7.6943   16.6482   34.5022 F   0  0  0  0  0  0  0  0  0  0  0  0
   -7.7752   15.0536   36.3147 C   0  0  0  0  0  0  0  0  0  0  0  0
   -7.2756   13.7515   35.2666 Cl  0  0  0  0  0  0  0  0  0  0  0  0
   -8.0310   14.7914   37.6848 C   0  0  0  0  0  0  0  0  0  0  0  0
   -7.6291   15.7355   42.1931 O   0  0  0  0  0  0  0  0  0  0  0  0
   -7.7636   16.3631   40.9143 C   0  0  0  0  0  0  0  0  0  0  0  0
   -7.0232   16.2538   42.7455 H   0  0  0  0  0  0  0  0  0  0  0  0
  1  5  1  0  0  0
  1  4  2  0  0  0
  7  4  1  0  0  0
  7 11  2  0  0  0
  7 10  1  0  0  0
  8 11  1  0  0  0
  8  9  1  0  0  0
  9 10  2  0  0  0
 10 13  1  0  0  0
 13 18  1  0  0  0
 13 14  2  0  0  0
 14 15  1  0  0  0
 15 16  2  0  0  0
 16 17  1  0  0  0
 17 19  1  0  0  0
 17 18  2  0  0  0
 25 32  2  0  0  0
 25 28  1  0  0  0
 25 24  1  0  0  0
 26 27  1  0  0  0
 26 28  2  0  0  0
 27 29  1  0  0  0
 27 30  2  0  0  0
 33 34  1  0  0  0
 34 24  1  0  0  0
 24 20  1  0  0  0
 20 21  1  0  0  0
 21 22  2  0  0  0
 21  2  1  0  0  0
  2  5  1  0  0  0
  2  3  2  0  0  0
  3  4  1  0  0  0
 30 31  1  0  0  0
 30 32  1  0  0  0
  8 12  1  0  0  0
 33 35  1  0  0  0
 20 23  1  0  0  0
  5  6  1  0  0  0
M  END
> <minimizedAffinity>
-9.53049

$$$$
2OJJ_82A_A_360


 35 38  0  0  0  0  0  0  0  0999 V2000
  -12.6952   17.0841   40.5126 C   0  0  0  0  0  0  0  0  0  0  0  0
  -10.7154   16.1144   40.7193 C   0  0  0  0  0  0  0  0  0  0  0  0
  -11.5348   15.5715   41.6690 C   0  0  0  0  0  0  0  0  0  0  0  0
  -12.8031   16.1904   41.5432 C   0  0  0  0  0  0  0  0  0  0  0  0
  -11.4447   17.0402   40.0165 N   0  0  0  0  0  0  0  0  0  0  0  0
  -11.1073   17.5850   39.2691 H   0  0  0  0  0  0  0  0  0  0  0  0
  -14.0604   15.9606   42.3542 C   0  0  0  0  0  0  0  0  0  0  0  0
  -15.6308   16.2955   43.8842 N   0  0  0  0  0  0  0  0  0  0  0  0
  -15.9859   15.1697   43.2463 C   0  0  0  0  0  0  0  0  0  0  0  0
  -15.0567   14.8948   42.2786 C   0  0  0  0  0  0  0  0  0  0  0  0
  -14.4459   16.7696   43.3253 N   0  0  0  0  0  0  0  0  0  0  0  0
  -16.1252   16.7165   44.6241 H   0  0  0  0  0  0  0  0  0  0  0  0
  -15.1333   13.6986   41.3552 C   0  0  0  0  0  0  0  0  0  0  0  0
  -16.4041   13.2746   40.8531 C   0  0  0  0  0  0  0  0  0  0  0  0
  -16.4934   12.1620   39.9937 C   0  0  0  0  0  0  0  0  0  0  0  0
  -15.3280   11.4591   39.6238 C   0  0  0  0  0  0  0  0  0  0  0  0
  -14.0669   11.8656   40.1112 C   0  0  0  0  0  0  0  0  0  0  0  0
  -13.9647   12.9739   40.9741 C   0  0  0  0  0  0  0  0  0  0  0  0
  -12.6388   11.0026   39.6442 Cl  0  0  0  0  0  0  0  0  0  0  0  0
   -8.5949   16.4577   39.5444 N   0  0  0  0  0  0  0  0  0  0  0  0
   -9.3016   15.7806   40.4915 C   0  0  0  0  0  0  0  0  0  0  0  0
   -8.7851   14.8757   41.1293 O   0  0  0  0  0  0  0  0  0  0  0  0
   -9.0377   17.1839   39.0486 H   0  0  0  0  0  0  0  0  0  0  0  0
   -7.1844   16.1379   39.2363 C   0  0  0  0  0  0  0  0  0  0  0  0
   -7.1662   15.2989   37.9623 C   0  0  0  0  0  0  0  0  0  0  0  0
   -7.7651   15.0210   35.5981 C   0  0  0  0  0  0  0  0  0  0  0  0
   -7.1607   13.7471   35.5891 C   0  0  0  0  0  0  0  0  0  0  0  0
   -7.7706   15.7934   36.7759 C   0  0  0  0  0  0  0  0  0  0  0  0
   -7.1674   13.0199   34.4486 F   0  0  0  0  0  0  0  0  0  0  0  0
   -6.5521   13.2421   36.7739 C   0  0  0  0  0  0  0  0  0  0  0  0
   -5.8001   11.6679   36.7838 Cl  0  0  0  0  0  0  0  0  0  0  0  0
   -6.5592   14.0228   37.9578 C   0  0  0  0  0  0  0  0  0  0  0  0
   -7.1579   18.5805   39.2744 O   0  0  0  0  0  0  0  0  0  0  0  0
   -6.3506   17.4206   39.0505 C   0  0  0  0  0  0  0  0  0  0  0  0
   -6.6189   19.3778   39.1536 H   0  0  0  0  0  0  0  0  0  0  0  0
  1  5  1  0  0  0
  1  4  2  0  0  0
  7  4  1  0  0  0
  7 11  2  0  0  0
  7 10  1  0  0  0
  8 11  1  0  0  0
  8  9  1  0  0  0
  9 10  2  0  0  0
 10 13  1  0  0  0
 13 18  1  0  0  0
 13 14  2  0  0  0
 14 15  1  0  0  0
 15 16  2  0  0  0
 16 17  1  0  0  0
 17 19  1  0  0  0
 17 18  2  0  0  0
 25 32  2  0  0  0
 25 28  1  0  0  0
 25 24  1  0  0  0
 26 27  1  0  0  0
 26 28  2  0  0  0
 27 29  1  0  0  0
 27 30  2  0  0  0
 33 34  1  0  0  0
 34 24  1  0  0  0
 24 20  1  0  0  0
 20 21  1  0  0  0
 21 22  2  0  0  0
 21  2  1  0  0  0
  2  5  1  0  0  0
  2  3  2  0  0  0
  3  4  1  0  0  0
 30 31  1  0  0  0
 30 32  1  0  0  0
  8 12  1  0  0  0
 33 35  1  0  0  0
 20 23  1  0  0  0
  5  6  1  0  0  0
M  END
> <minimizedAffinity>
-9.50950

$$$$
2OJJ_82A_A_360


 35 38  0  0  0  0  0  0  0  0999 V2000
  -12.4732   17.8765   44.6831 C   0  0  0  0  0  0  0  0  0  0  0  0
  -14.1719   16.7435   43.8266 C   0  0  0  0  0  0  0  0  0  0  0  0
  -13.0239   16.1203   43.4242 C   0  0  0  0  0  0  0  0  0  0  0  0
  -11.9328   16.8428   43.9674 C   0  0  0  0  0  0  0  0  0  0  0  0
  -13.8155   17.8189   44.6007 N   0  0  0  0  0  0  0  0  0  0  0  0
  -14.4413   18.4478   45.0275 H   0  0  0  0  0  0  0  0  0  0  0  0
  -10.4490   16.5820   43.8200 C   0  0  0  0  0  0  0  0  0  0  0  0
   -8.2867   16.5723   44.3132 N   0  0  0  0  0  0  0  0  0  0  0  0
   -8.3847   15.9702   43.1180 C   0  0  0  0  0  0  0  0  0  0  0  0
   -9.7013   15.9379   42.7428 C   0  0  0  0  0  0  0  0  0  0  0  0
   -9.5630   16.9427   44.7315 N   0  0  0  0  0  0  0  0  0  0  0  0
   -7.4519   16.7266   44.8116 H   0  0  0  0  0  0  0  0  0  0  0  0
  -10.1917   15.3284   41.4476 C   0  0  0  0  0  0  0  0  0  0  0  0
  -10.6402   16.1822   40.3910 C   0  0  0  0  0  0  0  0  0  0  0  0
  -11.1014   15.6312   39.1792 C   0  0  0  0  0  0  0  0  0  0  0  0
  -11.1235   14.2322   39.0020 C   0  0  0  0  0  0  0  0  0  0  0  0
  -10.6841   13.3768   40.0357 C   0  0  0  0  0  0  0  0  0  0  0  0
  -10.2244   13.9152   41.2531 C   0  0  0  0  0  0  0  0  0  0  0  0
  -10.7054   11.6595   39.8063 Cl  0  0  0  0  0  0  0  0  0  0  0  0
  -15.8113   15.0502   43.1636 N   0  0  0  0  0  0  0  0  0  0  0  0
  -15.5462   16.3465   43.4867 C   0  0  0  0  0  0  0  0  0  0  0  0
  -16.4295   17.1900   43.4632 O   0  0  0  0  0  0  0  0  0  0  0  0
  -15.0793   14.3926   43.1944 H   0  0  0  0  0  0  0  0  0  0  0  0
  -17.1625   14.5981   42.7681 C   0  0  0  0  0  0  0  0  0  0  0  0
  -16.9964   13.4712   41.7533 C   0  0  0  0  0  0  0  0  0  0  0  0
  -17.8518   11.4286   40.6943 C   0  0  0  0  0  0  0  0  0  0  0  0
  -16.6979   11.3574   39.8871 C   0  0  0  0  0  0  0  0  0  0  0  0
  -18.0021   12.4767   41.6231 C   0  0  0  0  0  0  0  0  0  0  0  0
  -16.5713   10.3421   39.0023 F   0  0  0  0  0  0  0  0  0  0  0  0
  -15.6835   12.3498   40.0101 C   0  0  0  0  0  0  0  0  0  0  0  0
  -14.2477   12.2788   39.0215 Cl  0  0  0  0  0  0  0  0  0  0  0  0
  -15.8384   13.4038   40.9461 C   0  0  0  0  0  0  0  0  0  0  0  0
  -19.3002   14.6269   43.9505 O   0  0  0  0  0  0  0  0  0  0  0  0
  -17.9662   14.1109   43.9896 C   0  0  0  0  0  0  0  0  0  0  0  0
  -19.7918   14.3114   44.7250 H   0  0  0  0  0  0  0  0  0  0  0  0
  1  5  1  0  0  0
  1  4  2  0  0  0
  7  4  1  0  0  0
  7 11  2  0  0  0
  7 10  1  0  0  0
  8 11  1  0  0  0
  8  9  1  0  0  0
  9 10  2  0  0  0
 10 13  1  0  0  0
 13 18  1  0  0  0
 13 14  2  0  0  0
 14 15  1  0  0  0
 15 16  2  0  0  0
 16 17  1  0  0  0
 17 19  1  0  0  0
 17 18  2  0  0  0
 25 32  2  0  0  0
 25 28  1  0  0  0
 25 24  1  0  0  0
 26 27  1  0  0  0
 26 28  2  0  0  0
 27 29  1  0  0  0
 27 30  2  0  0  0
 33 34  1  0  0  0
 34 24  1  0  0  0
 24 20  1  0  0  0
 20 21  1  0  0  0
 21 22  2  0  0  0
 21  2  1  0  0  0
  2  5  1  0  0  0
  2  3  2  0  0  0
  3  4  1  0  0  0
 30 31  1  0  0  0
 30 32  1  0  0  0
  8 12  1  0  0  0
 33 35  1  0  0  0
 20 23  1  0  0  0
  5  6  1  0  0  0
M  END
> <minimizedAffinity>
-9.48633

$$$$
