1ADO_13P_A_1104


 13 12  0  0  0  0  0  0  0  0999 V2000
   24.4761   27.1159   24.8842 O   0  0  0  0  0  0  0  0  0  0  0  0
   23.3540   27.7812   23.9146 P   0  0  0  0  0  0  0  0  0  0  0  0
   23.7709   28.1922   22.4013 O   0  0  0  0  0  0  0  0  0  0  0  0
   22.2771   26.6765   23.5705 O   0  0  0  0  0  0  0  0  0  0  0  0
   22.5915   28.9158   24.6522 O   0  0  0  0  0  0  0  0  0  0  0  0
   21.5980   27.0563   22.9913 H   0  0  0  0  0  0  0  0  0  0  0  0
   21.9278   29.2989   24.0575 H   0  0  0  0  0  0  0  0  0  0  0  0
   24.1494   26.0719   25.8411 C   0  0  0  0  0  0  0  0  0  0  0  0
   24.9769   24.8082   25.7090 C   0  0  0  0  0  0  0  0  0  0  0  0
   24.9622   23.9640   26.6009 O   0  0  0  0  0  0  0  0  0  0  0  0
   25.8323   24.6031   24.4736 C   0  0  0  0  0  0  0  0  0  0  0  0
   25.6955   23.2725   24.0072 O   0  0  0  0  0  0  0  0  0  0  0  0
   25.9841   22.6563   24.6986 H   0  0  0  0  0  0  0  0  0  0  0  0
  2  3  2  0  0  0
  2  4  1  0  0  0
  2  5  1  0  0  0
  2  1  1  0  0  0
  1  8  1  0  0  0
  8  9  1  0  0  0
  9 10  2  0  0  0
  9 11  1  0  0  0
 11 12  1  0  0  0
  4  6  1  0  0  0
  5  7  1  0  0  0
 12 13  1  0  0  0
M  END
> <minimizedAffinity>
-5.87758

$$$$
1ADO_13P_A_1104


 13 12  0  0  0  0  0  0  0  0999 V2000
   24.0279   26.8967   24.8867 O   0  0  0  0  0  0  0  0  0  0  0  0
   23.1950   27.7813   23.8070 P   0  0  0  0  0  0  0  0  0  0  0  0
   23.9226   28.2166   22.4234 O   0  0  0  0  0  0  0  0  0  0  0  0
   22.0531   26.8743   23.1972 O   0  0  0  0  0  0  0  0  0  0  0  0
   22.4791   28.9704   24.5042 O   0  0  0  0  0  0  0  0  0  0  0  0
   21.5445   27.3867   22.5494 H   0  0  0  0  0  0  0  0  0  0  0  0
   21.9888   29.4847   23.8439 H   0  0  0  0  0  0  0  0  0  0  0  0
   25.0347   27.4843   25.7546 C   0  0  0  0  0  0  0  0  0  0  0  0
   24.4824   28.2239   26.9574 C   0  0  0  0  0  0  0  0  0  0  0  0
   24.2528   29.4286   26.8901 O   0  0  0  0  0  0  0  0  0  0  0  0
   24.2296   27.4666   28.2468 C   0  0  0  0  0  0  0  0  0  0  0  0
   23.5129   28.2846   29.1546 O   0  0  0  0  0  0  0  0  0  0  0  0
   24.0311   29.0807   29.3509 H   0  0  0  0  0  0  0  0  0  0  0  0
  2  3  2  0  0  0
  2  4  1  0  0  0
  2  5  1  0  0  0
  2  1  1  0  0  0
  1  8  1  0  0  0
  8  9  1  0  0  0
  9 10  2  0  0  0
  9 11  1  0  0  0
 11 12  1  0  0  0
  4  6  1  0  0  0
  5  7  1  0  0  0
 12 13  1  0  0  0
M  END
> <minimizedAffinity>
-5.83770

$$$$
1ADO_13P_A_1104


 13 12  0  0  0  0  0  0  0  0999 V2000
   24.7345   26.9708   24.4040 O   0  0  0  0  0  0  0  0  0  0  0  0
   23.3270   27.5914   23.8791 P   0  0  0  0  0  0  0  0  0  0  0  0
   22.6852   28.8552   24.6691 O   0  0  0  0  0  0  0  0  0  0  0  0
   23.5819   28.2903   22.4845 O   0  0  0  0  0  0  0  0  0  0  0  0
   22.2915   26.4638   23.6167 O   0  0  0  0  0  0  0  0  0  0  0  0
   22.7510   28.6673   22.1551 H   0  0  0  0  0  0  0  0  0  0  0  0
   21.4602   26.8544   23.3048 H   0  0  0  0  0  0  0  0  0  0  0  0
   25.3292   25.7882   23.8037 C   0  0  0  0  0  0  0  0  0  0  0  0
   25.2966   24.5487   24.6763 C   0  0  0  0  0  0  0  0  0  0  0  0
   25.6206   23.4583   24.2132 O   0  0  0  0  0  0  0  0  0  0  0  0
   24.8473   24.6651   26.1202 C   0  0  0  0  0  0  0  0  0  0  0  0
   25.7477   23.9688   26.9635 O   0  0  0  0  0  0  0  0  0  0  0  0
   25.7675   23.0321   26.7121 H   0  0  0  0  0  0  0  0  0  0  0  0
  2  3  2  0  0  0
  2  4  1  0  0  0
  2  5  1  0  0  0
  2  1  1  0  0  0
  1  8  1  0  0  0
  8  9  1  0  0  0
  9 10  2  0  0  0
  9 11  1  0  0  0
 11 12  1  0  0  0
  4  6  1  0  0  0
  5  7  1  0  0  0
 12 13  1  0  0  0
M  END
> <minimizedAffinity>
-5.79710

$$$$
1ADO_13P_A_1104


 13 12  0  0  0  0  0  0  0  0999 V2000
   24.2106   26.8317   24.7967 O   0  0  0  0  0  0  0  0  0  0  0  0
   23.2981   27.7400   23.8046 P   0  0  0  0  0  0  0  0  0  0  0  0
   23.9245   28.2233   22.3879 O   0  0  0  0  0  0  0  0  0  0  0  0
   22.1234   26.8405   23.2481 O   0  0  0  0  0  0  0  0  0  0  0  0
   22.6233   28.9008   24.5854 O   0  0  0  0  0  0  0  0  0  0  0  0
   21.5672   27.3670   22.6528 H   0  0  0  0  0  0  0  0  0  0  0  0
   22.0844   29.4298   23.9765 H   0  0  0  0  0  0  0  0  0  0  0  0
   24.1888   25.3792   24.7528 C   0  0  0  0  0  0  0  0  0  0  0  0
   25.4597   24.7409   24.2270 C   0  0  0  0  0  0  0  0  0  0  0  0
   25.5912   23.5199   24.2453 O   0  0  0  0  0  0  0  0  0  0  0  0
   26.5709   25.6234   23.6920 C   0  0  0  0  0  0  0  0  0  0  0  0
   26.2238   26.1119   22.4084 O   0  0  0  0  0  0  0  0  0  0  0  0
   26.0924   25.3655   21.8030 H   0  0  0  0  0  0  0  0  0  0  0  0
  2  3  2  0  0  0
  2  4  1  0  0  0
  2  5  1  0  0  0
  2  1  1  0  0  0
  1  8  1  0  0  0
  8  9  1  0  0  0
  9 10  2  0  0  0
  9 11  1  0  0  0
 11 12  1  0  0  0
  4  6  1  0  0  0
  5  7  1  0  0  0
 12 13  1  0  0  0
M  END
> <minimizedAffinity>
-5.72256

$$$$
1ADO_13P_A_1104


 13 12  0  0  0  0  0  0  0  0999 V2000
   23.7632   25.2164   24.4793 O   0  0  0  0  0  0  0  0  0  0  0  0
   25.1116   24.6031   25.1483 P   0  0  0  0  0  0  0  0  0  0  0  0
   24.9773   23.6816   26.4772 O   0  0  0  0  0  0  0  0  0  0  0  0
   25.7026   23.5148   24.1659 O   0  0  0  0  0  0  0  0  0  0  0  0
   26.2036   25.6985   25.2900 O   0  0  0  0  0  0  0  0  0  0  0  0
   26.5094   23.1371   24.5495 H   0  0  0  0  0  0  0  0  0  0  0  0
   26.9985   25.3129   25.6904 H   0  0  0  0  0  0  0  0  0  0  0  0
   23.8087   26.1508   23.3671 C   0  0  0  0  0  0  0  0  0  0  0  0
   23.0042   27.4198   23.5709 C   0  0  0  0  0  0  0  0  0  0  0  0
   21.8687   27.5119   23.1119 O   0  0  0  0  0  0  0  0  0  0  0  0
   23.6188   28.5777   24.3333 C   0  0  0  0  0  0  0  0  0  0  0  0
   22.5989   29.3544   24.9361 O   0  0  0  0  0  0  0  0  0  0  0  0
   22.0101   29.7041   24.2491 H   0  0  0  0  0  0  0  0  0  0  0  0
  2  3  2  0  0  0
  2  4  1  0  0  0
  2  5  1  0  0  0
  2  1  1  0  0  0
  1  8  1  0  0  0
  8  9  1  0  0  0
  9 10  2  0  0  0
  9 11  1  0  0  0
 11 12  1  0  0  0
  4  6  1  0  0  0
  5  7  1  0  0  0
 12 13  1  0  0  0
M  END
> <minimizedAffinity>
-5.71571

$$$$
1ADO_13P_A_1104


 13 12  0  0  0  0  0  0  0  0999 V2000
   23.7905   26.4507   24.7875 O   0  0  0  0  0  0  0  0  0  0  0  0
   23.1836   27.6325   23.8511 P   0  0  0  0  0  0  0  0  0  0  0  0
   23.9945   28.0669   22.5144 O   0  0  0  0  0  0  0  0  0  0  0  0
   21.8666   27.0936   23.1628 O   0  0  0  0  0  0  0  0  0  0  0  0
   22.7554   28.8524   24.7119 O   0  0  0  0  0  0  0  0  0  0  0  0
   21.4896   27.7869   22.5988 H   0  0  0  0  0  0  0  0  0  0  0  0
   22.3966   29.5450   24.1354 H   0  0  0  0  0  0  0  0  0  0  0  0
   24.2865   26.7062   26.1296 C   0  0  0  0  0  0  0  0  0  0  0  0
   24.6176   25.4627   26.9314 C   0  0  0  0  0  0  0  0  0  0  0  0
   24.6408   24.3631   26.3848 O   0  0  0  0  0  0  0  0  0  0  0  0
   24.9054   25.5871   28.4152 C   0  0  0  0  0  0  0  0  0  0  0  0
   24.0667   24.7092   29.1449 O   0  0  0  0  0  0  0  0  0  0  0  0
   23.1384   24.9386   28.9817 H   0  0  0  0  0  0  0  0  0  0  0  0
  2  3  2  0  0  0
  2  4  1  0  0  0
  2  5  1  0  0  0
  2  1  1  0  0  0
  1  8  1  0  0  0
  8  9  1  0  0  0
  9 10  2  0  0  0
  9 11  1  0  0  0
 11 12  1  0  0  0
  4  6  1  0  0  0
  5  7  1  0  0  0
 12 13  1  0  0  0
M  END
> <minimizedAffinity>
-5.62111

$$$$
1ADO_13P_A_1104


 13 12  0  0  0  0  0  0  0  0999 V2000
   24.6621   26.7827   26.3416 O   0  0  0  0  0  0  0  0  0  0  0  0
   24.5947   27.2246   27.9043 P   0  0  0  0  0  0  0  0  0  0  0  0
   25.9764   27.5762   28.6790 O   0  0  0  0  0  0  0  0  0  0  0  0
   23.9089   28.6462   27.9891 O   0  0  0  0  0  0  0  0  0  0  0  0
   23.6877   26.2563   28.7120 O   0  0  0  0  0  0  0  0  0  0  0  0
   23.8599   28.9268   28.9163 H   0  0  0  0  0  0  0  0  0  0  0  0
   23.6609   26.5370   29.6401 H   0  0  0  0  0  0  0  0  0  0  0  0
   24.8186   27.7525   25.2704 C   0  0  0  0  0  0  0  0  0  0  0  0
   23.5418   28.0848   24.5234 C   0  0  0  0  0  0  0  0  0  0  0  0
   22.8036   28.9789   24.9287 O   0  0  0  0  0  0  0  0  0  0  0  0
   23.1778   27.2949   23.2810 C   0  0  0  0  0  0  0  0  0  0  0  0
   21.7719   27.2877   23.1081 O   0  0  0  0  0  0  0  0  0  0  0  0
   21.3533   26.8753   23.8799 H   0  0  0  0  0  0  0  0  0  0  0  0
  2  3  2  0  0  0
  2  4  1  0  0  0
  2  5  1  0  0  0
  2  1  1  0  0  0
  1  8  1  0  0  0
  8  9  1  0  0  0
  9 10  2  0  0  0
  9 11  1  0  0  0
 11 12  1  0  0  0
  4  6  1  0  0  0
  5  7  1  0  0  0
 12 13  1  0  0  0
M  END
> <minimizedAffinity>
-5.51351

$$$$
1ADO_13P_A_1104


 13 12  0  0  0  0  0  0  0  0999 V2000
   24.9247   28.3249   24.7646 O   0  0  0  0  0  0  0  0  0  0  0  0
   23.7083   29.0884   24.0035 P   0  0  0  0  0  0  0  0  0  0  0  0
   23.9714   30.5701   23.3967 O   0  0  0  0  0  0  0  0  0  0  0  0
   23.4150   28.3279   22.6492 O   0  0  0  0  0  0  0  0  0  0  0  0
   22.4005   29.0091   24.8378 O   0  0  0  0  0  0  0  0  0  0  0  0
   22.6902   28.7704   22.1803 H   0  0  0  0  0  0  0  0  0  0  0  0
   21.6883   29.4697   24.3671 H   0  0  0  0  0  0  0  0  0  0  0  0
   24.6906   27.2259   25.6865 C   0  0  0  0  0  0  0  0  0  0  0  0
   24.1667   25.9574   25.0419 C   0  0  0  0  0  0  0  0  0  0  0  0
   22.9782   25.8590   24.7482 O   0  0  0  0  0  0  0  0  0  0  0  0
   25.1195   24.8078   24.7765 C   0  0  0  0  0  0  0  0  0  0  0  0
   24.6914   23.6542   25.4786 O   0  0  0  0  0  0  0  0  0  0  0  0
   24.6778   23.8414   26.4302 H   0  0  0  0  0  0  0  0  0  0  0  0
  2  3  2  0  0  0
  2  4  1  0  0  0
  2  5  1  0  0  0
  2  1  1  0  0  0
  1  8  1  0  0  0
  8  9  1  0  0  0
  9 10  2  0  0  0
  9 11  1  0  0  0
 11 12  1  0  0  0
  4  6  1  0  0  0
  5  7  1  0  0  0
 12 13  1  0  0  0
M  END
> <minimizedAffinity>
-5.47637

$$$$
1ADO_13P_A_1104


 13 12  0  0  0  0  0  0  0  0999 V2000
   24.8342   27.9616   24.6941 O   0  0  0  0  0  0  0  0  0  0  0  0
   23.6735   28.8154   23.9419 P   0  0  0  0  0  0  0  0  0  0  0  0
   22.4324   29.3891   24.8157 O   0  0  0  0  0  0  0  0  0  0  0  0
   24.2926   30.1941   23.4787 O   0  0  0  0  0  0  0  0  0  0  0  0
   23.2084   28.0921   22.6484 O   0  0  0  0  0  0  0  0  0  0  0  0
   23.6129   30.7182   23.0268 H   0  0  0  0  0  0  0  0  0  0  0  0
   22.5170   28.6169   22.2153 H   0  0  0  0  0  0  0  0  0  0  0  0
   24.5260   26.9525   25.6936 C   0  0  0  0  0  0  0  0  0  0  0  0
   24.3014   25.5588   25.1402 C   0  0  0  0  0  0  0  0  0  0  0  0
   23.3185   25.3220   24.4428 O   0  0  0  0  0  0  0  0  0  0  0  0
   25.2924   24.4583   25.4668 C   0  0  0  0  0  0  0  0  0  0  0  0
   24.5998   23.2784   25.8339 O   0  0  0  0  0  0  0  0  0  0  0  0
   24.0527   23.4544   26.6152 H   0  0  0  0  0  0  0  0  0  0  0  0
  2  3  2  0  0  0
  2  4  1  0  0  0
  2  5  1  0  0  0
  2  1  1  0  0  0
  1  8  1  0  0  0
  8  9  1  0  0  0
  9 10  2  0  0  0
  9 11  1  0  0  0
 11 12  1  0  0  0
  4  6  1  0  0  0
  5  7  1  0  0  0
 12 13  1  0  0  0
M  END
> <minimizedAffinity>
-5.41134

$$$$
1ADO_13P_A_1104


 13 12  0  0  0  0  0  0  0  0999 V2000
   24.0099   27.2549   25.2140 O   0  0  0  0  0  0  0  0  0  0  0  0
   23.5002   26.5691   23.8313 P   0  0  0  0  0  0  0  0  0  0  0  0
   24.5173   25.6043   23.0143 O   0  0  0  0  0  0  0  0  0  0  0  0
   22.3938   25.4976   24.1870 O   0  0  0  0  0  0  0  0  0  0  0  0
   22.8101   27.6186   22.9176 O   0  0  0  0  0  0  0  0  0  0  0  0
   22.0772   25.0771   23.3722 H   0  0  0  0  0  0  0  0  0  0  0  0
   22.5139   27.1899   22.0994 H   0  0  0  0  0  0  0  0  0  0  0  0
   25.1055   28.2094   25.2449 C   0  0  0  0  0  0  0  0  0  0  0  0
   24.6954   29.6367   25.5509 C   0  0  0  0  0  0  0  0  0  0  0  0
   24.3392   29.9478   26.6844 O   0  0  0  0  0  0  0  0  0  0  0  0
   24.7157   30.6720   24.4428 C   0  0  0  0  0  0  0  0  0  0  0  0
   23.6778   30.4072   23.5158 O   0  0  0  0  0  0  0  0  0  0  0  0
   23.8061   29.5268   23.1295 H   0  0  0  0  0  0  0  0  0  0  0  0
  2  3  2  0  0  0
  2  4  1  0  0  0
  2  5  1  0  0  0
  2  1  1  0  0  0
  1  8  1  0  0  0
  8  9  1  0  0  0
  9 10  2  0  0  0
  9 11  1  0  0  0
 11 12  1  0  0  0
  4  6  1  0  0  0
  5  7  1  0  0  0
 12 13  1  0  0  0
M  END
> <minimizedAffinity>
-5.25085

$$$$
