5V0N_8W4_A_404


 50 55  0  0  0  0  0  0  0  0999 V2000
   -2.7293  -18.2606   33.5980 C   0  0  0  0  0  0  0  0  0  0  0  0
   -0.4397  -17.9228   32.8058 C   0  0  0  0  0  0  0  0  0  0  0  0
   -1.7078  -18.2267   32.6033 N   0  0  0  0  0  0  0  0  0  0  0  0
   -0.0180  -17.5794   33.9367 O   0  0  0  0  0  0  0  0  0  0  0  0
   -1.9728  -18.4503   31.6819 H   0  0  0  0  0  0  0  0  0  0  0  0
    0.3964  -17.7085   31.7499 C   0  0  0  0  0  0  0  0  0  0  0  0
    1.0267  -16.4754   29.7486 C   0  0  0  0  0  0  0  0  0  0  0  0
    2.3232  -17.0667   29.7990 C   0  0  0  0  0  0  0  0  0  0  0  0
    3.3502  -19.7206   28.5363 O   0  0  0  0  0  0  0  0  0  0  0  0
    4.4721  -19.3007   29.3565 S   0  0  0  0  0  0  0  0  0  0  0  0
    5.2317  -17.9823   28.4406 C   0  0  0  0  0  0  0  0  0  0  0  0
    5.5749  -18.3687   27.0116 C   0  0  0  0  0  0  0  0  0  0  0  0
    6.5809  -17.6188   29.0241 C   0  0  0  0  0  0  0  0  0  0  0  0
    4.4250  -16.7566   28.2989 C   0  0  0  0  0  0  0  0  0  0  0  0
    3.0644  -16.5725   28.6715 N   0  0  0  0  0  0  0  0  0  0  0  0
    2.2480  -15.6748   27.9875 C   0  0  0  0  0  0  0  0  0  0  0  0
    1.0175  -15.5840   28.5880 C   0  0  0  0  0  0  0  0  0  0  0  0
    0.0986  -16.7790   30.7585 C   0  0  0  0  0  0  0  0  0  0  0  0
    1.6888  -18.2589   31.8074 C   0  0  0  0  0  0  0  0  0  0  0  0
    2.6522  -17.9500   30.8570 C   0  0  0  0  0  0  0  0  0  0  0  0
    3.8557  -18.5916   30.7964 N   0  0  0  0  0  0  0  0  0  0  0  0
    4.7058  -18.8324   31.9859 C   0  0  0  0  0  0  0  0  0  0  0  0
    5.3959  -20.2761   29.5827 O   0  0  0  0  0  0  0  0  0  0  0  0
   -0.0099  -14.8255   28.1745 C   0  0  0  0  0  0  0  0  0  0  0  0
   -1.1154  -15.5846   27.4627 C   0  0  0  0  0  0  0  0  0  0  0  0
   -3.1858  -19.7019   34.0022 C   0  0  0  0  0  0  0  0  0  0  0  0
   -4.4389  -19.6096   34.6173 O   0  0  0  0  0  0  0  0  0  0  0  0
   -4.3568  -19.1109   35.4452 H   0  0  0  0  0  0  0  0  0  0  0  0
   -2.5798  -22.0464   37.3828 C   0  0  0  0  0  0  0  0  0  0  0  0
   -2.2840  -22.6001   36.0141 C   0  0  0  0  0  0  0  0  0  0  0  0
   -2.3143  -20.4912   34.9595 C   0  0  0  0  0  0  0  0  0  0  0  0
   -2.9448  -21.7745   35.0199 N   0  0  0  0  0  0  0  0  0  0  0  0
   -2.3873  -20.5729   37.4177 N   0  0  0  0  0  0  0  0  0  0  0  0
   -2.2285  -19.7784   36.3065 C   0  0  0  0  0  0  0  0  0  0  0  0
   -2.0537  -18.5686   36.4057 O   0  0  0  0  0  0  0  0  0  0  0  0
   -2.8810  -22.2264   34.1077 H   0  0  0  0  0  0  0  0  0  0  0  0
   -2.3397  -19.9456   38.7944 C   0  0  0  0  0  0  0  0  0  0  0  0
   -3.7330  -19.8618   39.3223 C   0  0  0  0  0  0  0  0  0  0  0  0
   -4.5401  -18.7703   39.0019 C   0  0  0  0  0  0  0  0  0  0  0  0
   -5.8295  -18.6999   39.4702 C   0  0  0  0  0  0  0  0  0  0  0  0
   -6.3888  -19.7079   40.1906 C   0  0  0  0  0  0  0  0  0  0  0  0
   -5.6049  -20.8090   40.4807 C   0  0  0  0  0  0  0  0  0  0  0  0
   -4.2930  -20.8719   40.0546 C   0  0  0  0  0  0  0  0  0  0  0  0
   -3.9068  -17.3732   33.0413 C   0  0  0  0  0  0  0  0  0  0  0  0
   -3.7173  -15.7378   31.1189 C   0  0  0  0  0  0  0  0  0  0  0  0
   -2.5694  -13.6209   31.2652 C   0  0  0  0  0  0  0  0  0  0  0  0
   -3.4442  -16.0727   32.4637 C   0  0  0  0  0  0  0  0  0  0  0  0
   -2.2786  -13.9194   32.6159 C   0  0  0  0  0  0  0  0  0  0  0  0
   -3.2978  -14.5462   30.5425 C   0  0  0  0  0  0  0  0  0  0  0  0
   -2.7377  -15.1395   33.1883 C   0  0  0  0  0  0  0  0  0  0  0  0
 25 24  1  0  0  0
 49 46  2  0  0  0
 49 45  1  0  0  0
 46 48  1  0  0  0
 45 47  2  0  0  0
 24 17  1  0  0  0
 48 50  2  0  0  0
 47 50  1  0  0  0
 47 44  1  0  0  0
 17 16  2  0  0  0
 17  7  1  0  0  0
 44  1  1  0  0  0
 16 15  1  0  0  0
  7 18  2  0  0  0
  7  8  1  0  0  0
 18  6  1  0  0  0
  1  3  1  0  0  0
  1 26  1  0  0  0
 15  8  1  0  0  0
 15 14  1  0  0  0
  3  2  1  0  0  0
 27 26  1  0  0  0
  8 20  2  0  0  0
 26 31  1  0  0  0
 14 11  1  0  0  0
  6  2  1  0  0  0
  6 19  2  0  0  0
  2  4  2  0  0  0
 12 11  1  0  0  0
  9 10  2  0  0  0
 20 19  1  0  0  0
 20 21  1  0  0  0
 11 10  1  0  0  0
 11 13  1  0  0  0
 31 32  1  0  0  0
 31 34  1  0  0  0
 32 30  1  0  0  0
 10 21  1  0  0  0
 10 23  2  0  0  0
 35 34  2  0  0  0
 21 22  1  0  0  0
 34 33  1  0  0  0
 40 39  2  0  0  0
 40 41  1  0  0  0
 39 38  1  0  0  0
 30 29  1  0  0  0
 41 42  2  0  0  0
 33 29  1  0  0  0
 33 37  1  0  0  0
 38 37  1  0  0  0
 38 43  2  0  0  0
 42 43  1  0  0  0
  3  5  1  0  0  0
 27 28  1  0  0  0
 32 36  1  0  0  0
M  END
> <minimizedAffinity>
-14.18783

$$$$
5V0N_8W4_A_404


 50 55  0  0  0  0  0  0  0  0999 V2000
   -2.5756  -18.3558   33.7688 C   0  0  0  0  0  0  0  0  0  0  0  0
   -0.3326  -17.9288   32.8908 C   0  0  0  0  0  0  0  0  0  0  0  0
   -1.5898  -18.3004   32.7396 N   0  0  0  0  0  0  0  0  0  0  0  0
    0.1077  -17.5326   33.9971 O   0  0  0  0  0  0  0  0  0  0  0  0
   -1.8729  -18.5633   31.8340 H   0  0  0  0  0  0  0  0  0  0  0  0
    0.4570  -17.7042   31.8019 C   0  0  0  0  0  0  0  0  0  0  0  0
    0.9747  -16.4815   29.7623 C   0  0  0  0  0  0  0  0  0  0  0  0
    2.2901  -17.0318   29.7725 C   0  0  0  0  0  0  0  0  0  0  0  0
    3.3526  -19.6710   28.5082 O   0  0  0  0  0  0  0  0  0  0  0  0
    4.4902  -19.2049   29.2806 S   0  0  0  0  0  0  0  0  0  0  0  0
    5.1740  -17.8771   28.3195 C   0  0  0  0  0  0  0  0  0  0  0  0
    5.4766  -18.2735   26.8841 C   0  0  0  0  0  0  0  0  0  0  0  0
    6.5317  -17.4638   28.8477 C   0  0  0  0  0  0  0  0  0  0  0  0
    4.3247  -16.6791   28.1915 C   0  0  0  0  0  0  0  0  0  0  0  0
    2.9736  -16.5315   28.6117 N   0  0  0  0  0  0  0  0  0  0  0  0
    2.1050  -15.6695   27.9465 C   0  0  0  0  0  0  0  0  0  0  0  0
    0.8951  -15.6079   28.5909 C   0  0  0  0  0  0  0  0  0  0  0  0
    0.0942  -16.7989   30.8099 C   0  0  0  0  0  0  0  0  0  0  0  0
    1.7673  -18.2137   31.8188 C   0  0  0  0  0  0  0  0  0  0  0  0
    2.6851  -17.8891   30.8293 C   0  0  0  0  0  0  0  0  0  0  0  0
    3.9051  -18.4942   30.7327 N   0  0  0  0  0  0  0  0  0  0  0  0
    4.8053  -18.6914   31.8930 C   0  0  0  0  0  0  0  0  0  0  0  0
    5.4517  -20.1480   29.4855 O   0  0  0  0  0  0  0  0  0  0  0  0
   -0.1700  -14.8875   28.2057 C   0  0  0  0  0  0  0  0  0  0  0  0
   -1.3041  -15.6991   27.6056 C   0  0  0  0  0  0  0  0  0  0  0  0
   -2.8870  -19.8002   34.2842 C   0  0  0  0  0  0  0  0  0  0  0  0
   -4.0566  -19.7509   35.0500 O   0  0  0  0  0  0  0  0  0  0  0  0
   -3.9030  -19.2101   35.8405 H   0  0  0  0  0  0  0  0  0  0  0  0
   -1.7139  -22.6183   37.1080 C   0  0  0  0  0  0  0  0  0  0  0  0
   -1.1715  -22.6811   35.7048 C   0  0  0  0  0  0  0  0  0  0  0  0
   -1.8549  -20.4929   35.1526 C   0  0  0  0  0  0  0  0  0  0  0  0
   -2.0158  -21.8796   34.8379 N   0  0  0  0  0  0  0  0  0  0  0  0
   -2.0341  -21.2197   37.4966 N   0  0  0  0  0  0  0  0  0  0  0  0
   -2.0916  -20.1591   36.6231 C   0  0  0  0  0  0  0  0  0  0  0  0
   -2.3428  -19.0235   37.0124 O   0  0  0  0  0  0  0  0  0  0  0  0
   -1.7515  -22.0392   33.8657 H   0  0  0  0  0  0  0  0  0  0  0  0
   -2.2794  -20.9837   38.9714 C   0  0  0  0  0  0  0  0  0  0  0  0
   -0.9617  -20.7774   39.6409 C   0  0  0  0  0  0  0  0  0  0  0  0
   -0.5450  -19.4924   39.9883 C   0  0  0  0  0  0  0  0  0  0  0  0
    0.6585  -19.3012   40.6223 C   0  0  0  0  0  0  0  0  0  0  0  0
    1.4463  -20.3430   40.9988 C   0  0  0  0  0  0  0  0  0  0  0  0
    1.0210  -21.6215   40.6893 C   0  0  0  0  0  0  0  0  0  0  0  0
   -0.1648  -21.8250   40.0119 C   0  0  0  0  0  0  0  0  0  0  0  0
   -3.8445  -17.6180   33.1944 C   0  0  0  0  0  0  0  0  0  0  0  0
   -3.9716  -15.9628   31.2838 C   0  0  0  0  0  0  0  0  0  0  0  0
   -2.9448  -13.7802   31.3279 C   0  0  0  0  0  0  0  0  0  0  0  0
   -3.5293  -16.2882   32.5853 C   0  0  0  0  0  0  0  0  0  0  0  0
   -2.4866  -14.0681   32.6338 C   0  0  0  0  0  0  0  0  0  0  0  0
   -3.6924  -14.7444   30.6794 C   0  0  0  0  0  0  0  0  0  0  0  0
   -2.8037  -15.3175   33.2383 C   0  0  0  0  0  0  0  0  0  0  0  0
 25 24  1  0  0  0
 49 46  2  0  0  0
 49 45  1  0  0  0
 46 48  1  0  0  0
 45 47  2  0  0  0
 24 17  1  0  0  0
 48 50  2  0  0  0
 47 50  1  0  0  0
 47 44  1  0  0  0
 17 16  2  0  0  0
 17  7  1  0  0  0
 44  1  1  0  0  0
 16 15  1  0  0  0
  7 18  2  0  0  0
  7  8  1  0  0  0
 18  6  1  0  0  0
  1  3  1  0  0  0
  1 26  1  0  0  0
 15  8  1  0  0  0
 15 14  1  0  0  0
  3  2  1  0  0  0
 27 26  1  0  0  0
  8 20  2  0  0  0
 26 31  1  0  0  0
 14 11  1  0  0  0
  6  2  1  0  0  0
  6 19  2  0  0  0
  2  4  2  0  0  0
 12 11  1  0  0  0
  9 10  2  0  0  0
 20 19  1  0  0  0
 20 21  1  0  0  0
 11 10  1  0  0  0
 11 13  1  0  0  0
 31 32  1  0  0  0
 31 34  1  0  0  0
 32 30  1  0  0  0
 10 21  1  0  0  0
 10 23  2  0  0  0
 35 34  2  0  0  0
 21 22  1  0  0  0
 34 33  1  0  0  0
 40 39  2  0  0  0
 40 41  1  0  0  0
 39 38  1  0  0  0
 30 29  1  0  0  0
 41 42  2  0  0  0
 33 29  1  0  0  0
 33 37  1  0  0  0
 38 37  1  0  0  0
 38 43  2  0  0  0
 42 43  1  0  0  0
  3  5  1  0  0  0
 27 28  1  0  0  0
 32 36  1  0  0  0
M  END
> <minimizedAffinity>
-12.95321

$$$$
5V0N_8W4_A_404


 50 55  0  0  0  0  0  0  0  0999 V2000
   -2.3763  -18.1593   33.5382 C   0  0  0  0  0  0  0  0  0  0  0  0
   -0.1017  -17.9303   32.6676 C   0  0  0  0  0  0  0  0  0  0  0  0
   -1.3966  -18.1239   32.5023 N   0  0  0  0  0  0  0  0  0  0  0  0
    0.3907  -17.7067   33.7999 O   0  0  0  0  0  0  0  0  0  0  0  0
   -1.7152  -18.2560   31.5802 H   0  0  0  0  0  0  0  0  0  0  0  0
    0.7046  -17.6973   31.5927 C   0  0  0  0  0  0  0  0  0  0  0  0
    1.2505  -16.4624   29.5679 C   0  0  0  0  0  0  0  0  0  0  0  0
    2.5676  -17.0079   29.5966 C   0  0  0  0  0  0  0  0  0  0  0  0
    3.6604  -19.6366   28.3365 O   0  0  0  0  0  0  0  0  0  0  0  0
    4.7836  -19.1702   29.1295 S   0  0  0  0  0  0  0  0  0  0  0  0
    5.4779  -17.8351   28.1863 C   0  0  0  0  0  0  0  0  0  0  0  0
    5.8051  -18.2231   26.7540 C   0  0  0  0  0  0  0  0  0  0  0  0
    6.8252  -17.4194   28.7385 C   0  0  0  0  0  0  0  0  0  0  0  0
    4.6262  -16.6396   28.0505 C   0  0  0  0  0  0  0  0  0  0  0  0
    3.2679  -16.4992   28.4496 N   0  0  0  0  0  0  0  0  0  0  0  0
    2.4069  -15.6369   27.7747 C   0  0  0  0  0  0  0  0  0  0  0  0
    1.1865  -15.5831   28.3998 C   0  0  0  0  0  0  0  0  0  0  0  0
    0.3544  -16.7883   30.5995 C   0  0  0  0  0  0  0  0  0  0  0  0
    2.0163  -18.2020   31.6283 C   0  0  0  0  0  0  0  0  0  0  0  0
    2.9488  -17.8690   30.6554 C   0  0  0  0  0  0  0  0  0  0  0  0
    4.1724  -18.4691   30.5755 N   0  0  0  0  0  0  0  0  0  0  0  0
    5.0545  -18.6687   31.7493 C   0  0  0  0  0  0  0  0  0  0  0  0
    5.7452  -20.1107   29.3452 O   0  0  0  0  0  0  0  0  0  0  0  0
    0.1251  -14.8647   28.0010 C   0  0  0  0  0  0  0  0  0  0  0  0
   -1.0154  -15.6823   27.4214 C   0  0  0  0  0  0  0  0  0  0  0  0
   -2.6852  -19.5936   34.0828 C   0  0  0  0  0  0  0  0  0  0  0  0
   -3.6299  -20.1894   33.2406 O   0  0  0  0  0  0  0  0  0  0  0  0
   -4.4640  -19.6967   33.2906 H   0  0  0  0  0  0  0  0  0  0  0  0
   -2.3140  -20.3005   38.1637 C   0  0  0  0  0  0  0  0  0  0  0  0
   -2.7796  -18.9575   37.6670 C   0  0  0  0  0  0  0  0  0  0  0  0
   -3.2431  -19.7260   35.4865 C   0  0  0  0  0  0  0  0  0  0  0  0
   -2.4387  -18.8317   36.2618 N   0  0  0  0  0  0  0  0  0  0  0  0
   -2.7014  -21.3837   37.2224 N   0  0  0  0  0  0  0  0  0  0  0  0
   -3.1748  -21.1795   35.9475 C   0  0  0  0  0  0  0  0  0  0  0  0
   -3.4960  -22.1186   35.2271 O   0  0  0  0  0  0  0  0  0  0  0  0
   -2.6077  -17.8732   35.9567 H   0  0  0  0  0  0  0  0  0  0  0  0
   -2.5785  -22.7956   37.7537 C   0  0  0  0  0  0  0  0  0  0  0  0
   -1.3053  -23.3823   37.2421 C   0  0  0  0  0  0  0  0  0  0  0  0
   -1.0280  -24.7352   37.4376 C   0  0  0  0  0  0  0  0  0  0  0  0
    0.1341  -25.2825   36.9508 C   0  0  0  0  0  0  0  0  0  0  0  0
    1.0125  -24.5597   36.2065 C   0  0  0  0  0  0  0  0  0  0  0  0
    0.7252  -23.2269   35.9787 C   0  0  0  0  0  0  0  0  0  0  0  0
   -0.4171  -22.6531   36.5008 C   0  0  0  0  0  0  0  0  0  0  0  0
   -3.6483  -17.4320   32.9574 C   0  0  0  0  0  0  0  0  0  0  0  0
   -3.8385  -15.6567   31.1635 C   0  0  0  0  0  0  0  0  0  0  0  0
   -2.8174  -13.4765   31.3186 C   0  0  0  0  0  0  0  0  0  0  0  0
   -3.3558  -16.0638   32.4271 C   0  0  0  0  0  0  0  0  0  0  0  0
   -2.3186  -13.8465   32.5885 C   0  0  0  0  0  0  0  0  0  0  0  0
   -3.5815  -14.4001   30.6316 C   0  0  0  0  0  0  0  0  0  0  0  0
   -2.6135  -15.1341   33.1196 C   0  0  0  0  0  0  0  0  0  0  0  0
 25 24  1  0  0  0
 49 46  2  0  0  0
 49 45  1  0  0  0
 46 48  1  0  0  0
 45 47  2  0  0  0
 24 17  1  0  0  0
 48 50  2  0  0  0
 47 50  1  0  0  0
 47 44  1  0  0  0
 17 16  2  0  0  0
 17  7  1  0  0  0
 44  1  1  0  0  0
 16 15  1  0  0  0
  7 18  2  0  0  0
  7  8  1  0  0  0
 18  6  1  0  0  0
  1  3  1  0  0  0
  1 26  1  0  0  0
 15  8  1  0  0  0
 15 14  1  0  0  0
  3  2  1  0  0  0
 27 26  1  0  0  0
  8 20  2  0  0  0
 26 31  1  0  0  0
 14 11  1  0  0  0
  6  2  1  0  0  0
  6 19  2  0  0  0
  2  4  2  0  0  0
 12 11  1  0  0  0
  9 10  2  0  0  0
 20 19  1  0  0  0
 20 21  1  0  0  0
 11 10  1  0  0  0
 11 13  1  0  0  0
 31 32  1  0  0  0
 31 34  1  0  0  0
 32 30  1  0  0  0
 10 21  1  0  0  0
 10 23  2  0  0  0
 35 34  2  0  0  0
 21 22  1  0  0  0
 34 33  1  0  0  0
 40 39  2  0  0  0
 40 41  1  0  0  0
 39 38  1  0  0  0
 30 29  1  0  0  0
 41 42  2  0  0  0
 33 29  1  0  0  0
 33 37  1  0  0  0
 38 37  1  0  0  0
 38 43  2  0  0  0
 42 43  1  0  0  0
  3  5  1  0  0  0
 27 28  1  0  0  0
 32 36  1  0  0  0
M  END
> <minimizedAffinity>
-11.33369

$$$$
