2JH0_701_D_1247


 30 32  0  0  0  0  0  0  0  0999 V2000
    3.9787   20.4386   51.2306 C   0  0  0  0  0  0  0  0  0  0  0  0
    2.5136   20.7840   51.5618 C   0  0  0  0  0  0  0  0  0  0  0  0
    1.6189   19.8180   50.7578 C   0  0  0  0  0  0  0  0  0  0  0  0
    3.8793   19.6238   49.9747 C   0  0  0  0  0  0  0  0  0  0  0  0
    4.8222   19.3624   49.2321 O   0  0  0  0  0  0  0  0  0  0  0  0
    2.6146   19.2478   49.8390 N   0  0  0  0  0  0  0  0  0  0  0  0
    4.8448   21.6020   51.1039 N   0  0  0  0  0  0  0  0  0  0  0  0
    4.9315   21.8017   50.1074 H   0  0  0  0  0  0  0  0  0  0  0  0
    6.3183   21.5394   51.6948 S   0  0  0  0  0  0  0  0  0  0  0  0
    6.3828   22.4040   52.8297 O   0  0  0  0  0  0  0  0  0  0  0  0
    6.6499   20.1877   52.0797 O   0  0  0  0  0  0  0  0  0  0  0  0
    8.6201   21.3199   50.3931 C   0  0  0  0  0  0  0  0  0  0  0  0
    9.1258   20.1425   51.1726 C   0  0  0  0  0  0  0  0  0  0  0  0
    7.4188   21.9184   50.6021 C   0  0  0  0  0  0  0  0  0  0  0  0
   10.7335   24.8553   46.5555 Cl  0  0  0  0  0  0  0  0  0  0  0  0
   10.4138   23.4207   47.6056 C   0  0  0  0  0  0  0  0  0  0  0  0
   11.0688   22.2002   47.5868 C   0  0  0  0  0  0  0  0  0  0  0  0
   10.5112   21.3415   48.5565 C   0  0  0  0  0  0  0  0  0  0  0  0
    9.4726   21.9082   49.3100 C   0  0  0  0  0  0  0  0  0  0  0  0
    9.1452   23.5920   48.7893 S   0  0  0  0  0  0  0  0  0  0  0  0
    2.1711   18.2868   48.8365 C   0  0  0  0  0  0  0  0  0  0  0  0
    1.6156   17.0358   49.5240 C   0  0  0  0  0  0  0  0  0  0  0  0
    1.1936   18.8779   47.8650 C   0  0  0  0  0  0  0  0  0  0  0  0
    0.0484   19.0858   48.2373 O   0  0  0  0  0  0  0  0  0  0  0  0
    1.6266   19.2092   46.6434 N   0  0  0  0  0  0  0  0  0  0  0  0
    3.0310   19.1345   46.2096 C   0  0  0  0  0  0  0  0  0  0  0  0
    3.0378   18.3132   44.9387 C   0  0  0  0  0  0  0  0  0  0  0  0
    2.1330   18.9094   44.0038 O   0  0  0  0  0  0  0  0  0  0  0  0
    0.7929   18.8047   44.4694 C   0  0  0  0  0  0  0  0  0  0  0  0
    0.6922   19.7384   45.6592 C   0  0  0  0  0  0  0  0  0  0  0  0
 15 16  1  0  0  0
 16 17  2  0  0  0
 17 18  1  0  0  0
 18 19  2  0  0  0
 19 12  1  0  0  0
 12 13  1  0  0  0
  9 10  2  0  0  0
  9 11  2  0  0  0
  9  7  1  0  0  0
  7  1  1  0  0  0
  1  2  1  0  0  0
  2  3  1  0  0  0
  1  4  1  0  0  0
  4  5  2  0  0  0
  3  6  1  0  0  0
  4  6  1  0  0  0
  6 21  1  0  0  0
 21 22  1  0  0  0
 21 23  1  0  0  0
 23 24  2  0  0  0
 23 25  1  0  0  0
 25 26  1  0  0  0
 26 27  1  0  0  0
 27 28  1  0  0  0
 28 29  1  0  0  0
 25 30  1  0  0  0
 29 30  1  0  0  0
 16 20  1  0  0  0
 19 20  1  0  0  0
 12 14  2  0  0  0
  9 14  1  0  0  0
  7  8  1  0  0  0
M  END
> <minimizedAffinity>
-9.27730

$$$$
2JH0_701_D_1247


 30 32  0  0  0  0  0  0  0  0999 V2000
    3.9713   20.4098   51.1368 C   0  0  0  0  0  0  0  0  0  0  0  0
    2.5137   20.6609   51.5700 C   0  0  0  0  0  0  0  0  0  0  0  0
    1.6246   19.6647   50.7973 C   0  0  0  0  0  0  0  0  0  0  0  0
    3.8366   19.6219   49.8671 C   0  0  0  0  0  0  0  0  0  0  0  0
    4.7424   19.4343   49.0589 O   0  0  0  0  0  0  0  0  0  0  0  0
    2.5890   19.1763   49.8013 N   0  0  0  0  0  0  0  0  0  0  0  0
    4.7601   21.6244   50.9884 N   0  0  0  0  0  0  0  0  0  0  0  0
    5.0512   21.6733   50.0121 H   0  0  0  0  0  0  0  0  0  0  0  0
    6.0669   21.8127   51.8723 S   0  0  0  0  0  0  0  0  0  0  0  0
    6.8540   22.8535   51.2920 O   0  0  0  0  0  0  0  0  0  0  0  0
    5.7122   22.1553   53.2296 O   0  0  0  0  0  0  0  0  0  0  0  0
    7.6876   19.8672   51.0792 C   0  0  0  0  0  0  0  0  0  0  0  0
    7.9413   20.4266   49.7108 C   0  0  0  0  0  0  0  0  0  0  0  0
    6.8960   20.4557   52.0130 C   0  0  0  0  0  0  0  0  0  0  0  0
   11.4469   15.7397   51.8029 Cl  0  0  0  0  0  0  0  0  0  0  0  0
    9.9376   16.7321   51.7931 C   0  0  0  0  0  0  0  0  0  0  0  0
    8.6854   16.3656   52.2584 C   0  0  0  0  0  0  0  0  0  0  0  0
    7.7713   17.4206   52.0576 C   0  0  0  0  0  0  0  0  0  0  0  0
    8.3254   18.5701   51.4752 C   0  0  0  0  0  0  0  0  0  0  0  0
   10.0708   18.3415   51.1359 S   0  0  0  0  0  0  0  0  0  0  0  0
    2.1363   18.2163   48.8020 C   0  0  0  0  0  0  0  0  0  0  0  0
    1.5761   16.9697   49.4937 C   0  0  0  0  0  0  0  0  0  0  0  0
    1.1586   18.8115   47.8332 C   0  0  0  0  0  0  0  0  0  0  0  0
    0.0080   18.9979   48.1998 O   0  0  0  0  0  0  0  0  0  0  0  0
    1.5968   19.1696   46.6209 N   0  0  0  0  0  0  0  0  0  0  0  0
    3.0054   19.1207   46.1971 C   0  0  0  0  0  0  0  0  0  0  0  0
    3.0327   18.3218   44.9123 C   0  0  0  0  0  0  0  0  0  0  0  0
    2.1275   18.9224   43.9807 O   0  0  0  0  0  0  0  0  0  0  0  0
    0.7853   18.7922   44.4337 C   0  0  0  0  0  0  0  0  0  0  0  0
    0.6631   19.7037   45.6386 C   0  0  0  0  0  0  0  0  0  0  0  0
 15 16  1  0  0  0
 16 17  2  0  0  0
 17 18  1  0  0  0
 18 19  2  0  0  0
 19 12  1  0  0  0
 12 13  1  0  0  0
  9 10  2  0  0  0
  9 11  2  0  0  0
  9  7  1  0  0  0
  7  1  1  0  0  0
  1  2  1  0  0  0
  2  3  1  0  0  0
  1  4  1  0  0  0
  4  5  2  0  0  0
  3  6  1  0  0  0
  4  6  1  0  0  0
  6 21  1  0  0  0
 21 22  1  0  0  0
 21 23  1  0  0  0
 23 24  2  0  0  0
 23 25  1  0  0  0
 25 26  1  0  0  0
 26 27  1  0  0  0
 27 28  1  0  0  0
 28 29  1  0  0  0
 25 30  1  0  0  0
 29 30  1  0  0  0
 16 20  1  0  0  0
 19 20  1  0  0  0
 12 14  2  0  0  0
  9 14  1  0  0  0
  7  8  1  0  0  0
M  END
> <minimizedAffinity>
-8.49691

$$$$
2JH0_701_D_1247


 30 32  0  0  0  0  0  0  0  0999 V2000
    6.5638   19.2689   50.2037 C   0  0  0  0  0  0  0  0  0  0  0  0
    6.7979   17.7468   50.2661 C   0  0  0  0  0  0  0  0  0  0  0  0
    6.0583   17.1167   49.0678 C   0  0  0  0  0  0  0  0  0  0  0  0
    5.3926   19.4131   49.2770 C   0  0  0  0  0  0  0  0  0  0  0  0
    4.7193   20.4328   49.1514 O   0  0  0  0  0  0  0  0  0  0  0  0
    5.2430   18.2613   48.6365 N   0  0  0  0  0  0  0  0  0  0  0  0
    6.3572   19.8877   51.5052 N   0  0  0  0  0  0  0  0  0  0  0  0
    5.3526   20.0289   51.6119 H   0  0  0  0  0  0  0  0  0  0  0  0
    7.0577   21.2780   51.8224 S   0  0  0  0  0  0  0  0  0  0  0  0
    6.0393   22.2385   52.1053 O   0  0  0  0  0  0  0  0  0  0  0  0
    7.9467   21.1481   52.9529 O   0  0  0  0  0  0  0  0  0  0  0  0
    9.1722   21.1957   50.2214 C   0  0  0  0  0  0  0  0  0  0  0  0
    9.7810   19.9693   50.8338 C   0  0  0  0  0  0  0  0  0  0  0  0
    8.0050   21.7575   50.6302 C   0  0  0  0  0  0  0  0  0  0  0  0
   10.6659   25.0039   46.3537 Cl  0  0  0  0  0  0  0  0  0  0  0  0
   10.5434   23.5133   47.3667 C   0  0  0  0  0  0  0  0  0  0  0  0
   11.2689   22.3409   47.2316 C   0  0  0  0  0  0  0  0  0  0  0  0
   10.8658   21.4116   48.2127 C   0  0  0  0  0  0  0  0  0  0  0  0
    9.8739   21.8792   49.0873 C   0  0  0  0  0  0  0  0  0  0  0  0
    9.3907   23.5555   48.6742 S   0  0  0  0  0  0  0  0  0  0  0  0
    4.3242   18.0833   47.5188 C   0  0  0  0  0  0  0  0  0  0  0  0
    4.6853   16.8116   46.7452 C   0  0  0  0  0  0  0  0  0  0  0  0
    2.8872   18.0942   47.9474 C   0  0  0  0  0  0  0  0  0  0  0  0
    2.5657   17.4588   48.9404 O   0  0  0  0  0  0  0  0  0  0  0  0
    2.0202   18.8460   47.2597 N   0  0  0  0  0  0  0  0  0  0  0  0
    2.3937   19.7568   46.1656 C   0  0  0  0  0  0  0  0  0  0  0  0
    1.5225   19.3810   44.9867 C   0  0  0  0  0  0  0  0  0  0  0  0
    0.1520   19.4348   45.3951 O   0  0  0  0  0  0  0  0  0  0  0  0
   -0.1226   18.4235   46.3572 C   0  0  0  0  0  0  0  0  0  0  0  0
    0.6084   18.8400   47.6181 C   0  0  0  0  0  0  0  0  0  0  0  0
 15 16  1  0  0  0
 16 17  2  0  0  0
 17 18  1  0  0  0
 18 19  2  0  0  0
 19 12  1  0  0  0
 12 13  1  0  0  0
  9 10  2  0  0  0
  9 11  2  0  0  0
  9  7  1  0  0  0
  7  1  1  0  0  0
  1  2  1  0  0  0
  2  3  1  0  0  0
  1  4  1  0  0  0
  4  5  2  0  0  0
  3  6  1  0  0  0
  4  6  1  0  0  0
  6 21  1  0  0  0
 21 22  1  0  0  0
 21 23  1  0  0  0
 23 24  2  0  0  0
 23 25  1  0  0  0
 25 26  1  0  0  0
 26 27  1  0  0  0
 27 28  1  0  0  0
 28 29  1  0  0  0
 25 30  1  0  0  0
 29 30  1  0  0  0
 16 20  1  0  0  0
 19 20  1  0  0  0
 12 14  2  0  0  0
  9 14  1  0  0  0
  7  8  1  0  0  0
M  END
> <minimizedAffinity>
-8.48711

$$$$
2JH0_701_D_1247


 30 32  0  0  0  0  0  0  0  0999 V2000
    7.1923   17.9148   49.7455 C   0  0  0  0  0  0  0  0  0  0  0  0
    6.4107   16.6897   50.2592 C   0  0  0  0  0  0  0  0  0  0  0  0
    4.9425   16.8608   49.8173 C   0  0  0  0  0  0  0  0  0  0  0  0
    6.1205   18.9149   49.4261 C   0  0  0  0  0  0  0  0  0  0  0  0
    6.3142   20.1124   49.2328 O   0  0  0  0  0  0  0  0  0  0  0  0
    4.9645   18.2659   49.3860 N   0  0  0  0  0  0  0  0  0  0  0  0
    8.1926   18.4104   50.6800 N   0  0  0  0  0  0  0  0  0  0  0  0
    7.9539   19.3806   50.8852 H   0  0  0  0  0  0  0  0  0  0  0  0
    9.7246   18.3883   50.2593 S   0  0  0  0  0  0  0  0  0  0  0  0
   10.5152   18.3635   51.4484 O   0  0  0  0  0  0  0  0  0  0  0  0
   10.0081   17.2270   49.4492 O   0  0  0  0  0  0  0  0  0  0  0  0
    9.9145   20.9447   49.5740 C   0  0  0  0  0  0  0  0  0  0  0  0
    9.3038   21.4869   50.8321 C   0  0  0  0  0  0  0  0  0  0  0  0
   10.1069   19.6237   49.3232 C   0  0  0  0  0  0  0  0  0  0  0  0
   10.3305   25.4934   46.2832 Cl  0  0  0  0  0  0  0  0  0  0  0  0
   10.5418   23.8578   47.0203 C   0  0  0  0  0  0  0  0  0  0  0  0
   11.3667   22.8357   46.5803 C   0  0  0  0  0  0  0  0  0  0  0  0
   11.2333   21.7142   47.4249 C   0  0  0  0  0  0  0  0  0  0  0  0
   10.3449   21.8923   48.4957 C   0  0  0  0  0  0  0  0  0  0  0  0
    9.6131   23.5285   48.4587 S   0  0  0  0  0  0  0  0  0  0  0  0
    3.7240   18.8736   48.9202 C   0  0  0  0  0  0  0  0  0  0  0  0
    3.5934   20.2907   49.4868 C   0  0  0  0  0  0  0  0  0  0  0  0
    3.5963   18.8492   47.4263 C   0  0  0  0  0  0  0  0  0  0  0  0
    4.5889   19.0690   46.7484 O   0  0  0  0  0  0  0  0  0  0  0  0
    2.4125   18.5308   46.8906 N   0  0  0  0  0  0  0  0  0  0  0  0
    1.2391   18.0945   47.6645 C   0  0  0  0  0  0  0  0  0  0  0  0
    0.0991   18.9993   47.2501 C   0  0  0  0  0  0  0  0  0  0  0  0
   -0.0407   18.9366   45.8272 O   0  0  0  0  0  0  0  0  0  0  0  0
    1.0954   19.5063   45.1880 C   0  0  0  0  0  0  0  0  0  0  0  0
    2.2408   18.5470   45.4442 C   0  0  0  0  0  0  0  0  0  0  0  0
 15 16  1  0  0  0
 16 17  2  0  0  0
 17 18  1  0  0  0
 18 19  2  0  0  0
 19 12  1  0  0  0
 12 13  1  0  0  0
  9 10  2  0  0  0
  9 11  2  0  0  0
  9  7  1  0  0  0
  7  1  1  0  0  0
  1  2  1  0  0  0
  2  3  1  0  0  0
  1  4  1  0  0  0
  4  5  2  0  0  0
  3  6  1  0  0  0
  4  6  1  0  0  0
  6 21  1  0  0  0
 21 22  1  0  0  0
 21 23  1  0  0  0
 23 24  2  0  0  0
 23 25  1  0  0  0
 25 26  1  0  0  0
 26 27  1  0  0  0
 27 28  1  0  0  0
 28 29  1  0  0  0
 25 30  1  0  0  0
 29 30  1  0  0  0
 16 20  1  0  0  0
 19 20  1  0  0  0
 12 14  2  0  0  0
  9 14  1  0  0  0
  7  8  1  0  0  0
M  END
> <minimizedAffinity>
-8.35335

$$$$
2JH0_701_D_1247


 30 32  0  0  0  0  0  0  0  0999 V2000
    6.6451   17.9579   50.2599 C   0  0  0  0  0  0  0  0  0  0  0  0
    6.2635   16.4761   50.4446 C   0  0  0  0  0  0  0  0  0  0  0  0
    5.3845   16.0727   49.2427 C   0  0  0  0  0  0  0  0  0  0  0  0
    5.6608   18.4568   49.2433 C   0  0  0  0  0  0  0  0  0  0  0  0
    5.4448   19.6410   48.9988 O   0  0  0  0  0  0  0  0  0  0  0  0
    5.0987   17.3983   48.6752 N   0  0  0  0  0  0  0  0  0  0  0  0
    6.6453   18.7255   51.4969 N   0  0  0  0  0  0  0  0  0  0  0  0
    6.0244   19.5219   51.3536 H   0  0  0  0  0  0  0  0  0  0  0  0
    8.0184   19.3013   52.0515 S   0  0  0  0  0  0  0  0  0  0  0  0
    7.7324   20.1410   53.1708 O   0  0  0  0  0  0  0  0  0  0  0  0
    8.8931   18.2233   52.4490 O   0  0  0  0  0  0  0  0  0  0  0  0
    8.5199   21.2583   50.3312 C   0  0  0  0  0  0  0  0  0  0  0  0
    7.3012   22.0684   50.6602 C   0  0  0  0  0  0  0  0  0  0  0  0
    8.8401   20.0797   50.9257 C   0  0  0  0  0  0  0  0  0  0  0  0
   11.0956   24.5072   46.5228 Cl  0  0  0  0  0  0  0  0  0  0  0  0
   10.6070   23.1302   47.5850 C   0  0  0  0  0  0  0  0  0  0  0  0
   11.1518   21.8571   47.6179 C   0  0  0  0  0  0  0  0  0  0  0  0
   10.4805   21.0726   48.5785 C   0  0  0  0  0  0  0  0  0  0  0  0
    9.4656   21.7449   49.2753 C   0  0  0  0  0  0  0  0  0  0  0  0
    9.3102   23.4387   48.7089 S   0  0  0  0  0  0  0  0  0  0  0  0
    4.2282   17.4865   47.5091 C   0  0  0  0  0  0  0  0  0  0  0  0
    4.3635   16.2182   46.6610 C   0  0  0  0  0  0  0  0  0  0  0  0
    2.8022   17.7710   47.8753 C   0  0  0  0  0  0  0  0  0  0  0  0
    2.3133   17.1864   48.8306 O   0  0  0  0  0  0  0  0  0  0  0  0
    2.1352   18.6973   47.1777 N   0  0  0  0  0  0  0  0  0  0  0  0
    2.7341   19.5440   46.1333 C   0  0  0  0  0  0  0  0  0  0  0  0
    1.8651   19.3790   44.9055 C   0  0  0  0  0  0  0  0  0  0  0  0
    0.5136   19.6929   45.2560 O   0  0  0  0  0  0  0  0  0  0  0  0
   -0.0018   18.7315   46.1691 C   0  0  0  0  0  0  0  0  0  0  0  0
    0.7338   18.9620   47.4743 C   0  0  0  0  0  0  0  0  0  0  0  0
 15 16  1  0  0  0
 16 17  2  0  0  0
 17 18  1  0  0  0
 18 19  2  0  0  0
 19 12  1  0  0  0
 12 13  1  0  0  0
  9 10  2  0  0  0
  9 11  2  0  0  0
  9  7  1  0  0  0
  7  1  1  0  0  0
  1  2  1  0  0  0
  2  3  1  0  0  0
  1  4  1  0  0  0
  4  5  2  0  0  0
  3  6  1  0  0  0
  4  6  1  0  0  0
  6 21  1  0  0  0
 21 22  1  0  0  0
 21 23  1  0  0  0
 23 24  2  0  0  0
 23 25  1  0  0  0
 25 26  1  0  0  0
 26 27  1  0  0  0
 27 28  1  0  0  0
 28 29  1  0  0  0
 25 30  1  0  0  0
 29 30  1  0  0  0
 16 20  1  0  0  0
 19 20  1  0  0  0
 12 14  2  0  0  0
  9 14  1  0  0  0
  7  8  1  0  0  0
M  END
> <minimizedAffinity>
-8.13918

$$$$
2JH0_701_D_1247


 30 32  0  0  0  0  0  0  0  0999 V2000
    6.3451   18.7288   50.1359 C   0  0  0  0  0  0  0  0  0  0  0  0
    5.9937   20.0844   49.4921 C   0  0  0  0  0  0  0  0  0  0  0  0
    4.4553   20.1976   49.4659 C   0  0  0  0  0  0  0  0  0  0  0  0
    5.0635   17.9526   50.0581 C   0  0  0  0  0  0  0  0  0  0  0  0
    4.9675   16.7393   50.2236 O   0  0  0  0  0  0  0  0  0  0  0  0
    4.0886   18.8124   49.7940 N   0  0  0  0  0  0  0  0  0  0  0  0
    7.4741   18.0543   49.5113 N   0  0  0  0  0  0  0  0  0  0  0  0
    7.3620   17.0566   49.6914 H   0  0  0  0  0  0  0  0  0  0  0  0
    8.9500   18.4428   49.9530 S   0  0  0  0  0  0  0  0  0  0  0  0
    8.9365   18.7374   51.3503 O   0  0  0  0  0  0  0  0  0  0  0  0
    9.8598   17.3543   49.6829 O   0  0  0  0  0  0  0  0  0  0  0  0
    9.6624   20.9560   49.4873 C   0  0  0  0  0  0  0  0  0  0  0  0
    9.2891   21.4755   50.8439 C   0  0  0  0  0  0  0  0  0  0  0  0
    9.5299   19.6610   49.0996 C   0  0  0  0  0  0  0  0  0  0  0  0
   10.5438   25.5451   46.3478 Cl  0  0  0  0  0  0  0  0  0  0  0  0
   10.6140   23.8836   47.0532 C   0  0  0  0  0  0  0  0  0  0  0  0
   11.4038   22.8244   46.6371 C   0  0  0  0  0  0  0  0  0  0  0  0
   11.1537   21.6941   47.4424 C   0  0  0  0  0  0  0  0  0  0  0  0
   10.2127   21.9005   48.4621 C   0  0  0  0  0  0  0  0  0  0  0  0
    9.5808   23.5777   48.4239 S   0  0  0  0  0  0  0  0  0  0  0  0
    2.6762   18.4531   49.8304 C   0  0  0  0  0  0  0  0  0  0  0  0
    1.8889   19.5138   50.6059 C   0  0  0  0  0  0  0  0  0  0  0  0
    2.1072   18.2151   48.4636 C   0  0  0  0  0  0  0  0  0  0  0  0
    2.0973   19.1380   47.6627 O   0  0  0  0  0  0  0  0  0  0  0  0
    1.6836   16.9849   48.1524 N   0  0  0  0  0  0  0  0  0  0  0  0
    1.8325   15.8082   49.0238 C   0  0  0  0  0  0  0  0  0  0  0  0
    0.4510   15.2060   49.1605 C   0  0  0  0  0  0  0  0  0  0  0  0
   -0.0658   14.9446   47.8518 O   0  0  0  0  0  0  0  0  0  0  0  0
   -0.2932   16.1622   47.1522 C   0  0  0  0  0  0  0  0  0  0  0  0
    1.0793   16.7312   46.8515 C   0  0  0  0  0  0  0  0  0  0  0  0
 15 16  1  0  0  0
 16 17  2  0  0  0
 17 18  1  0  0  0
 18 19  2  0  0  0
 19 12  1  0  0  0
 12 13  1  0  0  0
  9 10  2  0  0  0
  9 11  2  0  0  0
  9  7  1  0  0  0
  7  1  1  0  0  0
  1  2  1  0  0  0
  2  3  1  0  0  0
  1  4  1  0  0  0
  4  5  2  0  0  0
  3  6  1  0  0  0
  4  6  1  0  0  0
  6 21  1  0  0  0
 21 22  1  0  0  0
 21 23  1  0  0  0
 23 24  2  0  0  0
 23 25  1  0  0  0
 25 26  1  0  0  0
 26 27  1  0  0  0
 27 28  1  0  0  0
 28 29  1  0  0  0
 25 30  1  0  0  0
 29 30  1  0  0  0
 16 20  1  0  0  0
 19 20  1  0  0  0
 12 14  2  0  0  0
  9 14  1  0  0  0
  7  8  1  0  0  0
M  END
> <minimizedAffinity>
-8.08030

$$$$
2JH0_701_D_1247


 30 32  0  0  0  0  0  0  0  0999 V2000
    3.5959   20.2637   50.8511 C   0  0  0  0  0  0  0  0  0  0  0  0
    2.0890   20.4579   51.1103 C   0  0  0  0  0  0  0  0  0  0  0  0
    1.3289   19.6982   50.0034 C   0  0  0  0  0  0  0  0  0  0  0  0
    3.6567   19.7956   49.4269 C   0  0  0  0  0  0  0  0  0  0  0  0
    4.6750   19.7689   48.7406 O   0  0  0  0  0  0  0  0  0  0  0  0
    2.4342   19.4204   49.0749 N   0  0  0  0  0  0  0  0  0  0  0  0
    4.3965   21.4520   51.1090 N   0  0  0  0  0  0  0  0  0  0  0  0
    4.6076   21.8714   50.2035 H   0  0  0  0  0  0  0  0  0  0  0  0
    5.7752   21.3043   51.8848 S   0  0  0  0  0  0  0  0  0  0  0  0
    5.8224   22.2997   52.9077 O   0  0  0  0  0  0  0  0  0  0  0  0
    5.8875   19.9874   52.4667 O   0  0  0  0  0  0  0  0  0  0  0  0
    8.2943   21.7959   51.2117 C   0  0  0  0  0  0  0  0  0  0  0  0
    8.7473   22.1873   52.5870 C   0  0  0  0  0  0  0  0  0  0  0  0
    7.0296   21.4086   50.9028 C   0  0  0  0  0  0  0  0  0  0  0  0
   11.1647   23.4339   46.6542 Cl  0  0  0  0  0  0  0  0  0  0  0  0
   10.5370   22.5041   48.0701 C   0  0  0  0  0  0  0  0  0  0  0  0
   10.9294   21.2442   48.4915 C   0  0  0  0  0  0  0  0  0  0  0  0
   10.1880   20.8668   49.6303 C   0  0  0  0  0  0  0  0  0  0  0  0
    9.2715   21.8306   50.0760 C   0  0  0  0  0  0  0  0  0  0  0  0
    9.3056   23.2840   49.0269 S   0  0  0  0  0  0  0  0  0  0  0  0
    2.1397   18.7333   47.8234 C   0  0  0  0  0  0  0  0  0  0  0  0
    3.0255   19.2882   46.7037 C   0  0  0  0  0  0  0  0  0  0  0  0
    2.2512   17.2428   47.9448 C   0  0  0  0  0  0  0  0  0  0  0  0
    3.2464   16.7693   48.4727 O   0  0  0  0  0  0  0  0  0  0  0  0
    1.2305   16.4884   47.5221 N   0  0  0  0  0  0  0  0  0  0  0  0
   -0.0533   17.0209   47.0379 C   0  0  0  0  0  0  0  0  0  0  0  0
   -0.2856   16.3948   45.6801 C   0  0  0  0  0  0  0  0  0  0  0  0
   -0.2182   14.9716   45.8149 O   0  0  0  0  0  0  0  0  0  0  0  0
    1.1014   14.5642   46.1562 C   0  0  0  0  0  0  0  0  0  0  0  0
    1.3271   15.0361   47.5789 C   0  0  0  0  0  0  0  0  0  0  0  0
 15 16  1  0  0  0
 16 17  2  0  0  0
 17 18  1  0  0  0
 18 19  2  0  0  0
 19 12  1  0  0  0
 12 13  1  0  0  0
  9 10  2  0  0  0
  9 11  2  0  0  0
  9  7  1  0  0  0
  7  1  1  0  0  0
  1  2  1  0  0  0
  2  3  1  0  0  0
  1  4  1  0  0  0
  4  5  2  0  0  0
  3  6  1  0  0  0
  4  6  1  0  0  0
  6 21  1  0  0  0
 21 22  1  0  0  0
 21 23  1  0  0  0
 23 24  2  0  0  0
 23 25  1  0  0  0
 25 26  1  0  0  0
 26 27  1  0  0  0
 27 28  1  0  0  0
 28 29  1  0  0  0
 25 30  1  0  0  0
 29 30  1  0  0  0
 16 20  1  0  0  0
 19 20  1  0  0  0
 12 14  2  0  0  0
  9 14  1  0  0  0
  7  8  1  0  0  0
M  END
> <minimizedAffinity>
-7.89479

$$$$
2JH0_701_D_1247


 30 32  0  0  0  0  0  0  0  0999 V2000
    6.2376   16.6639   51.0736 C   0  0  0  0  0  0  0  0  0  0  0  0
    7.0297   16.4201   52.3730 C   0  0  0  0  0  0  0  0  0  0  0  0
    7.5885   17.7818   52.8351 C   0  0  0  0  0  0  0  0  0  0  0  0
    6.7123   18.0105   50.6125 C   0  0  0  0  0  0  0  0  0  0  0  0
    6.5295   18.4713   49.4886 O   0  0  0  0  0  0  0  0  0  0  0  0
    7.3378   18.5862   51.6306 N   0  0  0  0  0  0  0  0  0  0  0  0
    6.4018   15.6152   50.0772 N   0  0  0  0  0  0  0  0  0  0  0  0
    6.9369   16.0168   49.3073 H   0  0  0  0  0  0  0  0  0  0  0  0
    5.1111   14.9399   49.4428 S   0  0  0  0  0  0  0  0  0  0  0  0
    5.5347   13.8637   48.6050 O   0  0  0  0  0  0  0  0  0  0  0  0
    4.2378   14.4471   50.4820 O   0  0  0  0  0  0  0  0  0  0  0  0
    4.4360   16.4918   47.3992 C   0  0  0  0  0  0  0  0  0  0  0  0
    5.5933   16.1079   46.5257 C   0  0  0  0  0  0  0  0  0  0  0  0
    4.2159   15.9922   48.6430 C   0  0  0  0  0  0  0  0  0  0  0  0
    1.5263   19.9599   44.0527 Cl  0  0  0  0  0  0  0  0  0  0  0  0
    2.1567   19.0421   45.4751 C   0  0  0  0  0  0  0  0  0  0  0  0
    1.7431   19.1430   46.7933 C   0  0  0  0  0  0  0  0  0  0  0  0
    2.4950   18.2645   47.6006 C   0  0  0  0  0  0  0  0  0  0  0  0
    3.4406   17.4971   46.9045 C   0  0  0  0  0  0  0  0  0  0  0  0
    3.4216   17.8858   45.1545 S   0  0  0  0  0  0  0  0  0  0  0  0
    7.7710   19.9781   51.6170 C   0  0  0  0  0  0  0  0  0  0  0  0
    7.8496   20.5131   53.0500 C   0  0  0  0  0  0  0  0  0  0  0  0
    9.0566   20.1737   50.8702 C   0  0  0  0  0  0  0  0  0  0  0  0
   10.0080   19.4562   51.1409 O   0  0  0  0  0  0  0  0  0  0  0  0
    9.0971   21.0886   49.8950 N   0  0  0  0  0  0  0  0  0  0  0  0
    7.9318   21.8535   49.4225 C   0  0  0  0  0  0  0  0  0  0  0  0
    8.3276   23.3124   49.4916 C   0  0  0  0  0  0  0  0  0  0  0  0
    9.5326   23.4957   48.7417 O   0  0  0  0  0  0  0  0  0  0  0  0
   10.6172   22.8191   49.3659 C   0  0  0  0  0  0  0  0  0  0  0  0
   10.3436   21.3393   49.1842 C   0  0  0  0  0  0  0  0  0  0  0  0
 15 16  1  0  0  0
 16 17  2  0  0  0
 17 18  1  0  0  0
 18 19  2  0  0  0
 19 12  1  0  0  0
 12 13  1  0  0  0
  9 10  2  0  0  0
  9 11  2  0  0  0
  9  7  1  0  0  0
  7  1  1  0  0  0
  1  2  1  0  0  0
  2  3  1  0  0  0
  1  4  1  0  0  0
  4  5  2  0  0  0
  3  6  1  0  0  0
  4  6  1  0  0  0
  6 21  1  0  0  0
 21 22  1  0  0  0
 21 23  1  0  0  0
 23 24  2  0  0  0
 23 25  1  0  0  0
 25 26  1  0  0  0
 26 27  1  0  0  0
 27 28  1  0  0  0
 28 29  1  0  0  0
 25 30  1  0  0  0
 29 30  1  0  0  0
 16 20  1  0  0  0
 19 20  1  0  0  0
 12 14  2  0  0  0
  9 14  1  0  0  0
  7  8  1  0  0  0
M  END
> <minimizedAffinity>
-7.50479

$$$$
2JH0_701_D_1247


 30 32  0  0  0  0  0  0  0  0999 V2000
    5.2585   19.9119   51.1837 C   0  0  0  0  0  0  0  0  0  0  0  0
    4.7208   21.1353   50.4158 C   0  0  0  0  0  0  0  0  0  0  0  0
    3.6610   20.6244   49.4178 C   0  0  0  0  0  0  0  0  0  0  0  0
    4.8362   18.7456   50.3395 C   0  0  0  0  0  0  0  0  0  0  0  0
    5.2774   17.6045   50.4492 O   0  0  0  0  0  0  0  0  0  0  0  0
    3.9159   19.1784   49.4880 N   0  0  0  0  0  0  0  0  0  0  0  0
    6.6910   19.9587   51.4388 N   0  0  0  0  0  0  0  0  0  0  0  0
    6.8736   19.3387   52.2279 H   0  0  0  0  0  0  0  0  0  0  0  0
    7.3729   21.3533   51.7769 S   0  0  0  0  0  0  0  0  0  0  0  0
    6.3477   22.2738   52.1526 O   0  0  0  0  0  0  0  0  0  0  0  0
    8.3239   21.2017   52.8529 O   0  0  0  0  0  0  0  0  0  0  0  0
    9.3025   21.3055   49.9561 C   0  0  0  0  0  0  0  0  0  0  0  0
    9.8416   19.9592   50.3387 C   0  0  0  0  0  0  0  0  0  0  0  0
    8.2432   21.9060   50.5579 C   0  0  0  0  0  0  0  0  0  0  0  0
   10.5586   25.3517   46.2489 Cl  0  0  0  0  0  0  0  0  0  0  0  0
   10.5225   23.8134   47.1951 C   0  0  0  0  0  0  0  0  0  0  0  0
   11.3036   22.6861   47.0003 C   0  0  0  0  0  0  0  0  0  0  0  0
   10.9591   21.6950   47.9426 C   0  0  0  0  0  0  0  0  0  0  0  0
    9.9557   22.0731   48.8470 C   0  0  0  0  0  0  0  0  0  0  0  0
    9.3850   23.7397   48.5143 S   0  0  0  0  0  0  0  0  0  0  0  0
    3.1371   18.2891   48.6349 C   0  0  0  0  0  0  0  0  0  0  0  0
    1.7484   18.8870   48.3894 C   0  0  0  0  0  0  0  0  0  0  0  0
    3.8425   17.9561   47.3542 C   0  0  0  0  0  0  0  0  0  0  0  0
    4.4980   18.8266   46.8012 O   0  0  0  0  0  0  0  0  0  0  0  0
    3.7750   16.7017   46.8942 N   0  0  0  0  0  0  0  0  0  0  0  0
    3.1412   15.5847   47.6129 C   0  0  0  0  0  0  0  0  0  0  0  0
    2.1515   14.9686   46.6481 C   0  0  0  0  0  0  0  0  0  0  0  0
    2.8431   14.6168   45.4457 O   0  0  0  0  0  0  0  0  0  0  0  0
    3.2954   15.7840   44.7698 C   0  0  0  0  0  0  0  0  0  0  0  0
    4.4063   16.3566   45.6276 C   0  0  0  0  0  0  0  0  0  0  0  0
 15 16  1  0  0  0
 16 17  2  0  0  0
 17 18  1  0  0  0
 18 19  2  0  0  0
 19 12  1  0  0  0
 12 13  1  0  0  0
  9 10  2  0  0  0
  9 11  2  0  0  0
  9  7  1  0  0  0
  7  1  1  0  0  0
  1  2  1  0  0  0
  2  3  1  0  0  0
  1  4  1  0  0  0
  4  5  2  0  0  0
  3  6  1  0  0  0
  4  6  1  0  0  0
  6 21  1  0  0  0
 21 22  1  0  0  0
 21 23  1  0  0  0
 23 24  2  0  0  0
 23 25  1  0  0  0
 25 26  1  0  0  0
 26 27  1  0  0  0
 27 28  1  0  0  0
 28 29  1  0  0  0
 25 30  1  0  0  0
 29 30  1  0  0  0
 16 20  1  0  0  0
 19 20  1  0  0  0
 12 14  2  0  0  0
  9 14  1  0  0  0
  7  8  1  0  0  0
M  END
> <minimizedAffinity>
-7.47784

$$$$
2JH0_701_D_1247


 30 32  0  0  0  0  0  0  0  0999 V2000
    7.5210   17.2400   49.6974 C   0  0  0  0  0  0  0  0  0  0  0  0
    6.6537   16.0642   50.1883 C   0  0  0  0  0  0  0  0  0  0  0  0
    5.2594   16.2201   49.5466 C   0  0  0  0  0  0  0  0  0  0  0  0
    6.5210   18.2269   49.1710 C   0  0  0  0  0  0  0  0  0  0  0  0
    6.7632   19.4051   48.9217 O   0  0  0  0  0  0  0  0  0  0  0  0
    5.3667   17.5901   49.0249 N   0  0  0  0  0  0  0  0  0  0  0  0
    8.4013   17.7899   50.7182 N   0  0  0  0  0  0  0  0  0  0  0  0
    8.0499   18.7202   50.9451 H   0  0  0  0  0  0  0  0  0  0  0  0
    9.9513   17.9430   50.4046 S   0  0  0  0  0  0  0  0  0  0  0  0
   10.6578   17.9798   51.6452 O   0  0  0  0  0  0  0  0  0  0  0  0
   10.4145   16.8361   49.6011 O   0  0  0  0  0  0  0  0  0  0  0  0
    9.9264   20.5215   49.7792 C   0  0  0  0  0  0  0  0  0  0  0  0
    9.2045   20.9723   51.0143 C   0  0  0  0  0  0  0  0  0  0  0  0
   10.2580   19.2314   49.5133 C   0  0  0  0  0  0  0  0  0  0  0  0
   10.0423   25.1530   46.5810 Cl  0  0  0  0  0  0  0  0  0  0  0  0
   10.3863   23.5359   47.3087 C   0  0  0  0  0  0  0  0  0  0  0  0
   11.3442   22.6187   46.9088 C   0  0  0  0  0  0  0  0  0  0  0  0
   11.2829   21.4728   47.7286 C   0  0  0  0  0  0  0  0  0  0  0  0
   10.3158   21.5317   48.7429 C   0  0  0  0  0  0  0  0  0  0  0  0
    9.4122   23.0788   48.6806 S   0  0  0  0  0  0  0  0  0  0  0  0
    4.2103   18.1771   48.3589 C   0  0  0  0  0  0  0  0  0  0  0  0
    3.9640   17.4696   47.0229 C   0  0  0  0  0  0  0  0  0  0  0  0
    2.9879   18.1843   49.2275 C   0  0  0  0  0  0  0  0  0  0  0  0
    2.1295   17.3350   49.0403 O   0  0  0  0  0  0  0  0  0  0  0  0
    2.9089   19.0852   50.2132 N   0  0  0  0  0  0  0  0  0  0  0  0
    3.9905   20.0130   50.5815 C   0  0  0  0  0  0  0  0  0  0  0  0
    3.3818   21.3983   50.5684 C   0  0  0  0  0  0  0  0  0  0  0  0
    2.2409   21.4050   51.4323 O   0  0  0  0  0  0  0  0  0  0  0  0
    1.2113   20.5761   50.9064 C   0  0  0  0  0  0  0  0  0  0  0  0
    1.7135   19.1525   51.0430 C   0  0  0  0  0  0  0  0  0  0  0  0
 15 16  1  0  0  0
 16 17  2  0  0  0
 17 18  1  0  0  0
 18 19  2  0  0  0
 19 12  1  0  0  0
 12 13  1  0  0  0
  9 10  2  0  0  0
  9 11  2  0  0  0
  9  7  1  0  0  0
  7  1  1  0  0  0
  1  2  1  0  0  0
  2  3  1  0  0  0
  1  4  1  0  0  0
  4  5  2  0  0  0
  3  6  1  0  0  0
  4  6  1  0  0  0
  6 21  1  0  0  0
 21 22  1  0  0  0
 21 23  1  0  0  0
 23 24  2  0  0  0
 23 25  1  0  0  0
 25 26  1  0  0  0
 26 27  1  0  0  0
 27 28  1  0  0  0
 28 29  1  0  0  0
 25 30  1  0  0  0
 29 30  1  0  0  0
 16 20  1  0  0  0
 19 20  1  0  0  0
 12 14  2  0  0  0
  9 14  1  0  0  0
  7  8  1  0  0  0
M  END
> <minimizedAffinity>
-7.46309

$$$$
