3EKW_DR7_B_100
  RCSB PDB12061708283D
Coordinates from PDB:3EKW:B:100 Model:1 without hydrogens
 51 53  0  0  0  0            999 V2000
   19.3190   -7.8330   12.8360   C 0  0  0  0  0  0  0  0  0  0  0  0
   18.9930   -7.1120   14.0200   O 0  0  0  0  0  0  0  0  0  0  0  0
   18.4750   -5.7640   13.9370   C 0  0  0  0  0  0  0  0  0  0  0  0
   18.2640   -5.2580   12.8500   O 0  0  0  0  0  0  0  0  0  0  0  0
   18.3000   -5.1930   15.1260   N 0  0  0  0  0  0  0  0  0  0  0  0
   17.8120   -3.8430   15.3150   C 0  0  0  0  0  0  0  0  0  0  0  0
   16.3850   -3.9150   15.8650   C 0  0  0  0  0  0  0  0  0  0  0  0
   15.8930   -2.4910   16.1470   C 0  0  0  0  0  0  0  0  0  0  0  0
   16.2240   -4.7700   17.1100   C 0  0  0  0  0  0  0  0  0  0  0  0
   15.5180   -4.5440   14.7740   C 0  0  0  0  0  0  0  0  0  0  0  0
   18.7900   -3.0730   16.1490   C 0  0  0  0  0  0  0  0  0  0  0  0
   18.7930   -3.2150   17.3560   O 0  0  0  0  0  0  0  0  0  0  0  0
   19.6300   -2.2900   15.4630   N 0  0  0  0  0  0  0  0  0  0  0  0
   20.6820   -1.4960   16.1010   C 0  0  0  0  0  0  0  0  0  0  0  0
   22.0030   -1.9820   15.5050   C 0  0  0  0  0  0  0  0  0  0  0  0
   22.1500   -3.4810   15.6440   C 0  0  0  0  0  0  0  0  0  0  0  0
   22.0360   -4.3080   14.5320   C 0  0  0  0  0  0  0  0  0  0  0  0
   22.1670   -5.6920   14.6890   C 0  0  0  0  0  0  0  0  0  0  0  0
   22.4000   -6.2290   15.9540   C 0  0  0  0  0  0  0  0  0  0  0  0
   22.5300   -5.3930   17.0510   C 0  0  0  0  0  0  0  0  0  0  0  0
   22.4000   -4.0170   16.8930   C 0  0  0  0  0  0  0  0  0  0  0  0
   20.4870    0.0090   15.8510   C 0  0  0  0  0  0  0  0  0  0  0  0
   20.2750    0.2930   14.4800   O 0  0  0  0  0  0  0  0  0  0  0  0
   19.3260    0.6010   16.6560   C 0  0  0  0  0  0  0  0  0  0  0  0
   19.6860    0.5800   18.0650   N 0  0  0  0  0  0  0  0  0  0  0  0
   20.6860    1.4000   18.3750   N 0  0  0  0  0  0  0  0  0  0  0  0
   21.5100    1.1170   19.3700   C 0  0  0  0  0  0  0  0  0  0  0  0
   21.4140    0.1240   20.0760   O 0  0  0  0  0  0  0  0  0  0  0  0
   22.5720    2.1520   19.6150   C 0  0  0  0  0  0  0  0  0  0  0  0
   23.9900    1.5960   19.8000   C 0  0  0  0  0  0  0  0  0  0  0  0
   24.9350    2.7980   19.8040   C 0  0  0  0  0  0  0  0  0  0  0  0
   24.2910    0.7100   18.5990   C 0  0  0  0  0  0  0  0  0  0  0  0
   24.1930    0.8520   21.1160   C 0  0  0  0  0  0  0  0  0  0  0  0
   22.1420    2.9100   20.7580   N 0  0  0  0  0  0  0  0  0  0  0  0
   22.0020    4.2300   20.7810   C 0  0  0  0  0  0  0  0  0  0  0  0
   22.2160    5.0000   19.8530   O 0  0  0  0  0  0  0  0  0  0  0  0
   21.5540    4.7060   22.0670   O 0  0  0  0  0  0  0  0  0  0  0  0
   21.2360    6.0960   22.1590   C 0  0  0  0  0  0  0  0  0  0  0  0
   18.5180    0.6790   18.9270   C 0  0  0  0  0  0  0  0  0  0  0  0
   18.2600    2.0190   19.5800   C 0  0  0  0  0  0  0  0  0  0  0  0
   18.2730    1.9910   20.9090   C 0  0  0  0  0  0  0  0  0  0  0  0
   18.0480    3.1120   21.5590   C 0  0  0  0  0  0  0  0  0  0  0  0
   18.0210    3.1160   18.9970   C 0  0  0  0  0  0  0  0  0  0  0  0
   17.8060    4.1380   19.5900   C 0  0  0  0  0  0  0  0  0  0  0  0
   17.8200    4.2250   20.8540   C 0  0  0  0  0  0  0  0  0  0  0  0
   17.5210    5.4710   21.6480   C 0  0  0  0  0  0  0  0  0  0  0  0
   18.0060    5.6400   22.9470   C 0  0  0  0  0  0  0  0  0  0  0  0
   17.6850    6.7810   23.6650   C 0  0  0  0  0  0  0  0  0  0  0  0
   16.8570    7.7300   23.0840   C 0  0  0  0  0  0  0  0  0  0  0  0
   16.3730    7.5190   21.8000   C 0  0  0  0  0  0  0  0  0  0  0  0
   16.6990    6.4090   21.1180   N 0  0  0  0  0  0  0  0  0  0  0  0
  1  2  1  0  0  0  0
  2  3  1  0  0  0  0
  3  4  2  0  0  0  0
  3  5  1  0  0  0  0
  5  6  1  0  0  0  0
  6  7  1  0  0  0  0
  6 11  1  0  0  0  0
  7  8  1  0  0  0  0
  7  9  1  0  0  0  0
  7 10  1  0  0  0  0
 11 12  2  0  0  0  0
 11 13  1  0  0  0  0
 13 14  1  0  0  0  0
 14 15  1  0  0  0  0
 14 22  1  0  0  0  0
 15 16  1  0  0  0  0
 16 17  2  0  0  0  0
 16 21  1  0  0  0  0
 17 18  1  0  0  0  0
 18 19  2  0  0  0  0
 19 20  1  0  0  0  0
 20 21  2  0  0  0  0
 22 23  1  0  0  0  0
 22 24  1  0  0  0  0
 24 25  1  0  0  0  0
 25 26  1  0  0  0  0
 25 39  1  0  0  0  0
 26 27  1  0  0  0  0
 27 28  2  0  0  0  0
 27 29  1  0  0  0  0
 29 30  1  0  0  0  0
 29 34  1  0  0  0  0
 30 31  1  0  0  0  0
 30 32  1  0  0  0  0
 30 33  1  0  0  0  0
 34 35  1  0  0  0  0
 35 36  2  0  0  0  0
 35 37  1  0  0  0  0
 37 38  1  0  0  0  0
 39 40  1  0  0  0  0
 40 41  1  0  0  0  0
 40 43  2  0  0  0  0
 41 42  2  0  0  0  0
 42 45  1  0  0  0  0
 43 44  1  0  0  0  0
 44 45  2  0  0  0  0
 45 46  1  0  0  0  0
 46 47  1  0  0  0  0
 46 51  2  0  0  0  0
 47 48  2  0  0  0  0
 48 49  1  0  0  0  0
 49 50  2  0  0  0  0
 50 51  1  0  0  0  0
A    1
CAA
A    2
OBI
A    3
CBK
A    4
OAI
A    5
N
A    6
CA
A    7
CB
A    8
CAE
A    9
CG2
A   10
CG1
A   11
C
A   12
O
A   13
NBG
A   14
CBT
A   15
CBA
A   16
CBO
A   17
CAT
A   18
CAP
A   19
CAN
A   20
CAQ
A   21
CAU
A   22
CBS
A   23
OAM
A   24
CBC
A   25
NBW
A   26
NBH
A   27
CBN
A   28
OAL
A   29
CBV
A   30
CBY
A   31
CAH
A   32
CAF
A   33
CAG
A   34
NBF
A   35
CBL
A   36
OAJ
A   37
OBJ
A   38
CAB
A   39
CBB
A   40
CBP
A   41
CAW
A   42
CAY
A   43
CAX
A   44
CAZ
A   45
CBQ
A   46
CBR
A   47
CAV
A   48
CAR
A   49
CAO
A   50
CAS
A   51
NBD
M  END
>  <InstanceId>
3EKW_DR7_B_100

>  <ChemCompId>
DR7

>  <PdbId>
3EKW

>  <ChainId>
B

>  <ResidueNumber>
100

>  <InsertionCode>


>  <Model>
1

>  <AltIds>


>  <MissingHeavyAtoms>
0

>  <ObservedFormula>
C38 N6 O7

>  <Name>
(3S,8S,9S,12S)-3,12-BIS(1,1-DIMETHYLETHYL)-8-HYDROXY-4,11-DIOXO-9-(PHENYLMETHYL)-6-[[4-(2-PYRIDINYL)PHENYL]METHYL]-2,5,6,10,13-PENTAAZATETRADECANEDIOIC ACID DIMETHYL ESTER

>  <SystematicName>
methyl N-[(2S)-1-[[(2S,3S)-3-hydroxy-4-[[[(2S)-2-(methoxycarbonylamino)-3,3-dimethyl-butanoyl]amino]-[(4-pyridin-2-ylphenyl)methyl]amino]-1-phenyl-butan-2-yl]amino]-3,3-dimethyl-1-oxo-butan-2-yl]carbamate

>  <Synonyms>
ATAZANAVIR; METHYL [(1S,4S,5S,10S)-4-BENZYL-1,10-DI-TERT-BUTYL-5-HYDROXY-2,9,12-TRIOXO-7-(4-PYRIDIN-2-YLBENZYL)-13-OXA-3,7,8,11-TETRAAZATETRADEC-1-YL]CARBAMATE

>  <Type>
NON-POLYMER

>  <Formula>
C38 H52 N6 O7

>  <MolecularWeight>
704.855

>  <ModifiedDate>
2011-06-04

>  <Parent>


>  <OneLetterCode>


>  <SubcomponentList>


>  <AmbiguousFlag>
N

>  <InChI>
InChI=1S/C38H52N6O7/c1-37(2,3)31(41-35(48)50-7)33(46)40-29(22-25-14-10-9-11-15-25)30(45)24-44(43-34(47)32(38(4,5)6)42-36(49)51-8)23-26-17-19-27(20-18-26)28-16-12-13-21-39-28/h9-21,29-32,45H,22-24H2,1-8H3,(H,40,46)(H,41,48)(H,42,49)(H,43,47)/t29-,30-,31+,32+/m0/s1

>  <InChIKey>
AXRYRYVKAWYZBR-GASGPIRDSA-N

>  <SMILES>
CC(C)(C)[C@@H](C(=O)N[C@@H](Cc1ccccc1)[C@H](CN(Cc2ccc(cc2)c3ccccn3)NC(=O)[C@H](C(C)(C)C)NC(=O)OC)O)NC(=O)OC

$$$$
