3EKW_DR7_B_100


 56 58  0  0  0  0  0  0  0  0999 V2000
   19.9652    0.2319   18.2563 N   0  0  0  0  0  0  0  0  0  0  0  0
   20.9224    1.1349   18.4478 N   0  0  0  0  0  0  0  0  0  0  0  0
   21.9115    0.9039   19.2949 C   0  0  0  0  0  0  0  0  0  0  0  0
   22.0152   -0.1136   19.9639 O   0  0  0  0  0  0  0  0  0  0  0  0
   20.8945    1.9856   17.9531 H   0  0  0  0  0  0  0  0  0  0  0  0
   22.9002    2.0287   19.4222 C   0  0  0  0  0  0  0  0  0  0  0  0
   22.4808    2.8100   20.5534 N   0  0  0  0  0  0  0  0  0  0  0  0
   22.0040    4.0470   20.4833 C   0  0  0  0  0  0  0  0  0  0  0  0
   21.8515    4.7107   19.4653 O   0  0  0  0  0  0  0  0  0  0  0  0
   22.5521    2.3979   21.4447 H   0  0  0  0  0  0  0  0  0  0  0  0
   21.6653    4.5727   21.7833 O   0  0  0  0  0  0  0  0  0  0  0  0
   21.0410    5.8577   21.8105 C   0  0  0  0  0  0  0  0  0  0  0  0
   24.3667    1.5936   19.5419 C   0  0  0  0  0  0  0  0  0  0  0  0
   25.2146    2.8493   19.3366 C   0  0  0  0  0  0  0  0  0  0  0  0
   24.6391    0.6009   18.4201 C   0  0  0  0  0  0  0  0  0  0  0  0
   24.7286    1.0171   20.9069 C   0  0  0  0  0  0  0  0  0  0  0  0
   19.4657    0.1877   16.8911 C   0  0  0  0  0  0  0  0  0  0  0  0
   20.5741   -0.3618   15.9877 C   0  0  0  0  0  0  0  0  0  0  0  0
   20.3657    0.1233   14.6738 O   0  0  0  0  0  0  0  0  0  0  0  0
   19.5096   -0.1923   14.3446 H   0  0  0  0  0  0  0  0  0  0  0  0
   20.6691   -1.8964   16.0237 C   0  0  0  0  0  0  0  0  0  0  0  0
   18.6447   -3.3001   16.0103 C   0  0  0  0  0  0  0  0  0  0  0  0
   18.6874   -3.5697   17.1946 O   0  0  0  0  0  0  0  0  0  0  0  0
   19.5220   -2.5240   15.3645 N   0  0  0  0  0  0  0  0  0  0  0  0
   19.3905   -2.3674   14.4014 H   0  0  0  0  0  0  0  0  0  0  0  0
   17.5648   -3.8894   15.1550 C   0  0  0  0  0  0  0  0  0  0  0  0
   18.2690   -5.8668   13.8811 C   0  0  0  0  0  0  0  0  0  0  0  0
   18.5708   -5.2913   12.8516 O   0  0  0  0  0  0  0  0  0  0  0  0
   17.8001   -5.3090   14.9944 N   0  0  0  0  0  0  0  0  0  0  0  0
   17.6005   -5.8987   15.7570 H   0  0  0  0  0  0  0  0  0  0  0  0
   19.3122   -7.9900   13.1008 C   0  0  0  0  0  0  0  0  0  0  0  0
   18.4344   -7.3000   13.9847 O   0  0  0  0  0  0  0  0  0  0  0  0
   16.1344   -3.6885   15.6623 C   0  0  0  0  0  0  0  0  0  0  0  0
   15.9209   -2.1999   15.9584 C   0  0  0  0  0  0  0  0  0  0  0  0
   15.7699   -4.5128   16.8849 C   0  0  0  0  0  0  0  0  0  0  0  0
   15.1967   -4.1205   14.5346 C   0  0  0  0  0  0  0  0  0  0  0  0
   21.9096   -2.3845   15.2756 C   0  0  0  0  0  0  0  0  0  0  0  0
   22.1065   -3.8739   15.4512 C   0  0  0  0  0  0  0  0  0  0  0  0
   22.0452   -4.7284   14.3560 C   0  0  0  0  0  0  0  0  0  0  0  0
   22.2217   -6.1031   14.5466 C   0  0  0  0  0  0  0  0  0  0  0  0
   22.4470   -6.6038   15.8278 C   0  0  0  0  0  0  0  0  0  0  0  0
   22.5243   -5.7400   16.9082 C   0  0  0  0  0  0  0  0  0  0  0  0
   22.3491   -4.3733   16.7167 C   0  0  0  0  0  0  0  0  0  0  0  0
   18.8850    0.2626   19.2306 C   0  0  0  0  0  0  0  0  0  0  0  0
   18.3497    1.6236   19.6173 C   0  0  0  0  0  0  0  0  0  0  0  0
   18.7744    2.0628   20.7980 C   0  0  0  0  0  0  0  0  0  0  0  0
   18.3499    3.2349   21.2173 C   0  0  0  0  0  0  0  0  0  0  0  0
   17.5484    2.3429   18.9531 C   0  0  0  0  0  0  0  0  0  0  0  0
   17.1530    3.4089   19.3397 C   0  0  0  0  0  0  0  0  0  0  0  0
   17.5153    3.9292   20.4368 C   0  0  0  0  0  0  0  0  0  0  0  0
   17.0224    5.2436   20.9860 C   0  0  0  0  0  0  0  0  0  0  0  0
   16.7133    5.3966   22.3396 C   0  0  0  0  0  0  0  0  0  0  0  0
   16.2288    6.6073   22.8086 C   0  0  0  0  0  0  0  0  0  0  0  0
   16.0318    7.6458   21.9105 C   0  0  0  0  0  0  0  0  0  0  0  0
   16.3267    7.4519   20.5677 C   0  0  0  0  0  0  0  0  0  0  0  0
   16.8000    6.2727   20.1329 N   0  0  0  0  0  0  0  0  0  0  0  0
 31 32  1  0  0  0
 32 27  1  0  0  0
 27 28  2  0  0  0
 27 29  1  0  0  0
 29 26  1  0  0  0
 26 33  1  0  0  0
 26 22  1  0  0  0
 33 34  1  0  0  0
 33 35  1  0  0  0
 33 36  1  0  0  0
 22 23  2  0  0  0
 22 24  1  0  0  0
 24 21  1  0  0  0
 21 37  1  0  0  0
 21 18  1  0  0  0
 37 38  1  0  0  0
 38 39  2  0  0  0
 38 43  1  0  0  0
 39 40  1  0  0  0
 40 41  2  0  0  0
 41 42  1  0  0  0
 42 43  2  0  0  0
 18 19  1  0  0  0
 18 17  1  0  0  0
 17  1  1  0  0  0
  1  2  1  0  0  0
  1 44  1  0  0  0
  2  3  1  0  0  0
  3  4  2  0  0  0
  3  6  1  0  0  0
  6 13  1  0  0  0
  6  7  1  0  0  0
 13 14  1  0  0  0
 13 15  1  0  0  0
 13 16  1  0  0  0
  7  8  1  0  0  0
  8  9  2  0  0  0
  8 11  1  0  0  0
 11 12  1  0  0  0
 44 45  1  0  0  0
 45 46  1  0  0  0
 45 48  2  0  0  0
 46 47  2  0  0  0
 47 50  1  0  0  0
 48 49  1  0  0  0
 49 50  2  0  0  0
 50 51  1  0  0  0
 51 52  1  0  0  0
 51 56  2  0  0  0
 52 53  2  0  0  0
 53 54  1  0  0  0
 54 55  2  0  0  0
 55 56  1  0  0  0
 29 30  1  0  0  0
 24 25  1  0  0  0
 19 20  1  0  0  0
  2  5  1  0  0  0
  7 10  1  0  0  0
M  END
> <minimizedAffinity>
-11.19125

$$$$
3EKW_DR7_B_100


 56 58  0  0  0  0  0  0  0  0999 V2000
   20.9801   -2.8803   15.5223 N   0  0  0  0  0  0  0  0  0  0  0  0
   19.7873   -3.1848   15.0191 N   0  0  0  0  0  0  0  0  0  0  0  0
   18.8379   -3.6921   15.7873 C   0  0  0  0  0  0  0  0  0  0  0  0
   18.9773   -3.9339   16.9772 O   0  0  0  0  0  0  0  0  0  0  0  0
   19.6090   -3.0306   14.0632 H   0  0  0  0  0  0  0  0  0  0  0  0
   17.5559   -4.0083   15.0692 C   0  0  0  0  0  0  0  0  0  0  0  0
   17.5545   -5.4289   14.8507 N   0  0  0  0  0  0  0  0  0  0  0  0
   18.0299   -6.0276   13.7653 C   0  0  0  0  0  0  0  0  0  0  0  0
   18.5323   -5.4780   12.7930 O   0  0  0  0  0  0  0  0  0  0  0  0
   17.1734   -5.9992   15.5570 H   0  0  0  0  0  0  0  0  0  0  0  0
   17.8927   -7.4621   13.8326 O   0  0  0  0  0  0  0  0  0  0  0  0
   18.8772   -8.2318   13.1397 C   0  0  0  0  0  0  0  0  0  0  0  0
   16.2802   -3.5395   15.7813 C   0  0  0  0  0  0  0  0  0  0  0  0
   15.1363   -3.6952   14.7788 C   0  0  0  0  0  0  0  0  0  0  0  0
   16.4659   -2.0678   16.1242 C   0  0  0  0  0  0  0  0  0  0  0  0
   15.9231   -4.3659   17.0126 C   0  0  0  0  0  0  0  0  0  0  0  0
   21.1095   -1.4880   15.9224 C   0  0  0  0  0  0  0  0  0  0  0  0
   21.5555   -1.4449   17.3872 C   0  0  0  0  0  0  0  0  0  0  0  0
   21.3640   -2.7284   17.9539 O   0  0  0  0  0  0  0  0  0  0  0  0
   20.4225   -2.9592   17.9210 H   0  0  0  0  0  0  0  0  0  0  0  0
   20.8431   -0.3487   18.1973 C   0  0  0  0  0  0  0  0  0  0  0  0
   22.1541    1.0951   19.7024 C   0  0  0  0  0  0  0  0  0  0  0  0
   21.8646    0.4917   20.7169 O   0  0  0  0  0  0  0  0  0  0  0  0
   21.7313    0.7825   18.4725 N   0  0  0  0  0  0  0  0  0  0  0  0
   22.0310    1.3387   17.7175 H   0  0  0  0  0  0  0  0  0  0  0  0
   23.0198    2.3151   19.7877 C   0  0  0  0  0  0  0  0  0  0  0  0
   22.0032    4.4167   20.5481 C   0  0  0  0  0  0  0  0  0  0  0  0
   21.9132    4.9513   19.4580 O   0  0  0  0  0  0  0  0  0  0  0  0
   22.4952    3.2066   20.8008 N   0  0  0  0  0  0  0  0  0  0  0  0
   22.5031    2.8979   21.7356 H   0  0  0  0  0  0  0  0  0  0  0  0
   22.4383    5.5444   22.7263 C   0  0  0  0  0  0  0  0  0  0  0  0
   21.5234    5.0980   21.7305 O   0  0  0  0  0  0  0  0  0  0  0  0
   24.4993    2.0578   20.0861 C   0  0  0  0  0  0  0  0  0  0  0  0
   25.3354    3.1518   19.4127 C   0  0  0  0  0  0  0  0  0  0  0  0
   25.0065    0.6901   19.6631 C   0  0  0  0  0  0  0  0  0  0  0  0
   24.6707    2.1502   21.6026 C   0  0  0  0  0  0  0  0  0  0  0  0
   19.6566    0.2208   17.4200 C   0  0  0  0  0  0  0  0  0  0  0  0
   18.6535    0.8707   18.3470 C   0  0  0  0  0  0  0  0  0  0  0  0
   18.1028    2.1090   18.0355 C   0  0  0  0  0  0  0  0  0  0  0  0
   17.1840    2.6928   18.9143 C   0  0  0  0  0  0  0  0  0  0  0  0
   16.8369    2.0363   20.0939 C   0  0  0  0  0  0  0  0  0  0  0  0
   17.3785    0.7946   20.3838 C   0  0  0  0  0  0  0  0  0  0  0  0
   18.2915    0.2153   19.5085 C   0  0  0  0  0  0  0  0  0  0  0  0
   22.1156   -3.3270   14.7297 C   0  0  0  0  0  0  0  0  0  0  0  0
   22.2018   -4.8072   14.4295 C   0  0  0  0  0  0  0  0  0  0  0  0
   22.3880   -5.5722   15.5005 C   0  0  0  0  0  0  0  0  0  0  0  0
   22.4840   -6.8727   15.3294 C   0  0  0  0  0  0  0  0  0  0  0  0
   22.1367   -5.3579   13.2924 C   0  0  0  0  0  0  0  0  0  0  0  0
   22.2339   -6.5445   13.1344 C   0  0  0  0  0  0  0  0  0  0  0  0
   22.3874   -7.3631   14.0893 C   0  0  0  0  0  0  0  0  0  0  0  0
   22.5521   -8.8545   13.9443 C   0  0  0  0  0  0  0  0  0  0  0  0
   23.0123   -9.6420   15.0023 C   0  0  0  0  0  0  0  0  0  0  0  0
   23.1870  -11.0057   14.8279 C   0  0  0  0  0  0  0  0  0  0  0  0
   22.9252  -11.5634   13.5852 C   0  0  0  0  0  0  0  0  0  0  0  0
   22.4921  -10.7476   12.5487 C   0  0  0  0  0  0  0  0  0  0  0  0
   22.3242   -9.4288   12.7382 N   0  0  0  0  0  0  0  0  0  0  0  0
 31 32  1  0  0  0
 32 27  1  0  0  0
 27 28  2  0  0  0
 27 29  1  0  0  0
 29 26  1  0  0  0
 26 33  1  0  0  0
 26 22  1  0  0  0
 33 34  1  0  0  0
 33 35  1  0  0  0
 33 36  1  0  0  0
 22 23  2  0  0  0
 22 24  1  0  0  0
 24 21  1  0  0  0
 21 37  1  0  0  0
 21 18  1  0  0  0
 37 38  1  0  0  0
 38 39  2  0  0  0
 38 43  1  0  0  0
 39 40  1  0  0  0
 40 41  2  0  0  0
 41 42  1  0  0  0
 42 43  2  0  0  0
 18 19  1  0  0  0
 18 17  1  0  0  0
 17  1  1  0  0  0
  1  2  1  0  0  0
  1 44  1  0  0  0
  2  3  1  0  0  0
  3  4  2  0  0  0
  3  6  1  0  0  0
  6 13  1  0  0  0
  6  7  1  0  0  0
 13 14  1  0  0  0
 13 15  1  0  0  0
 13 16  1  0  0  0
  7  8  1  0  0  0
  8  9  2  0  0  0
  8 11  1  0  0  0
 11 12  1  0  0  0
 44 45  1  0  0  0
 45 46  1  0  0  0
 45 48  2  0  0  0
 46 47  2  0  0  0
 47 50  1  0  0  0
 48 49  1  0  0  0
 49 50  2  0  0  0
 50 51  1  0  0  0
 51 52  1  0  0  0
 51 56  2  0  0  0
 52 53  2  0  0  0
 53 54  1  0  0  0
 54 55  2  0  0  0
 55 56  1  0  0  0
 29 30  1  0  0  0
 24 25  1  0  0  0
 19 20  1  0  0  0
  2  5  1  0  0  0
  7 10  1  0  0  0
M  END
> <minimizedAffinity>
-11.04773

$$$$
3EKW_DR7_B_100


 56 58  0  0  0  0  0  0  0  0999 V2000
   20.3836   -1.5707   16.3555 N   0  0  0  0  0  0  0  0  0  0  0  0
   19.4953   -2.2399   15.6264 N   0  0  0  0  0  0  0  0  0  0  0  0
   18.6238   -3.0530   16.1995 C   0  0  0  0  0  0  0  0  0  0  0  0
   18.5755   -3.2659   17.4020 O   0  0  0  0  0  0  0  0  0  0  0  0
   19.4863   -2.1286   14.6482 H   0  0  0  0  0  0  0  0  0  0  0  0
   17.7036   -3.7572   15.2422 C   0  0  0  0  0  0  0  0  0  0  0  0
   18.2001   -5.1004   15.1179 N   0  0  0  0  0  0  0  0  0  0  0  0
   18.5979   -5.6575   13.9804 C   0  0  0  0  0  0  0  0  0  0  0  0
   18.6023   -5.1299   12.8752 O   0  0  0  0  0  0  0  0  0  0  0  0
   18.2488   -5.6467   15.9355 H   0  0  0  0  0  0  0  0  0  0  0  0
   19.0466   -7.0155   14.1689 O   0  0  0  0  0  0  0  0  0  0  0  0
   19.1043   -7.8377   13.0017 C   0  0  0  0  0  0  0  0  0  0  0  0
   16.2195   -3.7315   15.6305 C   0  0  0  0  0  0  0  0  0  0  0  0
   15.4383   -4.2160   14.4087 C   0  0  0  0  0  0  0  0  0  0  0  0
   15.8540   -2.2848   15.9333 C   0  0  0  0  0  0  0  0  0  0  0  0
   15.8705   -4.6573   16.7914 C   0  0  0  0  0  0  0  0  0  0  0  0
   20.2362   -0.1258   16.2781 C   0  0  0  0  0  0  0  0  0  0  0  0
   19.3949    0.3394   17.4707 C   0  0  0  0  0  0  0  0  0  0  0  0
   18.3887    1.2160   16.9970 O   0  0  0  0  0  0  0  0  0  0  0  0
   18.8024    1.9909   16.5856 H   0  0  0  0  0  0  0  0  0  0  0  0
   20.2392    0.9839   18.5830 C   0  0  0  0  0  0  0  0  0  0  0  0
   19.8042    2.8825   20.0914 C   0  0  0  0  0  0  0  0  0  0  0  0
   20.8738    3.4263   19.8984 O   0  0  0  0  0  0  0  0  0  0  0  0
   19.4079    1.7380   19.5235 N   0  0  0  0  0  0  0  0  0  0  0  0
   18.5162    1.3865   19.7482 H   0  0  0  0  0  0  0  0  0  0  0  0
   18.8329    3.4819   21.0621 C   0  0  0  0  0  0  0  0  0  0  0  0
   19.5353    4.2913   23.2712 C   0  0  0  0  0  0  0  0  0  0  0  0
   18.9681    3.4442   23.9366 O   0  0  0  0  0  0  0  0  0  0  0  0
   19.5343    4.3907   21.9443 N   0  0  0  0  0  0  0  0  0  0  0  0
   20.0426    5.1288   21.5368 H   0  0  0  0  0  0  0  0  0  0  0  0
   21.1441    4.9833   25.0427 C   0  0  0  0  0  0  0  0  0  0  0  0
   20.3299    5.3104   23.9210 O   0  0  0  0  0  0  0  0  0  0  0  0
   17.6486    4.2264   20.4397 C   0  0  0  0  0  0  0  0  0  0  0  0
   16.8081    4.8426   21.5636 C   0  0  0  0  0  0  0  0  0  0  0  0
   16.7637    3.3792   19.5419 C   0  0  0  0  0  0  0  0  0  0  0  0
   18.2303    5.3425   19.5716 C   0  0  0  0  0  0  0  0  0  0  0  0
   20.9581   -0.0818   19.4100 C   0  0  0  0  0  0  0  0  0  0  0  0
   22.4267    0.2438   19.5685 C   0  0  0  0  0  0  0  0  0  0  0  0
   23.3026    0.0951   18.4988 C   0  0  0  0  0  0  0  0  0  0  0  0
   24.6579    0.3944   18.6742 C   0  0  0  0  0  0  0  0  0  0  0  0
   25.1189    0.8278   19.9161 C   0  0  0  0  0  0  0  0  0  0  0  0
   24.2330    0.9896   20.9688 C   0  0  0  0  0  0  0  0  0  0  0  0
   22.8855    0.6921   20.7926 C   0  0  0  0  0  0  0  0  0  0  0  0
   21.7662   -1.9873   16.1776 C   0  0  0  0  0  0  0  0  0  0  0  0
   22.0030   -3.4330   15.8000 C   0  0  0  0  0  0  0  0  0  0  0  0
   22.2472   -3.6276   14.5079 C   0  0  0  0  0  0  0  0  0  0  0  0
   22.4553   -4.8573   14.0904 C   0  0  0  0  0  0  0  0  0  0  0  0
   21.9691   -4.4359   16.5705 C   0  0  0  0  0  0  0  0  0  0  0  0
   22.1495   -5.5600   16.1883 C   0  0  0  0  0  0  0  0  0  0  0  0
   22.4142   -5.8513   14.9838 C   0  0  0  0  0  0  0  0  0  0  0  0
   22.6121   -7.2449   14.4445 C   0  0  0  0  0  0  0  0  0  0  0  0
   22.7720   -8.3394   15.2975 C   0  0  0  0  0  0  0  0  0  0  0  0
   22.9874   -9.6035   14.7721 C   0  0  0  0  0  0  0  0  0  0  0  0
   23.0686   -9.7544   13.3957 C   0  0  0  0  0  0  0  0  0  0  0  0
   22.9291   -8.6414   12.5778 C   0  0  0  0  0  0  0  0  0  0  0  0
   22.7162   -7.4249   13.1054 N   0  0  0  0  0  0  0  0  0  0  0  0
 31 32  1  0  0  0
 32 27  1  0  0  0
 27 28  2  0  0  0
 27 29  1  0  0  0
 29 26  1  0  0  0
 26 33  1  0  0  0
 26 22  1  0  0  0
 33 34  1  0  0  0
 33 35  1  0  0  0
 33 36  1  0  0  0
 22 23  2  0  0  0
 22 24  1  0  0  0
 24 21  1  0  0  0
 21 37  1  0  0  0
 21 18  1  0  0  0
 37 38  1  0  0  0
 38 39  2  0  0  0
 38 43  1  0  0  0
 39 40  1  0  0  0
 40 41  2  0  0  0
 41 42  1  0  0  0
 42 43  2  0  0  0
 18 19  1  0  0  0
 18 17  1  0  0  0
 17  1  1  0  0  0
  1  2  1  0  0  0
  1 44  1  0  0  0
  2  3  1  0  0  0
  3  4  2  0  0  0
  3  6  1  0  0  0
  6 13  1  0  0  0
  6  7  1  0  0  0
 13 14  1  0  0  0
 13 15  1  0  0  0
 13 16  1  0  0  0
  7  8  1  0  0  0
  8  9  2  0  0  0
  8 11  1  0  0  0
 11 12  1  0  0  0
 44 45  1  0  0  0
 45 46  1  0  0  0
 45 48  2  0  0  0
 46 47  2  0  0  0
 47 50  1  0  0  0
 48 49  1  0  0  0
 49 50  2  0  0  0
 50 51  1  0  0  0
 51 52  1  0  0  0
 51 56  2  0  0  0
 52 53  2  0  0  0
 53 54  1  0  0  0
 54 55  2  0  0  0
 55 56  1  0  0  0
 29 30  1  0  0  0
 24 25  1  0  0  0
 19 20  1  0  0  0
  2  5  1  0  0  0
  7 10  1  0  0  0
M  END
> <minimizedAffinity>
-10.41379

$$$$
3EKW_DR7_B_100


 56 58  0  0  0  0  0  0  0  0999 V2000
   21.2776   -3.0516   15.5473 N   0  0  0  0  0  0  0  0  0  0  0  0
   20.0587   -3.2307   15.0467 N   0  0  0  0  0  0  0  0  0  0  0  0
   19.0956   -3.7601   15.7824 C   0  0  0  0  0  0  0  0  0  0  0  0
   19.2438   -4.1343   16.9364 O   0  0  0  0  0  0  0  0  0  0  0  0
   19.8710   -2.9661   14.1172 H   0  0  0  0  0  0  0  0  0  0  0  0
   17.7827   -3.9230   15.0692 C   0  0  0  0  0  0  0  0  0  0  0  0
   17.6507   -5.3247   14.7798 N   0  0  0  0  0  0  0  0  0  0  0  0
   18.0974   -5.9147   13.6775 C   0  0  0  0  0  0  0  0  0  0  0  0
   18.6783   -5.3711   12.7464 O   0  0  0  0  0  0  0  0  0  0  0  0
   17.1962   -5.8879   15.4471 H   0  0  0  0  0  0  0  0  0  0  0  0
   17.8208   -7.3305   13.6695 O   0  0  0  0  0  0  0  0  0  0  0  0
   18.8475   -8.1797   13.1534 C   0  0  0  0  0  0  0  0  0  0  0  0
   16.5623   -3.3790   15.8234 C   0  0  0  0  0  0  0  0  0  0  0  0
   16.3947   -4.2478   17.0704 C   0  0  0  0  0  0  0  0  0  0  0  0
   15.3533   -3.5478   14.9135 C   0  0  0  0  0  0  0  0  0  0  0  0
   16.7203   -1.9358   16.2911 C   0  0  0  0  0  0  0  0  0  0  0  0
   21.5196   -1.7019   16.0323 C   0  0  0  0  0  0  0  0  0  0  0  0
   22.1200   -1.7934   17.4386 C   0  0  0  0  0  0  0  0  0  0  0  0
   21.1380   -2.3176   18.3139 O   0  0  0  0  0  0  0  0  0  0  0  0
   20.3746   -1.7197   18.3387 H   0  0  0  0  0  0  0  0  0  0  0  0
   22.6761   -0.4499   17.9400 C   0  0  0  0  0  0  0  0  0  0  0  0
   20.7375    0.9979   18.4031 C   0  0  0  0  0  0  0  0  0  0  0  0
   20.4910    1.2319   17.2363 O   0  0  0  0  0  0  0  0  0  0  0  0
   21.7357    0.2217   18.8393 N   0  0  0  0  0  0  0  0  0  0  0  0
   21.8432    0.0962   19.8099 H   0  0  0  0  0  0  0  0  0  0  0  0
   19.9101    1.6356   19.4772 C   0  0  0  0  0  0  0  0  0  0  0  0
   20.9303    3.7820   20.0942 C   0  0  0  0  0  0  0  0  0  0  0  0
   21.7476    3.3463   20.8843 O   0  0  0  0  0  0  0  0  0  0  0  0
   20.0448    3.0749   19.3968 N   0  0  0  0  0  0  0  0  0  0  0  0
   19.4433    3.5611   18.7877 H   0  0  0  0  0  0  0  0  0  0  0  0
   19.6497    5.8128   19.4302 C   0  0  0  0  0  0  0  0  0  0  0  0
   20.8758    5.2007   19.8171 O   0  0  0  0  0  0  0  0  0  0  0  0
   18.4197    1.2857   19.4608 C   0  0  0  0  0  0  0  0  0  0  0  0
   18.2675   -0.2084   19.1540 C   0  0  0  0  0  0  0  0  0  0  0  0
   17.5849    2.0978   18.4858 C   0  0  0  0  0  0  0  0  0  0  0  0
   17.8788    1.5730   20.8616 C   0  0  0  0  0  0  0  0  0  0  0  0
   23.9602   -0.6559   18.7431 C   0  0  0  0  0  0  0  0  0  0  0  0
   24.4014    0.6267   19.4125 C   0  0  0  0  0  0  0  0  0  0  0  0
   24.9211    1.6738   18.6595 C   0  0  0  0  0  0  0  0  0  0  0  0
   25.3304    2.8462   19.3039 C   0  0  0  0  0  0  0  0  0  0  0  0
   25.2235    2.9512   20.6897 C   0  0  0  0  0  0  0  0  0  0  0  0
   24.6868    1.9080   21.4266 C   0  0  0  0  0  0  0  0  0  0  0  0
   24.2798    0.7432   20.7841 C   0  0  0  0  0  0  0  0  0  0  0  0
   22.3651   -3.5320   14.7086 C   0  0  0  0  0  0  0  0  0  0  0  0
   22.3943   -5.0141   14.4068 C   0  0  0  0  0  0  0  0  0  0  0  0
   22.5773   -5.7857   15.4737 C   0  0  0  0  0  0  0  0  0  0  0  0
   22.6253   -7.0886   15.3007 C   0  0  0  0  0  0  0  0  0  0  0  0
   22.2859   -5.5616   13.2715 C   0  0  0  0  0  0  0  0  0  0  0  0
   22.3392   -6.7507   13.1116 C   0  0  0  0  0  0  0  0  0  0  0  0
   22.4852   -7.5747   14.0630 C   0  0  0  0  0  0  0  0  0  0  0  0
   22.5958   -9.0708   13.9148 C   0  0  0  0  0  0  0  0  0  0  0  0
   23.0515   -9.8742   14.9626 C   0  0  0  0  0  0  0  0  0  0  0  0
   23.1758  -11.2429   14.7847 C   0  0  0  0  0  0  0  0  0  0  0  0
   22.8684  -11.7906   13.5480 C   0  0  0  0  0  0  0  0  0  0  0  0
   22.4412  -10.9599   12.5210 C   0  0  0  0  0  0  0  0  0  0  0  0
   22.3225   -9.6362   12.7139 N   0  0  0  0  0  0  0  0  0  0  0  0
 31 32  1  0  0  0
 32 27  1  0  0  0
 27 28  2  0  0  0
 27 29  1  0  0  0
 29 26  1  0  0  0
 26 33  1  0  0  0
 26 22  1  0  0  0
 33 34  1  0  0  0
 33 35  1  0  0  0
 33 36  1  0  0  0
 22 23  2  0  0  0
 22 24  1  0  0  0
 24 21  1  0  0  0
 21 37  1  0  0  0
 21 18  1  0  0  0
 37 38  1  0  0  0
 38 39  2  0  0  0
 38 43  1  0  0  0
 39 40  1  0  0  0
 40 41  2  0  0  0
 41 42  1  0  0  0
 42 43  2  0  0  0
 18 19  1  0  0  0
 18 17  1  0  0  0
 17  1  1  0  0  0
  1  2  1  0  0  0
  1 44  1  0  0  0
  2  3  1  0  0  0
  3  4  2  0  0  0
  3  6  1  0  0  0
  6 13  1  0  0  0
  6  7  1  0  0  0
 13 14  1  0  0  0
 13 15  1  0  0  0
 13 16  1  0  0  0
  7  8  1  0  0  0
  8  9  2  0  0  0
  8 11  1  0  0  0
 11 12  1  0  0  0
 44 45  1  0  0  0
 45 46  1  0  0  0
 45 48  2  0  0  0
 46 47  2  0  0  0
 47 50  1  0  0  0
 48 49  1  0  0  0
 49 50  2  0  0  0
 50 51  1  0  0  0
 51 52  1  0  0  0
 51 56  2  0  0  0
 52 53  2  0  0  0
 53 54  1  0  0  0
 54 55  2  0  0  0
 55 56  1  0  0  0
 29 30  1  0  0  0
 24 25  1  0  0  0
 19 20  1  0  0  0
  2  5  1  0  0  0
  7 10  1  0  0  0
M  END
> <minimizedAffinity>
-10.34661

$$$$
3EKW_DR7_B_100


 56 58  0  0  0  0  0  0  0  0999 V2000
   18.6425   -0.9901   16.1696 N   0  0  0  0  0  0  0  0  0  0  0  0
   17.8642   -1.8962   15.5852 N   0  0  0  0  0  0  0  0  0  0  0  0
   18.0818   -3.1890   15.7593 C   0  0  0  0  0  0  0  0  0  0  0  0
   18.9954   -3.6443   16.4314 O   0  0  0  0  0  0  0  0  0  0  0  0
   17.1170   -1.6011   15.0161 H   0  0  0  0  0  0  0  0  0  0  0  0
   17.1355   -4.0876   15.0135 C   0  0  0  0  0  0  0  0  0  0  0  0
   17.7821   -5.3679   14.9204 N   0  0  0  0  0  0  0  0  0  0  0  0
   18.2989   -5.8750   13.8076 C   0  0  0  0  0  0  0  0  0  0  0  0
   18.3047   -5.3472   12.7025 O   0  0  0  0  0  0  0  0  0  0  0  0
   17.8465   -5.9078   15.7412 H   0  0  0  0  0  0  0  0  0  0  0  0
   18.8830   -7.1761   14.0243 O   0  0  0  0  0  0  0  0  0  0  0  0
   20.2876   -7.2936   13.7896 C   0  0  0  0  0  0  0  0  0  0  0  0
   15.7317   -4.2007   15.6226 C   0  0  0  0  0  0  0  0  0  0  0  0
   15.1437   -2.7893   15.6333 C   0  0  0  0  0  0  0  0  0  0  0  0
   15.8952   -4.6999   17.0516 C   0  0  0  0  0  0  0  0  0  0  0  0
   14.7817   -5.0843   14.8206 C   0  0  0  0  0  0  0  0  0  0  0  0
   20.0348   -1.0581   15.7547 C   0  0  0  0  0  0  0  0  0  0  0  0
   20.8232    0.0020   16.5299 C   0  0  0  0  0  0  0  0  0  0  0  0
   20.8556    1.1906   15.7609 O   0  0  0  0  0  0  0  0  0  0  0  0
   21.3070    1.0192   14.9196 H   0  0  0  0  0  0  0  0  0  0  0  0
   22.2353   -0.4679   16.9183 C   0  0  0  0  0  0  0  0  0  0  0  0
   22.5571    0.8524   18.9731 C   0  0  0  0  0  0  0  0  0  0  0  0
   21.6175    0.3634   19.5689 O   0  0  0  0  0  0  0  0  0  0  0  0
   22.9327    0.5315   17.7300 N   0  0  0  0  0  0  0  0  0  0  0  0
   23.7141    0.9885   17.3429 H   0  0  0  0  0  0  0  0  0  0  0  0
   23.3672    1.9311   19.6251 C   0  0  0  0  0  0  0  0  0  0  0  0
   22.0977    3.8655   20.4467 C   0  0  0  0  0  0  0  0  0  0  0  0
   22.2884    4.5959   19.4916 O   0  0  0  0  0  0  0  0  0  0  0  0
   22.5499    2.6235   20.5992 N   0  0  0  0  0  0  0  0  0  0  0  0
   22.3138    2.1451   21.4266 H   0  0  0  0  0  0  0  0  0  0  0  0
   20.7881    5.6531   21.5845 C   0  0  0  0  0  0  0  0  0  0  0  0
   21.2855    4.3191   21.5544 O   0  0  0  0  0  0  0  0  0  0  0  0
   24.6548    1.4687   20.3123 C   0  0  0  0  0  0  0  0  0  0  0  0
   25.5609    2.6853   20.5313 C   0  0  0  0  0  0  0  0  0  0  0  0
   25.4194    0.3856   19.5711 C   0  0  0  0  0  0  0  0  0  0  0  0
   24.2523    0.8860   21.6673 C   0  0  0  0  0  0  0  0  0  0  0  0
   22.1741   -1.7380   17.7666 C   0  0  0  0  0  0  0  0  0  0  0  0
   22.5704   -2.9559   16.9617 C   0  0  0  0  0  0  0  0  0  0  0  0
   22.3550   -2.9958   15.5886 C   0  0  0  0  0  0  0  0  0  0  0  0
   22.7222   -4.1377   14.8686 C   0  0  0  0  0  0  0  0  0  0  0  0
   23.2894   -5.2248   15.5316 C   0  0  0  0  0  0  0  0  0  0  0  0
   23.5159   -5.1653   16.8970 C   0  0  0  0  0  0  0  0  0  0  0  0
   23.1506   -4.0288   17.6113 C   0  0  0  0  0  0  0  0  0  0  0  0
   18.5089   -0.9035   17.6159 C   0  0  0  0  0  0  0  0  0  0  0  0
   18.2590    0.4694   18.1999 C   0  0  0  0  0  0  0  0  0  0  0  0
   18.3397    0.5224   19.5258 C   0  0  0  0  0  0  0  0  0  0  0  0
   18.1267    1.6772   20.1182 C   0  0  0  0  0  0  0  0  0  0  0  0
   17.9700    1.5251   17.5654 C   0  0  0  0  0  0  0  0  0  0  0  0
   17.7660    2.5777   18.1065 C   0  0  0  0  0  0  0  0  0  0  0  0
   17.8423    2.7415   19.3606 C   0  0  0  0  0  0  0  0  0  0  0  0
   17.5604    4.0286   20.0929 C   0  0  0  0  0  0  0  0  0  0  0  0
   17.0332    4.0293   21.3865 C   0  0  0  0  0  0  0  0  0  0  0  0
   16.7516    5.2289   22.0207 C   0  0  0  0  0  0  0  0  0  0  0  0
   16.9750    6.4172   21.3411 C   0  0  0  0  0  0  0  0  0  0  0  0
   17.4773    6.3794   20.0474 C   0  0  0  0  0  0  0  0  0  0  0  0
   17.7485    5.2071   19.4510 N   0  0  0  0  0  0  0  0  0  0  0  0
 31 32  1  0  0  0
 32 27  1  0  0  0
 27 28  2  0  0  0
 27 29  1  0  0  0
 29 26  1  0  0  0
 26 33  1  0  0  0
 26 22  1  0  0  0
 33 34  1  0  0  0
 33 35  1  0  0  0
 33 36  1  0  0  0
 22 23  2  0  0  0
 22 24  1  0  0  0
 24 21  1  0  0  0
 21 37  1  0  0  0
 21 18  1  0  0  0
 37 38  1  0  0  0
 38 39  2  0  0  0
 38 43  1  0  0  0
 39 40  1  0  0  0
 40 41  2  0  0  0
 41 42  1  0  0  0
 42 43  2  0  0  0
 18 19  1  0  0  0
 18 17  1  0  0  0
 17  1  1  0  0  0
  1  2  1  0  0  0
  1 44  1  0  0  0
  2  3  1  0  0  0
  3  4  2  0  0  0
  3  6  1  0  0  0
  6 13  1  0  0  0
  6  7  1  0  0  0
 13 14  1  0  0  0
 13 15  1  0  0  0
 13 16  1  0  0  0
  7  8  1  0  0  0
  8  9  2  0  0  0
  8 11  1  0  0  0
 11 12  1  0  0  0
 44 45  1  0  0  0
 45 46  1  0  0  0
 45 48  2  0  0  0
 46 47  2  0  0  0
 47 50  1  0  0  0
 48 49  1  0  0  0
 49 50  2  0  0  0
 50 51  1  0  0  0
 51 52  1  0  0  0
 51 56  2  0  0  0
 52 53  2  0  0  0
 53 54  1  0  0  0
 54 55  2  0  0  0
 55 56  1  0  0  0
 29 30  1  0  0  0
 24 25  1  0  0  0
 19 20  1  0  0  0
  2  5  1  0  0  0
  7 10  1  0  0  0
M  END
> <minimizedAffinity>
-10.23965

$$$$
3EKW_DR7_B_100


 56 58  0  0  0  0  0  0  0  0999 V2000
   20.2439   -1.8197   16.3608 N   0  0  0  0  0  0  0  0  0  0  0  0
   19.3433   -2.4398   15.6039 N   0  0  0  0  0  0  0  0  0  0  0  0
   18.4762   -3.2839   16.1375 C   0  0  0  0  0  0  0  0  0  0  0  0
   18.4430   -3.5703   17.3252 O   0  0  0  0  0  0  0  0  0  0  0  0
   19.3218   -2.2685   14.6346 H   0  0  0  0  0  0  0  0  0  0  0  0
   17.5405   -3.9248   15.1512 C   0  0  0  0  0  0  0  0  0  0  0  0
   17.9609   -5.2935   15.0255 N   0  0  0  0  0  0  0  0  0  0  0  0
   18.4720   -5.8295   13.9237 C   0  0  0  0  0  0  0  0  0  0  0  0
   18.6604   -5.2580   12.8571 O   0  0  0  0  0  0  0  0  0  0  0  0
   17.8627   -5.8756   15.8134 H   0  0  0  0  0  0  0  0  0  0  0  0
   18.8018   -7.2228   14.1004 O   0  0  0  0  0  0  0  0  0  0  0  0
   19.1782   -7.9447   12.9262 C   0  0  0  0  0  0  0  0  0  0  0  0
   16.0513   -3.8156   15.5037 C   0  0  0  0  0  0  0  0  0  0  0  0
   15.8168   -4.7326   16.7046 C   0  0  0  0  0  0  0  0  0  0  0  0
   15.2621   -4.3260   14.3059 C   0  0  0  0  0  0  0  0  0  0  0  0
   15.6159   -2.4114   15.9104 C   0  0  0  0  0  0  0  0  0  0  0  0
   20.0528   -0.3800   16.4387 C   0  0  0  0  0  0  0  0  0  0  0  0
   18.9874   -0.0900   17.5004 C   0  0  0  0  0  0  0  0  0  0  0  0
   17.7463    0.1123   16.8491 O   0  0  0  0  0  0  0  0  0  0  0  0
   17.8130    0.8775   16.2567 H   0  0  0  0  0  0  0  0  0  0  0  0
   19.3566    1.0937   18.4104 C   0  0  0  0  0  0  0  0  0  0  0  0
   21.4696    1.6946   19.5254 C   0  0  0  0  0  0  0  0  0  0  0  0
   20.9744    1.8588   20.6230 O   0  0  0  0  0  0  0  0  0  0  0  0
   20.8010    1.3339   18.4244 N   0  0  0  0  0  0  0  0  0  0  0  0
   21.3032    1.2249   17.5847 H   0  0  0  0  0  0  0  0  0  0  0  0
   22.9347    1.9396   19.3295 C   0  0  0  0  0  0  0  0  0  0  0  0
   24.3694    3.6896   20.2822 C   0  0  0  0  0  0  0  0  0  0  0  0
   24.9320    4.0101   19.2512 O   0  0  0  0  0  0  0  0  0  0  0  0
   23.4359    2.7514   20.4186 N   0  0  0  0  0  0  0  0  0  0  0  0
   23.0623    2.5996   21.3168 H   0  0  0  0  0  0  0  0  0  0  0  0
   23.7433    5.2770   22.0970 C   0  0  0  0  0  0  0  0  0  0  0  0
   24.6794    4.3728   21.5189 O   0  0  0  0  0  0  0  0  0  0  0  0
   23.8066    0.6861   19.2171 C   0  0  0  0  0  0  0  0  0  0  0  0
   24.8185    0.8896   18.0839 C   0  0  0  0  0  0  0  0  0  0  0  0
   23.0398   -0.6061   18.9950 C   0  0  0  0  0  0  0  0  0  0  0  0
   24.5532    0.5420   20.5435 C   0  0  0  0  0  0  0  0  0  0  0  0
   18.7145    2.3877   17.9109 C   0  0  0  0  0  0  0  0  0  0  0  0
   18.0832    3.1620   19.0466 C   0  0  0  0  0  0  0  0  0  0  0  0
   18.6538    4.3477   19.4961 C   0  0  0  0  0  0  0  0  0  0  0  0
   18.0553    5.0400   20.5543 C   0  0  0  0  0  0  0  0  0  0  0  0
   16.9031    4.5332   21.1531 C   0  0  0  0  0  0  0  0  0  0  0  0
   16.3340    3.3606   20.6838 C   0  0  0  0  0  0  0  0  0  0  0  0
   16.9301    2.6737   19.6311 C   0  0  0  0  0  0  0  0  0  0  0  0
   21.6285   -2.1710   16.0840 C   0  0  0  0  0  0  0  0  0  0  0  0
   21.8853   -3.5501   15.5175 C   0  0  0  0  0  0  0  0  0  0  0  0
   21.9463   -4.5137   16.4312 C   0  0  0  0  0  0  0  0  0  0  0  0
   22.1760   -5.7438   16.0264 C   0  0  0  0  0  0  0  0  0  0  0  0
   22.0618   -3.8524   14.3019 C   0  0  0  0  0  0  0  0  0  0  0  0
   22.2811   -4.9740   13.9325 C   0  0  0  0  0  0  0  0  0  0  0  0
   22.3343   -5.9670   14.7177 C   0  0  0  0  0  0  0  0  0  0  0  0
   22.6424   -7.3860   14.3129 C   0  0  0  0  0  0  0  0  0  0  0  0
   22.8236   -7.7377   12.9733 C   0  0  0  0  0  0  0  0  0  0  0  0
   23.0709   -9.0571   12.6291 C   0  0  0  0  0  0  0  0  0  0  0  0
   23.1065  -10.0173   13.6293 C   0  0  0  0  0  0  0  0  0  0  0  0
   22.8983   -9.6369   14.9482 C   0  0  0  0  0  0  0  0  0  0  0  0
   22.6647   -8.3524   15.2627 N   0  0  0  0  0  0  0  0  0  0  0  0
 31 32  1  0  0  0
 32 27  1  0  0  0
 27 28  2  0  0  0
 27 29  1  0  0  0
 29 26  1  0  0  0
 26 33  1  0  0  0
 26 22  1  0  0  0
 33 34  1  0  0  0
 33 35  1  0  0  0
 33 36  1  0  0  0
 22 23  2  0  0  0
 22 24  1  0  0  0
 24 21  1  0  0  0
 21 37  1  0  0  0
 21 18  1  0  0  0
 37 38  1  0  0  0
 38 39  2  0  0  0
 38 43  1  0  0  0
 39 40  1  0  0  0
 40 41  2  0  0  0
 41 42  1  0  0  0
 42 43  2  0  0  0
 18 19  1  0  0  0
 18 17  1  0  0  0
 17  1  1  0  0  0
  1  2  1  0  0  0
  1 44  1  0  0  0
  2  3  1  0  0  0
  3  4  2  0  0  0
  3  6  1  0  0  0
  6 13  1  0  0  0
  6  7  1  0  0  0
 13 14  1  0  0  0
 13 15  1  0  0  0
 13 16  1  0  0  0
  7  8  1  0  0  0
  8  9  2  0  0  0
  8 11  1  0  0  0
 11 12  1  0  0  0
 44 45  1  0  0  0
 45 46  1  0  0  0
 45 48  2  0  0  0
 46 47  2  0  0  0
 47 50  1  0  0  0
 48 49  1  0  0  0
 49 50  2  0  0  0
 50 51  1  0  0  0
 51 52  1  0  0  0
 51 56  2  0  0  0
 52 53  2  0  0  0
 53 54  1  0  0  0
 54 55  2  0  0  0
 55 56  1  0  0  0
 29 30  1  0  0  0
 24 25  1  0  0  0
 19 20  1  0  0  0
  2  5  1  0  0  0
  7 10  1  0  0  0
M  END
> <minimizedAffinity>
-10.05792

$$$$
3EKW_DR7_B_100


 56 58  0  0  0  0  0  0  0  0999 V2000
   19.8865    0.7381   18.7538 N   0  0  0  0  0  0  0  0  0  0  0  0
   20.9411    1.5408   18.8634 N   0  0  0  0  0  0  0  0  0  0  0  0
   21.9601    1.2175   19.6421 C   0  0  0  0  0  0  0  0  0  0  0  0
   22.0086    0.2001   20.3176 O   0  0  0  0  0  0  0  0  0  0  0  0
   20.9636    2.3860   18.3590 H   0  0  0  0  0  0  0  0  0  0  0  0
   23.0637    2.2370   19.6820 C   0  0  0  0  0  0  0  0  0  0  0  0
   22.8365    3.0332   20.8569 N   0  0  0  0  0  0  0  0  0  0  0  0
   22.4094    4.2902   20.8478 C   0  0  0  0  0  0  0  0  0  0  0  0
   22.1492    4.9623   19.8577 O   0  0  0  0  0  0  0  0  0  0  0  0
   23.0101    2.6162   21.7317 H   0  0  0  0  0  0  0  0  0  0  0  0
   22.2738    4.8271   22.1799 O   0  0  0  0  0  0  0  0  0  0  0  0
   23.2875    5.7386   22.6081 C   0  0  0  0  0  0  0  0  0  0  0  0
   24.4841    1.6577   19.6515 C   0  0  0  0  0  0  0  0  0  0  0  0
   24.7638    1.1092   21.0511 C   0  0  0  0  0  0  0  0  0  0  0  0
   25.4369    2.8063   19.3502 C   0  0  0  0  0  0  0  0  0  0  0  0
   24.6585    0.5058   18.6670 C   0  0  0  0  0  0  0  0  0  0  0  0
   19.2417    0.7921   17.4513 C   0  0  0  0  0  0  0  0  0  0  0  0
   19.9433   -0.2035   16.5223 C   0  0  0  0  0  0  0  0  0  0  0  0
   20.5166    0.5138   15.4444 O   0  0  0  0  0  0  0  0  0  0  0  0
   19.8163    0.9646   14.9471 H   0  0  0  0  0  0  0  0  0  0  0  0
   19.0107   -1.3244   16.0331 C   0  0  0  0  0  0  0  0  0  0  0  0
   20.8557   -2.8188   15.3761 C   0  0  0  0  0  0  0  0  0  0  0  0
   21.4773   -1.9692   14.7689 O   0  0  0  0  0  0  0  0  0  0  0  0
   19.6922   -2.6202   16.0055 N   0  0  0  0  0  0  0  0  0  0  0  0
   19.2748   -3.3802   16.4717 H   0  0  0  0  0  0  0  0  0  0  0  0
   21.3725   -4.2245   15.4209 C   0  0  0  0  0  0  0  0  0  0  0  0
   21.2616   -5.6056   13.3938 C   0  0  0  0  0  0  0  0  0  0  0  0
   20.3313   -6.3125   13.7359 O   0  0  0  0  0  0  0  0  0  0  0  0
   21.8092   -4.6181   14.0977 N   0  0  0  0  0  0  0  0  0  0  0  0
   22.5586   -4.1240   13.6934 H   0  0  0  0  0  0  0  0  0  0  0  0
   21.2269   -5.2794   10.9245 C   0  0  0  0  0  0  0  0  0  0  0  0
   21.8666   -5.7845   12.0922 O   0  0  0  0  0  0  0  0  0  0  0  0
   22.5170   -4.4783   16.4056 C   0  0  0  0  0  0  0  0  0  0  0  0
   22.3403   -5.8723   17.0179 C   0  0  0  0  0  0  0  0  0  0  0  0
   22.6482   -3.4448   17.5108 C   0  0  0  0  0  0  0  0  0  0  0  0
   23.8155   -4.4398   15.5993 C   0  0  0  0  0  0  0  0  0  0  0  0
   17.8170   -1.4911   16.9733 C   0  0  0  0  0  0  0  0  0  0  0  0
   16.9485   -2.6574   16.5572 C   0  0  0  0  0  0  0  0  0  0  0  0
   16.1090   -2.5545   15.4535 C   0  0  0  0  0  0  0  0  0  0  0  0
   15.3090   -3.6448   15.0951 C   0  0  0  0  0  0  0  0  0  0  0  0
   15.3524   -4.8164   15.8490 C   0  0  0  0  0  0  0  0  0  0  0  0
   16.2067   -4.9128   16.9353 C   0  0  0  0  0  0  0  0  0  0  0  0
   17.0019   -3.8278   17.2901 C   0  0  0  0  0  0  0  0  0  0  0  0
   18.9250    0.8318   19.8418 C   0  0  0  0  0  0  0  0  0  0  0  0
   18.3714    2.2054   20.1506 C   0  0  0  0  0  0  0  0  0  0  0  0
   17.3232    2.5515   19.4099 C   0  0  0  0  0  0  0  0  0  0  0  0
   16.7841    3.7350   19.6060 C   0  0  0  0  0  0  0  0  0  0  0  0
   18.8133    3.0298   21.0023 C   0  0  0  0  0  0  0  0  0  0  0  0
   18.3274    4.1145   21.1752 C   0  0  0  0  0  0  0  0  0  0  0  0
   17.3129    4.5314   20.5408 C   0  0  0  0  0  0  0  0  0  0  0  0
   16.6869    5.8944   20.6914 C   0  0  0  0  0  0  0  0  0  0  0  0
   16.4330    6.7051   19.5826 C   0  0  0  0  0  0  0  0  0  0  0  0
   15.8890    7.9679   19.7558 C   0  0  0  0  0  0  0  0  0  0  0  0
   15.6303    8.4176   21.0421 C   0  0  0  0  0  0  0  0  0  0  0  0
   15.9171    7.5952   22.1232 C   0  0  0  0  0  0  0  0  0  0  0  0
   16.4398    6.3726   21.9351 N   0  0  0  0  0  0  0  0  0  0  0  0
 31 32  1  0  0  0
 32 27  1  0  0  0
 27 28  2  0  0  0
 27 29  1  0  0  0
 29 26  1  0  0  0
 26 33  1  0  0  0
 26 22  1  0  0  0
 33 34  1  0  0  0
 33 35  1  0  0  0
 33 36  1  0  0  0
 22 23  2  0  0  0
 22 24  1  0  0  0
 24 21  1  0  0  0
 21 37  1  0  0  0
 21 18  1  0  0  0
 37 38  1  0  0  0
 38 39  2  0  0  0
 38 43  1  0  0  0
 39 40  1  0  0  0
 40 41  2  0  0  0
 41 42  1  0  0  0
 42 43  2  0  0  0
 18 19  1  0  0  0
 18 17  1  0  0  0
 17  1  1  0  0  0
  1  2  1  0  0  0
  1 44  1  0  0  0
  2  3  1  0  0  0
  3  4  2  0  0  0
  3  6  1  0  0  0
  6 13  1  0  0  0
  6  7  1  0  0  0
 13 14  1  0  0  0
 13 15  1  0  0  0
 13 16  1  0  0  0
  7  8  1  0  0  0
  8  9  2  0  0  0
  8 11  1  0  0  0
 11 12  1  0  0  0
 44 45  1  0  0  0
 45 46  1  0  0  0
 45 48  2  0  0  0
 46 47  2  0  0  0
 47 50  1  0  0  0
 48 49  1  0  0  0
 49 50  2  0  0  0
 50 51  1  0  0  0
 51 52  1  0  0  0
 51 56  2  0  0  0
 52 53  2  0  0  0
 53 54  1  0  0  0
 54 55  2  0  0  0
 55 56  1  0  0  0
 29 30  1  0  0  0
 24 25  1  0  0  0
 19 20  1  0  0  0
  2  5  1  0  0  0
  7 10  1  0  0  0
M  END
> <minimizedAffinity>
-10.03245

$$$$
3EKW_DR7_B_100


 56 58  0  0  0  0  0  0  0  0999 V2000
   19.7243    1.4184   18.7251 N   0  0  0  0  0  0  0  0  0  0  0  0
   20.9208    1.9907   18.8210 N   0  0  0  0  0  0  0  0  0  0  0  0
   21.8407    1.5041   19.6373 C   0  0  0  0  0  0  0  0  0  0  0  0
   21.6687    0.5343   20.3610 O   0  0  0  0  0  0  0  0  0  0  0  0
   21.1244    2.7862   18.2779 H   0  0  0  0  0  0  0  0  0  0  0  0
   23.1310    2.2746   19.6545 C   0  0  0  0  0  0  0  0  0  0  0  0
   23.0938    3.0996   20.8309 N   0  0  0  0  0  0  0  0  0  0  0  0
   22.6255    4.3412   20.8695 C   0  0  0  0  0  0  0  0  0  0  0  0
   22.1628    4.9732   19.9280 O   0  0  0  0  0  0  0  0  0  0  0  0
   23.4407    2.7161   21.6687 H   0  0  0  0  0  0  0  0  0  0  0  0
   22.7169    4.9150   22.1899 O   0  0  0  0  0  0  0  0  0  0  0  0
   23.9439    5.5688   22.5194 C   0  0  0  0  0  0  0  0  0  0  0  0
   24.4010    1.4155   19.6003 C   0  0  0  0  0  0  0  0  0  0  0  0
   24.6247    0.8743   21.0127 C   0  0  0  0  0  0  0  0  0  0  0  0
   25.5535    2.3319   19.2129 C   0  0  0  0  0  0  0  0  0  0  0  0
   24.2937    0.2160   18.6641 C   0  0  0  0  0  0  0  0  0  0  0  0
   19.5897    0.5292   17.5820 C   0  0  0  0  0  0  0  0  0  0  0  0
   19.0849   -0.8280   18.0814 C   0  0  0  0  0  0  0  0  0  0  0  0
   19.2468   -0.8789   19.4873 O   0  0  0  0  0  0  0  0  0  0  0  0
   20.1878   -0.7956   19.7076 H   0  0  0  0  0  0  0  0  0  0  0  0
   19.7694   -2.0148   17.3824 C   0  0  0  0  0  0  0  0  0  0  0  0
   17.9918   -3.5047   16.5521 C   0  0  0  0  0  0  0  0  0  0  0  0
   17.7281   -3.9809   17.6386 O   0  0  0  0  0  0  0  0  0  0  0  0
   18.9277   -2.5765   16.3240 N   0  0  0  0  0  0  0  0  0  0  0  0
   19.0565   -2.2563   15.4020 H   0  0  0  0  0  0  0  0  0  0  0  0
   17.2654   -3.9896   15.3347 C   0  0  0  0  0  0  0  0  0  0  0  0
   18.1875   -5.7941   13.9482 C   0  0  0  0  0  0  0  0  0  0  0  0
   18.4827   -5.1148   12.9820 O   0  0  0  0  0  0  0  0  0  0  0  0
   17.6265   -5.3679   15.0769 N   0  0  0  0  0  0  0  0  0  0  0  0
   17.4455   -6.0315   15.7812 H   0  0  0  0  0  0  0  0  0  0  0  0
   19.6918   -7.7054   13.4104 C   0  0  0  0  0  0  0  0  0  0  0  0
   18.4690   -7.2129   13.9491 O   0  0  0  0  0  0  0  0  0  0  0  0
   15.7387   -3.8899   15.3909 C   0  0  0  0  0  0  0  0  0  0  0  0
   15.1641   -4.3643   14.0514 C   0  0  0  0  0  0  0  0  0  0  0  0
   15.2017   -2.5077   15.7194 C   0  0  0  0  0  0  0  0  0  0  0  0
   15.2713   -4.8286   16.5036 C   0  0  0  0  0  0  0  0  0  0  0  0
   21.0676   -1.5752   16.7058 C   0  0  0  0  0  0  0  0  0  0  0  0
   21.9793   -2.7543   16.4478 C   0  0  0  0  0  0  0  0  0  0  0  0
   22.2004   -3.2058   15.1513 C   0  0  0  0  0  0  0  0  0  0  0  0
   23.0409   -4.3041   14.9404 C   0  0  0  0  0  0  0  0  0  0  0  0
   23.6393   -4.9400   16.0269 C   0  0  0  0  0  0  0  0  0  0  0  0
   23.4257   -4.4691   17.3121 C   0  0  0  0  0  0  0  0  0  0  0  0
   22.5901   -3.3765   17.5200 C   0  0  0  0  0  0  0  0  0  0  0  0
   18.5948    2.3279   18.8436 C   0  0  0  0  0  0  0  0  0  0  0  0
   18.6745    3.3820   19.9257 C   0  0  0  0  0  0  0  0  0  0  0  0
   18.7758    2.8939   21.1580 C   0  0  0  0  0  0  0  0  0  0  0  0
   18.8410    3.7415   22.1616 C   0  0  0  0  0  0  0  0  0  0  0  0
   18.6332    4.6368   19.7700 C   0  0  0  0  0  0  0  0  0  0  0  0
   18.6830    5.4111   20.6866 C   0  0  0  0  0  0  0  0  0  0  0  0
   18.8051    5.0513   21.8954 C   0  0  0  0  0  0  0  0  0  0  0  0
   18.8349    5.9772   23.0846 C   0  0  0  0  0  0  0  0  0  0  0  0
   19.8760    5.9335   24.0149 C   0  0  0  0  0  0  0  0  0  0  0  0
   19.8578    6.7734   25.1171 C   0  0  0  0  0  0  0  0  0  0  0  0
   18.7812    7.6303   25.2915 C   0  0  0  0  0  0  0  0  0  0  0  0
   17.7516    7.6308   24.3602 C   0  0  0  0  0  0  0  0  0  0  0  0
   17.7892    6.8129   23.2957 N   0  0  0  0  0  0  0  0  0  0  0  0
 31 32  1  0  0  0
 32 27  1  0  0  0
 27 28  2  0  0  0
 27 29  1  0  0  0
 29 26  1  0  0  0
 26 33  1  0  0  0
 26 22  1  0  0  0
 33 34  1  0  0  0
 33 35  1  0  0  0
 33 36  1  0  0  0
 22 23  2  0  0  0
 22 24  1  0  0  0
 24 21  1  0  0  0
 21 37  1  0  0  0
 21 18  1  0  0  0
 37 38  1  0  0  0
 38 39  2  0  0  0
 38 43  1  0  0  0
 39 40  1  0  0  0
 40 41  2  0  0  0
 41 42  1  0  0  0
 42 43  2  0  0  0
 18 19  1  0  0  0
 18 17  1  0  0  0
 17  1  1  0  0  0
  1  2  1  0  0  0
  1 44  1  0  0  0
  2  3  1  0  0  0
  3  4  2  0  0  0
  3  6  1  0  0  0
  6 13  1  0  0  0
  6  7  1  0  0  0
 13 14  1  0  0  0
 13 15  1  0  0  0
 13 16  1  0  0  0
  7  8  1  0  0  0
  8  9  2  0  0  0
  8 11  1  0  0  0
 11 12  1  0  0  0
 44 45  1  0  0  0
 45 46  1  0  0  0
 45 48  2  0  0  0
 46 47  2  0  0  0
 47 50  1  0  0  0
 48 49  1  0  0  0
 49 50  2  0  0  0
 50 51  1  0  0  0
 51 52  1  0  0  0
 51 56  2  0  0  0
 52 53  2  0  0  0
 53 54  1  0  0  0
 54 55  2  0  0  0
 55 56  1  0  0  0
 29 30  1  0  0  0
 24 25  1  0  0  0
 19 20  1  0  0  0
  2  5  1  0  0  0
  7 10  1  0  0  0
M  END
> <minimizedAffinity>
-9.95844

$$$$
3EKW_DR7_B_100


 56 58  0  0  0  0  0  0  0  0999 V2000
   22.3960    0.0151   18.7647 N   0  0  0  0  0  0  0  0  0  0  0  0
   21.4339    0.6905   19.3866 N   0  0  0  0  0  0  0  0  0  0  0  0
   20.4542    1.2577   18.7028 C   0  0  0  0  0  0  0  0  0  0  0  0
   20.3640    1.2273   17.4843 O   0  0  0  0  0  0  0  0  0  0  0  0
   21.4511    0.7691   20.3678 H   0  0  0  0  0  0  0  0  0  0  0  0
   19.4583    2.0068   19.5430 C   0  0  0  0  0  0  0  0  0  0  0  0
   19.7398    3.4037   19.3548 N   0  0  0  0  0  0  0  0  0  0  0  0
   20.3254    4.1851   20.2542 C   0  0  0  0  0  0  0  0  0  0  0  0
   20.7088    3.8505   21.3682 O   0  0  0  0  0  0  0  0  0  0  0  0
   19.4795    3.8104   18.4969 H   0  0  0  0  0  0  0  0  0  0  0  0
   20.4764    5.5393   19.7806 O   0  0  0  0  0  0  0  0  0  0  0  0
   19.3565    6.1067   19.0983 C   0  0  0  0  0  0  0  0  0  0  0  0
   17.9877    1.6775   19.2550 C   0  0  0  0  0  0  0  0  0  0  0  0
   17.1519    2.5414   20.1998 C   0  0  0  0  0  0  0  0  0  0  0  0
   17.7786    0.2058   19.5845 C   0  0  0  0  0  0  0  0  0  0  0  0
   17.5507    2.0052   17.8308 C   0  0  0  0  0  0  0  0  0  0  0  0
   22.1062   -1.4006   18.6002 C   0  0  0  0  0  0  0  0  0  0  0  0
   22.1352   -1.7299   17.1044 C   0  0  0  0  0  0  0  0  0  0  0  0
   22.4988   -0.5606   16.3932 O   0  0  0  0  0  0  0  0  0  0  0  0
   21.8364    0.1310   16.5477 H   0  0  0  0  0  0  0  0  0  0  0  0
   20.8092   -2.3207   16.5963 C   0  0  0  0  0  0  0  0  0  0  0  0
   21.7524   -4.0071   15.0681 C   0  0  0  0  0  0  0  0  0  0  0  0
   22.3962   -3.2141   14.4096 O   0  0  0  0  0  0  0  0  0  0  0  0
   20.9794   -3.6926   16.1135 N   0  0  0  0  0  0  0  0  0  0  0  0
   20.5028   -4.4169   16.5798 H   0  0  0  0  0  0  0  0  0  0  0  0
   21.7622   -5.4587   14.6968 C   0  0  0  0  0  0  0  0  0  0  0  0
   21.3511   -5.9009   12.3168 C   0  0  0  0  0  0  0  0  0  0  0  0
   20.1525   -6.0979   12.3982 O   0  0  0  0  0  0  0  0  0  0  0  0
   22.1758   -5.5986   13.3163 N   0  0  0  0  0  0  0  0  0  0  0  0
   23.1273   -5.4615   13.1038 H   0  0  0  0  0  0  0  0  0  0  0  0
   23.3653   -6.3836   10.9328 C   0  0  0  0  0  0  0  0  0  0  0  0
   22.0090   -5.9605   11.0300 O   0  0  0  0  0  0  0  0  0  0  0  0
   22.6484   -6.3579   15.5628 C   0  0  0  0  0  0  0  0  0  0  0  0
   23.8048   -5.5206   16.1203 C   0  0  0  0  0  0  0  0  0  0  0  0
   23.1971   -7.5845   14.8547 C   0  0  0  0  0  0  0  0  0  0  0  0
   21.7815   -6.8579   16.7187 C   0  0  0  0  0  0  0  0  0  0  0  0
   19.7758   -2.3899   17.7204 C   0  0  0  0  0  0  0  0  0  0  0  0
   18.3751   -2.5429   17.1704 C   0  0  0  0  0  0  0  0  0  0  0  0
   17.6434   -3.7001   17.4132 C   0  0  0  0  0  0  0  0  0  0  0  0
   16.3533   -3.8204   16.8854 C   0  0  0  0  0  0  0  0  0  0  0  0
   15.8181   -2.7886   16.1161 C   0  0  0  0  0  0  0  0  0  0  0  0
   16.5501   -1.6331   15.8969 C   0  0  0  0  0  0  0  0  0  0  0  0
   17.8325   -1.5148   16.4230 C   0  0  0  0  0  0  0  0  0  0  0  0
   23.7383    0.2400   19.2793 C   0  0  0  0  0  0  0  0  0  0  0  0
   23.9470    1.4703   20.1344 C   0  0  0  0  0  0  0  0  0  0  0  0
   24.2325    1.2100   21.4064 C   0  0  0  0  0  0  0  0  0  0  0  0
   24.4203    2.2230   22.2238 C   0  0  0  0  0  0  0  0  0  0  0  0
   23.8563    2.6772   19.7661 C   0  0  0  0  0  0  0  0  0  0  0  0
   24.0182    3.6027   20.5141 C   0  0  0  0  0  0  0  0  0  0  0  0
   24.3181    3.4643   21.7373 C   0  0  0  0  0  0  0  0  0  0  0  0
   24.4955    4.5878   22.7266 C   0  0  0  0  0  0  0  0  0  0  0  0
   24.3106    4.3871   24.0966 C   0  0  0  0  0  0  0  0  0  0  0  0
   24.4463    5.4477   24.9782 C   0  0  0  0  0  0  0  0  0  0  0  0
   24.7388    6.7067   24.4751 C   0  0  0  0  0  0  0  0  0  0  0  0
   24.8924    6.8756   23.1057 C   0  0  0  0  0  0  0  0  0  0  0  0
   24.7617    5.8346   22.2674 N   0  0  0  0  0  0  0  0  0  0  0  0
 31 32  1  0  0  0
 32 27  1  0  0  0
 27 28  2  0  0  0
 27 29  1  0  0  0
 29 26  1  0  0  0
 26 33  1  0  0  0
 26 22  1  0  0  0
 33 34  1  0  0  0
 33 35  1  0  0  0
 33 36  1  0  0  0
 22 23  2  0  0  0
 22 24  1  0  0  0
 24 21  1  0  0  0
 21 37  1  0  0  0
 21 18  1  0  0  0
 37 38  1  0  0  0
 38 39  2  0  0  0
 38 43  1  0  0  0
 39 40  1  0  0  0
 40 41  2  0  0  0
 41 42  1  0  0  0
 42 43  2  0  0  0
 18 19  1  0  0  0
 18 17  1  0  0  0
 17  1  1  0  0  0
  1  2  1  0  0  0
  1 44  1  0  0  0
  2  3  1  0  0  0
  3  4  2  0  0  0
  3  6  1  0  0  0
  6 13  1  0  0  0
  6  7  1  0  0  0
 13 14  1  0  0  0
 13 15  1  0  0  0
 13 16  1  0  0  0
  7  8  1  0  0  0
  8  9  2  0  0  0
  8 11  1  0  0  0
 11 12  1  0  0  0
 44 45  1  0  0  0
 45 46  1  0  0  0
 45 48  2  0  0  0
 46 47  2  0  0  0
 47 50  1  0  0  0
 48 49  1  0  0  0
 49 50  2  0  0  0
 50 51  1  0  0  0
 51 52  1  0  0  0
 51 56  2  0  0  0
 52 53  2  0  0  0
 53 54  1  0  0  0
 54 55  2  0  0  0
 55 56  1  0  0  0
 29 30  1  0  0  0
 24 25  1  0  0  0
 19 20  1  0  0  0
  2  5  1  0  0  0
  7 10  1  0  0  0
M  END
> <minimizedAffinity>
-9.88016

$$$$
3EKW_DR7_B_100


 56 58  0  0  0  0  0  0  0  0999 V2000
   22.4121   -0.0743   17.7801 N   0  0  0  0  0  0  0  0  0  0  0  0
   21.3981    0.6259   18.2802 N   0  0  0  0  0  0  0  0  0  0  0  0
   20.7323    0.1925   19.3375 C   0  0  0  0  0  0  0  0  0  0  0  0
   20.9708   -0.8596   19.9118 O   0  0  0  0  0  0  0  0  0  0  0  0
   21.1400    1.4771   17.8583 H   0  0  0  0  0  0  0  0  0  0  0  0
   19.5977    1.0795   19.7678 C   0  0  0  0  0  0  0  0  0  0  0  0
   20.0025    2.4264   19.4713 N   0  0  0  0  0  0  0  0  0  0  0  0
   20.0732    3.4083   20.3621 C   0  0  0  0  0  0  0  0  0  0  0  0
   19.8068    3.3284   21.5548 O   0  0  0  0  0  0  0  0  0  0  0  0
   20.2447    2.6360   18.5404 H   0  0  0  0  0  0  0  0  0  0  0  0
   20.5127    4.6480   19.7696 O   0  0  0  0  0  0  0  0  0  0  0  0
   19.8876    5.8413   20.2461 C   0  0  0  0  0  0  0  0  0  0  0  0
   18.2373    0.7423   19.1435 C   0  0  0  0  0  0  0  0  0  0  0  0
   18.0690    1.6641   17.9353 C   0  0  0  0  0  0  0  0  0  0  0  0
   17.1700    1.0572   20.1825 C   0  0  0  0  0  0  0  0  0  0  0  0
   18.1296   -0.6935   18.6401 C   0  0  0  0  0  0  0  0  0  0  0  0
   22.1044   -1.4794   17.5648 C   0  0  0  0  0  0  0  0  0  0  0  0
   21.5985   -1.6496   16.1290 C   0  0  0  0  0  0  0  0  0  0  0  0
   20.4037   -0.9041   15.9815 O   0  0  0  0  0  0  0  0  0  0  0  0
   19.7317   -1.2462   16.5917 H   0  0  0  0  0  0  0  0  0  0  0  0
   21.4071   -3.1234   15.7331 C   0  0  0  0  0  0  0  0  0  0  0  0
   19.0255   -3.7439   15.8422 C   0  0  0  0  0  0  0  0  0  0  0  0
   19.0165   -3.9437   17.0410 O   0  0  0  0  0  0  0  0  0  0  0  0
   20.0913   -3.3548   15.1337 N   0  0  0  0  0  0  0  0  0  0  0  0
   19.9862   -3.2178   14.1645 H   0  0  0  0  0  0  0  0  0  0  0  0
   17.7787   -3.9737   15.0436 C   0  0  0  0  0  0  0  0  0  0  0  0
   18.1504   -5.9052   13.5739 C   0  0  0  0  0  0  0  0  0  0  0  0
   18.7264   -5.3134   12.6793 O   0  0  0  0  0  0  0  0  0  0  0  0
   17.6797   -5.3769   14.7007 N   0  0  0  0  0  0  0  0  0  0  0  0
   17.2360   -5.9781   15.3418 H   0  0  0  0  0  0  0  0  0  0  0  0
   17.0541   -7.9928   14.3770 C   0  0  0  0  0  0  0  0  0  0  0  0
   17.9436   -7.3338   13.4812 O   0  0  0  0  0  0  0  0  0  0  0  0
   16.4723   -3.5449   15.7170 C   0  0  0  0  0  0  0  0  0  0  0  0
   16.5122   -2.0306   15.9508 C   0  0  0  0  0  0  0  0  0  0  0  0
   16.1638   -4.2582   17.0220 C   0  0  0  0  0  0  0  0  0  0  0  0
   15.3398   -3.8780   14.7453 C   0  0  0  0  0  0  0  0  0  0  0  0
   22.4339   -3.5444   14.6820 C   0  0  0  0  0  0  0  0  0  0  0  0
   22.4136   -5.0409   14.4625 C   0  0  0  0  0  0  0  0  0  0  0  0
   22.2600   -5.5652   13.1839 C   0  0  0  0  0  0  0  0  0  0  0  0
   22.2354   -6.9530   13.0091 C   0  0  0  0  0  0  0  0  0  0  0  0
   22.3547   -7.7949   14.1135 C   0  0  0  0  0  0  0  0  0  0  0  0
   22.5258   -7.2602   15.3800 C   0  0  0  0  0  0  0  0  0  0  0  0
   22.5506   -5.8800   15.5520 C   0  0  0  0  0  0  0  0  0  0  0  0
   23.6829    0.1061   18.4653 C   0  0  0  0  0  0  0  0  0  0  0  0
   23.7911    1.2829   19.4097 C   0  0  0  0  0  0  0  0  0  0  0  0
   24.0257    0.9488   20.6748 C   0  0  0  0  0  0  0  0  0  0  0  0
   24.1251    1.9108   21.5662 C   0  0  0  0  0  0  0  0  0  0  0  0
   23.6617    2.5070   19.1178 C   0  0  0  0  0  0  0  0  0  0  0  0
   23.7429    3.3854   19.9329 C   0  0  0  0  0  0  0  0  0  0  0  0
   23.9885    3.1768   21.1583 C   0  0  0  0  0  0  0  0  0  0  0  0
   24.0638    4.2366   22.2276 C   0  0  0  0  0  0  0  0  0  0  0  0
   23.1068    5.2502   22.3163 C   0  0  0  0  0  0  0  0  0  0  0  0
   23.2222    6.2309   23.2886 C   0  0  0  0  0  0  0  0  0  0  0  0
   24.3121    6.2024   24.1459 C   0  0  0  0  0  0  0  0  0  0  0  0
   25.2576    5.1943   24.0145 C   0  0  0  0  0  0  0  0  0  0  0  0
   25.1261    4.2498   23.0689 N   0  0  0  0  0  0  0  0  0  0  0  0
 31 32  1  0  0  0
 32 27  1  0  0  0
 27 28  2  0  0  0
 27 29  1  0  0  0
 29 26  1  0  0  0
 26 33  1  0  0  0
 26 22  1  0  0  0
 33 34  1  0  0  0
 33 35  1  0  0  0
 33 36  1  0  0  0
 22 23  2  0  0  0
 22 24  1  0  0  0
 24 21  1  0  0  0
 21 37  1  0  0  0
 21 18  1  0  0  0
 37 38  1  0  0  0
 38 39  2  0  0  0
 38 43  1  0  0  0
 39 40  1  0  0  0
 40 41  2  0  0  0
 41 42  1  0  0  0
 42 43  2  0  0  0
 18 19  1  0  0  0
 18 17  1  0  0  0
 17  1  1  0  0  0
  1  2  1  0  0  0
  1 44  1  0  0  0
  2  3  1  0  0  0
  3  4  2  0  0  0
  3  6  1  0  0  0
  6 13  1  0  0  0
  6  7  1  0  0  0
 13 14  1  0  0  0
 13 15  1  0  0  0
 13 16  1  0  0  0
  7  8  1  0  0  0
  8  9  2  0  0  0
  8 11  1  0  0  0
 11 12  1  0  0  0
 44 45  1  0  0  0
 45 46  1  0  0  0
 45 48  2  0  0  0
 46 47  2  0  0  0
 47 50  1  0  0  0
 48 49  1  0  0  0
 49 50  2  0  0  0
 50 51  1  0  0  0
 51 52  1  0  0  0
 51 56  2  0  0  0
 52 53  2  0  0  0
 53 54  1  0  0  0
 54 55  2  0  0  0
 55 56  1  0  0  0
 29 30  1  0  0  0
 24 25  1  0  0  0
 19 20  1  0  0  0
  2  5  1  0  0  0
  7 10  1  0  0  0
M  END
> <minimizedAffinity>
-9.87186

$$$$
