1RJK_VDZ_A_500


 33 35  0  0  0  0  0  0  0  0999 V2000
   60.4073    6.0110   -3.1299 C   0  0  0  0  0  0  0  0  0  0  0  0
   60.7786    5.9098   -4.3891 C   0  0  0  0  0  0  0  0  0  0  0  0
   61.7112    6.9009   -5.0300 C   0  0  0  0  0  0  0  0  0  0  0  0
   62.9670    6.1183   -5.4870 C   0  0  0  0  0  0  0  0  0  0  0  0
   60.3330    4.6811   -5.1542 C   0  0  0  0  0  0  0  0  0  0  0  0
   61.6681    3.9177   -5.5789 C   0  0  0  0  0  0  0  0  0  0  0  0
   62.7134    4.8071   -6.2739 C   0  0  0  0  0  0  0  0  0  0  0  0
   62.3772    3.3873   -4.2271 C   0  0  0  0  0  0  0  0  0  0  0  0
   59.3151    3.6644   -4.6918 C   0  0  0  0  0  0  0  0  0  0  0  0
   59.6666    2.4079   -5.5523 C   0  0  0  0  0  0  0  0  0  0  0  0
   61.0323    2.7070   -6.2725 C   0  0  0  0  0  0  0  0  0  0  0  0
   60.7388    4.4332    2.0910 O   0  0  0  0  0  0  0  0  0  0  0  0
   60.4819    5.6825    1.3999 C   0  0  0  0  0  0  0  0  0  0  0  0
   61.0264    6.9148    1.9964 C   0  0  0  0  0  0  0  0  0  0  0  0
   61.6506    6.8667    3.1551 C   0  0  0  0  0  0  0  0  0  0  0  0
   60.9816    8.2443    1.2908 C   0  0  0  0  0  0  0  0  0  0  0  0
   59.4917    8.4214    1.2740 O   0  0  0  0  0  0  0  0  0  0  0  0
   61.3968    8.2346   -0.1524 C   0  0  0  0  0  0  0  0  0  0  0  0
   61.0984    5.6499   -0.0278 C   0  0  0  0  0  0  0  0  0  0  0  0
   61.0876    6.9568   -0.8612 C   0  0  0  0  0  0  0  0  0  0  0  0
   60.7844    7.1417   -2.2285 C   0  0  0  0  0  0  0  0  0  0  0  0
   60.3489    4.4686    2.9785 H   0  0  0  0  0  0  0  0  0  0  0  0
   59.0828    7.6756    0.8075 H   0  0  0  0  0  0  0  0  0  0  0  0
   61.7943    1.4005   -6.4294 C   0  0  0  0  0  0  0  0  0  0  0  0
   60.6954    0.3428   -6.6904 C   0  0  0  0  0  0  0  0  0  0  0  0
   62.9475    1.3954   -7.4655 C   0  0  0  0  0  0  0  0  0  0  0  0
   64.2877    1.0971   -6.8026 C   0  0  0  0  0  0  0  0  0  0  0  0
   64.4295   -0.3085   -6.2209 C   0  0  0  0  0  0  0  0  0  0  0  0
   65.8528   -0.9242   -6.4029 C   0  0  0  0  0  0  0  0  0  0  0  0
   66.6390    0.1217   -7.1394 C   0  0  0  0  0  0  0  0  0  0  0  0
   66.5613   -1.4219   -5.1103 C   0  0  0  0  0  0  0  0  0  0  0  0
   65.7559   -2.0437   -7.2331 O   0  0  0  0  0  0  0  0  0  0  0  0
   65.3188   -1.7943   -8.0624 H   0  0  0  0  0  0  0  0  0  0  0  0
 12 13  1  0  0  0
 13 14  1  0  0  0
 13 19  1  0  0  0
 14 15  2  0  0  0
 14 16  1  0  0  0
 16 17  1  0  0  0
 16 18  1  0  0  0
 18 20  1  0  0  0
 19 20  1  0  0  0
 20 21  2  0  0  0
 21  1  1  0  0  0
  1  2  2  0  0  0
  2  3  1  0  0  0
  2  5  1  0  0  0
  3  4  1  0  0  0
  4  7  1  0  0  0
  5  6  1  0  0  0
  5  9  1  0  0  0
  6  7  1  0  0  0
  6  8  1  0  0  0
  6 11  1  0  0  0
  9 10  1  0  0  0
 10 11  1  0  0  0
 11 24  1  0  0  0
 24 25  1  0  0  0
 24 26  1  0  0  0
 26 27  1  0  0  0
 27 28  1  0  0  0
 28 29  1  0  0  0
 29 30  1  0  0  0
 29 31  1  0  0  0
 29 32  1  0  0  0
 12 22  1  0  0  0
 17 23  1  0  0  0
 32 33  1  0  0  0
M  END
> <minimizedAffinity>
-13.65135

$$$$
