4Z0K_4LN_A_301


 32 36  0  0  0  0  0  0  0  0999 V2000
  -14.9647  -35.7170  -12.9122 C   0  0  0  0  0  0  0  0  0  0  0  0
  -16.0967  -35.5006  -13.9123 C   0  0  0  0  0  0  0  0  0  0  0  0
  -15.0409  -34.6854  -11.7685 C   0  0  0  0  0  0  0  0  0  0  0  0
  -13.8008  -34.7451  -10.9311 C   0  0  0  0  0  0  0  0  0  0  0  0
  -13.5547  -34.2713   -9.6593 C   0  0  0  0  0  0  0  0  0  0  0  0
  -14.3451  -33.6869   -8.6337 C   0  0  0  0  0  0  0  0  0  0  0  0
  -15.6800  -33.5324   -8.8306 O   0  0  0  0  0  0  0  0  0  0  0  0
  -13.7331  -33.3554   -7.4423 C   0  0  0  0  0  0  0  0  0  0  0  0
  -12.3875  -33.6183   -7.2458 C   0  0  0  0  0  0  0  0  0  0  0  0
  -13.6098  -35.5751  -13.6223 C   0  0  0  0  0  0  0  0  0  0  0  0
  -12.4282  -35.9780  -12.7292 C   0  0  0  0  0  0  0  0  0  0  0  0
  -12.5902  -35.3008  -11.4056 C   0  0  0  0  0  0  0  0  0  0  0  0
  -11.5942  -35.1668  -10.4756 N   0  0  0  0  0  0  0  0  0  0  0  0
  -12.1882  -34.5388   -9.4223 N   0  0  0  0  0  0  0  0  0  0  0  0
  -11.5888  -34.1911   -8.2281 C   0  0  0  0  0  0  0  0  0  0  0  0
  -10.1230  -34.4014   -8.0365 C   0  0  0  0  0  0  0  0  0  0  0  0
  -16.0626  -33.7679   -9.6529 H   0  0  0  0  0  0  0  0  0  0  0  0
  -15.2970  -38.3307  -14.1692 O   0  0  0  0  0  0  0  0  0  0  0  0
  -15.2089  -38.2350  -12.9447 C   0  0  0  0  0  0  0  0  0  0  0  0
  -15.0792  -37.0528  -12.3025 N   0  0  0  0  0  0  0  0  0  0  0  0
  -15.0591  -37.0885  -11.3189 H   0  0  0  0  0  0  0  0  0  0  0  0
  -15.2602  -39.4490  -12.0834 C   0  0  0  0  0  0  0  0  0  0  0  0
  -14.3990  -39.5917  -10.9976 C   0  0  0  0  0  0  0  0  0  0  0  0
  -14.3707  -40.7656  -10.2695 C   0  0  0  0  0  0  0  0  0  0  0  0
  -15.2213  -41.8079  -10.6030 C   0  0  0  0  0  0  0  0  0  0  0  0
  -16.1014  -41.6682  -11.6657 C   0  0  0  0  0  0  0  0  0  0  0  0
  -16.1152  -40.4986  -12.4022 C   0  0  0  0  0  0  0  0  0  0  0  0
  -15.1722  -43.0332   -9.8715 N   0  0  0  0  0  0  0  0  0  0  0  0
  -15.0881  -44.2955  -10.3686 C   0  0  0  0  0  0  0  0  0  0  0  0
  -15.0574  -45.1725   -9.4071 N   0  0  0  0  0  0  0  0  0  0  0  0
  -15.1233  -44.4665   -8.2126 N   0  0  0  0  0  0  0  0  0  0  0  0
  -15.1900  -43.2038   -8.5239 C   0  0  0  0  0  0  0  0  0  0  0  0
 18 19  2  0  0  0
  2  1  1  0  0  0
 10  1  1  0  0  0
 10 11  1  0  0  0
 19 20  1  0  0  0
 19 22  1  0  0  0
  1 20  1  0  0  0
  1  3  1  0  0  0
 11 12  1  0  0  0
 27 22  2  0  0  0
 27 26  1  0  0  0
 22 23  1  0  0  0
  3  4  1  0  0  0
 26 25  2  0  0  0
 12  4  1  0  0  0
 12 13  2  0  0  0
 23 24  2  0  0  0
  4  5  2  0  0  0
 13 14  1  0  0  0
 25 24  1  0  0  0
 25 28  1  0  0  0
 29 28  1  0  0  0
 29 30  2  0  0  0
 28 32  1  0  0  0
  5 14  1  0  0  0
  5  6  1  0  0  0
 14 15  1  0  0  0
 30 31  1  0  0  0
  7  6  1  0  0  0
  6  8  2  0  0  0
 32 31  2  0  0  0
 15 16  1  0  0  0
 15  9  2  0  0  0
  8  9  1  0  0  0
 20 21  1  0  0  0
  7 17  1  0  0  0
M  END
> <minimizedAffinity>
-10.31883

$$$$
4Z0K_4LN_A_301


 32 36  0  0  0  0  0  0  0  0999 V2000
  -15.9276  -39.2804  -13.1579 C   0  0  0  0  0  0  0  0  0  0  0  0
  -17.4120  -38.9497  -13.0325 C   0  0  0  0  0  0  0  0  0  0  0  0
  -15.0659  -38.1846  -12.4988 C   0  0  0  0  0  0  0  0  0  0  0  0
  -13.6207  -38.3870  -12.8356 C   0  0  0  0  0  0  0  0  0  0  0  0
  -12.4828  -37.8837  -12.2402 C   0  0  0  0  0  0  0  0  0  0  0  0
  -12.2120  -37.1250  -11.0701 C   0  0  0  0  0  0  0  0  0  0  0  0
  -13.2386  -36.7769  -10.2519 O   0  0  0  0  0  0  0  0  0  0  0  0
  -10.8987  -36.8235  -10.7733 C   0  0  0  0  0  0  0  0  0  0  0  0
   -9.8719  -37.2800  -11.5829 C   0  0  0  0  0  0  0  0  0  0  0  0
  -15.5436  -39.3922  -14.6412 C   0  0  0  0  0  0  0  0  0  0  0  0
  -14.1171  -39.9207  -14.8453 C   0  0  0  0  0  0  0  0  0  0  0  0
  -13.2003  -39.1505  -13.9491 C   0  0  0  0  0  0  0  0  0  0  0  0
  -11.8373  -39.1187  -14.0760 N   0  0  0  0  0  0  0  0  0  0  0  0
  -11.4123  -38.3457  -13.0374 N   0  0  0  0  0  0  0  0  0  0  0  0
  -10.1043  -38.0261  -12.7319 C   0  0  0  0  0  0  0  0  0  0  0  0
   -8.9978  -38.4498  -13.6406 C   0  0  0  0  0  0  0  0  0  0  0  0
  -14.1189  -36.9978  -10.4847 H   0  0  0  0  0  0  0  0  0  0  0  0
  -16.4501  -40.0679  -10.3958 O   0  0  0  0  0  0  0  0  0  0  0  0
  -15.9225  -40.8575  -11.1796 C   0  0  0  0  0  0  0  0  0  0  0  0
  -15.6323  -40.5444  -12.4620 N   0  0  0  0  0  0  0  0  0  0  0  0
  -15.1729  -41.2376  -12.9889 H   0  0  0  0  0  0  0  0  0  0  0  0
  -15.5502  -42.2303  -10.7374 C   0  0  0  0  0  0  0  0  0  0  0  0
  -15.3968  -43.2615  -11.6615 C   0  0  0  0  0  0  0  0  0  0  0  0
  -15.1631  -44.5566  -11.2405 C   0  0  0  0  0  0  0  0  0  0  0  0
  -15.0564  -44.8361   -9.8872 C   0  0  0  0  0  0  0  0  0  0  0  0
  -15.1814  -43.8135   -8.9587 C   0  0  0  0  0  0  0  0  0  0  0  0
  -15.4317  -42.5220   -9.3828 C   0  0  0  0  0  0  0  0  0  0  0  0
  -14.8457  -46.1785   -9.4485 N   0  0  0  0  0  0  0  0  0  0  0  0
  -15.1499  -46.7148   -8.2371 C   0  0  0  0  0  0  0  0  0  0  0  0
  -14.8234  -47.9740   -8.1911 N   0  0  0  0  0  0  0  0  0  0  0  0
  -14.2765  -48.2961   -9.4267 N   0  0  0  0  0  0  0  0  0  0  0  0
  -14.3052  -47.2112  -10.1463 C   0  0  0  0  0  0  0  0  0  0  0  0
 18 19  2  0  0  0
  2  1  1  0  0  0
 10  1  1  0  0  0
 10 11  1  0  0  0
 19 20  1  0  0  0
 19 22  1  0  0  0
  1 20  1  0  0  0
  1  3  1  0  0  0
 11 12  1  0  0  0
 27 22  2  0  0  0
 27 26  1  0  0  0
 22 23  1  0  0  0
  3  4  1  0  0  0
 26 25  2  0  0  0
 12  4  1  0  0  0
 12 13  2  0  0  0
 23 24  2  0  0  0
  4  5  2  0  0  0
 13 14  1  0  0  0
 25 24  1  0  0  0
 25 28  1  0  0  0
 29 28  1  0  0  0
 29 30  2  0  0  0
 28 32  1  0  0  0
  5 14  1  0  0  0
  5  6  1  0  0  0
 14 15  1  0  0  0
 30 31  1  0  0  0
  7  6  1  0  0  0
  6  8  2  0  0  0
 32 31  2  0  0  0
 15 16  1  0  0  0
 15  9  2  0  0  0
  8  9  1  0  0  0
 20 21  1  0  0  0
  7 17  1  0  0  0
M  END
> <minimizedAffinity>
-8.89773

$$$$
4Z0K_4LN_A_301


 32 36  0  0  0  0  0  0  0  0999 V2000
  -13.2768  -37.8411  -14.0097 C   0  0  0  0  0  0  0  0  0  0  0  0
  -13.9391  -38.0327  -15.3710 C   0  0  0  0  0  0  0  0  0  0  0  0
  -13.7354  -36.5201  -13.3597 C   0  0  0  0  0  0  0  0  0  0  0  0
  -12.9054  -36.2205  -12.1497 C   0  0  0  0  0  0  0  0  0  0  0  0
  -13.1369  -35.3635  -11.0940 C   0  0  0  0  0  0  0  0  0  0  0  0
  -14.2304  -34.5612  -10.6716 C   0  0  0  0  0  0  0  0  0  0  0  0
  -15.3854  -34.5835  -11.3858 O   0  0  0  0  0  0  0  0  0  0  0  0
  -14.0988  -33.8338   -9.5065 C   0  0  0  0  0  0  0  0  0  0  0  0
  -12.9383  -33.9135   -8.7549 C   0  0  0  0  0  0  0  0  0  0  0  0
  -11.7496  -37.8121  -14.1744 C   0  0  0  0  0  0  0  0  0  0  0  0
  -11.0088  -37.8259  -12.8301 C   0  0  0  0  0  0  0  0  0  0  0  0
  -11.6291  -36.7935  -11.9435 C   0  0  0  0  0  0  0  0  0  0  0  0
  -11.0519  -36.3018  -10.8034 N   0  0  0  0  0  0  0  0  0  0  0  0
  -11.9723  -35.4336  -10.2977 N   0  0  0  0  0  0  0  0  0  0  0  0
  -11.8529  -34.6910   -9.1399 C   0  0  0  0  0  0  0  0  0  0  0  0
  -10.5770  -34.7125   -8.3645 C   0  0  0  0  0  0  0  0  0  0  0  0
  -15.4397  -35.0886  -12.1731 H   0  0  0  0  0  0  0  0  0  0  0  0
  -15.9236  -38.6612  -13.0910 O   0  0  0  0  0  0  0  0  0  0  0  0
  -14.9204  -39.2777  -12.7308 C   0  0  0  0  0  0  0  0  0  0  0  0
  -13.6672  -38.9325  -13.1011 N   0  0  0  0  0  0  0  0  0  0  0  0
  -12.9347  -39.4698  -12.7216 H   0  0  0  0  0  0  0  0  0  0  0  0
  -15.0383  -40.4574  -11.8292 C   0  0  0  0  0  0  0  0  0  0  0  0
  -14.6738  -40.3703  -10.4874 C   0  0  0  0  0  0  0  0  0  0  0  0
  -14.6766  -41.4928   -9.6816 C   0  0  0  0  0  0  0  0  0  0  0  0
  -15.0670  -42.7170  -10.2012 C   0  0  0  0  0  0  0  0  0  0  0  0
  -15.4570  -42.8113  -11.5288 C   0  0  0  0  0  0  0  0  0  0  0  0
  -15.4368  -41.6896  -12.3362 C   0  0  0  0  0  0  0  0  0  0  0  0
  -15.0413  -43.8840   -9.3788 N   0  0  0  0  0  0  0  0  0  0  0  0
  -14.9236  -45.1787   -9.7759 C   0  0  0  0  0  0  0  0  0  0  0  0
  -14.9298  -45.9815   -8.7513 N   0  0  0  0  0  0  0  0  0  0  0  0
  -15.0568  -45.1897   -7.6171 N   0  0  0  0  0  0  0  0  0  0  0  0
  -15.1198  -43.9544   -8.0244 C   0  0  0  0  0  0  0  0  0  0  0  0
 18 19  2  0  0  0
  2  1  1  0  0  0
 10  1  1  0  0  0
 10 11  1  0  0  0
 19 20  1  0  0  0
 19 22  1  0  0  0
  1 20  1  0  0  0
  1  3  1  0  0  0
 11 12  1  0  0  0
 27 22  2  0  0  0
 27 26  1  0  0  0
 22 23  1  0  0  0
  3  4  1  0  0  0
 26 25  2  0  0  0
 12  4  1  0  0  0
 12 13  2  0  0  0
 23 24  2  0  0  0
  4  5  2  0  0  0
 13 14  1  0  0  0
 25 24  1  0  0  0
 25 28  1  0  0  0
 29 28  1  0  0  0
 29 30  2  0  0  0
 28 32  1  0  0  0
  5 14  1  0  0  0
  5  6  1  0  0  0
 14 15  1  0  0  0
 30 31  1  0  0  0
  7  6  1  0  0  0
  6  8  2  0  0  0
 32 31  2  0  0  0
 15 16  1  0  0  0
 15  9  2  0  0  0
  8  9  1  0  0  0
 20 21  1  0  0  0
  7 17  1  0  0  0
M  END
> <minimizedAffinity>
-8.61959

$$$$
4Z0K_4LN_A_301


 32 36  0  0  0  0  0  0  0  0999 V2000
  -15.8281  -39.0958  -13.5778 C   0  0  0  0  0  0  0  0  0  0  0  0
  -17.3198  -38.8663  -13.8030 C   0  0  0  0  0  0  0  0  0  0  0  0
  -15.1561  -37.8220  -13.0270 C   0  0  0  0  0  0  0  0  0  0  0  0
  -13.6662  -37.9732  -13.0396 C   0  0  0  0  0  0  0  0  0  0  0  0
  -12.6882  -37.2682  -12.3695 C   0  0  0  0  0  0  0  0  0  0  0  0
  -12.6826  -36.2647  -11.3641 C   0  0  0  0  0  0  0  0  0  0  0  0
  -13.8629  -35.8383  -10.8448 O   0  0  0  0  0  0  0  0  0  0  0  0
  -11.4661  -35.8042  -10.9037 C   0  0  0  0  0  0  0  0  0  0  0  0
  -10.2831  -36.3345  -11.3910 C   0  0  0  0  0  0  0  0  0  0  0  0
  -15.1555  -39.4809  -14.9043 C   0  0  0  0  0  0  0  0  0  0  0  0
  -13.6974  -39.9241  -14.7220 C   0  0  0  0  0  0  0  0  0  0  0  0
  -13.0055  -38.9144  -13.8626 C   0  0  0  0  0  0  0  0  0  0  0  0
  -11.6464  -38.8004  -13.7404 N   0  0  0  0  0  0  0  0  0  0  0  0
  -11.4645  -37.7979  -12.8356 N   0  0  0  0  0  0  0  0  0  0  0  0
  -10.2557  -37.3183  -12.3720 C   0  0  0  0  0  0  0  0  0  0  0  0
   -8.9764  -37.8307  -12.9467 C   0  0  0  0  0  0  0  0  0  0  0  0
  -14.6709  -36.1723  -11.1817 H   0  0  0  0  0  0  0  0  0  0  0  0
  -16.6648  -41.8923  -13.6244 O   0  0  0  0  0  0  0  0  0  0  0  0
  -16.0212  -41.4503  -12.6722 C   0  0  0  0  0  0  0  0  0  0  0  0
  -15.6269  -40.1608  -12.5805 N   0  0  0  0  0  0  0  0  0  0  0  0
  -15.1531  -39.9051  -11.7563 H   0  0  0  0  0  0  0  0  0  0  0  0
  -15.6493  -42.3343  -11.5326 C   0  0  0  0  0  0  0  0  0  0  0  0
  -15.3960  -43.6895  -11.7326 C   0  0  0  0  0  0  0  0  0  0  0  0
  -15.1626  -44.5291  -10.6603 C   0  0  0  0  0  0  0  0  0  0  0  0
  -15.1563  -44.0202   -9.3711 C   0  0  0  0  0  0  0  0  0  0  0  0
  -15.3814  -42.6679   -9.1612 C   0  0  0  0  0  0  0  0  0  0  0  0
  -15.6311  -41.8342  -10.2350 C   0  0  0  0  0  0  0  0  0  0  0  0
  -14.9460  -44.8912   -8.2594 N   0  0  0  0  0  0  0  0  0  0  0  0
  -15.1667  -46.2311   -8.1994 C   0  0  0  0  0  0  0  0  0  0  0  0
  -14.8563  -46.7012   -7.0260 N   0  0  0  0  0  0  0  0  0  0  0  0
  -14.4069  -45.6289   -6.2659 N   0  0  0  0  0  0  0  0  0  0  0  0
  -14.4728  -44.5737   -7.0262 C   0  0  0  0  0  0  0  0  0  0  0  0
 18 19  2  0  0  0
  2  1  1  0  0  0
 10  1  1  0  0  0
 10 11  1  0  0  0
 19 20  1  0  0  0
 19 22  1  0  0  0
  1 20  1  0  0  0
  1  3  1  0  0  0
 11 12  1  0  0  0
 27 22  2  0  0  0
 27 26  1  0  0  0
 22 23  1  0  0  0
  3  4  1  0  0  0
 26 25  2  0  0  0
 12  4  1  0  0  0
 12 13  2  0  0  0
 23 24  2  0  0  0
  4  5  2  0  0  0
 13 14  1  0  0  0
 25 24  1  0  0  0
 25 28  1  0  0  0
 29 28  1  0  0  0
 29 30  2  0  0  0
 28 32  1  0  0  0
  5 14  1  0  0  0
  5  6  1  0  0  0
 14 15  1  0  0  0
 30 31  1  0  0  0
  7  6  1  0  0  0
  6  8  2  0  0  0
 32 31  2  0  0  0
 15 16  1  0  0  0
 15  9  2  0  0  0
  8  9  1  0  0  0
 20 21  1  0  0  0
  7 17  1  0  0  0
M  END
> <minimizedAffinity>
-8.54123

$$$$
4Z0K_4LN_A_301


 32 36  0  0  0  0  0  0  0  0999 V2000
  -15.0443  -36.6847  -15.7231 C   0  0  0  0  0  0  0  0  0  0  0  0
  -14.1548  -36.2567  -16.8868 C   0  0  0  0  0  0  0  0  0  0  0  0
  -15.1388  -38.2218  -15.6439 C   0  0  0  0  0  0  0  0  0  0  0  0
  -16.1964  -38.6279  -14.6645 C   0  0  0  0  0  0  0  0  0  0  0  0
  -16.4167  -39.8338  -14.0321 C   0  0  0  0  0  0  0  0  0  0  0  0
  -15.7165  -41.0668  -13.9467 C   0  0  0  0  0  0  0  0  0  0  0  0
  -14.5202  -41.1962  -14.5764 O   0  0  0  0  0  0  0  0  0  0  0  0
  -16.2515  -42.0724  -13.1679 C   0  0  0  0  0  0  0  0  0  0  0  0
  -17.4262  -41.8670  -12.4634 C   0  0  0  0  0  0  0  0  0  0  0  0
  -16.4559  -36.1072  -15.9082 C   0  0  0  0  0  0  0  0  0  0  0  0
  -17.3502  -36.3245  -14.6798 C   0  0  0  0  0  0  0  0  0  0  0  0
  -17.2373  -37.7574  -14.2666 C   0  0  0  0  0  0  0  0  0  0  0  0
  -18.1095  -38.3928  -13.4237 N   0  0  0  0  0  0  0  0  0  0  0  0
  -17.6050  -39.6516  -13.2906 N   0  0  0  0  0  0  0  0  0  0  0  0
  -18.1324  -40.6719  -12.5243 C   0  0  0  0  0  0  0  0  0  0  0  0
  -19.4372  -40.4842  -11.8228 C   0  0  0  0  0  0  0  0  0  0  0  0
  -14.1866  -40.4927  -15.0978 H   0  0  0  0  0  0  0  0  0  0  0  0
  -12.4418  -37.2419  -14.5237 O   0  0  0  0  0  0  0  0  0  0  0  0
  -13.2408  -36.4942  -13.9591 C   0  0  0  0  0  0  0  0  0  0  0  0
  -14.4690  -36.2173  -14.4505 N   0  0  0  0  0  0  0  0  0  0  0  0
  -15.0423  -35.6395  -13.8966 H   0  0  0  0  0  0  0  0  0  0  0  0
  -12.8920  -35.8531  -12.6607 C   0  0  0  0  0  0  0  0  0  0  0  0
  -11.6784  -36.1248  -12.0329 C   0  0  0  0  0  0  0  0  0  0  0  0
  -11.4054  -35.6184  -10.7766 C   0  0  0  0  0  0  0  0  0  0  0  0
  -12.3347  -34.8124  -10.1381 C   0  0  0  0  0  0  0  0  0  0  0  0
  -13.5357  -34.5135  -10.7639 C   0  0  0  0  0  0  0  0  0  0  0  0
  -13.8123  -35.0355  -12.0136 C   0  0  0  0  0  0  0  0  0  0  0  0
  -12.0679  -34.3133   -8.8272 N   0  0  0  0  0  0  0  0  0  0  0  0
  -10.8965  -34.3665   -8.1397 C   0  0  0  0  0  0  0  0  0  0  0  0
  -11.0170  -33.8042   -6.9719 N   0  0  0  0  0  0  0  0  0  0  0  0
  -12.3272  -33.3537   -6.8725 N   0  0  0  0  0  0  0  0  0  0  0  0
  -12.9209  -33.6709   -7.9873 C   0  0  0  0  0  0  0  0  0  0  0  0
 18 19  2  0  0  0
  2  1  1  0  0  0
 10  1  1  0  0  0
 10 11  1  0  0  0
 19 20  1  0  0  0
 19 22  1  0  0  0
  1 20  1  0  0  0
  1  3  1  0  0  0
 11 12  1  0  0  0
 27 22  2  0  0  0
 27 26  1  0  0  0
 22 23  1  0  0  0
  3  4  1  0  0  0
 26 25  2  0  0  0
 12  4  1  0  0  0
 12 13  2  0  0  0
 23 24  2  0  0  0
  4  5  2  0  0  0
 13 14  1  0  0  0
 25 24  1  0  0  0
 25 28  1  0  0  0
 29 28  1  0  0  0
 29 30  2  0  0  0
 28 32  1  0  0  0
  5 14  1  0  0  0
  5  6  1  0  0  0
 14 15  1  0  0  0
 30 31  1  0  0  0
  7  6  1  0  0  0
  6  8  2  0  0  0
 32 31  2  0  0  0
 15 16  1  0  0  0
 15  9  2  0  0  0
  8  9  1  0  0  0
 20 21  1  0  0  0
  7 17  1  0  0  0
M  END
> <minimizedAffinity>
-8.41391

$$$$
4Z0K_4LN_A_301


 32 36  0  0  0  0  0  0  0  0999 V2000
  -14.6561  -37.9337  -15.6542 C   0  0  0  0  0  0  0  0  0  0  0  0
  -14.3321  -36.9713  -16.7932 C   0  0  0  0  0  0  0  0  0  0  0  0
  -13.9605  -39.2926  -15.8722 C   0  0  0  0  0  0  0  0  0  0  0  0
  -14.4727  -40.3020  -14.8916 C   0  0  0  0  0  0  0  0  0  0  0  0
  -13.9439  -41.5117  -14.4920 C   0  0  0  0  0  0  0  0  0  0  0  0
  -12.7236  -42.2009  -14.7234 C   0  0  0  0  0  0  0  0  0  0  0  0
  -11.7630  -41.6139  -15.4831 O   0  0  0  0  0  0  0  0  0  0  0  0
  -12.5334  -43.4220  -14.1097 C   0  0  0  0  0  0  0  0  0  0  0  0
  -13.4991  -43.9423  -13.2642 C   0  0  0  0  0  0  0  0  0  0  0  0
  -16.1742  -38.1569  -15.5785 C   0  0  0  0  0  0  0  0  0  0  0  0
  -16.5945  -38.9512  -14.3342 C   0  0  0  0  0  0  0  0  0  0  0  0
  -15.7119  -40.1538  -14.2267 C   0  0  0  0  0  0  0  0  0  0  0  0
  -15.9789  -41.2446  -13.4433 N   0  0  0  0  0  0  0  0  0  0  0  0
  -14.9028  -42.0631  -13.6136 N   0  0  0  0  0  0  0  0  0  0  0  0
  -14.7013  -43.2912  -13.0158 C   0  0  0  0  0  0  0  0  0  0  0  0
  -15.7692  -43.8938  -12.1637 C   0  0  0  0  0  0  0  0  0  0  0  0
  -11.9262  -40.7836  -15.8855 H   0  0  0  0  0  0  0  0  0  0  0  0
  -11.9293  -37.3261  -14.8072 O   0  0  0  0  0  0  0  0  0  0  0  0
  -12.8788  -37.1075  -14.0544 C   0  0  0  0  0  0  0  0  0  0  0  0
  -14.1602  -37.3900  -14.3785 N   0  0  0  0  0  0  0  0  0  0  0  0
  -14.8366  -37.2129  -13.6854 H   0  0  0  0  0  0  0  0  0  0  0  0
  -12.6562  -36.5209  -12.7035 C   0  0  0  0  0  0  0  0  0  0  0  0
  -13.6900  -35.8813  -12.0231 C   0  0  0  0  0  0  0  0  0  0  0  0
  -13.4533  -35.2401  -10.8222 C   0  0  0  0  0  0  0  0  0  0  0  0
  -12.1813  -35.2489  -10.2717 C   0  0  0  0  0  0  0  0  0  0  0  0
  -11.1496  -35.9046  -10.9267 C   0  0  0  0  0  0  0  0  0  0  0  0
  -11.3865  -36.5306  -12.1361 C   0  0  0  0  0  0  0  0  0  0  0  0
  -11.9275  -34.5610   -9.0465 N   0  0  0  0  0  0  0  0  0  0  0  0
  -10.7577  -34.4937   -8.3575 C   0  0  0  0  0  0  0  0  0  0  0  0
  -10.8918  -33.7708   -7.2834 N   0  0  0  0  0  0  0  0  0  0  0  0
  -12.2099  -33.3335   -7.2513 N   0  0  0  0  0  0  0  0  0  0  0  0
  -12.7942  -33.8190   -8.3090 C   0  0  0  0  0  0  0  0  0  0  0  0
 18 19  2  0  0  0
  2  1  1  0  0  0
 10  1  1  0  0  0
 10 11  1  0  0  0
 19 20  1  0  0  0
 19 22  1  0  0  0
  1 20  1  0  0  0
  1  3  1  0  0  0
 11 12  1  0  0  0
 27 22  2  0  0  0
 27 26  1  0  0  0
 22 23  1  0  0  0
  3  4  1  0  0  0
 26 25  2  0  0  0
 12  4  1  0  0  0
 12 13  2  0  0  0
 23 24  2  0  0  0
  4  5  2  0  0  0
 13 14  1  0  0  0
 25 24  1  0  0  0
 25 28  1  0  0  0
 29 28  1  0  0  0
 29 30  2  0  0  0
 28 32  1  0  0  0
  5 14  1  0  0  0
  5  6  1  0  0  0
 14 15  1  0  0  0
 30 31  1  0  0  0
  7  6  1  0  0  0
  6  8  2  0  0  0
 32 31  2  0  0  0
 15 16  1  0  0  0
 15  9  2  0  0  0
  8  9  1  0  0  0
 20 21  1  0  0  0
  7 17  1  0  0  0
M  END
> <minimizedAffinity>
-7.76449

$$$$
4Z0K_4LN_A_301


 32 36  0  0  0  0  0  0  0  0999 V2000
  -16.6196  -40.0596  -13.1516 C   0  0  0  0  0  0  0  0  0  0  0  0
  -17.2941  -39.5452  -14.4200 C   0  0  0  0  0  0  0  0  0  0  0  0
  -16.5401  -41.5996  -13.1607 C   0  0  0  0  0  0  0  0  0  0  0  0
  -16.1053  -42.1057  -11.8200 C   0  0  0  0  0  0  0  0  0  0  0  0
  -15.5933  -43.3312  -11.4477 C   0  0  0  0  0  0  0  0  0  0  0  0
  -15.1726  -44.4975  -12.1410 C   0  0  0  0  0  0  0  0  0  0  0  0
  -15.2152  -44.5150  -13.4984 O   0  0  0  0  0  0  0  0  0  0  0  0
  -14.6719  -45.5526  -11.4061 C   0  0  0  0  0  0  0  0  0  0  0  0
  -14.5550  -45.4580  -10.0293 C   0  0  0  0  0  0  0  0  0  0  0  0
  -17.4182  -39.6088  -11.9189 C   0  0  0  0  0  0  0  0  0  0  0  0
  -16.6944  -39.9142  -10.6004 C   0  0  0  0  0  0  0  0  0  0  0  0
  -16.2275  -41.3344  -10.6411 C   0  0  0  0  0  0  0  0  0  0  0  0
  -15.8276  -42.0515   -9.5452 N   0  0  0  0  0  0  0  0  0  0  0  0
  -15.4482  -43.2612  -10.0445 N   0  0  0  0  0  0  0  0  0  0  0  0
  -14.9550  -44.3302   -9.3231 C   0  0  0  0  0  0  0  0  0  0  0  0
  -14.8967  -44.2649   -7.8325 C   0  0  0  0  0  0  0  0  0  0  0  0
  -15.5621  -43.7807  -13.9657 H   0  0  0  0  0  0  0  0  0  0  0  0
  -14.4111  -40.3325  -15.0409 O   0  0  0  0  0  0  0  0  0  0  0  0
  -14.2639  -39.6937  -13.9986 C   0  0  0  0  0  0  0  0  0  0  0  0
  -15.2391  -39.5524  -13.0735 N   0  0  0  0  0  0  0  0  0  0  0  0
  -15.0004  -39.0558  -12.2577 H   0  0  0  0  0  0  0  0  0  0  0  0
  -12.9620  -39.0409  -13.6866 C   0  0  0  0  0  0  0  0  0  0  0  0
  -12.7826  -38.3366  -12.4980 C   0  0  0  0  0  0  0  0  0  0  0  0
  -11.6142  -37.6378  -12.2618 C   0  0  0  0  0  0  0  0  0  0  0  0
  -10.5968  -37.6521  -13.2029 C   0  0  0  0  0  0  0  0  0  0  0  0
  -10.7532  -38.3709  -14.3786 C   0  0  0  0  0  0  0  0  0  0  0  0
  -11.9300  -39.0550  -14.6187 C   0  0  0  0  0  0  0  0  0  0  0  0
   -9.4010  -36.9058  -12.9748 N   0  0  0  0  0  0  0  0  0  0  0  0
   -8.1527  -37.1721  -13.4420 C   0  0  0  0  0  0  0  0  0  0  0  0
   -7.3036  -36.2716  -13.0390 N   0  0  0  0  0  0  0  0  0  0  0  0
   -8.0145  -35.3609  -12.2678 N   0  0  0  0  0  0  0  0  0  0  0  0
   -9.2520  -35.7659  -12.2508 C   0  0  0  0  0  0  0  0  0  0  0  0
 18 19  2  0  0  0
  2  1  1  0  0  0
 10  1  1  0  0  0
 10 11  1  0  0  0
 19 20  1  0  0  0
 19 22  1  0  0  0
  1 20  1  0  0  0
  1  3  1  0  0  0
 11 12  1  0  0  0
 27 22  2  0  0  0
 27 26  1  0  0  0
 22 23  1  0  0  0
  3  4  1  0  0  0
 26 25  2  0  0  0
 12  4  1  0  0  0
 12 13  2  0  0  0
 23 24  2  0  0  0
  4  5  2  0  0  0
 13 14  1  0  0  0
 25 24  1  0  0  0
 25 28  1  0  0  0
 29 28  1  0  0  0
 29 30  2  0  0  0
 28 32  1  0  0  0
  5 14  1  0  0  0
  5  6  1  0  0  0
 14 15  1  0  0  0
 30 31  1  0  0  0
  7  6  1  0  0  0
  6  8  2  0  0  0
 32 31  2  0  0  0
 15 16  1  0  0  0
 15  9  2  0  0  0
  8  9  1  0  0  0
 20 21  1  0  0  0
  7 17  1  0  0  0
M  END
> <minimizedAffinity>
-7.73443

$$$$
