2BRM_DFZ_A_1275


 28 31  0  0  0  0  0  0  0  0999 V2000
    2.6273   -3.5381   21.0296 C   0  0  0  0  0  0  0  0  0  0  0  0
    5.8954   -4.6739   18.2226 C   0  0  0  0  0  0  0  0  0  0  0  0
    3.9003   -3.3332   20.7551 N   0  0  0  0  0  0  0  0  0  0  0  0
    4.4858   -3.9518   19.7227 C   0  0  0  0  0  0  0  0  0  0  0  0
    3.7569   -4.8291   18.9260 C   0  0  0  0  0  0  0  0  0  0  0  0
    2.4058   -5.0214   19.2467 C   0  0  0  0  0  0  0  0  0  0  0  0
    1.8927   -4.3542   20.2974 N   0  0  0  0  0  0  0  0  0  0  0  0
    5.7361   -3.8889   19.2835 N   0  0  0  0  0  0  0  0  0  0  0  0
    4.6627   -5.2909   17.9685 C   0  0  0  0  0  0  0  0  0  0  0  0
    6.4458   -3.3383   19.6864 H   0  0  0  0  0  0  0  0  0  0  0  0
    7.1009   -4.8324   17.5268 C   0  0  0  0  0  0  0  0  0  0  0  0
    7.8931   -5.9724   17.6227 C   0  0  0  0  0  0  0  0  0  0  0  0
    9.0843   -6.0749   16.9071 C   0  0  0  0  0  0  0  0  0  0  0  0
    9.5034   -5.0359   16.0805 C   0  0  0  0  0  0  0  0  0  0  0  0
    8.7213   -3.8912   15.9761 C   0  0  0  0  0  0  0  0  0  0  0  0
    7.5314   -3.7965   16.6972 C   0  0  0  0  0  0  0  0  0  0  0  0
    3.9375   -5.7463   15.6918 C   0  0  0  0  0  0  0  0  0  0  0  0
    3.6455   -6.6710   14.6866 C   0  0  0  0  0  0  0  0  0  0  0  0
    3.7767   -8.0397   14.9222 C   0  0  0  0  0  0  0  0  0  0  0  0
    4.2027   -8.4842   16.1711 C   0  0  0  0  0  0  0  0  0  0  0  0
    4.4893   -7.5607   17.1745 C   0  0  0  0  0  0  0  0  0  0  0  0
    4.3591   -6.1904   16.9429 C   0  0  0  0  0  0  0  0  0  0  0  0
    1.5897   -5.8343   18.5701 N   0  0  0  0  0  0  0  0  0  0  0  0
    1.1607   -5.5078   17.7464 H   0  0  0  0  0  0  0  0  0  0  0  0
    1.3164   -7.2088   19.0279 C   0  0  0  0  0  0  0  0  0  0  0  0
    0.8380   -8.0695   17.8499 C   0  0  0  0  0  0  0  0  0  0  0  0
    0.7644   -7.2680   16.6603 O   0  0  0  0  0  0  0  0  0  0  0  0
    0.1379   -6.5405   16.7989 H   0  0  0  0  0  0  0  0  0  0  0  0
  1  3  2  0  0  0
  1  7  1  0  0  0
  2 11  1  0  0  0
  2  8  1  0  0  0
  2  9  2  0  0  0
 11 12  2  0  0  0
 11 16  1  0  0  0
 12 13  1  0  0  0
 13 14  2  0  0  0
 14 15  1  0  0  0
 15 16  2  0  0  0
 17 18  2  0  0  0
 17 22  1  0  0  0
 18 19  1  0  0  0
 19 20  2  0  0  0
 20 21  1  0  0  0
  3  4  1  0  0  0
  4  5  2  0  0  0
  4  8  1  0  0  0
  5  6  1  0  0  0
  5  9  1  0  0  0
 23  6  1  0  0  0
 23 25  1  0  0  0
  6  7  2  0  0  0
 21 22  2  0  0  0
  9 22  1  0  0  0
 26 25  1  0  0  0
 26 27  1  0  0  0
 23 24  1  0  0  0
  8 10  1  0  0  0
 27 28  1  0  0  0
M  END
> <minimizedAffinity>
-8.00330

$$$$
2BRM_DFZ_A_1275


 28 31  0  0  0  0  0  0  0  0999 V2000
    5.8393   -6.1435   13.8722 C   0  0  0  0  0  0  0  0  0  0  0  0
    2.2885   -6.3006   16.5586 C   0  0  0  0  0  0  0  0  0  0  0  0
    4.5989   -6.5820   13.9559 N   0  0  0  0  0  0  0  0  0  0  0  0
    3.8693   -6.3649   15.0567 C   0  0  0  0  0  0  0  0  0  0  0  0
    4.4153   -5.6765   16.1354 C   0  0  0  0  0  0  0  0  0  0  0  0
    5.7363   -5.2240   16.0105 C   0  0  0  0  0  0  0  0  0  0  0  0
    6.3977   -5.4779   14.8657 N   0  0  0  0  0  0  0  0  0  0  0  0
    2.6229   -6.7189   15.3419 N   0  0  0  0  0  0  0  0  0  0  0  0
    3.4017   -5.6392   17.0955 C   0  0  0  0  0  0  0  0  0  0  0  0
    2.0293   -7.2206   14.7377 H   0  0  0  0  0  0  0  0  0  0  0  0
    1.0406   -6.5179   17.1572 C   0  0  0  0  0  0  0  0  0  0  0  0
    0.1282   -5.4983   17.4110 C   0  0  0  0  0  0  0  0  0  0  0  0
   -1.0994   -5.7733   18.0101 C   0  0  0  0  0  0  0  0  0  0  0  0
   -1.4359   -7.0767   18.3653 C   0  0  0  0  0  0  0  0  0  0  0  0
   -0.5330   -8.1045   18.1176 C   0  0  0  0  0  0  0  0  0  0  0  0
    0.6941   -7.8200   17.5191 C   0  0  0  0  0  0  0  0  0  0  0  0
    4.0296   -5.7066   19.4445 C   0  0  0  0  0  0  0  0  0  0  0  0
    4.1210   -5.0659   20.6821 C   0  0  0  0  0  0  0  0  0  0  0  0
    3.6931   -3.7465   20.8309 C   0  0  0  0  0  0  0  0  0  0  0  0
    3.1712   -3.0656   19.7341 C   0  0  0  0  0  0  0  0  0  0  0  0
    3.0764   -3.7076   18.5010 C   0  0  0  0  0  0  0  0  0  0  0  0
    3.5032   -5.0278   18.3480 C   0  0  0  0  0  0  0  0  0  0  0  0
    6.3856   -4.5529   16.9657 N   0  0  0  0  0  0  0  0  0  0  0  0
    5.8851   -3.9289   17.5396 H   0  0  0  0  0  0  0  0  0  0  0  0
    7.8339   -4.7247   17.1809 C   0  0  0  0  0  0  0  0  0  0  0  0
    8.6026   -3.5647   16.5323 C   0  0  0  0  0  0  0  0  0  0  0  0
    9.2071   -4.0070   15.3067 O   0  0  0  0  0  0  0  0  0  0  0  0
    9.8229   -4.7328   15.4934 H   0  0  0  0  0  0  0  0  0  0  0  0
  1  3  2  0  0  0
  1  7  1  0  0  0
  2 11  1  0  0  0
  2  8  1  0  0  0
  2  9  2  0  0  0
 11 12  2  0  0  0
 11 16  1  0  0  0
 12 13  1  0  0  0
 13 14  2  0  0  0
 14 15  1  0  0  0
 15 16  2  0  0  0
 17 18  2  0  0  0
 17 22  1  0  0  0
 18 19  1  0  0  0
 19 20  2  0  0  0
 20 21  1  0  0  0
  3  4  1  0  0  0
  4  5  2  0  0  0
  4  8  1  0  0  0
  5  6  1  0  0  0
  5  9  1  0  0  0
 23  6  1  0  0  0
 23 25  1  0  0  0
  6  7  2  0  0  0
 21 22  2  0  0  0
  9 22  1  0  0  0
 26 25  1  0  0  0
 26 27  1  0  0  0
 23 24  1  0  0  0
  8 10  1  0  0  0
 27 28  1  0  0  0
M  END
> <minimizedAffinity>
-7.61028

$$$$
2BRM_DFZ_A_1275


 28 31  0  0  0  0  0  0  0  0999 V2000
    3.4285  -10.0835   16.2402 C   0  0  0  0  0  0  0  0  0  0  0  0
    5.4898   -6.2467   17.1780 C   0  0  0  0  0  0  0  0  0  0  0  0
    4.5390   -9.4046   16.0312 N   0  0  0  0  0  0  0  0  0  0  0  0
    4.7117   -8.1923   16.5714 C   0  0  0  0  0  0  0  0  0  0  0  0
    3.7136   -7.6268   17.3585 C   0  0  0  0  0  0  0  0  0  0  0  0
    2.5472   -8.3779   17.5601 C   0  0  0  0  0  0  0  0  0  0  0  0
    2.4572   -9.5927   16.9868 N   0  0  0  0  0  0  0  0  0  0  0  0
    5.7359   -7.3536   16.4841 N   0  0  0  0  0  0  0  0  0  0  0  0
    4.2141   -6.3809   17.7431 C   0  0  0  0  0  0  0  0  0  0  0  0
    6.5618   -7.5265   15.9770 H   0  0  0  0  0  0  0  0  0  0  0  0
    6.3725   -5.1640   17.2839 C   0  0  0  0  0  0  0  0  0  0  0  0
    6.6406   -4.5127   18.4840 C   0  0  0  0  0  0  0  0  0  0  0  0
    7.5283   -3.4396   18.5297 C   0  0  0  0  0  0  0  0  0  0  0  0
    8.1650   -2.9997   17.3724 C   0  0  0  0  0  0  0  0  0  0  0  0
    7.9055   -3.6416   16.1667 C   0  0  0  0  0  0  0  0  0  0  0  0
    7.0144   -4.7137   16.1299 C   0  0  0  0  0  0  0  0  0  0  0  0
    3.7698   -5.4250   19.9352 C   0  0  0  0  0  0  0  0  0  0  0  0
    3.0901   -4.4944   20.7243 C   0  0  0  0  0  0  0  0  0  0  0  0
    2.1908   -3.5976   20.1473 C   0  0  0  0  0  0  0  0  0  0  0  0
    1.9714   -3.6332   18.7727 C   0  0  0  0  0  0  0  0  0  0  0  0
    2.6468   -4.5653   17.9872 C   0  0  0  0  0  0  0  0  0  0  0  0
    3.5473   -5.4645   18.5608 C   0  0  0  0  0  0  0  0  0  0  0  0
    1.5100   -7.9586   18.2901 N   0  0  0  0  0  0  0  0  0  0  0  0
    1.5837   -7.9541   19.2718 H   0  0  0  0  0  0  0  0  0  0  0  0
    0.2576   -7.5024   17.6602 C   0  0  0  0  0  0  0  0  0  0  0  0
   -0.4611   -6.5061   18.5812 C   0  0  0  0  0  0  0  0  0  0  0  0
    0.0207   -6.6525   19.9263 O   0  0  0  0  0  0  0  0  0  0  0  0
   -0.1532   -7.5553   20.2356 H   0  0  0  0  0  0  0  0  0  0  0  0
  1  3  2  0  0  0
  1  7  1  0  0  0
  2 11  1  0  0  0
  2  8  1  0  0  0
  2  9  2  0  0  0
 11 12  2  0  0  0
 11 16  1  0  0  0
 12 13  1  0  0  0
 13 14  2  0  0  0
 14 15  1  0  0  0
 15 16  2  0  0  0
 17 18  2  0  0  0
 17 22  1  0  0  0
 18 19  1  0  0  0
 19 20  2  0  0  0
 20 21  1  0  0  0
  3  4  1  0  0  0
  4  5  2  0  0  0
  4  8  1  0  0  0
  5  6  1  0  0  0
  5  9  1  0  0  0
 23  6  1  0  0  0
 23 25  1  0  0  0
  6  7  2  0  0  0
 21 22  2  0  0  0
  9 22  1  0  0  0
 26 25  1  0  0  0
 26 27  1  0  0  0
 23 24  1  0  0  0
  8 10  1  0  0  0
 27 28  1  0  0  0
M  END
> <minimizedAffinity>
-7.60489

$$$$
2BRM_DFZ_A_1275


 28 31  0  0  0  0  0  0  0  0999 V2000
    8.6532   -6.4189   14.8543 C   0  0  0  0  0  0  0  0  0  0  0  0
    5.7455   -5.0464   17.9383 C   0  0  0  0  0  0  0  0  0  0  0  0
    8.4923   -5.5657   15.8463 N   0  0  0  0  0  0  0  0  0  0  0  0
    7.3459   -5.5265   16.5359 C   0  0  0  0  0  0  0  0  0  0  0  0
    6.3011   -6.3849   16.2086 C   0  0  0  0  0  0  0  0  0  0  0  0
    6.5083   -7.2793   15.1492 C   0  0  0  0  0  0  0  0  0  0  0  0
    7.6943   -7.2589   14.5126 N   0  0  0  0  0  0  0  0  0  0  0  0
    6.9831   -4.7538   17.5514 N   0  0  0  0  0  0  0  0  0  0  0  0
    5.2778   -6.0733   17.1066 C   0  0  0  0  0  0  0  0  0  0  0  0
    7.5505   -4.0612   17.9608 H   0  0  0  0  0  0  0  0  0  0  0  0
    5.0692   -4.4065   18.9851 C   0  0  0  0  0  0  0  0  0  0  0  0
    4.1523   -5.0524   19.8088 C   0  0  0  0  0  0  0  0  0  0  0  0
    3.5084   -4.3647   20.8354 C   0  0  0  0  0  0  0  0  0  0  0  0
    3.7726   -3.0157   21.0562 C   0  0  0  0  0  0  0  0  0  0  0  0
    4.6862   -2.3584   20.2399 C   0  0  0  0  0  0  0  0  0  0  0  0
    5.3248   -3.0541   19.2138 C   0  0  0  0  0  0  0  0  0  0  0  0
    3.8713   -7.9456   17.7644 C   0  0  0  0  0  0  0  0  0  0  0  0
    2.6113   -8.5472   17.7992 C   0  0  0  0  0  0  0  0  0  0  0  0
    1.5064   -7.9122   17.2318 C   0  0  0  0  0  0  0  0  0  0  0  0
    1.6646   -6.6682   16.6265 C   0  0  0  0  0  0  0  0  0  0  0  0
    2.9233   -6.0712   16.5885 C   0  0  0  0  0  0  0  0  0  0  0  0
    4.0314   -6.7034   17.1549 C   0  0  0  0  0  0  0  0  0  0  0  0
    5.5933   -8.1564   14.7272 N   0  0  0  0  0  0  0  0  0  0  0  0
    4.7239   -7.8261   14.4043 H   0  0  0  0  0  0  0  0  0  0  0  0
    5.8547   -9.6073   14.7337 C   0  0  0  0  0  0  0  0  0  0  0  0
    5.8115  -10.1553   13.3001 C   0  0  0  0  0  0  0  0  0  0  0  0
    6.6817   -9.3830   12.4579 O   0  0  0  0  0  0  0  0  0  0  0  0
    6.3908   -8.4577   12.4544 H   0  0  0  0  0  0  0  0  0  0  0  0
  1  3  2  0  0  0
  1  7  1  0  0  0
  2 11  1  0  0  0
  2  8  1  0  0  0
  2  9  2  0  0  0
 11 12  2  0  0  0
 11 16  1  0  0  0
 12 13  1  0  0  0
 13 14  2  0  0  0
 14 15  1  0  0  0
 15 16  2  0  0  0
 17 18  2  0  0  0
 17 22  1  0  0  0
 18 19  1  0  0  0
 19 20  2  0  0  0
 20 21  1  0  0  0
  3  4  1  0  0  0
  4  5  2  0  0  0
  4  8  1  0  0  0
  5  6  1  0  0  0
  5  9  1  0  0  0
 23  6  1  0  0  0
 23 25  1  0  0  0
  6  7  2  0  0  0
 21 22  2  0  0  0
  9 22  1  0  0  0
 26 25  1  0  0  0
 26 27  1  0  0  0
 23 24  1  0  0  0
  8 10  1  0  0  0
 27 28  1  0  0  0
M  END
> <minimizedAffinity>
-7.53983

$$$$
2BRM_DFZ_A_1275


 28 31  0  0  0  0  0  0  0  0999 V2000
    7.5705   -2.8717   18.6523 C   0  0  0  0  0  0  0  0  0  0  0  0
    6.2254   -6.3397   16.2002 C   0  0  0  0  0  0  0  0  0  0  0  0
    7.9313   -3.6694   17.6668 N   0  0  0  0  0  0  0  0  0  0  0  0
    7.1192   -4.6460   17.2449 C   0  0  0  0  0  0  0  0  0  0  0  0
    5.8804   -4.8376   17.8485 C   0  0  0  0  0  0  0  0  0  0  0  0
    5.5297   -3.9697   18.8921 C   0  0  0  0  0  0  0  0  0  0  0  0
    6.4017   -3.0085   19.2499 N   0  0  0  0  0  0  0  0  0  0  0  0
    7.2891   -5.5470   16.2860 N   0  0  0  0  0  0  0  0  0  0  0  0
    5.3123   -5.9237   17.1789 C   0  0  0  0  0  0  0  0  0  0  0  0
    8.0901   -5.6185   15.7181 H   0  0  0  0  0  0  0  0  0  0  0  0
    6.0940   -7.3951   15.2884 C   0  0  0  0  0  0  0  0  0  0  0  0
    6.2667   -8.7310   15.6376 C   0  0  0  0  0  0  0  0  0  0  0  0
    6.1240   -9.7403   14.6875 C   0  0  0  0  0  0  0  0  0  0  0  0
    5.8044   -9.4288   13.3687 C   0  0  0  0  0  0  0  0  0  0  0  0
    5.6296   -8.0979   13.0066 C   0  0  0  0  0  0  0  0  0  0  0  0
    5.7760   -7.0942   13.9637 C   0  0  0  0  0  0  0  0  0  0  0  0
    3.8531   -7.3564   18.4960 C   0  0  0  0  0  0  0  0  0  0  0  0
    2.5789   -7.8739   18.7395 C   0  0  0  0  0  0  0  0  0  0  0  0
    1.4971   -7.4992   17.9424 C   0  0  0  0  0  0  0  0  0  0  0  0
    1.6929   -6.6016   16.8961 C   0  0  0  0  0  0  0  0  0  0  0  0
    2.9657   -6.0897   16.6513 C   0  0  0  0  0  0  0  0  0  0  0  0
    4.0507   -6.4622   17.4465 C   0  0  0  0  0  0  0  0  0  0  0  0
    4.3752   -4.0394   19.5605 N   0  0  0  0  0  0  0  0  0  0  0  0
    4.1614   -4.8564   20.0665 H   0  0  0  0  0  0  0  0  0  0  0  0
    3.4138   -2.9218   19.5584 C   0  0  0  0  0  0  0  0  0  0  0  0
    2.1167   -3.3460   18.8550 C   0  0  0  0  0  0  0  0  0  0  0  0
    1.4908   -2.1999   18.2567 O   0  0  0  0  0  0  0  0  0  0  0  0
    1.2822   -1.5492   18.9451 H   0  0  0  0  0  0  0  0  0  0  0  0
  1  3  2  0  0  0
  1  7  1  0  0  0
  2 11  1  0  0  0
  2  8  1  0  0  0
  2  9  2  0  0  0
 11 12  2  0  0  0
 11 16  1  0  0  0
 12 13  1  0  0  0
 13 14  2  0  0  0
 14 15  1  0  0  0
 15 16  2  0  0  0
 17 18  2  0  0  0
 17 22  1  0  0  0
 18 19  1  0  0  0
 19 20  2  0  0  0
 20 21  1  0  0  0
  3  4  1  0  0  0
  4  5  2  0  0  0
  4  8  1  0  0  0
  5  6  1  0  0  0
  5  9  1  0  0  0
 23  6  1  0  0  0
 23 25  1  0  0  0
  6  7  2  0  0  0
 21 22  2  0  0  0
  9 22  1  0  0  0
 26 25  1  0  0  0
 26 27  1  0  0  0
 23 24  1  0  0  0
  8 10  1  0  0  0
 27 28  1  0  0  0
M  END
> <minimizedAffinity>
-7.53627

$$$$
2BRM_DFZ_A_1275


 28 31  0  0  0  0  0  0  0  0999 V2000
    7.8459   -3.4345   17.9226 C   0  0  0  0  0  0  0  0  0  0  0  0
    5.8245   -6.5100   15.4118 C   0  0  0  0  0  0  0  0  0  0  0  0
    7.9478   -4.1071   16.7935 N   0  0  0  0  0  0  0  0  0  0  0  0
    7.0112   -4.9952   16.4392 C   0  0  0  0  0  0  0  0  0  0  0  0
    5.9160   -5.2265   17.2655 C   0  0  0  0  0  0  0  0  0  0  0  0
    5.8401   -4.4923   18.4573 C   0  0  0  0  0  0  0  0  0  0  0  0
    6.8210   -3.6129   18.7348 N   0  0  0  0  0  0  0  0  0  0  0  0
    6.9263   -5.7678   15.3641 N   0  0  0  0  0  0  0  0  0  0  0  0
    5.1600   -6.1981   16.6059 C   0  0  0  0  0  0  0  0  0  0  0  0
    7.5863   -5.7886   14.6339 H   0  0  0  0  0  0  0  0  0  0  0  0
    5.4463   -7.4327   14.4278 C   0  0  0  0  0  0  0  0  0  0  0  0
    4.5546   -7.1324   13.4026 C   0  0  0  0  0  0  0  0  0  0  0  0
    4.2140   -8.0913   12.4506 C   0  0  0  0  0  0  0  0  0  0  0  0
    4.7622   -9.3698   12.5082 C   0  0  0  0  0  0  0  0  0  0  0  0
    5.6541   -9.6828   13.5278 C   0  0  0  0  0  0  0  0  0  0  0  0
    5.9880   -8.7175   14.4773 C   0  0  0  0  0  0  0  0  0  0  0  0
    3.9264   -7.8220   17.9316 C   0  0  0  0  0  0  0  0  0  0  0  0
    2.7033   -8.3261   18.3796 C   0  0  0  0  0  0  0  0  0  0  0  0
    1.5037   -7.7407   17.9743 C   0  0  0  0  0  0  0  0  0  0  0  0
    1.5296   -6.6446   17.1160 C   0  0  0  0  0  0  0  0  0  0  0  0
    2.7504   -6.1455   16.6661 C   0  0  0  0  0  0  0  0  0  0  0  0
    3.9529   -6.7286   17.0691 C   0  0  0  0  0  0  0  0  0  0  0  0
    4.8477   -4.6139   19.3433 N   0  0  0  0  0  0  0  0  0  0  0  0
    4.8967   -5.3217   20.0257 H   0  0  0  0  0  0  0  0  0  0  0  0
    3.6809   -3.7130   19.3231 C   0  0  0  0  0  0  0  0  0  0  0  0
    3.7676   -2.7150   20.4867 C   0  0  0  0  0  0  0  0  0  0  0  0
    4.8499   -1.7980   20.2612 O   0  0  0  0  0  0  0  0  0  0  0  0
    5.6835   -2.2903   20.2006 H   0  0  0  0  0  0  0  0  0  0  0  0
  1  3  2  0  0  0
  1  7  1  0  0  0
  2 11  1  0  0  0
  2  8  1  0  0  0
  2  9  2  0  0  0
 11 12  2  0  0  0
 11 16  1  0  0  0
 12 13  1  0  0  0
 13 14  2  0  0  0
 14 15  1  0  0  0
 15 16  2  0  0  0
 17 18  2  0  0  0
 17 22  1  0  0  0
 18 19  1  0  0  0
 19 20  2  0  0  0
 20 21  1  0  0  0
  3  4  1  0  0  0
  4  5  2  0  0  0
  4  8  1  0  0  0
  5  6  1  0  0  0
  5  9  1  0  0  0
 23  6  1  0  0  0
 23 25  1  0  0  0
  6  7  2  0  0  0
 21 22  2  0  0  0
  9 22  1  0  0  0
 26 25  1  0  0  0
 26 27  1  0  0  0
 23 24  1  0  0  0
  8 10  1  0  0  0
 27 28  1  0  0  0
M  END
> <minimizedAffinity>
-7.46831

$$$$
2BRM_DFZ_A_1275


 28 31  0  0  0  0  0  0  0  0999 V2000
   -1.3256   -7.9518   17.8907 C   0  0  0  0  0  0  0  0  0  0  0  0
    2.7718   -6.5054   16.9065 C   0  0  0  0  0  0  0  0  0  0  0  0
   -0.3488   -8.0681   17.0131 N   0  0  0  0  0  0  0  0  0  0  0  0
    0.7859   -7.3729   17.1563 C   0  0  0  0  0  0  0  0  0  0  0  0
    0.9474   -6.5086   18.2345 C   0  0  0  0  0  0  0  0  0  0  0  0
   -0.1114   -6.4114   19.1481 C   0  0  0  0  0  0  0  0  0  0  0  0
   -1.2155   -7.1516   18.9344 N   0  0  0  0  0  0  0  0  0  0  0  0
    1.8733   -7.3421   16.3968 N   0  0  0  0  0  0  0  0  0  0  0  0
    2.2185   -5.9536   18.0701 C   0  0  0  0  0  0  0  0  0  0  0  0
    1.9973   -7.8653   15.5721 H   0  0  0  0  0  0  0  0  0  0  0  0
    4.0259   -6.2458   16.3386 C   0  0  0  0  0  0  0  0  0  0  0  0
    5.2088   -6.2396   17.0715 C   0  0  0  0  0  0  0  0  0  0  0  0
    6.4289   -5.9740   16.4532 C   0  0  0  0  0  0  0  0  0  0  0  0
    6.4861   -5.7105   15.0873 C   0  0  0  0  0  0  0  0  0  0  0  0
    5.3114   -5.7132   14.3436 C   0  0  0  0  0  0  0  0  0  0  0  0
    4.0944   -5.9784   14.9710 C   0  0  0  0  0  0  0  0  0  0  0  0
    3.5337   -5.4490   20.0531 C   0  0  0  0  0  0  0  0  0  0  0  0
    4.1173   -4.5027   20.8984 C   0  0  0  0  0  0  0  0  0  0  0  0
    3.9876   -3.1392   20.6333 C   0  0  0  0  0  0  0  0  0  0  0  0
    3.2697   -2.7218   19.5157 C   0  0  0  0  0  0  0  0  0  0  0  0
    2.6841   -3.6669   18.6756 C   0  0  0  0  0  0  0  0  0  0  0  0
    2.8113   -5.0320   18.9375 C   0  0  0  0  0  0  0  0  0  0  0  0
   -0.0935   -5.6216   20.2253 N   0  0  0  0  0  0  0  0  0  0  0  0
    0.7163   -5.5893   20.7842 H   0  0  0  0  0  0  0  0  0  0  0  0
   -1.2579   -4.7973   20.5969 C   0  0  0  0  0  0  0  0  0  0  0  0
   -0.8654   -3.7982   21.6948 C   0  0  0  0  0  0  0  0  0  0  0  0
    0.5311   -3.4801   21.5861 O   0  0  0  0  0  0  0  0  0  0  0  0
    1.0559   -4.2894   21.6889 H   0  0  0  0  0  0  0  0  0  0  0  0
  1  3  2  0  0  0
  1  7  1  0  0  0
  2 11  1  0  0  0
  2  8  1  0  0  0
  2  9  2  0  0  0
 11 12  2  0  0  0
 11 16  1  0  0  0
 12 13  1  0  0  0
 13 14  2  0  0  0
 14 15  1  0  0  0
 15 16  2  0  0  0
 17 18  2  0  0  0
 17 22  1  0  0  0
 18 19  1  0  0  0
 19 20  2  0  0  0
 20 21  1  0  0  0
  3  4  1  0  0  0
  4  5  2  0  0  0
  4  8  1  0  0  0
  5  6  1  0  0  0
  5  9  1  0  0  0
 23  6  1  0  0  0
 23 25  1  0  0  0
  6  7  2  0  0  0
 21 22  2  0  0  0
  9 22  1  0  0  0
 26 25  1  0  0  0
 26 27  1  0  0  0
 23 24  1  0  0  0
  8 10  1  0  0  0
 27 28  1  0  0  0
M  END
> <minimizedAffinity>
-7.42004

$$$$
2BRM_DFZ_A_1275


 28 31  0  0  0  0  0  0  0  0999 V2000
    5.6265  -10.0863   13.2217 C   0  0  0  0  0  0  0  0  0  0  0  0
    6.2337   -6.6875   16.0375 C   0  0  0  0  0  0  0  0  0  0  0  0
    6.5070   -9.1878   13.6157 N   0  0  0  0  0  0  0  0  0  0  0  0
    6.2021   -8.3060   14.5752 C   0  0  0  0  0  0  0  0  0  0  0  0
    4.9431   -8.3213   15.1672 C   0  0  0  0  0  0  0  0  0  0  0  0
    4.0332   -9.2913   14.7241 C   0  0  0  0  0  0  0  0  0  0  0  0
    4.4229  -10.1460   13.7596 N   0  0  0  0  0  0  0  0  0  0  0  0
    6.9302   -7.3328   15.1071 N   0  0  0  0  0  0  0  0  0  0  0  0
    4.9663   -7.2828   16.1009 C   0  0  0  0  0  0  0  0  0  0  0  0
    7.8558   -7.1187   14.8491 H   0  0  0  0  0  0  0  0  0  0  0  0
    6.7185   -5.6054   16.7834 C   0  0  0  0  0  0  0  0  0  0  0  0
    6.6979   -5.5671   18.1743 C   0  0  0  0  0  0  0  0  0  0  0  0
    7.1939   -4.4628   18.8644 C   0  0  0  0  0  0  0  0  0  0  0  0
    7.7213   -3.3759   18.1724 C   0  0  0  0  0  0  0  0  0  0  0  0
    7.7474   -3.4014   16.7825 C   0  0  0  0  0  0  0  0  0  0  0  0
    7.2472   -4.5100   16.1000 C   0  0  0  0  0  0  0  0  0  0  0  0
    2.9648   -5.9829   16.5707 C   0  0  0  0  0  0  0  0  0  0  0  0
    1.9161   -5.6628   17.4359 C   0  0  0  0  0  0  0  0  0  0  0  0
    1.8001   -6.2952   18.6740 C   0  0  0  0  0  0  0  0  0  0  0  0
    2.7393   -7.2531   19.0470 C   0  0  0  0  0  0  0  0  0  0  0  0
    3.7877   -7.5681   18.1846 C   0  0  0  0  0  0  0  0  0  0  0  0
    3.9075   -6.9375   16.9452 C   0  0  0  0  0  0  0  0  0  0  0  0
    2.7924   -9.4198   15.2019 N   0  0  0  0  0  0  0  0  0  0  0  0
    2.0821   -8.8304   14.8595 H   0  0  0  0  0  0  0  0  0  0  0  0
    2.4616  -10.4234   16.2299 C   0  0  0  0  0  0  0  0  0  0  0  0
    1.7247  -11.6084   15.5894 C   0  0  0  0  0  0  0  0  0  0  0  0
    1.1758  -12.4513   16.6148 O   0  0  0  0  0  0  0  0  0  0  0  0
    1.8927  -12.7869   17.1755 H   0  0  0  0  0  0  0  0  0  0  0  0
  1  3  2  0  0  0
  1  7  1  0  0  0
  2 11  1  0  0  0
  2  8  1  0  0  0
  2  9  2  0  0  0
 11 12  2  0  0  0
 11 16  1  0  0  0
 12 13  1  0  0  0
 13 14  2  0  0  0
 14 15  1  0  0  0
 15 16  2  0  0  0
 17 18  2  0  0  0
 17 22  1  0  0  0
 18 19  1  0  0  0
 19 20  2  0  0  0
 20 21  1  0  0  0
  3  4  1  0  0  0
  4  5  2  0  0  0
  4  8  1  0  0  0
  5  6  1  0  0  0
  5  9  1  0  0  0
 23  6  1  0  0  0
 23 25  1  0  0  0
  6  7  2  0  0  0
 21 22  2  0  0  0
  9 22  1  0  0  0
 26 25  1  0  0  0
 26 27  1  0  0  0
 23 24  1  0  0  0
  8 10  1  0  0  0
 27 28  1  0  0  0
M  END
> <minimizedAffinity>
-7.37731

$$$$
2BRM_DFZ_A_1275


 28 31  0  0  0  0  0  0  0  0999 V2000
    5.4313   -2.1629   19.9592 C   0  0  0  0  0  0  0  0  0  0  0  0
    1.8671   -4.6965   19.1069 C   0  0  0  0  0  0  0  0  0  0  0  0
    4.1302   -2.2515   20.1517 N   0  0  0  0  0  0  0  0  0  0  0  0
    3.4352   -3.2858   19.6633 C   0  0  0  0  0  0  0  0  0  0  0  0
    4.0787   -4.2822   18.9362 C   0  0  0  0  0  0  0  0  0  0  0  0
    5.4627   -4.1556   18.7525 C   0  0  0  0  0  0  0  0  0  0  0  0
    6.0872   -3.0877   19.2838 N   0  0  0  0  0  0  0  0  0  0  0  0
    2.1393   -3.5595   19.7396 N   0  0  0  0  0  0  0  0  0  0  0  0
    3.0718   -5.1820   18.5798 C   0  0  0  0  0  0  0  0  0  0  0  0
    1.4731   -2.9996   20.1999 H   0  0  0  0  0  0  0  0  0  0  0  0
    0.5887   -5.2597   19.0021 C   0  0  0  0  0  0  0  0  0  0  0  0
   -0.0723   -5.4317   17.7897 C   0  0  0  0  0  0  0  0  0  0  0  0
   -1.3448   -5.9978   17.7457 C   0  0  0  0  0  0  0  0  0  0  0  0
   -1.9785   -6.4033   18.9172 C   0  0  0  0  0  0  0  0  0  0  0  0
   -1.3291   -6.2365   20.1352 C   0  0  0  0  0  0  0  0  0  0  0  0
   -0.0564   -5.6675   20.1701 C   0  0  0  0  0  0  0  0  0  0  0  0
    3.4139   -7.5881   18.4791 C   0  0  0  0  0  0  0  0  0  0  0  0
    3.6024   -8.7436   17.7175 C   0  0  0  0  0  0  0  0  0  0  0  0
    3.6390   -8.6767   16.3246 C   0  0  0  0  0  0  0  0  0  0  0  0
    3.4860   -7.4460   15.6915 C   0  0  0  0  0  0  0  0  0  0  0  0
    3.3027   -6.2933   16.4528 C   0  0  0  0  0  0  0  0  0  0  0  0
    3.2656   -6.3560   17.8467 C   0  0  0  0  0  0  0  0  0  0  0  0
    6.2062   -5.0350   18.0754 N   0  0  0  0  0  0  0  0  0  0  0  0
    6.0982   -5.9965   18.2574 H   0  0  0  0  0  0  0  0  0  0  0  0
    7.1846   -4.5996   17.0622 C   0  0  0  0  0  0  0  0  0  0  0  0
    6.8249   -5.1965   15.6941 C   0  0  0  0  0  0  0  0  0  0  0  0
    7.8487   -4.8754   14.7391 O   0  0  0  0  0  0  0  0  0  0  0  0
    7.9234   -3.9117   14.6570 H   0  0  0  0  0  0  0  0  0  0  0  0
  1  3  2  0  0  0
  1  7  1  0  0  0
  2 11  1  0  0  0
  2  8  1  0  0  0
  2  9  2  0  0  0
 11 12  2  0  0  0
 11 16  1  0  0  0
 12 13  1  0  0  0
 13 14  2  0  0  0
 14 15  1  0  0  0
 15 16  2  0  0  0
 17 18  2  0  0  0
 17 22  1  0  0  0
 18 19  1  0  0  0
 19 20  2  0  0  0
 20 21  1  0  0  0
  3  4  1  0  0  0
  4  5  2  0  0  0
  4  8  1  0  0  0
  5  6  1  0  0  0
  5  9  1  0  0  0
 23  6  1  0  0  0
 23 25  1  0  0  0
  6  7  2  0  0  0
 21 22  2  0  0  0
  9 22  1  0  0  0
 26 25  1  0  0  0
 26 27  1  0  0  0
 23 24  1  0  0  0
  8 10  1  0  0  0
 27 28  1  0  0  0
M  END
> <minimizedAffinity>
-7.33512

$$$$
2BRM_DFZ_A_1275


 28 31  0  0  0  0  0  0  0  0999 V2000
    7.6324   -2.6223   18.8427 C   0  0  0  0  0  0  0  0  0  0  0  0
    4.3920   -5.5219   17.8725 C   0  0  0  0  0  0  0  0  0  0  0  0
    6.4890   -3.1111   19.2803 N   0  0  0  0  0  0  0  0  0  0  0  0
    5.8326   -4.0456   18.5824 C   0  0  0  0  0  0  0  0  0  0  0  0
    6.3473   -4.5106   17.3763 C   0  0  0  0  0  0  0  0  0  0  0  0
    7.5657   -3.9693   16.9430 C   0  0  0  0  0  0  0  0  0  0  0  0
    8.1648   -3.0384   17.7091 N   0  0  0  0  0  0  0  0  0  0  0  0
    4.6838   -4.6574   18.8393 N   0  0  0  0  0  0  0  0  0  0  0  0
    5.4216   -5.4535   16.9239 C   0  0  0  0  0  0  0  0  0  0  0  0
    4.1260   -4.4943   19.6340 H   0  0  0  0  0  0  0  0  0  0  0  0
    3.2437   -6.3239   17.8453 C   0  0  0  0  0  0  0  0  0  0  0  0
    3.2159   -7.6328   18.3170 C   0  0  0  0  0  0  0  0  0  0  0  0
    2.0439   -8.3847   18.2642 C   0  0  0  0  0  0  0  0  0  0  0  0
    0.8767   -7.8376   17.7381 C   0  0  0  0  0  0  0  0  0  0  0  0
    0.8912   -6.5310   17.2630 C   0  0  0  0  0  0  0  0  0  0  0  0
    2.0690   -5.7864   17.3183 C   0  0  0  0  0  0  0  0  0  0  0  0
    5.0195   -5.7234   14.5401 C   0  0  0  0  0  0  0  0  0  0  0  0
    5.1571   -6.4851   13.3776 C   0  0  0  0  0  0  0  0  0  0  0  0
    5.8163   -7.7142   13.4090 C   0  0  0  0  0  0  0  0  0  0  0  0
    6.3404   -8.1823   14.6111 C   0  0  0  0  0  0  0  0  0  0  0  0
    6.1984   -7.4234   15.7711 C   0  0  0  0  0  0  0  0  0  0  0  0
    5.5393   -6.1932   15.7440 C   0  0  0  0  0  0  0  0  0  0  0  0
    8.1729   -4.3212   15.8063 N   0  0  0  0  0  0  0  0  0  0  0  0
    7.8793   -3.9151   14.9589 H   0  0  0  0  0  0  0  0  0  0  0  0
    9.2723   -5.3032   15.7910 C   0  0  0  0  0  0  0  0  0  0  0  0
   10.6056   -4.5948   15.5119 C   0  0  0  0  0  0  0  0  0  0  0  0
   10.3824   -3.1854   15.3478 O   0  0  0  0  0  0  0  0  0  0  0  0
    9.7807   -3.0381   14.6014 H   0  0  0  0  0  0  0  0  0  0  0  0
  1  3  2  0  0  0
  1  7  1  0  0  0
  2 11  1  0  0  0
  2  8  1  0  0  0
  2  9  2  0  0  0
 11 12  2  0  0  0
 11 16  1  0  0  0
 12 13  1  0  0  0
 13 14  2  0  0  0
 14 15  1  0  0  0
 15 16  2  0  0  0
 17 18  2  0  0  0
 17 22  1  0  0  0
 18 19  1  0  0  0
 19 20  2  0  0  0
 20 21  1  0  0  0
  3  4  1  0  0  0
  4  5  2  0  0  0
  4  8  1  0  0  0
  5  6  1  0  0  0
  5  9  1  0  0  0
 23  6  1  0  0  0
 23 25  1  0  0  0
  6  7  2  0  0  0
 21 22  2  0  0  0
  9 22  1  0  0  0
 26 25  1  0  0  0
 26 27  1  0  0  0
 23 24  1  0  0  0
  8 10  1  0  0  0
 27 28  1  0  0  0
M  END
> <minimizedAffinity>
-7.32663

$$$$
