2Q54_MU1_B_200


 52 55  0  0  0  0  0  0  0  0999 V2000
   20.4584   -2.3665   14.9730 C   0  0  0  0  0  0  0  0  0  0  0  0
   19.5037   -3.0454   14.0905 N   0  0  0  0  0  0  0  0  0  0  0  0
   18.7197   -4.0720   14.4612 C   0  0  0  0  0  0  0  0  0  0  0  0
   18.5793   -4.4620   15.6162 O   0  0  0  0  0  0  0  0  0  0  0  0
   19.4322   -2.7268   13.1617 H   0  0  0  0  0  0  0  0  0  0  0  0
   17.9979   -4.8355   13.3702 C   0  0  0  0  0  0  0  0  0  0  0  0
   17.3106   -6.0702   13.9499 C   0  0  0  0  0  0  0  0  0  0  0  0
   18.8836   -5.3224   12.3537 O   0  0  0  0  0  0  0  0  0  0  0  0
   18.6203   -6.7294   12.1871 C   0  0  0  0  0  0  0  0  0  0  0  0
   19.1436   -7.3634   11.3172 O   0  0  0  0  0  0  0  0  0  0  0  0
   17.7533   -7.1416   13.0806 N   0  0  0  0  0  0  0  0  0  0  0  0
   17.3168   -8.4800   13.2091 C   0  0  0  0  0  0  0  0  0  0  0  0
   16.0349   -8.8666   12.8257 C   0  0  0  0  0  0  0  0  0  0  0  0
   15.6333  -10.1939   12.9639 C   0  0  0  0  0  0  0  0  0  0  0  0
   16.4945  -11.1550   13.4963 C   0  0  0  0  0  0  0  0  0  0  0  0
   18.1766   -9.4542   13.7377 C   0  0  0  0  0  0  0  0  0  0  0  0
   17.7805  -10.7903   13.8864 C   0  0  0  0  0  0  0  0  0  0  0  0
   18.7349  -11.8083   14.4672 C   0  0  0  0  0  0  0  0  0  0  0  0
   18.5190  -13.0076   14.3201 O   0  0  0  0  0  0  0  0  0  0  0  0
   19.9590  -11.3572   15.2168 C   0  0  0  0  0  0  0  0  0  0  0  0
   20.2119   -0.8613   15.1347 C   0  0  0  0  0  0  0  0  0  0  0  0
   20.1584   -0.1916   13.8578 O   0  0  0  0  0  0  0  0  0  0  0  0
   19.4072   -0.5305   13.3462 H   0  0  0  0  0  0  0  0  0  0  0  0
   18.9031   -0.5645   15.8319 C   0  0  0  0  0  0  0  0  0  0  0  0
   19.0265   -0.0636   17.2510 C   0  0  0  0  0  0  0  0  0  0  0  0
   21.2365    0.2833   18.3113 C   0  0  0  0  0  0  0  0  0  0  0  0
   21.2246   -0.7289   18.9938 O   0  0  0  0  0  0  0  0  0  0  0  0
   20.2943    0.6357   17.4416 N   0  0  0  0  0  0  0  0  0  0  0  0
   20.4645    1.4287   16.8835 H   0  0  0  0  0  0  0  0  0  0  0  0
   22.3587    1.2795   18.4490 C   0  0  0  0  0  0  0  0  0  0  0  0
   21.5645    3.9244   18.7583 O   0  0  0  0  0  0  0  0  0  0  0  0
   21.8683    3.2975   19.7576 C   0  0  0  0  0  0  0  0  0  0  0  0
   21.8771    3.9307   21.1220 C   0  0  0  0  0  0  0  0  0  0  0  0
   22.2293    2.0119   19.6984 N   0  0  0  0  0  0  0  0  0  0  0  0
   22.4166    1.5383   20.5410 H   0  0  0  0  0  0  0  0  0  0  0  0
   23.7248    0.5997   18.3501 C   0  0  0  0  0  0  0  0  0  0  0  0
   23.8812   -0.0975   17.0002 C   0  0  0  0  0  0  0  0  0  0  0  0
   24.8610    1.5964   18.6030 C   0  0  0  0  0  0  0  0  0  0  0  0
   17.8010    0.8419   17.4496 C   0  0  0  0  0  0  0  0  0  0  0  0
   17.8373    1.5883   18.7618 C   0  0  0  0  0  0  0  0  0  0  0  0
   18.0353    2.9591   18.7863 C   0  0  0  0  0  0  0  0  0  0  0  0
   18.0609    3.6369   20.0052 C   0  0  0  0  0  0  0  0  0  0  0  0
   17.8955    2.9376   21.1986 C   0  0  0  0  0  0  0  0  0  0  0  0
   17.7091    1.5645   21.1696 C   0  0  0  0  0  0  0  0  0  0  0  0
   17.6825    0.8932   19.9524 C   0  0  0  0  0  0  0  0  0  0  0  0
   21.8767   -2.5833   14.4426 C   0  0  0  0  0  0  0  0  0  0  0  0
   22.2033   -4.0607   14.4099 C   0  0  0  0  0  0  0  0  0  0  0  0
   22.4971   -4.7481   15.5934 C   0  0  0  0  0  0  0  0  0  0  0  0
   22.8098   -6.1059   15.5562 C   0  0  0  0  0  0  0  0  0  0  0  0
   22.8284   -6.7786   14.3365 C   0  0  0  0  0  0  0  0  0  0  0  0
   22.5401   -6.0875   13.1614 C   0  0  0  0  0  0  0  0  0  0  0  0
   22.2297   -4.7314   13.1918 C   0  0  0  0  0  0  0  0  0  0  0  0
 31 32  2  0  0  0
 32 34  1  0  0  0
 32 33  1  0  0  0
 34 30  1  0  0  0
 30 26  1  0  0  0
 30 36  1  0  0  0
 36 37  1  0  0  0
 36 38  1  0  0  0
 26 28  1  0  0  0
 26 27  2  0  0  0
 28 25  1  0  0  0
 25 24  1  0  0  0
 25 39  1  0  0  0
 39 40  1  0  0  0
 40 45  2  0  0  0
 40 41  1  0  0  0
 41 42  2  0  0  0
 42 43  1  0  0  0
 43 44  2  0  0  0
 44 45  1  0  0  0
 24 21  1  0  0  0
 21 22  1  0  0  0
 21  1  1  0  0  0
  1 46  1  0  0  0
  1  2  1  0  0  0
 46 47  1  0  0  0
 47 48  1  0  0  0
 47 52  2  0  0  0
 48 49  2  0  0  0
 49 50  1  0  0  0
 50 51  2  0  0  0
 51 52  1  0  0  0
  2  3  1  0  0  0
  3  6  1  0  0  0
  3  4  2  0  0  0
  6  8  1  0  0  0
  6  7  1  0  0  0
  7 11  1  0  0  0
  8  9  1  0  0  0
  9 10  2  0  0  0
  9 11  1  0  0  0
 11 12  1  0  0  0
 12 13  1  0  0  0
 12 16  2  0  0  0
 13 14  2  0  0  0
 14 15  1  0  0  0
 15 17  2  0  0  0
 16 17  1  0  0  0
 17 18  1  0  0  0
 18 20  1  0  0  0
 18 19  2  0  0  0
 34 35  1  0  0  0
 28 29  1  0  0  0
 22 23  1  0  0  0
  2  5  1  0  0  0
M  END
> <minimizedAffinity>
-10.84167

$$$$
2Q54_MU1_B_200


 52 55  0  0  0  0  0  0  0  0999 V2000
   20.6669   -0.5971   16.2251 C   0  0  0  0  0  0  0  0  0  0  0  0
   19.5076   -0.2527   17.0551 N   0  0  0  0  0  0  0  0  0  0  0  0
   18.5685    0.6472   16.7172 C   0  0  0  0  0  0  0  0  0  0  0  0
   18.4672    1.1693   15.6114 O   0  0  0  0  0  0  0  0  0  0  0  0
   19.4108   -0.7129   17.9200 H   0  0  0  0  0  0  0  0  0  0  0  0
   17.5971    1.0877   17.7927 C   0  0  0  0  0  0  0  0  0  0  0  0
   18.2147    2.1924   18.6477 C   0  0  0  0  0  0  0  0  0  0  0  0
   17.2594    0.0324   18.7023 O   0  0  0  0  0  0  0  0  0  0  0  0
   17.4746    0.5267   20.0387 C   0  0  0  0  0  0  0  0  0  0  0  0
   17.1608   -0.1147   20.9993 O   0  0  0  0  0  0  0  0  0  0  0  0
   18.0129    1.7221   20.0033 N   0  0  0  0  0  0  0  0  0  0  0  0
   18.3848    2.4627   21.1485 C   0  0  0  0  0  0  0  0  0  0  0  0
   17.4688    2.7499   22.1576 C   0  0  0  0  0  0  0  0  0  0  0  0
   17.8652    3.4819   23.2752 C   0  0  0  0  0  0  0  0  0  0  0  0
   19.1742    3.9503   23.4020 C   0  0  0  0  0  0  0  0  0  0  0  0
   19.6990    2.9329   21.2878 C   0  0  0  0  0  0  0  0  0  0  0  0
   20.1062    3.6748   22.4048 C   0  0  0  0  0  0  0  0  0  0  0  0
   21.5303    4.1696   22.5136 C   0  0  0  0  0  0  0  0  0  0  0  0
   22.0531    4.7515   21.5678 O   0  0  0  0  0  0  0  0  0  0  0  0
   22.3088    3.9626   23.7845 C   0  0  0  0  0  0  0  0  0  0  0  0
   20.3181   -1.3215   14.9188 C   0  0  0  0  0  0  0  0  0  0  0  0
   20.0907   -0.3908   13.8399 O   0  0  0  0  0  0  0  0  0  0  0  0
   20.9067    0.1021   13.6607 H   0  0  0  0  0  0  0  0  0  0  0  0
   21.4226   -2.2483   14.4626 C   0  0  0  0  0  0  0  0  0  0  0  0
   21.1480   -3.7212   14.6498 C   0  0  0  0  0  0  0  0  0  0  0  0
   18.8132   -4.5354   14.7708 C   0  0  0  0  0  0  0  0  0  0  0  0
   18.7562   -4.6164   15.9877 O   0  0  0  0  0  0  0  0  0  0  0  0
   19.8529   -4.0801   14.0781 N   0  0  0  0  0  0  0  0  0  0  0  0
   19.7411   -3.9770   13.1054 H   0  0  0  0  0  0  0  0  0  0  0  0
   17.6636   -5.0148   13.9227 C   0  0  0  0  0  0  0  0  0  0  0  0
   18.7838   -5.8195   11.5103 O   0  0  0  0  0  0  0  0  0  0  0  0
   18.4185   -6.6830   12.2880 C   0  0  0  0  0  0  0  0  0  0  0  0
   18.5072   -8.1464   11.9509 C   0  0  0  0  0  0  0  0  0  0  0  0
   17.9001   -6.3802   13.4822 N   0  0  0  0  0  0  0  0  0  0  0  0
   17.6672   -7.1167   14.0925 H   0  0  0  0  0  0  0  0  0  0  0  0
   16.3335   -4.9012   14.6683 C   0  0  0  0  0  0  0  0  0  0  0  0
   15.7869   -3.4779   14.5776 C   0  0  0  0  0  0  0  0  0  0  0  0
   15.3184   -5.9271   14.1532 C   0  0  0  0  0  0  0  0  0  0  0  0
   22.3281   -4.4252   13.9620 C   0  0  0  0  0  0  0  0  0  0  0  0
   22.1746   -5.9274   13.9391 C   0  0  0  0  0  0  0  0  0  0  0  0
   22.2837   -6.6277   12.7490 C   0  0  0  0  0  0  0  0  0  0  0  0
   22.1454   -8.0156   12.7430 C   0  0  0  0  0  0  0  0  0  0  0  0
   21.8900   -8.6987   13.9299 C   0  0  0  0  0  0  0  0  0  0  0  0
   21.7703   -7.9925   15.1164 C   0  0  0  0  0  0  0  0  0  0  0  0
   21.9106   -6.6093   15.1180 C   0  0  0  0  0  0  0  0  0  0  0  0
   21.6256   -1.4704   17.0364 C   0  0  0  0  0  0  0  0  0  0  0  0
   22.7228   -0.6211   17.6411 C   0  0  0  0  0  0  0  0  0  0  0  0
   22.5833   -0.0964   18.9314 C   0  0  0  0  0  0  0  0  0  0  0  0
   23.5912    0.6958   19.4787 C   0  0  0  0  0  0  0  0  0  0  0  0
   24.7399    0.9638   18.7376 C   0  0  0  0  0  0  0  0  0  0  0  0
   24.8704    0.4428   17.4518 C   0  0  0  0  0  0  0  0  0  0  0  0
   23.8666   -0.3466   16.8992 C   0  0  0  0  0  0  0  0  0  0  0  0
 31 32  2  0  0  0
 32 34  1  0  0  0
 32 33  1  0  0  0
 34 30  1  0  0  0
 30 26  1  0  0  0
 30 36  1  0  0  0
 36 37  1  0  0  0
 36 38  1  0  0  0
 26 28  1  0  0  0
 26 27  2  0  0  0
 28 25  1  0  0  0
 25 24  1  0  0  0
 25 39  1  0  0  0
 39 40  1  0  0  0
 40 45  2  0  0  0
 40 41  1  0  0  0
 41 42  2  0  0  0
 42 43  1  0  0  0
 43 44  2  0  0  0
 44 45  1  0  0  0
 24 21  1  0  0  0
 21 22  1  0  0  0
 21  1  1  0  0  0
  1 46  1  0  0  0
  1  2  1  0  0  0
 46 47  1  0  0  0
 47 48  1  0  0  0
 47 52  2  0  0  0
 48 49  2  0  0  0
 49 50  1  0  0  0
 50 51  2  0  0  0
 51 52  1  0  0  0
  2  3  1  0  0  0
  3  6  1  0  0  0
  3  4  2  0  0  0
  6  8  1  0  0  0
  6  7  1  0  0  0
  7 11  1  0  0  0
  8  9  1  0  0  0
  9 10  2  0  0  0
  9 11  1  0  0  0
 11 12  1  0  0  0
 12 13  1  0  0  0
 12 16  2  0  0  0
 13 14  2  0  0  0
 14 15  1  0  0  0
 15 17  2  0  0  0
 16 17  1  0  0  0
 17 18  1  0  0  0
 18 20  1  0  0  0
 18 19  2  0  0  0
 34 35  1  0  0  0
 28 29  1  0  0  0
 22 23  1  0  0  0
  2  5  1  0  0  0
M  END
> <minimizedAffinity>
-10.83176

$$$$
2Q54_MU1_B_200


 52 55  0  0  0  0  0  0  0  0999 V2000
   21.3408   -0.2210   16.0800 C   0  0  0  0  0  0  0  0  0  0  0  0
   20.5041    0.6572   16.9045 N   0  0  0  0  0  0  0  0  0  0  0  0
   19.4037    0.2607   17.5663 C   0  0  0  0  0  0  0  0  0  0  0  0
   19.0535   -0.9074   17.7026 O   0  0  0  0  0  0  0  0  0  0  0  0
   20.7668    1.6031   16.9783 H   0  0  0  0  0  0  0  0  0  0  0  0
   18.5033    1.3347   18.1409 C   0  0  0  0  0  0  0  0  0  0  0  0
   19.0358    1.8094   19.4914 C   0  0  0  0  0  0  0  0  0  0  0  0
   17.1705    0.8685   18.3883 O   0  0  0  0  0  0  0  0  0  0  0  0
   16.8380    1.2084   19.7487 C   0  0  0  0  0  0  0  0  0  0  0  0
   15.7366    1.0350   20.1838 O   0  0  0  0  0  0  0  0  0  0  0  0
   17.8788    1.7223   20.3594 N   0  0  0  0  0  0  0  0  0  0  0  0
   17.8903    2.1207   21.7156 C   0  0  0  0  0  0  0  0  0  0  0  0
   18.3310    1.2639   22.7214 C   0  0  0  0  0  0  0  0  0  0  0  0
   18.3313    1.6853   24.0496 C   0  0  0  0  0  0  0  0  0  0  0  0
   17.8825    2.9597   24.4008 C   0  0  0  0  0  0  0  0  0  0  0  0
   17.4468    3.4012   22.0780 C   0  0  0  0  0  0  0  0  0  0  0  0
   17.4374    3.8325   23.4114 C   0  0  0  0  0  0  0  0  0  0  0  0
   16.9445    5.2180   23.7611 C   0  0  0  0  0  0  0  0  0  0  0  0
   17.6829    6.1878   23.6172 O   0  0  0  0  0  0  0  0  0  0  0  0
   15.5443    5.4163   24.2747 C   0  0  0  0  0  0  0  0  0  0  0  0
   20.5660   -1.0441   15.0433 C   0  0  0  0  0  0  0  0  0  0  0  0
   19.9614   -0.2013   14.0402 O   0  0  0  0  0  0  0  0  0  0  0  0
   20.6557    0.2624   13.5463 H   0  0  0  0  0  0  0  0  0  0  0  0
   21.4529   -2.0225   14.3063 C   0  0  0  0  0  0  0  0  0  0  0  0
   21.2193   -3.4781   14.6326 C   0  0  0  0  0  0  0  0  0  0  0  0
   18.9520   -4.4537   14.8230 C   0  0  0  0  0  0  0  0  0  0  0  0
   18.9391   -4.5412   16.0407 O   0  0  0  0  0  0  0  0  0  0  0  0
   19.9351   -3.9254   14.1001 N   0  0  0  0  0  0  0  0  0  0  0  0
   19.7858   -3.8283   13.1319 H   0  0  0  0  0  0  0  0  0  0  0  0
   17.8125   -5.0105   14.0091 C   0  0  0  0  0  0  0  0  0  0  0  0
   18.6349   -6.0299   11.5583 O   0  0  0  0  0  0  0  0  0  0  0  0
   18.4291   -6.8166   12.4653 C   0  0  0  0  0  0  0  0  0  0  0  0
   18.5531   -8.3033   12.2726 C   0  0  0  0  0  0  0  0  0  0  0  0
   18.0630   -6.4053   13.6833 N   0  0  0  0  0  0  0  0  0  0  0  0
   17.9580   -7.0788   14.3936 H   0  0  0  0  0  0  0  0  0  0  0  0
   16.4760   -4.8476   14.7339 C   0  0  0  0  0  0  0  0  0  0  0  0
   15.9960   -3.3998   14.6561 C   0  0  0  0  0  0  0  0  0  0  0  0
   15.4248   -5.8186   14.1859 C   0  0  0  0  0  0  0  0  0  0  0  0
   22.4190   -4.2110   14.0123 C   0  0  0  0  0  0  0  0  0  0  0  0
   22.2286   -5.7087   13.9754 C   0  0  0  0  0  0  0  0  0  0  0  0
   21.9893   -6.4164   15.1418 C   0  0  0  0  0  0  0  0  0  0  0  0
   21.8096   -7.7988   15.0927 C   0  0  0  0  0  0  0  0  0  0  0  0
   21.8779   -8.4706   13.8742 C   0  0  0  0  0  0  0  0  0  0  0  0
   22.1290   -7.7596   12.7113 C   0  0  0  0  0  0  0  0  0  0  0  0
   22.3058   -6.3817   12.7647 C   0  0  0  0  0  0  0  0  0  0  0  0
   22.1196   -1.1736   16.9889 C   0  0  0  0  0  0  0  0  0  0  0  0
   23.1200   -0.4016   17.8218 C   0  0  0  0  0  0  0  0  0  0  0  0
   22.8986   -0.2004   19.1894 C   0  0  0  0  0  0  0  0  0  0  0  0
   23.8167    0.5223   19.9492 C   0  0  0  0  0  0  0  0  0  0  0  0
   24.9576    1.0440   19.3437 C   0  0  0  0  0  0  0  0  0  0  0  0
   25.1698    0.8447   17.9810 C   0  0  0  0  0  0  0  0  0  0  0  0
   24.2555    0.1262   17.2167 C   0  0  0  0  0  0  0  0  0  0  0  0
 31 32  2  0  0  0
 32 34  1  0  0  0
 32 33  1  0  0  0
 34 30  1  0  0  0
 30 26  1  0  0  0
 30 36  1  0  0  0
 36 37  1  0  0  0
 36 38  1  0  0  0
 26 28  1  0  0  0
 26 27  2  0  0  0
 28 25  1  0  0  0
 25 24  1  0  0  0
 25 39  1  0  0  0
 39 40  1  0  0  0
 40 45  2  0  0  0
 40 41  1  0  0  0
 41 42  2  0  0  0
 42 43  1  0  0  0
 43 44  2  0  0  0
 44 45  1  0  0  0
 24 21  1  0  0  0
 21 22  1  0  0  0
 21  1  1  0  0  0
  1 46  1  0  0  0
  1  2  1  0  0  0
 46 47  1  0  0  0
 47 48  1  0  0  0
 47 52  2  0  0  0
 48 49  2  0  0  0
 49 50  1  0  0  0
 50 51  2  0  0  0
 51 52  1  0  0  0
  2  3  1  0  0  0
  3  6  1  0  0  0
  3  4  2  0  0  0
  6  8  1  0  0  0
  6  7  1  0  0  0
  7 11  1  0  0  0
  8  9  1  0  0  0
  9 10  2  0  0  0
  9 11  1  0  0  0
 11 12  1  0  0  0
 12 13  1  0  0  0
 12 16  2  0  0  0
 13 14  2  0  0  0
 14 15  1  0  0  0
 15 17  2  0  0  0
 16 17  1  0  0  0
 17 18  1  0  0  0
 18 20  1  0  0  0
 18 19  2  0  0  0
 34 35  1  0  0  0
 28 29  1  0  0  0
 22 23  1  0  0  0
  2  5  1  0  0  0
M  END
> <minimizedAffinity>
-10.82443

$$$$
2Q54_MU1_B_200


 52 55  0  0  0  0  0  0  0  0999 V2000
   19.2201   -2.0106   15.0753 C   0  0  0  0  0  0  0  0  0  0  0  0
   20.2032   -3.0938   14.9687 N   0  0  0  0  0  0  0  0  0  0  0  0
   21.3022   -3.0527   14.1964 C   0  0  0  0  0  0  0  0  0  0  0  0
   21.7109   -2.0519   13.6159 O   0  0  0  0  0  0  0  0  0  0  0  0
   20.0471   -3.9078   15.5000 H   0  0  0  0  0  0  0  0  0  0  0  0
   22.0621   -4.3459   13.9850 C   0  0  0  0  0  0  0  0  0  0  0  0
   21.2868   -5.2722   13.0502 C   0  0  0  0  0  0  0  0  0  0  0  0
   22.2504   -5.0844   15.1991 O   0  0  0  0  0  0  0  0  0  0  0  0
   21.7956   -6.4312   14.9621 C   0  0  0  0  0  0  0  0  0  0  0  0
   21.9452   -7.2930   15.7790 O   0  0  0  0  0  0  0  0  0  0  0  0
   21.2538   -6.5284   13.7717 N   0  0  0  0  0  0  0  0  0  0  0  0
   20.6748   -7.7094   13.2538 C   0  0  0  0  0  0  0  0  0  0  0  0
   21.4576   -8.7972   12.8749 C   0  0  0  0  0  0  0  0  0  0  0  0
   20.8579   -9.9485   12.3680 C   0  0  0  0  0  0  0  0  0  0  0  0
   19.4725  -10.0324   12.2184 C   0  0  0  0  0  0  0  0  0  0  0  0
   19.2833   -7.8057   13.1050 C   0  0  0  0  0  0  0  0  0  0  0  0
   18.6708   -8.9565   12.5908 C   0  0  0  0  0  0  0  0  0  0  0  0
   17.1681   -9.0176   12.4394 C   0  0  0  0  0  0  0  0  0  0  0  0
   16.6571   -8.9096   11.3288 O   0  0  0  0  0  0  0  0  0  0  0  0
   16.2933   -9.2233   13.6462 C   0  0  0  0  0  0  0  0  0  0  0  0
   19.7994   -0.6743   15.5565 C   0  0  0  0  0  0  0  0  0  0  0  0
   20.3206    0.1044   14.4593 O   0  0  0  0  0  0  0  0  0  0  0  0
   19.5989    0.3309   13.8520 H   0  0  0  0  0  0  0  0  0  0  0  0
   18.7635    0.1878   16.2428 C   0  0  0  0  0  0  0  0  0  0  0  0
   19.0503    0.5137   17.6889 C   0  0  0  0  0  0  0  0  0  0  0  0
   21.3808    0.5731   18.5218 C   0  0  0  0  0  0  0  0  0  0  0  0
   21.3704   -0.5297   19.0455 O   0  0  0  0  0  0  0  0  0  0  0  0
   20.3780    1.1055   17.8297 N   0  0  0  0  0  0  0  0  0  0  0  0
   20.5432    1.9643   17.3776 H   0  0  0  0  0  0  0  0  0  0  0  0
   22.5796    1.4739   18.6711 C   0  0  0  0  0  0  0  0  0  0  0  0
   21.5405    4.0404   18.9055 O   0  0  0  0  0  0  0  0  0  0  0  0
   21.9796    3.5070   19.9087 C   0  0  0  0  0  0  0  0  0  0  0  0
   22.0224    4.2176   21.2339 C   0  0  0  0  0  0  0  0  0  0  0  0
   22.4666    2.2624   19.8875 N   0  0  0  0  0  0  0  0  0  0  0  0
   22.7629    1.8605   20.7360 H   0  0  0  0  0  0  0  0  0  0  0  0
   23.8839    0.6760   18.6533 C   0  0  0  0  0  0  0  0  0  0  0  0
   24.1519    0.1161   17.2578 C   0  0  0  0  0  0  0  0  0  0  0  0
   25.0594    1.5215   19.1551 C   0  0  0  0  0  0  0  0  0  0  0  0
   17.9173    1.4658   18.1029 C   0  0  0  0  0  0  0  0  0  0  0  0
   18.0085    1.8813   19.5518 C   0  0  0  0  0  0  0  0  0  0  0  0
   18.1042    3.2198   19.8952 C   0  0  0  0  0  0  0  0  0  0  0  0
   18.1821    3.5900   21.2378 C   0  0  0  0  0  0  0  0  0  0  0  0
   18.1716    2.6164   22.2341 C   0  0  0  0  0  0  0  0  0  0  0  0
   18.0872    1.2778   21.8850 C   0  0  0  0  0  0  0  0  0  0  0  0
   18.0081    0.9134   20.5457 C   0  0  0  0  0  0  0  0  0  0  0  0
   18.1009   -2.4379   16.0265 C   0  0  0  0  0  0  0  0  0  0  0  0
   17.2313   -3.4900   15.3727 C   0  0  0  0  0  0  0  0  0  0  0  0
   16.1537   -3.1150   14.5617 C   0  0  0  0  0  0  0  0  0  0  0  0
   15.3482   -4.0880   13.9723 C   0  0  0  0  0  0  0  0  0  0  0  0
   15.6192   -5.4367   14.1919 C   0  0  0  0  0  0  0  0  0  0  0  0
   16.6903   -5.8033   15.0043 C   0  0  0  0  0  0  0  0  0  0  0  0
   17.4964   -4.8366   15.5974 C   0  0  0  0  0  0  0  0  0  0  0  0
 31 32  2  0  0  0
 32 34  1  0  0  0
 32 33  1  0  0  0
 34 30  1  0  0  0
 30 26  1  0  0  0
 30 36  1  0  0  0
 36 37  1  0  0  0
 36 38  1  0  0  0
 26 28  1  0  0  0
 26 27  2  0  0  0
 28 25  1  0  0  0
 25 24  1  0  0  0
 25 39  1  0  0  0
 39 40  1  0  0  0
 40 45  2  0  0  0
 40 41  1  0  0  0
 41 42  2  0  0  0
 42 43  1  0  0  0
 43 44  2  0  0  0
 44 45  1  0  0  0
 24 21  1  0  0  0
 21 22  1  0  0  0
 21  1  1  0  0  0
  1 46  1  0  0  0
  1  2  1  0  0  0
 46 47  1  0  0  0
 47 48  1  0  0  0
 47 52  2  0  0  0
 48 49  2  0  0  0
 49 50  1  0  0  0
 50 51  2  0  0  0
 51 52  1  0  0  0
  2  3  1  0  0  0
  3  6  1  0  0  0
  3  4  2  0  0  0
  6  8  1  0  0  0
  6  7  1  0  0  0
  7 11  1  0  0  0
  8  9  1  0  0  0
  9 10  2  0  0  0
  9 11  1  0  0  0
 11 12  1  0  0  0
 12 13  1  0  0  0
 12 16  2  0  0  0
 13 14  2  0  0  0
 14 15  1  0  0  0
 15 17  2  0  0  0
 16 17  1  0  0  0
 17 18  1  0  0  0
 18 20  1  0  0  0
 18 19  2  0  0  0
 34 35  1  0  0  0
 28 29  1  0  0  0
 22 23  1  0  0  0
  2  5  1  0  0  0
M  END
> <minimizedAffinity>
-10.78558

$$$$
2Q54_MU1_B_200


 52 55  0  0  0  0  0  0  0  0999 V2000
   18.2541   -1.3191   16.5729 C   0  0  0  0  0  0  0  0  0  0  0  0
   19.7144   -1.3989   16.6852 N   0  0  0  0  0  0  0  0  0  0  0  0
   20.3780   -2.3838   17.3140 C   0  0  0  0  0  0  0  0  0  0  0  0
   19.8648   -3.4194   17.7263 O   0  0  0  0  0  0  0  0  0  0  0  0
   20.2454   -0.6808   16.2709 H   0  0  0  0  0  0  0  0  0  0  0  0
   21.8551   -2.1788   17.5795 C   0  0  0  0  0  0  0  0  0  0  0  0
   22.0587   -1.1480   18.6880 C   0  0  0  0  0  0  0  0  0  0  0  0
   22.5592   -1.6704   16.4390 O   0  0  0  0  0  0  0  0  0  0  0  0
   23.3001   -0.5113   16.8684 C   0  0  0  0  0  0  0  0  0  0  0  0
   24.0689    0.0436   16.1379 O   0  0  0  0  0  0  0  0  0  0  0  0
   23.0125   -0.2202   18.1144 N   0  0  0  0  0  0  0  0  0  0  0  0
   23.5429    0.8858   18.8170 C   0  0  0  0  0  0  0  0  0  0  0  0
   24.9090    1.0049   19.0611 C   0  0  0  0  0  0  0  0  0  0  0  0
   25.4024    2.1073   19.7562 C   0  0  0  0  0  0  0  0  0  0  0  0
   24.5454    3.1022   20.2302 C   0  0  0  0  0  0  0  0  0  0  0  0
   22.6907    1.8936   19.2922 C   0  0  0  0  0  0  0  0  0  0  0  0
   23.1761    3.0031   19.9975 C   0  0  0  0  0  0  0  0  0  0  0  0
   22.2235    4.0640   20.4993 C   0  0  0  0  0  0  0  0  0  0  0  0
   22.5303    4.7600   21.4625 O   0  0  0  0  0  0  0  0  0  0  0  0
   20.9016    4.2800   19.8138 C   0  0  0  0  0  0  0  0  0  0  0  0
   17.6712   -2.0504   15.3572 C   0  0  0  0  0  0  0  0  0  0  0  0
   18.6775   -2.2969   14.3529 O   0  0  0  0  0  0  0  0  0  0  0  0
   19.3587   -2.8847   14.7152 H   0  0  0  0  0  0  0  0  0  0  0  0
   17.0875   -3.3971   15.7215 C   0  0  0  0  0  0  0  0  0  0  0  0
   17.4945   -4.5414   14.8244 C   0  0  0  0  0  0  0  0  0  0  0  0
   19.7297   -5.4194   14.2232 C   0  0  0  0  0  0  0  0  0  0  0  0
   19.5514   -5.4409   13.0156 O   0  0  0  0  0  0  0  0  0  0  0  0
   18.8594   -4.9679   15.1213 N   0  0  0  0  0  0  0  0  0  0  0  0
   19.1578   -4.9172   16.0581 H   0  0  0  0  0  0  0  0  0  0  0  0
   20.9996   -5.9757   14.8137 C   0  0  0  0  0  0  0  0  0  0  0  0
   21.5167   -8.6339   15.4372 O   0  0  0  0  0  0  0  0  0  0  0  0
   21.8087   -8.2404   14.3219 C   0  0  0  0  0  0  0  0  0  0  0  0
   22.4828   -9.1317   13.3149 C   0  0  0  0  0  0  0  0  0  0  0  0
   21.5627   -6.9857   13.9322 N   0  0  0  0  0  0  0  0  0  0  0  0
   21.7728   -6.7334   13.0041 H   0  0  0  0  0  0  0  0  0  0  0  0
   22.0150   -4.8687   15.0994 C   0  0  0  0  0  0  0  0  0  0  0  0
   23.0692   -5.3507   16.0940 C   0  0  0  0  0  0  0  0  0  0  0  0
   22.6559   -4.3552   13.8057 C   0  0  0  0  0  0  0  0  0  0  0  0
   16.4481   -5.6343   15.0925 C   0  0  0  0  0  0  0  0  0  0  0  0
   16.4379   -6.7026   14.0253 C   0  0  0  0  0  0  0  0  0  0  0  0
   16.4058   -6.3572   12.6842 C   0  0  0  0  0  0  0  0  0  0  0  0
   16.4025   -7.3540   11.7086 C   0  0  0  0  0  0  0  0  0  0  0  0
   16.4236   -8.6967   12.0797 C   0  0  0  0  0  0  0  0  0  0  0  0
   16.4442   -9.0374   13.4229 C   0  0  0  0  0  0  0  0  0  0  0  0
   16.4491   -8.0405   14.3919 C   0  0  0  0  0  0  0  0  0  0  0  0
   17.8327    0.1503   16.5176 C   0  0  0  0  0  0  0  0  0  0  0  0
   17.5735    0.6736   17.9139 C   0  0  0  0  0  0  0  0  0  0  0  0
   17.2344   -0.2059   18.9488 C   0  0  0  0  0  0  0  0  0  0  0  0
   16.9841    0.2827   20.2300 C   0  0  0  0  0  0  0  0  0  0  0  0
   17.0732    1.6505   20.4787 C   0  0  0  0  0  0  0  0  0  0  0  0
   17.4063    2.5212   19.4430 C   0  0  0  0  0  0  0  0  0  0  0  0
   17.6548    2.0397   18.1614 C   0  0  0  0  0  0  0  0  0  0  0  0
 31 32  2  0  0  0
 32 34  1  0  0  0
 32 33  1  0  0  0
 34 30  1  0  0  0
 30 26  1  0  0  0
 30 36  1  0  0  0
 36 37  1  0  0  0
 36 38  1  0  0  0
 26 28  1  0  0  0
 26 27  2  0  0  0
 28 25  1  0  0  0
 25 24  1  0  0  0
 25 39  1  0  0  0
 39 40  1  0  0  0
 40 45  2  0  0  0
 40 41  1  0  0  0
 41 42  2  0  0  0
 42 43  1  0  0  0
 43 44  2  0  0  0
 44 45  1  0  0  0
 24 21  1  0  0  0
 21 22  1  0  0  0
 21  1  1  0  0  0
  1 46  1  0  0  0
  1  2  1  0  0  0
 46 47  1  0  0  0
 47 48  1  0  0  0
 47 52  2  0  0  0
 48 49  2  0  0  0
 49 50  1  0  0  0
 50 51  2  0  0  0
 51 52  1  0  0  0
  2  3  1  0  0  0
  3  6  1  0  0  0
  3  4  2  0  0  0
  6  8  1  0  0  0
  6  7  1  0  0  0
  7 11  1  0  0  0
  8  9  1  0  0  0
  9 10  2  0  0  0
  9 11  1  0  0  0
 11 12  1  0  0  0
 12 13  1  0  0  0
 12 16  2  0  0  0
 13 14  2  0  0  0
 14 15  1  0  0  0
 15 17  2  0  0  0
 16 17  1  0  0  0
 17 18  1  0  0  0
 18 20  1  0  0  0
 18 19  2  0  0  0
 34 35  1  0  0  0
 28 29  1  0  0  0
 22 23  1  0  0  0
  2  5  1  0  0  0
M  END
> <minimizedAffinity>
-10.62826

$$$$
2Q54_MU1_B_200


 52 55  0  0  0  0  0  0  0  0999 V2000
   20.7539   -2.8128   14.7338 C   0  0  0  0  0  0  0  0  0  0  0  0
   19.8034   -3.4685   13.8295 N   0  0  0  0  0  0  0  0  0  0  0  0
   18.7302   -4.1710   14.2304 C   0  0  0  0  0  0  0  0  0  0  0  0
   18.3152   -4.2148   15.3843 O   0  0  0  0  0  0  0  0  0  0  0  0
   19.9627   -3.3885   12.8613 H   0  0  0  0  0  0  0  0  0  0  0  0
   18.0116   -5.0101   13.1941 C   0  0  0  0  0  0  0  0  0  0  0  0
   17.3550   -6.2218   13.8525 C   0  0  0  0  0  0  0  0  0  0  0  0
   18.8956   -5.5384   12.1969 O   0  0  0  0  0  0  0  0  0  0  0  0
   18.6581   -6.9575   12.1152 C   0  0  0  0  0  0  0  0  0  0  0  0
   19.1842   -7.6309   11.2773 O   0  0  0  0  0  0  0  0  0  0  0  0
   17.8091   -7.3334   13.0415 N   0  0  0  0  0  0  0  0  0  0  0  0
   17.4003   -8.6700   13.2525 C   0  0  0  0  0  0  0  0  0  0  0  0
   16.1069   -9.0907   12.9527 C   0  0  0  0  0  0  0  0  0  0  0  0
   15.7333  -10.4153   13.1711 C   0  0  0  0  0  0  0  0  0  0  0  0
   16.6348  -11.3396   13.7019 C   0  0  0  0  0  0  0  0  0  0  0  0
   18.3005   -9.6076   13.7801 C   0  0  0  0  0  0  0  0  0  0  0  0
   17.9330  -10.9405   14.0091 C   0  0  0  0  0  0  0  0  0  0  0  0
   18.9310  -11.9182   14.5860 C   0  0  0  0  0  0  0  0  0  0  0  0
   18.7713  -13.1248   14.4284 O   0  0  0  0  0  0  0  0  0  0  0  0
   20.1300  -11.4172   15.3445 C   0  0  0  0  0  0  0  0  0  0  0  0
   20.7024   -1.2801   14.7042 C   0  0  0  0  0  0  0  0  0  0  0  0
   20.0760   -0.7930   13.4992 O   0  0  0  0  0  0  0  0  0  0  0  0
   19.1532   -1.0905   13.4715 H   0  0  0  0  0  0  0  0  0  0  0  0
   19.9135   -0.7088   15.8611 C   0  0  0  0  0  0  0  0  0  0  0  0
   20.7218    0.0676   16.8729 C   0  0  0  0  0  0  0  0  0  0  0  0
   19.1102   -0.2049   18.7321 C   0  0  0  0  0  0  0  0  0  0  0  0
   19.1070   -1.4258   18.7368 O   0  0  0  0  0  0  0  0  0  0  0  0
   19.8648    0.5594   17.9483 N   0  0  0  0  0  0  0  0  0  0  0  0
   19.8443    1.5311   18.1049 H   0  0  0  0  0  0  0  0  0  0  0  0
   18.1745    0.5607   19.6317 C   0  0  0  0  0  0  0  0  0  0  0  0
   18.2279    1.1426   22.3484 O   0  0  0  0  0  0  0  0  0  0  0  0
   18.8307    1.8836   21.5924 C   0  0  0  0  0  0  0  0  0  0  0  0
   19.5412    3.1150   22.0840 C   0  0  0  0  0  0  0  0  0  0  0  0
   18.8818    1.6554   20.2765 N   0  0  0  0  0  0  0  0  0  0  0  0
   19.4242    2.2571   19.7170 H   0  0  0  0  0  0  0  0  0  0  0  0
   16.9546    1.0716   18.8644 C   0  0  0  0  0  0  0  0  0  0  0  0
   15.6708    0.7712   19.6354 C   0  0  0  0  0  0  0  0  0  0  0  0
   17.0833    2.5653   18.5471 C   0  0  0  0  0  0  0  0  0  0  0  0
   21.7906   -0.9245   17.3576 C   0  0  0  0  0  0  0  0  0  0  0  0
   22.9781   -0.2365   17.9877 C   0  0  0  0  0  0  0  0  0  0  0  0
   22.9689    0.0912   19.3335 C   0  0  0  0  0  0  0  0  0  0  0  0
   24.0748    0.7214   19.9039 C   0  0  0  0  0  0  0  0  0  0  0  0
   25.1858    1.0291   19.1218 C   0  0  0  0  0  0  0  0  0  0  0  0
   25.1856    0.7095   17.7731 C   0  0  0  0  0  0  0  0  0  0  0  0
   24.0819    0.0799   17.2091 C   0  0  0  0  0  0  0  0  0  0  0  0
   22.1730   -3.2687   14.3898 C   0  0  0  0  0  0  0  0  0  0  0  0
   22.2013   -4.7646   14.1612 C   0  0  0  0  0  0  0  0  0  0  0  0
   22.0908   -5.6488   15.2408 C   0  0  0  0  0  0  0  0  0  0  0  0
   22.1305   -7.0255   15.0262 C   0  0  0  0  0  0  0  0  0  0  0  0
   22.2796   -7.5201   13.7325 C   0  0  0  0  0  0  0  0  0  0  0  0
   22.3942   -6.6346   12.6627 C   0  0  0  0  0  0  0  0  0  0  0  0
   22.3579   -5.2593   12.8709 C   0  0  0  0  0  0  0  0  0  0  0  0
 31 32  2  0  0  0
 32 34  1  0  0  0
 32 33  1  0  0  0
 34 30  1  0  0  0
 30 26  1  0  0  0
 30 36  1  0  0  0
 36 37  1  0  0  0
 36 38  1  0  0  0
 26 28  1  0  0  0
 26 27  2  0  0  0
 28 25  1  0  0  0
 25 24  1  0  0  0
 25 39  1  0  0  0
 39 40  1  0  0  0
 40 45  2  0  0  0
 40 41  1  0  0  0
 41 42  2  0  0  0
 42 43  1  0  0  0
 43 44  2  0  0  0
 44 45  1  0  0  0
 24 21  1  0  0  0
 21 22  1  0  0  0
 21  1  1  0  0  0
  1 46  1  0  0  0
  1  2  1  0  0  0
 46 47  1  0  0  0
 47 48  1  0  0  0
 47 52  2  0  0  0
 48 49  2  0  0  0
 49 50  1  0  0  0
 50 51  2  0  0  0
 51 52  1  0  0  0
  2  3  1  0  0  0
  3  6  1  0  0  0
  3  4  2  0  0  0
  6  8  1  0  0  0
  6  7  1  0  0  0
  7 11  1  0  0  0
  8  9  1  0  0  0
  9 10  2  0  0  0
  9 11  1  0  0  0
 11 12  1  0  0  0
 12 13  1  0  0  0
 12 16  2  0  0  0
 13 14  2  0  0  0
 14 15  1  0  0  0
 15 17  2  0  0  0
 16 17  1  0  0  0
 17 18  1  0  0  0
 18 20  1  0  0  0
 18 19  2  0  0  0
 34 35  1  0  0  0
 28 29  1  0  0  0
 22 23  1  0  0  0
  2  5  1  0  0  0
M  END
> <minimizedAffinity>
-10.62207

$$$$
2Q54_MU1_B_200


 52 55  0  0  0  0  0  0  0  0999 V2000
   18.3787   -1.6612   16.4034 C   0  0  0  0  0  0  0  0  0  0  0  0
   19.8337   -1.7131   16.5809 N   0  0  0  0  0  0  0  0  0  0  0  0
   20.4610   -2.4295   17.5291 C   0  0  0  0  0  0  0  0  0  0  0  0
   19.9165   -3.2555   18.2551 O   0  0  0  0  0  0  0  0  0  0  0  0
   20.3896   -1.1862   15.9623 H   0  0  0  0  0  0  0  0  0  0  0  0
   21.9348   -2.1615   17.7535 C   0  0  0  0  0  0  0  0  0  0  0  0
   22.1242   -1.0996   18.8348 C   0  0  0  0  0  0  0  0  0  0  0  0
   22.5908   -1.6512   16.5855 O   0  0  0  0  0  0  0  0  0  0  0  0
   23.2956   -0.4551   16.9720 C   0  0  0  0  0  0  0  0  0  0  0  0
   24.0242    0.1131   16.2113 O   0  0  0  0  0  0  0  0  0  0  0  0
   23.0268   -0.1482   18.2184 N   0  0  0  0  0  0  0  0  0  0  0  0
   23.5299    0.9926   18.8844 C   0  0  0  0  0  0  0  0  0  0  0  0
   24.8987    1.2054   19.0290 C   0  0  0  0  0  0  0  0  0  0  0  0
   25.3648    2.3401   19.6902 C   0  0  0  0  0  0  0  0  0  0  0  0
   24.4785    3.2747   20.2285 C   0  0  0  0  0  0  0  0  0  0  0  0
   22.6476    1.9404   19.4237 C   0  0  0  0  0  0  0  0  0  0  0  0
   23.1059    3.0817   20.0956 C   0  0  0  0  0  0  0  0  0  0  0  0
   22.1219    4.0756   20.6689 C   0  0  0  0  0  0  0  0  0  0  0  0
   21.2663    4.5797   19.9476 O   0  0  0  0  0  0  0  0  0  0  0  0
   22.1785    4.4419   22.1271 C   0  0  0  0  0  0  0  0  0  0  0  0
   17.8533   -2.4979   15.2301 C   0  0  0  0  0  0  0  0  0  0  0  0
   18.8161   -2.5727   14.1580 O   0  0  0  0  0  0  0  0  0  0  0  0
   19.6143   -3.0261   14.4714 H   0  0  0  0  0  0  0  0  0  0  0  0
   17.5451   -3.9227   15.6324 C   0  0  0  0  0  0  0  0  0  0  0  0
   17.6014   -4.9359   14.5143 C   0  0  0  0  0  0  0  0  0  0  0  0
   19.6430   -5.8899   13.4894 C   0  0  0  0  0  0  0  0  0  0  0  0
   19.4676   -5.4286   12.3727 O   0  0  0  0  0  0  0  0  0  0  0  0
   18.8657   -5.6664   14.5448 N   0  0  0  0  0  0  0  0  0  0  0  0
   19.1654   -6.0203   15.4132 H   0  0  0  0  0  0  0  0  0  0  0  0
   20.7894   -6.8324   13.7507 C   0  0  0  0  0  0  0  0  0  0  0  0
   22.7406   -4.8554   13.8303 O   0  0  0  0  0  0  0  0  0  0  0  0
   22.4899   -5.4539   14.8612 C   0  0  0  0  0  0  0  0  0  0  0  0
   23.2408   -5.1893   16.1376 C   0  0  0  0  0  0  0  0  0  0  0  0
   21.5429   -6.3956   14.9151 N   0  0  0  0  0  0  0  0  0  0  0  0
   21.3460   -6.8133   15.7846 H   0  0  0  0  0  0  0  0  0  0  0  0
   20.3022   -8.2718   13.9204 C   0  0  0  0  0  0  0  0  0  0  0  0
   20.0442   -8.9153   12.5595 C   0  0  0  0  0  0  0  0  0  0  0  0
   21.2875   -9.0971   14.7549 C   0  0  0  0  0  0  0  0  0  0  0  0
   16.3777   -5.8360   14.7459 C   0  0  0  0  0  0  0  0  0  0  0  0
   16.3917   -7.0700   13.8755 C   0  0  0  0  0  0  0  0  0  0  0  0
   16.4577   -8.3314   14.4441 C   0  0  0  0  0  0  0  0  0  0  0  0
   16.4641   -9.4630   13.6286 C   0  0  0  0  0  0  0  0  0  0  0  0
   16.4122   -9.3276   12.2431 C   0  0  0  0  0  0  0  0  0  0  0  0
   16.3578   -8.0630   11.6784 C   0  0  0  0  0  0  0  0  0  0  0  0
   16.3499   -6.9380   12.4951 C   0  0  0  0  0  0  0  0  0  0  0  0
   17.9465   -0.2067   16.2089 C   0  0  0  0  0  0  0  0  0  0  0  0
   17.5837    0.4142   17.5406 C   0  0  0  0  0  0  0  0  0  0  0  0
   17.4259    1.8002   17.6570 C   0  0  0  0  0  0  0  0  0  0  0  0
   17.1043    2.3681   18.8886 C   0  0  0  0  0  0  0  0  0  0  0  0
   16.9392    1.5515   20.0051 C   0  0  0  0  0  0  0  0  0  0  0  0
   17.1027    0.1730   19.8838 C   0  0  0  0  0  0  0  0  0  0  0  0
   17.4261   -0.3995   18.6575 C   0  0  0  0  0  0  0  0  0  0  0  0
 31 32  2  0  0  0
 32 34  1  0  0  0
 32 33  1  0  0  0
 34 30  1  0  0  0
 30 26  1  0  0  0
 30 36  1  0  0  0
 36 37  1  0  0  0
 36 38  1  0  0  0
 26 28  1  0  0  0
 26 27  2  0  0  0
 28 25  1  0  0  0
 25 24  1  0  0  0
 25 39  1  0  0  0
 39 40  1  0  0  0
 40 45  2  0  0  0
 40 41  1  0  0  0
 41 42  2  0  0  0
 42 43  1  0  0  0
 43 44  2  0  0  0
 44 45  1  0  0  0
 24 21  1  0  0  0
 21 22  1  0  0  0
 21  1  1  0  0  0
  1 46  1  0  0  0
  1  2  1  0  0  0
 46 47  1  0  0  0
 47 48  1  0  0  0
 47 52  2  0  0  0
 48 49  2  0  0  0
 49 50  1  0  0  0
 50 51  2  0  0  0
 51 52  1  0  0  0
  2  3  1  0  0  0
  3  6  1  0  0  0
  3  4  2  0  0  0
  6  8  1  0  0  0
  6  7  1  0  0  0
  7 11  1  0  0  0
  8  9  1  0  0  0
  9 10  2  0  0  0
  9 11  1  0  0  0
 11 12  1  0  0  0
 12 13  1  0  0  0
 12 16  2  0  0  0
 13 14  2  0  0  0
 14 15  1  0  0  0
 15 17  2  0  0  0
 16 17  1  0  0  0
 17 18  1  0  0  0
 18 20  1  0  0  0
 18 19  2  0  0  0
 34 35  1  0  0  0
 28 29  1  0  0  0
 22 23  1  0  0  0
  2  5  1  0  0  0
M  END
> <minimizedAffinity>
-10.48530

$$$$
2Q54_MU1_B_200


 52 55  0  0  0  0  0  0  0  0999 V2000
   18.1741   -1.1640   16.7408 C   0  0  0  0  0  0  0  0  0  0  0  0
   17.4977   -2.4056   16.3508 N   0  0  0  0  0  0  0  0  0  0  0  0
   17.3369   -2.8202   15.0826 C   0  0  0  0  0  0  0  0  0  0  0  0
   17.8741   -2.3065   14.1064 O   0  0  0  0  0  0  0  0  0  0  0  0
   17.1363   -2.9750   17.0680 H   0  0  0  0  0  0  0  0  0  0  0  0
   16.3838   -3.9711   14.8344 C   0  0  0  0  0  0  0  0  0  0  0  0
   17.1205   -5.3048   14.9413 C   0  0  0  0  0  0  0  0  0  0  0  0
   15.8115   -3.9450   13.5204 O   0  0  0  0  0  0  0  0  0  0  0  0
   16.0167   -5.2446   12.9325 C   0  0  0  0  0  0  0  0  0  0  0  0
   15.5346   -5.5347   11.8761 O   0  0  0  0  0  0  0  0  0  0  0  0
   16.7508   -5.9927   13.7208 N   0  0  0  0  0  0  0  0  0  0  0  0
   17.1646   -7.3087   13.4121 C   0  0  0  0  0  0  0  0  0  0  0  0
   18.4970   -7.6060   13.1361 C   0  0  0  0  0  0  0  0  0  0  0  0
   18.8748   -8.9132   12.8356 C   0  0  0  0  0  0  0  0  0  0  0  0
   17.9333   -9.9430   12.7927 C   0  0  0  0  0  0  0  0  0  0  0  0
   16.2271   -8.3513   13.3721 C   0  0  0  0  0  0  0  0  0  0  0  0
   16.5957   -9.6681   13.0651 C   0  0  0  0  0  0  0  0  0  0  0  0
   15.5534  -10.7621   13.0252 C   0  0  0  0  0  0  0  0  0  0  0  0
   14.5311  -10.6133   12.3626 O   0  0  0  0  0  0  0  0  0  0  0  0
   15.7695  -12.0419   13.7862 C   0  0  0  0  0  0  0  0  0  0  0  0
   19.5813   -0.9977   16.1535 C   0  0  0  0  0  0  0  0  0  0  0  0
   20.0230    0.3746   16.2134 O   0  0  0  0  0  0  0  0  0  0  0  0
   20.0872    0.6535   17.1402 H   0  0  0  0  0  0  0  0  0  0  0  0
   20.6145   -1.8155   16.8956 C   0  0  0  0  0  0  0  0  0  0  0  0
   22.0214   -1.7220   16.3555 C   0  0  0  0  0  0  0  0  0  0  0  0
   22.7532   -0.2653   18.2185 C   0  0  0  0  0  0  0  0  0  0  0  0
   22.3069   -0.9568   19.1204 O   0  0  0  0  0  0  0  0  0  0  0  0
   22.7159   -0.5704   16.9248 N   0  0  0  0  0  0  0  0  0  0  0  0
   23.1930    0.0257   16.3033 H   0  0  0  0  0  0  0  0  0  0  0  0
   23.3695    1.0757   18.5231 C   0  0  0  0  0  0  0  0  0  0  0  0
   20.8721    2.2846   18.3699 O   0  0  0  0  0  0  0  0  0  0  0  0
   21.4570    2.3126   19.4381 C   0  0  0  0  0  0  0  0  0  0  0  0
   20.8911    3.0243   20.6365 C   0  0  0  0  0  0  0  0  0  0  0  0
   22.6467    1.7265   19.6039 N   0  0  0  0  0  0  0  0  0  0  0  0
   23.0529    1.7358   20.5006 H   0  0  0  0  0  0  0  0  0  0  0  0
   24.8558    0.9448   18.8574 C   0  0  0  0  0  0  0  0  0  0  0  0
   25.6653    0.6453   17.5973 C   0  0  0  0  0  0  0  0  0  0  0  0
   25.3759    2.1944   19.5759 C   0  0  0  0  0  0  0  0  0  0  0  0
   22.6695   -3.0642   16.7297 C   0  0  0  0  0  0  0  0  0  0  0  0
   22.5794   -4.0823   15.6181 C   0  0  0  0  0  0  0  0  0  0  0  0
   22.3230   -3.6825   14.3168 C   0  0  0  0  0  0  0  0  0  0  0  0
   22.2481   -4.6329   13.2987 C   0  0  0  0  0  0  0  0  0  0  0  0
   22.4227   -5.9843   13.5884 C   0  0  0  0  0  0  0  0  0  0  0  0
   22.6677   -6.3805   14.8937 C   0  0  0  0  0  0  0  0  0  0  0  0
   22.7432   -5.4296   15.9051 C   0  0  0  0  0  0  0  0  0  0  0  0
   18.2616   -1.0959   18.2665 C   0  0  0  0  0  0  0  0  0  0  0  0
   17.8900    0.2890   18.7509 C   0  0  0  0  0  0  0  0  0  0  0  0
   17.9053    0.5897   20.1180 C   0  0  0  0  0  0  0  0  0  0  0  0
   17.5498    1.8630   20.5596 C   0  0  0  0  0  0  0  0  0  0  0  0
   17.1796    2.8376   19.6357 C   0  0  0  0  0  0  0  0  0  0  0  0
   17.1615    2.5306   18.2766 C   0  0  0  0  0  0  0  0  0  0  0  0
   17.5129    1.2605   17.8298 C   0  0  0  0  0  0  0  0  0  0  0  0
 31 32  2  0  0  0
 32 34  1  0  0  0
 32 33  1  0  0  0
 34 30  1  0  0  0
 30 26  1  0  0  0
 30 36  1  0  0  0
 36 37  1  0  0  0
 36 38  1  0  0  0
 26 28  1  0  0  0
 26 27  2  0  0  0
 28 25  1  0  0  0
 25 24  1  0  0  0
 25 39  1  0  0  0
 39 40  1  0  0  0
 40 45  2  0  0  0
 40 41  1  0  0  0
 41 42  2  0  0  0
 42 43  1  0  0  0
 43 44  2  0  0  0
 44 45  1  0  0  0
 24 21  1  0  0  0
 21 22  1  0  0  0
 21  1  1  0  0  0
  1 46  1  0  0  0
  1  2  1  0  0  0
 46 47  1  0  0  0
 47 48  1  0  0  0
 47 52  2  0  0  0
 48 49  2  0  0  0
 49 50  1  0  0  0
 50 51  2  0  0  0
 51 52  1  0  0  0
  2  3  1  0  0  0
  3  6  1  0  0  0
  3  4  2  0  0  0
  6  8  1  0  0  0
  6  7  1  0  0  0
  7 11  1  0  0  0
  8  9  1  0  0  0
  9 10  2  0  0  0
  9 11  1  0  0  0
 11 12  1  0  0  0
 12 13  1  0  0  0
 12 16  2  0  0  0
 13 14  2  0  0  0
 14 15  1  0  0  0
 15 17  2  0  0  0
 16 17  1  0  0  0
 17 18  1  0  0  0
 18 20  1  0  0  0
 18 19  2  0  0  0
 34 35  1  0  0  0
 28 29  1  0  0  0
 22 23  1  0  0  0
  2  5  1  0  0  0
M  END
> <minimizedAffinity>
-10.33658

$$$$
2Q54_MU1_B_200


 52 55  0  0  0  0  0  0  0  0999 V2000
   19.6522   -2.7371   14.6214 C   0  0  0  0  0  0  0  0  0  0  0  0
   20.5722   -3.8769   14.6977 N   0  0  0  0  0  0  0  0  0  0  0  0
   21.7424   -3.9573   14.0421 C   0  0  0  0  0  0  0  0  0  0  0  0
   22.2675   -3.0298   13.4340 O   0  0  0  0  0  0  0  0  0  0  0  0
   20.3143   -4.6360   15.2691 H   0  0  0  0  0  0  0  0  0  0  0  0
   22.4381   -5.3024   14.0070 C   0  0  0  0  0  0  0  0  0  0  0  0
   21.8169   -6.1951   12.9346 C   0  0  0  0  0  0  0  0  0  0  0  0
   22.3121   -6.0253   15.2384 O   0  0  0  0  0  0  0  0  0  0  0  0
   21.8255   -7.3437   14.9191 C   0  0  0  0  0  0  0  0  0  0  0  0
   21.7375   -8.1957   15.7551 O   0  0  0  0  0  0  0  0  0  0  0  0
   21.5439   -7.4304   13.6411 N   0  0  0  0  0  0  0  0  0  0  0  0
   21.0076   -8.5813   13.0197 C   0  0  0  0  0  0  0  0  0  0  0  0
   21.8166   -9.6555   12.6572 C   0  0  0  0  0  0  0  0  0  0  0  0
   21.2588  -10.7770   12.0465 C   0  0  0  0  0  0  0  0  0  0  0  0
   19.8910  -10.8438   11.7754 C   0  0  0  0  0  0  0  0  0  0  0  0
   19.6337   -8.6603   12.7483 C   0  0  0  0  0  0  0  0  0  0  0  0
   19.0638   -9.7810   12.1292 C   0  0  0  0  0  0  0  0  0  0  0  0
   17.5793   -9.8240   11.8475 C   0  0  0  0  0  0  0  0  0  0  0  0
   17.0899  -10.7932   11.2753 O   0  0  0  0  0  0  0  0  0  0  0  0
   16.6938   -8.6861   12.2776 C   0  0  0  0  0  0  0  0  0  0  0  0
   20.3312   -1.3663   14.7325 C   0  0  0  0  0  0  0  0  0  0  0  0
   20.3450   -0.6762   13.4655 O   0  0  0  0  0  0  0  0  0  0  0  0
   19.4338   -0.4993   13.1837 H   0  0  0  0  0  0  0  0  0  0  0  0
   19.6280   -0.4539   15.7124 C   0  0  0  0  0  0  0  0  0  0  0  0
   20.5252    0.2300   16.7160 C   0  0  0  0  0  0  0  0  0  0  0  0
   19.0885   -0.0767   18.7085 C   0  0  0  0  0  0  0  0  0  0  0  0
   19.1203   -1.2971   18.7174 O   0  0  0  0  0  0  0  0  0  0  0  0
   19.7508    0.7039   17.8599 N   0  0  0  0  0  0  0  0  0  0  0  0
   19.7164    1.6755   18.0145 H   0  0  0  0  0  0  0  0  0  0  0  0
   18.2128    0.6677   19.6831 C   0  0  0  0  0  0  0  0  0  0  0  0
   18.3553    1.2736   22.3914 O   0  0  0  0  0  0  0  0  0  0  0  0
   18.9481    1.9973   21.6110 C   0  0  0  0  0  0  0  0  0  0  0  0
   19.6932    3.2209   22.0698 C   0  0  0  0  0  0  0  0  0  0  0  0
   18.9568    1.7561   20.2964 N   0  0  0  0  0  0  0  0  0  0  0  0
   19.4926    2.3434   19.7156 H   0  0  0  0  0  0  0  0  0  0  0  0
   16.9403    1.1834   19.0102 C   0  0  0  0  0  0  0  0  0  0  0  0
   15.7117    0.8390   19.8496 C   0  0  0  0  0  0  0  0  0  0  0  0
   17.0286    2.6881   18.7338 C   0  0  0  0  0  0  0  0  0  0  0  0
   21.5678   -0.8346   17.0913 C   0  0  0  0  0  0  0  0  0  0  0  0
   22.7843   -0.2442   17.7637 C   0  0  0  0  0  0  0  0  0  0  0  0
   22.7693    0.0430   19.1188 C   0  0  0  0  0  0  0  0  0  0  0  0
   23.9018    0.5829   19.7283 C   0  0  0  0  0  0  0  0  0  0  0  0
   25.0456    0.8413   18.9761 C   0  0  0  0  0  0  0  0  0  0  0  0
   25.0518    0.5629   17.6184 C   0  0  0  0  0  0  0  0  0  0  0  0
   23.9214    0.0233   17.0154 C   0  0  0  0  0  0  0  0  0  0  0  0
   18.6024   -2.8623   15.7269 C   0  0  0  0  0  0  0  0  0  0  0  0
   17.4494   -3.7238   15.2589 C   0  0  0  0  0  0  0  0  0  0  0  0
   16.3558   -3.1482   14.6012 C   0  0  0  0  0  0  0  0  0  0  0  0
   15.2907   -3.9444   14.1837 C   0  0  0  0  0  0  0  0  0  0  0  0
   15.3174   -5.3166   14.4220 C   0  0  0  0  0  0  0  0  0  0  0  0
   16.4064   -5.8827   15.0817 C   0  0  0  0  0  0  0  0  0  0  0  0
   17.4716   -5.0927   15.5032 C   0  0  0  0  0  0  0  0  0  0  0  0
 31 32  2  0  0  0
 32 34  1  0  0  0
 32 33  1  0  0  0
 34 30  1  0  0  0
 30 26  1  0  0  0
 30 36  1  0  0  0
 36 37  1  0  0  0
 36 38  1  0  0  0
 26 28  1  0  0  0
 26 27  2  0  0  0
 28 25  1  0  0  0
 25 24  1  0  0  0
 25 39  1  0  0  0
 39 40  1  0  0  0
 40 45  2  0  0  0
 40 41  1  0  0  0
 41 42  2  0  0  0
 42 43  1  0  0  0
 43 44  2  0  0  0
 44 45  1  0  0  0
 24 21  1  0  0  0
 21 22  1  0  0  0
 21  1  1  0  0  0
  1 46  1  0  0  0
  1  2  1  0  0  0
 46 47  1  0  0  0
 47 48  1  0  0  0
 47 52  2  0  0  0
 48 49  2  0  0  0
 49 50  1  0  0  0
 50 51  2  0  0  0
 51 52  1  0  0  0
  2  3  1  0  0  0
  3  6  1  0  0  0
  3  4  2  0  0  0
  6  8  1  0  0  0
  6  7  1  0  0  0
  7 11  1  0  0  0
  8  9  1  0  0  0
  9 10  2  0  0  0
  9 11  1  0  0  0
 11 12  1  0  0  0
 12 13  1  0  0  0
 12 16  2  0  0  0
 13 14  2  0  0  0
 14 15  1  0  0  0
 15 17  2  0  0  0
 16 17  1  0  0  0
 17 18  1  0  0  0
 18 20  1  0  0  0
 18 19  2  0  0  0
 34 35  1  0  0  0
 28 29  1  0  0  0
 22 23  1  0  0  0
  2  5  1  0  0  0
M  END
> <minimizedAffinity>
-10.32883

$$$$
2Q54_MU1_B_200


 52 55  0  0  0  0  0  0  0  0999 V2000
   19.3835   -0.2002   17.4383 C   0  0  0  0  0  0  0  0  0  0  0  0
   18.6699    0.2947   18.6204 N   0  0  0  0  0  0  0  0  0  0  0  0
   18.0120    1.4649   18.6793 C   0  0  0  0  0  0  0  0  0  0  0  0
   17.7824    2.1865   17.7138 O   0  0  0  0  0  0  0  0  0  0  0  0
   18.6733   -0.2699   19.4269 H   0  0  0  0  0  0  0  0  0  0  0  0
   17.5671    1.9538   20.0422 C   0  0  0  0  0  0  0  0  0  0  0  0
   18.4342    3.1263   20.4963 C   0  0  0  0  0  0  0  0  0  0  0  0
   17.6974    0.9538   21.0609 O   0  0  0  0  0  0  0  0  0  0  0  0
   18.4339    1.5402   22.1521 C   0  0  0  0  0  0  0  0  0  0  0  0
   18.5875    0.9570   23.1859 O   0  0  0  0  0  0  0  0  0  0  0  0
   18.8481    2.7424   21.8308 N   0  0  0  0  0  0  0  0  0  0  0  0
   19.6334    3.5653   22.6700 C   0  0  0  0  0  0  0  0  0  0  0  0
   19.0789    4.2318   23.7600 C   0  0  0  0  0  0  0  0  0  0  0  0
   19.8787    5.0359   24.5697 C   0  0  0  0  0  0  0  0  0  0  0  0
   21.2390    5.2001   24.3022 C   0  0  0  0  0  0  0  0  0  0  0  0
   21.0023    3.7321   22.4129 C   0  0  0  0  0  0  0  0  0  0  0  0
   21.8141    4.5431   23.2175 C   0  0  0  0  0  0  0  0  0  0  0  0
   23.2837    4.7024   22.9022 C   0  0  0  0  0  0  0  0  0  0  0  0
   23.6381    5.0385   21.7762 O   0  0  0  0  0  0  0  0  0  0  0  0
   24.3173    4.4622   23.9689 C   0  0  0  0  0  0  0  0  0  0  0  0
   18.4745   -0.7698   16.3420 C   0  0  0  0  0  0  0  0  0  0  0  0
   19.0135   -0.5269   15.0258 O   0  0  0  0  0  0  0  0  0  0  0  0
   19.8619   -0.9880   14.9337 H   0  0  0  0  0  0  0  0  0  0  0  0
   18.2944   -2.2664   16.4642 C   0  0  0  0  0  0  0  0  0  0  0  0
   17.9693   -2.9849   15.1767 C   0  0  0  0  0  0  0  0  0  0  0  0
   20.1441   -4.0563   14.6759 C   0  0  0  0  0  0  0  0  0  0  0  0
   20.7949   -3.0257   14.6058 O   0  0  0  0  0  0  0  0  0  0  0  0
   18.8541   -4.1316   14.9895 N   0  0  0  0  0  0  0  0  0  0  0  0
   18.4658   -5.0290   15.1042 H   0  0  0  0  0  0  0  0  0  0  0  0
   20.7825   -5.3817   14.3495 C   0  0  0  0  0  0  0  0  0  0  0  0
   20.3953   -8.1269   14.1592 O   0  0  0  0  0  0  0  0  0  0  0  0
   19.8845   -7.4167   13.3115 C   0  0  0  0  0  0  0  0  0  0  0  0
   19.1119   -7.9888   12.1545 C   0  0  0  0  0  0  0  0  0  0  0  0
   19.9953   -6.0853   13.3497 N   0  0  0  0  0  0  0  0  0  0  0  0
   19.5215   -5.5557   12.6684 H   0  0  0  0  0  0  0  0  0  0  0  0
   22.2289   -5.2064   13.8857 C   0  0  0  0  0  0  0  0  0  0  0  0
   23.1743   -6.0396   14.7487 C   0  0  0  0  0  0  0  0  0  0  0  0
   22.3804   -5.5442   12.3987 C   0  0  0  0  0  0  0  0  0  0  0  0
   16.4906   -3.3791   15.3164 C   0  0  0  0  0  0  0  0  0  0  0  0
   16.1609   -4.6622   14.5916 C   0  0  0  0  0  0  0  0  0  0  0  0
   16.2255   -5.8791   15.2504 C   0  0  0  0  0  0  0  0  0  0  0  0
   15.9128   -7.0561   14.5704 C   0  0  0  0  0  0  0  0  0  0  0  0
   15.5430   -7.0118   13.2280 C   0  0  0  0  0  0  0  0  0  0  0  0
   15.4909   -5.7931   12.5701 C   0  0  0  0  0  0  0  0  0  0  0  0
   15.8018   -4.6222   13.2522 C   0  0  0  0  0  0  0  0  0  0  0  0
   20.3806   -1.2783   17.8665 C   0  0  0  0  0  0  0  0  0  0  0  0
   21.7760   -0.6980   17.9485 C   0  0  0  0  0  0  0  0  0  0  0  0
   22.2223   -0.0890   19.1273 C   0  0  0  0  0  0  0  0  0  0  0  0
   23.5038    0.4553   19.1932 C   0  0  0  0  0  0  0  0  0  0  0  0
   24.3410    0.3909   18.0817 C   0  0  0  0  0  0  0  0  0  0  0  0
   23.8890   -0.2120   16.9097 C   0  0  0  0  0  0  0  0  0  0  0  0
   22.6098   -0.7549   16.8369 C   0  0  0  0  0  0  0  0  0  0  0  0
 31 32  2  0  0  0
 32 34  1  0  0  0
 32 33  1  0  0  0
 34 30  1  0  0  0
 30 26  1  0  0  0
 30 36  1  0  0  0
 36 37  1  0  0  0
 36 38  1  0  0  0
 26 28  1  0  0  0
 26 27  2  0  0  0
 28 25  1  0  0  0
 25 24  1  0  0  0
 25 39  1  0  0  0
 39 40  1  0  0  0
 40 45  2  0  0  0
 40 41  1  0  0  0
 41 42  2  0  0  0
 42 43  1  0  0  0
 43 44  2  0  0  0
 44 45  1  0  0  0
 24 21  1  0  0  0
 21 22  1  0  0  0
 21  1  1  0  0  0
  1 46  1  0  0  0
  1  2  1  0  0  0
 46 47  1  0  0  0
 47 48  1  0  0  0
 47 52  2  0  0  0
 48 49  2  0  0  0
 49 50  1  0  0  0
 50 51  2  0  0  0
 51 52  1  0  0  0
  2  3  1  0  0  0
  3  6  1  0  0  0
  3  4  2  0  0  0
  6  8  1  0  0  0
  6  7  1  0  0  0
  7 11  1  0  0  0
  8  9  1  0  0  0
  9 10  2  0  0  0
  9 11  1  0  0  0
 11 12  1  0  0  0
 12 13  1  0  0  0
 12 16  2  0  0  0
 13 14  2  0  0  0
 14 15  1  0  0  0
 15 17  2  0  0  0
 16 17  1  0  0  0
 17 18  1  0  0  0
 18 20  1  0  0  0
 18 19  2  0  0  0
 34 35  1  0  0  0
 28 29  1  0  0  0
 22 23  1  0  0  0
  2  5  1  0  0  0
M  END
> <minimizedAffinity>
-10.07012

$$$$
