1SZD_APR_A_1001


 45 48  0  0  0  0  0  0  0  0999 V2000
  -10.1617   31.3418  -43.3336 O   0  0  0  0  0  0  0  0  0  0  0  0
   -9.4484   32.6947  -43.3054 P   0  0  0  0  0  0  0  0  0  0  0  0
   -9.8534   33.4751  -42.1315 O   0  0  0  0  0  0  0  0  0  0  0  0
   -9.6657   33.3800  -44.5865 O   0  0  0  0  0  0  0  0  0  0  0  0
  -10.6138   33.5443  -44.7086 H   0  0  0  0  0  0  0  0  0  0  0  0
   -7.9310   32.5316  -43.3031 O   0  0  0  0  0  0  0  0  0  0  0  0
   -6.6935   33.2985  -43.1568 P   0  0  0  0  0  0  0  0  0  0  0  0
   -5.5290   32.4309  -43.1636 O   0  0  0  0  0  0  0  0  0  0  0  0
   -6.4546   34.1477  -42.0954 O   0  0  0  0  0  0  0  0  0  0  0  0
   -6.4149   33.6344  -41.2733 H   0  0  0  0  0  0  0  0  0  0  0  0
   -6.8096   33.7946  -44.5694 O   0  0  0  0  0  0  0  0  0  0  0  0
   -6.5881   34.9412  -45.2024 C   0  0  0  0  0  0  0  0  0  0  0  0
   -6.4956   36.6667  -43.9543 O   0  0  0  0  0  0  0  0  0  0  0  0
   -5.0451   38.1162  -44.9403 O   0  0  0  0  0  0  0  0  0  0  0  0
   -6.3558   37.9884  -44.4256 C   0  0  0  0  0  0  0  0  0  0  0  0
   -8.1484   38.8332  -44.7911 O   0  0  0  0  0  0  0  0  0  0  0  0
   -7.1092   38.2221  -45.5610 C   0  0  0  0  0  0  0  0  0  0  0  0
   -9.3704   37.0999  -45.9205 O   0  0  0  0  0  0  0  0  0  0  0  0
   -7.9545   37.0791  -45.8643 C   0  0  0  0  0  0  0  0  0  0  0  0
   -7.4445   36.0377  -44.9394 C   0  0  0  0  0  0  0  0  0  0  0  0
   -4.4026   37.9719  -44.2281 H   0  0  0  0  0  0  0  0  0  0  0  0
   -7.8342   39.6806  -44.4389 H   0  0  0  0  0  0  0  0  0  0  0  0
   -9.6594   37.7929  -46.5346 H   0  0  0  0  0  0  0  0  0  0  0  0
  -11.2090   30.9971  -42.4056 C   0  0  0  0  0  0  0  0  0  0  0  0
  -11.5330   30.2670  -39.0370 C   0  0  0  0  0  0  0  0  0  0  0  0
  -12.0220   29.0740  -39.7277 C   0  0  0  0  0  0  0  0  0  0  0  0
  -12.0361   27.9251  -38.8578 O   0  0  0  0  0  0  0  0  0  0  0  0
  -11.1543   28.8673  -40.8907 C   0  0  0  0  0  0  0  0  0  0  0  0
  -10.0542   27.9531  -40.6947 O   0  0  0  0  0  0  0  0  0  0  0  0
  -10.8822   31.0240  -40.0198 O   0  0  0  0  0  0  0  0  0  0  0  0
  -10.6074   30.2535  -41.1958 C   0  0  0  0  0  0  0  0  0  0  0  0
  -11.1369   27.7499  -38.5391 H   0  0  0  0  0  0  0  0  0  0  0  0
   -9.4771   28.2879  -39.9905 H   0  0  0  0  0  0  0  0  0  0  0  0
  -13.1331   32.4079  -34.5973 N   0  0  0  0  0  0  0  0  0  0  0  0
  -12.1409   31.4320  -34.8261 C   0  0  0  0  0  0  0  0  0  0  0  0
  -11.8114   30.9226  -36.1434 N   0  0  0  0  0  0  0  0  0  0  0  0
  -12.5939   31.5063  -37.1861 C   0  0  0  0  0  0  0  0  0  0  0  0
  -13.6097   32.4792  -37.0753 C   0  0  0  0  0  0  0  0  0  0  0  0
  -13.8865   32.9496  -35.7076 C   0  0  0  0  0  0  0  0  0  0  0  0
  -14.8805   33.9397  -35.4152 N   0  0  0  0  0  0  0  0  0  0  0  0
  -14.1274   32.7818  -38.3122 N   0  0  0  0  0  0  0  0  0  0  0  0
  -13.4478   32.0188  -39.1711 C   0  0  0  0  0  0  0  0  0  0  0  0
  -12.5027   31.2294  -38.5276 N   0  0  0  0  0  0  0  0  0  0  0  0
  -15.0325   34.2250  -34.4853 H   0  0  0  0  0  0  0  0  0  0  0  0
  -15.4114   34.3345  -36.1443 H   0  0  0  0  0  0  0  0  0  0  0  0
 34 35  1  0  0  0
 34 39  2  0  0  0
 35 36  2  0  0  0
 36 37  1  0  0  0
 37 38  2  0  0  0
 37 43  1  0  0  0
 38 39  1  0  0  0
 38 41  1  0  0  0
 39 40  1  0  0  0
 41 42  2  0  0  0
 42 43  1  0  0  0
 43 25  1  0  0  0
 25 26  1  0  0  0
 25 30  1  0  0  0
 26 27  1  0  0  0
 26 28  1  0  0  0
 28 29  1  0  0  0
 28 31  1  0  0  0
 30 31  1  0  0  0
 31 24  1  0  0  0
 24  1  1  0  0  0
  1  2  1  0  0  0
  2  3  2  0  0  0
  2  4  1  0  0  0
  2  6  1  0  0  0
  6  7  1  0  0  0
  7  8  2  0  0  0
  7  9  1  0  0  0
  7 11  1  0  0  0
 11 12  1  0  0  0
 12 20  1  0  0  0
 13 15  1  0  0  0
 13 20  1  0  0  0
 14 15  1  0  0  0
 15 17  1  0  0  0
 16 17  1  0  0  0
 17 19  1  0  0  0
 18 19  1  0  0  0
 19 20  1  0  0  0
 40 44  1  0  0  0
 40 45  1  0  0  0
 27 32  1  0  0  0
 29 33  1  0  0  0
  4  5  1  0  0  0
  9 10  1  0  0  0
 14 21  1  0  0  0
 16 22  1  0  0  0
 18 23  1  0  0  0
M  END
> <minimizedAffinity>
-11.02444

$$$$
1SZD_APR_A_1001


 45 48  0  0  0  0  0  0  0  0999 V2000
   -6.2346   34.6473  -46.3860 O   0  0  0  0  0  0  0  0  0  0  0  0
   -7.3975   33.9641  -45.6643 P   0  0  0  0  0  0  0  0  0  0  0  0
   -7.5585   32.5808  -46.1245 O   0  0  0  0  0  0  0  0  0  0  0  0
   -8.6044   34.7893  -45.8079 O   0  0  0  0  0  0  0  0  0  0  0  0
   -8.8365   34.8620  -46.7469 H   0  0  0  0  0  0  0  0  0  0  0  0
   -7.2039   33.9723  -44.1504 O   0  0  0  0  0  0  0  0  0  0  0  0
   -6.5633   33.2215  -43.0702 P   0  0  0  0  0  0  0  0  0  0  0  0
   -6.2171   34.0870  -41.9568 O   0  0  0  0  0  0  0  0  0  0  0  0
   -5.4251   32.4624  -43.2525 O   0  0  0  0  0  0  0  0  0  0  0  0
   -4.6859   33.0414  -43.4960 H   0  0  0  0  0  0  0  0  0  0  0  0
   -7.8803   32.6111  -42.6856 O   0  0  0  0  0  0  0  0  0  0  0  0
   -9.0350   33.0535  -42.2004 C   0  0  0  0  0  0  0  0  0  0  0  0
  -10.8897   33.1852  -41.1581 O   0  0  0  0  0  0  0  0  0  0  0  0
  -12.4913   32.3784  -42.5585 O   0  0  0  0  0  0  0  0  0  0  0  0
  -11.9360   32.2458  -41.2649 C   0  0  0  0  0  0  0  0  0  0  0  0
  -11.7340   30.7623  -39.9162 O   0  0  0  0  0  0  0  0  0  0  0  0
  -11.4695   30.9452  -41.3100 C   0  0  0  0  0  0  0  0  0  0  0  0
   -9.3948   30.2224  -40.0158 O   0  0  0  0  0  0  0  0  0  0  0  0
  -10.0345   30.9029  -41.0816 C   0  0  0  0  0  0  0  0  0  0  0  0
   -9.6483   32.3335  -41.1467 C   0  0  0  0  0  0  0  0  0  0  0  0
  -12.8628   33.2685  -42.6612 H   0  0  0  0  0  0  0  0  0  0  0  0
  -12.6925   30.7507  -39.7678 H   0  0  0  0  0  0  0  0  0  0  0  0
   -9.6750   29.2937  -40.0106 H   0  0  0  0  0  0  0  0  0  0  0  0
   -6.4308   35.6999  -47.3505 C   0  0  0  0  0  0  0  0  0  0  0  0
   -7.3090   38.5059  -45.5230 C   0  0  0  0  0  0  0  0  0  0  0  0
   -6.5905   37.6524  -44.5771 C   0  0  0  0  0  0  0  0  0  0  0  0
   -6.1260   38.3989  -43.4352 O   0  0  0  0  0  0  0  0  0  0  0  0
   -5.4832   37.0358  -45.3132 C   0  0  0  0  0  0  0  0  0  0  0  0
   -4.2143   37.7184  -45.2199 O   0  0  0  0  0  0  0  0  0  0  0  0
   -7.0537   37.9566  -46.7861 O   0  0  0  0  0  0  0  0  0  0  0  0
   -5.9517   37.0417  -46.7603 C   0  0  0  0  0  0  0  0  0  0  0  0
   -5.5279   39.1030  -43.7308 H   0  0  0  0  0  0  0  0  0  0  0  0
   -4.3027   38.6155  -45.5780 H   0  0  0  0  0  0  0  0  0  0  0  0
  -11.2931   40.5379  -42.9053 N   0  0  0  0  0  0  0  0  0  0  0  0
   -9.9055   40.6844  -42.6997 C   0  0  0  0  0  0  0  0  0  0  0  0
   -8.9039   40.0355  -43.5237 N   0  0  0  0  0  0  0  0  0  0  0  0
   -9.4631   39.2310  -44.5631 C   0  0  0  0  0  0  0  0  0  0  0  0
  -10.8247   39.0079  -44.8578 C   0  0  0  0  0  0  0  0  0  0  0  0
  -11.7822   39.7015  -43.9799 C   0  0  0  0  0  0  0  0  0  0  0  0
  -13.2019   39.5916  -44.1421 N   0  0  0  0  0  0  0  0  0  0  0  0
  -10.9550   38.1673  -45.9375 N   0  0  0  0  0  0  0  0  0  0  0  0
   -9.7056   37.8779  -46.3073 C   0  0  0  0  0  0  0  0  0  0  0  0
   -8.7668   38.5071  -45.4989 N   0  0  0  0  0  0  0  0  0  0  0  0
  -13.8058   40.0731  -43.5316 H   0  0  0  0  0  0  0  0  0  0  0  0
  -13.5732   39.0346  -44.8640 H   0  0  0  0  0  0  0  0  0  0  0  0
 34 35  1  0  0  0
 34 39  2  0  0  0
 35 36  2  0  0  0
 36 37  1  0  0  0
 37 38  2  0  0  0
 37 43  1  0  0  0
 38 39  1  0  0  0
 38 41  1  0  0  0
 39 40  1  0  0  0
 41 42  2  0  0  0
 42 43  1  0  0  0
 43 25  1  0  0  0
 25 26  1  0  0  0
 25 30  1  0  0  0
 26 27  1  0  0  0
 26 28  1  0  0  0
 28 29  1  0  0  0
 28 31  1  0  0  0
 30 31  1  0  0  0
 31 24  1  0  0  0
 24  1  1  0  0  0
  1  2  1  0  0  0
  2  3  2  0  0  0
  2  4  1  0  0  0
  2  6  1  0  0  0
  6  7  1  0  0  0
  7  8  2  0  0  0
  7  9  1  0  0  0
  7 11  1  0  0  0
 11 12  1  0  0  0
 12 20  1  0  0  0
 13 15  1  0  0  0
 13 20  1  0  0  0
 14 15  1  0  0  0
 15 17  1  0  0  0
 16 17  1  0  0  0
 17 19  1  0  0  0
 18 19  1  0  0  0
 19 20  1  0  0  0
 40 44  1  0  0  0
 40 45  1  0  0  0
 27 32  1  0  0  0
 29 33  1  0  0  0
  4  5  1  0  0  0
  9 10  1  0  0  0
 14 21  1  0  0  0
 16 22  1  0  0  0
 18 23  1  0  0  0
M  END
> <minimizedAffinity>
-10.75745

$$$$
1SZD_APR_A_1001


 45 48  0  0  0  0  0  0  0  0999 V2000
   -7.0346   33.4984  -44.7965 O   0  0  0  0  0  0  0  0  0  0  0  0
   -6.8459   33.3943  -43.2820 P   0  0  0  0  0  0  0  0  0  0  0  0
   -6.8025   34.7253  -42.6676 O   0  0  0  0  0  0  0  0  0  0  0  0
   -5.6675   32.5636  -42.9999 O   0  0  0  0  0  0  0  0  0  0  0  0
   -4.8774   32.9864  -43.3713 H   0  0  0  0  0  0  0  0  0  0  0  0
   -7.9566   32.5746  -42.6310 O   0  0  0  0  0  0  0  0  0  0  0  0
   -9.3187   32.6950  -42.1104 P   0  0  0  0  0  0  0  0  0  0  0  0
  -10.2658   32.9945  -43.1698 O   0  0  0  0  0  0  0  0  0  0  0  0
   -9.6672   33.5788  -41.1093 O   0  0  0  0  0  0  0  0  0  0  0  0
   -9.5420   34.4882  -41.4228 H   0  0  0  0  0  0  0  0  0  0  0  0
   -9.4036   31.2066  -41.9305 O   0  0  0  0  0  0  0  0  0  0  0  0
  -10.3772   30.3076  -41.8378 C   0  0  0  0  0  0  0  0  0  0  0  0
  -10.2980   30.9381  -39.8031 O   0  0  0  0  0  0  0  0  0  0  0  0
  -12.1335   32.2336  -39.4429 O   0  0  0  0  0  0  0  0  0  0  0  0
  -11.4255   31.1037  -38.9725 C   0  0  0  0  0  0  0  0  0  0  0  0
  -11.8911   29.3936  -38.0137 O   0  0  0  0  0  0  0  0  0  0  0  0
  -12.3648   30.1068  -39.1595 C   0  0  0  0  0  0  0  0  0  0  0  0
  -11.6834   27.7145  -39.7197 O   0  0  0  0  0  0  0  0  0  0  0  0
  -11.8574   29.0804  -40.0550 C   0  0  0  0  0  0  0  0  0  0  0  0
  -10.6142   29.6912  -40.5853 C   0  0  0  0  0  0  0  0  0  0  0  0
  -11.5733   33.0217  -39.3652 H   0  0  0  0  0  0  0  0  0  0  0  0
  -12.1112   29.8902  -37.2100 H   0  0  0  0  0  0  0  0  0  0  0  0
  -12.5178   27.3565  -39.3784 H   0  0  0  0  0  0  0  0  0  0  0  0
   -6.3864   34.5107  -45.5915 C   0  0  0  0  0  0  0  0  0  0  0  0
   -7.9055   37.3482  -46.8668 C   0  0  0  0  0  0  0  0  0  0  0  0
   -6.8430   37.0310  -47.8208 C   0  0  0  0  0  0  0  0  0  0  0  0
   -7.0631   37.6713  -49.0930 O   0  0  0  0  0  0  0  0  0  0  0  0
   -6.8011   35.5711  -47.9446 C   0  0  0  0  0  0  0  0  0  0  0  0
   -7.5586   35.0153  -49.0409 O   0  0  0  0  0  0  0  0  0  0  0  0
   -8.0255   36.2133  -46.0545 O   0  0  0  0  0  0  0  0  0  0  0  0
   -7.3796   35.0713  -46.6296 C   0  0  0  0  0  0  0  0  0  0  0  0
   -7.9086   37.3731  -49.4631 H   0  0  0  0  0  0  0  0  0  0  0  0
   -8.4952   35.2449  -48.9360 H   0  0  0  0  0  0  0  0  0  0  0  0
  -10.4677   40.6057  -43.7560 N   0  0  0  0  0  0  0  0  0  0  0  0
  -10.9596   39.6676  -44.6872 C   0  0  0  0  0  0  0  0  0  0  0  0
  -10.1030   38.8247  -45.4990 N   0  0  0  0  0  0  0  0  0  0  0  0
   -8.7110   39.0412  -45.2631 C   0  0  0  0  0  0  0  0  0  0  0  0
   -8.1081   39.9492  -44.3673 C   0  0  0  0  0  0  0  0  0  0  0  0
   -9.0413   40.7689  -43.5762 C   0  0  0  0  0  0  0  0  0  0  0  0
   -8.5996   41.7357  -42.6149 N   0  0  0  0  0  0  0  0  0  0  0  0
   -6.7381   39.8585  -44.4346 N   0  0  0  0  0  0  0  0  0  0  0  0
   -6.4953   38.9147  -45.3468 C   0  0  0  0  0  0  0  0  0  0  0  0
   -7.6687   38.3892  -45.8739 N   0  0  0  0  0  0  0  0  0  0  0  0
   -9.2590   42.2623  -42.1077 H   0  0  0  0  0  0  0  0  0  0  0  0
   -7.6369   41.8732  -42.4616 H   0  0  0  0  0  0  0  0  0  0  0  0
 34 35  1  0  0  0
 34 39  2  0  0  0
 35 36  2  0  0  0
 36 37  1  0  0  0
 37 38  2  0  0  0
 37 43  1  0  0  0
 38 39  1  0  0  0
 38 41  1  0  0  0
 39 40  1  0  0  0
 41 42  2  0  0  0
 42 43  1  0  0  0
 43 25  1  0  0  0
 25 26  1  0  0  0
 25 30  1  0  0  0
 26 27  1  0  0  0
 26 28  1  0  0  0
 28 29  1  0  0  0
 28 31  1  0  0  0
 30 31  1  0  0  0
 31 24  1  0  0  0
 24  1  1  0  0  0
  1  2  1  0  0  0
  2  3  2  0  0  0
  2  4  1  0  0  0
  2  6  1  0  0  0
  6  7  1  0  0  0
  7  8  2  0  0  0
  7  9  1  0  0  0
  7 11  1  0  0  0
 11 12  1  0  0  0
 12 20  1  0  0  0
 13 15  1  0  0  0
 13 20  1  0  0  0
 14 15  1  0  0  0
 15 17  1  0  0  0
 16 17  1  0  0  0
 17 19  1  0  0  0
 18 19  1  0  0  0
 19 20  1  0  0  0
 40 44  1  0  0  0
 40 45  1  0  0  0
 27 32  1  0  0  0
 29 33  1  0  0  0
  4  5  1  0  0  0
  9 10  1  0  0  0
 14 21  1  0  0  0
 16 22  1  0  0  0
 18 23  1  0  0  0
M  END
> <minimizedAffinity>
-10.17849

$$$$
1SZD_APR_A_1001


 45 48  0  0  0  0  0  0  0  0999 V2000
   -9.6469   33.2873  -42.3509 O   0  0  0  0  0  0  0  0  0  0  0  0
   -8.6410   33.0054  -43.4683 P   0  0  0  0  0  0  0  0  0  0  0  0
   -9.1896   32.0509  -44.4374 O   0  0  0  0  0  0  0  0  0  0  0  0
   -7.3641   32.5897  -42.8725 O   0  0  0  0  0  0  0  0  0  0  0  0
   -7.4928   31.7690  -42.3719 H   0  0  0  0  0  0  0  0  0  0  0  0
   -8.2336   34.2839  -44.1954 O   0  0  0  0  0  0  0  0  0  0  0  0
   -7.2232   34.8112  -45.1130 P   0  0  0  0  0  0  0  0  0  0  0  0
   -7.7739   35.0274  -46.4392 O   0  0  0  0  0  0  0  0  0  0  0  0
   -6.0258   34.1721  -45.3631 O   0  0  0  0  0  0  0  0  0  0  0  0
   -6.1977   33.3216  -45.7968 H   0  0  0  0  0  0  0  0  0  0  0  0
   -7.2900   36.1554  -44.4469 O   0  0  0  0  0  0  0  0  0  0  0  0
   -6.4130   37.0355  -43.9771 C   0  0  0  0  0  0  0  0  0  0  0  0
   -6.0961   38.3614  -45.6158 O   0  0  0  0  0  0  0  0  0  0  0  0
   -7.6997   37.8942  -47.1609 O   0  0  0  0  0  0  0  0  0  0  0  0
   -7.1248   38.9329  -46.3930 C   0  0  0  0  0  0  0  0  0  0  0  0
   -7.7541   40.6801  -45.6110 O   0  0  0  0  0  0  0  0  0  0  0  0
   -8.2061   39.3231  -45.6251 C   0  0  0  0  0  0  0  0  0  0  0  0
   -7.9109   40.2223  -43.2575 O   0  0  0  0  0  0  0  0  0  0  0  0
   -7.9154   39.1721  -44.2089 C   0  0  0  0  0  0  0  0  0  0  0  0
   -6.6412   38.4128  -44.2134 C   0  0  0  0  0  0  0  0  0  0  0  0
   -7.0301   37.5244  -47.7574 H   0  0  0  0  0  0  0  0  0  0  0  0
   -7.8423   41.0596  -46.4993 H   0  0  0  0  0  0  0  0  0  0  0  0
   -8.7599   40.6905  -43.2886 H   0  0  0  0  0  0  0  0  0  0  0  0
  -10.6857   32.3564  -41.9886 C   0  0  0  0  0  0  0  0  0  0  0  0
  -11.5079   30.9805  -38.9201 C   0  0  0  0  0  0  0  0  0  0  0  0
  -11.6721   29.8868  -39.8773 C   0  0  0  0  0  0  0  0  0  0  0  0
  -11.6693   28.6031  -39.2224 O   0  0  0  0  0  0  0  0  0  0  0  0
  -10.5840   30.0045  -40.8521 C   0  0  0  0  0  0  0  0  0  0  0  0
   -9.4115   29.2076  -40.5787 O   0  0  0  0  0  0  0  0  0  0  0  0
  -10.8116   31.9788  -39.6135 O   0  0  0  0  0  0  0  0  0  0  0  0
  -10.2100   31.4783  -40.8134 C   0  0  0  0  0  0  0  0  0  0  0  0
  -10.8280   28.4802  -38.7554 H   0  0  0  0  0  0  0  0  0  0  0  0
   -9.0323   29.4722  -39.7260 H   0  0  0  0  0  0  0  0  0  0  0  0
  -13.5526   33.1485  -34.6806 N   0  0  0  0  0  0  0  0  0  0  0  0
  -12.3400   32.4469  -34.8439 C   0  0  0  0  0  0  0  0  0  0  0  0
  -11.9068   31.8861  -36.1092 N   0  0  0  0  0  0  0  0  0  0  0  0
  -12.8322   32.1129  -37.1733 C   0  0  0  0  0  0  0  0  0  0  0  0
  -14.0685   32.7910  -37.1257 C   0  0  0  0  0  0  0  0  0  0  0  0
  -14.4398   33.3345  -35.8084 C   0  0  0  0  0  0  0  0  0  0  0  0
  -15.6569   34.0568  -35.5835 N   0  0  0  0  0  0  0  0  0  0  0  0
  -14.6668   32.7946  -38.3632 N   0  0  0  0  0  0  0  0  0  0  0  0
  -13.8217   32.1384  -39.1613 C   0  0  0  0  0  0  0  0  0  0  0  0
  -12.6909   31.7089  -38.4778 N   0  0  0  0  0  0  0  0  0  0  0  0
  -15.8653   34.4028  -34.6856 H   0  0  0  0  0  0  0  0  0  0  0  0
  -16.2848   34.2069  -36.3268 H   0  0  0  0  0  0  0  0  0  0  0  0
 34 35  1  0  0  0
 34 39  2  0  0  0
 35 36  2  0  0  0
 36 37  1  0  0  0
 37 38  2  0  0  0
 37 43  1  0  0  0
 38 39  1  0  0  0
 38 41  1  0  0  0
 39 40  1  0  0  0
 41 42  2  0  0  0
 42 43  1  0  0  0
 43 25  1  0  0  0
 25 26  1  0  0  0
 25 30  1  0  0  0
 26 27  1  0  0  0
 26 28  1  0  0  0
 28 29  1  0  0  0
 28 31  1  0  0  0
 30 31  1  0  0  0
 31 24  1  0  0  0
 24  1  1  0  0  0
  1  2  1  0  0  0
  2  3  2  0  0  0
  2  4  1  0  0  0
  2  6  1  0  0  0
  6  7  1  0  0  0
  7  8  2  0  0  0
  7  9  1  0  0  0
  7 11  1  0  0  0
 11 12  1  0  0  0
 12 20  1  0  0  0
 13 15  1  0  0  0
 13 20  1  0  0  0
 14 15  1  0  0  0
 15 17  1  0  0  0
 16 17  1  0  0  0
 17 19  1  0  0  0
 18 19  1  0  0  0
 19 20  1  0  0  0
 40 44  1  0  0  0
 40 45  1  0  0  0
 27 32  1  0  0  0
 29 33  1  0  0  0
  4  5  1  0  0  0
  9 10  1  0  0  0
 14 21  1  0  0  0
 16 22  1  0  0  0
 18 23  1  0  0  0
M  END
> <minimizedAffinity>
-10.02980

$$$$
1SZD_APR_A_1001


 45 48  0  0  0  0  0  0  0  0999 V2000
   -6.8648   36.6357  -45.3320 O   0  0  0  0  0  0  0  0  0  0  0  0
   -7.0871   35.1232  -45.2778 P   0  0  0  0  0  0  0  0  0  0  0  0
   -6.0049   34.4105  -45.9648 O   0  0  0  0  0  0  0  0  0  0  0  0
   -8.4292   34.8155  -45.7901 O   0  0  0  0  0  0  0  0  0  0  0  0
   -8.4931   35.0941  -46.7170 H   0  0  0  0  0  0  0  0  0  0  0  0
   -7.1893   34.6200  -43.8406 O   0  0  0  0  0  0  0  0  0  0  0  0
   -6.6774   33.5789  -42.9489 P   0  0  0  0  0  0  0  0  0  0  0  0
   -6.1508   34.1461  -41.7202 O   0  0  0  0  0  0  0  0  0  0  0  0
   -5.7060   32.6742  -43.3268 O   0  0  0  0  0  0  0  0  0  0  0  0
   -4.8769   33.1453  -43.5041 H   0  0  0  0  0  0  0  0  0  0  0  0
   -8.0768   33.1554  -42.6062 O   0  0  0  0  0  0  0  0  0  0  0  0
   -9.0369   32.4542  -43.1987 C   0  0  0  0  0  0  0  0  0  0  0  0
  -10.3947   30.9552  -42.5257 O   0  0  0  0  0  0  0  0  0  0  0  0
   -9.5858   30.1735  -40.5478 O   0  0  0  0  0  0  0  0  0  0  0  0
  -10.7269   30.7251  -41.1746 C   0  0  0  0  0  0  0  0  0  0  0  0
  -12.2985   31.8485  -40.6013 O   0  0  0  0  0  0  0  0  0  0  0  0
  -10.8757   31.9016  -40.4641 C   0  0  0  0  0  0  0  0  0  0  0  0
  -11.8251   34.0066  -41.5454 O   0  0  0  0  0  0  0  0  0  0  0  0
  -10.7958   33.0526  -41.3483 C   0  0  0  0  0  0  0  0  0  0  0  0
  -10.3311   32.4561  -42.6243 C   0  0  0  0  0  0  0  0  0  0  0  0
   -9.3682   29.3239  -40.9622 H   0  0  0  0  0  0  0  0  0  0  0  0
  -12.6469   31.1129  -40.0736 H   0  0  0  0  0  0  0  0  0  0  0  0
  -12.0978   34.3698  -40.6883 H   0  0  0  0  0  0  0  0  0  0  0  0
   -7.0275   37.4011  -46.5421 C   0  0  0  0  0  0  0  0  0  0  0  0
   -8.9271   39.9273  -45.1298 C   0  0  0  0  0  0  0  0  0  0  0  0
   -7.9401   39.5839  -44.1065 C   0  0  0  0  0  0  0  0  0  0  0  0
   -7.8043   40.6320  -43.1267 O   0  0  0  0  0  0  0  0  0  0  0  0
   -6.6771   39.3200  -44.8018 C   0  0  0  0  0  0  0  0  0  0  0  0
   -5.7693   40.4388  -44.8942 O   0  0  0  0  0  0  0  0  0  0  0  0
   -8.4738   39.3118  -46.3037 O   0  0  0  0  0  0  0  0  0  0  0  0
   -7.1047   38.9031  -46.2007 C   0  0  0  0  0  0  0  0  0  0  0  0
   -7.5218   41.4498  -43.5651 H   0  0  0  0  0  0  0  0  0  0  0  0
   -6.1944   41.1607  -45.3831 H   0  0  0  0  0  0  0  0  0  0  0  0
  -12.9688   39.7974  -41.8890 N   0  0  0  0  0  0  0  0  0  0  0  0
  -11.7080   40.4119  -41.7401 C   0  0  0  0  0  0  0  0  0  0  0  0
  -10.6662   40.3498  -42.7471 N   0  0  0  0  0  0  0  0  0  0  0  0
  -11.0435   39.6021  -43.9040 C   0  0  0  0  0  0  0  0  0  0  0  0
  -12.2654   38.9442  -44.1584 C   0  0  0  0  0  0  0  0  0  0  0  0
  -13.2748   39.0533  -43.0917 C   0  0  0  0  0  0  0  0  0  0  0  0
  -14.5721   38.4521  -43.1883 N   0  0  0  0  0  0  0  0  0  0  0  0
  -12.2387   38.3316  -45.3886 N   0  0  0  0  0  0  0  0  0  0  0  0
  -11.0315   38.6049  -45.8884 C   0  0  0  0  0  0  0  0  0  0  0  0
  -10.2732   39.3783  -45.0182 N   0  0  0  0  0  0  0  0  0  0  0  0
  -15.2164   38.5505  -42.4505 H   0  0  0  0  0  0  0  0  0  0  0  0
  -14.8189   37.9408  -43.9926 H   0  0  0  0  0  0  0  0  0  0  0  0
 34 35  1  0  0  0
 34 39  2  0  0  0
 35 36  2  0  0  0
 36 37  1  0  0  0
 37 38  2  0  0  0
 37 43  1  0  0  0
 38 39  1  0  0  0
 38 41  1  0  0  0
 39 40  1  0  0  0
 41 42  2  0  0  0
 42 43  1  0  0  0
 43 25  1  0  0  0
 25 26  1  0  0  0
 25 30  1  0  0  0
 26 27  1  0  0  0
 26 28  1  0  0  0
 28 29  1  0  0  0
 28 31  1  0  0  0
 30 31  1  0  0  0
 31 24  1  0  0  0
 24  1  1  0  0  0
  1  2  1  0  0  0
  2  3  2  0  0  0
  2  4  1  0  0  0
  2  6  1  0  0  0
  6  7  1  0  0  0
  7  8  2  0  0  0
  7  9  1  0  0  0
  7 11  1  0  0  0
 11 12  1  0  0  0
 12 20  1  0  0  0
 13 15  1  0  0  0
 13 20  1  0  0  0
 14 15  1  0  0  0
 15 17  1  0  0  0
 16 17  1  0  0  0
 17 19  1  0  0  0
 18 19  1  0  0  0
 19 20  1  0  0  0
 40 44  1  0  0  0
 40 45  1  0  0  0
 27 32  1  0  0  0
 29 33  1  0  0  0
  4  5  1  0  0  0
  9 10  1  0  0  0
 14 21  1  0  0  0
 16 22  1  0  0  0
 18 23  1  0  0  0
M  END
> <minimizedAffinity>
-9.99059

$$$$
1SZD_APR_A_1001


 45 48  0  0  0  0  0  0  0  0999 V2000
   -6.5109   35.6666  -45.9304 O   0  0  0  0  0  0  0  0  0  0  0  0
   -7.6035   34.7817  -45.3278 P   0  0  0  0  0  0  0  0  0  0  0  0
   -7.7290   33.5248  -46.0733 O   0  0  0  0  0  0  0  0  0  0  0  0
   -8.8507   35.5525  -45.2356 O   0  0  0  0  0  0  0  0  0  0  0  0
   -9.1351   35.8150  -46.1250 H   0  0  0  0  0  0  0  0  0  0  0  0
   -7.3305   34.4712  -43.8586 O   0  0  0  0  0  0  0  0  0  0  0  0
   -6.7016   33.4730  -42.9932 P   0  0  0  0  0  0  0  0  0  0  0  0
   -6.2193   34.0697  -41.7603 O   0  0  0  0  0  0  0  0  0  0  0  0
   -5.6475   32.6804  -43.3998 O   0  0  0  0  0  0  0  0  0  0  0  0
   -4.8738   33.2378  -43.5780 H   0  0  0  0  0  0  0  0  0  0  0  0
   -8.0450   32.9012  -42.6418 O   0  0  0  0  0  0  0  0  0  0  0  0
   -9.0050   33.1801  -41.7672 C   0  0  0  0  0  0  0  0  0  0  0  0
   -9.6068   31.1426  -41.9403 O   0  0  0  0  0  0  0  0  0  0  0  0
   -9.3578   30.2049  -39.8821 O   0  0  0  0  0  0  0  0  0  0  0  0
  -10.2786   30.4185  -40.9337 C   0  0  0  0  0  0  0  0  0  0  0  0
  -12.2776   30.6127  -41.0968 O   0  0  0  0  0  0  0  0  0  0  0  0
  -11.2388   31.1795  -40.2934 C   0  0  0  0  0  0  0  0  0  0  0  0
  -12.5843   32.9555  -41.5331 O   0  0  0  0  0  0  0  0  0  0  0  0
  -11.3908   32.4716  -40.9417 C   0  0  0  0  0  0  0  0  0  0  0  0
  -10.2444   32.5052  -41.8822 C   0  0  0  0  0  0  0  0  0  0  0  0
   -8.6160   29.6700  -40.2056 H   0  0  0  0  0  0  0  0  0  0  0  0
  -12.3996   29.6807  -40.8572 H   0  0  0  0  0  0  0  0  0  0  0  0
  -13.3053   32.9158  -40.8854 H   0  0  0  0  0  0  0  0  0  0  0  0
   -6.0094   35.4780  -47.2682 C   0  0  0  0  0  0  0  0  0  0  0  0
   -6.0141   38.9142  -46.8470 C   0  0  0  0  0  0  0  0  0  0  0  0
   -4.6636   38.4930  -46.4754 C   0  0  0  0  0  0  0  0  0  0  0  0
   -3.7366   39.5960  -46.5043 O   0  0  0  0  0  0  0  0  0  0  0  0
   -4.2758   37.4296  -47.4066 C   0  0  0  0  0  0  0  0  0  0  0  0
   -3.5171   37.8547  -48.5591 O   0  0  0  0  0  0  0  0  0  0  0  0
   -6.5858   37.8061  -47.4855 O   0  0  0  0  0  0  0  0  0  0  0  0
   -5.5999   36.8391  -47.8666 C   0  0  0  0  0  0  0  0  0  0  0  0
   -3.7074   39.9705  -47.3986 H   0  0  0  0  0  0  0  0  0  0  0  0
   -4.0431   38.4824  -49.0789 H   0  0  0  0  0  0  0  0  0  0  0  0
  -10.5233   41.3288  -46.0157 N   0  0  0  0  0  0  0  0  0  0  0  0
   -9.7404   41.2504  -47.1862 C   0  0  0  0  0  0  0  0  0  0  0  0
   -8.4816   40.5337  -47.2577 N   0  0  0  0  0  0  0  0  0  0  0  0
   -8.1125   39.9171  -46.0234 C   0  0  0  0  0  0  0  0  0  0  0  0
   -8.8090   39.9333  -44.7965 C   0  0  0  0  0  0  0  0  0  0  0  0
  -10.0791   40.6786  -44.8018 C   0  0  0  0  0  0  0  0  0  0  0  0
  -10.9164   40.7906  -43.6441 N   0  0  0  0  0  0  0  0  0  0  0  0
   -8.1232   39.2222  -43.8408 N   0  0  0  0  0  0  0  0  0  0  0  0
   -7.0293   38.7718  -44.4591 C   0  0  0  0  0  0  0  0  0  0  0  0
   -6.9850   39.1696  -45.7896 N   0  0  0  0  0  0  0  0  0  0  0  0
  -11.7580   41.2991  -43.6926 H   0  0  0  0  0  0  0  0  0  0  0  0
  -10.6499   40.3590  -42.8003 H   0  0  0  0  0  0  0  0  0  0  0  0
 34 35  1  0  0  0
 34 39  2  0  0  0
 35 36  2  0  0  0
 36 37  1  0  0  0
 37 38  2  0  0  0
 37 43  1  0  0  0
 38 39  1  0  0  0
 38 41  1  0  0  0
 39 40  1  0  0  0
 41 42  2  0  0  0
 42 43  1  0  0  0
 43 25  1  0  0  0
 25 26  1  0  0  0
 25 30  1  0  0  0
 26 27  1  0  0  0
 26 28  1  0  0  0
 28 29  1  0  0  0
 28 31  1  0  0  0
 30 31  1  0  0  0
 31 24  1  0  0  0
 24  1  1  0  0  0
  1  2  1  0  0  0
  2  3  2  0  0  0
  2  4  1  0  0  0
  2  6  1  0  0  0
  6  7  1  0  0  0
  7  8  2  0  0  0
  7  9  1  0  0  0
  7 11  1  0  0  0
 11 12  1  0  0  0
 12 20  1  0  0  0
 13 15  1  0  0  0
 13 20  1  0  0  0
 14 15  1  0  0  0
 15 17  1  0  0  0
 16 17  1  0  0  0
 17 19  1  0  0  0
 18 19  1  0  0  0
 19 20  1  0  0  0
 40 44  1  0  0  0
 40 45  1  0  0  0
 27 32  1  0  0  0
 29 33  1  0  0  0
  4  5  1  0  0  0
  9 10  1  0  0  0
 14 21  1  0  0  0
 16 22  1  0  0  0
 18 23  1  0  0  0
M  END
> <minimizedAffinity>
-9.98305

$$$$
1SZD_APR_A_1001


 45 48  0  0  0  0  0  0  0  0999 V2000
   -6.3401   34.8272  -47.0882 O   0  0  0  0  0  0  0  0  0  0  0  0
   -6.7604   36.1581  -47.7143 P   0  0  0  0  0  0  0  0  0  0  0  0
   -8.1832   36.1425  -48.0702 O   0  0  0  0  0  0  0  0  0  0  0  0
   -5.8638   36.4665  -48.8364 O   0  0  0  0  0  0  0  0  0  0  0  0
   -5.9458   35.7778  -49.5145 H   0  0  0  0  0  0  0  0  0  0  0  0
   -6.4880   37.3322  -46.7780 O   0  0  0  0  0  0  0  0  0  0  0  0
   -5.4134   37.9668  -46.0140 P   0  0  0  0  0  0  0  0  0  0  0  0
   -4.3628   38.4593  -46.8871 O   0  0  0  0  0  0  0  0  0  0  0  0
   -4.7202   37.3214  -45.0102 O   0  0  0  0  0  0  0  0  0  0  0  0
   -4.2225   36.5788  -45.3868 H   0  0  0  0  0  0  0  0  0  0  0  0
   -6.2815   39.1627  -45.7472 O   0  0  0  0  0  0  0  0  0  0  0  0
   -6.7659   40.1724  -46.4616 C   0  0  0  0  0  0  0  0  0  0  0  0
   -8.7682   39.6158  -46.9359 O   0  0  0  0  0  0  0  0  0  0  0  0
   -9.2499   37.7692  -45.6969 O   0  0  0  0  0  0  0  0  0  0  0  0
   -9.6882   39.0756  -46.0137 C   0  0  0  0  0  0  0  0  0  0  0  0
  -10.7300   40.5248  -45.0784 O   0  0  0  0  0  0  0  0  0  0  0  0
   -9.6102   39.6876  -44.7766 C   0  0  0  0  0  0  0  0  0  0  0  0
   -9.0591   42.1661  -44.5422 O   0  0  0  0  0  0  0  0  0  0  0  0
   -8.7028   40.8224  -44.8178 C   0  0  0  0  0  0  0  0  0  0  0  0
   -8.0506   40.6746  -46.1418 C   0  0  0  0  0  0  0  0  0  0  0  0
   -9.2573   37.2224  -46.4981 H   0  0  0  0  0  0  0  0  0  0  0  0
  -11.5358   39.9861  -45.1157 H   0  0  0  0  0  0  0  0  0  0  0  0
   -9.4808   42.2164  -43.6701 H   0  0  0  0  0  0  0  0  0  0  0  0
   -7.2711   33.9588  -46.4130 C   0  0  0  0  0  0  0  0  0  0  0  0
   -8.8998   33.4894  -43.3944 C   0  0  0  0  0  0  0  0  0  0  0  0
   -7.4760   33.4403  -43.0635 C   0  0  0  0  0  0  0  0  0  0  0  0
   -7.2497   33.6596  -41.6572 O   0  0  0  0  0  0  0  0  0  0  0  0
   -6.8101   34.4530  -43.8878 C   0  0  0  0  0  0  0  0  0  0  0  0
   -6.6181   35.7400  -43.2622 O   0  0  0  0  0  0  0  0  0  0  0  0
   -8.9605   34.0005  -44.6973 O   0  0  0  0  0  0  0  0  0  0  0  0
   -7.7261   34.6112  -45.0918 C   0  0  0  0  0  0  0  0  0  0  0  0
   -7.5946   34.5308  -41.4063 H   0  0  0  0  0  0  0  0  0  0  0  0
   -7.4802   36.1165  -43.0260 H   0  0  0  0  0  0  0  0  0  0  0  0
  -10.7546   29.5506  -40.5837 N   0  0  0  0  0  0  0  0  0  0  0  0
  -10.0263   30.6884  -40.1783 C   0  0  0  0  0  0  0  0  0  0  0  0
   -9.5650   31.7101  -41.0984 N   0  0  0  0  0  0  0  0  0  0  0  0
   -9.9198   31.4478  -42.4569 C   0  0  0  0  0  0  0  0  0  0  0  0
  -10.6359   30.3485  -42.9757 C   0  0  0  0  0  0  0  0  0  0  0  0
  -11.0731   29.3541  -41.9814 C   0  0  0  0  0  0  0  0  0  0  0  0
  -11.8167   28.1810  -42.3343 N   0  0  0  0  0  0  0  0  0  0  0  0
  -10.7720   30.4591  -44.3391 N   0  0  0  0  0  0  0  0  0  0  0  0
  -10.1590   31.6007  -44.6595 C   0  0  0  0  0  0  0  0  0  0  0  0
   -9.6289   32.2355  -43.5430 N   0  0  0  0  0  0  0  0  0  0  0  0
  -12.0887   27.5421  -41.6363 H   0  0  0  0  0  0  0  0  0  0  0  0
  -12.0556   28.0139  -43.2746 H   0  0  0  0  0  0  0  0  0  0  0  0
 34 35  1  0  0  0
 34 39  2  0  0  0
 35 36  2  0  0  0
 36 37  1  0  0  0
 37 38  2  0  0  0
 37 43  1  0  0  0
 38 39  1  0  0  0
 38 41  1  0  0  0
 39 40  1  0  0  0
 41 42  2  0  0  0
 42 43  1  0  0  0
 43 25  1  0  0  0
 25 26  1  0  0  0
 25 30  1  0  0  0
 26 27  1  0  0  0
 26 28  1  0  0  0
 28 29  1  0  0  0
 28 31  1  0  0  0
 30 31  1  0  0  0
 31 24  1  0  0  0
 24  1  1  0  0  0
  1  2  1  0  0  0
  2  3  2  0  0  0
  2  4  1  0  0  0
  2  6  1  0  0  0
  6  7  1  0  0  0
  7  8  2  0  0  0
  7  9  1  0  0  0
  7 11  1  0  0  0
 11 12  1  0  0  0
 12 20  1  0  0  0
 13 15  1  0  0  0
 13 20  1  0  0  0
 14 15  1  0  0  0
 15 17  1  0  0  0
 16 17  1  0  0  0
 17 19  1  0  0  0
 18 19  1  0  0  0
 19 20  1  0  0  0
 40 44  1  0  0  0
 40 45  1  0  0  0
 27 32  1  0  0  0
 29 33  1  0  0  0
  4  5  1  0  0  0
  9 10  1  0  0  0
 14 21  1  0  0  0
 16 22  1  0  0  0
 18 23  1  0  0  0
M  END
> <minimizedAffinity>
-9.63468

$$$$
1SZD_APR_A_1001


 45 48  0  0  0  0  0  0  0  0999 V2000
  -11.6771   30.3988  -43.9000 O   0  0  0  0  0  0  0  0  0  0  0  0
  -11.0833   31.6054  -44.6289 P   0  0  0  0  0  0  0  0  0  0  0  0
  -11.9534   32.7784  -44.4938 O   0  0  0  0  0  0  0  0  0  0  0  0
  -10.7905   31.2315  -46.0192 O   0  0  0  0  0  0  0  0  0  0  0  0
  -11.6145   30.9865  -46.4684 H   0  0  0  0  0  0  0  0  0  0  0  0
   -9.6902   31.9486  -44.1083 O   0  0  0  0  0  0  0  0  0  0  0  0
   -8.9763   32.9427  -43.3064 P   0  0  0  0  0  0  0  0  0  0  0  0
   -7.6052   32.5353  -43.0560 O   0  0  0  0  0  0  0  0  0  0  0  0
   -9.4154   33.3689  -42.0693 O   0  0  0  0  0  0  0  0  0  0  0  0
   -9.3956   32.6262  -41.4457 H   0  0  0  0  0  0  0  0  0  0  0  0
   -8.8918   33.8654  -44.4881 O   0  0  0  0  0  0  0  0  0  0  0  0
   -8.4057   35.0794  -44.7218 C   0  0  0  0  0  0  0  0  0  0  0  0
   -7.5096   36.7782  -45.6464 O   0  0  0  0  0  0  0  0  0  0  0  0
   -5.3881   36.9261  -44.8373 O   0  0  0  0  0  0  0  0  0  0  0  0
   -6.1535   36.8609  -46.0244 C   0  0  0  0  0  0  0  0  0  0  0  0
   -5.8694   36.1821  -47.9002 O   0  0  0  0  0  0  0  0  0  0  0  0
   -5.6897   35.6798  -46.5730 C   0  0  0  0  0  0  0  0  0  0  0  0
   -7.1930   34.1785  -47.9829 O   0  0  0  0  0  0  0  0  0  0  0  0
   -6.7755   34.7289  -46.7455 C   0  0  0  0  0  0  0  0  0  0  0  0
   -7.8934   35.3685  -46.0098 C   0  0  0  0  0  0  0  0  0  0  0  0
   -5.6219   37.7288  -44.3454 H   0  0  0  0  0  0  0  0  0  0  0  0
   -5.2237   36.8858  -48.0698 H   0  0  0  0  0  0  0  0  0  0  0  0
   -6.4333   33.7722  -48.4288 H   0  0  0  0  0  0  0  0  0  0  0  0
  -12.3227   30.5082  -42.6162 C   0  0  0  0  0  0  0  0  0  0  0  0
  -11.7194   30.3538  -39.2108 C   0  0  0  0  0  0  0  0  0  0  0  0
  -12.2347   29.0304  -39.5604 C   0  0  0  0  0  0  0  0  0  0  0  0
  -11.9096   28.0511  -38.5543 O   0  0  0  0  0  0  0  0  0  0  0  0
  -11.6665   28.6812  -40.8656 C   0  0  0  0  0  0  0  0  0  0  0  0
  -10.4612   27.8871  -40.8298 O   0  0  0  0  0  0  0  0  0  0  0  0
  -11.4178   30.9691  -40.4326 O   0  0  0  0  0  0  0  0  0  0  0  0
  -11.3636   30.0257  -41.5092 C   0  0  0  0  0  0  0  0  0  0  0  0
  -10.9460   27.9917  -38.4604 H   0  0  0  0  0  0  0  0  0  0  0  0
   -9.7663   28.3751  -40.3610 H   0  0  0  0  0  0  0  0  0  0  0  0
  -13.0681   32.3171  -34.6085 N   0  0  0  0  0  0  0  0  0  0  0  0
  -12.1269   31.3156  -34.9251 C   0  0  0  0  0  0  0  0  0  0  0  0
  -11.8664   30.8645  -36.2786 N   0  0  0  0  0  0  0  0  0  0  0  0
  -12.6602   31.5342  -37.2591 C   0  0  0  0  0  0  0  0  0  0  0  0
  -13.6294   32.5398  -37.0596 C   0  0  0  0  0  0  0  0  0  0  0  0
  -13.8372   32.9472  -35.6598 C   0  0  0  0  0  0  0  0  0  0  0  0
  -14.7774   33.9595  -35.2790 N   0  0  0  0  0  0  0  0  0  0  0  0
  -14.1778   32.9287  -38.2587 N   0  0  0  0  0  0  0  0  0  0  0  0
  -13.5621   32.1859  -39.1811 C   0  0  0  0  0  0  0  0  0  0  0  0
  -12.6287   31.3258  -38.6157 N   0  0  0  0  0  0  0  0  0  0  0  0
  -14.8840   34.2006  -34.3304 H   0  0  0  0  0  0  0  0  0  0  0  0
  -15.3168   34.4138  -35.9660 H   0  0  0  0  0  0  0  0  0  0  0  0
 34 35  1  0  0  0
 34 39  2  0  0  0
 35 36  2  0  0  0
 36 37  1  0  0  0
 37 38  2  0  0  0
 37 43  1  0  0  0
 38 39  1  0  0  0
 38 41  1  0  0  0
 39 40  1  0  0  0
 41 42  2  0  0  0
 42 43  1  0  0  0
 43 25  1  0  0  0
 25 26  1  0  0  0
 25 30  1  0  0  0
 26 27  1  0  0  0
 26 28  1  0  0  0
 28 29  1  0  0  0
 28 31  1  0  0  0
 30 31  1  0  0  0
 31 24  1  0  0  0
 24  1  1  0  0  0
  1  2  1  0  0  0
  2  3  2  0  0  0
  2  4  1  0  0  0
  2  6  1  0  0  0
  6  7  1  0  0  0
  7  8  2  0  0  0
  7  9  1  0  0  0
  7 11  1  0  0  0
 11 12  1  0  0  0
 12 20  1  0  0  0
 13 15  1  0  0  0
 13 20  1  0  0  0
 14 15  1  0  0  0
 15 17  1  0  0  0
 16 17  1  0  0  0
 17 19  1  0  0  0
 18 19  1  0  0  0
 19 20  1  0  0  0
 40 44  1  0  0  0
 40 45  1  0  0  0
 27 32  1  0  0  0
 29 33  1  0  0  0
  4  5  1  0  0  0
  9 10  1  0  0  0
 14 21  1  0  0  0
 16 22  1  0  0  0
 18 23  1  0  0  0
M  END
> <minimizedAffinity>
-9.30458

$$$$
1SZD_APR_A_1001


 45 48  0  0  0  0  0  0  0  0999 V2000
   -6.0996   36.0977  -46.2199 O   0  0  0  0  0  0  0  0  0  0  0  0
   -6.6382   34.6981  -45.9179 P   0  0  0  0  0  0  0  0  0  0  0  0
   -5.6995   33.6671  -46.3729 O   0  0  0  0  0  0  0  0  0  0  0  0
   -7.9894   34.5708  -46.4804 O   0  0  0  0  0  0  0  0  0  0  0  0
   -7.9496   34.6745  -47.4440 H   0  0  0  0  0  0  0  0  0  0  0  0
   -6.9115   34.5089  -44.4284 O   0  0  0  0  0  0  0  0  0  0  0  0
   -6.9770   33.4753  -43.3948 P   0  0  0  0  0  0  0  0  0  0  0  0
   -7.6009   33.9769  -42.1832 O   0  0  0  0  0  0  0  0  0  0  0  0
   -5.8646   32.8045  -42.9287 O   0  0  0  0  0  0  0  0  0  0  0  0
   -5.2731   33.4304  -42.4822 H   0  0  0  0  0  0  0  0  0  0  0  0
   -8.0823   32.7773  -44.1338 O   0  0  0  0  0  0  0  0  0  0  0  0
   -9.4064   32.7206  -44.0449 C   0  0  0  0  0  0  0  0  0  0  0  0
  -11.0393   34.0416  -43.6809 O   0  0  0  0  0  0  0  0  0  0  0  0
  -12.9428   32.8668  -44.0976 O   0  0  0  0  0  0  0  0  0  0  0  0
  -12.2764   33.6511  -43.1280 C   0  0  0  0  0  0  0  0  0  0  0  0
  -12.2511   33.7607  -41.1161 O   0  0  0  0  0  0  0  0  0  0  0  0
  -12.1265   32.7341  -42.1044 C   0  0  0  0  0  0  0  0  0  0  0  0
  -10.1262   32.8075  -40.5247 O   0  0  0  0  0  0  0  0  0  0  0  0
  -10.7217   32.5434  -41.7833 C   0  0  0  0  0  0  0  0  0  0  0  0
  -10.0320   33.2499  -42.8902 C   0  0  0  0  0  0  0  0  0  0  0  0
  -13.1124   33.4041  -44.8872 H   0  0  0  0  0  0  0  0  0  0  0  0
  -13.1613   34.0959  -41.1110 H   0  0  0  0  0  0  0  0  0  0  0  0
  -10.6070   32.3273  -39.8324 H   0  0  0  0  0  0  0  0  0  0  0  0
   -5.6737   36.4978  -47.5372 C   0  0  0  0  0  0  0  0  0  0  0  0
   -6.9572   39.5235  -46.4495 C   0  0  0  0  0  0  0  0  0  0  0  0
   -5.7668   39.3045  -45.6284 C   0  0  0  0  0  0  0  0  0  0  0  0
   -5.3075   40.5285  -45.0220 O   0  0  0  0  0  0  0  0  0  0  0  0
   -4.7486   38.7121  -46.5005 C   0  0  0  0  0  0  0  0  0  0  0  0
   -3.8173   39.6418  -47.0945 O   0  0  0  0  0  0  0  0  0  0  0  0
   -6.8680   38.5885  -47.4888 O   0  0  0  0  0  0  0  0  0  0  0  0
   -5.5518   38.0339  -47.5998 C   0  0  0  0  0  0  0  0  0  0  0  0
   -5.0897   41.1710  -45.7153 H   0  0  0  0  0  0  0  0  0  0  0  0
   -4.3011   40.2761  -47.6462 H   0  0  0  0  0  0  0  0  0  0  0  0
  -10.5210   41.4327  -43.2079 N   0  0  0  0  0  0  0  0  0  0  0  0
   -9.2641   41.9532  -43.5803 C   0  0  0  0  0  0  0  0  0  0  0  0
   -8.3667   41.2871  -44.5046 N   0  0  0  0  0  0  0  0  0  0  0  0
   -8.8818   40.0498  -44.9983 C   0  0  0  0  0  0  0  0  0  0  0  0
  -10.1136   39.4329  -44.6936 C   0  0  0  0  0  0  0  0  0  0  0  0
  -10.9717   40.1692  -43.7502 C   0  0  0  0  0  0  0  0  0  0  0  0
  -12.2580   39.6907  -43.3375 N   0  0  0  0  0  0  0  0  0  0  0  0
  -10.2410   38.2444  -45.3724 N   0  0  0  0  0  0  0  0  0  0  0  0
   -9.1181   38.1270  -46.0843 C   0  0  0  0  0  0  0  0  0  0  0  0
   -8.2647   39.2058  -45.8880 N   0  0  0  0  0  0  0  0  0  0  0  0
  -12.7987   40.2159  -42.7042 H   0  0  0  0  0  0  0  0  0  0  0  0
  -12.6009   38.8367  -43.6873 H   0  0  0  0  0  0  0  0  0  0  0  0
 34 35  1  0  0  0
 34 39  2  0  0  0
 35 36  2  0  0  0
 36 37  1  0  0  0
 37 38  2  0  0  0
 37 43  1  0  0  0
 38 39  1  0  0  0
 38 41  1  0  0  0
 39 40  1  0  0  0
 41 42  2  0  0  0
 42 43  1  0  0  0
 43 25  1  0  0  0
 25 26  1  0  0  0
 25 30  1  0  0  0
 26 27  1  0  0  0
 26 28  1  0  0  0
 28 29  1  0  0  0
 28 31  1  0  0  0
 30 31  1  0  0  0
 31 24  1  0  0  0
 24  1  1  0  0  0
  1  2  1  0  0  0
  2  3  2  0  0  0
  2  4  1  0  0  0
  2  6  1  0  0  0
  6  7  1  0  0  0
  7  8  2  0  0  0
  7  9  1  0  0  0
  7 11  1  0  0  0
 11 12  1  0  0  0
 12 20  1  0  0  0
 13 15  1  0  0  0
 13 20  1  0  0  0
 14 15  1  0  0  0
 15 17  1  0  0  0
 16 17  1  0  0  0
 17 19  1  0  0  0
 18 19  1  0  0  0
 19 20  1  0  0  0
 40 44  1  0  0  0
 40 45  1  0  0  0
 27 32  1  0  0  0
 29 33  1  0  0  0
  4  5  1  0  0  0
  9 10  1  0  0  0
 14 21  1  0  0  0
 16 22  1  0  0  0
 18 23  1  0  0  0
M  END
> <minimizedAffinity>
-9.23448

$$$$
1SZD_APR_A_1001


 45 48  0  0  0  0  0  0  0  0999 V2000
  -12.1924   38.2114  -44.3666 O   0  0  0  0  0  0  0  0  0  0  0  0
  -13.1816   37.4824  -43.4556 P   0  0  0  0  0  0  0  0  0  0  0  0
  -14.5349   38.0260  -43.6116 O   0  0  0  0  0  0  0  0  0  0  0  0
  -12.6774   37.5125  -42.0761 O   0  0  0  0  0  0  0  0  0  0  0  0
  -12.6152   38.4323  -41.7746 H   0  0  0  0  0  0  0  0  0  0  0  0
  -13.2056   35.9823  -43.7361 O   0  0  0  0  0  0  0  0  0  0  0  0
  -13.8959   34.7520  -43.3477 P   0  0  0  0  0  0  0  0  0  0  0  0
  -13.5431   33.6482  -44.2228 O   0  0  0  0  0  0  0  0  0  0  0  0
  -15.2693   34.6576  -43.2499 O   0  0  0  0  0  0  0  0  0  0  0  0
  -15.6654   34.7854  -44.1261 H   0  0  0  0  0  0  0  0  0  0  0  0
  -12.9954   34.5987  -42.1558 O   0  0  0  0  0  0  0  0  0  0  0  0
  -12.1479   33.6788  -41.7086 C   0  0  0  0  0  0  0  0  0  0  0  0
  -10.2619   33.0178  -40.9670 O   0  0  0  0  0  0  0  0  0  0  0  0
  -10.2439   30.7492  -41.1412 O   0  0  0  0  0  0  0  0  0  0  0  0
   -9.5372   31.9246  -41.4850 C   0  0  0  0  0  0  0  0  0  0  0  0
   -8.3075   32.4963  -42.9755 O   0  0  0  0  0  0  0  0  0  0  0  0
   -9.5883   31.8691  -42.8654 C   0  0  0  0  0  0  0  0  0  0  0  0
   -9.6633   33.9842  -44.2875 O   0  0  0  0  0  0  0  0  0  0  0  0
  -10.2521   33.0442  -43.4054 C   0  0  0  0  0  0  0  0  0  0  0  0
  -10.8181   33.6881  -42.1950 C   0  0  0  0  0  0  0  0  0  0  0  0
  -10.2821   30.6657  -40.1755 H   0  0  0  0  0  0  0  0  0  0  0  0
   -7.6214   31.8882  -42.6587 H   0  0  0  0  0  0  0  0  0  0  0  0
   -9.3073   33.5216  -45.0622 H   0  0  0  0  0  0  0  0  0  0  0  0
  -12.3645   39.5887  -44.7543 C   0  0  0  0  0  0  0  0  0  0  0  0
   -8.9984   39.7102  -45.5541 C   0  0  0  0  0  0  0  0  0  0  0  0
   -9.6275   40.6983  -46.4300 C   0  0  0  0  0  0  0  0  0  0  0  0
   -8.6644   41.6344  -46.9526 O   0  0  0  0  0  0  0  0  0  0  0  0
  -10.6672   41.3673  -45.6428 C   0  0  0  0  0  0  0  0  0  0  0  0
  -10.2726   42.6030  -45.0088 O   0  0  0  0  0  0  0  0  0  0  0  0
   -9.9695   39.3922  -44.5959 O   0  0  0  0  0  0  0  0  0  0  0  0
  -11.0351   40.3494  -44.5741 C   0  0  0  0  0  0  0  0  0  0  0  0
   -8.2364   42.1017  -46.2183 H   0  0  0  0  0  0  0  0  0  0  0  0
   -9.5435   42.4317  -44.3924 H   0  0  0  0  0  0  0  0  0  0  0  0
   -5.7005   37.3643  -48.7906 N   0  0  0  0  0  0  0  0  0  0  0  0
   -5.8131   38.7265  -48.4428 C   0  0  0  0  0  0  0  0  0  0  0  0
   -6.8067   39.2339  -47.5162 N   0  0  0  0  0  0  0  0  0  0  0  0
   -7.6619   38.2166  -46.9929 C   0  0  0  0  0  0  0  0  0  0  0  0
   -7.6456   36.8336  -47.2715 C   0  0  0  0  0  0  0  0  0  0  0  0
   -6.6079   36.3929  -48.2190 C   0  0  0  0  0  0  0  0  0  0  0  0
   -6.4451   35.0232  -48.6075 N   0  0  0  0  0  0  0  0  0  0  0  0
   -8.6338   36.1863  -46.5686 N   0  0  0  0  0  0  0  0  0  0  0  0
   -9.2468   37.1425  -45.8675 C   0  0  0  0  0  0  0  0  0  0  0  0
   -8.6847   38.3928  -46.0943 N   0  0  0  0  0  0  0  0  0  0  0  0
   -5.7373   34.7730  -49.2445 H   0  0  0  0  0  0  0  0  0  0  0  0
   -7.0409   34.3323  -48.2375 H   0  0  0  0  0  0  0  0  0  0  0  0
 34 35  1  0  0  0
 34 39  2  0  0  0
 35 36  2  0  0  0
 36 37  1  0  0  0
 37 38  2  0  0  0
 37 43  1  0  0  0
 38 39  1  0  0  0
 38 41  1  0  0  0
 39 40  1  0  0  0
 41 42  2  0  0  0
 42 43  1  0  0  0
 43 25  1  0  0  0
 25 26  1  0  0  0
 25 30  1  0  0  0
 26 27  1  0  0  0
 26 28  1  0  0  0
 28 29  1  0  0  0
 28 31  1  0  0  0
 30 31  1  0  0  0
 31 24  1  0  0  0
 24  1  1  0  0  0
  1  2  1  0  0  0
  2  3  2  0  0  0
  2  4  1  0  0  0
  2  6  1  0  0  0
  6  7  1  0  0  0
  7  8  2  0  0  0
  7  9  1  0  0  0
  7 11  1  0  0  0
 11 12  1  0  0  0
 12 20  1  0  0  0
 13 15  1  0  0  0
 13 20  1  0  0  0
 14 15  1  0  0  0
 15 17  1  0  0  0
 16 17  1  0  0  0
 17 19  1  0  0  0
 18 19  1  0  0  0
 19 20  1  0  0  0
 40 44  1  0  0  0
 40 45  1  0  0  0
 27 32  1  0  0  0
 29 33  1  0  0  0
  4  5  1  0  0  0
  9 10  1  0  0  0
 14 21  1  0  0  0
 16 22  1  0  0  0
 18 23  1  0  0  0
M  END
> <minimizedAffinity>
-9.04732

$$$$
