4CD0_AWJ_A_1500


 39 42  0  0  0  0  0  0  0  0999 V2000
  -30.0299  -16.2658   61.5804 C   0  0  0  0  0  0  0  0  0  0  0  0
  -28.9881  -15.9662   62.4860 C   0  0  0  0  0  0  0  0  0  0  0  0
  -27.9312  -16.8301   62.6847 N   0  0  0  0  0  0  0  0  0  0  0  0
  -27.8907  -18.0137   61.9851 C   0  0  0  0  0  0  0  0  0  0  0  0
  -28.8694  -18.4126   61.0602 C   0  0  0  0  0  0  0  0  0  0  0  0
  -29.9327  -17.5004   60.8845 C   0  0  0  0  0  0  0  0  0  0  0  0
  -29.0229  -14.7650   63.2075 N   0  0  0  0  0  0  0  0  0  0  0  0
  -29.7688  -14.1354   63.0796 H   0  0  0  0  0  0  0  0  0  0  0  0
  -28.3014  -14.5510   63.8423 H   0  0  0  0  0  0  0  0  0  0  0  0
  -28.8391  -19.6834   60.3064 C   0  0  0  0  0  0  0  0  0  0  0  0
  -27.8145  -20.4270   59.7081 C   0  0  0  0  0  0  0  0  0  0  0  0
  -28.2283  -21.5981   59.0793 N   0  0  0  0  0  0  0  0  0  0  0  0
  -29.5340  -21.7629   59.1849 C   0  0  0  0  0  0  0  0  0  0  0  0
  -30.3330  -20.5189   60.0485 S   0  0  0  0  0  0  0  0  0  0  0  0
  -26.3560  -20.1308   59.6542 C   0  0  0  0  0  0  0  0  0  0  0  0
  -30.2878  -22.9517   58.5877 C   0  0  0  0  0  0  0  0  0  0  0  0
  -30.5078  -23.9690   59.5691 O   0  0  0  0  0  0  0  0  0  0  0  0
  -31.6675  -22.4743   58.1193 C   0  0  0  0  0  0  0  0  0  0  0  0
  -29.6539  -24.2978   59.8911 H   0  0  0  0  0  0  0  0  0  0  0  0
  -29.5476  -23.5825   57.3945 C   0  0  0  0  0  0  0  0  0  0  0  0
  -29.2984  -22.6140   56.3760 O   0  0  0  0  0  0  0  0  0  0  0  0
  -30.1418  -22.2593   56.0538 H   0  0  0  0  0  0  0  0  0  0  0  0
  -31.0443  -15.3201   61.4629 O   0  0  0  0  0  0  0  0  0  0  0  0
  -32.1935  -15.5275   60.5830 C   0  0  0  0  0  0  0  0  0  0  0  0
  -32.9173  -14.1735   60.4871 C   0  0  0  0  0  0  0  0  0  0  0  0
  -33.1265  -16.6414   61.1001 C   0  0  0  0  0  0  0  0  0  0  0  0
  -33.7367  -17.6514   60.2658 C   0  0  0  0  0  0  0  0  0  0  0  0
  -34.5799  -18.6534   60.8456 C   0  0  0  0  0  0  0  0  0  0  0  0
  -34.8290  -18.6727   62.2345 C   0  0  0  0  0  0  0  0  0  0  0  0
  -34.2367  -17.6906   63.0587 C   0  0  0  0  0  0  0  0  0  0  0  0
  -33.4016  -16.6907   62.5151 C   0  0  0  0  0  0  0  0  0  0  0  0
  -34.4694  -17.7103   64.3687 F   0  0  0  0  0  0  0  0  0  0  0  0
  -33.5462  -17.7213   58.8606 N   0  0  0  0  0  0  0  0  0  0  0  0
  -34.5468  -17.3860   57.9974 N   0  0  0  0  0  0  0  0  0  0  0  0
  -33.9757  -17.5859   56.8092 C   0  0  0  0  0  0  0  0  0  0  0  0
  -32.6672  -18.0299   56.9815 C   0  0  0  0  0  0  0  0  0  0  0  0
  -32.3865  -18.1190   58.2823 N   0  0  0  0  0  0  0  0  0  0  0  0
  -35.4588  -17.0754   58.1998 H   0  0  0  0  0  0  0  0  0  0  0  0
  -31.5481  -18.4022   58.7139 H   0  0  0  0  0  0  0  0  0  0  0  0
  1  2  2  0  0  0
  1  6  1  0  0  0
  1 23  1  0  0  0
  2  3  1  0  0  0
  2  7  1  0  0  0
  3  4  2  0  0  0
  4  5  1  0  0  0
  5  6  2  0  0  0
  5 10  1  0  0  0
 23 24  1  0  0  0
 24 26  1  0  0  0
 24 25  1  0  0  0
 26 27  2  0  0  0
 26 31  1  0  0  0
 27 28  1  0  0  0
 27 33  1  0  0  0
 28 29  2  0  0  0
 29 30  1  0  0  0
 30 31  2  0  0  0
 30 32  1  0  0  0
 33 34  1  0  0  0
 33 37  1  0  0  0
 34 35  1  0  0  0
 35 36  2  0  0  0
 36 37  1  0  0  0
 10 11  2  0  0  0
 10 14  1  0  0  0
 11 12  1  0  0  0
 11 15  1  0  0  0
 12 13  2  0  0  0
 13 14  1  0  0  0
 13 16  1  0  0  0
 16 20  1  0  0  0
 16 17  1  0  0  0
 16 18  1  0  0  0
 20 21  1  0  0  0
  7  8  1  0  0  0
  7  9  1  0  0  0
 34 38  1  0  0  0
 37 39  1  0  0  0
 17 19  1  0  0  0
 21 22  1  0  0  0
M  END
> <minimizedAffinity>
-9.21253

$$$$
4CD0_AWJ_A_1500


 39 42  0  0  0  0  0  0  0  0999 V2000
  -31.1765  -16.6430   60.2602 C   0  0  0  0  0  0  0  0  0  0  0  0
  -31.2879  -15.3344   60.7804 C   0  0  0  0  0  0  0  0  0  0  0  0
  -32.5104  -14.7084   60.9092 N   0  0  0  0  0  0  0  0  0  0  0  0
  -33.6497  -15.3738   60.5204 C   0  0  0  0  0  0  0  0  0  0  0  0
  -33.6571  -16.6752   59.9924 C   0  0  0  0  0  0  0  0  0  0  0  0
  -32.3869  -17.2811   59.8784 C   0  0  0  0  0  0  0  0  0  0  0  0
  -30.1323  -14.6460   61.1745 N   0  0  0  0  0  0  0  0  0  0  0  0
  -29.2505  -15.0758   61.0903 H   0  0  0  0  0  0  0  0  0  0  0  0
  -30.2023  -13.7328   61.5354 H   0  0  0  0  0  0  0  0  0  0  0  0
  -34.8739  -17.3981   59.5669 C   0  0  0  0  0  0  0  0  0  0  0  0
  -35.7687  -17.2391   58.5016 C   0  0  0  0  0  0  0  0  0  0  0  0
  -36.8126  -18.1594   58.4685 N   0  0  0  0  0  0  0  0  0  0  0  0
  -36.7337  -19.0098   59.4755 C   0  0  0  0  0  0  0  0  0  0  0  0
  -35.3978  -18.7488   60.5143 S   0  0  0  0  0  0  0  0  0  0  0  0
  -35.7518  -16.2232   57.4129 C   0  0  0  0  0  0  0  0  0  0  0  0
  -37.7429  -20.1333   59.7151 C   0  0  0  0  0  0  0  0  0  0  0  0
  -38.2839  -20.0675   61.0379 O   0  0  0  0  0  0  0  0  0  0  0  0
  -38.9147  -19.9577   58.7419 C   0  0  0  0  0  0  0  0  0  0  0  0
  -37.5695  -20.1750   61.6851 H   0  0  0  0  0  0  0  0  0  0  0  0
  -37.1314  -21.5312   59.5115 C   0  0  0  0  0  0  0  0  0  0  0  0
  -36.6826  -22.0796   60.7505 O   0  0  0  0  0  0  0  0  0  0  0  0
  -35.9999  -21.5046   61.1302 H   0  0  0  0  0  0  0  0  0  0  0  0
  -29.8921  -17.1725   60.1758 O   0  0  0  0  0  0  0  0  0  0  0  0
  -29.4372  -18.2375   61.0683 C   0  0  0  0  0  0  0  0  0  0  0  0
  -28.6450  -17.5517   62.1946 C   0  0  0  0  0  0  0  0  0  0  0  0
  -28.5876  -19.2909   60.3286 C   0  0  0  0  0  0  0  0  0  0  0  0
  -29.1280  -20.3407   59.4954 C   0  0  0  0  0  0  0  0  0  0  0  0
  -28.2520  -21.2643   58.8392 C   0  0  0  0  0  0  0  0  0  0  0  0
  -26.8527  -21.1668   58.9934 C   0  0  0  0  0  0  0  0  0  0  0  0
  -26.3143  -20.1438   59.8048 C   0  0  0  0  0  0  0  0  0  0  0  0
  -27.1533  -19.2196   60.4641 C   0  0  0  0  0  0  0  0  0  0  0  0
  -24.9947  -20.0503   59.9482 F   0  0  0  0  0  0  0  0  0  0  0  0
  -30.5186  -20.5215   59.2730 N   0  0  0  0  0  0  0  0  0  0  0  0
  -31.0970  -20.1503   58.0955 N   0  0  0  0  0  0  0  0  0  0  0  0
  -32.3744  -20.4787   58.2907 C   0  0  0  0  0  0  0  0  0  0  0  0
  -32.5332  -21.0298   59.5595 C   0  0  0  0  0  0  0  0  0  0  0  0
  -31.3585  -21.0603   60.1905 N   0  0  0  0  0  0  0  0  0  0  0  0
  -30.6781  -19.7434   57.3029 H   0  0  0  0  0  0  0  0  0  0  0  0
  -31.1531  -21.3909   61.0948 H   0  0  0  0  0  0  0  0  0  0  0  0
  1  2  2  0  0  0
  1  6  1  0  0  0
  1 23  1  0  0  0
  2  3  1  0  0  0
  2  7  1  0  0  0
  3  4  2  0  0  0
  4  5  1  0  0  0
  5  6  2  0  0  0
  5 10  1  0  0  0
 23 24  1  0  0  0
 24 26  1  0  0  0
 24 25  1  0  0  0
 26 27  2  0  0  0
 26 31  1  0  0  0
 27 28  1  0  0  0
 27 33  1  0  0  0
 28 29  2  0  0  0
 29 30  1  0  0  0
 30 31  2  0  0  0
 30 32  1  0  0  0
 33 34  1  0  0  0
 33 37  1  0  0  0
 34 35  1  0  0  0
 35 36  2  0  0  0
 36 37  1  0  0  0
 10 11  2  0  0  0
 10 14  1  0  0  0
 11 12  1  0  0  0
 11 15  1  0  0  0
 12 13  2  0  0  0
 13 14  1  0  0  0
 13 16  1  0  0  0
 16 20  1  0  0  0
 16 17  1  0  0  0
 16 18  1  0  0  0
 20 21  1  0  0  0
  7  8  1  0  0  0
  7  9  1  0  0  0
 34 38  1  0  0  0
 37 39  1  0  0  0
 17 19  1  0  0  0
 21 22  1  0  0  0
M  END
> <minimizedAffinity>
-7.95371

$$$$
4CD0_AWJ_A_1500


 39 42  0  0  0  0  0  0  0  0999 V2000
  -33.6140  -19.9421   60.1787 C   0  0  0  0  0  0  0  0  0  0  0  0
  -34.2119  -20.8509   59.2777 C   0  0  0  0  0  0  0  0  0  0  0  0
  -33.4546  -21.6894   58.4863 N   0  0  0  0  0  0  0  0  0  0  0  0
  -32.0829  -21.6390   58.5751 C   0  0  0  0  0  0  0  0  0  0  0  0
  -31.3832  -20.7771   59.4354 C   0  0  0  0  0  0  0  0  0  0  0  0
  -32.1942  -19.9370   60.2290 C   0  0  0  0  0  0  0  0  0  0  0  0
  -35.6088  -20.9062   59.1761 N   0  0  0  0  0  0  0  0  0  0  0  0
  -36.1666  -20.3158   59.7325 H   0  0  0  0  0  0  0  0  0  0  0  0
  -36.0322  -21.5354   58.5484 H   0  0  0  0  0  0  0  0  0  0  0  0
  -29.9103  -20.7106   59.5359 C   0  0  0  0  0  0  0  0  0  0  0  0
  -29.0165  -19.7326   59.9891 C   0  0  0  0  0  0  0  0  0  0  0  0
  -27.6714  -20.0819   59.9064 N   0  0  0  0  0  0  0  0  0  0  0  0
  -27.5212  -21.2944   59.4056 C   0  0  0  0  0  0  0  0  0  0  0  0
  -28.9905  -22.0795   59.0099 S   0  0  0  0  0  0  0  0  0  0  0  0
  -29.3130  -18.3809   60.5392 C   0  0  0  0  0  0  0  0  0  0  0  0
  -26.1604  -21.9552   59.1831 C   0  0  0  0  0  0  0  0  0  0  0  0
  -25.8853  -22.9246   60.1986 O   0  0  0  0  0  0  0  0  0  0  0  0
  -26.1899  -22.7032   57.8450 C   0  0  0  0  0  0  0  0  0  0  0  0
  -25.8586  -22.4875   61.0641 H   0  0  0  0  0  0  0  0  0  0  0  0
  -25.0054  -20.9379   59.1597 C   0  0  0  0  0  0  0  0  0  0  0  0
  -24.8150  -20.3494   60.4461 O   0  0  0  0  0  0  0  0  0  0  0  0
  -25.6227  -19.8819   60.7106 H   0  0  0  0  0  0  0  0  0  0  0  0
  -34.4776  -19.1453   60.9248 O   0  0  0  0  0  0  0  0  0  0  0  0
  -33.9857  -18.2229   61.9471 C   0  0  0  0  0  0  0  0  0  0  0  0
  -35.1592  -17.9768   62.9109 C   0  0  0  0  0  0  0  0  0  0  0  0
  -33.4590  -16.9080   61.3370 C   0  0  0  0  0  0  0  0  0  0  0  0
  -34.1561  -16.1325   60.3365 C   0  0  0  0  0  0  0  0  0  0  0  0
  -33.5873  -14.9149   59.8416 C   0  0  0  0  0  0  0  0  0  0  0  0
  -32.3424  -14.4526   60.3191 C   0  0  0  0  0  0  0  0  0  0  0  0
  -31.6535  -15.2028   61.2976 C   0  0  0  0  0  0  0  0  0  0  0  0
  -32.1896  -16.4067   61.8035 C   0  0  0  0  0  0  0  0  0  0  0  0
  -30.4808  -14.7656   61.7498 F   0  0  0  0  0  0  0  0  0  0  0  0
  -35.4137  -16.5085   59.7952 N   0  0  0  0  0  0  0  0  0  0  0  0
  -36.5788  -16.0777   60.3570 N   0  0  0  0  0  0  0  0  0  0  0  0
  -37.4978  -16.6403   59.5717 C   0  0  0  0  0  0  0  0  0  0  0  0
  -36.8756  -17.3847   58.5729 C   0  0  0  0  0  0  0  0  0  0  0  0
  -35.5510  -17.3065   58.7080 N   0  0  0  0  0  0  0  0  0  0  0  0
  -36.7085  -15.4985   61.1424 H   0  0  0  0  0  0  0  0  0  0  0  0
  -34.8497  -17.7233   58.1569 H   0  0  0  0  0  0  0  0  0  0  0  0
  1  2  2  0  0  0
  1  6  1  0  0  0
  1 23  1  0  0  0
  2  3  1  0  0  0
  2  7  1  0  0  0
  3  4  2  0  0  0
  4  5  1  0  0  0
  5  6  2  0  0  0
  5 10  1  0  0  0
 23 24  1  0  0  0
 24 26  1  0  0  0
 24 25  1  0  0  0
 26 27  2  0  0  0
 26 31  1  0  0  0
 27 28  1  0  0  0
 27 33  1  0  0  0
 28 29  2  0  0  0
 29 30  1  0  0  0
 30 31  2  0  0  0
 30 32  1  0  0  0
 33 34  1  0  0  0
 33 37  1  0  0  0
 34 35  1  0  0  0
 35 36  2  0  0  0
 36 37  1  0  0  0
 10 11  2  0  0  0
 10 14  1  0  0  0
 11 12  1  0  0  0
 11 15  1  0  0  0
 12 13  2  0  0  0
 13 14  1  0  0  0
 13 16  1  0  0  0
 16 20  1  0  0  0
 16 17  1  0  0  0
 16 18  1  0  0  0
 20 21  1  0  0  0
  7  8  1  0  0  0
  7  9  1  0  0  0
 34 38  1  0  0  0
 37 39  1  0  0  0
 17 19  1  0  0  0
 21 22  1  0  0  0
M  END
> <minimizedAffinity>
-7.87931

$$$$
4CD0_AWJ_A_1500


 39 42  0  0  0  0  0  0  0  0999 V2000
  -33.7123  -18.9221   59.3107 C   0  0  0  0  0  0  0  0  0  0  0  0
  -34.6319  -18.0764   58.6516 C   0  0  0  0  0  0  0  0  0  0  0  0
  -35.6897  -18.5835   57.9257 N   0  0  0  0  0  0  0  0  0  0  0  0
  -35.8529  -19.9466   57.8399 C   0  0  0  0  0  0  0  0  0  0  0  0
  -35.0018  -20.8793   58.4548 C   0  0  0  0  0  0  0  0  0  0  0  0
  -33.9333  -20.3201   59.1890 C   0  0  0  0  0  0  0  0  0  0  0  0
  -34.4711  -16.6861   58.7287 N   0  0  0  0  0  0  0  0  0  0  0  0
  -33.7225  -16.3049   59.2419 H   0  0  0  0  0  0  0  0  0  0  0  0
  -35.1068  -16.0908   58.2696 H   0  0  0  0  0  0  0  0  0  0  0  0
  -35.1643  -22.3455   58.3657 C   0  0  0  0  0  0  0  0  0  0  0  0
  -34.4725  -23.3541   57.6839 C   0  0  0  0  0  0  0  0  0  0  0  0
  -34.9691  -24.6404   57.8756 N   0  0  0  0  0  0  0  0  0  0  0  0
  -36.0145  -24.6351   58.6822 C   0  0  0  0  0  0  0  0  0  0  0  0
  -36.4539  -23.0824   59.2548 S   0  0  0  0  0  0  0  0  0  0  0  0
  -33.2895  -23.2319   56.7877 C   0  0  0  0  0  0  0  0  0  0  0  0
  -36.7848  -25.8956   59.0770 C   0  0  0  0  0  0  0  0  0  0  0  0
  -36.2018  -26.5181   60.2255 O   0  0  0  0  0  0  0  0  0  0  0  0
  -38.2153  -25.4979   59.4598 C   0  0  0  0  0  0  0  0  0  0  0  0
  -35.2918  -26.7851   60.0217 H   0  0  0  0  0  0  0  0  0  0  0  0
  -36.8432  -26.9332   57.9415 C   0  0  0  0  0  0  0  0  0  0  0  0
  -35.5985  -27.6194   57.8100 O   0  0  0  0  0  0  0  0  0  0  0  0
  -34.8985  -26.9818   57.5996 H   0  0  0  0  0  0  0  0  0  0  0  0
  -32.6844  -18.2983   60.0119 O   0  0  0  0  0  0  0  0  0  0  0  0
  -31.4077  -17.9708   59.3790 C   0  0  0  0  0  0  0  0  0  0  0  0
  -30.9377  -19.2483   58.6624 C   0  0  0  0  0  0  0  0  0  0  0  0
  -30.3660  -17.4693   60.3998 C   0  0  0  0  0  0  0  0  0  0  0  0
  -30.5512  -16.3266   61.2647 C   0  0  0  0  0  0  0  0  0  0  0  0
  -29.5260  -15.9485   62.1905 C   0  0  0  0  0  0  0  0  0  0  0  0
  -28.3226  -16.6807   62.2745 C   0  0  0  0  0  0  0  0  0  0  0  0
  -28.1321  -17.7998   61.4342 C   0  0  0  0  0  0  0  0  0  0  0  0
  -29.1249  -18.1957   60.5120 C   0  0  0  0  0  0  0  0  0  0  0  0
  -26.9985  -18.4920   61.5152 F   0  0  0  0  0  0  0  0  0  0  0  0
  -31.7249  -15.5278   61.2605 N   0  0  0  0  0  0  0  0  0  0  0  0
  -32.7658  -15.8020   62.0973 N   0  0  0  0  0  0  0  0  0  0  0  0
  -33.6414  -14.8466   61.7839 C   0  0  0  0  0  0  0  0  0  0  0  0
  -33.1171  -14.0336   60.7826 C   0  0  0  0  0  0  0  0  0  0  0  0
  -31.8995  -14.4599   60.4440 N   0  0  0  0  0  0  0  0  0  0  0  0
  -32.8495  -16.5222   62.7633 H   0  0  0  0  0  0  0  0  0  0  0  0
  -31.2828  -14.0917   59.7706 H   0  0  0  0  0  0  0  0  0  0  0  0
  1  2  2  0  0  0
  1  6  1  0  0  0
  1 23  1  0  0  0
  2  3  1  0  0  0
  2  7  1  0  0  0
  3  4  2  0  0  0
  4  5  1  0  0  0
  5  6  2  0  0  0
  5 10  1  0  0  0
 23 24  1  0  0  0
 24 26  1  0  0  0
 24 25  1  0  0  0
 26 27  2  0  0  0
 26 31  1  0  0  0
 27 28  1  0  0  0
 27 33  1  0  0  0
 28 29  2  0  0  0
 29 30  1  0  0  0
 30 31  2  0  0  0
 30 32  1  0  0  0
 33 34  1  0  0  0
 33 37  1  0  0  0
 34 35  1  0  0  0
 35 36  2  0  0  0
 36 37  1  0  0  0
 10 11  2  0  0  0
 10 14  1  0  0  0
 11 12  1  0  0  0
 11 15  1  0  0  0
 12 13  2  0  0  0
 13 14  1  0  0  0
 13 16  1  0  0  0
 16 20  1  0  0  0
 16 17  1  0  0  0
 16 18  1  0  0  0
 20 21  1  0  0  0
  7  8  1  0  0  0
  7  9  1  0  0  0
 34 38  1  0  0  0
 37 39  1  0  0  0
 17 19  1  0  0  0
 21 22  1  0  0  0
M  END
> <minimizedAffinity>
-7.85107

$$$$
4CD0_AWJ_A_1500


 39 42  0  0  0  0  0  0  0  0999 V2000
  -34.0721  -17.4135   59.6895 C   0  0  0  0  0  0  0  0  0  0  0  0
  -34.8789  -16.3021   59.3588 C   0  0  0  0  0  0  0  0  0  0  0  0
  -36.2258  -16.4387   59.0945 N   0  0  0  0  0  0  0  0  0  0  0  0
  -36.7982  -17.6881   59.1527 C   0  0  0  0  0  0  0  0  0  0  0  0
  -36.0935  -18.8602   59.4721 C   0  0  0  0  0  0  0  0  0  0  0  0
  -34.7188  -18.6775   59.7372 C   0  0  0  0  0  0  0  0  0  0  0  0
  -34.3039  -15.0256   59.2917 N   0  0  0  0  0  0  0  0  0  0  0  0
  -33.3442  -14.9076   59.4770 H   0  0  0  0  0  0  0  0  0  0  0  0
  -34.8597  -14.2470   59.0593 H   0  0  0  0  0  0  0  0  0  0  0  0
  -36.6964  -20.2081   59.5330 C   0  0  0  0  0  0  0  0  0  0  0  0
  -37.9237  -20.6969   59.9974 C   0  0  0  0  0  0  0  0  0  0  0  0
  -38.0955  -22.0723   59.8682 N   0  0  0  0  0  0  0  0  0  0  0  0
  -37.0361  -22.6380   59.3195 C   0  0  0  0  0  0  0  0  0  0  0  0
  -35.7780  -21.5447   58.9275 S   0  0  0  0  0  0  0  0  0  0  0  0
  -39.0560  -19.9464   60.6077 C   0  0  0  0  0  0  0  0  0  0  0  0
  -36.9202  -24.1396   59.0555 C   0  0  0  0  0  0  0  0  0  0  0  0
  -35.5544  -24.5645   59.0831 O   0  0  0  0  0  0  0  0  0  0  0  0
  -37.6473  -24.8934   60.1754 C   0  0  0  0  0  0  0  0  0  0  0  0
  -35.0594  -24.1073   58.3854 H   0  0  0  0  0  0  0  0  0  0  0  0
  -37.5277  -24.5510   57.7023 C   0  0  0  0  0  0  0  0  0  0  0  0
  -38.5571  -23.6451   57.3062 O   0  0  0  0  0  0  0  0  0  0  0  0
  -39.2656  -23.6511   57.9687 H   0  0  0  0  0  0  0  0  0  0  0  0
  -32.7266  -17.1555   59.9349 O   0  0  0  0  0  0  0  0  0  0  0  0
  -32.1173  -17.4146   61.2385 C   0  0  0  0  0  0  0  0  0  0  0  0
  -32.3352  -16.1454   62.0799 C   0  0  0  0  0  0  0  0  0  0  0  0
  -30.6222  -17.7739   61.1189 C   0  0  0  0  0  0  0  0  0  0  0  0
  -30.1083  -18.9050   60.3808 C   0  0  0  0  0  0  0  0  0  0  0  0
  -28.6979  -19.1462   60.3194 C   0  0  0  0  0  0  0  0  0  0  0  0
  -27.7891  -18.2886   60.9750 C   0  0  0  0  0  0  0  0  0  0  0  0
  -28.2811  -17.1798   61.6984 C   0  0  0  0  0  0  0  0  0  0  0  0
  -29.6660  -16.9174   61.7766 C   0  0  0  0  0  0  0  0  0  0  0  0
  -27.4241  -16.3695   62.3146 F   0  0  0  0  0  0  0  0  0  0  0  0
  -30.9375  -19.8234   59.6845 N   0  0  0  0  0  0  0  0  0  0  0  0
  -31.2921  -19.6067   58.3860 N   0  0  0  0  0  0  0  0  0  0  0  0
  -32.0517  -20.6692   58.1179 C   0  0  0  0  0  0  0  0  0  0  0  0
  -32.1360  -21.4868   59.2419 C   0  0  0  0  0  0  0  0  0  0  0  0
  -31.4309  -20.9562   60.2420 N   0  0  0  0  0  0  0  0  0  0  0  0
  -31.0492  -18.8565   57.7965 H   0  0  0  0  0  0  0  0  0  0  0  0
  -31.3015  -21.3006   61.1552 H   0  0  0  0  0  0  0  0  0  0  0  0
  1  2  2  0  0  0
  1  6  1  0  0  0
  1 23  1  0  0  0
  2  3  1  0  0  0
  2  7  1  0  0  0
  3  4  2  0  0  0
  4  5  1  0  0  0
  5  6  2  0  0  0
  5 10  1  0  0  0
 23 24  1  0  0  0
 24 26  1  0  0  0
 24 25  1  0  0  0
 26 27  2  0  0  0
 26 31  1  0  0  0
 27 28  1  0  0  0
 27 33  1  0  0  0
 28 29  2  0  0  0
 29 30  1  0  0  0
 30 31  2  0  0  0
 30 32  1  0  0  0
 33 34  1  0  0  0
 33 37  1  0  0  0
 34 35  1  0  0  0
 35 36  2  0  0  0
 36 37  1  0  0  0
 10 11  2  0  0  0
 10 14  1  0  0  0
 11 12  1  0  0  0
 11 15  1  0  0  0
 12 13  2  0  0  0
 13 14  1  0  0  0
 13 16  1  0  0  0
 16 20  1  0  0  0
 16 17  1  0  0  0
 16 18  1  0  0  0
 20 21  1  0  0  0
  7  8  1  0  0  0
  7  9  1  0  0  0
 34 38  1  0  0  0
 37 39  1  0  0  0
 17 19  1  0  0  0
 21 22  1  0  0  0
M  END
> <minimizedAffinity>
-7.56303

$$$$
4CD0_AWJ_A_1500


 39 42  0  0  0  0  0  0  0  0999 V2000
  -31.7725  -20.4007   58.9742 C   0  0  0  0  0  0  0  0  0  0  0  0
  -32.2425  -21.5777   58.3505 C   0  0  0  0  0  0  0  0  0  0  0  0
  -31.3852  -22.5941   57.9833 N   0  0  0  0  0  0  0  0  0  0  0  0
  -30.0386  -22.4583   58.2290 C   0  0  0  0  0  0  0  0  0  0  0  0
  -29.4623  -21.3345   58.8433 C   0  0  0  0  0  0  0  0  0  0  0  0
  -30.3732  -20.3181   59.2050 C   0  0  0  0  0  0  0  0  0  0  0  0
  -33.6123  -21.7233   58.0911 N   0  0  0  0  0  0  0  0  0  0  0  0
  -34.2401  -21.0090   58.3457 H   0  0  0  0  0  0  0  0  0  0  0  0
  -33.9465  -22.5399   57.6543 H   0  0  0  0  0  0  0  0  0  0  0  0
  -28.0170  -21.1753   59.1080 C   0  0  0  0  0  0  0  0  0  0  0  0
  -27.2678  -20.2617   59.8595 C   0  0  0  0  0  0  0  0  0  0  0  0
  -25.8920  -20.4729   59.8399 N   0  0  0  0  0  0  0  0  0  0  0  0
  -25.5784  -21.5188   59.0975 C   0  0  0  0  0  0  0  0  0  0  0  0
  -26.9225  -22.3051   58.3855 S   0  0  0  0  0  0  0  0  0  0  0  0
  -27.7448  -19.1041   60.6658 C   0  0  0  0  0  0  0  0  0  0  0  0
  -24.1436  -21.9980   58.8740 C   0  0  0  0  0  0  0  0  0  0  0  0
  -23.9118  -23.2524   59.5216 O   0  0  0  0  0  0  0  0  0  0  0  0
  -23.9281  -22.2217   57.3725 C   0  0  0  0  0  0  0  0  0  0  0  0
  -24.0392  -23.1510   60.4778 H   0  0  0  0  0  0  0  0  0  0  0  0
  -23.0973  -20.9901   59.3826 C   0  0  0  0  0  0  0  0  0  0  0  0
  -23.2739  -19.7141   58.7679 O   0  0  0  0  0  0  0  0  0  0  0  0
  -23.1671  -19.8002   57.8077 H   0  0  0  0  0  0  0  0  0  0  0  0
  -32.7290  -19.4431   59.2987 O   0  0  0  0  0  0  0  0  0  0  0  0
  -32.7813  -18.8234   60.6220 C   0  0  0  0  0  0  0  0  0  0  0  0
  -34.2284  -18.9819   61.1191 C   0  0  0  0  0  0  0  0  0  0  0  0
  -32.3452  -17.3444   60.5876 C   0  0  0  0  0  0  0  0  0  0  0  0
  -32.9972  -16.3164   59.8090 C   0  0  0  0  0  0  0  0  0  0  0  0
  -32.5227  -14.9659   59.8553 C   0  0  0  0  0  0  0  0  0  0  0  0
  -31.4157  -14.6163   60.6576 C   0  0  0  0  0  0  0  0  0  0  0  0
  -30.7720  -15.6134   61.4232 C   0  0  0  0  0  0  0  0  0  0  0  0
  -31.2175  -16.9527   61.3971 C   0  0  0  0  0  0  0  0  0  0  0  0
  -29.7298  -15.2833   62.1818 F   0  0  0  0  0  0  0  0  0  0  0  0
  -34.1190  -16.5639   58.9746 N   0  0  0  0  0  0  0  0  0  0  0  0
  -35.3581  -16.1020   59.3060 N   0  0  0  0  0  0  0  0  0  0  0  0
  -36.1048  -16.5385   58.2913 C   0  0  0  0  0  0  0  0  0  0  0  0
  -35.3119  -17.2417   57.3881 C   0  0  0  0  0  0  0  0  0  0  0  0
  -34.0485  -17.2628   57.8151 N   0  0  0  0  0  0  0  0  0  0  0  0
  -35.6319  -15.5792   60.0941 H   0  0  0  0  0  0  0  0  0  0  0  0
  -33.2626  -17.6806   57.3943 H   0  0  0  0  0  0  0  0  0  0  0  0
  1  2  2  0  0  0
  1  6  1  0  0  0
  1 23  1  0  0  0
  2  3  1  0  0  0
  2  7  1  0  0  0
  3  4  2  0  0  0
  4  5  1  0  0  0
  5  6  2  0  0  0
  5 10  1  0  0  0
 23 24  1  0  0  0
 24 26  1  0  0  0
 24 25  1  0  0  0
 26 27  2  0  0  0
 26 31  1  0  0  0
 27 28  1  0  0  0
 27 33  1  0  0  0
 28 29  2  0  0  0
 29 30  1  0  0  0
 30 31  2  0  0  0
 30 32  1  0  0  0
 33 34  1  0  0  0
 33 37  1  0  0  0
 34 35  1  0  0  0
 35 36  2  0  0  0
 36 37  1  0  0  0
 10 11  2  0  0  0
 10 14  1  0  0  0
 11 12  1  0  0  0
 11 15  1  0  0  0
 12 13  2  0  0  0
 13 14  1  0  0  0
 13 16  1  0  0  0
 16 20  1  0  0  0
 16 17  1  0  0  0
 16 18  1  0  0  0
 20 21  1  0  0  0
  7  8  1  0  0  0
  7  9  1  0  0  0
 34 38  1  0  0  0
 37 39  1  0  0  0
 17 19  1  0  0  0
 21 22  1  0  0  0
M  END
> <minimizedAffinity>
-7.54829

$$$$
4CD0_AWJ_A_1500


 39 42  0  0  0  0  0  0  0  0999 V2000
  -31.0320  -22.2732   58.2401 C   0  0  0  0  0  0  0  0  0  0  0  0
  -31.7451  -22.9469   57.2238 C   0  0  0  0  0  0  0  0  0  0  0  0
  -31.4041  -24.2224   56.8242 N   0  0  0  0  0  0  0  0  0  0  0  0
  -30.3425  -24.8543   57.4290 C   0  0  0  0  0  0  0  0  0  0  0  0
  -29.5656  -24.2812   58.4490 C   0  0  0  0  0  0  0  0  0  0  0  0
  -29.9477  -22.9765   58.8300 C   0  0  0  0  0  0  0  0  0  0  0  0
  -32.8251  -22.3095   56.5977 N   0  0  0  0  0  0  0  0  0  0  0  0
  -33.0839  -21.3992   56.8689 H   0  0  0  0  0  0  0  0  0  0  0  0
  -33.3249  -22.7722   55.8868 H   0  0  0  0  0  0  0  0  0  0  0  0
  -28.4202  -24.9482   59.1027 C   0  0  0  0  0  0  0  0  0  0  0  0
  -27.0564  -24.6470   59.2035 C   0  0  0  0  0  0  0  0  0  0  0  0
  -26.3032  -25.5669   59.9277 N   0  0  0  0  0  0  0  0  0  0  0  0
  -27.0561  -26.5536   60.3782 C   0  0  0  0  0  0  0  0  0  0  0  0
  -28.7107  -26.4257   59.9566 S   0  0  0  0  0  0  0  0  0  0  0  0
  -26.3135  -23.4855   58.6407 C   0  0  0  0  0  0  0  0  0  0  0  0
  -26.5147  -27.7232   61.2010 C   0  0  0  0  0  0  0  0  0  0  0  0
  -25.6908  -27.2608   62.2753 O   0  0  0  0  0  0  0  0  0  0  0  0
  -27.6963  -28.4699   61.8312 C   0  0  0  0  0  0  0  0  0  0  0  0
  -24.9287  -26.7810   61.9148 H   0  0  0  0  0  0  0  0  0  0  0  0
  -25.6947  -28.7130   60.3539 C   0  0  0  0  0  0  0  0  0  0  0  0
  -26.0905  -28.6646   58.9833 O   0  0  0  0  0  0  0  0  0  0  0  0
  -27.0266  -28.9075   58.9083 H   0  0  0  0  0  0  0  0  0  0  0  0
  -31.4654  -20.9896   58.5592 O   0  0  0  0  0  0  0  0  0  0  0  0
  -31.5324  -20.5202   59.9423 C   0  0  0  0  0  0  0  0  0  0  0  0
  -33.0263  -20.3816   60.2822 C   0  0  0  0  0  0  0  0  0  0  0  0
  -30.7731  -19.1926   60.1417 C   0  0  0  0  0  0  0  0  0  0  0  0
  -31.0726  -17.9647   59.4410 C   0  0  0  0  0  0  0  0  0  0  0  0
  -30.3153  -16.7787   59.7074 C   0  0  0  0  0  0  0  0  0  0  0  0
  -29.2685  -16.7873   60.6537 C   0  0  0  0  0  0  0  0  0  0  0  0
  -28.9684  -17.9820   61.3446 C   0  0  0  0  0  0  0  0  0  0  0  0
  -29.6976  -19.1663   61.1025 C   0  0  0  0  0  0  0  0  0  0  0  0
  -27.9830  -17.9896   62.2388 F   0  0  0  0  0  0  0  0  0  0  0  0
  -32.1066  -17.8507   58.4748 N   0  0  0  0  0  0  0  0  0  0  0  0
  -31.9487  -18.3442   57.2137 N   0  0  0  0  0  0  0  0  0  0  0  0
  -33.1137  -18.0390   56.6415 C   0  0  0  0  0  0  0  0  0  0  0  0
  -33.9318  -17.3797   57.5552 C   0  0  0  0  0  0  0  0  0  0  0  0
  -33.2991  -17.2557   58.7227 N   0  0  0  0  0  0  0  0  0  0  0  0
  -31.1722  -18.8077   56.8246 H   0  0  0  0  0  0  0  0  0  0  0  0
  -33.6178  -16.8374   59.5550 H   0  0  0  0  0  0  0  0  0  0  0  0
  1  2  2  0  0  0
  1  6  1  0  0  0
  1 23  1  0  0  0
  2  3  1  0  0  0
  2  7  1  0  0  0
  3  4  2  0  0  0
  4  5  1  0  0  0
  5  6  2  0  0  0
  5 10  1  0  0  0
 23 24  1  0  0  0
 24 26  1  0  0  0
 24 25  1  0  0  0
 26 27  2  0  0  0
 26 31  1  0  0  0
 27 28  1  0  0  0
 27 33  1  0  0  0
 28 29  2  0  0  0
 29 30  1  0  0  0
 30 31  2  0  0  0
 30 32  1  0  0  0
 33 34  1  0  0  0
 33 37  1  0  0  0
 34 35  1  0  0  0
 35 36  2  0  0  0
 36 37  1  0  0  0
 10 11  2  0  0  0
 10 14  1  0  0  0
 11 12  1  0  0  0
 11 15  1  0  0  0
 12 13  2  0  0  0
 13 14  1  0  0  0
 13 16  1  0  0  0
 16 20  1  0  0  0
 16 17  1  0  0  0
 16 18  1  0  0  0
 20 21  1  0  0  0
  7  8  1  0  0  0
  7  9  1  0  0  0
 34 38  1  0  0  0
 37 39  1  0  0  0
 17 19  1  0  0  0
 21 22  1  0  0  0
M  END
> <minimizedAffinity>
-7.49737

$$$$
4CD0_AWJ_A_1500


 39 42  0  0  0  0  0  0  0  0999 V2000
  -31.1872  -17.1902   59.6721 C   0  0  0  0  0  0  0  0  0  0  0  0
  -30.5529  -16.4063   60.6613 C   0  0  0  0  0  0  0  0  0  0  0  0
  -29.3946  -16.8241   61.2832 N   0  0  0  0  0  0  0  0  0  0  0  0
  -28.8435  -18.0347   60.9329 C   0  0  0  0  0  0  0  0  0  0  0  0
  -29.3871  -18.8934   59.9635 C   0  0  0  0  0  0  0  0  0  0  0  0
  -30.5708  -18.4289   59.3498 C   0  0  0  0  0  0  0  0  0  0  0  0
  -31.1095  -15.1735   61.0290 N   0  0  0  0  0  0  0  0  0  0  0  0
  -31.9358  -14.8580   60.5967 H   0  0  0  0  0  0  0  0  0  0  0  0
  -30.6742  -14.6232   61.7196 H   0  0  0  0  0  0  0  0  0  0  0  0
  -28.8069  -20.1981   59.5824 C   0  0  0  0  0  0  0  0  0  0  0  0
  -27.4964  -20.6842   59.4971 C   0  0  0  0  0  0  0  0  0  0  0  0
  -27.3866  -22.0086   59.0824 N   0  0  0  0  0  0  0  0  0  0  0  0
  -28.5739  -22.5387   58.8527 C   0  0  0  0  0  0  0  0  0  0  0  0
  -29.8856  -21.4726   59.1258 S   0  0  0  0  0  0  0  0  0  0  0  0
  -26.2183  -19.9765   59.7857 C   0  0  0  0  0  0  0  0  0  0  0  0
  -28.7804  -23.9768   58.3759 C   0  0  0  0  0  0  0  0  0  0  0  0
  -28.5675  -24.0885   56.9656 O   0  0  0  0  0  0  0  0  0  0  0  0
  -27.7424  -24.8752   59.0588 C   0  0  0  0  0  0  0  0  0  0  0  0
  -29.2085  -23.5315   56.4968 H   0  0  0  0  0  0  0  0  0  0  0  0
  -30.1884  -24.5098   58.6964 C   0  0  0  0  0  0  0  0  0  0  0  0
  -30.2900  -24.8973   60.0664 O   0  0  0  0  0  0  0  0  0  0  0  0
  -29.6513  -25.6038   60.2508 H   0  0  0  0  0  0  0  0  0  0  0  0
  -32.3507  -16.6680   59.1148 O   0  0  0  0  0  0  0  0  0  0  0  0
  -33.4222  -17.5303   58.6186 C   0  0  0  0  0  0  0  0  0  0  0  0
  -33.0906  -17.8322   57.1471 C   0  0  0  0  0  0  0  0  0  0  0  0
  -34.8107  -16.8765   58.7713 C   0  0  0  0  0  0  0  0  0  0  0  0
  -35.5293  -16.7625   60.0199 C   0  0  0  0  0  0  0  0  0  0  0  0
  -36.8109  -16.1245   60.0593 C   0  0  0  0  0  0  0  0  0  0  0  0
  -37.3924  -15.5985   58.8860 C   0  0  0  0  0  0  0  0  0  0  0  0
  -36.6979  -15.7040   57.6608 C   0  0  0  0  0  0  0  0  0  0  0  0
  -35.4334  -16.3278   57.5916 C   0  0  0  0  0  0  0  0  0  0  0  0
  -37.2450  -15.2058   56.5548 F   0  0  0  0  0  0  0  0  0  0  0  0
  -35.0300  -17.2548   61.2545 N   0  0  0  0  0  0  0  0  0  0  0  0
  -34.1120  -16.5489   61.9739 N   0  0  0  0  0  0  0  0  0  0  0  0
  -33.9131  -17.3365   63.0312 C   0  0  0  0  0  0  0  0  0  0  0  0
  -34.7019  -18.4791   62.9255 C   0  0  0  0  0  0  0  0  0  0  0  0
  -35.4146  -18.4351   61.7990 N   0  0  0  0  0  0  0  0  0  0  0  0
  -33.7005  -15.6790   61.7657 H   0  0  0  0  0  0  0  0  0  0  0  0
  -36.0579  -19.0940   61.4506 H   0  0  0  0  0  0  0  0  0  0  0  0
  1  2  2  0  0  0
  1  6  1  0  0  0
  1 23  1  0  0  0
  2  3  1  0  0  0
  2  7  1  0  0  0
  3  4  2  0  0  0
  4  5  1  0  0  0
  5  6  2  0  0  0
  5 10  1  0  0  0
 23 24  1  0  0  0
 24 26  1  0  0  0
 24 25  1  0  0  0
 26 27  2  0  0  0
 26 31  1  0  0  0
 27 28  1  0  0  0
 27 33  1  0  0  0
 28 29  2  0  0  0
 29 30  1  0  0  0
 30 31  2  0  0  0
 30 32  1  0  0  0
 33 34  1  0  0  0
 33 37  1  0  0  0
 34 35  1  0  0  0
 35 36  2  0  0  0
 36 37  1  0  0  0
 10 11  2  0  0  0
 10 14  1  0  0  0
 11 12  1  0  0  0
 11 15  1  0  0  0
 12 13  2  0  0  0
 13 14  1  0  0  0
 13 16  1  0  0  0
 16 20  1  0  0  0
 16 17  1  0  0  0
 16 18  1  0  0  0
 20 21  1  0  0  0
  7  8  1  0  0  0
  7  9  1  0  0  0
 34 38  1  0  0  0
 37 39  1  0  0  0
 17 19  1  0  0  0
 21 22  1  0  0  0
M  END
> <minimizedAffinity>
-7.47028

$$$$
4CD0_AWJ_A_1500


 39 42  0  0  0  0  0  0  0  0999 V2000
  -34.8704  -17.5707   59.0194 C   0  0  0  0  0  0  0  0  0  0  0  0
  -35.8458  -16.8085   58.3390 C   0  0  0  0  0  0  0  0  0  0  0  0
  -36.9116  -17.4042   57.6970 N   0  0  0  0  0  0  0  0  0  0  0  0
  -37.0275  -18.7747   57.7183 C   0  0  0  0  0  0  0  0  0  0  0  0
  -36.1190  -19.6293   58.3640 C   0  0  0  0  0  0  0  0  0  0  0  0
  -35.0440  -18.9806   59.0100 C   0  0  0  0  0  0  0  0  0  0  0  0
  -35.7337  -15.4117   58.3070 N   0  0  0  0  0  0  0  0  0  0  0  0
  -34.9802  -14.9679   58.7592 H   0  0  0  0  0  0  0  0  0  0  0  0
  -36.4085  -14.8744   57.8324 H   0  0  0  0  0  0  0  0  0  0  0  0
  -36.2305  -21.1027   58.3896 C   0  0  0  0  0  0  0  0  0  0  0  0
  -35.7075  -22.1247   57.5879 C   0  0  0  0  0  0  0  0  0  0  0  0
  -36.0704  -23.4139   57.9679 N   0  0  0  0  0  0  0  0  0  0  0  0
  -36.8508  -23.3976   59.0329 C   0  0  0  0  0  0  0  0  0  0  0  0
  -37.1873  -21.8305   59.6351 S   0  0  0  0  0  0  0  0  0  0  0  0
  -34.8259  -22.0142   56.3928 C   0  0  0  0  0  0  0  0  0  0  0  0
  -37.4214  -24.6585   59.6829 C   0  0  0  0  0  0  0  0  0  0  0  0
  -37.1974  -24.6572   61.0959 O   0  0  0  0  0  0  0  0  0  0  0  0
  -38.9397  -24.6779   59.4694 C   0  0  0  0  0  0  0  0  0  0  0  0
  -36.2436  -24.6451   61.2720 H   0  0  0  0  0  0  0  0  0  0  0  0
  -36.8198  -25.9493   59.0988 C   0  0  0  0  0  0  0  0  0  0  0  0
  -36.1386  -26.6982   60.1051 O   0  0  0  0  0  0  0  0  0  0  0  0
  -35.4139  -26.1660   60.4692 H   0  0  0  0  0  0  0  0  0  0  0  0
  -33.8398  -16.8616   59.6295 O   0  0  0  0  0  0  0  0  0  0  0  0
  -33.4171  -17.1426   61.0007 C   0  0  0  0  0  0  0  0  0  0  0  0
  -34.1035  -16.0923   61.8908 C   0  0  0  0  0  0  0  0  0  0  0  0
  -31.8827  -17.1092   61.1531 C   0  0  0  0  0  0  0  0  0  0  0  0
  -30.9866  -18.1197   60.6392 C   0  0  0  0  0  0  0  0  0  0  0  0
  -29.5720  -17.9903   60.8220 C   0  0  0  0  0  0  0  0  0  0  0  0
  -29.0303  -16.8798   61.5037 C   0  0  0  0  0  0  0  0  0  0  0  0
  -29.8975  -15.8861   62.0091 C   0  0  0  0  0  0  0  0  0  0  0  0
  -31.2959  -15.9873   61.8442 C   0  0  0  0  0  0  0  0  0  0  0  0
  -29.3867  -14.8376   62.6496 F   0  0  0  0  0  0  0  0  0  0  0  0
  -31.4304  -19.2711   59.9369 N   0  0  0  0  0  0  0  0  0  0  0  0
  -31.4083  -19.3162   58.5745 N   0  0  0  0  0  0  0  0  0  0  0  0
  -31.8936  -20.5323   58.3228 C   0  0  0  0  0  0  0  0  0  0  0  0
  -32.1922  -21.1799   59.5187 C   0  0  0  0  0  0  0  0  0  0  0  0
  -31.9011  -20.3850   60.5494 N   0  0  0  0  0  0  0  0  0  0  0  0
  -31.1100  -18.6265   57.9385 H   0  0  0  0  0  0  0  0  0  0  0  0
  -32.0024  -20.5626   61.5124 H   0  0  0  0  0  0  0  0  0  0  0  0
  1  2  2  0  0  0
  1  6  1  0  0  0
  1 23  1  0  0  0
  2  3  1  0  0  0
  2  7  1  0  0  0
  3  4  2  0  0  0
  4  5  1  0  0  0
  5  6  2  0  0  0
  5 10  1  0  0  0
 23 24  1  0  0  0
 24 26  1  0  0  0
 24 25  1  0  0  0
 26 27  2  0  0  0
 26 31  1  0  0  0
 27 28  1  0  0  0
 27 33  1  0  0  0
 28 29  2  0  0  0
 29 30  1  0  0  0
 30 31  2  0  0  0
 30 32  1  0  0  0
 33 34  1  0  0  0
 33 37  1  0  0  0
 34 35  1  0  0  0
 35 36  2  0  0  0
 36 37  1  0  0  0
 10 11  2  0  0  0
 10 14  1  0  0  0
 11 12  1  0  0  0
 11 15  1  0  0  0
 12 13  2  0  0  0
 13 14  1  0  0  0
 13 16  1  0  0  0
 16 20  1  0  0  0
 16 17  1  0  0  0
 16 18  1  0  0  0
 20 21  1  0  0  0
  7  8  1  0  0  0
  7  9  1  0  0  0
 34 38  1  0  0  0
 37 39  1  0  0  0
 17 19  1  0  0  0
 21 22  1  0  0  0
M  END
> <minimizedAffinity>
-7.46416

$$$$
4CD0_AWJ_A_1500


 39 42  0  0  0  0  0  0  0  0999 V2000
  -31.0997  -17.4081   60.5756 C   0  0  0  0  0  0  0  0  0  0  0  0
  -30.2387  -16.5336   61.2751 C   0  0  0  0  0  0  0  0  0  0  0  0
  -28.9097  -16.8392   61.4829 N   0  0  0  0  0  0  0  0  0  0  0  0
  -28.4098  -18.0255   60.9984 C   0  0  0  0  0  0  0  0  0  0  0  0
  -29.1728  -18.9674   60.2891 C   0  0  0  0  0  0  0  0  0  0  0  0
  -30.5268  -18.6166   60.0963 C   0  0  0  0  0  0  0  0  0  0  0  0
  -30.7399  -15.3247   61.7772 N   0  0  0  0  0  0  0  0  0  0  0  0
  -31.6856  -15.0887   61.6392 H   0  0  0  0  0  0  0  0  0  0  0  0
  -30.1461  -14.7116   62.2679 H   0  0  0  0  0  0  0  0  0  0  0  0
  -28.6481  -20.2470   59.7681 C   0  0  0  0  0  0  0  0  0  0  0  0
  -27.3574  -20.7444   59.5505 C   0  0  0  0  0  0  0  0  0  0  0  0
  -27.3046  -22.0341   59.0291 N   0  0  0  0  0  0  0  0  0  0  0  0
  -28.5158  -22.5271   58.8469 C   0  0  0  0  0  0  0  0  0  0  0  0
  -29.7826  -21.4661   59.2956 S   0  0  0  0  0  0  0  0  0  0  0  0
  -26.0477  -20.0803   59.7982 C   0  0  0  0  0  0  0  0  0  0  0  0
  -28.7853  -23.9207   58.2781 C   0  0  0  0  0  0  0  0  0  0  0  0
  -28.6738  -23.9263   56.8518 O   0  0  0  0  0  0  0  0  0  0  0  0
  -27.7212  -24.8852   58.8150 C   0  0  0  0  0  0  0  0  0  0  0  0
  -29.3341  -23.3248   56.4735 H   0  0  0  0  0  0  0  0  0  0  0  0
  -30.1783  -24.4549   58.6567 C   0  0  0  0  0  0  0  0  0  0  0  0
  -30.2017  -24.9121   60.0086 O   0  0  0  0  0  0  0  0  0  0  0  0
  -29.5627  -25.6338   60.1170 H   0  0  0  0  0  0  0  0  0  0  0  0
  -32.4207  -16.9955   60.4277 O   0  0  0  0  0  0  0  0  0  0  0  0
  -33.1719  -17.2414   59.1976 C   0  0  0  0  0  0  0  0  0  0  0  0
  -34.3594  -16.2635   59.2110 C   0  0  0  0  0  0  0  0  0  0  0  0
  -33.6373  -18.7075   59.0853 C   0  0  0  0  0  0  0  0  0  0  0  0
  -34.4215  -19.3965   60.0846 C   0  0  0  0  0  0  0  0  0  0  0  0
  -34.8157  -20.7581   59.8800 C   0  0  0  0  0  0  0  0  0  0  0  0
  -34.4475  -21.4481   58.7053 C   0  0  0  0  0  0  0  0  0  0  0  0
  -33.6819  -20.7833   57.7221 C   0  0  0  0  0  0  0  0  0  0  0  0
  -33.2788  -19.4418   57.8967 C   0  0  0  0  0  0  0  0  0  0  0  0
  -33.3369  -21.4330   56.6133 F   0  0  0  0  0  0  0  0  0  0  0  0
  -34.8456  -18.7911   61.2968 N   0  0  0  0  0  0  0  0  0  0  0  0
  -33.9811  -18.6175   62.3366 N   0  0  0  0  0  0  0  0  0  0  0  0
  -34.7535  -18.0344   63.2538 C   0  0  0  0  0  0  0  0  0  0  0  0
  -36.0431  -17.8738   62.7540 C   0  0  0  0  0  0  0  0  0  0  0  0
  -36.1102  -18.3524   61.5109 N   0  0  0  0  0  0  0  0  0  0  0  0
  -33.0289  -18.8607   62.3953 H   0  0  0  0  0  0  0  0  0  0  0  0
  -36.8834  -18.3802   60.9021 H   0  0  0  0  0  0  0  0  0  0  0  0
  1  2  2  0  0  0
  1  6  1  0  0  0
  1 23  1  0  0  0
  2  3  1  0  0  0
  2  7  1  0  0  0
  3  4  2  0  0  0
  4  5  1  0  0  0
  5  6  2  0  0  0
  5 10  1  0  0  0
 23 24  1  0  0  0
 24 26  1  0  0  0
 24 25  1  0  0  0
 26 27  2  0  0  0
 26 31  1  0  0  0
 27 28  1  0  0  0
 27 33  1  0  0  0
 28 29  2  0  0  0
 29 30  1  0  0  0
 30 31  2  0  0  0
 30 32  1  0  0  0
 33 34  1  0  0  0
 33 37  1  0  0  0
 34 35  1  0  0  0
 35 36  2  0  0  0
 36 37  1  0  0  0
 10 11  2  0  0  0
 10 14  1  0  0  0
 11 12  1  0  0  0
 11 15  1  0  0  0
 12 13  2  0  0  0
 13 14  1  0  0  0
 13 16  1  0  0  0
 16 20  1  0  0  0
 16 17  1  0  0  0
 16 18  1  0  0  0
 20 21  1  0  0  0
  7  8  1  0  0  0
  7  9  1  0  0  0
 34 38  1  0  0  0
 37 39  1  0  0  0
 17 19  1  0  0  0
 21 22  1  0  0  0
M  END
> <minimizedAffinity>
-7.39946

$$$$
