2P7G_2OH_A_1


 19 20  0  0  0  0  0  0  0  0999 V2000
   48.6754  -28.9385  -95.3789 C   0  0  0  0  0  0  0  0  0  0  0  0
   50.0727  -29.3283  -94.7799 C   0  0  0  0  0  0  0  0  0  0  0  0
   47.6374  -29.8644  -94.6916 C   0  0  0  0  0  0  0  0  0  0  0  0
   48.9653  -29.7151 -101.1525 O   0  0  0  0  0  0  0  0  0  0  0  0
   48.9216  -29.5275  -99.8025 C   0  0  0  0  0  0  0  0  0  0  0  0
   47.7385  -29.8806  -99.1262 C   0  0  0  0  0  0  0  0  0  0  0  0
   47.6465  -29.7013  -97.7133 C   0  0  0  0  0  0  0  0  0  0  0  0
   50.0278  -28.9946  -99.0942 C   0  0  0  0  0  0  0  0  0  0  0  0
   49.9430  -28.8118  -97.6850 C   0  0  0  0  0  0  0  0  0  0  0  0
   48.7464  -29.1596  -96.9464 C   0  0  0  0  0  0  0  0  0  0  0  0
   48.2223  -30.0689 -101.6006 H   0  0  0  0  0  0  0  0  0  0  0  0
   48.2036  -27.4592  -95.0574 C   0  0  0  0  0  0  0  0  0  0  0  0
   48.7789  -26.6272  -94.0344 C   0  0  0  0  0  0  0  0  0  0  0  0
   48.2856  -25.3031  -93.8050 C   0  0  0  0  0  0  0  0  0  0  0  0
   47.1189  -26.8870  -95.8293 C   0  0  0  0  0  0  0  0  0  0  0  0
   46.6394  -25.5782  -95.6024 C   0  0  0  0  0  0  0  0  0  0  0  0
   47.2173  -24.7940  -94.5955 C   0  0  0  0  0  0  0  0  0  0  0  0
   46.7633  -23.5246  -94.3561 O   0  0  0  0  0  0  0  0  0  0  0  0
   47.1552  -23.0066  -93.6808 H   0  0  0  0  0  0  0  0  0  0  0  0
  4  5  1  0  0  0
  5  6  1  0  0  0
  5  8  2  0  0  0
  6  7  2  0  0  0
  7 10  1  0  0  0
  8  9  1  0  0  0
  9 10  2  0  0  0
 10  1  1  0  0  0
  1 12  1  0  0  0
  1  2  1  0  0  0
  1  3  1  0  0  0
 12 13  2  0  0  0
 12 15  1  0  0  0
 13 14  1  0  0  0
 14 17  2  0  0  0
 15 16  2  0  0  0
 16 17  1  0  0  0
 17 18  1  0  0  0
  4 11  1  0  0  0
 18 19  1  0  0  0
M  END
> <minimizedAffinity>
-10.25754

$$$$
2P7G_2OH_A_1


 19 20  0  0  0  0  0  0  0  0999 V2000
   48.5418  -28.9555  -95.3722 C   0  0  0  0  0  0  0  0  0  0  0  0
   47.5840  -29.9496  -94.6254 C   0  0  0  0  0  0  0  0  0  0  0  0
   49.9646  -29.2271  -94.8164 C   0  0  0  0  0  0  0  0  0  0  0  0
   46.6835  -23.5320  -94.2979 O   0  0  0  0  0  0  0  0  0  0  0  0
   47.1008  -24.8021  -94.5669 C   0  0  0  0  0  0  0  0  0  0  0  0
   48.0590  -25.3761  -93.7101 C   0  0  0  0  0  0  0  0  0  0  0  0
   48.5260  -26.7027  -93.9528 C   0  0  0  0  0  0  0  0  0  0  0  0
   46.5913  -25.5289  -95.6721 C   0  0  0  0  0  0  0  0  0  0  0  0
   47.0533  -26.8522  -95.9212 C   0  0  0  0  0  0  0  0  0  0  0  0
   48.0386  -27.4841  -95.0679 C   0  0  0  0  0  0  0  0  0  0  0  0
   47.0337  -23.0698  -93.5619 H   0  0  0  0  0  0  0  0  0  0  0  0
   48.6467  -29.1834  -96.9379 C   0  0  0  0  0  0  0  0  0  0  0  0
   47.5942  -29.7308  -97.7516 C   0  0  0  0  0  0  0  0  0  0  0  0
   47.7767  -29.9109  -99.1600 C   0  0  0  0  0  0  0  0  0  0  0  0
   49.8772  -28.8283  -97.6161 C   0  0  0  0  0  0  0  0  0  0  0  0
   50.0501  -29.0031  -99.0066 C   0  0  0  0  0  0  0  0  0  0  0  0
   49.0080  -29.5431  -99.7715 C   0  0  0  0  0  0  0  0  0  0  0  0
   49.1576  -29.7257 -101.1202 O   0  0  0  0  0  0  0  0  0  0  0  0
   48.4558  -30.0875 -101.6247 H   0  0  0  0  0  0  0  0  0  0  0  0
  4  5  1  0  0  0
  5  6  1  0  0  0
  5  8  2  0  0  0
  6  7  2  0  0  0
  7 10  1  0  0  0
  8  9  1  0  0  0
  9 10  2  0  0  0
 10  1  1  0  0  0
  1 12  1  0  0  0
  1  2  1  0  0  0
  1  3  1  0  0  0
 12 13  2  0  0  0
 12 15  1  0  0  0
 13 14  1  0  0  0
 14 17  2  0  0  0
 15 16  2  0  0  0
 16 17  1  0  0  0
 17 18  1  0  0  0
  4 11  1  0  0  0
 18 19  1  0  0  0
M  END
> <minimizedAffinity>
-10.25379

$$$$
2P7G_2OH_A_1


 19 20  0  0  0  0  0  0  0  0999 V2000
   48.5941  -28.9050  -95.4544 C   0  0  0  0  0  0  0  0  0  0  0  0
   49.9971  -29.1917  -94.8121 C   0  0  0  0  0  0  0  0  0  0  0  0
   47.6001  -29.8836  -94.7754 C   0  0  0  0  0  0  0  0  0  0  0  0
   49.0911  -29.7694 -101.2014 O   0  0  0  0  0  0  0  0  0  0  0  0
   48.9990  -29.5613  -99.8568 C   0  0  0  0  0  0  0  0  0  0  0  0
   47.7928  -29.9059  -99.2179 C   0  0  0  0  0  0  0  0  0  0  0  0
   47.6502  -29.7051  -97.8122 C   0  0  0  0  0  0  0  0  0  0  0  0
   50.0785  -29.0157  -99.1177 C   0  0  0  0  0  0  0  0  0  0  0  0
   49.9432  -28.8115  -97.7155 C   0  0  0  0  0  0  0  0  0  0  0  0
   48.7214  -29.1499  -97.0148 C   0  0  0  0  0  0  0  0  0  0  0  0
   48.3650  -30.1313 -101.6703 H   0  0  0  0  0  0  0  0  0  0  0  0
   48.0192  -27.4538  -95.1751 C   0  0  0  0  0  0  0  0  0  0  0  0
   47.0696  -26.7796  -96.0197 C   0  0  0  0  0  0  0  0  0  0  0  0
   46.6083  -25.4635  -95.6967 C   0  0  0  0  0  0  0  0  0  0  0  0
   48.4690  -26.7371  -93.9986 C   0  0  0  0  0  0  0  0  0  0  0  0
   48.0067  -25.4410  -93.6818 C   0  0  0  0  0  0  0  0  0  0  0  0
   47.0854  -24.8086  -94.5267 C   0  0  0  0  0  0  0  0  0  0  0  0
   46.6290  -23.5499  -94.2401 O   0  0  0  0  0  0  0  0  0  0  0  0
   46.0128  -23.1339  -94.8104 H   0  0  0  0  0  0  0  0  0  0  0  0
  4  5  1  0  0  0
  5  6  1  0  0  0
  5  8  2  0  0  0
  6  7  2  0  0  0
  7 10  1  0  0  0
  8  9  1  0  0  0
  9 10  2  0  0  0
 10  1  1  0  0  0
  1 12  1  0  0  0
  1  2  1  0  0  0
  1  3  1  0  0  0
 12 13  2  0  0  0
 12 15  1  0  0  0
 13 14  1  0  0  0
 14 17  2  0  0  0
 15 16  2  0  0  0
 16 17  1  0  0  0
 17 18  1  0  0  0
  4 11  1  0  0  0
 18 19  1  0  0  0
M  END
> <minimizedAffinity>
-10.24604

$$$$
2P7G_2OH_A_1


 19 20  0  0  0  0  0  0  0  0999 V2000
   48.6128  -28.9446  -95.4763 C   0  0  0  0  0  0  0  0  0  0  0  0
   47.6497  -29.9638  -94.7715 C   0  0  0  0  0  0  0  0  0  0  0  0
   50.0235  -29.2035  -94.8847 C   0  0  0  0  0  0  0  0  0  0  0  0
   46.6539  -23.5815  -94.2840 O   0  0  0  0  0  0  0  0  0  0  0  0
   47.1288  -24.8329  -94.5448 C   0  0  0  0  0  0  0  0  0  0  0  0
   46.6183  -25.5106  -95.6681 C   0  0  0  0  0  0  0  0  0  0  0  0
   47.0852  -26.8226  -95.9800 C   0  0  0  0  0  0  0  0  0  0  0  0
   48.1058  -25.4401  -93.7164 C   0  0  0  0  0  0  0  0  0  0  0  0
   48.5754  -26.7491  -94.0205 C   0  0  0  0  0  0  0  0  0  0  0  0
   48.0790  -27.4855  -95.1648 C   0  0  0  0  0  0  0  0  0  0  0  0
   46.0080  -23.1992  -94.8450 H   0  0  0  0  0  0  0  0  0  0  0  0
   48.7649  -29.1473  -97.0416 C   0  0  0  0  0  0  0  0  0  0  0  0
   49.9446  -28.8115  -97.7936 C   0  0  0  0  0  0  0  0  0  0  0  0
   49.9940  -29.0200  -99.2089 C   0  0  0  0  0  0  0  0  0  0  0  0
   47.6529  -29.7021  -97.7870 C   0  0  0  0  0  0  0  0  0  0  0  0
   47.7088  -29.9107  -99.1825 C   0  0  0  0  0  0  0  0  0  0  0  0
   48.8701  -29.5692  -99.8878 C   0  0  0  0  0  0  0  0  0  0  0  0
   48.9424  -29.7586 -101.2418 O   0  0  0  0  0  0  0  0  0  0  0  0
   49.7228  -29.5276 -101.7062 H   0  0  0  0  0  0  0  0  0  0  0  0
  4  5  1  0  0  0
  5  6  1  0  0  0
  5  8  2  0  0  0
  6  7  2  0  0  0
  7 10  1  0  0  0
  8  9  1  0  0  0
  9 10  2  0  0  0
 10  1  1  0  0  0
  1 12  1  0  0  0
  1  2  1  0  0  0
  1  3  1  0  0  0
 12 13  2  0  0  0
 12 15  1  0  0  0
 13 14  1  0  0  0
 14 17  2  0  0  0
 15 16  2  0  0  0
 16 17  1  0  0  0
 17 18  1  0  0  0
  4 11  1  0  0  0
 18 19  1  0  0  0
M  END
> <minimizedAffinity>
-10.22904

$$$$
