2WEQ_GDM_A_1215


 44 45  0  0  0  0  0  0  0  0999 V2000
  -23.0254   38.3602   -9.6054 O   0  0  0  0  0  0  0  0  0  0  0  0
  -24.8734   32.8969   -0.8707 O   0  0  0  0  0  0  0  0  0  0  0  0
  -21.4503   32.4377   -6.3539 O   0  0  0  0  0  0  0  0  0  0  0  0
  -22.2004   38.1762   -5.6178 O   0  0  0  0  0  0  0  0  0  0  0  0
  -22.0335   37.1998   -8.1970 N   0  0  0  0  0  0  0  0  0  0  0  0
  -22.8696   38.3443   -8.4189 C   0  0  0  0  0  0  0  0  0  0  0  0
  -24.1583   38.6517   -7.6036 C   0  0  0  0  0  0  0  0  0  0  0  0
  -24.6624   37.2048   -7.5962 C   0  0  0  0  0  0  0  0  0  0  0  0
  -25.9267   36.8498   -6.8973 C   0  0  0  0  0  0  0  0  0  0  0  0
  -26.8234   35.6531   -6.8882 C   0  0  0  0  0  0  0  0  0  0  0  0
  -26.9475   34.3320   -7.5968 C   0  0  0  0  0  0  0  0  0  0  0  0
  -26.9385   33.1631   -6.5885 C   0  0  0  0  0  0  0  0  0  0  0  0
  -25.7819   33.0529   -5.5900 C   0  0  0  0  0  0  0  0  0  0  0  0
  -26.4379   32.9689   -4.2131 C   0  0  0  0  0  0  0  0  0  0  0  0
  -25.6320   32.4271   -3.0276 C   0  0  0  0  0  0  0  0  0  0  0  0
  -25.8067   33.3638   -1.8173 C   0  0  0  0  0  0  0  0  0  0  0  0
  -25.5182   34.8704   -2.1193 C   0  0  0  0  0  0  0  0  0  0  0  0
  -23.9945   35.1196   -2.2836 C   0  0  0  0  0  0  0  0  0  0  0  0
  -23.5134   36.5602   -2.5479 C   0  0  0  0  0  0  0  0  0  0  0  0
  -22.0843   36.5887   -3.1200 C   0  0  0  0  0  0  0  0  0  0  0  0
  -21.9443   35.9355   -4.5142 C   0  0  0  0  0  0  0  0  0  0  0  0
  -21.7339   34.4159   -4.7552 C   0  0  0  0  0  0  0  0  0  0  0  0
  -21.6325   33.8127   -6.1665 C   0  0  0  0  0  0  0  0  0  0  0  0
  -21.7384   34.7191   -7.4039 C   0  0  0  0  0  0  0  0  0  0  0  0
  -21.8828   36.2157   -7.1614 C   0  0  0  0  0  0  0  0  0  0  0  0
  -22.0149   36.8043   -5.7549 C   0  0  0  0  0  0  0  0  0  0  0  0
  -25.1837   39.6203   -8.2303 C   0  0  0  0  0  0  0  0  0  0  0  0
  -24.6813   32.0089   -5.8985 C   0  0  0  0  0  0  0  0  0  0  0  0
  -26.2062   31.0387   -2.6034 C   0  0  0  0  0  0  0  0  0  0  0  0
  -24.4902   37.2879   -3.4877 C   0  0  0  0  0  0  0  0  0  0  0  0
  -25.0474   31.9620   -0.6791 H   0  0  0  0  0  0  0  0  0  0  0  0
  -21.4058   37.0517   -8.9408 H   0  0  0  0  0  0  0  0  0  0  0  0
  -28.2644   34.3295   -8.1061 O   0  0  0  0  0  0  0  0  0  0  0  0
  -29.3038   34.9891   -7.4563 C   0  0  0  0  0  0  0  0  0  0  0  0
  -25.9199   35.5153   -0.9245 O   0  0  0  0  0  0  0  0  0  0  0  0
  -24.9967   35.8581    0.1047 C   0  0  0  0  0  0  0  0  0  0  0  0
  -21.6423   33.5792   -3.6663 O   0  0  0  0  0  0  0  0  0  0  0  0
  -20.3483   33.4542   -3.0892 C   0  0  0  0  0  0  0  0  0  0  0  0
  -27.1082   32.0234   -7.3495 O   0  0  0  0  0  0  0  0  0  0  0  0
  -27.7359   29.9602   -6.8706 O   0  0  0  0  0  0  0  0  0  0  0  0
  -29.3397   31.3531   -7.7898 N   0  0  0  0  0  0  0  0  0  0  0  0
  -28.0797   31.0699   -7.1346 C   0  0  0  0  0  0  0  0  0  0  0  0
  -29.5910   32.2832   -7.9926 H   0  0  0  0  0  0  0  0  0  0  0  0
  -29.9450   30.6156   -8.0326 H   0  0  0  0  0  0  0  0  0  0  0  0
  1  6  2  0  0  0
 33 11  1  0  0  0
 33 34  1  0  0  0
 39 12  1  0  0  0
 39 42  1  0  0  0
 40 42  2  0  0  0
  2 16  1  0  0  0
 35 17  1  0  0  0
 35 36  1  0  0  0
 37 22  1  0  0  0
 37 38  1  0  0  0
  3 23  2  0  0  0
  4 26  2  0  0  0
  5  6  1  0  0  0
  5 25  1  0  0  0
 41 42  1  0  0  0
  6  7  1  0  0  0
  7  8  2  0  0  0
  7 27  1  0  0  0
  8  9  1  0  0  0
  9 10  2  0  0  0
 10 11  1  0  0  0
 11 12  1  0  0  0
 12 13  1  0  0  0
 13 14  2  0  0  0
 13 28  1  0  0  0
 14 15  1  0  0  0
 15 16  1  0  0  0
 15 29  1  0  0  0
 16 17  1  0  0  0
 17 18  1  0  0  0
 18 19  1  0  0  0
 19 20  1  0  0  0
 19 30  1  0  0  0
 20 21  1  0  0  0
 21 22  2  0  0  0
 21 26  1  0  0  0
 22 23  1  0  0  0
 23 24  1  0  0  0
 24 25  2  0  0  0
 25 26  1  0  0  0
  2 31  1  0  0  0
  5 32  1  0  0  0
 41 43  1  0  0  0
 41 44  1  0  0  0
M  END
> <minimizedAffinity>
-7.25258

$$$$
2WEQ_GDM_A_1215


 44 45  0  0  0  0  0  0  0  0999 V2000
  -27.4550   31.1110   -3.4747 O   0  0  0  0  0  0  0  0  0  0  0  0
  -21.1690   38.4211   -7.5498 O   0  0  0  0  0  0  0  0  0  0  0  0
  -26.0037   37.8918   -3.2673 O   0  0  0  0  0  0  0  0  0  0  0  0
  -23.6447   32.5583   -3.4207 O   0  0  0  0  0  0  0  0  0  0  0  0
  -26.3510   32.7766   -2.9084 N   0  0  0  0  0  0  0  0  0  0  0  0
  -26.3216   31.4895   -3.5412 C   0  0  0  0  0  0  0  0  0  0  0  0
  -25.6358   31.2076   -4.9088 C   0  0  0  0  0  0  0  0  0  0  0  0
  -26.1438   32.4871   -5.5814 C   0  0  0  0  0  0  0  0  0  0  0  0
  -25.7684   32.8012   -6.9862 C   0  0  0  0  0  0  0  0  0  0  0  0
  -26.2515   33.7772   -8.0110 C   0  0  0  0  0  0  0  0  0  0  0  0
  -27.3427   34.8008   -8.1668 C   0  0  0  0  0  0  0  0  0  0  0  0
  -26.7526   36.1908   -8.4872 C   0  0  0  0  0  0  0  0  0  0  0  0
  -25.6881   36.7782   -7.5550 C   0  0  0  0  0  0  0  0  0  0  0  0
  -24.5076   37.1344   -8.4566 C   0  0  0  0  0  0  0  0  0  0  0  0
  -23.4482   38.1212   -7.9543 C   0  0  0  0  0  0  0  0  0  0  0  0
  -22.0441   37.5506   -8.2293 C   0  0  0  0  0  0  0  0  0  0  0  0
  -21.8245   36.0939   -7.7056 C   0  0  0  0  0  0  0  0  0  0  0  0
  -21.6937   36.0761   -6.1587 C   0  0  0  0  0  0  0  0  0  0  0  0
  -21.4326   34.7258   -5.4623 C   0  0  0  0  0  0  0  0  0  0  0  0
  -21.7667   34.7841   -3.9605 C   0  0  0  0  0  0  0  0  0  0  0  0
  -23.2613   35.0290   -3.6506 C   0  0  0  0  0  0  0  0  0  0  0  0
  -23.9278   36.4304   -3.5900 C   0  0  0  0  0  0  0  0  0  0  0  0
  -25.4285   36.6165   -3.3085 C   0  0  0  0  0  0  0  0  0  0  0  0
  -26.3285   35.3923   -3.0734 C   0  0  0  0  0  0  0  0  0  0  0  0
  -25.6587   34.0246   -3.0726 C   0  0  0  0  0  0  0  0  0  0  0  0
  -24.1713   33.8454   -3.3851 C   0  0  0  0  0  0  0  0  0  0  0  0
  -26.0676   29.9387   -5.6742 C   0  0  0  0  0  0  0  0  0  0  0  0
  -26.1496   37.8659   -6.5549 C   0  0  0  0  0  0  0  0  0  0  0  0
  -23.5554   39.4515   -8.7642 C   0  0  0  0  0  0  0  0  0  0  0  0
  -22.2268   33.6037   -6.1531 C   0  0  0  0  0  0  0  0  0  0  0  0
  -21.3006   39.3270   -7.8705 H   0  0  0  0  0  0  0  0  0  0  0  0
  -27.0109   32.8140   -2.1787 H   0  0  0  0  0  0  0  0  0  0  0  0
  -28.0033   34.4307   -9.3585 O   0  0  0  0  0  0  0  0  0  0  0  0
  -27.3719   33.6767  -10.3438 C   0  0  0  0  0  0  0  0  0  0  0  0
  -20.5559   35.7550   -8.2355 O   0  0  0  0  0  0  0  0  0  0  0  0
  -20.3345   34.5606   -8.9793 C   0  0  0  0  0  0  0  0  0  0  0  0
  -23.1481   37.5442   -3.8034 O   0  0  0  0  0  0  0  0  0  0  0  0
  -22.1379   37.7875   -2.8321 C   0  0  0  0  0  0  0  0  0  0  0  0
  -27.8434   37.0205   -8.6553 O   0  0  0  0  0  0  0  0  0  0  0  0
  -28.1726   38.9852   -9.6103 O   0  0  0  0  0  0  0  0  0  0  0  0
  -28.7134   37.1130  -10.8593 N   0  0  0  0  0  0  0  0  0  0  0  0
  -28.0711   37.8080   -9.7631 C   0  0  0  0  0  0  0  0  0  0  0  0
  -28.6073   36.1389  -10.9542 H   0  0  0  0  0  0  0  0  0  0  0  0
  -29.2561   37.6147  -11.5097 H   0  0  0  0  0  0  0  0  0  0  0  0
  1  6  2  0  0  0
 33 11  1  0  0  0
 33 34  1  0  0  0
 39 12  1  0  0  0
 39 42  1  0  0  0
 40 42  2  0  0  0
  2 16  1  0  0  0
 35 17  1  0  0  0
 35 36  1  0  0  0
 37 22  1  0  0  0
 37 38  1  0  0  0
  3 23  2  0  0  0
  4 26  2  0  0  0
  5  6  1  0  0  0
  5 25  1  0  0  0
 41 42  1  0  0  0
  6  7  1  0  0  0
  7  8  2  0  0  0
  7 27  1  0  0  0
  8  9  1  0  0  0
  9 10  2  0  0  0
 10 11  1  0  0  0
 11 12  1  0  0  0
 12 13  1  0  0  0
 13 14  2  0  0  0
 13 28  1  0  0  0
 14 15  1  0  0  0
 15 16  1  0  0  0
 15 29  1  0  0  0
 16 17  1  0  0  0
 17 18  1  0  0  0
 18 19  1  0  0  0
 19 20  1  0  0  0
 19 30  1  0  0  0
 20 21  1  0  0  0
 21 22  2  0  0  0
 21 26  1  0  0  0
 22 23  1  0  0  0
 23 24  1  0  0  0
 24 25  2  0  0  0
 25 26  1  0  0  0
  2 31  1  0  0  0
  5 32  1  0  0  0
 41 43  1  0  0  0
 41 44  1  0  0  0
M  END
> <minimizedAffinity>
-5.96263

$$$$
2WEQ_GDM_A_1215


 44 45  0  0  0  0  0  0  0  0999 V2000
  -19.7997   33.2456   -2.7140 O   0  0  0  0  0  0  0  0  0  0  0  0
  -28.5461   36.4781   -7.4688 O   0  0  0  0  0  0  0  0  0  0  0  0
  -26.2655   35.4432   -1.4921 O   0  0  0  0  0  0  0  0  0  0  0  0
  -21.4840   36.3817   -4.7000 O   0  0  0  0  0  0  0  0  0  0  0  0
  -21.2903   34.6804   -2.5316 N   0  0  0  0  0  0  0  0  0  0  0  0
  -20.2777   34.1187   -3.3784 C   0  0  0  0  0  0  0  0  0  0  0  0
  -20.5048   33.7329   -4.8683 C   0  0  0  0  0  0  0  0  0  0  0  0
  -21.8818   33.1019   -4.6364 C   0  0  0  0  0  0  0  0  0  0  0  0
  -22.6563   32.5412   -5.7760 C   0  0  0  0  0  0  0  0  0  0  0  0
  -23.8603   31.6628   -5.8986 C   0  0  0  0  0  0  0  0  0  0  0  0
  -24.7806   30.8799   -5.0026 C   0  0  0  0  0  0  0  0  0  0  0  0
  -26.2467   31.3227   -5.1965 C   0  0  0  0  0  0  0  0  0  0  0  0
  -26.5996   32.8063   -5.0501 C   0  0  0  0  0  0  0  0  0  0  0  0
  -27.3252   33.1826   -6.3406 C   0  0  0  0  0  0  0  0  0  0  0  0
  -28.1910   34.4465   -6.3758 C   0  0  0  0  0  0  0  0  0  0  0  0
  -27.8625   35.2584   -7.6429 C   0  0  0  0  0  0  0  0  0  0  0  0
  -26.3401   35.5505   -7.8466 C   0  0  0  0  0  0  0  0  0  0  0  0
  -25.8448   36.6283   -6.8448 C   0  0  0  0  0  0  0  0  0  0  0  0
  -24.3718   37.0765   -6.9219 C   0  0  0  0  0  0  0  0  0  0  0  0
  -23.9219   37.7831   -5.6301 C   0  0  0  0  0  0  0  0  0  0  0  0
  -23.9239   36.8782   -4.3766 C   0  0  0  0  0  0  0  0  0  0  0  0
  -25.1697   36.6090   -3.4894 C   0  0  0  0  0  0  0  0  0  0  0  0
  -25.1246   35.6733   -2.2695 C   0  0  0  0  0  0  0  0  0  0  0  0
  -23.8150   34.9644   -1.8871 C   0  0  0  0  0  0  0  0  0  0  0  0
  -22.5818   35.2797   -2.7232 C   0  0  0  0  0  0  0  0  0  0  0  0
  -22.6421   36.1868   -3.9543 C   0  0  0  0  0  0  0  0  0  0  0  0
  -19.5111   32.7391   -5.5063 C   0  0  0  0  0  0  0  0  0  0  0  0
  -27.2696   33.2441   -3.7251 C   0  0  0  0  0  0  0  0  0  0  0  0
  -29.6945   34.0404   -6.4837 C   0  0  0  0  0  0  0  0  0  0  0  0
  -23.4612   35.8755   -7.2306 C   0  0  0  0  0  0  0  0  0  0  0  0
  -29.4918   36.3034   -7.3419 H   0  0  0  0  0  0  0  0  0  0  0  0
  -21.0366   34.6467   -1.5809 H   0  0  0  0  0  0  0  0  0  0  0  0
  -24.7505   29.5696   -5.5277 O   0  0  0  0  0  0  0  0  0  0  0  0
  -25.1517   29.2921   -6.8314 C   0  0  0  0  0  0  0  0  0  0  0  0
  -26.2992   36.1307   -9.1376 O   0  0  0  0  0  0  0  0  0  0  0  0
  -26.9928   35.5697  -10.2481 C   0  0  0  0  0  0  0  0  0  0  0  0
  -26.3576   37.2246   -3.8118 O   0  0  0  0  0  0  0  0  0  0  0  0
  -26.6000   38.4733   -3.1753 C   0  0  0  0  0  0  0  0  0  0  0  0
  -26.9878   30.5048   -4.3669 O   0  0  0  0  0  0  0  0  0  0  0  0
  -29.0910   30.2838   -5.0055 O   0  0  0  0  0  0  0  0  0  0  0  0
  -27.9983   28.3600   -4.3254 N   0  0  0  0  0  0  0  0  0  0  0  0
  -28.0591   29.7370   -4.7694 C   0  0  0  0  0  0  0  0  0  0  0  0
  -27.1272   27.9406   -4.1397 H   0  0  0  0  0  0  0  0  0  0  0  0
  -28.8281   27.8431   -4.2094 H   0  0  0  0  0  0  0  0  0  0  0  0
  1  6  2  0  0  0
 33 11  1  0  0  0
 33 34  1  0  0  0
 39 12  1  0  0  0
 39 42  1  0  0  0
 40 42  2  0  0  0
  2 16  1  0  0  0
 35 17  1  0  0  0
 35 36  1  0  0  0
 37 22  1  0  0  0
 37 38  1  0  0  0
  3 23  2  0  0  0
  4 26  2  0  0  0
  5  6  1  0  0  0
  5 25  1  0  0  0
 41 42  1  0  0  0
  6  7  1  0  0  0
  7  8  2  0  0  0
  7 27  1  0  0  0
  8  9  1  0  0  0
  9 10  2  0  0  0
 10 11  1  0  0  0
 11 12  1  0  0  0
 12 13  1  0  0  0
 13 14  2  0  0  0
 13 28  1  0  0  0
 14 15  1  0  0  0
 15 16  1  0  0  0
 15 29  1  0  0  0
 16 17  1  0  0  0
 17 18  1  0  0  0
 18 19  1  0  0  0
 19 20  1  0  0  0
 19 30  1  0  0  0
 20 21  1  0  0  0
 21 22  2  0  0  0
 21 26  1  0  0  0
 22 23  1  0  0  0
 23 24  1  0  0  0
 24 25  2  0  0  0
 25 26  1  0  0  0
  2 31  1  0  0  0
  5 32  1  0  0  0
 41 43  1  0  0  0
 41 44  1  0  0  0
M  END
> <minimizedAffinity>
-5.82546

$$$$
2WEQ_GDM_A_1215


 44 45  0  0  0  0  0  0  0  0999 V2000
  -19.7839   32.6103   -1.6155 O   0  0  0  0  0  0  0  0  0  0  0  0
  -26.3430   38.1057   -7.6433 O   0  0  0  0  0  0  0  0  0  0  0  0
  -26.0336   35.6216   -1.6662 O   0  0  0  0  0  0  0  0  0  0  0  0
  -20.4512   36.2976   -3.2199 O   0  0  0  0  0  0  0  0  0  0  0  0
  -21.0909   34.2212   -1.5130 N   0  0  0  0  0  0  0  0  0  0  0  0
  -19.9458   33.6588   -2.1693 C   0  0  0  0  0  0  0  0  0  0  0  0
  -19.7715   33.5962   -3.7139 C   0  0  0  0  0  0  0  0  0  0  0  0
  -21.2183   33.1787   -3.9968 C   0  0  0  0  0  0  0  0  0  0  0  0
  -21.6857   32.9767   -5.3945 C   0  0  0  0  0  0  0  0  0  0  0  0
  -22.8931   32.3547   -6.0204 C   0  0  0  0  0  0  0  0  0  0  0  0
  -24.1167   31.5907   -5.5943 C   0  0  0  0  0  0  0  0  0  0  0  0
  -25.4029   32.3058   -6.0604 C   0  0  0  0  0  0  0  0  0  0  0  0
  -25.6131   33.7758   -5.6837 C   0  0  0  0  0  0  0  0  0  0  0  0
  -25.8842   34.5001   -7.0010 C   0  0  0  0  0  0  0  0  0  0  0  0
  -26.5535   35.8784   -6.9779 C   0  0  0  0  0  0  0  0  0  0  0  0
  -25.7808   36.8397   -7.9006 C   0  0  0  0  0  0  0  0  0  0  0  0
  -24.2423   36.8991   -7.6290 C   0  0  0  0  0  0  0  0  0  0  0  0
  -23.9415   37.6747   -6.3181 C   0  0  0  0  0  0  0  0  0  0  0  0
  -22.4691   37.8706   -5.9056 C   0  0  0  0  0  0  0  0  0  0  0  0
  -22.3379   38.2416   -4.4171 C   0  0  0  0  0  0  0  0  0  0  0  0
  -22.8070   37.1369   -3.4427 C   0  0  0  0  0  0  0  0  0  0  0  0
  -24.2793   36.9275   -2.9951 C   0  0  0  0  0  0  0  0  0  0  0  0
  -24.6974   35.7909   -2.0467 C   0  0  0  0  0  0  0  0  0  0  0  0
  -23.6448   34.8106   -1.5039 C   0  0  0  0  0  0  0  0  0  0  0  0
  -22.1942   35.0575   -1.8964 C   0  0  0  0  0  0  0  0  0  0  0  0
  -21.7905   36.1709   -2.8657 C   0  0  0  0  0  0  0  0  0  0  0  0
  -18.7540   32.5805   -4.2754 C   0  0  0  0  0  0  0  0  0  0  0  0
  -26.5859   34.0723   -4.5166 C   0  0  0  0  0  0  0  0  0  0  0  0
  -27.9963   35.7624   -7.5627 C   0  0  0  0  0  0  0  0  0  0  0  0
  -21.6500   36.6083   -6.2259 C   0  0  0  0  0  0  0  0  0  0  0  0
  -27.2981   38.0753   -7.8101 H   0  0  0  0  0  0  0  0  0  0  0  0
  -21.1305   33.9715   -0.5616 H   0  0  0  0  0  0  0  0  0  0  0  0
  -24.0834   30.4128   -6.3722 O   0  0  0  0  0  0  0  0  0  0  0  0
  -24.3688   29.1645   -5.8262 C   0  0  0  0  0  0  0  0  0  0  0  0
  -23.7619   37.6896   -8.7010 O   0  0  0  0  0  0  0  0  0  0  0  0
  -22.6602   37.2890   -9.5102 C   0  0  0  0  0  0  0  0  0  0  0  0
  -25.2443   37.7858   -3.4706 O   0  0  0  0  0  0  0  0  0  0  0  0
  -26.4497   37.1758   -3.9158 C   0  0  0  0  0  0  0  0  0  0  0  0
  -26.4410   31.4892   -5.6576 O   0  0  0  0  0  0  0  0  0  0  0  0
  -28.3783   30.4776   -5.9800 O   0  0  0  0  0  0  0  0  0  0  0  0
  -27.0345   30.7782   -7.8406 N   0  0  0  0  0  0  0  0  0  0  0  0
  -27.4516   31.0368   -6.4781 C   0  0  0  0  0  0  0  0  0  0  0  0
  -26.2636   31.2595   -8.2192 H   0  0  0  0  0  0  0  0  0  0  0  0
  -27.5219   30.1211   -8.3882 H   0  0  0  0  0  0  0  0  0  0  0  0
  1  6  2  0  0  0
 33 11  1  0  0  0
 33 34  1  0  0  0
 39 12  1  0  0  0
 39 42  1  0  0  0
 40 42  2  0  0  0
  2 16  1  0  0  0
 35 17  1  0  0  0
 35 36  1  0  0  0
 37 22  1  0  0  0
 37 38  1  0  0  0
  3 23  2  0  0  0
  4 26  2  0  0  0
  5  6  1  0  0  0
  5 25  1  0  0  0
 41 42  1  0  0  0
  6  7  1  0  0  0
  7  8  2  0  0  0
  7 27  1  0  0  0
  8  9  1  0  0  0
  9 10  2  0  0  0
 10 11  1  0  0  0
 11 12  1  0  0  0
 12 13  1  0  0  0
 13 14  2  0  0  0
 13 28  1  0  0  0
 14 15  1  0  0  0
 15 16  1  0  0  0
 15 29  1  0  0  0
 16 17  1  0  0  0
 17 18  1  0  0  0
 18 19  1  0  0  0
 19 20  1  0  0  0
 19 30  1  0  0  0
 20 21  1  0  0  0
 21 22  2  0  0  0
 21 26  1  0  0  0
 22 23  1  0  0  0
 23 24  1  0  0  0
 24 25  2  0  0  0
 25 26  1  0  0  0
  2 31  1  0  0  0
  5 32  1  0  0  0
 41 43  1  0  0  0
 41 44  1  0  0  0
M  END
> <minimizedAffinity>
-5.14518

$$$$
2WEQ_GDM_A_1215


 44 45  0  0  0  0  0  0  0  0999 V2000
  -24.3510   32.8311   -4.3441 O   0  0  0  0  0  0  0  0  0  0  0  0
  -29.1531   40.5452   -9.5391 O   0  0  0  0  0  0  0  0  0  0  0  0
  -27.0637   34.4884  -10.5104 O   0  0  0  0  0  0  0  0  0  0  0  0
  -27.8965   34.8019   -4.7448 O   0  0  0  0  0  0  0  0  0  0  0  0
  -25.9036   33.1375   -5.6892 N   0  0  0  0  0  0  0  0  0  0  0  0
  -25.3543   33.4801   -4.4090 C   0  0  0  0  0  0  0  0  0  0  0  0
  -25.2036   34.9385   -3.8887 C   0  0  0  0  0  0  0  0  0  0  0  0
  -24.7034   35.5065   -5.2210 C   0  0  0  0  0  0  0  0  0  0  0  0
  -24.3932   36.9553   -5.3545 C   0  0  0  0  0  0  0  0  0  0  0  0
  -23.6788   37.7889   -6.3699 C   0  0  0  0  0  0  0  0  0  0  0  0
  -22.8875   37.5932   -7.6341 C   0  0  0  0  0  0  0  0  0  0  0  0
  -23.5125   38.3841   -8.8033 C   0  0  0  0  0  0  0  0  0  0  0  0
  -24.9920   38.1693   -9.1379 C   0  0  0  0  0  0  0  0  0  0  0  0
  -25.6194   39.5619   -9.1268 C   0  0  0  0  0  0  0  0  0  0  0  0
  -26.9644   39.7868   -9.8260 C   0  0  0  0  0  0  0  0  0  0  0  0
  -27.9006   40.5799   -8.8948 C   0  0  0  0  0  0  0  0  0  0  0  0
  -28.0472   39.9769   -7.4598 C   0  0  0  0  0  0  0  0  0  0  0  0
  -28.9162   38.6905   -7.4865 C   0  0  0  0  0  0  0  0  0  0  0  0
  -29.2047   37.9750   -6.1519 C   0  0  0  0  0  0  0  0  0  0  0  0
  -29.6735   36.5250   -6.3713 C   0  0  0  0  0  0  0  0  0  0  0  0
  -28.6115   35.6037   -7.0142 C   0  0  0  0  0  0  0  0  0  0  0  0
  -28.3631   35.4820   -8.5423 C   0  0  0  0  0  0  0  0  0  0  0  0
  -27.2701   34.5725   -9.1286 C   0  0  0  0  0  0  0  0  0  0  0  0
  -26.3747   33.7402   -8.1961 C   0  0  0  0  0  0  0  0  0  0  0  0
  -26.6629   33.8158   -6.7026 C   0  0  0  0  0  0  0  0  0  0  0  0
  -27.7310   34.7473   -6.1249 C   0  0  0  0  0  0  0  0  0  0  0  0
  -24.2025   35.1852   -2.7402 C   0  0  0  0  0  0  0  0  0  0  0  0
  -25.3158   37.2727  -10.3576 C   0  0  0  0  0  0  0  0  0  0  0  0
  -26.7461   40.6689  -11.0954 C   0  0  0  0  0  0  0  0  0  0  0  0
  -27.9637   38.0139   -5.2433 C   0  0  0  0  0  0  0  0  0  0  0  0
  -29.0686   40.9182  -10.4305 H   0  0  0  0  0  0  0  0  0  0  0  0
  -25.7122   32.2035   -5.9348 H   0  0  0  0  0  0  0  0  0  0  0  0
  -21.6662   38.2583   -7.3901 O   0  0  0  0  0  0  0  0  0  0  0  0
  -21.6180   39.4909   -6.7450 C   0  0  0  0  0  0  0  0  0  0  0  0
  -28.7905   40.9682   -6.7744 O   0  0  0  0  0  0  0  0  0  0  0  0
  -28.3319   42.3104   -6.6428 C   0  0  0  0  0  0  0  0  0  0  0  0
  -29.1449   36.2207   -9.4010 O   0  0  0  0  0  0  0  0  0  0  0  0
  -30.3296   35.5829   -9.8625 C   0  0  0  0  0  0  0  0  0  0  0  0
  -22.6759   38.1659   -9.8799 O   0  0  0  0  0  0  0  0  0  0  0  0
  -22.5314   39.5306  -11.6112 O   0  0  0  0  0  0  0  0  0  0  0  0
  -20.6096   39.2268  -10.3574 N   0  0  0  0  0  0  0  0  0  0  0  0
  -22.0365   39.1560  -10.5942 C   0  0  0  0  0  0  0  0  0  0  0  0
  -20.2357   38.9077   -9.5044 H   0  0  0  0  0  0  0  0  0  0  0  0
  -20.0134   39.5941  -11.0494 H   0  0  0  0  0  0  0  0  0  0  0  0
  1  6  2  0  0  0
 33 11  1  0  0  0
 33 34  1  0  0  0
 39 12  1  0  0  0
 39 42  1  0  0  0
 40 42  2  0  0  0
  2 16  1  0  0  0
 35 17  1  0  0  0
 35 36  1  0  0  0
 37 22  1  0  0  0
 37 38  1  0  0  0
  3 23  2  0  0  0
  4 26  2  0  0  0
  5  6  1  0  0  0
  5 25  1  0  0  0
 41 42  1  0  0  0
  6  7  1  0  0  0
  7  8  2  0  0  0
  7 27  1  0  0  0
  8  9  1  0  0  0
  9 10  2  0  0  0
 10 11  1  0  0  0
 11 12  1  0  0  0
 12 13  1  0  0  0
 13 14  2  0  0  0
 13 28  1  0  0  0
 14 15  1  0  0  0
 15 16  1  0  0  0
 15 29  1  0  0  0
 16 17  1  0  0  0
 17 18  1  0  0  0
 18 19  1  0  0  0
 19 20  1  0  0  0
 19 30  1  0  0  0
 20 21  1  0  0  0
 21 22  2  0  0  0
 21 26  1  0  0  0
 22 23  1  0  0  0
 23 24  1  0  0  0
 24 25  2  0  0  0
 25 26  1  0  0  0
  2 31  1  0  0  0
  5 32  1  0  0  0
 41 43  1  0  0  0
 41 44  1  0  0  0
M  END
> <minimizedAffinity>
-5.04215

$$$$
2WEQ_GDM_A_1215


 44 45  0  0  0  0  0  0  0  0999 V2000
  -25.7806   28.8283   -8.2795 O   0  0  0  0  0  0  0  0  0  0  0  0
  -25.2764   38.0204   -3.2988 O   0  0  0  0  0  0  0  0  0  0  0  0
  -26.3365   35.6755   -9.2462 O   0  0  0  0  0  0  0  0  0  0  0  0
  -27.7773   31.2728   -5.7002 O   0  0  0  0  0  0  0  0  0  0  0  0
  -26.7511   30.6625   -8.1918 N   0  0  0  0  0  0  0  0  0  0  0  0
  -26.3079   29.5151   -7.4534 C   0  0  0  0  0  0  0  0  0  0  0  0
  -25.5372   29.5929   -6.1043 C   0  0  0  0  0  0  0  0  0  0  0  0
  -24.6242   30.7451   -6.5362 C   0  0  0  0  0  0  0  0  0  0  0  0
  -23.6217   31.3079   -5.5920 C   0  0  0  0  0  0  0  0  0  0  0  0
  -22.4426   32.2174   -5.7287 C   0  0  0  0  0  0  0  0  0  0  0  0
  -21.6688   32.9037   -6.8210 C   0  0  0  0  0  0  0  0  0  0  0  0
  -21.6330   34.4304   -6.5952 C   0  0  0  0  0  0  0  0  0  0  0  0
  -22.9536   35.1847   -6.4108 C   0  0  0  0  0  0  0  0  0  0  0  0
  -22.8031   35.9574   -5.1018 C   0  0  0  0  0  0  0  0  0  0  0  0
  -23.7353   37.1392   -4.8143 C   0  0  0  0  0  0  0  0  0  0  0  0
  -24.2865   37.0211   -3.3808 C   0  0  0  0  0  0  0  0  0  0  0  0
  -24.9301   35.6357   -3.0481 C   0  0  0  0  0  0  0  0  0  0  0  0
  -26.3058   35.4817   -3.7513 C   0  0  0  0  0  0  0  0  0  0  0  0
  -27.1110   34.1899   -3.5078 C   0  0  0  0  0  0  0  0  0  0  0  0
  -28.1958   33.9827   -4.5805 C   0  0  0  0  0  0  0  0  0  0  0  0
  -27.6445   33.7612   -6.0078 C   0  0  0  0  0  0  0  0  0  0  0  0
  -27.2582   34.9026   -6.9874 C   0  0  0  0  0  0  0  0  0  0  0  0
  -26.6832   34.6264   -8.3870 C   0  0  0  0  0  0  0  0  0  0  0  0
  -26.4719   33.1803   -8.8644 C   0  0  0  0  0  0  0  0  0  0  0  0
  -26.9098   32.0650   -7.9244 C   0  0  0  0  0  0  0  0  0  0  0  0
  -27.4512   32.3475   -6.5211 C   0  0  0  0  0  0  0  0  0  0  0  0
  -24.7348   28.3482   -5.6695 C   0  0  0  0  0  0  0  0  0  0  0  0
  -23.4873   35.9793   -7.6275 C   0  0  0  0  0  0  0  0  0  0  0  0
  -22.9177   38.4680   -4.8695 C   0  0  0  0  0  0  0  0  0  0  0  0
  -26.1694   32.9748   -3.4446 C   0  0  0  0  0  0  0  0  0  0  0  0
  -24.8830   38.8829   -3.5043 H   0  0  0  0  0  0  0  0  0  0  0  0
  -27.0118   30.4306   -9.1124 H   0  0  0  0  0  0  0  0  0  0  0  0
  -20.3324   32.4991   -6.6116 O   0  0  0  0  0  0  0  0  0  0  0  0
  -19.6357   32.8381   -5.4551 C   0  0  0  0  0  0  0  0  0  0  0  0
  -25.1806   35.7289   -1.6575 O   0  0  0  0  0  0  0  0  0  0  0  0
  -24.1351   35.6979   -0.6906 C   0  0  0  0  0  0  0  0  0  0  0  0
  -27.4300   36.2073   -6.5845 O   0  0  0  0  0  0  0  0  0  0  0  0
  -28.6957   36.7847   -6.8807 C   0  0  0  0  0  0  0  0  0  0  0  0
  -20.8603   34.9333   -7.6231 O   0  0  0  0  0  0  0  0  0  0  0  0
  -20.2758   37.0565   -7.7984 O   0  0  0  0  0  0  0  0  0  0  0  0
  -18.5635   35.5187   -7.5519 N   0  0  0  0  0  0  0  0  0  0  0  0
  -19.9435   35.9540   -7.4929 C   0  0  0  0  0  0  0  0  0  0  0  0
  -18.3257   34.5996   -7.2915 H   0  0  0  0  0  0  0  0  0  0  0  0
  -17.8632   36.1421   -7.8523 H   0  0  0  0  0  0  0  0  0  0  0  0
  1  6  2  0  0  0
 33 11  1  0  0  0
 33 34  1  0  0  0
 39 12  1  0  0  0
 39 42  1  0  0  0
 40 42  2  0  0  0
  2 16  1  0  0  0
 35 17  1  0  0  0
 35 36  1  0  0  0
 37 22  1  0  0  0
 37 38  1  0  0  0
  3 23  2  0  0  0
  4 26  2  0  0  0
  5  6  1  0  0  0
  5 25  1  0  0  0
 41 42  1  0  0  0
  6  7  1  0  0  0
  7  8  2  0  0  0
  7 27  1  0  0  0
  8  9  1  0  0  0
  9 10  2  0  0  0
 10 11  1  0  0  0
 11 12  1  0  0  0
 12 13  1  0  0  0
 13 14  2  0  0  0
 13 28  1  0  0  0
 14 15  1  0  0  0
 15 16  1  0  0  0
 15 29  1  0  0  0
 16 17  1  0  0  0
 17 18  1  0  0  0
 18 19  1  0  0  0
 19 20  1  0  0  0
 19 30  1  0  0  0
 20 21  1  0  0  0
 21 22  2  0  0  0
 21 26  1  0  0  0
 22 23  1  0  0  0
 23 24  1  0  0  0
 24 25  2  0  0  0
 25 26  1  0  0  0
  2 31  1  0  0  0
  5 32  1  0  0  0
 41 43  1  0  0  0
 41 44  1  0  0  0
M  END
> <minimizedAffinity>
-4.33258

$$$$
