2WEQ_GDM_A_1215
  RCSB PDB12061707143D
Coordinates from PDB:2WEQ:A:1215 Model:1 without hydrogens
 40 41  0  0  0  0            999 V2000
  -25.5060   33.2390    0.0270   O 0  0  0  0  0  0  0  0  0  0  0  0
  -19.2120   34.4760   -2.1630   O 0  0  0  0  0  0  0  0  0  0  0  0
  -19.0150   33.0210   -4.4150   O 0  0  0  0  0  0  0  0  0  0  0  0
  -17.3920   33.9760   -5.5700   O 0  0  0  0  0  0  0  0  0  0  0  0
  -22.3070   36.5100   -9.3870   O 0  0  0  0  0  0  0  0  0  0  0  0
  -22.8710   38.5380   -7.5100   O 0  0  0  0  0  0  0  0  0  0  0  0
  -24.9200   33.5050   -7.6950   O 0  0  0  0  0  0  0  0  0  0  0  0
  -24.0490   31.0360   -6.3880   O 0  0  0  0  0  0  0  0  0  0  0  0
  -26.6840   35.2420   -3.3220   O 0  0  0  0  0  0  0  0  0  0  0  0
  -25.8990   32.9510   -1.9920   N 0  0  0  0  0  0  0  0  0  0  0  0
  -16.9780   31.8530   -4.7460   N 0  0  0  0  0  0  0  0  0  0  0  0
  -25.8040   33.9030   -0.9230   C 0  0  0  0  0  0  0  0  0  0  0  0
  -25.0340   35.2510   -1.0240   C 0  0  0  0  0  0  0  0  0  0  0  0
  -23.8280   34.6630   -1.7640   C 0  0  0  0  0  0  0  0  0  0  0  0
  -22.6980   35.5370   -2.1790   C 0  0  0  0  0  0  0  0  0  0  0  0
  -21.3060   35.2950   -2.6690   C 0  0  0  0  0  0  0  0  0  0  0  0
  -20.3740   34.1350   -2.8890   C 0  0  0  0  0  0  0  0  0  0  0  0
  -19.8930   34.0850   -4.3550   C 0  0  0  0  0  0  0  0  0  0  0  0
  -20.9350   34.0690   -5.4780   C 0  0  0  0  0  0  0  0  0  0  0  0
  -20.5560   35.2240   -6.4030   C 0  0  0  0  0  0  0  0  0  0  0  0
  -21.1010   35.2510   -7.8350   C 0  0  0  0  0  0  0  0  0  0  0  0
  -21.6520   36.6550   -8.1480   C 0  0  0  0  0  0  0  0  0  0  0  0
  -22.6690   37.2000   -7.0930   C 0  0  0  0  0  0  0  0  0  0  0  0
  -24.0350   36.4720   -7.2140   C 0  0  0  0  0  0  0  0  0  0  0  0
  -25.1800   36.9050   -6.2770   C 0  0  0  0  0  0  0  0  0  0  0  0
  -26.2860   35.8370   -6.1960   C 0  0  0  0  0  0  0  0  0  0  0  0
  -25.8340   34.5000   -5.5650   C 0  0  0  0  0  0  0  0  0  0  0  0
  -25.1390   33.3510   -6.3450   C 0  0  0  0  0  0  0  0  0  0  0  0
  -24.6800   32.0520   -5.6610   C 0  0  0  0  0  0  0  0  0  0  0  0
  -24.9030   31.8520   -4.1530   C 0  0  0  0  0  0  0  0  0  0  0  0
  -25.6400   32.9550   -3.4050   C 0  0  0  0  0  0  0  0  0  0  0  0
  -26.0650   34.2580   -4.0860   C 0  0  0  0  0  0  0  0  0  0  0  0
  -24.6260   35.9390    0.2960   C 0  0  0  0  0  0  0  0  0  0  0  0
  -19.2400   34.6780   -0.7860   C 0  0  0  0  0  0  0  0  0  0  0  0
  -17.6990   33.1070   -4.8150   C 0  0  0  0  0  0  0  0  0  0  0  0
  -21.2230   32.7060   -6.1530   C 0  0  0  0  0  0  0  0  0  0  0  0
  -19.9320   34.9970   -8.8380   C 0  0  0  0  0  0  0  0  0  0  0  0
  -21.9810   39.5910   -7.1520   C 0  0  0  0  0  0  0  0  0  0  0  0
  -24.6330   37.2290   -4.8760   C 0  0  0  0  0  0  0  0  0  0  0  0
  -26.0860   33.6000   -8.5040   C 0  0  0  0  0  0  0  0  0  0  0  0
  1 12  2  0  0  0  0
  2 17  1  0  0  0  0
  2 34  1  0  0  0  0
  3 18  1  0  0  0  0
  3 35  1  0  0  0  0
  4 35  2  0  0  0  0
  5 22  1  0  0  0  0
  6 23  1  0  0  0  0
  6 38  1  0  0  0  0
  7 28  1  0  0  0  0
  7 40  1  0  0  0  0
  8 29  2  0  0  0  0
  9 32  2  0  0  0  0
 10 12  1  0  0  0  0
 10 31  1  0  0  0  0
 11 35  1  0  0  0  0
 12 13  1  0  0  0  0
 13 14  2  0  0  0  0
 13 33  1  0  0  0  0
 14 15  1  0  0  0  0
 15 16  2  0  0  0  0
 16 17  1  0  0  0  0
 17 18  1  0  0  0  0
 18 19  1  0  0  0  0
 19 20  2  0  0  0  0
 19 36  1  0  0  0  0
 20 21  1  0  0  0  0
 21 22  1  0  0  0  0
 21 37  1  0  0  0  0
 22 23  1  0  0  0  0
 23 24  1  0  0  0  0
 24 25  1  0  0  0  0
 25 26  1  0  0  0  0
 25 39  1  0  0  0  0
 26 27  1  0  0  0  0
 27 28  2  0  0  0  0
 27 32  1  0  0  0  0
 28 29  1  0  0  0  0
 29 30  1  0  0  0  0
 30 31  2  0  0  0  0
 31 32  1  0  0  0  0
A    1
O1
A    2
O2
A    3
O3
A    4
O4
A    5
O5
A    6
O6
A    7
O7
A    8
O8
A    9
O9
A   10
N1
A   11
N2
A   12
C1
A   13
C2
A   14
C3
A   15
C4
A   16
C5
A   17
C6
A   18
C7
A   19
C8
A   20
C9
A   21
C10
A   22
C11
A   23
C12
A   24
C13
A   25
C14
A   26
C15
A   27
C16
A   28
C17
A   29
C18
A   30
C19
A   31
C20
A   32
C21
A   33
C22
A   34
C23
A   35
C24
A   36
C25
A   37
C26
A   38
C27
A   39
C28
A   40
C29
M  END
>  <InstanceId>
2WEQ_GDM_A_1215

>  <ChemCompId>
GDM

>  <PdbId>
2WEQ

>  <ChainId>
A

>  <ResidueNumber>
1215

>  <InsertionCode>


>  <Model>
1

>  <AltIds>


>  <MissingHeavyAtoms>
0

>  <ObservedFormula>
C29 N2 O9

>  <Name>
GELDANAMYCIN

>  <SystematicName>
[(3R,5S,6R,7S,8E,10S,11S,12Z,14E)-6-hydroxy-5,11,21-trimethoxy-3,7,9,15-tetramethyl-16,20,22-trioxo-17-azabicyclo[16.3.1]docosa-1(21),8,12,14,18-pentaen-10-yl] carbamate

>  <Synonyms>


>  <Type>
NON-POLYMER

>  <Formula>
C29 H40 N2 O9

>  <MolecularWeight>
560.636

>  <ModifiedDate>
2011-06-04

>  <Parent>


>  <OneLetterCode>


>  <SubcomponentList>


>  <AmbiguousFlag>
N

>  <InChI>
InChI=1S/C29H40N2O9/c1-15-11-19-25(34)20(14-21(32)27(19)39-7)31-28(35)16(2)9-8-10-22(37-5)26(40-29(30)36)18(4)13-17(3)24(33)23(12-15)38-6/h8-10,13-15,17,22-24,26,33H,11-12H2,1-7H3,(H2,30,36)(H,31,35)/b10-8-,16-9+,18-13+/t15-,17+,22+,23+,24-,26+/m1/s1

>  <InChIKey>
QTQAWLPCGQOSGP-KSRBKZBZSA-N

>  <SMILES>
C[C@H]1C[C@@H]([C@@H]([C@H](\C=C(\[C@@H]([C@H](\C=C/C=C(/C(=O)NC2=CC(=O)C(=C(C1)C2=O)OC)\C)OC)OC(=O)N)/C)C)O)OC

$$$$
