5TXY_7Q1_A_303


 14 15  0  0  0  0  0  0  0  0999 V2000
   16.2143    2.7167   15.2223 C   0  0  0  0  0  0  0  0  0  0  0  0
   16.7896    1.7678   16.2081 C   0  0  0  0  0  0  0  0  0  0  0  0
   17.9827    1.4910   16.3311 O   0  0  0  0  0  0  0  0  0  0  0  0
   15.8091    1.2428   17.0462 N   0  0  0  0  0  0  0  0  0  0  0  0
   14.6148    1.8047   16.5646 C   0  0  0  0  0  0  0  0  0  0  0  0
   13.5000    1.6345   17.0319 O   0  0  0  0  0  0  0  0  0  0  0  0
   14.8347    2.7442   15.5344 O   0  0  0  0  0  0  0  0  0  0  0  0
   15.9258    0.6219   17.8012 H   0  0  0  0  0  0  0  0  0  0  0  0
   16.9046    1.3024   11.1884 C   0  0  0  0  0  0  0  0  0  0  0  0
   16.5703    2.6042   11.4437 C   0  0  0  0  0  0  0  0  0  0  0  0
   16.3103    3.0530   12.7304 C   0  0  0  0  0  0  0  0  0  0  0  0
   16.4496    2.1890   13.8226 C   0  0  0  0  0  0  0  0  0  0  0  0
   16.8299    0.8621   13.5835 C   0  0  0  0  0  0  0  0  0  0  0  0
   17.0786    0.4694   12.2628 C   0  0  0  0  0  0  0  0  0  0  0  0
  3  2  2  0  0  0
 10  9  2  0  0  0
 10 11  1  0  0  0
  9 14  1  0  0  0
 11 12  2  0  0  0
 14 13  2  0  0  0
  2  4  1  0  0  0
  2  1  1  0  0  0
 12 13  1  0  0  0
 12  1  1  0  0  0
  4  5  1  0  0  0
  1  7  1  0  0  0
  5  7  1  0  0  0
  5  6  2  0  0  0
  4  8  1  0  0  0
M  END
> <minimizedAffinity>
-6.75384

$$$$
5TXY_7Q1_A_303


 14 15  0  0  0  0  0  0  0  0999 V2000
   17.2935    2.1259   12.4178 C   0  0  0  0  0  0  0  0  0  0  0  0
   16.2431    1.9836   11.3789 C   0  0  0  0  0  0  0  0  0  0  0  0
   15.4315    2.8490   11.0506 O   0  0  0  0  0  0  0  0  0  0  0  0
   16.3065    0.7410   10.7531 N   0  0  0  0  0  0  0  0  0  0  0  0
   17.3471    0.0764   11.4235 C   0  0  0  0  0  0  0  0  0  0  0  0
   17.7641   -1.0434   11.1738 O   0  0  0  0  0  0  0  0  0  0  0  0
   18.0023    0.9028   12.3615 O   0  0  0  0  0  0  0  0  0  0  0  0
   15.7510    0.4060   10.0126 H   0  0  0  0  0  0  0  0  0  0  0  0
   15.4806    2.6050   16.3208 C   0  0  0  0  0  0  0  0  0  0  0  0
   16.1469    1.4610   15.9760 C   0  0  0  0  0  0  0  0  0  0  0  0
   16.6959    1.2873   14.7138 C   0  0  0  0  0  0  0  0  0  0  0  0
   16.6385    2.3186   13.7694 C   0  0  0  0  0  0  0  0  0  0  0  0
   15.9944    3.5126   14.1188 C   0  0  0  0  0  0  0  0  0  0  0  0
   15.4606    3.6273   15.4081 C   0  0  0  0  0  0  0  0  0  0  0  0
  3  2  2  0  0  0
 10  9  2  0  0  0
 10 11  1  0  0  0
  9 14  1  0  0  0
 11 12  2  0  0  0
 14 13  2  0  0  0
  2  4  1  0  0  0
  2  1  1  0  0  0
 12 13  1  0  0  0
 12  1  1  0  0  0
  4  5  1  0  0  0
  1  7  1  0  0  0
  5  7  1  0  0  0
  5  6  2  0  0  0
  4  8  1  0  0  0
M  END
> <minimizedAffinity>
-6.58282

$$$$
5TXY_7Q1_A_303


 14 15  0  0  0  0  0  0  0  0999 V2000
   17.0479    2.2327   13.9980 C   0  0  0  0  0  0  0  0  0  0  0  0
   17.6841    3.5367   13.6855 C   0  0  0  0  0  0  0  0  0  0  0  0
   18.4818    4.1403   14.4029 O   0  0  0  0  0  0  0  0  0  0  0  0
   17.3122    3.9993   12.4257 N   0  0  0  0  0  0  0  0  0  0  0  0
   16.4047    3.0315   11.9633 C   0  0  0  0  0  0  0  0  0  0  0  0
   15.8495    3.0270   10.8761 O   0  0  0  0  0  0  0  0  0  0  0  0
   16.2902    1.9325   12.8417 O   0  0  0  0  0  0  0  0  0  0  0  0
   17.6150    4.8153   11.9656 H   0  0  0  0  0  0  0  0  0  0  0  0
   14.5681    2.6254   17.5259 C   0  0  0  0  0  0  0  0  0  0  0  0
   15.5193    1.6474   17.4241 C   0  0  0  0  0  0  0  0  0  0  0  0
   16.2896    1.4933   16.2806 C   0  0  0  0  0  0  0  0  0  0  0  0
   16.1570    2.3881   15.2126 C   0  0  0  0  0  0  0  0  0  0  0  0
   15.2154    3.4201   15.3155 C   0  0  0  0  0  0  0  0  0  0  0  0
   14.4684    3.5234   16.4952 C   0  0  0  0  0  0  0  0  0  0  0  0
  3  2  2  0  0  0
 10  9  2  0  0  0
 10 11  1  0  0  0
  9 14  1  0  0  0
 11 12  2  0  0  0
 14 13  2  0  0  0
  2  4  1  0  0  0
  2  1  1  0  0  0
 12 13  1  0  0  0
 12  1  1  0  0  0
  4  5  1  0  0  0
  1  7  1  0  0  0
  5  7  1  0  0  0
  5  6  2  0  0  0
  4  8  1  0  0  0
M  END
> <minimizedAffinity>
-6.52982

$$$$
5TXY_7Q1_A_303


 14 15  0  0  0  0  0  0  0  0999 V2000
   16.5429    3.2806   14.2500 C   0  0  0  0  0  0  0  0  0  0  0  0
   17.6599    4.1637   14.6689 C   0  0  0  0  0  0  0  0  0  0  0  0
   18.6487    3.8183   15.3155 O   0  0  0  0  0  0  0  0  0  0  0  0
   17.4935    5.4614   14.1915 N   0  0  0  0  0  0  0  0  0  0  0  0
   16.2572    5.4218   13.5253 C   0  0  0  0  0  0  0  0  0  0  0  0
   15.7324    6.3475   12.9271 O   0  0  0  0  0  0  0  0  0  0  0  0
   15.7094    4.1219   13.4761 O   0  0  0  0  0  0  0  0  0  0  0  0
   18.1014    6.2286   14.2966 H   0  0  0  0  0  0  0  0  0  0  0  0
   14.3976    1.8893   17.7446 C   0  0  0  0  0  0  0  0  0  0  0  0
   14.1392    3.1104   17.1844 C   0  0  0  0  0  0  0  0  0  0  0  0
   14.8503    3.5769   16.0884 C   0  0  0  0  0  0  0  0  0  0  0  0
   15.8190    2.7713   15.4788 C   0  0  0  0  0  0  0  0  0  0  0  0
   16.0694    1.5016   16.0151 C   0  0  0  0  0  0  0  0  0  0  0  0
   15.3184    1.0875   17.1219 C   0  0  0  0  0  0  0  0  0  0  0  0
  3  2  2  0  0  0
 10  9  2  0  0  0
 10 11  1  0  0  0
  9 14  1  0  0  0
 11 12  2  0  0  0
 14 13  2  0  0  0
  2  4  1  0  0  0
  2  1  1  0  0  0
 12 13  1  0  0  0
 12  1  1  0  0  0
  4  5  1  0  0  0
  1  7  1  0  0  0
  5  7  1  0  0  0
  5  6  2  0  0  0
  4  8  1  0  0  0
M  END
> <minimizedAffinity>
-6.43474

$$$$
5TXY_7Q1_A_303


 14 15  0  0  0  0  0  0  0  0999 V2000
   17.0884    2.2223   13.9997 C   0  0  0  0  0  0  0  0  0  0  0  0
   17.6990    3.5307   13.6558 C   0  0  0  0  0  0  0  0  0  0  0  0
   18.5122    4.1497   14.3419 O   0  0  0  0  0  0  0  0  0  0  0  0
   17.2812    3.9779   12.4048 N   0  0  0  0  0  0  0  0  0  0  0  0
   16.3706    2.9958   11.9803 C   0  0  0  0  0  0  0  0  0  0  0  0
   15.7807    2.9755   10.9117 O   0  0  0  0  0  0  0  0  0  0  0  0
   16.2973    1.9034   12.8711 O   0  0  0  0  0  0  0  0  0  0  0  0
   17.5594    4.7932   11.9283 H   0  0  0  0  0  0  0  0  0  0  0  0
   14.5816    2.7204   17.4951 C   0  0  0  0  0  0  0  0  0  0  0  0
   14.4743    3.5499   16.4125 C   0  0  0  0  0  0  0  0  0  0  0  0
   15.3013    3.4185   15.3064 C   0  0  0  0  0  0  0  0  0  0  0  0
   16.2354    2.3783   15.2412 C   0  0  0  0  0  0  0  0  0  0  0  0
   16.3320    1.4951   16.3242 C   0  0  0  0  0  0  0  0  0  0  0  0
   15.4694    1.6795   17.4115 C   0  0  0  0  0  0  0  0  0  0  0  0
  3  2  2  0  0  0
 10  9  2  0  0  0
 10 11  1  0  0  0
  9 14  1  0  0  0
 11 12  2  0  0  0
 14 13  2  0  0  0
  2  4  1  0  0  0
  2  1  1  0  0  0
 12 13  1  0  0  0
 12  1  1  0  0  0
  4  5  1  0  0  0
  1  7  1  0  0  0
  5  7  1  0  0  0
  5  6  2  0  0  0
  4  8  1  0  0  0
M  END
> <minimizedAffinity>
-6.42468

$$$$
5TXY_7Q1_A_303


 14 15  0  0  0  0  0  0  0  0999 V2000
   17.2642    2.9941   12.5229 C   0  0  0  0  0  0  0  0  0  0  0  0
   16.4413    2.8228   11.2996 C   0  0  0  0  0  0  0  0  0  0  0  0
   16.0395    3.7276   10.5682 O   0  0  0  0  0  0  0  0  0  0  0  0
   16.2060    1.4779   11.0248 N   0  0  0  0  0  0  0  0  0  0  0  0
   16.8217    0.8011   12.0910 C   0  0  0  0  0  0  0  0  0  0  0  0
   16.8833   -0.4096   12.2349 O   0  0  0  0  0  0  0  0  0  0  0  0
   17.5249    1.6713   12.9515 O   0  0  0  0  0  0  0  0  0  0  0  0
   15.7207    1.0911   10.2605 H   0  0  0  0  0  0  0  0  0  0  0  0
   14.9888    5.1010   15.5450 C   0  0  0  0  0  0  0  0  0  0  0  0
   15.0243    3.7342   15.4982 C   0  0  0  0  0  0  0  0  0  0  0  0
   15.7202    3.0547   14.5089 C   0  0  0  0  0  0  0  0  0  0  0  0
   16.4682    3.7596   13.5590 C   0  0  0  0  0  0  0  0  0  0  0  0
   16.4755    5.1593   13.6157 C   0  0  0  0  0  0  0  0  0  0  0  0
   15.7538    5.7871   14.6381 C   0  0  0  0  0  0  0  0  0  0  0  0
  3  2  2  0  0  0
 10  9  2  0  0  0
 10 11  1  0  0  0
  9 14  1  0  0  0
 11 12  2  0  0  0
 14 13  2  0  0  0
  2  4  1  0  0  0
  2  1  1  0  0  0
 12 13  1  0  0  0
 12  1  1  0  0  0
  4  5  1  0  0  0
  1  7  1  0  0  0
  5  7  1  0  0  0
  5  6  2  0  0  0
  4  8  1  0  0  0
M  END
> <minimizedAffinity>
-6.40146

$$$$
5TXY_7Q1_A_303


 14 15  0  0  0  0  0  0  0  0999 V2000
   17.3358    2.6258   15.7834 C   0  0  0  0  0  0  0  0  0  0  0  0
   17.0155    1.4895   14.8839 C   0  0  0  0  0  0  0  0  0  0  0  0
   17.4117    1.3519   13.7266 O   0  0  0  0  0  0  0  0  0  0  0  0
   16.2337    0.5324   15.5261 N   0  0  0  0  0  0  0  0  0  0  0  0
   16.0092    1.0779   16.8013 C   0  0  0  0  0  0  0  0  0  0  0  0
   15.3877    0.5506   17.7101 O   0  0  0  0  0  0  0  0  0  0  0  0
   16.7171    2.2814   17.0082 O   0  0  0  0  0  0  0  0  0  0  0  0
   15.9128   -0.3272   15.1693 H   0  0  0  0  0  0  0  0  0  0  0  0
   15.5747    6.2529   14.2047 C   0  0  0  0  0  0  0  0  0  0  0  0
   14.8097    5.2800   14.7877 C   0  0  0  0  0  0  0  0  0  0  0  0
   15.3643    4.0993   15.2601 C   0  0  0  0  0  0  0  0  0  0  0  0
   16.7486    3.8989   15.2111 C   0  0  0  0  0  0  0  0  0  0  0  0
   17.5520    4.9018   14.6533 C   0  0  0  0  0  0  0  0  0  0  0  0
   16.9331    6.0708   14.1942 C   0  0  0  0  0  0  0  0  0  0  0  0
  3  2  2  0  0  0
 10  9  2  0  0  0
 10 11  1  0  0  0
  9 14  1  0  0  0
 11 12  2  0  0  0
 14 13  2  0  0  0
  2  4  1  0  0  0
  2  1  1  0  0  0
 12 13  1  0  0  0
 12  1  1  0  0  0
  4  5  1  0  0  0
  1  7  1  0  0  0
  5  7  1  0  0  0
  5  6  2  0  0  0
  4  8  1  0  0  0
M  END
> <minimizedAffinity>
-6.33269

$$$$
5TXY_7Q1_A_303


 14 15  0  0  0  0  0  0  0  0999 V2000
   17.1539    3.3956   12.6175 C   0  0  0  0  0  0  0  0  0  0  0  0
   16.5262    2.6002   11.5330 C   0  0  0  0  0  0  0  0  0  0  0  0
   15.3630    2.7033   11.1437 O   0  0  0  0  0  0  0  0  0  0  0  0
   17.4385    1.7289   10.9430 N   0  0  0  0  0  0  0  0  0  0  0  0
   18.6188    1.9237   11.6798 C   0  0  0  0  0  0  0  0  0  0  0  0
   19.6908    1.3753   11.4793 O   0  0  0  0  0  0  0  0  0  0  0  0
   18.5009    2.9635   12.6270 O   0  0  0  0  0  0  0  0  0  0  0  0
   17.2906    1.1180   10.1852 H   0  0  0  0  0  0  0  0  0  0  0  0
   15.1227    2.5686   16.3512 C   0  0  0  0  0  0  0  0  0  0  0  0
   14.9538    3.7550   15.6913 C   0  0  0  0  0  0  0  0  0  0  0  0
   15.6320    4.0401   14.5150 C   0  0  0  0  0  0  0  0  0  0  0  0
   16.4678    3.0816   13.9305 C   0  0  0  0  0  0  0  0  0  0  0  0
   16.6220    1.8458   14.5718 C   0  0  0  0  0  0  0  0  0  0  0  0
   15.9105    1.6180   15.7560 C   0  0  0  0  0  0  0  0  0  0  0  0
  3  2  2  0  0  0
 10  9  2  0  0  0
 10 11  1  0  0  0
  9 14  1  0  0  0
 11 12  2  0  0  0
 14 13  2  0  0  0
  2  4  1  0  0  0
  2  1  1  0  0  0
 12 13  1  0  0  0
 12  1  1  0  0  0
  4  5  1  0  0  0
  1  7  1  0  0  0
  5  7  1  0  0  0
  5  6  2  0  0  0
  4  8  1  0  0  0
M  END
> <minimizedAffinity>
-6.31855

$$$$
5TXY_7Q1_A_303


 14 15  0  0  0  0  0  0  0  0999 V2000
   14.9430    3.1019   15.6021 C   0  0  0  0  0  0  0  0  0  0  0  0
   14.4507    3.5822   16.9173 C   0  0  0  0  0  0  0  0  0  0  0  0
   13.9119    4.6678   17.1331 O   0  0  0  0  0  0  0  0  0  0  0  0
   14.6199    2.6202   17.9100 N   0  0  0  0  0  0  0  0  0  0  0  0
   15.2649    1.5611   17.2495 C   0  0  0  0  0  0  0  0  0  0  0  0
   15.5795    0.4901   17.7437 O   0  0  0  0  0  0  0  0  0  0  0  0
   15.3971    1.7877   15.8626 O   0  0  0  0  0  0  0  0  0  0  0  0
   14.3501    2.6706   18.8555 H   0  0  0  0  0  0  0  0  0  0  0  0
   18.1237    5.7267   14.2817 C   0  0  0  0  0  0  0  0  0  0  0  0
   16.8126    6.1159   14.2464 C   0  0  0  0  0  0  0  0  0  0  0  0
   15.7870    5.2648   14.6318 C   0  0  0  0  0  0  0  0  0  0  0  0
   16.0762    3.9916   15.1359 C   0  0  0  0  0  0  0  0  0  0  0  0
   17.4161    3.5908   15.2164 C   0  0  0  0  0  0  0  0  0  0  0  0
   18.4059    4.4950   14.8125 C   0  0  0  0  0  0  0  0  0  0  0  0
  3  2  2  0  0  0
 10  9  2  0  0  0
 10 11  1  0  0  0
  9 14  1  0  0  0
 11 12  2  0  0  0
 14 13  2  0  0  0
  2  4  1  0  0  0
  2  1  1  0  0  0
 12 13  1  0  0  0
 12  1  1  0  0  0
  4  5  1  0  0  0
  1  7  1  0  0  0
  5  7  1  0  0  0
  5  6  2  0  0  0
  4  8  1  0  0  0
M  END
> <minimizedAffinity>
-6.28962

$$$$
5TXY_7Q1_A_303


 14 15  0  0  0  0  0  0  0  0999 V2000
   16.1994    4.3407   14.6244 C   0  0  0  0  0  0  0  0  0  0  0  0
   16.4865    3.7114   13.3112 C   0  0  0  0  0  0  0  0  0  0  0  0
   15.6593    3.1828   12.5685 O   0  0  0  0  0  0  0  0  0  0  0  0
   17.8310    3.8318   12.9685 N   0  0  0  0  0  0  0  0  0  0  0  0
   18.4064    4.4786   14.0751 C   0  0  0  0  0  0  0  0  0  0  0  0
   19.5757    4.8111   14.1861 O   0  0  0  0  0  0  0  0  0  0  0  0
   17.4476    4.8632   15.0369 O   0  0  0  0  0  0  0  0  0  0  0  0
   18.2753    3.5329   12.1424 H   0  0  0  0  0  0  0  0  0  0  0  0
   14.6827    1.3594   17.3742 C   0  0  0  0  0  0  0  0  0  0  0  0
   14.0276    2.5425   17.1675 C   0  0  0  0  0  0  0  0  0  0  0  0
   14.5296    3.5169   16.3170 C   0  0  0  0  0  0  0  0  0  0  0  0
   15.7014    3.2841   15.5881 C   0  0  0  0  0  0  0  0  0  0  0  0
   16.3645    2.0618   15.7573 C   0  0  0  0  0  0  0  0  0  0  0  0
   15.8079    1.1186   16.6296 C   0  0  0  0  0  0  0  0  0  0  0  0
  3  2  2  0  0  0
 10  9  2  0  0  0
 10 11  1  0  0  0
  9 14  1  0  0  0
 11 12  2  0  0  0
 14 13  2  0  0  0
  2  4  1  0  0  0
  2  1  1  0  0  0
 12 13  1  0  0  0
 12  1  1  0  0  0
  4  5  1  0  0  0
  1  7  1  0  0  0
  5  7  1  0  0  0
  5  6  2  0  0  0
  4  8  1  0  0  0
M  END
> <minimizedAffinity>
-6.20358

$$$$
