6FNQ_AVJ_A_401


 16 16  0  0  0  0  0  0  0  0999 V2000
    8.3827   16.1311   15.5576 C   0  0  0  0  0  0  0  0  0  0  0  0
    7.9363   18.2586   16.6538 C   0  0  0  0  0  0  0  0  0  0  0  0
    9.8478   17.0374   17.2572 C   0  0  0  0  0  0  0  0  0  0  0  0
    9.7454   18.0693   15.1562 C   0  0  0  0  0  0  0  0  0  0  0  0
    8.9528   17.3658   16.1288 N   0  0  0  0  0  0  0  0  0  0  0  0
    6.8036   16.6851   13.8711 O   0  0  0  0  0  0  0  0  0  0  0  0
    5.9475   16.1044   15.7950 O   0  0  0  0  0  0  0  0  0  0  0  0
    6.9676   16.2879   15.0465 C   0  0  0  0  0  0  0  0  0  0  0  0
    6.0605   15.8071   16.6764 H   0  0  0  0  0  0  0  0  0  0  0  0
    8.4176   14.9550   16.5387 C   0  0  0  0  0  0  0  0  0  0  0  0
    9.2089   13.1703   14.7696 C   0  0  0  0  0  0  0  0  0  0  0  0
    7.7186   12.4734   16.2825 N   0  0  0  0  0  0  0  0  0  0  0  0
    8.9473   11.8247   14.5147 N   0  0  0  0  0  0  0  0  0  0  0  0
    8.4533   13.5646   15.8610 C   0  0  0  0  0  0  0  0  0  0  0  0
    8.0283   11.4120   15.4411 C   0  0  0  0  0  0  0  0  0  0  0  0
    7.0905   12.4518   17.0403 H   0  0  0  0  0  0  0  0  0  0  0  0
  2  5  1  0  0  0
  3  5  1  0  0  0
  4  5  1  0  0  0
  6  8  2  0  0  0
  7  8  1  0  0  0
 11 13  1  0  0  0
 11 14  2  0  0  0
 10 14  1  0  0  0
 10  1  1  0  0  0
 12 14  1  0  0  0
 12 15  1  0  0  0
 13 15  2  0  0  0
  8  1  1  0  0  0
  1  5  1  0  0  0
  7  9  1  0  0  0
 12 16  1  0  0  0
M  CHG 1   5   1
M  END
> <minimizedAffinity>
-6.01155

$$$$
6FNQ_AVJ_A_401


 16 16  0  0  0  0  0  0  0  0999 V2000
    8.4677   16.1931   15.4799 C   0  0  0  0  0  0  0  0  0  0  0  0
   10.0614   18.0318   15.4006 C   0  0  0  0  0  0  0  0  0  0  0  0
    7.8163   18.4826   15.9160 C   0  0  0  0  0  0  0  0  0  0  0  0
    9.1589   17.3522   17.4682 C   0  0  0  0  0  0  0  0  0  0  0  0
    8.8922   17.4808   16.0605 N   0  0  0  0  0  0  0  0  0  0  0  0
    6.1571   15.6400   15.4968 O   0  0  0  0  0  0  0  0  0  0  0  0
    6.8396   16.7391   13.7368 O   0  0  0  0  0  0  0  0  0  0  0  0
    7.0794   16.2186   14.8796 C   0  0  0  0  0  0  0  0  0  0  0  0
    7.5238   17.1743   13.2673 H   0  0  0  0  0  0  0  0  0  0  0  0
    8.5417   15.0388   16.4844 C   0  0  0  0  0  0  0  0  0  0  0  0
    9.3385   13.1506   14.8288 C   0  0  0  0  0  0  0  0  0  0  0  0
    7.6632   12.6170   16.2088 N   0  0  0  0  0  0  0  0  0  0  0  0
    8.9893   11.8249   14.5748 N   0  0  0  0  0  0  0  0  0  0  0  0
    8.5222   13.6332   15.8380 C   0  0  0  0  0  0  0  0  0  0  0  0
    7.9582   11.5127   15.4190 C   0  0  0  0  0  0  0  0  0  0  0  0
    6.9690   12.6663   16.9051 H   0  0  0  0  0  0  0  0  0  0  0  0
  2  5  1  0  0  0
  3  5  1  0  0  0
  4  5  1  0  0  0
  6  8  2  0  0  0
  7  8  1  0  0  0
 11 13  1  0  0  0
 11 14  2  0  0  0
 10 14  1  0  0  0
 10  1  1  0  0  0
 12 14  1  0  0  0
 12 15  1  0  0  0
 13 15  2  0  0  0
  8  1  1  0  0  0
  1  5  1  0  0  0
  7  9  1  0  0  0
 12 16  1  0  0  0
M  CHG 1   5   1
M  END
> <minimizedAffinity>
-5.74566

$$$$
6FNQ_AVJ_A_401


 16 16  0  0  0  0  0  0  0  0999 V2000
    8.6951   16.6026   15.6552 C   0  0  0  0  0  0  0  0  0  0  0  0
    6.3474   16.0983   15.2537 C   0  0  0  0  0  0  0  0  0  0  0  0
    6.9376   18.2036   16.1073 C   0  0  0  0  0  0  0  0  0  0  0  0
    7.4595   17.6634   13.8880 C   0  0  0  0  0  0  0  0  0  0  0  0
    7.3833   17.1139   15.2152 N   0  0  0  0  0  0  0  0  0  0  0  0
    8.5822   14.6741   17.0382 O   0  0  0  0  0  0  0  0  0  0  0  0
    8.9779   14.2842   14.9257 O   0  0  0  0  0  0  0  0  0  0  0  0
    8.7288   15.1060   15.8728 C   0  0  0  0  0  0  0  0  0  0  0  0
    9.0893   14.5984   14.0499 H   0  0  0  0  0  0  0  0  0  0  0  0
    9.2010   17.2902   16.9273 C   0  0  0  0  0  0  0  0  0  0  0  0
   11.4515   18.4795   17.6069 C   0  0  0  0  0  0  0  0  0  0  0  0
   10.7132   18.8655   15.5329 N   0  0  0  0  0  0  0  0  0  0  0  0
   12.3705   19.3218   16.9824 N   0  0  0  0  0  0  0  0  0  0  0  0
   10.4349   18.1980   16.7097 C   0  0  0  0  0  0  0  0  0  0  0  0
   11.9038   19.5574   15.7175 C   0  0  0  0  0  0  0  0  0  0  0  0
   10.1679   18.8533   14.7133 H   0  0  0  0  0  0  0  0  0  0  0  0
  2  5  1  0  0  0
  3  5  1  0  0  0
  4  5  1  0  0  0
  6  8  2  0  0  0
  7  8  1  0  0  0
 11 13  1  0  0  0
 11 14  2  0  0  0
 10 14  1  0  0  0
 10  1  1  0  0  0
 12 14  1  0  0  0
 12 15  1  0  0  0
 13 15  2  0  0  0
  8  1  1  0  0  0
  1  5  1  0  0  0
  7  9  1  0  0  0
 12 16  1  0  0  0
M  CHG 1   5   1
M  END
> <minimizedAffinity>
-5.07203

$$$$
6FNQ_AVJ_A_401


 16 16  0  0  0  0  0  0  0  0999 V2000
    7.9434   16.2704   15.9056 C   0  0  0  0  0  0  0  0  0  0  0  0
    7.4583   17.4333   13.8225 C   0  0  0  0  0  0  0  0  0  0  0  0
    6.2893   18.0315   15.7680 C   0  0  0  0  0  0  0  0  0  0  0  0
    8.5613   18.5680   15.5681 C   0  0  0  0  0  0  0  0  0  0  0  0
    7.5914   17.5505   15.2628 N   0  0  0  0  0  0  0  0  0  0  0  0
    7.8953   16.5528   18.2642 O   0  0  0  0  0  0  0  0  0  0  0  0
    9.8884   16.5049   17.3717 O   0  0  0  0  0  0  0  0  0  0  0  0
    8.6182   16.4243   17.2507 C   0  0  0  0  0  0  0  0  0  0  0  0
   10.4377   16.4099   16.6185 H   0  0  0  0  0  0  0  0  0  0  0  0
    8.8249   15.3861   15.0180 C   0  0  0  0  0  0  0  0  0  0  0  0
    9.3845   12.8255   14.7504 C   0  0  0  0  0  0  0  0  0  0  0  0
    7.5394   13.3212   15.9104 N   0  0  0  0  0  0  0  0  0  0  0  0
    8.8177   11.6242   15.1742 N   0  0  0  0  0  0  0  0  0  0  0  0
    8.5964   13.8678   15.2091 C   0  0  0  0  0  0  0  0  0  0  0  0
    7.6855   11.9399   15.8753 C   0  0  0  0  0  0  0  0  0  0  0  0
    6.8151   13.8191   16.3538 H   0  0  0  0  0  0  0  0  0  0  0  0
  2  5  1  0  0  0
  3  5  1  0  0  0
  4  5  1  0  0  0
  6  8  2  0  0  0
  7  8  1  0  0  0
 11 13  1  0  0  0
 11 14  2  0  0  0
 10 14  1  0  0  0
 10  1  1  0  0  0
 12 14  1  0  0  0
 12 15  1  0  0  0
 13 15  2  0  0  0
  8  1  1  0  0  0
  1  5  1  0  0  0
  7  9  1  0  0  0
 12 16  1  0  0  0
M  CHG 1   5   1
M  END
> <minimizedAffinity>
-4.90845

$$$$
6FNQ_AVJ_A_401


 16 16  0  0  0  0  0  0  0  0999 V2000
    8.5536   14.0114   15.5243 C   0  0  0  0  0  0  0  0  0  0  0  0
    7.6047   11.7935   15.8523 C   0  0  0  0  0  0  0  0  0  0  0  0
    8.9300   12.2044   13.9593 C   0  0  0  0  0  0  0  0  0  0  0  0
    9.9273   12.1189   16.0777 C   0  0  0  0  0  0  0  0  0  0  0  0
    8.7464   12.5560   15.3822 N   0  0  0  0  0  0  0  0  0  0  0  0
    8.3383   14.0119   17.8904 O   0  0  0  0  0  0  0  0  0  0  0  0
    9.6475   15.5577   17.0732 O   0  0  0  0  0  0  0  0  0  0  0  0
    8.8889   14.5434   16.9001 C   0  0  0  0  0  0  0  0  0  0  0  0
   10.0640   15.9623   16.3378 H   0  0  0  0  0  0  0  0  0  0  0  0
    7.1330   14.4573   15.1636 C   0  0  0  0  0  0  0  0  0  0  0  0
    6.4366   16.9543   15.6338 C   0  0  0  0  0  0  0  0  0  0  0  0
    7.4725   16.5627   13.6923 N   0  0  0  0  0  0  0  0  0  0  0  0
    6.5598   18.1734   14.9684 N   0  0  0  0  0  0  0  0  0  0  0  0
    7.0032   15.9661   14.8463 C   0  0  0  0  0  0  0  0  0  0  0  0
    7.1873   17.9198   13.7788 C   0  0  0  0  0  0  0  0  0  0  0  0
    7.9259   16.1094   12.9452 H   0  0  0  0  0  0  0  0  0  0  0  0
  2  5  1  0  0  0
  3  5  1  0  0  0
  4  5  1  0  0  0
  6  8  2  0  0  0
  7  8  1  0  0  0
 11 13  1  0  0  0
 11 14  2  0  0  0
 10 14  1  0  0  0
 10  1  1  0  0  0
 12 14  1  0  0  0
 12 15  1  0  0  0
 13 15  2  0  0  0
  8  1  1  0  0  0
  1  5  1  0  0  0
  7  9  1  0  0  0
 12 16  1  0  0  0
M  CHG 1   5   1
M  END
> <minimizedAffinity>
-4.59216

$$$$
6FNQ_AVJ_A_401


 16 16  0  0  0  0  0  0  0  0999 V2000
    8.0793   15.6213   16.1200 C   0  0  0  0  0  0  0  0  0  0  0  0
    9.4709   14.0261   14.9177 C   0  0  0  0  0  0  0  0  0  0  0  0
    8.9351   13.6136   17.1653 C   0  0  0  0  0  0  0  0  0  0  0  0
    7.2717   13.4377   15.5247 C   0  0  0  0  0  0  0  0  0  0  0  0
    8.4269   14.2033   15.9099 N   0  0  0  0  0  0  0  0  0  0  0  0
    7.2745   16.3472   14.0057 O   0  0  0  0  0  0  0  0  0  0  0  0
    5.8151   16.4088   15.6297 O   0  0  0  0  0  0  0  0  0  0  0  0
    6.9872   16.1276   15.2038 C   0  0  0  0  0  0  0  0  0  0  0  0
    5.5908   16.2479   16.5252 H   0  0  0  0  0  0  0  0  0  0  0  0
    9.2898   16.5516   15.9936 C   0  0  0  0  0  0  0  0  0  0  0  0
   10.7879   17.9804   17.6231 C   0  0  0  0  0  0  0  0  0  0  0  0
    8.6744   17.6374   18.2640 N   0  0  0  0  0  0  0  0  0  0  0  0
   10.6058   18.6331   18.8416 N   0  0  0  0  0  0  0  0  0  0  0  0
    9.5953   17.3720   17.2693 C   0  0  0  0  0  0  0  0  0  0  0  0
    9.3120   18.4091   19.2275 C   0  0  0  0  0  0  0  0  0  0  0  0
    7.7377   17.3351   18.2863 H   0  0  0  0  0  0  0  0  0  0  0  0
  2  5  1  0  0  0
  3  5  1  0  0  0
  4  5  1  0  0  0
  6  8  2  0  0  0
  7  8  1  0  0  0
 11 13  1  0  0  0
 11 14  2  0  0  0
 10 14  1  0  0  0
 10  1  1  0  0  0
 12 14  1  0  0  0
 12 15  1  0  0  0
 13 15  2  0  0  0
  8  1  1  0  0  0
  1  5  1  0  0  0
  7  9  1  0  0  0
 12 16  1  0  0  0
M  CHG 1   5   1
M  END
> <minimizedAffinity>
-4.56425

$$$$
6FNQ_AVJ_A_401


 16 16  0  0  0  0  0  0  0  0999 V2000
    8.2099   17.5893   15.0705 C   0  0  0  0  0  0  0  0  0  0  0  0
    6.4618   15.9414   15.4649 C   0  0  0  0  0  0  0  0  0  0  0  0
    8.7079   15.3169   15.7370 C   0  0  0  0  0  0  0  0  0  0  0  0
    7.7146   16.7766   17.2771 C   0  0  0  0  0  0  0  0  0  0  0  0
    7.7599   16.4407   15.8791 N   0  0  0  0  0  0  0  0  0  0  0  0
    7.7263   17.3832   12.7535 O   0  0  0  0  0  0  0  0  0  0  0  0
    6.3178   18.6018   13.8948 O   0  0  0  0  0  0  0  0  0  0  0  0
    7.3542   17.8545   13.8516 C   0  0  0  0  0  0  0  0  0  0  0  0
    6.0316   18.9591   14.7124 H   0  0  0  0  0  0  0  0  0  0  0  0
    9.6689   17.4605   14.6215 C   0  0  0  0  0  0  0  0  0  0  0  0
   10.8208   18.3339   16.8241 C   0  0  0  0  0  0  0  0  0  0  0  0
   11.5862   19.1804   14.9023 N   0  0  0  0  0  0  0  0  0  0  0  0
   11.8500   19.2216   17.1349 N   0  0  0  0  0  0  0  0  0  0  0  0
   10.6642   18.3087   15.4484 C   0  0  0  0  0  0  0  0  0  0  0  0
   12.3045   19.7391   15.9521 C   0  0  0  0  0  0  0  0  0  0  0  0
   11.7114   19.3708   13.9445 H   0  0  0  0  0  0  0  0  0  0  0  0
  2  5  1  0  0  0
  3  5  1  0  0  0
  4  5  1  0  0  0
  6  8  2  0  0  0
  7  8  1  0  0  0
 11 13  1  0  0  0
 11 14  2  0  0  0
 10 14  1  0  0  0
 10  1  1  0  0  0
 12 14  1  0  0  0
 12 15  1  0  0  0
 13 15  2  0  0  0
  8  1  1  0  0  0
  1  5  1  0  0  0
  7  9  1  0  0  0
 12 16  1  0  0  0
M  CHG 1   5   1
M  END
> <minimizedAffinity>
-4.51629

$$$$
6FNQ_AVJ_A_401


 16 16  0  0  0  0  0  0  0  0999 V2000
    8.1103   15.6487   16.1287 C   0  0  0  0  0  0  0  0  0  0  0  0
    7.2592   13.4506   15.5196 C   0  0  0  0  0  0  0  0  0  0  0  0
    9.4481   14.0408   14.9117 C   0  0  0  0  0  0  0  0  0  0  0  0
    8.9363   13.6432   17.1633 C   0  0  0  0  0  0  0  0  0  0  0  0
    8.4138   14.2162   15.9517 N   0  0  0  0  0  0  0  0  0  0  0  0
    5.9080   16.3938   15.6394 O   0  0  0  0  0  0  0  0  0  0  0  0
    7.2683   16.3211   13.9319 O   0  0  0  0  0  0  0  0  0  0  0  0
    7.0523   16.1732   15.1832 C   0  0  0  0  0  0  0  0  0  0  0  0
    8.1218   16.1582   13.5813 H   0  0  0  0  0  0  0  0  0  0  0  0
    9.3535   16.5357   16.0073 C   0  0  0  0  0  0  0  0  0  0  0  0
    8.8160   18.0180   18.1180 C   0  0  0  0  0  0  0  0  0  0  0  0
   10.9606   17.4666   17.8137 N   0  0  0  0  0  0  0  0  0  0  0  0
    9.5468   18.5720   19.1683 N   0  0  0  0  0  0  0  0  0  0  0  0
    9.6898   17.3351   17.2885 C   0  0  0  0  0  0  0  0  0  0  0  0
   10.8578   18.2351   18.9667 C   0  0  0  0  0  0  0  0  0  0  0  0
   11.7877   17.0856   17.4396 H   0  0  0  0  0  0  0  0  0  0  0  0
  2  5  1  0  0  0
  3  5  1  0  0  0
  4  5  1  0  0  0
  6  8  2  0  0  0
  7  8  1  0  0  0
 11 13  1  0  0  0
 11 14  2  0  0  0
 10 14  1  0  0  0
 10  1  1  0  0  0
 12 14  1  0  0  0
 12 15  1  0  0  0
 13 15  2  0  0  0
  8  1  1  0  0  0
  1  5  1  0  0  0
  7  9  1  0  0  0
 12 16  1  0  0  0
M  CHG 1   5   1
M  END
> <minimizedAffinity>
-4.38379

$$$$
6FNQ_AVJ_A_401


 16 16  0  0  0  0  0  0  0  0999 V2000
    9.9608   17.3386   16.2595 C   0  0  0  0  0  0  0  0  0  0  0  0
    7.8012   17.0119   17.3348 C   0  0  0  0  0  0  0  0  0  0  0  0
    7.9097   17.1261   14.9930 C   0  0  0  0  0  0  0  0  0  0  0  0
    8.7752   15.2541   16.1048 C   0  0  0  0  0  0  0  0  0  0  0  0
    8.6408   16.6833   16.1977 N   0  0  0  0  0  0  0  0  0  0  0  0
   11.1893   16.8756   18.2397 O   0  0  0  0  0  0  0  0  0  0  0  0
    9.9753   18.6906   18.2989 O   0  0  0  0  0  0  0  0  0  0  0  0
   10.4152   17.6723   17.6632 C   0  0  0  0  0  0  0  0  0  0  0  0
    9.3953   19.2925   17.8755 H   0  0  0  0  0  0  0  0  0  0  0  0
   10.0285   18.6124   15.4110 C   0  0  0  0  0  0  0  0  0  0  0  0
   12.4970   19.5316   15.3590 C   0  0  0  0  0  0  0  0  0  0  0  0
   11.7908   18.4821   13.5163 N   0  0  0  0  0  0  0  0  0  0  0  0
   13.5510   19.5275   14.4462 N   0  0  0  0  0  0  0  0  0  0  0  0
   11.4167   18.8836   14.7839 C   0  0  0  0  0  0  0  0  0  0  0  0
   13.1043   18.8903   13.3203 C   0  0  0  0  0  0  0  0  0  0  0  0
   11.2295   17.9957   12.8701 H   0  0  0  0  0  0  0  0  0  0  0  0
  2  5  1  0  0  0
  3  5  1  0  0  0
  4  5  1  0  0  0
  6  8  2  0  0  0
  7  8  1  0  0  0
 11 13  1  0  0  0
 11 14  2  0  0  0
 10 14  1  0  0  0
 10  1  1  0  0  0
 12 14  1  0  0  0
 12 15  1  0  0  0
 13 15  2  0  0  0
  8  1  1  0  0  0
  1  5  1  0  0  0
  7  9  1  0  0  0
 12 16  1  0  0  0
M  CHG 1   5   1
M  END
> <minimizedAffinity>
-4.25283

$$$$
6FNQ_AVJ_A_401


 16 16  0  0  0  0  0  0  0  0999 V2000
   12.2102   19.5171   19.1504 C   0  0  0  0  0  0  0  0  0  0  0  0
   12.4557   18.5113   21.3538 C   0  0  0  0  0  0  0  0  0  0  0  0
   13.8974   20.2524   20.7218 C   0  0  0  0  0  0  0  0  0  0  0  0
   11.6415   20.7133   21.1555 C   0  0  0  0  0  0  0  0  0  0  0  0
   12.5217   19.7344   20.5757 N   0  0  0  0  0  0  0  0  0  0  0  0
   11.5173   17.3441   18.4852 O   0  0  0  0  0  0  0  0  0  0  0  0
    9.9039   18.7068   19.0432 O   0  0  0  0  0  0  0  0  0  0  0  0
   11.1518   18.4642   18.9072 C   0  0  0  0  0  0  0  0  0  0  0  0
    9.6208   19.5425   19.3585 H   0  0  0  0  0  0  0  0  0  0  0  0
   13.4490   19.1613   18.3223 C   0  0  0  0  0  0  0  0  0  0  0  0
   13.5784   19.7159   15.7500 C   0  0  0  0  0  0  0  0  0  0  0  0
   13.9757   21.4115   17.1510 N   0  0  0  0  0  0  0  0  0  0  0  0
   13.8265   20.8506   14.9787 N   0  0  0  0  0  0  0  0  0  0  0  0
   13.6675   20.0666   17.0867 C   0  0  0  0  0  0  0  0  0  0  0  0
   14.0763   21.8790   15.8465 C   0  0  0  0  0  0  0  0  0  0  0  0
   14.1010   21.9418   17.9709 H   0  0  0  0  0  0  0  0  0  0  0  0
  2  5  1  0  0  0
  3  5  1  0  0  0
  4  5  1  0  0  0
  6  8  2  0  0  0
  7  8  1  0  0  0
 11 13  1  0  0  0
 11 14  2  0  0  0
 10 14  1  0  0  0
 10  1  1  0  0  0
 12 14  1  0  0  0
 12 15  1  0  0  0
 13 15  2  0  0  0
  8  1  1  0  0  0
  1  5  1  0  0  0
  7  9  1  0  0  0
 12 16  1  0  0  0
M  CHG 1   5   1
M  END
> <minimizedAffinity>
-3.95988

$$$$
