4Q6D_WW3_A_304


 21 22  0  0  0  0  0  0  0  0999 V2000
   -5.7973    2.6378   16.2954 C   0  0  0  0  0  0  0  0  0  0  0  0
   -6.5947    3.7261   15.9531 C   0  0  0  0  0  0  0  0  0  0  0  0
   -4.5342    2.4850   15.6435 C   0  0  0  0  0  0  0  0  0  0  0  0
   -4.1485    3.4274   14.6603 C   0  0  0  0  0  0  0  0  0  0  0  0
   -4.9976    4.4815   14.3473 C   0  0  0  0  0  0  0  0  0  0  0  0
   -6.1963    4.6281   14.9843 C   0  0  0  0  0  0  0  0  0  0  0  0
   -7.5747    1.0103   17.0346 O   0  0  0  0  0  0  0  0  0  0  0  0
   -6.2922    1.4621   17.4869 S   0  0  0  0  0  0  0  0  0  0  0  0
   -6.2430    2.1463   18.7637 O   0  0  0  0  0  0  0  0  0  0  0  0
   -5.2435    0.2351   17.4821 N   0  0  0  0  0  0  0  0  0  0  0  0
   -5.2827   -0.2422   16.5815 H   0  0  0  0  0  0  0  0  0  0  0  0
   -5.4842   -0.4208   18.2252 H   0  0  0  0  0  0  0  0  0  0  0  0
   -4.6738    5.4059   13.3384 N   0  0  0  0  0  0  0  0  0  0  0  0
   -5.6375    5.7814   12.6223 N   0  0  0  0  0  0  0  0  0  0  0  0
   -5.4662    6.5561   11.5409 N   0  0  0  0  0  0  0  0  0  0  0  0
   -6.6841    7.3205   11.3897 C   0  0  0  0  0  0  0  0  0  0  0  0
   -6.8780    8.4964   10.4616 C   0  0  0  0  0  0  0  0  0  0  0  0
   -7.1449    7.8038    9.1453 C   0  0  0  0  0  0  0  0  0  0  0  0
   -5.8469    7.2104    8.6027 C   0  0  0  0  0  0  0  0  0  0  0  0
   -4.5375    7.2348    9.4182 C   0  0  0  0  0  0  0  0  0  0  0  0
   -4.4672    6.2559   10.5716 C   0  0  0  0  0  0  0  0  0  0  0  0
 20 21  1  0  0  0
 20 19  1  0  0  0
 21 15  1  0  0  0
 19 18  1  0  0  0
 15 14  1  0  0  0
 15 16  1  0  0  0
 13 14  2  0  0  0
 13  5  1  0  0  0
 17 18  1  0  0  0
 17 16  1  0  0  0
  5  6  2  0  0  0
  5  4  1  0  0  0
  6  2  1  0  0  0
  4  3  2  0  0  0
  2  1  2  0  0  0
  3  1  1  0  0  0
  1  8  1  0  0  0
 10  8  1  0  0  0
  7  8  2  0  0  0
  8  9  2  0  0  0
 10 11  1  0  0  0
 10 12  1  0  0  0
M  END
> <minimizedAffinity>
-7.57402

$$$$
4Q6D_WW3_A_304


 21 22  0  0  0  0  0  0  0  0999 V2000
   -5.8873    2.6838   16.1359 C   0  0  0  0  0  0  0  0  0  0  0  0
   -6.5798    3.8890   16.0627 C   0  0  0  0  0  0  0  0  0  0  0  0
   -4.8340    2.4436   15.1996 C   0  0  0  0  0  0  0  0  0  0  0  0
   -4.5471    3.4240   14.2198 C   0  0  0  0  0  0  0  0  0  0  0  0
   -5.2878    4.5989   14.1847 C   0  0  0  0  0  0  0  0  0  0  0  0
   -6.2831    4.8266   15.0913 C   0  0  0  0  0  0  0  0  0  0  0  0
   -7.5688    0.9956   16.9587 O   0  0  0  0  0  0  0  0  0  0  0  0
   -6.2662    1.4657   17.3273 S   0  0  0  0  0  0  0  0  0  0  0  0
   -6.1368    2.1170   18.6157 O   0  0  0  0  0  0  0  0  0  0  0  0
   -5.1944    0.2644   17.2105 N   0  0  0  0  0  0  0  0  0  0  0  0
   -5.2904   -0.1898   16.3023 H   0  0  0  0  0  0  0  0  0  0  0  0
   -5.3647   -0.4164   17.9507 H   0  0  0  0  0  0  0  0  0  0  0  0
   -5.0689    5.5716   13.1933 N   0  0  0  0  0  0  0  0  0  0  0  0
   -6.1068    6.0328   12.6525 N   0  0  0  0  0  0  0  0  0  0  0  0
   -6.0569    6.8674   11.6037 N   0  0  0  0  0  0  0  0  0  0  0  0
   -4.6570    7.1399   11.3657 C   0  0  0  0  0  0  0  0  0  0  0  0
   -4.0875    7.8327   10.1502 C   0  0  0  0  0  0  0  0  0  0  0  0
   -4.3159    9.2863   10.4939 C   0  0  0  0  0  0  0  0  0  0  0  0
   -5.7993    9.6214   10.3567 C   0  0  0  0  0  0  0  0  0  0  0  0
   -6.8538    8.5371   10.0527 C   0  0  0  0  0  0  0  0  0  0  0  0
   -7.1992    7.6190   11.2065 C   0  0  0  0  0  0  0  0  0  0  0  0
 20 21  1  0  0  0
 20 19  1  0  0  0
 21 15  1  0  0  0
 19 18  1  0  0  0
 15 14  1  0  0  0
 15 16  1  0  0  0
 13 14  2  0  0  0
 13  5  1  0  0  0
 17 18  1  0  0  0
 17 16  1  0  0  0
  5  6  2  0  0  0
  5  4  1  0  0  0
  6  2  1  0  0  0
  4  3  2  0  0  0
  2  1  2  0  0  0
  3  1  1  0  0  0
  1  8  1  0  0  0
 10  8  1  0  0  0
  7  8  2  0  0  0
  8  9  2  0  0  0
 10 11  1  0  0  0
 10 12  1  0  0  0
M  END
> <minimizedAffinity>
-7.57251

$$$$
4Q6D_WW3_A_304


 21 22  0  0  0  0  0  0  0  0999 V2000
   -5.6710    2.6102   16.2494 C   0  0  0  0  0  0  0  0  0  0  0  0
   -4.3797    2.5646   15.7319 C   0  0  0  0  0  0  0  0  0  0  0  0
   -6.4972    3.7309   15.9253 C   0  0  0  0  0  0  0  0  0  0  0  0
   -5.9699    4.7627   15.1124 C   0  0  0  0  0  0  0  0  0  0  0  0
   -4.6657    4.6698   14.6427 C   0  0  0  0  0  0  0  0  0  0  0  0
   -3.8876    3.5894   14.9455 C   0  0  0  0  0  0  0  0  0  0  0  0
   -7.6372    1.1303   16.7956 O   0  0  0  0  0  0  0  0  0  0  0  0
   -6.3051    1.3493   17.2764 S   0  0  0  0  0  0  0  0  0  0  0  0
   -6.1623    1.8345   18.6347 O   0  0  0  0  0  0  0  0  0  0  0  0
   -5.4213    0.0135   17.0760 N   0  0  0  0  0  0  0  0  0  0  0  0
   -5.5259   -0.3229   16.1188 H   0  0  0  0  0  0  0  0  0  0  0  0
   -5.7396   -0.7054   17.7258 H   0  0  0  0  0  0  0  0  0  0  0  0
   -4.0889    5.6996   13.8785 N   0  0  0  0  0  0  0  0  0  0  0  0
   -2.9479    6.0742   14.2531 N   0  0  0  0  0  0  0  0  0  0  0  0
   -2.3272    7.1312   13.7085 N   0  0  0  0  0  0  0  0  0  0  0  0
   -1.8515    7.9371   14.8106 C   0  0  0  0  0  0  0  0  0  0  0  0
   -0.8915    9.0985   14.7041 C   0  0  0  0  0  0  0  0  0  0  0  0
   -1.8140   10.2173   14.2792 C   0  0  0  0  0  0  0  0  0  0  0  0
   -2.2132   10.0292   12.8175 C   0  0  0  0  0  0  0  0  0  0  0  0
   -1.8065    8.7740   12.0178 C   0  0  0  0  0  0  0  0  0  0  0  0
   -2.5661    7.5085   12.3564 C   0  0  0  0  0  0  0  0  0  0  0  0
 20 21  1  0  0  0
 20 19  1  0  0  0
 21 15  1  0  0  0
 19 18  1  0  0  0
 15 14  1  0  0  0
 15 16  1  0  0  0
 13 14  2  0  0  0
 13  5  1  0  0  0
 17 18  1  0  0  0
 17 16  1  0  0  0
  5  6  2  0  0  0
  5  4  1  0  0  0
  6  2  1  0  0  0
  4  3  2  0  0  0
  2  1  2  0  0  0
  3  1  1  0  0  0
  1  8  1  0  0  0
 10  8  1  0  0  0
  7  8  2  0  0  0
  8  9  2  0  0  0
 10 11  1  0  0  0
 10 12  1  0  0  0
M  END
> <minimizedAffinity>
-7.51173

$$$$
4Q6D_WW3_A_304


 21 22  0  0  0  0  0  0  0  0999 V2000
   -4.6860    2.2725   14.6368 C   0  0  0  0  0  0  0  0  0  0  0  0
   -4.3875    2.2469   13.2775 C   0  0  0  0  0  0  0  0  0  0  0  0
   -5.0304    3.5236   15.2366 C   0  0  0  0  0  0  0  0  0  0  0  0
   -5.0340    4.6922   14.4379 C   0  0  0  0  0  0  0  0  0  0  0  0
   -4.7067    4.6055   13.0905 C   0  0  0  0  0  0  0  0  0  0  0  0
   -4.3922    3.4046   12.5221 C   0  0  0  0  0  0  0  0  0  0  0  0
   -5.9748    0.7324   16.1604 O   0  0  0  0  0  0  0  0  0  0  0  0
   -4.6501    0.8327   15.6229 S   0  0  0  0  0  0  0  0  0  0  0  0
   -3.5654    1.0241   16.5651 O   0  0  0  0  0  0  0  0  0  0  0  0
   -4.3402   -0.4416   14.6820 N   0  0  0  0  0  0  0  0  0  0  0  0
   -5.1066   -0.5710   14.0215 H   0  0  0  0  0  0  0  0  0  0  0  0
   -4.2453   -1.2763   15.2605 H   0  0  0  0  0  0  0  0  0  0  0  0
   -4.6461    5.7514   12.2779 N   0  0  0  0  0  0  0  0  0  0  0  0
   -5.7578    6.2047   11.9020 N   0  0  0  0  0  0  0  0  0  0  0  0
   -5.8594    7.2100   11.0198 N   0  0  0  0  0  0  0  0  0  0  0  0
   -4.5475    7.8117   10.9344 C   0  0  0  0  0  0  0  0  0  0  0  0
   -4.1059    8.8216    9.9015 C   0  0  0  0  0  0  0  0  0  0  0  0
   -4.6613   10.1049   10.4742 C   0  0  0  0  0  0  0  0  0  0  0  0
   -6.1767   10.1379   10.2903 C   0  0  0  0  0  0  0  0  0  0  0  0
   -6.9548    8.9302    9.7278 C   0  0  0  0  0  0  0  0  0  0  0  0
   -7.1261    7.7630   10.6773 C   0  0  0  0  0  0  0  0  0  0  0  0
 20 21  1  0  0  0
 20 19  1  0  0  0
 21 15  1  0  0  0
 19 18  1  0  0  0
 15 14  1  0  0  0
 15 16  1  0  0  0
 13 14  2  0  0  0
 13  5  1  0  0  0
 17 18  1  0  0  0
 17 16  1  0  0  0
  5  6  2  0  0  0
  5  4  1  0  0  0
  6  2  1  0  0  0
  4  3  2  0  0  0
  2  1  2  0  0  0
  3  1  1  0  0  0
  1  8  1  0  0  0
 10  8  1  0  0  0
  7  8  2  0  0  0
  8  9  2  0  0  0
 10 11  1  0  0  0
 10 12  1  0  0  0
M  END
> <minimizedAffinity>
-6.87389

$$$$
4Q6D_WW3_A_304


 21 22  0  0  0  0  0  0  0  0999 V2000
   -5.9233    2.3507   16.1255 C   0  0  0  0  0  0  0  0  0  0  0  0
   -5.1176    1.9494   15.0638 C   0  0  0  0  0  0  0  0  0  0  0  0
   -6.4660    3.6732   16.1088 C   0  0  0  0  0  0  0  0  0  0  0  0
   -6.1489    4.5339   15.0307 C   0  0  0  0  0  0  0  0  0  0  0  0
   -5.3218    4.0819   14.0101 C   0  0  0  0  0  0  0  0  0  0  0  0
   -4.8186    2.8128   14.0265 C   0  0  0  0  0  0  0  0  0  0  0  0
   -5.1974    0.3630   17.4953 O   0  0  0  0  0  0  0  0  0  0  0  0
   -6.2858    1.2948   17.4673 S   0  0  0  0  0  0  0  0  0  0  0  0
   -7.6081    0.7615   17.2066 O   0  0  0  0  0  0  0  0  0  0  0  0
   -6.3032    2.1616   18.8289 N   0  0  0  0  0  0  0  0  0  0  0  0
   -5.3704    2.5339   19.0068 H   0  0  0  0  0  0  0  0  0  0  0  0
   -6.5858    1.5662   19.6074 H   0  0  0  0  0  0  0  0  0  0  0  0
   -4.9404    4.9247   12.9511 N   0  0  0  0  0  0  0  0  0  0  0  0
   -4.6332    4.3397   11.8807 N   0  0  0  0  0  0  0  0  0  0  0  0
   -4.1252    4.9957   10.8269 N   0  0  0  0  0  0  0  0  0  0  0  0
   -4.9187    6.1944   10.6717 C   0  0  0  0  0  0  0  0  0  0  0  0
   -4.5848    7.3632    9.7749 C   0  0  0  0  0  0  0  0  0  0  0  0
   -5.0687    6.8646    8.4330 C   0  0  0  0  0  0  0  0  0  0  0  0
   -4.1098    5.8016    7.9018 C   0  0  0  0  0  0  0  0  0  0  0  0
   -2.9320    5.2730    8.7465 C   0  0  0  0  0  0  0  0  0  0  0  0
   -3.3054    4.3304    9.8715 C   0  0  0  0  0  0  0  0  0  0  0  0
 20 21  1  0  0  0
 20 19  1  0  0  0
 21 15  1  0  0  0
 19 18  1  0  0  0
 15 14  1  0  0  0
 15 16  1  0  0  0
 13 14  2  0  0  0
 13  5  1  0  0  0
 17 18  1  0  0  0
 17 16  1  0  0  0
  5  6  2  0  0  0
  5  4  1  0  0  0
  6  2  1  0  0  0
  4  3  2  0  0  0
  2  1  2  0  0  0
  3  1  1  0  0  0
  1  8  1  0  0  0
 10  8  1  0  0  0
  7  8  2  0  0  0
  8  9  2  0  0  0
 10 11  1  0  0  0
 10 12  1  0  0  0
M  END
> <minimizedAffinity>
-6.86004

$$$$
4Q6D_WW3_A_304


 21 22  0  0  0  0  0  0  0  0999 V2000
   -5.7463    2.5457   16.2011 C   0  0  0  0  0  0  0  0  0  0  0  0
   -6.5240    3.5945   15.7189 C   0  0  0  0  0  0  0  0  0  0  0  0
   -4.4037    2.4171   15.7270 C   0  0  0  0  0  0  0  0  0  0  0  0
   -3.9199    3.3418   14.7707 C   0  0  0  0  0  0  0  0  0  0  0  0
   -4.7516    4.3556   14.3119 C   0  0  0  0  0  0  0  0  0  0  0  0
   -6.0282    4.4797   14.7800 C   0  0  0  0  0  0  0  0  0  0  0  0
   -7.6982    1.1235   16.9235 O   0  0  0  0  0  0  0  0  0  0  0  0
   -6.3588    1.3905   17.3575 S   0  0  0  0  0  0  0  0  0  0  0  0
   -6.1943    2.0067   18.6591 O   0  0  0  0  0  0  0  0  0  0  0  0
   -5.4743    0.0429   17.2736 N   0  0  0  0  0  0  0  0  0  0  0  0
   -5.5942   -0.3859   16.3559 H   0  0  0  0  0  0  0  0  0  0  0  0
   -5.7792   -0.6094   17.9961 H   0  0  0  0  0  0  0  0  0  0  0  0
   -4.3252    5.2594   13.3227 N   0  0  0  0  0  0  0  0  0  0  0  0
   -5.0458    5.3104   12.2929 N   0  0  0  0  0  0  0  0  0  0  0  0
   -4.6991    6.0242   11.2115 N   0  0  0  0  0  0  0  0  0  0  0  0
   -4.0183    5.1110   10.3211 C   0  0  0  0  0  0  0  0  0  0  0  0
   -3.6538    5.3896    8.8819 C   0  0  0  0  0  0  0  0  0  0  0  0
   -2.3817    6.1897    9.0399 C   0  0  0  0  0  0  0  0  0  0  0  0
   -2.7148    7.5944    9.5374 C   0  0  0  0  0  0  0  0  0  0  0  0
   -4.1499    7.9981    9.9345 C   0  0  0  0  0  0  0  0  0  0  0  0
   -4.6423    7.4464   11.2560 C   0  0  0  0  0  0  0  0  0  0  0  0
 20 21  1  0  0  0
 20 19  1  0  0  0
 21 15  1  0  0  0
 19 18  1  0  0  0
 15 14  1  0  0  0
 15 16  1  0  0  0
 13 14  2  0  0  0
 13  5  1  0  0  0
 17 18  1  0  0  0
 17 16  1  0  0  0
  5  6  2  0  0  0
  5  4  1  0  0  0
  6  2  1  0  0  0
  4  3  2  0  0  0
  2  1  2  0  0  0
  3  1  1  0  0  0
  1  8  1  0  0  0
 10  8  1  0  0  0
  7  8  2  0  0  0
  8  9  2  0  0  0
 10 11  1  0  0  0
 10 12  1  0  0  0
M  END
> <minimizedAffinity>
-6.82873

$$$$
4Q6D_WW3_A_304


 21 22  0  0  0  0  0  0  0  0999 V2000
   -5.4343    2.4072   16.0845 C   0  0  0  0  0  0  0  0  0  0  0  0
   -4.1163    2.5895   15.6757 C   0  0  0  0  0  0  0  0  0  0  0  0
   -6.4026    3.3967   15.7283 C   0  0  0  0  0  0  0  0  0  0  0  0
   -5.9870    4.5343   14.9957 C   0  0  0  0  0  0  0  0  0  0  0  0
   -4.6524    4.6698   14.6342 C   0  0  0  0  0  0  0  0  0  0  0  0
   -3.7363    3.7135   14.9664 C   0  0  0  0  0  0  0  0  0  0  0  0
   -5.5050    1.3052   18.3505 O   0  0  0  0  0  0  0  0  0  0  0  0
   -5.9346    1.0171   17.0140 S   0  0  0  0  0  0  0  0  0  0  0  0
   -5.3407   -0.1321   16.3602 O   0  0  0  0  0  0  0  0  0  0  0  0
   -7.5441    0.9038   16.9658 N   0  0  0  0  0  0  0  0  0  0  0  0
   -7.9560    1.7149   17.4272 H   0  0  0  0  0  0  0  0  0  0  0  0
   -7.8396    0.0534   17.4453 H   0  0  0  0  0  0  0  0  0  0  0  0
   -4.1916    5.8111   13.9542 N   0  0  0  0  0  0  0  0  0  0  0  0
   -3.9234    5.6413   12.7370 N   0  0  0  0  0  0  0  0  0  0  0  0
   -3.3521    6.5977   11.9899 N   0  0  0  0  0  0  0  0  0  0  0  0
   -4.4333    7.3629   11.4104 C   0  0  0  0  0  0  0  0  0  0  0  0
   -4.2921    8.6826   10.6892 C   0  0  0  0  0  0  0  0  0  0  0  0
   -3.8674    8.2319    9.3109 C   0  0  0  0  0  0  0  0  0  0  0  0
   -2.4161    7.7589    9.3478 C   0  0  0  0  0  0  0  0  0  0  0  0
   -1.6280    7.6529   10.6699 C   0  0  0  0  0  0  0  0  0  0  0  0
   -1.9990    6.4857   11.5605 C   0  0  0  0  0  0  0  0  0  0  0  0
 20 21  1  0  0  0
 20 19  1  0  0  0
 21 15  1  0  0  0
 19 18  1  0  0  0
 15 14  1  0  0  0
 15 16  1  0  0  0
 13 14  2  0  0  0
 13  5  1  0  0  0
 17 18  1  0  0  0
 17 16  1  0  0  0
  5  6  2  0  0  0
  5  4  1  0  0  0
  6  2  1  0  0  0
  4  3  2  0  0  0
  2  1  2  0  0  0
  3  1  1  0  0  0
  1  8  1  0  0  0
 10  8  1  0  0  0
  7  8  2  0  0  0
  8  9  2  0  0  0
 10 11  1  0  0  0
 10 12  1  0  0  0
M  END
> <minimizedAffinity>
-6.60220

$$$$
4Q6D_WW3_A_304


 21 22  0  0  0  0  0  0  0  0999 V2000
   -4.2514    2.9546   15.0723 C   0  0  0  0  0  0  0  0  0  0  0  0
   -2.9860    3.3648   14.6626 C   0  0  0  0  0  0  0  0  0  0  0  0
   -5.2843    3.9365   15.1849 C   0  0  0  0  0  0  0  0  0  0  0  0
   -4.9817    5.2896   14.9000 C   0  0  0  0  0  0  0  0  0  0  0  0
   -3.6936    5.6402   14.5153 C   0  0  0  0  0  0  0  0  0  0  0  0
   -2.7162    4.6942   14.3969 C   0  0  0  0  0  0  0  0  0  0  0  0
   -5.9814    1.3030   15.8683 O   0  0  0  0  0  0  0  0  0  0  0  0
   -4.6103    1.2890   15.4516 S   0  0  0  0  0  0  0  0  0  0  0  0
   -3.6235    0.8841   16.4330 O   0  0  0  0  0  0  0  0  0  0  0  0
   -4.4507    0.3989   14.1146 N   0  0  0  0  0  0  0  0  0  0  0  0
   -5.1474    0.6884   13.4282 H   0  0  0  0  0  0  0  0  0  0  0  0
   -4.5873   -0.5857   14.3433 H   0  0  0  0  0  0  0  0  0  0  0  0
   -3.3413    6.9805   14.2771 N   0  0  0  0  0  0  0  0  0  0  0  0
   -2.7934    7.2043   13.1670 N   0  0  0  0  0  0  0  0  0  0  0  0
   -2.2836    8.4036   12.8495 N   0  0  0  0  0  0  0  0  0  0  0  0
   -1.9656    9.0556   14.1002 C   0  0  0  0  0  0  0  0  0  0  0  0
   -1.1538   10.3201   14.2542 C   0  0  0  0  0  0  0  0  0  0  0  0
   -2.1869   11.3825   13.9587 C   0  0  0  0  0  0  0  0  0  0  0  0
   -2.4886   11.4058   12.4621 C   0  0  0  0  0  0  0  0  0  0  0  0
   -1.8908   10.3631   11.4950 C   0  0  0  0  0  0  0  0  0  0  0  0
   -2.5023    8.9795   11.5657 C   0  0  0  0  0  0  0  0  0  0  0  0
 20 21  1  0  0  0
 20 19  1  0  0  0
 21 15  1  0  0  0
 19 18  1  0  0  0
 15 14  1  0  0  0
 15 16  1  0  0  0
 13 14  2  0  0  0
 13  5  1  0  0  0
 17 18  1  0  0  0
 17 16  1  0  0  0
  5  6  2  0  0  0
  5  4  1  0  0  0
  6  2  1  0  0  0
  4  3  2  0  0  0
  2  1  2  0  0  0
  3  1  1  0  0  0
  1  8  1  0  0  0
 10  8  1  0  0  0
  7  8  2  0  0  0
  8  9  2  0  0  0
 10 11  1  0  0  0
 10 12  1  0  0  0
M  END
> <minimizedAffinity>
-6.28036

$$$$
4Q6D_WW3_A_304


 21 22  0  0  0  0  0  0  0  0999 V2000
   -0.5262    5.3691   12.0393 C   0  0  0  0  0  0  0  0  0  0  0  0
   -1.0580    6.0450   13.1337 C   0  0  0  0  0  0  0  0  0  0  0  0
   -1.1665    4.1683   11.6014 C   0  0  0  0  0  0  0  0  0  0  0  0
   -2.3001    3.6964   12.3055 C   0  0  0  0  0  0  0  0  0  0  0  0
   -2.7717    4.4047   13.4037 C   0  0  0  0  0  0  0  0  0  0  0  0
   -2.1627    5.5582   13.8072 C   0  0  0  0  0  0  0  0  0  0  0  0
    0.8249    7.3669   11.3061 O   0  0  0  0  0  0  0  0  0  0  0  0
    0.8903    5.9398   11.1939 S   0  0  0  0  0  0  0  0  0  0  0  0
    0.8112    5.3755    9.8611 O   0  0  0  0  0  0  0  0  0  0  0  0
    2.2086    5.3887   11.9449 N   0  0  0  0  0  0  0  0  0  0  0  0
    2.2586    5.7891   12.8816 H   0  0  0  0  0  0  0  0  0  0  0  0
    3.0384    5.6568   11.4157 H   0  0  0  0  0  0  0  0  0  0  0  0
   -3.8611    3.9389   14.1610 N   0  0  0  0  0  0  0  0  0  0  0  0
   -3.6592    2.8713   14.7950 N   0  0  0  0  0  0  0  0  0  0  0  0
   -4.6384    2.2346   15.4545 N   0  0  0  0  0  0  0  0  0  0  0  0
   -5.5623    3.2548   15.8970 C   0  0  0  0  0  0  0  0  0  0  0  0
   -6.9378    3.0099   16.4714 C   0  0  0  0  0  0  0  0  0  0  0  0
   -6.6120    2.6762   17.9087 C   0  0  0  0  0  0  0  0  0  0  0  0
   -6.0055    1.2772   17.9883 C   0  0  0  0  0  0  0  0  0  0  0  0
   -5.6748    0.4603   16.7220 C   0  0  0  0  0  0  0  0  0  0  0  0
   -4.4519    0.9136   15.9523 C   0  0  0  0  0  0  0  0  0  0  0  0
 20 21  1  0  0  0
 20 19  1  0  0  0
 21 15  1  0  0  0
 19 18  1  0  0  0
 15 14  1  0  0  0
 15 16  1  0  0  0
 13 14  2  0  0  0
 13  5  1  0  0  0
 17 18  1  0  0  0
 17 16  1  0  0  0
  5  6  2  0  0  0
  5  4  1  0  0  0
  6  2  1  0  0  0
  4  3  2  0  0  0
  2  1  2  0  0  0
  3  1  1  0  0  0
  1  8  1  0  0  0
 10  8  1  0  0  0
  7  8  2  0  0  0
  8  9  2  0  0  0
 10 11  1  0  0  0
 10 12  1  0  0  0
M  END
> <minimizedAffinity>
-6.27102

$$$$
4Q6D_WW3_A_304


 21 22  0  0  0  0  0  0  0  0999 V2000
   -3.8598    3.8230   14.8273 C   0  0  0  0  0  0  0  0  0  0  0  0
   -4.6330    4.9748   14.9409 C   0  0  0  0  0  0  0  0  0  0  0  0
   -2.4826    3.9579   14.4685 C   0  0  0  0  0  0  0  0  0  0  0  0
   -1.9594    5.2493   14.2193 C   0  0  0  0  0  0  0  0  0  0  0  0
   -2.7871    6.3597   14.3289 C   0  0  0  0  0  0  0  0  0  0  0  0
   -4.0980    6.2235   14.6856 C   0  0  0  0  0  0  0  0  0  0  0  0
   -4.3687    1.5553   13.8511 O   0  0  0  0  0  0  0  0  0  0  0  0
   -4.5186    2.2308   15.1061 S   0  0  0  0  0  0  0  0  0  0  0  0
   -5.8691    2.4392   15.5893 O   0  0  0  0  0  0  0  0  0  0  0  0
   -3.6397    1.4889   16.2387 N   0  0  0  0  0  0  0  0  0  0  0  0
   -2.6910    1.3452   15.8929 H   0  0  0  0  0  0  0  0  0  0  0  0
   -4.0615    0.5868   16.4596 H   0  0  0  0  0  0  0  0  0  0  0  0
   -2.3181    7.6527   14.0364 N   0  0  0  0  0  0  0  0  0  0  0  0
   -1.6159    8.1868   14.9332 N   0  0  0  0  0  0  0  0  0  0  0  0
   -1.2071    9.4620   14.8574 N   0  0  0  0  0  0  0  0  0  0  0  0
   -2.1264   10.1326   13.9654 C   0  0  0  0  0  0  0  0  0  0  0  0
   -2.2197   11.6254   13.7542 C   0  0  0  0  0  0  0  0  0  0  0  0
   -1.0916   11.8654   12.7780 C   0  0  0  0  0  0  0  0  0  0  0  0
    0.2485   11.7528   13.5013 C   0  0  0  0  0  0  0  0  0  0  0  0
    0.3427   11.3094   14.9760 C   0  0  0  0  0  0  0  0  0  0  0  0
    0.1157    9.8339   15.2309 C   0  0  0  0  0  0  0  0  0  0  0  0
 20 21  1  0  0  0
 20 19  1  0  0  0
 21 15  1  0  0  0
 19 18  1  0  0  0
 15 14  1  0  0  0
 15 16  1  0  0  0
 13 14  2  0  0  0
 13  5  1  0  0  0
 17 18  1  0  0  0
 17 16  1  0  0  0
  5  6  2  0  0  0
  5  4  1  0  0  0
  6  2  1  0  0  0
  4  3  2  0  0  0
  2  1  2  0  0  0
  3  1  1  0  0  0
  1  8  1  0  0  0
 10  8  1  0  0  0
  7  8  2  0  0  0
  8  9  2  0  0  0
 10 11  1  0  0  0
 10 12  1  0  0  0
M  END
> <minimizedAffinity>
-6.09518

$$$$
