4Q6D_WW3_A_304
  RCSB PDB12061714213D
Coordinates from PDB:4Q6D:A:304 Model:1 without hydrogens
 19 20  0  0  0  0            999 V2000
   -7.3840    0.8530   16.6770   O 0  0  0  0  0  0  0  0  0  0  0  0
   -5.9560    0.8100   16.7890   S 0  0  0  0  0  0  0  0  0  0  0  0
   -5.3930    0.8940   18.1220   O 0  0  0  0  0  0  0  0  0  0  0  0
   -5.3840   -0.4970   16.0340   N 0  0  0  0  0  0  0  0  0  0  0  0
   -5.4080    2.2380   15.9480   C 0  0  0  0  0  0  0  0  0  0  0  0
   -6.2840    3.2410   15.5430   C 0  0  0  0  0  0  0  0  0  0  0  0
   -4.0160    2.3900   15.6600   C 0  0  0  0  0  0  0  0  0  0  0  0
   -3.5800    3.5380   14.9560   C 0  0  0  0  0  0  0  0  0  0  0  0
   -4.5060    4.4950   14.5600   C 0  0  0  0  0  0  0  0  0  0  0  0
   -5.8320    4.3490   14.8510   C 0  0  0  0  0  0  0  0  0  0  0  0
   -4.1190    5.6210   13.8120   N 0  0  0  0  0  0  0  0  0  0  0  0
   -2.8920    5.8960   13.8480   N 0  0  0  0  0  0  0  0  0  0  0  0
   -2.3920    7.0110   13.2950   N 0  0  0  0  0  0  0  0  0  0  0  0
   -1.3260    7.4550   14.1650   C 0  0  0  0  0  0  0  0  0  0  0  0
   -0.3130    8.5280   13.8420   C 0  0  0  0  0  0  0  0  0  0  0  0
   -1.0930    9.7850   14.1500   C 0  0  0  0  0  0  0  0  0  0  0  0
   -2.1350   10.0250   13.0600   C 0  0  0  0  0  0  0  0  0  0  0  0
   -2.3820    9.0030   11.9310   C 0  0  0  0  0  0  0  0  0  0  0  0
   -3.1360    7.7530   12.3340   C 0  0  0  0  0  0  0  0  0  0  0  0
 18 19  1  0  0  0  0
 18 17  1  0  0  0  0
 19 13  1  0  0  0  0
 17 16  1  0  0  0  0
 13 12  1  0  0  0  0
 13 14  1  0  0  0  0
 11 12  2  0  0  0  0
 11  9  1  0  0  0  0
 15 16  1  0  0  0  0
 15 14  1  0  0  0  0
  9 10  2  0  0  0  0
  9  8  1  0  0  0  0
 10  6  1  0  0  0  0
  8  7  2  0  0  0  0
  6  5  2  0  0  0  0
  7  5  1  0  0  0  0
  5  2  1  0  0  0  0
  4  2  1  0  0  0  0
  1  2  2  0  0  0  0
  2  3  2  0  0  0  0
A    1
O9
A    2
S7
A    3
O8
A    4
N10
A    5
C3
A    6
C2
A    7
C4
A    8
C5
A    9
C6
A   10
C1
A   11
N11
A   12
N12
A   13
N13
A   14
C16
A   15
C15
A   16
C17
A   17
C18
A   18
C19
A   19
C14
M  END
>  <InstanceId>
4Q6D_WW3_A_304

>  <ChemCompId>
WW3

>  <PdbId>
4Q6D

>  <ChainId>
A

>  <ResidueNumber>
304

>  <InsertionCode>


>  <Model>
1

>  <AltIds>


>  <MissingHeavyAtoms>
0

>  <ObservedFormula>
C12 N4 O2 S

>  <Name>
4-[(E)-azepan-1-yldiazenyl]benzenesulfonamide

>  <SystematicName>
4-[(E)-azepan-1-yldiazenyl]benzenesulfonamide

>  <Synonyms>


>  <Type>
NON-POLYMER

>  <Formula>
C12 H18 N4 O2 S

>  <MolecularWeight>
282.362

>  <ModifiedDate>
2014-11-21

>  <Parent>


>  <OneLetterCode>


>  <SubcomponentList>


>  <AmbiguousFlag>
N

>  <InChI>
InChI=1S/C12H18N4O2S/c13-19(17,18)12-7-5-11(6-8-12)14-15-16-9-3-1-2-4-10-16/h5-8H,1-4,9-10H2,(H2,13,17,18)/b15-14+

>  <InChIKey>
CIAKXEZVKQYCME-CCEZHUSRSA-N

>  <SMILES>
c1cc(ccc1/N=N/N2CCCCCC2)S(=O)(=O)N

$$$$
