2GV6_730_A_1


 47 50  0  0  0  0  0  0  0  0999 V2000
   13.9979   64.7851   26.5882 C   0  0  0  0  0  0  0  0  0  0  0  0
   15.4189   65.0625   26.0522 C   0  0  0  0  0  0  0  0  0  0  0  0
   15.9812   64.5300   24.8764 N   0  0  0  0  0  0  0  0  0  0  0  0
   17.3579   64.9472   24.5042 C   0  0  0  0  0  0  0  0  0  0  0  0
   18.2534   63.7176   24.1763 C   0  0  0  0  0  0  0  0  0  0  0  0
   17.5396   62.3678   24.4362 C   0  0  0  0  0  0  0  0  0  0  0  0
   16.1892   62.3480   23.6242 C   0  0  0  0  0  0  0  0  0  0  0  0
   15.2606   63.5873   23.9759 C   0  0  0  0  0  0  0  0  0  0  0  0
   16.0701   65.8415   26.7705 O   0  0  0  0  0  0  0  0  0  0  0  0
   18.5074   61.1495   24.1171 C   0  0  0  0  0  0  0  0  0  0  0  0
   19.3186   60.4691   25.2782 C   0  0  0  0  0  0  0  0  0  0  0  0
   19.7475   59.0921   24.8862 N   0  0  0  0  0  0  0  0  0  0  0  0
   19.8566   58.9091   23.9250 H   0  0  0  0  0  0  0  0  0  0  0  0
   19.9968   58.0826   25.7392 C   0  0  0  0  0  0  0  0  0  0  0  0
   19.4619   56.8960   25.4937 N   0  0  0  0  0  0  0  0  0  0  0  0
   20.7511   58.2097   26.8138 N   0  0  0  0  0  0  0  0  0  0  0  0
   18.8938   56.7668   24.7000 H   0  0  0  0  0  0  0  0  0  0  0  0
   21.1638   59.0780   27.0257 H   0  0  0  0  0  0  0  0  0  0  0  0
   20.9012   57.4362   27.4041 H   0  0  0  0  0  0  0  0  0  0  0  0
   13.0769   65.4870   25.7330 N   0  0  0  0  0  0  0  0  0  0  0  0
   13.6462   65.8919   24.9898 H   0  0  0  0  0  0  0  0  0  0  0  0
   12.1143   66.6525   26.2172 S   0  0  0  0  0  0  0  0  0  0  0  0
   12.9233   67.7760   26.6302 O   0  0  0  0  0  0  0  0  0  0  0  0
   11.0976   66.8825   25.1954 O   0  0  0  0  0  0  0  0  0  0  0  0
   11.3495   65.9042   27.6380 C   0  0  0  0  0  0  0  0  0  0  0  0
   10.1234   65.1842   27.5308 C   0  0  0  0  0  0  0  0  0  0  0  0
    9.5261   64.6174   28.7009 C   0  0  0  0  0  0  0  0  0  0  0  0
   10.1533   64.7741   29.9765 C   0  0  0  0  0  0  0  0  0  0  0  0
    9.5717   64.2203   31.1539 C   0  0  0  0  0  0  0  0  0  0  0  0
   10.2125   64.3902   32.4174 C   0  0  0  0  0  0  0  0  0  0  0  0
   11.4403   65.1107   32.5104 C   0  0  0  0  0  0  0  0  0  0  0  0
   12.0275   65.6666   31.3444 C   0  0  0  0  0  0  0  0  0  0  0  0
   11.3955   65.5052   30.0756 C   0  0  0  0  0  0  0  0  0  0  0  0
   11.9747   66.0600   28.9132 C   0  0  0  0  0  0  0  0  0  0  0  0
   13.8089   63.2305   26.7501 C   0  0  0  0  0  0  0  0  0  0  0  0
   13.3277   62.7245   28.1218 C   0  0  0  0  0  0  0  0  0  0  0  0
   12.0858   62.0186   28.2600 C   0  0  0  0  0  0  0  0  0  0  0  0
   11.6464   61.5489   29.5373 C   0  0  0  0  0  0  0  0  0  0  0  0
   12.4676   61.7903   30.6814 C   0  0  0  0  0  0  0  0  0  0  0  0
   13.6960   62.4866   30.5607 C   0  0  0  0  0  0  0  0  0  0  0  0
   14.1252   62.9528   29.2946 C   0  0  0  0  0  0  0  0  0  0  0  0
   10.3379   60.8144   29.6836 C   0  0  0  0  0  0  0  0  0  0  0  0
   10.1390   60.0224   30.7112 N   0  0  0  0  0  0  0  0  0  0  0  0
    9.4071   60.9711   28.7820 N   0  0  0  0  0  0  0  0  0  0  0  0
   10.8444   59.9079   31.3883 H   0  0  0  0  0  0  0  0  0  0  0  0
    9.5616   61.5664   28.0132 H   0  0  0  0  0  0  0  0  0  0  0  0
    8.5505   60.4940   28.8707 H   0  0  0  0  0  0  0  0  0  0  0  0
 22 23  2  0  0  0
 22 24  2  0  0  0
 22 20  1  0  0  0
 22 25  1  0  0  0
 20  1  1  0  0  0
  1  2  1  0  0  0
  1 35  1  0  0  0
  2  3  1  0  0  0
  2  9  2  0  0  0
  3  4  1  0  0  0
  3  8  1  0  0  0
  4  5  1  0  0  0
  5  6  1  0  0  0
  6 10  1  0  0  0
  6  7  1  0  0  0
 10 11  1  0  0  0
 11 12  1  0  0  0
 12 14  1  0  0  0
 14 15  2  0  0  0
 14 16  1  0  0  0
  7  8  1  0  0  0
 35 36  1  0  0  0
 36 37  2  0  0  0
 36 41  1  0  0  0
 37 38  1  0  0  0
 38 42  1  0  0  0
 38 39  2  0  0  0
 42 43  2  0  0  0
 42 44  1  0  0  0
 39 40  1  0  0  0
 40 41  2  0  0  0
 25 26  1  0  0  0
 25 34  2  0  0  0
 26 27  2  0  0  0
 27 28  1  0  0  0
 28 29  2  0  0  0
 28 33  1  0  0  0
 29 30  1  0  0  0
 30 31  2  0  0  0
 31 32  1  0  0  0
 32 33  2  0  0  0
 33 34  1  0  0  0
 20 21  1  0  0  0
 12 13  1  0  0  0
 15 17  1  0  0  0
 16 18  1  0  0  0
 16 19  1  0  0  0
 43 45  1  0  0  0
 44 46  1  0  0  0
 44 47  1  0  0  0
M  END
> <minimizedAffinity>
-8.53610

$$$$
2GV6_730_A_1


 47 50  0  0  0  0  0  0  0  0999 V2000
   13.9594   64.6181   26.8284 C   0  0  0  0  0  0  0  0  0  0  0  0
   15.4580   64.7908   26.4999 C   0  0  0  0  0  0  0  0  0  0  0  0
   16.0964   64.4016   25.3069 N   0  0  0  0  0  0  0  0  0  0  0  0
   17.5472   64.6879   25.1603 C   0  0  0  0  0  0  0  0  0  0  0  0
   18.3298   63.4254   24.6970 C   0  0  0  0  0  0  0  0  0  0  0  0
   17.4398   62.1598   24.6237 C   0  0  0  0  0  0  0  0  0  0  0  0
   16.2066   62.4651   23.6914 C   0  0  0  0  0  0  0  0  0  0  0  0
   15.3895   63.7374   24.1766 C   0  0  0  0  0  0  0  0  0  0  0  0
   16.1003   65.3367   27.4143 O   0  0  0  0  0  0  0  0  0  0  0  0
   18.2941   60.8970   24.1783 C   0  0  0  0  0  0  0  0  0  0  0  0
   19.4304   60.3502   25.1158 C   0  0  0  0  0  0  0  0  0  0  0  0
   19.3627   58.8605   25.2140 N   0  0  0  0  0  0  0  0  0  0  0  0
   18.6642   58.4042   24.6913 H   0  0  0  0  0  0  0  0  0  0  0  0
   20.1782   58.0921   25.9581 C   0  0  0  0  0  0  0  0  0  0  0  0
   20.2775   56.8035   25.6679 N   0  0  0  0  0  0  0  0  0  0  0  0
   20.8905   58.5547   26.9673 N   0  0  0  0  0  0  0  0  0  0  0  0
   19.7595   56.4258   24.9208 H   0  0  0  0  0  0  0  0  0  0  0  0
   20.8400   59.5075   27.2096 H   0  0  0  0  0  0  0  0  0  0  0  0
   21.4728   57.9470   27.4782 H   0  0  0  0  0  0  0  0  0  0  0  0
   13.2290   65.5002   25.9561 N   0  0  0  0  0  0  0  0  0  0  0  0
   13.9210   65.8864   25.3140 H   0  0  0  0  0  0  0  0  0  0  0  0
   12.3667   66.7377   26.4502 S   0  0  0  0  0  0  0  0  0  0  0  0
   13.2614   67.7380   26.9853 O   0  0  0  0  0  0  0  0  0  0  0  0
   11.4566   67.1378   25.3815 O   0  0  0  0  0  0  0  0  0  0  0  0
   11.4256   66.0020   27.7680 C   0  0  0  0  0  0  0  0  0  0  0  0
   10.2702   65.2089   27.5050 C   0  0  0  0  0  0  0  0  0  0  0  0
    9.5248   64.6541   28.5930 C   0  0  0  0  0  0  0  0  0  0  0  0
    9.9333   64.8959   29.9419 C   0  0  0  0  0  0  0  0  0  0  0  0
    9.2015   64.3554   31.0390 C   0  0  0  0  0  0  0  0  0  0  0  0
    9.6247   64.6106   32.3776 C   0  0  0  0  0  0  0  0  0  0  0  0
   10.7839   65.4038   32.6268 C   0  0  0  0  0  0  0  0  0  0  0  0
   11.5194   65.9472   31.5418 C   0  0  0  0  0  0  0  0  0  0  0  0
   11.1053   65.7008   30.1990 C   0  0  0  0  0  0  0  0  0  0  0  0
   11.8322   66.2427   29.1163 C   0  0  0  0  0  0  0  0  0  0  0  0
   13.6022   63.0853   26.7878 C   0  0  0  0  0  0  0  0  0  0  0  0
   12.8377   62.5140   27.9953 C   0  0  0  0  0  0  0  0  0  0  0  0
   13.2632   62.7826   29.3394 C   0  0  0  0  0  0  0  0  0  0  0  0
   12.5462   62.2507   30.4567 C   0  0  0  0  0  0  0  0  0  0  0  0
   11.3906   61.4457   30.2154 C   0  0  0  0  0  0  0  0  0  0  0  0
   10.9589   61.1711   28.8938 C   0  0  0  0  0  0  0  0  0  0  0  0
   11.6740   61.6971   27.7907 C   0  0  0  0  0  0  0  0  0  0  0  0
   12.9980   62.5263   31.8684 C   0  0  0  0  0  0  0  0  0  0  0  0
   12.2744   62.1144   32.8833 N   0  0  0  0  0  0  0  0  0  0  0  0
   14.1109   63.1770   32.0731 N   0  0  0  0  0  0  0  0  0  0  0  0
   11.4359   61.6241   32.7231 H   0  0  0  0  0  0  0  0  0  0  0  0
   14.6496   63.4836   31.3083 H   0  0  0  0  0  0  0  0  0  0  0  0
   14.4115   63.3612   32.9923 H   0  0  0  0  0  0  0  0  0  0  0  0
 22 23  2  0  0  0
 22 24  2  0  0  0
 22 20  1  0  0  0
 22 25  1  0  0  0
 20  1  1  0  0  0
  1  2  1  0  0  0
  1 35  1  0  0  0
  2  3  1  0  0  0
  2  9  2  0  0  0
  3  4  1  0  0  0
  3  8  1  0  0  0
  4  5  1  0  0  0
  5  6  1  0  0  0
  6 10  1  0  0  0
  6  7  1  0  0  0
 10 11  1  0  0  0
 11 12  1  0  0  0
 12 14  1  0  0  0
 14 15  2  0  0  0
 14 16  1  0  0  0
  7  8  1  0  0  0
 35 36  1  0  0  0
 36 37  2  0  0  0
 36 41  1  0  0  0
 37 38  1  0  0  0
 38 42  1  0  0  0
 38 39  2  0  0  0
 42 43  2  0  0  0
 42 44  1  0  0  0
 39 40  1  0  0  0
 40 41  2  0  0  0
 25 26  1  0  0  0
 25 34  2  0  0  0
 26 27  2  0  0  0
 27 28  1  0  0  0
 28 29  2  0  0  0
 28 33  1  0  0  0
 29 30  1  0  0  0
 30 31  2  0  0  0
 31 32  1  0  0  0
 32 33  2  0  0  0
 33 34  1  0  0  0
 20 21  1  0  0  0
 12 13  1  0  0  0
 15 17  1  0  0  0
 16 18  1  0  0  0
 16 19  1  0  0  0
 43 45  1  0  0  0
 44 46  1  0  0  0
 44 47  1  0  0  0
M  END
> <minimizedAffinity>
-8.47762

$$$$
2GV6_730_A_1


 47 50  0  0  0  0  0  0  0  0999 V2000
   15.1554   63.2362   28.1717 C   0  0  0  0  0  0  0  0  0  0  0  0
   16.4893   63.6803   27.5338 C   0  0  0  0  0  0  0  0  0  0  0  0
   16.7879   63.6928   26.1579 N   0  0  0  0  0  0  0  0  0  0  0  0
   18.1207   64.1935   25.7324 C   0  0  0  0  0  0  0  0  0  0  0  0
   18.8113   63.2028   24.7512 C   0  0  0  0  0  0  0  0  0  0  0  0
   18.0089   61.8922   24.5566 C   0  0  0  0  0  0  0  0  0  0  0  0
   16.5485   62.2604   24.0932 C   0  0  0  0  0  0  0  0  0  0  0  0
   15.8304   63.2504   25.1062 C   0  0  0  0  0  0  0  0  0  0  0  0
   17.3309   64.0556   28.3690 O   0  0  0  0  0  0  0  0  0  0  0  0
   18.7732   60.9060   23.5737 C   0  0  0  0  0  0  0  0  0  0  0  0
   18.9707   59.3994   23.9738 C   0  0  0  0  0  0  0  0  0  0  0  0
   19.6694   59.2900   25.2905 N   0  0  0  0  0  0  0  0  0  0  0  0
   19.8884   60.1288   25.7570 H   0  0  0  0  0  0  0  0  0  0  0  0
   20.0233   58.1393   25.8900 C   0  0  0  0  0  0  0  0  0  0  0  0
   20.8358   58.1904   26.9349 N   0  0  0  0  0  0  0  0  0  0  0  0
   19.6018   56.9542   25.4928 N   0  0  0  0  0  0  0  0  0  0  0  0
   21.1689   59.0589   27.2574 H   0  0  0  0  0  0  0  0  0  0  0  0
   18.9969   56.8806   24.7195 H   0  0  0  0  0  0  0  0  0  0  0  0
   19.8920   56.1432   25.9697 H   0  0  0  0  0  0  0  0  0  0  0  0
   14.9888   63.9982   29.3816 N   0  0  0  0  0  0  0  0  0  0  0  0
   15.8183   64.5876   29.4515 H   0  0  0  0  0  0  0  0  0  0  0  0
   14.7943   63.3613   30.8224 S   0  0  0  0  0  0  0  0  0  0  0  0
   14.8712   61.9235   30.7045 O   0  0  0  0  0  0  0  0  0  0  0  0
   15.7019   64.0189   31.7575 O   0  0  0  0  0  0  0  0  0  0  0  0
   13.1248   63.8483   31.1954 C   0  0  0  0  0  0  0  0  0  0  0  0
   12.7400   65.2208   31.2314 C   0  0  0  0  0  0  0  0  0  0  0  0
   11.3929   65.5741   31.5596 C   0  0  0  0  0  0  0  0  0  0  0  0
   10.4338   64.5554   31.8550 C   0  0  0  0  0  0  0  0  0  0  0  0
    9.0884   64.8875   32.1881 C   0  0  0  0  0  0  0  0  0  0  0  0
    8.1475   63.8558   32.4819 C   0  0  0  0  0  0  0  0  0  0  0  0
    8.5451   62.4863   32.4401 C   0  0  0  0  0  0  0  0  0  0  0  0
    9.8821   62.1447   32.1101 C   0  0  0  0  0  0  0  0  0  0  0  0
   10.8327   63.1672   31.8163 C   0  0  0  0  0  0  0  0  0  0  0  0
   12.1654   62.8318   31.4910 C   0  0  0  0  0  0  0  0  0  0  0  0
   14.0177   63.3243   27.0870 C   0  0  0  0  0  0  0  0  0  0  0  0
   12.5667   63.2004   27.5851 C   0  0  0  0  0  0  0  0  0  0  0  0
   11.7225   64.3543   27.7102 C   0  0  0  0  0  0  0  0  0  0  0  0
   10.3742   64.2312   28.1710 C   0  0  0  0  0  0  0  0  0  0  0  0
    9.8743   62.9348   28.5043 C   0  0  0  0  0  0  0  0  0  0  0  0
   10.6963   61.7863   28.3867 C   0  0  0  0  0  0  0  0  0  0  0  0
   12.0315   61.9136   27.9333 C   0  0  0  0  0  0  0  0  0  0  0  0
    9.4900   65.4444   28.3101 C   0  0  0  0  0  0  0  0  0  0  0  0
   10.0211   66.6235   28.5355 N   0  0  0  0  0  0  0  0  0  0  0  0
    8.1955   65.3134   28.2059 N   0  0  0  0  0  0  0  0  0  0  0  0
   10.9981   66.7167   28.6131 H   0  0  0  0  0  0  0  0  0  0  0  0
    7.8025   64.4267   28.0368 H   0  0  0  0  0  0  0  0  0  0  0  0
    7.6121   66.1012   28.2965 H   0  0  0  0  0  0  0  0  0  0  0  0
 22 23  2  0  0  0
 22 24  2  0  0  0
 22 20  1  0  0  0
 22 25  1  0  0  0
 20  1  1  0  0  0
  1  2  1  0  0  0
  1 35  1  0  0  0
  2  3  1  0  0  0
  2  9  2  0  0  0
  3  4  1  0  0  0
  3  8  1  0  0  0
  4  5  1  0  0  0
  5  6  1  0  0  0
  6 10  1  0  0  0
  6  7  1  0  0  0
 10 11  1  0  0  0
 11 12  1  0  0  0
 12 14  1  0  0  0
 14 15  2  0  0  0
 14 16  1  0  0  0
  7  8  1  0  0  0
 35 36  1  0  0  0
 36 37  2  0  0  0
 36 41  1  0  0  0
 37 38  1  0  0  0
 38 42  1  0  0  0
 38 39  2  0  0  0
 42 43  2  0  0  0
 42 44  1  0  0  0
 39 40  1  0  0  0
 40 41  2  0  0  0
 25 26  1  0  0  0
 25 34  2  0  0  0
 26 27  2  0  0  0
 27 28  1  0  0  0
 28 29  2  0  0  0
 28 33  1  0  0  0
 29 30  1  0  0  0
 30 31  2  0  0  0
 31 32  1  0  0  0
 32 33  2  0  0  0
 33 34  1  0  0  0
 20 21  1  0  0  0
 12 13  1  0  0  0
 15 17  1  0  0  0
 16 18  1  0  0  0
 16 19  1  0  0  0
 43 45  1  0  0  0
 44 46  1  0  0  0
 44 47  1  0  0  0
M  END
> <minimizedAffinity>
-8.41229

$$$$
2GV6_730_A_1


 47 50  0  0  0  0  0  0  0  0999 V2000
   14.3650   65.2072   26.9732 C   0  0  0  0  0  0  0  0  0  0  0  0
   15.0685   65.5404   25.6400 C   0  0  0  0  0  0  0  0  0  0  0  0
   15.2699   64.6552   24.5638 N   0  0  0  0  0  0  0  0  0  0  0  0
   15.9376   65.1744   23.3420 C   0  0  0  0  0  0  0  0  0  0  0  0
   17.0993   64.2424   22.8917 C   0  0  0  0  0  0  0  0  0  0  0  0
   17.3576   63.0814   23.8840 C   0  0  0  0  0  0  0  0  0  0  0  0
   16.0117   62.2888   24.0926 C   0  0  0  0  0  0  0  0  0  0  0  0
   14.8301   63.2322   24.5782 C   0  0  0  0  0  0  0  0  0  0  0  0
   15.4630   66.7181   25.5751 O   0  0  0  0  0  0  0  0  0  0  0  0
   18.5717   62.1824   23.3936 C   0  0  0  0  0  0  0  0  0  0  0  0
   18.5560   60.6336   23.6584 C   0  0  0  0  0  0  0  0  0  0  0  0
   19.2105   60.3145   24.9636 N   0  0  0  0  0  0  0  0  0  0  0  0
   19.2598   61.0350   25.6327 H   0  0  0  0  0  0  0  0  0  0  0  0
   19.7376   59.1234   25.2988 C   0  0  0  0  0  0  0  0  0  0  0  0
   19.4068   58.0580   24.5846 N   0  0  0  0  0  0  0  0  0  0  0  0
   20.5728   58.9567   26.3061 N   0  0  0  0  0  0  0  0  0  0  0  0
   18.7857   58.1475   23.8259 H   0  0  0  0  0  0  0  0  0  0  0  0
   20.8393   59.7276   26.8573 H   0  0  0  0  0  0  0  0  0  0  0  0
   20.9295   58.0613   26.5067 H   0  0  0  0  0  0  0  0  0  0  0  0
   15.3763   65.2037   27.9977 N   0  0  0  0  0  0  0  0  0  0  0  0
   16.1704   65.7064   27.6015 H   0  0  0  0  0  0  0  0  0  0  0  0
   15.9844   63.8919   28.6526 S   0  0  0  0  0  0  0  0  0  0  0  0
   16.5264   63.0616   27.6019 O   0  0  0  0  0  0  0  0  0  0  0  0
   16.8723   64.2760   29.7456 O   0  0  0  0  0  0  0  0  0  0  0  0
   14.5255   63.1331   29.3303 C   0  0  0  0  0  0  0  0  0  0  0  0
   14.3178   63.0445   30.7382 C   0  0  0  0  0  0  0  0  0  0  0  0
   13.1430   62.4046   31.2456 C   0  0  0  0  0  0  0  0  0  0  0  0
   12.1797   61.8511   30.3453 C   0  0  0  0  0  0  0  0  0  0  0  0
   11.0053   61.2062   30.8316 C   0  0  0  0  0  0  0  0  0  0  0  0
   10.0577   60.6583   29.9162 C   0  0  0  0  0  0  0  0  0  0  0  0
   10.2765   60.7558   28.5099 C   0  0  0  0  0  0  0  0  0  0  0  0
   11.4426   61.3953   28.0151 C   0  0  0  0  0  0  0  0  0  0  0  0
   12.3984   61.9453   28.9202 C   0  0  0  0  0  0  0  0  0  0  0  0
   13.5622   62.5793   28.4322 C   0  0  0  0  0  0  0  0  0  0  0  0
   13.1376   66.1757   27.1576 C   0  0  0  0  0  0  0  0  0  0  0  0
   11.9836   65.6793   28.0468 C   0  0  0  0  0  0  0  0  0  0  0  0
   12.0493   65.7826   29.4768 C   0  0  0  0  0  0  0  0  0  0  0  0
   10.9719   65.3218   30.2966 C   0  0  0  0  0  0  0  0  0  0  0  0
    9.8196   64.7565   29.6686 C   0  0  0  0  0  0  0  0  0  0  0  0
    9.7406   64.6471   28.2578 C   0  0  0  0  0  0  0  0  0  0  0  0
   10.8113   65.1016   27.4505 C   0  0  0  0  0  0  0  0  0  0  0  0
   11.0446   65.4230   31.7991 C   0  0  0  0  0  0  0  0  0  0  0  0
   12.1070   65.9372   32.3735 N   0  0  0  0  0  0  0  0  0  0  0  0
   10.0457   64.9953   32.5225 N   0  0  0  0  0  0  0  0  0  0  0  0
   12.8574   66.2582   31.8230 H   0  0  0  0  0  0  0  0  0  0  0  0
    9.2513   64.6106   32.0864 H   0  0  0  0  0  0  0  0  0  0  0  0
   10.0868   65.0576   33.5042 H   0  0  0  0  0  0  0  0  0  0  0  0
 22 23  2  0  0  0
 22 24  2  0  0  0
 22 20  1  0  0  0
 22 25  1  0  0  0
 20  1  1  0  0  0
  1  2  1  0  0  0
  1 35  1  0  0  0
  2  3  1  0  0  0
  2  9  2  0  0  0
  3  4  1  0  0  0
  3  8  1  0  0  0
  4  5  1  0  0  0
  5  6  1  0  0  0
  6 10  1  0  0  0
  6  7  1  0  0  0
 10 11  1  0  0  0
 11 12  1  0  0  0
 12 14  1  0  0  0
 14 15  2  0  0  0
 14 16  1  0  0  0
  7  8  1  0  0  0
 35 36  1  0  0  0
 36 37  2  0  0  0
 36 41  1  0  0  0
 37 38  1  0  0  0
 38 42  1  0  0  0
 38 39  2  0  0  0
 42 43  2  0  0  0
 42 44  1  0  0  0
 39 40  1  0  0  0
 40 41  2  0  0  0
 25 26  1  0  0  0
 25 34  2  0  0  0
 26 27  2  0  0  0
 27 28  1  0  0  0
 28 29  2  0  0  0
 28 33  1  0  0  0
 29 30  1  0  0  0
 30 31  2  0  0  0
 31 32  1  0  0  0
 32 33  2  0  0  0
 33 34  1  0  0  0
 20 21  1  0  0  0
 12 13  1  0  0  0
 15 17  1  0  0  0
 16 18  1  0  0  0
 16 19  1  0  0  0
 43 45  1  0  0  0
 44 46  1  0  0  0
 44 47  1  0  0  0
M  END
> <minimizedAffinity>
-8.32636

$$$$
2GV6_730_A_1


 47 50  0  0  0  0  0  0  0  0999 V2000
   14.7695   65.4754   22.9858 C   0  0  0  0  0  0  0  0  0  0  0  0
   14.9815   64.7479   24.3309 C   0  0  0  0  0  0  0  0  0  0  0  0
   16.1803   64.6977   25.0675 N   0  0  0  0  0  0  0  0  0  0  0  0
   16.1775   63.9759   26.3664 C   0  0  0  0  0  0  0  0  0  0  0  0
   17.3651   62.9750   26.4610 C   0  0  0  0  0  0  0  0  0  0  0  0
   18.1789   62.8818   25.1463 C   0  0  0  0  0  0  0  0  0  0  0  0
   18.6570   64.3292   24.7467 C   0  0  0  0  0  0  0  0  0  0  0  0
   17.4447   65.3476   24.6229 C   0  0  0  0  0  0  0  0  0  0  0  0
   13.9564   64.1806   24.7481 O   0  0  0  0  0  0  0  0  0  0  0  0
   19.3559   61.8247   25.2874 C   0  0  0  0  0  0  0  0  0  0  0  0
   19.2265   60.4137   24.6082 C   0  0  0  0  0  0  0  0  0  0  0  0
   19.7605   59.3447   25.5058 N   0  0  0  0  0  0  0  0  0  0  0  0
   20.2198   59.6323   26.3278 H   0  0  0  0  0  0  0  0  0  0  0  0
   19.6648   58.0218   25.2825 C   0  0  0  0  0  0  0  0  0  0  0  0
   20.4186   57.2001   25.9974 N   0  0  0  0  0  0  0  0  0  0  0  0
   18.8550   57.4938   24.3852 N   0  0  0  0  0  0  0  0  0  0  0  0
   21.0341   57.5613   26.6757 H   0  0  0  0  0  0  0  0  0  0  0  0
   18.2810   58.0761   23.8368 H   0  0  0  0  0  0  0  0  0  0  0  0
   18.8245   56.5173   24.2638 H   0  0  0  0  0  0  0  0  0  0  0  0
   15.2266   64.5895   21.9472 N   0  0  0  0  0  0  0  0  0  0  0  0
   15.5096   63.7323   22.4222 H   0  0  0  0  0  0  0  0  0  0  0  0
   16.4023   64.9256   20.9353 S   0  0  0  0  0  0  0  0  0  0  0  0
   17.5561   65.3496   21.6946 O   0  0  0  0  0  0  0  0  0  0  0  0
   16.5665   63.8075   20.0115 O   0  0  0  0  0  0  0  0  0  0  0  0
   15.7173   66.3102   20.0537 C   0  0  0  0  0  0  0  0  0  0  0  0
   14.7053   66.1360   19.0645 C   0  0  0  0  0  0  0  0  0  0  0  0
   14.1965   67.2720   18.3589 C   0  0  0  0  0  0  0  0  0  0  0  0
   14.7025   68.5795   18.6406 C   0  0  0  0  0  0  0  0  0  0  0  0
   14.2113   69.7227   17.9456 C   0  0  0  0  0  0  0  0  0  0  0  0
   14.7316   71.0184   18.2400 C   0  0  0  0  0  0  0  0  0  0  0  0
   15.7424   71.1790   19.2338 C   0  0  0  0  0  0  0  0  0  0  0  0
   16.2388   70.0474   19.9313 C   0  0  0  0  0  0  0  0  0  0  0  0
   15.7281   68.7465   19.6446 C   0  0  0  0  0  0  0  0  0  0  0  0
   16.2220   67.6171   20.3338 C   0  0  0  0  0  0  0  0  0  0  0  0
   13.2823   65.9865   22.9118 C   0  0  0  0  0  0  0  0  0  0  0  0
   13.0575   67.4029   22.3531 C   0  0  0  0  0  0  0  0  0  0  0  0
   12.1131   67.6455   21.3000 C   0  0  0  0  0  0  0  0  0  0  0  0
   11.9073   68.9648   20.7877 C   0  0  0  0  0  0  0  0  0  0  0  0
   12.6572   70.0462   21.3446 C   0  0  0  0  0  0  0  0  0  0  0  0
   13.5938   69.8220   22.3842 C   0  0  0  0  0  0  0  0  0  0  0  0
   13.7965   68.5136   22.8858 C   0  0  0  0  0  0  0  0  0  0  0  0
   10.9212   69.2183   19.6759 C   0  0  0  0  0  0  0  0  0  0  0  0
   10.8292   68.3764   18.6730 N   0  0  0  0  0  0  0  0  0  0  0  0
   10.1621   70.2794   19.7176 N   0  0  0  0  0  0  0  0  0  0  0  0
   11.4042   67.5776   18.6465 H   0  0  0  0  0  0  0  0  0  0  0  0
   10.2352   70.9075   20.4722 H   0  0  0  0  0  0  0  0  0  0  0  0
    9.5165   70.4516   18.9946 H   0  0  0  0  0  0  0  0  0  0  0  0
 22 23  2  0  0  0
 22 24  2  0  0  0
 22 20  1  0  0  0
 22 25  1  0  0  0
 20  1  1  0  0  0
  1  2  1  0  0  0
  1 35  1  0  0  0
  2  3  1  0  0  0
  2  9  2  0  0  0
  3  4  1  0  0  0
  3  8  1  0  0  0
  4  5  1  0  0  0
  5  6  1  0  0  0
  6 10  1  0  0  0
  6  7  1  0  0  0
 10 11  1  0  0  0
 11 12  1  0  0  0
 12 14  1  0  0  0
 14 15  2  0  0  0
 14 16  1  0  0  0
  7  8  1  0  0  0
 35 36  1  0  0  0
 36 37  2  0  0  0
 36 41  1  0  0  0
 37 38  1  0  0  0
 38 42  1  0  0  0
 38 39  2  0  0  0
 42 43  2  0  0  0
 42 44  1  0  0  0
 39 40  1  0  0  0
 40 41  2  0  0  0
 25 26  1  0  0  0
 25 34  2  0  0  0
 26 27  2  0  0  0
 27 28  1  0  0  0
 28 29  2  0  0  0
 28 33  1  0  0  0
 29 30  1  0  0  0
 30 31  2  0  0  0
 31 32  1  0  0  0
 32 33  2  0  0  0
 33 34  1  0  0  0
 20 21  1  0  0  0
 12 13  1  0  0  0
 15 17  1  0  0  0
 16 18  1  0  0  0
 16 19  1  0  0  0
 43 45  1  0  0  0
 44 46  1  0  0  0
 44 47  1  0  0  0
M  END
> <minimizedAffinity>
-8.29461

$$$$
2GV6_730_A_1


 47 50  0  0  0  0  0  0  0  0999 V2000
   15.5458   65.8939   22.6737 C   0  0  0  0  0  0  0  0  0  0  0  0
   15.3080   64.7087   23.6341 C   0  0  0  0  0  0  0  0  0  0  0  0
   16.0136   64.4507   24.8248 N   0  0  0  0  0  0  0  0  0  0  0  0
   15.6117   63.2747   25.6394 C   0  0  0  0  0  0  0  0  0  0  0  0
   16.8419   62.4001   26.0174 C   0  0  0  0  0  0  0  0  0  0  0  0
   18.1540   62.8905   25.3560 C   0  0  0  0  0  0  0  0  0  0  0  0
   18.3699   64.4061   25.7294 C   0  0  0  0  0  0  0  0  0  0  0  0
   17.1273   65.3065   25.3208 C   0  0  0  0  0  0  0  0  0  0  0  0
   14.3900   63.9553   23.2648 O   0  0  0  0  0  0  0  0  0  0  0  0
   19.3686   61.9452   25.7484 C   0  0  0  0  0  0  0  0  0  0  0  0
   19.5544   60.5658   25.0193 C   0  0  0  0  0  0  0  0  0  0  0  0
   20.0851   59.5365   25.9640 N   0  0  0  0  0  0  0  0  0  0  0  0
   20.5877   59.8580   26.7472 H   0  0  0  0  0  0  0  0  0  0  0  0
   19.9323   58.2068   25.8317 C   0  0  0  0  0  0  0  0  0  0  0  0
   20.4716   57.4110   26.7430 N   0  0  0  0  0  0  0  0  0  0  0  0
   19.2691   57.6476   24.8381 N   0  0  0  0  0  0  0  0  0  0  0  0
   20.9732   57.7958   27.4977 H   0  0  0  0  0  0  0  0  0  0  0  0
   18.8559   58.2101   24.1438 H   0  0  0  0  0  0  0  0  0  0  0  0
   19.1873   56.6676   24.7908 H   0  0  0  0  0  0  0  0  0  0  0  0
   15.4261   65.3845   21.3327 N   0  0  0  0  0  0  0  0  0  0  0  0
   14.8250   64.5634   21.4033 H   0  0  0  0  0  0  0  0  0  0  0  0
   16.6534   64.9394   20.4300 S   0  0  0  0  0  0  0  0  0  0  0  0
   17.7661   64.6159   21.2928 O   0  0  0  0  0  0  0  0  0  0  0  0
   16.2028   63.9209   19.4865 O   0  0  0  0  0  0  0  0  0  0  0  0
   16.9948   66.4420   19.5417 C   0  0  0  0  0  0  0  0  0  0  0  0
   18.2589   66.6701   18.9226 C   0  0  0  0  0  0  0  0  0  0  0  0
   18.5042   67.9021   18.2377 C   0  0  0  0  0  0  0  0  0  0  0  0
   17.4872   68.9056   18.1760 C   0  0  0  0  0  0  0  0  0  0  0  0
   17.7139   70.1408   17.5021 C   0  0  0  0  0  0  0  0  0  0  0  0
   16.6866   71.1299   17.4543 C   0  0  0  0  0  0  0  0  0  0  0  0
   15.4255   70.8880   18.0759 C   0  0  0  0  0  0  0  0  0  0  0  0
   15.1895   69.6619   18.7499 C   0  0  0  0  0  0  0  0  0  0  0  0
   16.2093   68.6659   18.8064 C   0  0  0  0  0  0  0  0  0  0  0  0
   15.9799   67.4456   19.4793 C   0  0  0  0  0  0  0  0  0  0  0  0
   14.6055   67.0852   23.0923 C   0  0  0  0  0  0  0  0  0  0  0  0
   13.2188   67.1474   22.4273 C   0  0  0  0  0  0  0  0  0  0  0  0
   12.9805   67.9773   21.2810 C   0  0  0  0  0  0  0  0  0  0  0  0
   11.6900   68.0278   20.6665 C   0  0  0  0  0  0  0  0  0  0  0  0
   10.6348   67.2329   21.2108 C   0  0  0  0  0  0  0  0  0  0  0  0
   10.8547   66.4092   22.3429 C   0  0  0  0  0  0  0  0  0  0  0  0
   12.1331   66.3651   22.9499 C   0  0  0  0  0  0  0  0  0  0  0  0
   11.4378   68.9059   19.4672 C   0  0  0  0  0  0  0  0  0  0  0  0
   10.9699   68.3850   18.3569 N   0  0  0  0  0  0  0  0  0  0  0  0
   11.6887   70.1847   19.5410 N   0  0  0  0  0  0  0  0  0  0  0  0
   10.7824   67.4198   18.3067 H   0  0  0  0  0  0  0  0  0  0  0  0
   12.0395   70.5701   20.3763 H   0  0  0  0  0  0  0  0  0  0  0  0
   11.5271   70.7639   18.7615 H   0  0  0  0  0  0  0  0  0  0  0  0
 22 23  2  0  0  0
 22 24  2  0  0  0
 22 20  1  0  0  0
 22 25  1  0  0  0
 20  1  1  0  0  0
  1  2  1  0  0  0
  1 35  1  0  0  0
  2  3  1  0  0  0
  2  9  2  0  0  0
  3  4  1  0  0  0
  3  8  1  0  0  0
  4  5  1  0  0  0
  5  6  1  0  0  0
  6 10  1  0  0  0
  6  7  1  0  0  0
 10 11  1  0  0  0
 11 12  1  0  0  0
 12 14  1  0  0  0
 14 15  2  0  0  0
 14 16  1  0  0  0
  7  8  1  0  0  0
 35 36  1  0  0  0
 36 37  2  0  0  0
 36 41  1  0  0  0
 37 38  1  0  0  0
 38 42  1  0  0  0
 38 39  2  0  0  0
 42 43  2  0  0  0
 42 44  1  0  0  0
 39 40  1  0  0  0
 40 41  2  0  0  0
 25 26  1  0  0  0
 25 34  2  0  0  0
 26 27  2  0  0  0
 27 28  1  0  0  0
 28 29  2  0  0  0
 28 33  1  0  0  0
 29 30  1  0  0  0
 30 31  2  0  0  0
 31 32  1  0  0  0
 32 33  2  0  0  0
 33 34  1  0  0  0
 20 21  1  0  0  0
 12 13  1  0  0  0
 15 17  1  0  0  0
 16 18  1  0  0  0
 16 19  1  0  0  0
 43 45  1  0  0  0
 44 46  1  0  0  0
 44 47  1  0  0  0
M  END
> <minimizedAffinity>
-8.12238

$$$$
2GV6_730_A_1


 47 50  0  0  0  0  0  0  0  0999 V2000
   17.9967   63.6655   26.4864 C   0  0  0  0  0  0  0  0  0  0  0  0
   16.7972   63.3367   25.5716 C   0  0  0  0  0  0  0  0  0  0  0  0
   16.2747   64.1633   24.5588 N   0  0  0  0  0  0  0  0  0  0  0  0
   15.1341   63.6538   23.7542 C   0  0  0  0  0  0  0  0  0  0  0  0
   13.9839   64.6989   23.6764 C   0  0  0  0  0  0  0  0  0  0  0  0
   14.2491   65.9506   24.5495 C   0  0  0  0  0  0  0  0  0  0  0  0
   15.6378   66.5689   24.1343 C   0  0  0  0  0  0  0  0  0  0  0  0
   16.8188   65.5124   24.2381 C   0  0  0  0  0  0  0  0  0  0  0  0
   16.2982   62.2207   25.8001 O   0  0  0  0  0  0  0  0  0  0  0  0
   13.0321   66.9672   24.4588 C   0  0  0  0  0  0  0  0  0  0  0  0
   12.1153   66.9791   23.1827 C   0  0  0  0  0  0  0  0  0  0  0  0
   10.6735   66.8979   23.5676 N   0  0  0  0  0  0  0  0  0  0  0  0
   10.4391   67.1334   24.4943 H   0  0  0  0  0  0  0  0  0  0  0  0
    9.6701   66.5294   22.7514 C   0  0  0  0  0  0  0  0  0  0  0  0
    9.9229   66.3817   21.4595 N   0  0  0  0  0  0  0  0  0  0  0  0
    8.4396   66.3039   23.1696 N   0  0  0  0  0  0  0  0  0  0  0  0
   10.8307   66.5421   21.1141 H   0  0  0  0  0  0  0  0  0  0  0  0
    8.2177   66.4046   24.1235 H   0  0  0  0  0  0  0  0  0  0  0  0
    7.7430   66.0351   22.5279 H   0  0  0  0  0  0  0  0  0  0  0  0
   17.6708   63.1842   27.8034 N   0  0  0  0  0  0  0  0  0  0  0  0
   16.8961   62.5333   27.6742 H   0  0  0  0  0  0  0  0  0  0  0  0
   17.2496   64.1140   29.0188 S   0  0  0  0  0  0  0  0  0  0  0  0
   18.2090   63.9408   30.0851 O   0  0  0  0  0  0  0  0  0  0  0  0
   17.0181   65.4669   28.5222 O   0  0  0  0  0  0  0  0  0  0  0  0
   15.6919   63.3931   29.4849 C   0  0  0  0  0  0  0  0  0  0  0  0
   15.4002   63.0633   30.8411 C   0  0  0  0  0  0  0  0  0  0  0  0
   14.1452   62.4618   31.1734 C   0  0  0  0  0  0  0  0  0  0  0  0
   13.1856   62.1875   30.1493 C   0  0  0  0  0  0  0  0  0  0  0  0
   11.9318   61.5850   30.4599 C   0  0  0  0  0  0  0  0  0  0  0  0
   10.9891   61.3174   29.4227 C   0  0  0  0  0  0  0  0  0  0  0  0
   11.2926   61.6545   28.0701 C   0  0  0  0  0  0  0  0  0  0  0  0
   12.5381   62.2541   27.7499 C   0  0  0  0  0  0  0  0  0  0  0  0
   13.4898   62.5249   28.7777 C   0  0  0  0  0  0  0  0  0  0  0  0
   14.7321   63.1181   28.4629 C   0  0  0  0  0  0  0  0  0  0  0  0
   19.3136   63.1257   25.8134 C   0  0  0  0  0  0  0  0  0  0  0  0
   19.2516   61.7227   25.1836 C   0  0  0  0  0  0  0  0  0  0  0  0
   19.6993   60.5643   25.9030 C   0  0  0  0  0  0  0  0  0  0  0  0
   19.6360   59.2633   25.3125 C   0  0  0  0  0  0  0  0  0  0  0  0
   19.1144   59.1307   23.9888 C   0  0  0  0  0  0  0  0  0  0  0  0
   18.6694   60.2654   23.2658 C   0  0  0  0  0  0  0  0  0  0  0  0
   18.7372   61.5518   23.8533 C   0  0  0  0  0  0  0  0  0  0  0  0
   20.1138   58.0476   26.0653 C   0  0  0  0  0  0  0  0  0  0  0  0
   19.7687   56.8467   25.6631 N   0  0  0  0  0  0  0  0  0  0  0  0
   20.8704   58.1982   27.1182 N   0  0  0  0  0  0  0  0  0  0  0  0
   19.1978   56.7388   24.8683 H   0  0  0  0  0  0  0  0  0  0  0  0
   21.1262   59.1012   27.4155 H   0  0  0  0  0  0  0  0  0  0  0  0
   21.1854   57.4088   27.6151 H   0  0  0  0  0  0  0  0  0  0  0  0
 22 23  2  0  0  0
 22 24  2  0  0  0
 22 20  1  0  0  0
 22 25  1  0  0  0
 20  1  1  0  0  0
  1  2  1  0  0  0
  1 35  1  0  0  0
  2  3  1  0  0  0
  2  9  2  0  0  0
  3  4  1  0  0  0
  3  8  1  0  0  0
  4  5  1  0  0  0
  5  6  1  0  0  0
  6 10  1  0  0  0
  6  7  1  0  0  0
 10 11  1  0  0  0
 11 12  1  0  0  0
 12 14  1  0  0  0
 14 15  2  0  0  0
 14 16  1  0  0  0
  7  8  1  0  0  0
 35 36  1  0  0  0
 36 37  2  0  0  0
 36 41  1  0  0  0
 37 38  1  0  0  0
 38 42  1  0  0  0
 38 39  2  0  0  0
 42 43  2  0  0  0
 42 44  1  0  0  0
 39 40  1  0  0  0
 40 41  2  0  0  0
 25 26  1  0  0  0
 25 34  2  0  0  0
 26 27  2  0  0  0
 27 28  1  0  0  0
 28 29  2  0  0  0
 28 33  1  0  0  0
 29 30  1  0  0  0
 30 31  2  0  0  0
 31 32  1  0  0  0
 32 33  2  0  0  0
 33 34  1  0  0  0
 20 21  1  0  0  0
 12 13  1  0  0  0
 15 17  1  0  0  0
 16 18  1  0  0  0
 16 19  1  0  0  0
 43 45  1  0  0  0
 44 46  1  0  0  0
 44 47  1  0  0  0
M  END
> <minimizedAffinity>
-8.06168

$$$$
2GV6_730_A_1


 47 50  0  0  0  0  0  0  0  0999 V2000
   14.8975   63.5980   27.9902 C   0  0  0  0  0  0  0  0  0  0  0  0
   16.2209   64.0682   27.3492 C   0  0  0  0  0  0  0  0  0  0  0  0
   16.5725   63.9520   25.9908 N   0  0  0  0  0  0  0  0  0  0  0  0
   17.8823   64.5015   25.5543 C   0  0  0  0  0  0  0  0  0  0  0  0
   18.6801   63.4637   24.7131 C   0  0  0  0  0  0  0  0  0  0  0  0
   17.9812   62.0832   24.6415 C   0  0  0  0  0  0  0  0  0  0  0  0
   16.5179   62.2877   24.0936 C   0  0  0  0  0  0  0  0  0  0  0  0
   15.6916   63.3263   24.9656 C   0  0  0  0  0  0  0  0  0  0  0  0
   16.9997   64.5950   28.1632 O   0  0  0  0  0  0  0  0  0  0  0  0
   18.8521   61.0552   23.8004 C   0  0  0  0  0  0  0  0  0  0  0  0
   18.8179   59.5252   24.1567 C   0  0  0  0  0  0  0  0  0  0  0  0
   20.0074   59.1479   24.9792 N   0  0  0  0  0  0  0  0  0  0  0  0
   20.8102   59.7121   24.8985 H   0  0  0  0  0  0  0  0  0  0  0  0
   20.0708   58.1006   25.8207 C   0  0  0  0  0  0  0  0  0  0  0  0
   19.4740   56.9698   25.4745 N   0  0  0  0  0  0  0  0  0  0  0  0
   20.7000   58.1373   26.9794 N   0  0  0  0  0  0  0  0  0  0  0  0
   18.9955   56.9084   24.6163 H   0  0  0  0  0  0  0  0  0  0  0  0
   21.1540   58.9621   27.2671 H   0  0  0  0  0  0  0  0  0  0  0  0
   20.7157   57.3398   27.5565 H   0  0  0  0  0  0  0  0  0  0  0  0
   14.8092   64.2189   29.2861 N   0  0  0  0  0  0  0  0  0  0  0  0
   15.5963   64.8658   29.3349 H   0  0  0  0  0  0  0  0  0  0  0  0
   14.8202   63.4275   30.6618 S   0  0  0  0  0  0  0  0  0  0  0  0
   15.0358   62.0260   30.3851 O   0  0  0  0  0  0  0  0  0  0  0  0
   15.7386   64.0906   31.5825 O   0  0  0  0  0  0  0  0  0  0  0  0
   13.1519   63.6826   31.2232 C   0  0  0  0  0  0  0  0  0  0  0  0
   12.3851   62.6203   31.7862 C   0  0  0  0  0  0  0  0  0  0  0  0
   11.0375   62.8588   32.2037 C   0  0  0  0  0  0  0  0  0  0  0  0
   10.4574   64.1573   32.0547 C   0  0  0  0  0  0  0  0  0  0  0  0
    9.1155   64.4134   32.4609 C   0  0  0  0  0  0  0  0  0  0  0  0
    8.5548   65.7157   32.3011 C   0  0  0  0  0  0  0  0  0  0  0  0
    9.3337   66.7703   31.7386 C   0  0  0  0  0  0  0  0  0  0  0  0
   10.6705   66.5260   31.3304 C   0  0  0  0  0  0  0  0  0  0  0  0
   11.2418   65.2277   31.4831 C   0  0  0  0  0  0  0  0  0  0  0  0
   12.5707   64.9793   31.0747 C   0  0  0  0  0  0  0  0  0  0  0  0
   13.7214   63.8504   26.9744 C   0  0  0  0  0  0  0  0  0  0  0  0
   12.2882   63.7515   27.5267 C   0  0  0  0  0  0  0  0  0  0  0  0
   11.7662   62.5096   28.0217 C   0  0  0  0  0  0  0  0  0  0  0  0
   10.4344   62.4258   28.5361 C   0  0  0  0  0  0  0  0  0  0  0  0
    9.6260   63.6039   28.5539 C   0  0  0  0  0  0  0  0  0  0  0  0
   10.1273   64.8370   28.0677 C   0  0  0  0  0  0  0  0  0  0  0  0
   11.4453   64.9143   27.5563 C   0  0  0  0  0  0  0  0  0  0  0  0
    9.8835   61.1194   29.0486 C   0  0  0  0  0  0  0  0  0  0  0  0
   10.2536   59.9873   28.4968 N   0  0  0  0  0  0  0  0  0  0  0  0
    9.0368   61.1228   30.0420 N   0  0  0  0  0  0  0  0  0  0  0  0
   10.8925   59.9905   27.7478 H   0  0  0  0  0  0  0  0  0  0  0  0
    8.7626   61.9748   30.4521 H   0  0  0  0  0  0  0  0  0  0  0  0
    8.6724   60.2735   30.3812 H   0  0  0  0  0  0  0  0  0  0  0  0
 22 23  2  0  0  0
 22 24  2  0  0  0
 22 20  1  0  0  0
 22 25  1  0  0  0
 20  1  1  0  0  0
  1  2  1  0  0  0
  1 35  1  0  0  0
  2  3  1  0  0  0
  2  9  2  0  0  0
  3  4  1  0  0  0
  3  8  1  0  0  0
  4  5  1  0  0  0
  5  6  1  0  0  0
  6 10  1  0  0  0
  6  7  1  0  0  0
 10 11  1  0  0  0
 11 12  1  0  0  0
 12 14  1  0  0  0
 14 15  2  0  0  0
 14 16  1  0  0  0
  7  8  1  0  0  0
 35 36  1  0  0  0
 36 37  2  0  0  0
 36 41  1  0  0  0
 37 38  1  0  0  0
 38 42  1  0  0  0
 38 39  2  0  0  0
 42 43  2  0  0  0
 42 44  1  0  0  0
 39 40  1  0  0  0
 40 41  2  0  0  0
 25 26  1  0  0  0
 25 34  2  0  0  0
 26 27  2  0  0  0
 27 28  1  0  0  0
 28 29  2  0  0  0
 28 33  1  0  0  0
 29 30  1  0  0  0
 30 31  2  0  0  0
 31 32  1  0  0  0
 32 33  2  0  0  0
 33 34  1  0  0  0
 20 21  1  0  0  0
 12 13  1  0  0  0
 15 17  1  0  0  0
 16 18  1  0  0  0
 16 19  1  0  0  0
 43 45  1  0  0  0
 44 46  1  0  0  0
 44 47  1  0  0  0
M  END
> <minimizedAffinity>
-8.05044

$$$$
2GV6_730_A_1


 47 50  0  0  0  0  0  0  0  0999 V2000
   13.5895   64.4722   27.1460 C   0  0  0  0  0  0  0  0  0  0  0  0
   15.0360   64.8043   26.7204 C   0  0  0  0  0  0  0  0  0  0  0  0
   15.6365   64.4721   25.4911 N   0  0  0  0  0  0  0  0  0  0  0  0
   17.0344   64.9142   25.2494 C   0  0  0  0  0  0  0  0  0  0  0  0
   17.9208   63.7394   24.7441 C   0  0  0  0  0  0  0  0  0  0  0  0
   17.1734   62.3828   24.7359 C   0  0  0  0  0  0  0  0  0  0  0  0
   15.8573   62.5384   23.8834 C   0  0  0  0  0  0  0  0  0  0  0  0
   14.9369   63.7194   24.4127 C   0  0  0  0  0  0  0  0  0  0  0  0
   15.6708   65.4294   27.5881 O   0  0  0  0  0  0  0  0  0  0  0  0
   18.1319   61.2158   24.2439 C   0  0  0  0  0  0  0  0  0  0  0  0
   19.1893   60.6025   25.2312 C   0  0  0  0  0  0  0  0  0  0  0  0
   19.5648   59.2186   24.8098 N   0  0  0  0  0  0  0  0  0  0  0  0
   19.5507   59.0202   23.8456 H   0  0  0  0  0  0  0  0  0  0  0  0
   19.9203   58.2221   25.6402 C   0  0  0  0  0  0  0  0  0  0  0  0
   20.7302   58.4960   26.6519 N   0  0  0  0  0  0  0  0  0  0  0  0
   19.5030   56.9785   25.5023 N   0  0  0  0  0  0  0  0  0  0  0  0
   21.0602   59.4141   26.7837 H   0  0  0  0  0  0  0  0  0  0  0  0
   18.9002   56.7408   24.7611 H   0  0  0  0  0  0  0  0  0  0  0  0
   19.7942   56.2879   26.1407 H   0  0  0  0  0  0  0  0  0  0  0  0
   12.7146   65.3038   26.3617 N   0  0  0  0  0  0  0  0  0  0  0  0
   13.3106   66.0277   25.9601 H   0  0  0  0  0  0  0  0  0  0  0  0
   11.4467   66.0651   26.9380 S   0  0  0  0  0  0  0  0  0  0  0  0
   10.5540   65.0931   27.5259 O   0  0  0  0  0  0  0  0  0  0  0  0
   11.8988   67.1712   27.7762 O   0  0  0  0  0  0  0  0  0  0  0  0
   10.7287   66.7217   25.4491 C   0  0  0  0  0  0  0  0  0  0  0  0
    9.3404   67.0366   25.3680 C   0  0  0  0  0  0  0  0  0  0  0  0
    8.7948   67.5400   24.1449 C   0  0  0  0  0  0  0  0  0  0  0  0
    9.6369   67.7243   23.0038 C   0  0  0  0  0  0  0  0  0  0  0  0
    9.1113   68.2207   21.7756 C   0  0  0  0  0  0  0  0  0  0  0  0
    9.9682   68.3950   20.6481 C   0  0  0  0  0  0  0  0  0  0  0  0
   11.3560   68.0784   20.7433 C   0  0  0  0  0  0  0  0  0  0  0  0
   11.8894   67.5830   21.9613 C   0  0  0  0  0  0  0  0  0  0  0  0
   11.0425   67.4025   23.0951 C   0  0  0  0  0  0  0  0  0  0  0  0
   11.5686   66.9062   24.3081 C   0  0  0  0  0  0  0  0  0  0  0  0
   13.3816   62.9134   27.0712 C   0  0  0  0  0  0  0  0  0  0  0  0
   12.5796   62.2603   28.2110 C   0  0  0  0  0  0  0  0  0  0  0  0
   12.9760   62.4137   29.5818 C   0  0  0  0  0  0  0  0  0  0  0  0
   12.2243   61.8063   30.6360 C   0  0  0  0  0  0  0  0  0  0  0  0
   11.0633   61.0422   30.3042 C   0  0  0  0  0  0  0  0  0  0  0  0
   10.6601   60.8811   28.9552 C   0  0  0  0  0  0  0  0  0  0  0  0
   11.4095   61.4816   27.9148 C   0  0  0  0  0  0  0  0  0  0  0  0
   12.6454   61.9609   32.0753 C   0  0  0  0  0  0  0  0  0  0  0  0
   13.8066   61.4971   32.4748 N   0  0  0  0  0  0  0  0  0  0  0  0
   11.8479   62.5571   32.9193 N   0  0  0  0  0  0  0  0  0  0  0  0
   14.4042   61.0483   31.8340 H   0  0  0  0  0  0  0  0  0  0  0  0
   10.9781   62.9030   32.6143 H   0  0  0  0  0  0  0  0  0  0  0  0
   12.1161   62.6607   33.8609 H   0  0  0  0  0  0  0  0  0  0  0  0
 22 23  2  0  0  0
 22 24  2  0  0  0
 22 20  1  0  0  0
 22 25  1  0  0  0
 20  1  1  0  0  0
  1  2  1  0  0  0
  1 35  1  0  0  0
  2  3  1  0  0  0
  2  9  2  0  0  0
  3  4  1  0  0  0
  3  8  1  0  0  0
  4  5  1  0  0  0
  5  6  1  0  0  0
  6 10  1  0  0  0
  6  7  1  0  0  0
 10 11  1  0  0  0
 11 12  1  0  0  0
 12 14  1  0  0  0
 14 15  2  0  0  0
 14 16  1  0  0  0
  7  8  1  0  0  0
 35 36  1  0  0  0
 36 37  2  0  0  0
 36 41  1  0  0  0
 37 38  1  0  0  0
 38 42  1  0  0  0
 38 39  2  0  0  0
 42 43  2  0  0  0
 42 44  1  0  0  0
 39 40  1  0  0  0
 40 41  2  0  0  0
 25 26  1  0  0  0
 25 34  2  0  0  0
 26 27  2  0  0  0
 27 28  1  0  0  0
 28 29  2  0  0  0
 28 33  1  0  0  0
 29 30  1  0  0  0
 30 31  2  0  0  0
 31 32  1  0  0  0
 32 33  2  0  0  0
 33 34  1  0  0  0
 20 21  1  0  0  0
 12 13  1  0  0  0
 15 17  1  0  0  0
 16 18  1  0  0  0
 16 19  1  0  0  0
 43 45  1  0  0  0
 44 46  1  0  0  0
 44 47  1  0  0  0
M  END
> <minimizedAffinity>
-8.03261

$$$$
2GV6_730_A_1


 47 50  0  0  0  0  0  0  0  0999 V2000
   16.1604   64.5692   23.0426 C   0  0  0  0  0  0  0  0  0  0  0  0
   16.2796   64.8757   21.5341 C   0  0  0  0  0  0  0  0  0  0  0  0
   16.1215   66.1367   20.9284 N   0  0  0  0  0  0  0  0  0  0  0  0
   16.3134   66.2394   19.4584 C   0  0  0  0  0  0  0  0  0  0  0  0
   15.1298   66.9910   18.7836 C   0  0  0  0  0  0  0  0  0  0  0  0
   13.9918   67.3347   19.7766 C   0  0  0  0  0  0  0  0  0  0  0  0
   14.6018   68.1518   20.9780 C   0  0  0  0  0  0  0  0  0  0  0  0
   15.7928   67.3761   21.6864 C   0  0  0  0  0  0  0  0  0  0  0  0
   16.5481   63.8724   20.8500 O   0  0  0  0  0  0  0  0  0  0  0  0
   12.7979   68.0702   19.0306 C   0  0  0  0  0  0  0  0  0  0  0  0
   11.7907   68.9561   19.8490 C   0  0  0  0  0  0  0  0  0  0  0  0
   10.4756   68.2615   19.9962 N   0  0  0  0  0  0  0  0  0  0  0  0
    9.8637   68.2840   19.2252 H   0  0  0  0  0  0  0  0  0  0  0  0
   10.0596   67.6084   21.0958 C   0  0  0  0  0  0  0  0  0  0  0  0
    9.1387   68.1744   21.8614 N   0  0  0  0  0  0  0  0  0  0  0  0
   10.5206   66.4261   21.4559 N   0  0  0  0  0  0  0  0  0  0  0  0
    8.7733   69.0565   21.6214 H   0  0  0  0  0  0  0  0  0  0  0  0
   11.2056   65.9775   20.9093 H   0  0  0  0  0  0  0  0  0  0  0  0
   10.1797   65.9922   22.2712 H   0  0  0  0  0  0  0  0  0  0  0  0
   14.9087   65.1215   23.4905 N   0  0  0  0  0  0  0  0  0  0  0  0
   14.6037   65.7493   22.7468 H   0  0  0  0  0  0  0  0  0  0  0  0
   14.7197   65.9345   24.8405 S   0  0  0  0  0  0  0  0  0  0  0  0
   16.0241   66.2255   25.3893 O   0  0  0  0  0  0  0  0  0  0  0  0
   13.8166   67.0550   24.5963 O   0  0  0  0  0  0  0  0  0  0  0  0
   13.8911   64.7330   25.8570 C   0  0  0  0  0  0  0  0  0  0  0  0
   14.3849   63.4018   25.9889 C   0  0  0  0  0  0  0  0  0  0  0  0
   13.6767   62.4566   26.7964 C   0  0  0  0  0  0  0  0  0  0  0  0
   12.4743   62.8422   27.4677 C   0  0  0  0  0  0  0  0  0  0  0  0
   11.7526   61.9138   28.2730 C   0  0  0  0  0  0  0  0  0  0  0  0
   10.5536   62.3182   28.9324 C   0  0  0  0  0  0  0  0  0  0  0  0
   10.0717   63.6538   28.7940 C   0  0  0  0  0  0  0  0  0  0  0  0
   10.7822   64.5858   27.9941 C   0  0  0  0  0  0  0  0  0  0  0  0
   11.9813   64.1931   27.3282 C   0  0  0  0  0  0  0  0  0  0  0  0
   12.6895   65.1165   26.5281 C   0  0  0  0  0  0  0  0  0  0  0  0
   16.4068   63.0311   23.2710 C   0  0  0  0  0  0  0  0  0  0  0  0
   17.6348   62.6377   24.1114 C   0  0  0  0  0  0  0  0  0  0  0  0
   18.0549   61.2696   24.2187 C   0  0  0  0  0  0  0  0  0  0  0  0
   19.1987   60.9118   24.9992 C   0  0  0  0  0  0  0  0  0  0  0  0
   19.9247   61.9420   25.6725 C   0  0  0  0  0  0  0  0  0  0  0  0
   19.5213   63.2972   25.5765 C   0  0  0  0  0  0  0  0  0  0  0  0
   18.3863   63.6462   24.8054 C   0  0  0  0  0  0  0  0  0  0  0  0
   19.6351   59.4736   25.1184 C   0  0  0  0  0  0  0  0  0  0  0  0
   19.3145   58.6089   24.1843 N   0  0  0  0  0  0  0  0  0  0  0  0
   20.3317   59.0958   26.1557 N   0  0  0  0  0  0  0  0  0  0  0  0
   18.7890   58.8993   23.4041 H   0  0  0  0  0  0  0  0  0  0  0  0
   20.5694   59.7485   26.8533 H   0  0  0  0  0  0  0  0  0  0  0  0
   20.6193   58.1581   26.2404 H   0  0  0  0  0  0  0  0  0  0  0  0
 22 23  2  0  0  0
 22 24  2  0  0  0
 22 20  1  0  0  0
 22 25  1  0  0  0
 20  1  1  0  0  0
  1  2  1  0  0  0
  1 35  1  0  0  0
  2  3  1  0  0  0
  2  9  2  0  0  0
  3  4  1  0  0  0
  3  8  1  0  0  0
  4  5  1  0  0  0
  5  6  1  0  0  0
  6 10  1  0  0  0
  6  7  1  0  0  0
 10 11  1  0  0  0
 11 12  1  0  0  0
 12 14  1  0  0  0
 14 15  2  0  0  0
 14 16  1  0  0  0
  7  8  1  0  0  0
 35 36  1  0  0  0
 36 37  2  0  0  0
 36 41  1  0  0  0
 37 38  1  0  0  0
 38 42  1  0  0  0
 38 39  2  0  0  0
 42 43  2  0  0  0
 42 44  1  0  0  0
 39 40  1  0  0  0
 40 41  2  0  0  0
 25 26  1  0  0  0
 25 34  2  0  0  0
 26 27  2  0  0  0
 27 28  1  0  0  0
 28 29  2  0  0  0
 28 33  1  0  0  0
 29 30  1  0  0  0
 30 31  2  0  0  0
 31 32  1  0  0  0
 32 33  2  0  0  0
 33 34  1  0  0  0
 20 21  1  0  0  0
 12 13  1  0  0  0
 15 17  1  0  0  0
 16 18  1  0  0  0
 16 19  1  0  0  0
 43 45  1  0  0  0
 44 46  1  0  0  0
 44 47  1  0  0  0
M  END
> <minimizedAffinity>
-7.87401

$$$$
