1JGL_EST_L_911


 22 25  0  0  0  0  0  0  0  0999 V2000
   43.2282   25.7540   67.9094 C   0  0  0  0  0  0  0  0  0  0  0  0
   44.6279   25.6709   68.2143 C   0  0  0  0  0  0  0  0  0  0  0  0
   45.4253   24.6204   67.6356 C   0  0  0  0  0  0  0  0  0  0  0  0
   46.7650   24.5490   67.9376 O   0  0  0  0  0  0  0  0  0  0  0  0
   44.8381   23.6532   66.7489 C   0  0  0  0  0  0  0  0  0  0  0  0
   43.4264   23.7182   66.4200 C   0  0  0  0  0  0  0  0  0  0  0  0
   42.8285   22.6725   65.4497 C   0  0  0  0  0  0  0  0  0  0  0  0
   41.3054   22.8310   65.1255 C   0  0  0  0  0  0  0  0  0  0  0  0
   40.7974   24.2979   65.1883 C   0  0  0  0  0  0  0  0  0  0  0  0
   41.0552   24.8648   66.6609 C   0  0  0  0  0  0  0  0  0  0  0  0
   42.5839   24.7935   67.0147 C   0  0  0  0  0  0  0  0  0  0  0  0
   40.4953   26.3264   66.7288 C   0  0  0  0  0  0  0  0  0  0  0  0
   38.9823   26.4408   66.3618 C   0  0  0  0  0  0  0  0  0  0  0  0
   38.7344   25.9290   64.9120 C   0  0  0  0  0  0  0  0  0  0  0  0
   39.2445   24.4081   64.8464 C   0  0  0  0  0  0  0  0  0  0  0  0
   38.6883   23.9732   63.4796 C   0  0  0  0  0  0  0  0  0  0  0  0
   37.1929   24.4844   63.5681 C   0  0  0  0  0  0  0  0  0  0  0  0
   37.2359   25.7373   64.5162 C   0  0  0  0  0  0  0  0  0  0  0  0
   36.6038   26.8648   63.8524 O   0  0  0  0  0  0  0  0  0  0  0  0
   39.4246   26.9112   63.8575 C   0  0  0  0  0  0  0  0  0  0  0  0
   47.1492   25.1786   68.5154 H   0  0  0  0  0  0  0  0  0  0  0  0
   37.0544   27.0388   63.0112 H   0  0  0  0  0  0  0  0  0  0  0  0
  1  2  2  0  0  0
  1 11  1  0  0  0
  2  3  1  0  0  0
  3  4  1  0  0  0
  3  5  2  0  0  0
  5  6  1  0  0  0
  6  7  1  0  0  0
  6 11  2  0  0  0
  7  8  1  0  0  0
  8  9  1  0  0  0
  9 10  1  0  0  0
  9 15  1  0  0  0
 10 11  1  0  0  0
 10 12  1  0  0  0
 12 13  1  0  0  0
 13 14  1  0  0  0
 14 15  1  0  0  0
 14 18  1  0  0  0
 14 20  1  0  0  0
 15 16  1  0  0  0
 16 17  1  0  0  0
 17 18  1  0  0  0
 18 19  1  0  0  0
  4 21  1  0  0  0
 19 22  1  0  0  0
M  END
> <minimizedAffinity>
-12.84658

$$$$
1JGL_EST_L_911


 22 25  0  0  0  0  0  0  0  0999 V2000
   39.6130   25.4332   66.3551 C   0  0  0  0  0  0  0  0  0  0  0  0
   38.3040   26.0108   66.2459 C   0  0  0  0  0  0  0  0  0  0  0  0
   37.4550   25.6556   65.1381 C   0  0  0  0  0  0  0  0  0  0  0  0
   36.2037   26.2179   65.0424 O   0  0  0  0  0  0  0  0  0  0  0  0
   37.8997   24.7227   64.1388 C   0  0  0  0  0  0  0  0  0  0  0  0
   39.2165   24.1202   64.2288 C   0  0  0  0  0  0  0  0  0  0  0  0
   39.6588   23.1073   63.1467 C   0  0  0  0  0  0  0  0  0  0  0  0
   41.0818   22.4827   63.3337 C   0  0  0  0  0  0  0  0  0  0  0  0
   41.5291   22.3679   64.8171 C   0  0  0  0  0  0  0  0  0  0  0  0
   41.5382   23.8307   65.4623 C   0  0  0  0  0  0  0  0  0  0  0  0
   40.1118   24.4809   65.3638 C   0  0  0  0  0  0  0  0  0  0  0  0
   42.0377   23.7109   66.9424 C   0  0  0  0  0  0  0  0  0  0  0  0
   43.4443   23.0487   67.0825 C   0  0  0  0  0  0  0  0  0  0  0  0
   43.4277   21.6072   66.4934 C   0  0  0  0  0  0  0  0  0  0  0  0
   42.9799   21.7226   64.9559 C   0  0  0  0  0  0  0  0  0  0  0  0
   43.2783   20.2978   64.4581 C   0  0  0  0  0  0  0  0  0  0  0  0
   44.7392   20.0642   65.0208 C   0  0  0  0  0  0  0  0  0  0  0  0
   44.8276   20.9355   66.3260 C   0  0  0  0  0  0  0  0  0  0  0  0
   45.2700   20.1027   67.4313 O   0  0  0  0  0  0  0  0  0  0  0  0
   42.5045   20.6588   67.3886 C   0  0  0  0  0  0  0  0  0  0  0  0
   35.9124   26.8261   65.6929 H   0  0  0  0  0  0  0  0  0  0  0  0
   44.6577   19.3583   67.5406 H   0  0  0  0  0  0  0  0  0  0  0  0
  1  2  2  0  0  0
  1 11  1  0  0  0
  2  3  1  0  0  0
  3  4  1  0  0  0
  3  5  2  0  0  0
  5  6  1  0  0  0
  6  7  1  0  0  0
  6 11  2  0  0  0
  7  8  1  0  0  0
  8  9  1  0  0  0
  9 10  1  0  0  0
  9 15  1  0  0  0
 10 11  1  0  0  0
 10 12  1  0  0  0
 12 13  1  0  0  0
 13 14  1  0  0  0
 14 15  1  0  0  0
 14 18  1  0  0  0
 14 20  1  0  0  0
 15 16  1  0  0  0
 16 17  1  0  0  0
 17 18  1  0  0  0
 18 19  1  0  0  0
  4 21  1  0  0  0
 19 22  1  0  0  0
M  END
> <minimizedAffinity>
-10.80686

$$$$
1JGL_EST_L_911


 22 25  0  0  0  0  0  0  0  0999 V2000
   43.8366   21.8249   65.5294 C   0  0  0  0  0  0  0  0  0  0  0  0
   45.0264   21.2008   65.0255 C   0  0  0  0  0  0  0  0  0  0  0  0
   45.0402   20.6588   63.6912 C   0  0  0  0  0  0  0  0  0  0  0  0
   46.1852   20.0603   63.2202 O   0  0  0  0  0  0  0  0  0  0  0  0
   43.8761   20.7392   62.8515 C   0  0  0  0  0  0  0  0  0  0  0  0
   42.6622   21.3699   63.3349 C   0  0  0  0  0  0  0  0  0  0  0  0
   41.4323   21.4552   62.4009 C   0  0  0  0  0  0  0  0  0  0  0  0
   40.1738   22.1762   62.9894 C   0  0  0  0  0  0  0  0  0  0  0  0
   40.5095   23.2796   64.0304 C   0  0  0  0  0  0  0  0  0  0  0  0
   41.3130   22.6121   65.2408 C   0  0  0  0  0  0  0  0  0  0  0  0
   42.6266   21.9300   64.7151 C   0  0  0  0  0  0  0  0  0  0  0  0
   41.6036   23.7218   66.3077 C   0  0  0  0  0  0  0  0  0  0  0  0
   40.3224   24.4386   66.8384 C   0  0  0  0  0  0  0  0  0  0  0  0
   39.5598   25.1263   65.6677 C   0  0  0  0  0  0  0  0  0  0  0  0
   39.1979   23.9869   64.5961 C   0  0  0  0  0  0  0  0  0  0  0  0
   38.2335   24.7513   63.6729 C   0  0  0  0  0  0  0  0  0  0  0  0
   37.2618   25.4308   64.7213 C   0  0  0  0  0  0  0  0  0  0  0  0
   38.1288   25.6470   66.0144 C   0  0  0  0  0  0  0  0  0  0  0  0
   38.0402   27.0376   66.4261 O   0  0  0  0  0  0  0  0  0  0  0  0
   40.4233   26.3391   65.0874 C   0  0  0  0  0  0  0  0  0  0  0  0
   46.9447   20.0072   63.7664 H   0  0  0  0  0  0  0  0  0  0  0  0
   38.3347   27.6092   65.6998 H   0  0  0  0  0  0  0  0  0  0  0  0
  1  2  2  0  0  0
  1 11  1  0  0  0
  2  3  1  0  0  0
  3  4  1  0  0  0
  3  5  2  0  0  0
  5  6  1  0  0  0
  6  7  1  0  0  0
  6 11  2  0  0  0
  7  8  1  0  0  0
  8  9  1  0  0  0
  9 10  1  0  0  0
  9 15  1  0  0  0
 10 11  1  0  0  0
 10 12  1  0  0  0
 12 13  1  0  0  0
 13 14  1  0  0  0
 14 15  1  0  0  0
 14 18  1  0  0  0
 14 20  1  0  0  0
 15 16  1  0  0  0
 16 17  1  0  0  0
 17 18  1  0  0  0
 18 19  1  0  0  0
  4 21  1  0  0  0
 19 22  1  0  0  0
M  END
> <minimizedAffinity>
-10.62205

$$$$
1JGL_EST_L_911


 22 25  0  0  0  0  0  0  0  0999 V2000
   39.6354   23.9159   65.1368 C   0  0  0  0  0  0  0  0  0  0  0  0
   38.6729   24.6944   64.4111 C   0  0  0  0  0  0  0  0  0  0  0  0
   38.6470   26.1260   64.5660 C   0  0  0  0  0  0  0  0  0  0  0  0
   37.7181   26.8613   63.8678 O   0  0  0  0  0  0  0  0  0  0  0  0
   39.5787   26.7897   65.4366 C   0  0  0  0  0  0  0  0  0  0  0  0
   40.5655   26.0263   66.1775 C   0  0  0  0  0  0  0  0  0  0  0  0
   41.5648   26.7717   67.0930 C   0  0  0  0  0  0  0  0  0  0  0  0
   42.6140   25.8770   67.8336 C   0  0  0  0  0  0  0  0  0  0  0  0
   42.9938   24.5826   67.0629 C   0  0  0  0  0  0  0  0  0  0  0  0
   41.6696   23.7154   66.8377 C   0  0  0  0  0  0  0  0  0  0  0  0
   40.6030   24.5437   66.0356 C   0  0  0  0  0  0  0  0  0  0  0  0
   42.0699   22.3902   66.1041 C   0  0  0  0  0  0  0  0  0  0  0  0
   43.1455   21.5495   66.8611 C   0  0  0  0  0  0  0  0  0  0  0  0
   44.4522   22.3768   67.0444 C   0  0  0  0  0  0  0  0  0  0  0  0
   44.0669   23.7088   67.8536 C   0  0  0  0  0  0  0  0  0  0  0  0
   45.4636   24.2596   68.1895 C   0  0  0  0  0  0  0  0  0  0  0  0
   46.1880   22.9683   68.7492 C   0  0  0  0  0  0  0  0  0  0  0  0
   45.5071   21.7568   68.0148 C   0  0  0  0  0  0  0  0  0  0  0  0
   46.5313   20.9311   67.3979 O   0  0  0  0  0  0  0  0  0  0  0  0
   45.1433   22.6328   65.6267 C   0  0  0  0  0  0  0  0  0  0  0  0
   37.1101   26.4302   63.2999 H   0  0  0  0  0  0  0  0  0  0  0  0
   47.0556   21.4702   66.7852 H   0  0  0  0  0  0  0  0  0  0  0  0
  1  2  2  0  0  0
  1 11  1  0  0  0
  2  3  1  0  0  0
  3  4  1  0  0  0
  3  5  2  0  0  0
  5  6  1  0  0  0
  6  7  1  0  0  0
  6 11  2  0  0  0
  7  8  1  0  0  0
  8  9  1  0  0  0
  9 10  1  0  0  0
  9 15  1  0  0  0
 10 11  1  0  0  0
 10 12  1  0  0  0
 12 13  1  0  0  0
 13 14  1  0  0  0
 14 15  1  0  0  0
 14 18  1  0  0  0
 14 20  1  0  0  0
 15 16  1  0  0  0
 16 17  1  0  0  0
 17 18  1  0  0  0
 18 19  1  0  0  0
  4 21  1  0  0  0
 19 22  1  0  0  0
M  END
> <minimizedAffinity>
-10.15269

$$$$
