4KMZ_FOL_A_301


 39 41  0  0  0  0  0  0  0  0999 V2000
   29.7728   47.0885   45.1163 C   0  0  0  0  0  0  0  0  0  0  0  0
   30.4195   45.9783   45.6568 C   0  0  0  0  0  0  0  0  0  0  0  0
   31.5941   46.1401   46.3918 C   0  0  0  0  0  0  0  0  0  0  0  0
   32.1400   47.4103   46.5845 C   0  0  0  0  0  0  0  0  0  0  0  0
   31.4913   48.5197   46.0451 C   0  0  0  0  0  0  0  0  0  0  0  0
   30.3087   48.3604   45.3129 C   0  0  0  0  0  0  0  0  0  0  0  0
   28.4926   46.9174   44.3336 C   0  0  0  0  0  0  0  0  0  0  0  0
   28.4302   45.9840   43.2697 O   0  0  0  0  0  0  0  0  0  0  0  0
   27.4476   47.6774   44.6800 N   0  0  0  0  0  0  0  0  0  0  0  0
   27.5997   48.3972   45.3342 H   0  0  0  0  0  0  0  0  0  0  0  0
   26.1100   47.5120   44.1577 C   0  0  0  0  0  0  0  0  0  0  0  0
   25.5188   48.8716   43.8828 C   0  0  0  0  0  0  0  0  0  0  0  0
   24.2681   49.0235   43.8091 O   0  0  0  0  0  0  0  0  0  0  0  0
   26.2685   49.8694   43.7266 O   0  0  0  0  0  0  0  0  0  0  0  0
   27.1987   49.7692   43.7790 H   0  0  0  0  0  0  0  0  0  0  0  0
   25.2105   46.7466   45.1370 C   0  0  0  0  0  0  0  0  0  0  0  0
   25.0253   47.4687   46.4707 C   0  0  0  0  0  0  0  0  0  0  0  0
   25.8150   46.8209   47.5914 C   0  0  0  0  0  0  0  0  0  0  0  0
   25.2742   45.9552   48.3335 O   0  0  0  0  0  0  0  0  0  0  0  0
   27.0242   47.1199   47.7820 O   0  0  0  0  0  0  0  0  0  0  0  0
   27.4395   47.7609   47.2392 H   0  0  0  0  0  0  0  0  0  0  0  0
   33.2620   47.5968   47.2867 N   0  0  0  0  0  0  0  0  0  0  0  0
   33.5650   48.5235   47.4229 H   0  0  0  0  0  0  0  0  0  0  0  0
   34.0726   46.5291   47.8674 C   0  0  0  0  0  0  0  0  0  0  0  0
   37.0545   49.0532   51.9652 N   0  0  0  0  0  0  0  0  0  0  0  0
   36.4947   49.2238   53.2161 C   0  0  0  0  0  0  0  0  0  0  0  0
   37.1970   49.8215   54.1816 N   0  0  0  0  0  0  0  0  0  0  0  0
   35.2132   48.7703   53.4714 N   0  0  0  0  0  0  0  0  0  0  0  0
   34.4764   48.1466   52.4814 C   0  0  0  0  0  0  0  0  0  0  0  0
   33.3364   47.7301   52.7063 O   0  0  0  0  0  0  0  0  0  0  0  0
   35.0365   47.9772   51.2205 C   0  0  0  0  0  0  0  0  0  0  0  0
   34.3010   47.3585   50.2276 N   0  0  0  0  0  0  0  0  0  0  0  0
   34.8668   47.1877   48.9758 C   0  0  0  0  0  0  0  0  0  0  0  0
   36.1634   47.6446   48.7220 C   0  0  0  0  0  0  0  0  0  0  0  0
   36.8971   48.2674   49.7130 N   0  0  0  0  0  0  0  0  0  0  0  0
   36.3330   48.4311   50.9646 C   0  0  0  0  0  0  0  0  0  0  0  0
   37.9676   49.3748   51.7865 H   0  0  0  0  0  0  0  0  0  0  0  0
   38.1091   50.1440   53.9992 H   0  0  0  0  0  0  0  0  0  0  0  0
   36.8028   49.9396   55.0760 H   0  0  0  0  0  0  0  0  0  0  0  0
 25 26  1  0  0  0
 25 36  1  0  0  0
 26 27  1  0  0  0
 26 28  2  0  0  0
 28 29  1  0  0  0
 29 30  2  0  0  0
 29 31  1  0  0  0
 31 32  1  0  0  0
 31 36  2  0  0  0
 32 33  2  0  0  0
 33 34  1  0  0  0
 33 24  1  0  0  0
 34 35  2  0  0  0
 35 36  1  0  0  0
 24 22  1  0  0  0
 22  4  1  0  0  0
  1  2  2  0  0  0
  1  6  1  0  0  0
  1  7  1  0  0  0
  2  3  1  0  0  0
  3  4  2  0  0  0
  4  5  1  0  0  0
  5  6  2  0  0  0
  7  8  2  0  0  0
  7  9  1  0  0  0
  9 11  1  0  0  0
 11 16  1  0  0  0
 11 12  1  0  0  0
 16 17  1  0  0  0
 17 18  1  0  0  0
 18 19  2  0  0  0
 18 20  1  0  0  0
 12 13  2  0  0  0
 12 14  1  0  0  0
 25 37  1  0  0  0
 27 38  1  0  0  0
 27 39  1  0  0  0
 22 23  1  0  0  0
  9 10  1  0  0  0
 20 21  1  0  0  0
 14 15  1  0  0  0
M  END
> <minimizedAffinity>
-11.64890

$$$$
4KMZ_FOL_A_301


 39 41  0  0  0  0  0  0  0  0999 V2000
   29.9900   46.9562   45.0780 C   0  0  0  0  0  0  0  0  0  0  0  0
   30.4310   48.2529   45.3365 C   0  0  0  0  0  0  0  0  0  0  0  0
   31.5698   48.4642   46.1141 C   0  0  0  0  0  0  0  0  0  0  0  0
   32.2721   47.3835   46.6502 C   0  0  0  0  0  0  0  0  0  0  0  0
   31.8311   46.0874   46.3893 C   0  0  0  0  0  0  0  0  0  0  0  0
   30.6925   45.8728   45.6035 C   0  0  0  0  0  0  0  0  0  0  0  0
   28.7666   46.7246   44.2233 C   0  0  0  0  0  0  0  0  0  0  0  0
   27.7931   47.7445   44.0856 O   0  0  0  0  0  0  0  0  0  0  0  0
   28.6454   45.5350   43.6233 N   0  0  0  0  0  0  0  0  0  0  0  0
   29.2852   44.8286   43.8700 H   0  0  0  0  0  0  0  0  0  0  0  0
   27.6375   45.2179   42.6369 C   0  0  0  0  0  0  0  0  0  0  0  0
   26.5612   44.3845   43.2852 C   0  0  0  0  0  0  0  0  0  0  0  0
   26.8489   43.5669   44.2025 O   0  0  0  0  0  0  0  0  0  0  0  0
   25.3635   44.4987   42.9183 O   0  0  0  0  0  0  0  0  0  0  0  0
   25.1373   45.1024   42.2383 H   0  0  0  0  0  0  0  0  0  0  0  0
   28.2319   44.4565   41.4448 C   0  0  0  0  0  0  0  0  0  0  0  0
   29.7437   44.2618   41.5512 C   0  0  0  0  0  0  0  0  0  0  0  0
   30.1111   42.9210   42.1566 C   0  0  0  0  0  0  0  0  0  0  0  0
   31.1745   42.3361   41.8104 O   0  0  0  0  0  0  0  0  0  0  0  0
   29.3744   42.3852   43.0272 O   0  0  0  0  0  0  0  0  0  0  0  0
   28.5817   42.8075   43.2944 H   0  0  0  0  0  0  0  0  0  0  0  0
   33.3682   47.5546   47.3960 N   0  0  0  0  0  0  0  0  0  0  0  0
   33.7061   48.4730   47.5044 H   0  0  0  0  0  0  0  0  0  0  0  0
   34.1024   46.4819   48.0625 C   0  0  0  0  0  0  0  0  0  0  0  0
   37.1027   49.0868   52.0958 N   0  0  0  0  0  0  0  0  0  0  0  0
   36.5468   49.2864   53.3442 C   0  0  0  0  0  0  0  0  0  0  0  0
   37.2535   49.9031   54.2945 N   0  0  0  0  0  0  0  0  0  0  0  0
   35.2648   48.8422   53.6129 N   0  0  0  0  0  0  0  0  0  0  0  0
   34.5235   48.1990   52.6388 C   0  0  0  0  0  0  0  0  0  0  0  0
   33.3830   47.7909   52.8759 O   0  0  0  0  0  0  0  0  0  0  0  0
   35.0797   48.0004   51.3804 C   0  0  0  0  0  0  0  0  0  0  0  0
   34.3397   47.3622   50.4033 N   0  0  0  0  0  0  0  0  0  0  0  0
   34.9016   47.1623   49.1541 C   0  0  0  0  0  0  0  0  0  0  0  0
   36.1987   47.6099   48.8868 C   0  0  0  0  0  0  0  0  0  0  0  0
   36.9369   48.2522   49.8618 N   0  0  0  0  0  0  0  0  0  0  0  0
   36.3767   48.4450   51.1111 C   0  0  0  0  0  0  0  0  0  0  0  0
   38.0162   49.4018   51.9076 H   0  0  0  0  0  0  0  0  0  0  0  0
   38.1660   50.2190   54.1025 H   0  0  0  0  0  0  0  0  0  0  0  0
   36.8621   50.0419   55.1871 H   0  0  0  0  0  0  0  0  0  0  0  0
 25 26  1  0  0  0
 25 36  1  0  0  0
 26 27  1  0  0  0
 26 28  2  0  0  0
 28 29  1  0  0  0
 29 30  2  0  0  0
 29 31  1  0  0  0
 31 32  1  0  0  0
 31 36  2  0  0  0
 32 33  2  0  0  0
 33 34  1  0  0  0
 33 24  1  0  0  0
 34 35  2  0  0  0
 35 36  1  0  0  0
 24 22  1  0  0  0
 22  4  1  0  0  0
  1  2  2  0  0  0
  1  6  1  0  0  0
  1  7  1  0  0  0
  2  3  1  0  0  0
  3  4  2  0  0  0
  4  5  1  0  0  0
  5  6  2  0  0  0
  7  8  2  0  0  0
  7  9  1  0  0  0
  9 11  1  0  0  0
 11 16  1  0  0  0
 11 12  1  0  0  0
 16 17  1  0  0  0
 17 18  1  0  0  0
 18 19  2  0  0  0
 18 20  1  0  0  0
 12 13  2  0  0  0
 12 14  1  0  0  0
 25 37  1  0  0  0
 27 38  1  0  0  0
 27 39  1  0  0  0
 22 23  1  0  0  0
  9 10  1  0  0  0
 20 21  1  0  0  0
 14 15  1  0  0  0
M  END
> <minimizedAffinity>
-11.15309

$$$$
4KMZ_FOL_A_301


 39 41  0  0  0  0  0  0  0  0999 V2000
   33.4453   47.3560   46.4752 C   0  0  0  0  0  0  0  0  0  0  0  0
   32.8429   48.5233   46.0092 C   0  0  0  0  0  0  0  0  0  0  0  0
   31.4751   48.5454   45.7354 C   0  0  0  0  0  0  0  0  0  0  0  0
   30.6984   47.3992   45.9136 C   0  0  0  0  0  0  0  0  0  0  0  0
   31.3017   46.2333   46.3814 C   0  0  0  0  0  0  0  0  0  0  0  0
   32.6729   46.2108   46.6633 C   0  0  0  0  0  0  0  0  0  0  0  0
   34.9227   47.3342   46.7872 C   0  0  0  0  0  0  0  0  0  0  0  0
   35.3784   46.8325   48.0313 O   0  0  0  0  0  0  0  0  0  0  0  0
   35.7600   47.8077   45.8575 N   0  0  0  0  0  0  0  0  0  0  0  0
   35.3698   48.2642   45.0773 H   0  0  0  0  0  0  0  0  0  0  0  0
   37.1995   47.6938   45.9222 C   0  0  0  0  0  0  0  0  0  0  0  0
   37.7447   48.8261   46.7554 C   0  0  0  0  0  0  0  0  0  0  0  0
   38.1544   49.8861   46.2067 O   0  0  0  0  0  0  0  0  0  0  0  0
   37.7937   48.7249   48.0082 O   0  0  0  0  0  0  0  0  0  0  0  0
   37.4925   47.9428   48.4273 H   0  0  0  0  0  0  0  0  0  0  0  0
   37.8336   47.7294   44.5254 C   0  0  0  0  0  0  0  0  0  0  0  0
   38.1887   46.3421   43.9926 C   0  0  0  0  0  0  0  0  0  0  0  0
   38.1212   46.2710   42.4795 C   0  0  0  0  0  0  0  0  0  0  0  0
   37.3658   45.4326   41.9146 O   0  0  0  0  0  0  0  0  0  0  0  0
   38.7982   47.0605   41.7681 O   0  0  0  0  0  0  0  0  0  0  0  0
   39.3635   47.6885   42.1731 H   0  0  0  0  0  0  0  0  0  0  0  0
   29.3854   47.3909   45.6629 N   0  0  0  0  0  0  0  0  0  0  0  0
   28.7905   47.7891   46.3387 H   0  0  0  0  0  0  0  0  0  0  0  0
   28.7666   46.8357   44.4617 C   0  0  0  0  0  0  0  0  0  0  0  0
   23.2321   47.8329   45.1173 N   0  0  0  0  0  0  0  0  0  0  0  0
   22.6374   48.8775   44.4373 C   0  0  0  0  0  0  0  0  0  0  0  0
   21.3328   49.1142   44.5941 N   0  0  0  0  0  0  0  0  0  0  0  0
   23.3885   49.6720   43.5901 N   0  0  0  0  0  0  0  0  0  0  0  0
   24.7397   49.4354   43.4161 C   0  0  0  0  0  0  0  0  0  0  0  0
   25.4128   50.1343   42.6532 O   0  0  0  0  0  0  0  0  0  0  0  0
   25.3411   48.3869   44.1025 C   0  0  0  0  0  0  0  0  0  0  0  0
   26.6923   48.1508   43.9344 N   0  0  0  0  0  0  0  0  0  0  0  0
   27.2838   47.1014   44.6162 C   0  0  0  0  0  0  0  0  0  0  0  0
   26.5212   46.2985   45.4695 C   0  0  0  0  0  0  0  0  0  0  0  0
   25.1715   46.5371   45.6414 N   0  0  0  0  0  0  0  0  0  0  0  0
   24.5808   47.5815   44.9544 C   0  0  0  0  0  0  0  0  0  0  0  0
   22.6950   47.2674   45.7181 H   0  0  0  0  0  0  0  0  0  0  0  0
   20.7988   48.5483   45.1973 H   0  0  0  0  0  0  0  0  0  0  0  0
   20.9048   49.8547   44.1065 H   0  0  0  0  0  0  0  0  0  0  0  0
 25 26  1  0  0  0
 25 36  1  0  0  0
 26 27  1  0  0  0
 26 28  2  0  0  0
 28 29  1  0  0  0
 29 30  2  0  0  0
 29 31  1  0  0  0
 31 32  1  0  0  0
 31 36  2  0  0  0
 32 33  2  0  0  0
 33 34  1  0  0  0
 33 24  1  0  0  0
 34 35  2  0  0  0
 35 36  1  0  0  0
 24 22  1  0  0  0
 22  4  1  0  0  0
  1  2  2  0  0  0
  1  6  1  0  0  0
  1  7  1  0  0  0
  2  3  1  0  0  0
  3  4  2  0  0  0
  4  5  1  0  0  0
  5  6  2  0  0  0
  7  8  2  0  0  0
  7  9  1  0  0  0
  9 11  1  0  0  0
 11 16  1  0  0  0
 11 12  1  0  0  0
 16 17  1  0  0  0
 17 18  1  0  0  0
 18 19  2  0  0  0
 18 20  1  0  0  0
 12 13  2  0  0  0
 12 14  1  0  0  0
 25 37  1  0  0  0
 27 38  1  0  0  0
 27 39  1  0  0  0
 22 23  1  0  0  0
  9 10  1  0  0  0
 20 21  1  0  0  0
 14 15  1  0  0  0
M  END
> <minimizedAffinity>
-10.92191

$$$$
4KMZ_FOL_A_301


 39 41  0  0  0  0  0  0  0  0999 V2000
   32.9904   46.9556   46.9502 C   0  0  0  0  0  0  0  0  0  0  0  0
   32.7453   48.2397   46.4669 C   0  0  0  0  0  0  0  0  0  0  0  0
   31.5970   48.5000   45.7187 C   0  0  0  0  0  0  0  0  0  0  0  0
   30.6886   47.4782   45.4365 C   0  0  0  0  0  0  0  0  0  0  0  0
   30.9340   46.1951   45.9221 C   0  0  0  0  0  0  0  0  0  0  0  0
   32.0823   45.9332   46.6789 C   0  0  0  0  0  0  0  0  0  0  0  0
   34.2248   46.6750   47.7737 C   0  0  0  0  0  0  0  0  0  0  0  0
   34.1757   45.7290   48.8271 O   0  0  0  0  0  0  0  0  0  0  0  0
   35.3384   47.3526   47.4729 N   0  0  0  0  0  0  0  0  0  0  0  0
   35.2668   48.0888   46.8232 H   0  0  0  0  0  0  0  0  0  0  0  0
   36.6395   47.0758   48.0382 C   0  0  0  0  0  0  0  0  0  0  0  0
   36.9505   48.1143   49.0862 C   0  0  0  0  0  0  0  0  0  0  0  0
   36.0872   48.4313   49.9504 O   0  0  0  0  0  0  0  0  0  0  0  0
   38.0769   48.6737   49.1099 O   0  0  0  0  0  0  0  0  0  0  0  0
   38.7261   48.4469   48.4735 H   0  0  0  0  0  0  0  0  0  0  0  0
   37.7359   47.0814   46.9649 C   0  0  0  0  0  0  0  0  0  0  0  0
   37.3474   47.8696   45.7150 C   0  0  0  0  0  0  0  0  0  0  0  0
   37.8371   49.3039   45.7626 C   0  0  0  0  0  0  0  0  0  0  0  0
   37.2341   50.2043   45.1159 O   0  0  0  0  0  0  0  0  0  0  0  0
   38.8351   49.6195   46.4643 O   0  0  0  0  0  0  0  0  0  0  0  0
   39.2930   48.9620   46.9501 H   0  0  0  0  0  0  0  0  0  0  0  0
   29.5784   47.6981   44.7252 N   0  0  0  0  0  0  0  0  0  0  0  0
   29.3053   48.6335   44.5852 H   0  0  0  0  0  0  0  0  0  0  0  0
   28.7397   46.6550   44.1398 C   0  0  0  0  0  0  0  0  0  0  0  0
   23.4550   48.0477   45.6185 N   0  0  0  0  0  0  0  0  0  0  0  0
   22.8123   49.0858   44.9730 C   0  0  0  0  0  0  0  0  0  0  0  0
   21.5670   49.4159   45.3237 N   0  0  0  0  0  0  0  0  0  0  0  0
   23.4530   49.7772   43.9608 N   0  0  0  0  0  0  0  0  0  0  0  0
   24.7413   49.4432   43.5856 C   0  0  0  0  0  0  0  0  0  0  0  0
   25.3143   50.0495   42.6758 O   0  0  0  0  0  0  0  0  0  0  0  0
   25.3914   48.4011   44.2366 C   0  0  0  0  0  0  0  0  0  0  0  0
   26.6807   48.0680   43.8671 N   0  0  0  0  0  0  0  0  0  0  0  0
   27.3202   47.0254   44.5153 C   0  0  0  0  0  0  0  0  0  0  0  0
   26.6687   46.3267   45.5360 C   0  0  0  0  0  0  0  0  0  0  0  0
   25.3816   46.6626   45.9088 N   0  0  0  0  0  0  0  0  0  0  0  0
   24.7418   47.6998   45.2557 C   0  0  0  0  0  0  0  0  0  0  0  0
   22.9960   47.5556   46.3372 H   0  0  0  0  0  0  0  0  0  0  0  0
   21.1116   48.9234   46.0443 H   0  0  0  0  0  0  0  0  0  0  0  0
   21.1042   50.1518   44.8617 H   0  0  0  0  0  0  0  0  0  0  0  0
 25 26  1  0  0  0
 25 36  1  0  0  0
 26 27  1  0  0  0
 26 28  2  0  0  0
 28 29  1  0  0  0
 29 30  2  0  0  0
 29 31  1  0  0  0
 31 32  1  0  0  0
 31 36  2  0  0  0
 32 33  2  0  0  0
 33 34  1  0  0  0
 33 24  1  0  0  0
 34 35  2  0  0  0
 35 36  1  0  0  0
 24 22  1  0  0  0
 22  4  1  0  0  0
  1  2  2  0  0  0
  1  6  1  0  0  0
  1  7  1  0  0  0
  2  3  1  0  0  0
  3  4  2  0  0  0
  4  5  1  0  0  0
  5  6  2  0  0  0
  7  8  2  0  0  0
  7  9  1  0  0  0
  9 11  1  0  0  0
 11 16  1  0  0  0
 11 12  1  0  0  0
 16 17  1  0  0  0
 17 18  1  0  0  0
 18 19  2  0  0  0
 18 20  1  0  0  0
 12 13  2  0  0  0
 12 14  1  0  0  0
 25 37  1  0  0  0
 27 38  1  0  0  0
 27 39  1  0  0  0
 22 23  1  0  0  0
  9 10  1  0  0  0
 20 21  1  0  0  0
 14 15  1  0  0  0
M  END
> <minimizedAffinity>
-10.76805

$$$$
4KMZ_FOL_A_301


 39 41  0  0  0  0  0  0  0  0999 V2000
   29.9419   47.2916   45.6367 C   0  0  0  0  0  0  0  0  0  0  0  0
   30.6334   46.1469   46.0295 C   0  0  0  0  0  0  0  0  0  0  0  0
   31.9270   46.2502   46.5413 C   0  0  0  0  0  0  0  0  0  0  0  0
   32.5465   47.4960   46.6550 C   0  0  0  0  0  0  0  0  0  0  0  0
   31.8532   48.6399   46.2636 C   0  0  0  0  0  0  0  0  0  0  0  0
   30.5524   48.5393   45.7561 C   0  0  0  0  0  0  0  0  0  0  0  0
   28.5356   47.1837   45.0972 C   0  0  0  0  0  0  0  0  0  0  0  0
   28.2086   47.7626   43.8461 O   0  0  0  0  0  0  0  0  0  0  0  0
   27.6327   46.5375   45.8436 N   0  0  0  0  0  0  0  0  0  0  0  0
   27.8917   46.2806   46.7580 H   0  0  0  0  0  0  0  0  0  0  0  0
   26.3024   46.1915   45.3968 C   0  0  0  0  0  0  0  0  0  0  0  0
   25.4027   46.0483   46.5983 C   0  0  0  0  0  0  0  0  0  0  0  0
   25.7555   46.5041   47.7210 O   0  0  0  0  0  0  0  0  0  0  0  0
   24.2888   45.4739   46.4915 O   0  0  0  0  0  0  0  0  0  0  0  0
   24.0158   45.1313   45.6632 H   0  0  0  0  0  0  0  0  0  0  0  0
   26.2977   44.8863   44.5902 C   0  0  0  0  0  0  0  0  0  0  0  0
   25.9492   45.0930   43.1170 C   0  0  0  0  0  0  0  0  0  0  0  0
   27.1550   44.9340   42.2116 C   0  0  0  0  0  0  0  0  0  0  0  0
   27.0129   44.9259   40.9576 O   0  0  0  0  0  0  0  0  0  0  0  0
   28.3137   44.8314   42.6961 O   0  0  0  0  0  0  0  0  0  0  0  0
   28.4350   44.8358   43.6252 H   0  0  0  0  0  0  0  0  0  0  0  0
   33.7835   47.6266   47.1446 N   0  0  0  0  0  0  0  0  0  0  0  0
   34.2173   48.5060   47.0567 H   0  0  0  0  0  0  0  0  0  0  0  0
   34.5403   46.5629   47.8002 C   0  0  0  0  0  0  0  0  0  0  0  0
   37.1270   49.1070   52.1466 N   0  0  0  0  0  0  0  0  0  0  0  0
   36.4582   49.2695   53.3440 C   0  0  0  0  0  0  0  0  0  0  0  0
   37.0674   49.8719   54.3680 N   0  0  0  0  0  0  0  0  0  0  0  0
   35.1638   48.8030   53.4855 N   0  0  0  0  0  0  0  0  0  0  0  0
   34.5227   48.1743   52.4340 C   0  0  0  0  0  0  0  0  0  0  0  0
   33.3715   47.7464   52.5577 O   0  0  0  0  0  0  0  0  0  0  0  0
   35.1927   48.0130   51.2267 C   0  0  0  0  0  0  0  0  0  0  0  0
   34.5530   47.3894   50.1725 N   0  0  0  0  0  0  0  0  0  0  0  0
   35.2279   47.2267   48.9748 C   0  0  0  0  0  0  0  0  0  0  0  0
   36.5372   47.6967   48.8361 C   0  0  0  0  0  0  0  0  0  0  0  0
   37.1752   48.3245   49.8882 N   0  0  0  0  0  0  0  0  0  0  0  0
   36.5021   48.4801   51.0859 C   0  0  0  0  0  0  0  0  0  0  0  0
   38.0491   49.4379   52.0490 H   0  0  0  0  0  0  0  0  0  0  0  0
   37.9887   50.2037   54.2665 H   0  0  0  0  0  0  0  0  0  0  0  0
   36.5953   49.9843   55.2245 H   0  0  0  0  0  0  0  0  0  0  0  0
 25 26  1  0  0  0
 25 36  1  0  0  0
 26 27  1  0  0  0
 26 28  2  0  0  0
 28 29  1  0  0  0
 29 30  2  0  0  0
 29 31  1  0  0  0
 31 32  1  0  0  0
 31 36  2  0  0  0
 32 33  2  0  0  0
 33 34  1  0  0  0
 33 24  1  0  0  0
 34 35  2  0  0  0
 35 36  1  0  0  0
 24 22  1  0  0  0
 22  4  1  0  0  0
  1  2  2  0  0  0
  1  6  1  0  0  0
  1  7  1  0  0  0
  2  3  1  0  0  0
  3  4  2  0  0  0
  4  5  1  0  0  0
  5  6  2  0  0  0
  7  8  2  0  0  0
  7  9  1  0  0  0
  9 11  1  0  0  0
 11 16  1  0  0  0
 11 12  1  0  0  0
 16 17  1  0  0  0
 17 18  1  0  0  0
 18 19  2  0  0  0
 18 20  1  0  0  0
 12 13  2  0  0  0
 12 14  1  0  0  0
 25 37  1  0  0  0
 27 38  1  0  0  0
 27 39  1  0  0  0
 22 23  1  0  0  0
  9 10  1  0  0  0
 20 21  1  0  0  0
 14 15  1  0  0  0
M  END
> <minimizedAffinity>
-10.49010

$$$$
4KMZ_FOL_A_301


 39 41  0  0  0  0  0  0  0  0999 V2000
   29.8932   47.0345   45.1585 C   0  0  0  0  0  0  0  0  0  0  0  0
   30.2892   48.3420   45.4348 C   0  0  0  0  0  0  0  0  0  0  0  0
   31.4504   48.5825   46.1697 C   0  0  0  0  0  0  0  0  0  0  0  0
   32.2206   47.5197   46.6452 C   0  0  0  0  0  0  0  0  0  0  0  0
   31.8244   46.2130   46.3666 C   0  0  0  0  0  0  0  0  0  0  0  0
   30.6632   45.9694   45.6234 C   0  0  0  0  0  0  0  0  0  0  0  0
   28.6452   46.7721   44.3496 C   0  0  0  0  0  0  0  0  0  0  0  0
   28.6960   45.9131   43.2242 O   0  0  0  0  0  0  0  0  0  0  0  0
   27.5178   47.3819   44.7331 N   0  0  0  0  0  0  0  0  0  0  0  0
   27.5828   48.0677   45.4364 H   0  0  0  0  0  0  0  0  0  0  0  0
   26.2109   47.1007   44.1836 C   0  0  0  0  0  0  0  0  0  0  0  0
   25.4069   48.3758   44.1519 C   0  0  0  0  0  0  0  0  0  0  0  0
   25.2055   48.9796   43.0621 O   0  0  0  0  0  0  0  0  0  0  0  0
   24.9265   48.8492   45.2136 O   0  0  0  0  0  0  0  0  0  0  0  0
   25.0692   48.4101   46.0290 H   0  0  0  0  0  0  0  0  0  0  0  0
   25.4663   46.0417   45.0073 C   0  0  0  0  0  0  0  0  0  0  0  0
   26.0121   44.6294   44.8018 C   0  0  0  0  0  0  0  0  0  0  0  0
   25.1128   43.7868   43.9184 C   0  0  0  0  0  0  0  0  0  0  0  0
   24.4381   42.8421   44.4135 O   0  0  0  0  0  0  0  0  0  0  0  0
   25.0093   44.0318   42.6867 O   0  0  0  0  0  0  0  0  0  0  0  0
   25.5039   44.7299   42.3047 H   0  0  0  0  0  0  0  0  0  0  0  0
   33.3394   47.7190   47.3491 N   0  0  0  0  0  0  0  0  0  0  0  0
   33.5953   48.6497   47.5431 H   0  0  0  0  0  0  0  0  0  0  0  0
   34.2110   46.6602   47.8521 C   0  0  0  0  0  0  0  0  0  0  0  0
   37.1144   49.0652   52.0760 N   0  0  0  0  0  0  0  0  0  0  0  0
   36.5214   49.2250   53.3130 C   0  0  0  0  0  0  0  0  0  0  0  0
   37.2053   49.7946   54.3082 N   0  0  0  0  0  0  0  0  0  0  0  0
   35.2256   48.7895   53.5236 N   0  0  0  0  0  0  0  0  0  0  0  0
   34.5075   48.1949   52.5024 C   0  0  0  0  0  0  0  0  0  0  0  0
   33.3546   47.7946   52.6873 O   0  0  0  0  0  0  0  0  0  0  0  0
   35.1012   48.0365   51.2555 C   0  0  0  0  0  0  0  0  0  0  0  0
   34.3846   47.4468   50.2316 N   0  0  0  0  0  0  0  0  0  0  0  0
   34.9836   47.2867   48.9939 C   0  0  0  0  0  0  0  0  0  0  0  0
   36.2945   47.7252   48.7853 C   0  0  0  0  0  0  0  0  0  0  0  0
   37.0095   48.3190   49.8073 N   0  0  0  0  0  0  0  0  0  0  0  0
   36.4120   48.4721   51.0447 C   0  0  0  0  0  0  0  0  0  0  0  0
   38.0376   49.3739   51.9291 H   0  0  0  0  0  0  0  0  0  0  0  0
   38.1276   50.1043   54.1576 H   0  0  0  0  0  0  0  0  0  0  0  0
   36.7873   49.9049   55.1927 H   0  0  0  0  0  0  0  0  0  0  0  0
 25 26  1  0  0  0
 25 36  1  0  0  0
 26 27  1  0  0  0
 26 28  2  0  0  0
 28 29  1  0  0  0
 29 30  2  0  0  0
 29 31  1  0  0  0
 31 32  1  0  0  0
 31 36  2  0  0  0
 32 33  2  0  0  0
 33 34  1  0  0  0
 33 24  1  0  0  0
 34 35  2  0  0  0
 35 36  1  0  0  0
 24 22  1  0  0  0
 22  4  1  0  0  0
  1  2  2  0  0  0
  1  6  1  0  0  0
  1  7  1  0  0  0
  2  3  1  0  0  0
  3  4  2  0  0  0
  4  5  1  0  0  0
  5  6  2  0  0  0
  7  8  2  0  0  0
  7  9  1  0  0  0
  9 11  1  0  0  0
 11 16  1  0  0  0
 11 12  1  0  0  0
 16 17  1  0  0  0
 17 18  1  0  0  0
 18 19  2  0  0  0
 18 20  1  0  0  0
 12 13  2  0  0  0
 12 14  1  0  0  0
 25 37  1  0  0  0
 27 38  1  0  0  0
 27 39  1  0  0  0
 22 23  1  0  0  0
  9 10  1  0  0  0
 20 21  1  0  0  0
 14 15  1  0  0  0
M  END
> <minimizedAffinity>
-10.31323

$$$$
4KMZ_FOL_A_301


 39 41  0  0  0  0  0  0  0  0999 V2000
   29.6846   46.9739   45.3859 C   0  0  0  0  0  0  0  0  0  0  0  0
   30.5007   45.9011   45.7407 C   0  0  0  0  0  0  0  0  0  0  0  0
   31.7130   46.1279   46.3928 C   0  0  0  0  0  0  0  0  0  0  0  0
   32.1269   47.4283   46.6866 C   0  0  0  0  0  0  0  0  0  0  0  0
   31.3090   48.4999   46.3330 C   0  0  0  0  0  0  0  0  0  0  0  0
   30.0889   48.2743   45.6846 C   0  0  0  0  0  0  0  0  0  0  0  0
   28.3646   46.7299   44.6941 C   0  0  0  0  0  0  0  0  0  0  0  0
   28.3358   46.1319   43.4102 O   0  0  0  0  0  0  0  0  0  0  0  0
   27.2507   47.1042   45.3335 N   0  0  0  0  0  0  0  0  0  0  0  0
   27.3498   47.6346   46.1570 H   0  0  0  0  0  0  0  0  0  0  0  0
   25.9114   46.7817   44.8958 C   0  0  0  0  0  0  0  0  0  0  0  0
   25.6724   45.3061   45.0931 C   0  0  0  0  0  0  0  0  0  0  0  0
   24.5989   44.8947   45.6136 O   0  0  0  0  0  0  0  0  0  0  0  0
   26.5421   44.4697   44.7376 O   0  0  0  0  0  0  0  0  0  0  0  0
   27.3432   44.7629   44.3501 H   0  0  0  0  0  0  0  0  0  0  0  0
   25.6944   47.1469   43.4214 C   0  0  0  0  0  0  0  0  0  0  0  0
   24.4485   48.0012   43.1924 C   0  0  0  0  0  0  0  0  0  0  0  0
   24.7811   49.4701   43.0167 C   0  0  0  0  0  0  0  0  0  0  0  0
   23.9202   50.2664   42.5501 O   0  0  0  0  0  0  0  0  0  0  0  0
   25.9092   49.9187   43.3543 O   0  0  0  0  0  0  0  0  0  0  0  0
   26.5586   49.3397   43.7023 H   0  0  0  0  0  0  0  0  0  0  0  0
   33.2813   47.6764   47.3133 N   0  0  0  0  0  0  0  0  0  0  0  0
   33.5058   48.6170   47.4981 H   0  0  0  0  0  0  0  0  0  0  0  0
   34.2348   46.6573   47.7446 C   0  0  0  0  0  0  0  0  0  0  0  0
   37.1219   49.0735   51.9733 N   0  0  0  0  0  0  0  0  0  0  0  0
   36.5311   49.2187   53.2131 C   0  0  0  0  0  0  0  0  0  0  0  0
   37.2111   49.7909   54.2094 N   0  0  0  0  0  0  0  0  0  0  0  0
   35.2415   48.7658   53.4253 N   0  0  0  0  0  0  0  0  0  0  0  0
   34.5276   48.1682   52.4029 C   0  0  0  0  0  0  0  0  0  0  0  0
   33.3804   47.7525   52.5892 O   0  0  0  0  0  0  0  0  0  0  0  0
   35.1190   48.0246   51.1532 C   0  0  0  0  0  0  0  0  0  0  0  0
   34.4064   47.4321   50.1281 N   0  0  0  0  0  0  0  0  0  0  0  0
   35.0033   47.2867   48.8876 C   0  0  0  0  0  0  0  0  0  0  0  0
   36.3079   47.7428   48.6773 C   0  0  0  0  0  0  0  0  0  0  0  0
   37.0188   48.3395   49.7005 N   0  0  0  0  0  0  0  0  0  0  0  0
   36.4236   48.4778   50.9408 C   0  0  0  0  0  0  0  0  0  0  0  0
   38.0407   49.3946   51.8252 H   0  0  0  0  0  0  0  0  0  0  0  0
   38.1289   50.1130   54.0576 H   0  0  0  0  0  0  0  0  0  0  0  0
   36.7946   49.8908   55.0959 H   0  0  0  0  0  0  0  0  0  0  0  0
 25 26  1  0  0  0
 25 36  1  0  0  0
 26 27  1  0  0  0
 26 28  2  0  0  0
 28 29  1  0  0  0
 29 30  2  0  0  0
 29 31  1  0  0  0
 31 32  1  0  0  0
 31 36  2  0  0  0
 32 33  2  0  0  0
 33 34  1  0  0  0
 33 24  1  0  0  0
 34 35  2  0  0  0
 35 36  1  0  0  0
 24 22  1  0  0  0
 22  4  1  0  0  0
  1  2  2  0  0  0
  1  6  1  0  0  0
  1  7  1  0  0  0
  2  3  1  0  0  0
  3  4  2  0  0  0
  4  5  1  0  0  0
  5  6  2  0  0  0
  7  8  2  0  0  0
  7  9  1  0  0  0
  9 11  1  0  0  0
 11 16  1  0  0  0
 11 12  1  0  0  0
 16 17  1  0  0  0
 17 18  1  0  0  0
 18 19  2  0  0  0
 18 20  1  0  0  0
 12 13  2  0  0  0
 12 14  1  0  0  0
 25 37  1  0  0  0
 27 38  1  0  0  0
 27 39  1  0  0  0
 22 23  1  0  0  0
  9 10  1  0  0  0
 20 21  1  0  0  0
 14 15  1  0  0  0
M  END
> <minimizedAffinity>
-10.28747

$$$$
4KMZ_FOL_A_301


 39 41  0  0  0  0  0  0  0  0999 V2000
   30.0088   46.9732   45.4893 C   0  0  0  0  0  0  0  0  0  0  0  0
   30.7845   45.9302   45.9926 C   0  0  0  0  0  0  0  0  0  0  0  0
   32.0097   46.1990   46.6033 C   0  0  0  0  0  0  0  0  0  0  0  0
   32.4769   47.5104   46.7070 C   0  0  0  0  0  0  0  0  0  0  0  0
   31.6994   48.5524   46.2050 C   0  0  0  0  0  0  0  0  0  0  0  0
   30.4664   48.2856   45.5979 C   0  0  0  0  0  0  0  0  0  0  0  0
   28.6750   46.6861   44.8420 C   0  0  0  0  0  0  0  0  0  0  0  0
   28.0136   47.6957   44.1004 O   0  0  0  0  0  0  0  0  0  0  0  0
   28.1565   45.4637   45.0056 N   0  0  0  0  0  0  0  0  0  0  0  0
   28.6001   44.8578   45.6423 H   0  0  0  0  0  0  0  0  0  0  0  0
   26.9884   44.9733   44.3097 C   0  0  0  0  0  0  0  0  0  0  0  0
   27.1575   45.2203   42.8320 C   0  0  0  0  0  0  0  0  0  0  0  0
   28.1015   44.6763   42.1951 O   0  0  0  0  0  0  0  0  0  0  0  0
   26.3558   45.9708   42.2186 O   0  0  0  0  0  0  0  0  0  0  0  0
   25.6509   46.3804   42.6805 H   0  0  0  0  0  0  0  0  0  0  0  0
   25.7066   45.6569   44.8037 C   0  0  0  0  0  0  0  0  0  0  0  0
   24.9224   44.8092   45.8042 C   0  0  0  0  0  0  0  0  0  0  0  0
   23.6615   44.2230   45.1995 C   0  0  0  0  0  0  0  0  0  0  0  0
   23.7302   43.4736   44.1864 O   0  0  0  0  0  0  0  0  0  0  0  0
   22.5342   44.4562   45.7120 O   0  0  0  0  0  0  0  0  0  0  0  0
   22.4673   45.0107   46.4644 H   0  0  0  0  0  0  0  0  0  0  0  0
   33.6449   47.7990   47.2895 N   0  0  0  0  0  0  0  0  0  0  0  0
   33.8537   48.7485   47.4450 H   0  0  0  0  0  0  0  0  0  0  0  0
   34.6350   46.8118   47.7130 C   0  0  0  0  0  0  0  0  0  0  0  0
   37.1761   49.1403   52.2047 N   0  0  0  0  0  0  0  0  0  0  0  0
   36.4965   49.2402   53.4028 C   0  0  0  0  0  0  0  0  0  0  0  0
   37.0949   49.7918   54.4613 N   0  0  0  0  0  0  0  0  0  0  0  0
   35.2025   48.7636   53.5093 N   0  0  0  0  0  0  0  0  0  0  0  0
   34.5724   48.1870   52.4218 C   0  0  0  0  0  0  0  0  0  0  0  0
   33.4216   47.7502   52.5137 O   0  0  0  0  0  0  0  0  0  0  0  0
   35.2533   48.0888   51.2139 C   0  0  0  0  0  0  0  0  0  0  0  0
   34.6247   47.5175   50.1239 N   0  0  0  0  0  0  0  0  0  0  0  0
   35.3104   47.4174   48.9255 C   0  0  0  0  0  0  0  0  0  0  0  0
   36.6192   47.8974   48.8222 C   0  0  0  0  0  0  0  0  0  0  0  0
   37.2462   48.4730   49.9102 N   0  0  0  0  0  0  0  0  0  0  0  0
   36.5623   48.5660   51.1083 C   0  0  0  0  0  0  0  0  0  0  0  0
   38.0979   49.4782   52.1320 H   0  0  0  0  0  0  0  0  0  0  0  0
   38.0160   50.1309   54.3847 H   0  0  0  0  0  0  0  0  0  0  0  0
   36.6151   49.8595   55.3183 H   0  0  0  0  0  0  0  0  0  0  0  0
 25 26  1  0  0  0
 25 36  1  0  0  0
 26 27  1  0  0  0
 26 28  2  0  0  0
 28 29  1  0  0  0
 29 30  2  0  0  0
 29 31  1  0  0  0
 31 32  1  0  0  0
 31 36  2  0  0  0
 32 33  2  0  0  0
 33 34  1  0  0  0
 33 24  1  0  0  0
 34 35  2  0  0  0
 35 36  1  0  0  0
 24 22  1  0  0  0
 22  4  1  0  0  0
  1  2  2  0  0  0
  1  6  1  0  0  0
  1  7  1  0  0  0
  2  3  1  0  0  0
  3  4  2  0  0  0
  4  5  1  0  0  0
  5  6  2  0  0  0
  7  8  2  0  0  0
  7  9  1  0  0  0
  9 11  1  0  0  0
 11 16  1  0  0  0
 11 12  1  0  0  0
 16 17  1  0  0  0
 17 18  1  0  0  0
 18 19  2  0  0  0
 18 20  1  0  0  0
 12 13  2  0  0  0
 12 14  1  0  0  0
 25 37  1  0  0  0
 27 38  1  0  0  0
 27 39  1  0  0  0
 22 23  1  0  0  0
  9 10  1  0  0  0
 20 21  1  0  0  0
 14 15  1  0  0  0
M  END
> <minimizedAffinity>
-9.75621

$$$$
4KMZ_FOL_A_301


 39 41  0  0  0  0  0  0  0  0999 V2000
   29.2497   47.0101   44.9967 C   0  0  0  0  0  0  0  0  0  0  0  0
   29.6668   48.3401   44.9961 C   0  0  0  0  0  0  0  0  0  0  0  0
   30.9782   48.6638   45.3446 C   0  0  0  0  0  0  0  0  0  0  0  0
   31.8821   47.6639   45.7079 C   0  0  0  0  0  0  0  0  0  0  0  0
   31.4642   46.3344   45.7062 C   0  0  0  0  0  0  0  0  0  0  0  0
   30.1505   46.0066   45.3503 C   0  0  0  0  0  0  0  0  0  0  0  0
   27.8350   46.6559   44.6045 C   0  0  0  0  0  0  0  0  0  0  0  0
   27.5473   46.2442   43.2799 O   0  0  0  0  0  0  0  0  0  0  0  0
   26.8876   46.7551   45.5440 N   0  0  0  0  0  0  0  0  0  0  0  0
   27.1317   47.1756   46.4001 H   0  0  0  0  0  0  0  0  0  0  0  0
   25.5297   46.2859   45.3856 C   0  0  0  0  0  0  0  0  0  0  0  0
   24.5801   47.3934   45.7667 C   0  0  0  0  0  0  0  0  0  0  0  0
   23.6319   47.7171   44.9993 O   0  0  0  0  0  0  0  0  0  0  0  0
   24.7234   48.0045   46.8568 O   0  0  0  0  0  0  0  0  0  0  0  0
   25.4235   47.7733   47.4350 H   0  0  0  0  0  0  0  0  0  0  0  0
   25.2535   45.0491   46.2506 C   0  0  0  0  0  0  0  0  0  0  0  0
   23.8268   45.0049   46.7956 C   0  0  0  0  0  0  0  0  0  0  0  0
   23.7653   44.4517   48.2060 C   0  0  0  0  0  0  0  0  0  0  0  0
   23.6743   43.2078   48.3986 O   0  0  0  0  0  0  0  0  0  0  0  0
   23.8273   45.2215   49.2018 O   0  0  0  0  0  0  0  0  0  0  0  0
   23.8951   46.1474   49.0747 H   0  0  0  0  0  0  0  0  0  0  0  0
   33.1456   47.9432   46.0434 N   0  0  0  0  0  0  0  0  0  0  0  0
   33.3836   48.8897   46.1724 H   0  0  0  0  0  0  0  0  0  0  0  0
   34.1998   46.9499   46.2330 C   0  0  0  0  0  0  0  0  0  0  0  0
   37.1440   48.7972   50.7022 N   0  0  0  0  0  0  0  0  0  0  0  0
   36.6088   48.6862   51.9705 C   0  0  0  0  0  0  0  0  0  0  0  0
   37.3021   49.1243   53.0241 N   0  0  0  0  0  0  0  0  0  0  0  0
   35.3617   48.1158   52.1508 N   0  0  0  0  0  0  0  0  0  0  0  0
   34.6348   47.6549   51.0685 C   0  0  0  0  0  0  0  0  0  0  0  0
   33.5261   47.1352   51.2242 O   0  0  0  0  0  0  0  0  0  0  0  0
   35.1700   47.7691   49.7907 C   0  0  0  0  0  0  0  0  0  0  0  0
   34.4440   47.3138   48.7066 N   0  0  0  0  0  0  0  0  0  0  0  0
   34.9852   47.4251   47.4374 C   0  0  0  0  0  0  0  0  0  0  0  0
   36.2472   47.9994   47.2590 C   0  0  0  0  0  0  0  0  0  0  0  0
   36.9711   48.4591   48.3420 N   0  0  0  0  0  0  0  0  0  0  0  0
   36.4320   48.3409   49.6097 C   0  0  0  0  0  0  0  0  0  0  0  0
   38.0328   49.2016   50.5767 H   0  0  0  0  0  0  0  0  0  0  0  0
   38.1897   49.5302   52.8950 H   0  0  0  0  0  0  0  0  0  0  0  0
   36.9257   49.0415   53.9300 H   0  0  0  0  0  0  0  0  0  0  0  0
 25 26  1  0  0  0
 25 36  1  0  0  0
 26 27  1  0  0  0
 26 28  2  0  0  0
 28 29  1  0  0  0
 29 30  2  0  0  0
 29 31  1  0  0  0
 31 32  1  0  0  0
 31 36  2  0  0  0
 32 33  2  0  0  0
 33 34  1  0  0  0
 33 24  1  0  0  0
 34 35  2  0  0  0
 35 36  1  0  0  0
 24 22  1  0  0  0
 22  4  1  0  0  0
  1  2  2  0  0  0
  1  6  1  0  0  0
  1  7  1  0  0  0
  2  3  1  0  0  0
  3  4  2  0  0  0
  4  5  1  0  0  0
  5  6  2  0  0  0
  7  8  2  0  0  0
  7  9  1  0  0  0
  9 11  1  0  0  0
 11 16  1  0  0  0
 11 12  1  0  0  0
 16 17  1  0  0  0
 17 18  1  0  0  0
 18 19  2  0  0  0
 18 20  1  0  0  0
 12 13  2  0  0  0
 12 14  1  0  0  0
 25 37  1  0  0  0
 27 38  1  0  0  0
 27 39  1  0  0  0
 22 23  1  0  0  0
  9 10  1  0  0  0
 20 21  1  0  0  0
 14 15  1  0  0  0
M  END
> <minimizedAffinity>
-9.39592

$$$$
4KMZ_FOL_A_301


 39 41  0  0  0  0  0  0  0  0999 V2000
   28.0740   45.6360   44.9623 C   0  0  0  0  0  0  0  0  0  0  0  0
   29.0250   44.6186   44.9049 C   0  0  0  0  0  0  0  0  0  0  0  0
   30.3538   44.8813   45.2386 C   0  0  0  0  0  0  0  0  0  0  0  0
   30.7476   46.1646   45.6217 C   0  0  0  0  0  0  0  0  0  0  0  0
   29.7953   47.1805   45.6805 C   0  0  0  0  0  0  0  0  0  0  0  0
   28.4599   46.9175   45.3527 C   0  0  0  0  0  0  0  0  0  0  0  0
   26.6319   45.3503   44.6168 C   0  0  0  0  0  0  0  0  0  0  0  0
   25.8224   44.6043   45.5086 O   0  0  0  0  0  0  0  0  0  0  0  0
   26.1689   45.8176   43.4519 N   0  0  0  0  0  0  0  0  0  0  0  0
   26.8180   46.2073   42.8225 H   0  0  0  0  0  0  0  0  0  0  0  0
   24.7791   45.7884   43.0558 C   0  0  0  0  0  0  0  0  0  0  0  0
   24.6381   44.9332   41.8221 C   0  0  0  0  0  0  0  0  0  0  0  0
   24.5879   45.4627   40.6776 O   0  0  0  0  0  0  0  0  0  0  0  0
   24.5715   43.6812   41.9226 O   0  0  0  0  0  0  0  0  0  0  0  0
   24.6076   43.2764   42.7668 H   0  0  0  0  0  0  0  0  0  0  0  0
   24.2418   47.1972   42.7713 C   0  0  0  0  0  0  0  0  0  0  0  0
   24.7221   48.2375   43.7821 C   0  0  0  0  0  0  0  0  0  0  0  0
   25.0555   49.5647   43.1291 C   0  0  0  0  0  0  0  0  0  0  0  0
   26.1715   50.1153   43.3394 O   0  0  0  0  0  0  0  0  0  0  0  0
   24.2353   50.1229   42.3521 O   0  0  0  0  0  0  0  0  0  0  0  0
   23.4028   49.7263   42.1862 H   0  0  0  0  0  0  0  0  0  0  0  0
   32.0126   46.4457   45.9502 N   0  0  0  0  0  0  0  0  0  0  0  0
   32.4081   45.9500   46.7033 H   0  0  0  0  0  0  0  0  0  0  0  0
   32.8524   47.4326   45.2760 C   0  0  0  0  0  0  0  0  0  0  0  0
   37.4973   47.9792   48.4667 N   0  0  0  0  0  0  0  0  0  0  0  0
   37.4010   47.8856   49.8413 C   0  0  0  0  0  0  0  0  0  0  0  0
   38.4960   48.0172   50.5937 N   0  0  0  0  0  0  0  0  0  0  0  0
   36.1756   47.6484   50.4372 N   0  0  0  0  0  0  0  0  0  0  0  0
   35.0344   47.5067   49.6693 C   0  0  0  0  0  0  0  0  0  0  0  0
   33.9399   47.2844   50.1948 O   0  0  0  0  0  0  0  0  0  0  0  0
   35.1284   47.6044   48.2859 C   0  0  0  0  0  0  0  0  0  0  0  0
   33.9891   47.4679   47.5159 N   0  0  0  0  0  0  0  0  0  0  0  0
   34.0905   47.5603   46.1384 C   0  0  0  0  0  0  0  0  0  0  0  0
   35.3311   47.7971   45.5391 C   0  0  0  0  0  0  0  0  0  0  0  0
   36.4695   47.9383   46.3088 N   0  0  0  0  0  0  0  0  0  0  0  0
   36.3675   47.8390   47.6841 C   0  0  0  0  0  0  0  0  0  0  0  0
   38.3710   48.1457   48.0447 H   0  0  0  0  0  0  0  0  0  0  0  0
   39.3679   48.1859   50.1688 H   0  0  0  0  0  0  0  0  0  0  0  0
   38.4316   47.9454   51.5735 H   0  0  0  0  0  0  0  0  0  0  0  0
 25 26  1  0  0  0
 25 36  1  0  0  0
 26 27  1  0  0  0
 26 28  2  0  0  0
 28 29  1  0  0  0
 29 30  2  0  0  0
 29 31  1  0  0  0
 31 32  1  0  0  0
 31 36  2  0  0  0
 32 33  2  0  0  0
 33 34  1  0  0  0
 33 24  1  0  0  0
 34 35  2  0  0  0
 35 36  1  0  0  0
 24 22  1  0  0  0
 22  4  1  0  0  0
  1  2  2  0  0  0
  1  6  1  0  0  0
  1  7  1  0  0  0
  2  3  1  0  0  0
  3  4  2  0  0  0
  4  5  1  0  0  0
  5  6  2  0  0  0
  7  8  2  0  0  0
  7  9  1  0  0  0
  9 11  1  0  0  0
 11 16  1  0  0  0
 11 12  1  0  0  0
 16 17  1  0  0  0
 17 18  1  0  0  0
 18 19  2  0  0  0
 18 20  1  0  0  0
 12 13  2  0  0  0
 12 14  1  0  0  0
 25 37  1  0  0  0
 27 38  1  0  0  0
 27 39  1  0  0  0
 22 23  1  0  0  0
  9 10  1  0  0  0
 20 21  1  0  0  0
 14 15  1  0  0  0
M  END
> <minimizedAffinity>
-9.24878

$$$$
