4A6B_QG8_B_1200
  RCSB PDB12061711373D
Coordinates from PDB:4A6B:B:1200 Model:1 without hydrogens
 54 59  0  0  0  0            999 V2000
   10.5810   24.1940    6.1680   C 0  0  0  0  0  0  0  0  0  0  0  0
   10.3020   23.1950    6.8270   O 0  0  0  0  0  0  0  0  0  0  0  0
   11.8820   24.2760    5.2930   C 0  0  0  0  0  0  0  0  0  0  0  0
   11.8990   25.8270    5.0080   C 0  0  0  0  0  0  0  0  0  0  0  0
   10.4780   26.2600    5.2200   C 0  0  0  0  0  0  0  0  0  0  0  0
    9.8420   25.3180    6.1030   N 0  0  0  0  0  0  0  0  0  0  0  0
    8.5550   25.5940    6.8020   C 0  0  0  0  0  0  0  0  0  0  0  0
    8.4680   26.8600    7.6580   C 0  0  0  0  0  0  0  0  0  0  0  0
    7.1380   27.3880    7.6210   C 0  0  0  0  0  0  0  0  0  0  0  0
    6.2480   26.5480    6.7520   C 0  0  0  0  0  0  0  0  0  0  0  0
    7.2470   25.7020    5.9240   C 0  0  0  0  0  0  0  0  0  0  0  0
    7.4050   26.4330    4.7030   O 0  0  0  0  0  0  0  0  0  0  0  0
    6.7760   28.5910    8.3480   C 0  0  0  0  0  0  0  0  0  0  0  0
    7.8020   29.2680    9.1300   C 0  0  0  0  0  0  0  0  0  0  0  0
    9.1680   28.7350    9.1690   C 0  0  0  0  0  0  0  0  0  0  0  0
    9.5100   27.5230    8.4370   C 0  0  0  0  0  0  0  0  0  0  0  0
   12.6160   26.6320    5.9050   O 0  0  0  0  0  0  0  0  0  0  0  0
   14.4990   24.0060    5.5580   C 0  0  0  0  0  0  0  0  0  0  0  0
   15.6380   23.8450    6.5310   C 0  0  0  0  0  0  0  0  0  0  0  0
   13.0820   23.7840    6.1560   C 0  0  0  0  0  0  0  0  0  0  0  0
   11.7550   23.3560    3.9420   C 0  0  0  0  0  0  0  0  0  0  0  0
   10.6600   23.7040    2.9080   C 0  0  0  0  0  0  0  0  0  0  0  0
   10.9410   24.5980    1.7910   C 0  0  0  0  0  0  0  0  0  0  0  0
    9.9050   24.9210    0.8390   C 0  0  0  0  0  0  0  0  0  0  0  0
    8.5840   24.3600    0.9900   C 0  0  0  0  0  0  0  0  0  0  0  0
    8.3020   23.4750    2.0900   C 0  0  0  0  0  0  0  0  0  0  0  0
    9.3240   23.1420    3.0480   C 0  0  0  0  0  0  0  0  0  0  0  0
   17.7430   17.3490   10.8930   C 0  0  0  0  0  0  0  0  0  0  0  0
   17.4430   18.6510   10.2400   C 0  0  0  0  0  0  0  0  0  0  0  0
   18.5370   19.4900    9.7600   C 0  0  0  0  0  0  0  0  0  0  0  0
   18.2780   20.7620    9.1260   C 0  0  0  0  0  0  0  0  0  0  0  0
   16.9170   21.2340    8.9530   C 0  0  0  0  0  0  0  0  0  0  0  0
   15.7980   20.4180    9.4210   C 0  0  0  0  0  0  0  0  0  0  0  0
   16.0620   19.1290   10.0620   C 0  0  0  0  0  0  0  0  0  0  0  0
   16.7130   22.5890    8.2800   C 0  0  0  0  0  0  0  0  0  0  0  0
   15.7740   22.5130    7.1350   N 0  0  0  0  0  0  0  0  0  0  0  0
   16.2600   21.6140    6.1680   N 0  0  0  0  0  0  0  0  0  0  0  0
   15.5500   20.6050    5.6480   C 0  0  0  0  0  0  0  0  0  0  0  0
   16.3590   19.7980    4.6180   C 0  0  0  0  0  0  0  0  0  0  0  0
   17.1470   18.9070    5.4710   N 0  0  0  0  0  0  0  0  0  0  0  0
   18.5150   19.0190    5.6740   C 0  0  0  0  0  0  0  0  0  0  0  0
   18.8950   18.0300    6.5190   O 0  0  0  0  0  0  0  0  0  0  0  0
   20.2570   17.8860    6.9140   C 0  0  0  0  0  0  0  0  0  0  0  0
   19.2320   19.8900    5.1520   O 0  0  0  0  0  0  0  0  0  0  0  0
   15.5870   18.8970    3.5410   C 0  0  0  0  0  0  0  0  0  0  0  0
   14.7390   19.8260    2.6260   C 0  0  0  0  0  0  0  0  0  0  0  0
   16.6130   18.1840    2.6090   C 0  0  0  0  0  0  0  0  0  0  0  0
   14.6830   17.7890    4.1490   C 0  0  0  0  0  0  0  0  0  0  0  0
   14.3770   20.3610    5.9720   O 0  0  0  0  0  0  0  0  0  0  0  0
   17.8420   17.2480   12.3500   C 0  0  0  0  0  0  0  0  0  0  0  0
   18.1330   15.9780   12.9980   C 0  0  0  0  0  0  0  0  0  0  0  0
   18.3310   14.7810   12.1920   C 0  0  0  0  0  0  0  0  0  0  0  0
   18.2380   14.8610   10.7400   C 0  0  0  0  0  0  0  0  0  0  0  0
   17.9460   16.1310   10.0950   C 0  0  0  0  0  0  0  0  0  0  0  0
  1  2  2  0  0  0  0
  1  3  1  0  0  0  0
  1  6  1  0  0  0  0
  3  4  1  0  0  0  0
  3 20  1  0  0  0  0
  3 21  1  0  0  0  0
  4  5  1  0  0  0  0
  4 17  1  0  0  0  0
  5  6  1  0  0  0  0
  6  7  1  0  0  0  0
  7  8  1  0  0  0  0
  7 11  1  0  0  0  0
  8  9  2  0  0  0  0
  8 16  1  0  0  0  0
  9 10  1  0  0  0  0
  9 13  1  0  0  0  0
 10 11  1  0  0  0  0
 11 12  1  0  0  0  0
 13 14  2  0  0  0  0
 14 15  1  0  0  0  0
 15 16  2  0  0  0  0
 18 19  1  0  0  0  0
 18 20  1  0  0  0  0
 19 36  1  0  0  0  0
 21 22  1  0  0  0  0
 22 23  2  0  0  0  0
 22 27  1  0  0  0  0
 23 24  1  0  0  0  0
 24 25  2  0  0  0  0
 25 26  1  0  0  0  0
 26 27  2  0  0  0  0
 28 29  1  0  0  0  0
 28 50  2  0  0  0  0
 28 54  1  0  0  0  0
 29 30  2  0  0  0  0
 29 34  1  0  0  0  0
 30 31  1  0  0  0  0
 31 32  2  0  0  0  0
 32 33  1  0  0  0  0
 32 35  1  0  0  0  0
 33 34  2  0  0  0  0
 35 36  1  0  0  0  0
 36 37  1  0  0  0  0
 37 38  1  0  0  0  0
 38 39  1  0  0  0  0
 38 49  2  0  0  0  0
 39 40  1  0  0  0  0
 39 45  1  0  0  0  0
 40 41  1  0  0  0  0
 41 42  1  0  0  0  0
 41 44  2  0  0  0  0
 42 43  1  0  0  0  0
 45 46  1  0  0  0  0
 45 47  1  0  0  0  0
 45 48  1  0  0  0  0
 50 51  1  0  0  0  0
 51 52  2  0  0  0  0
 52 53  1  0  0  0  0
 53 54  2  0  0  0  0
A    1
C1
A    2
O2
A    3
C3
A    4
C4
A    5
C5
A    6
N6
A    7
C7
A    8
C8
A    9
C9
A   10
C10
A   11
C11
A   12
O12
A   13
C13
A   14
C14
A   15
C15
A   16
C16
A   17
O17
A   18
C18
A   19
C19
A   20
C20
A   21
C21
A   22
C22
A   23
C23
A   24
C24
A   25
C25
A   26
C26
A   27
C27
A   28
C28
A   29
C29
A   30
C30
A   31
C31
A   32
C32
A   33
C33
A   34
C34
A   35
C35
A   36
N36
A   37
N37
A   38
C38
A   39
C39
A   40
N40
A   41
C41
A   42
O42
A   43
C43
A   44
O44
A   45
C45
A   46
C46
A   47
C47
A   48
C48
A   49
O49
A   50
C50
A   51
C51
A   52
C52
A   53
C53
A   54
C54
M  END
>  <InstanceId>
4A6B_QG8_B_1200

>  <ChemCompId>
QG8

>  <PdbId>
4A6B

>  <ChainId>
B

>  <ResidueNumber>
1200

>  <InsertionCode>


>  <Model>
1

>  <AltIds>


>  <MissingHeavyAtoms>
0

>  <ObservedFormula>
C44 N4 O6

>  <Name>
METHYL ((S)-1-(2-([1,1'-BIPHENYL]-4-YLMETHYL)-2-(3-((3S,4S)-3-BENZYL-4-HYDROXY-1-((1S,2R)-2-HYDROXY-2,3-DIHYDRO-1H-INDEN-1-YL)-2-OXOPYRROLIDIN-3-YL)PROPYL)HYDRAZINYL)-3,3-DIMETHYL-1-OXOBUTAN-2-YL)CARBAMATE

>  <SystematicName>
methyl N-[(2S)-3,3-dimethyl-1-oxidanylidene-1-[2-[3-[(3S,4S)-4-oxidanyl-1-[(1S,2R)-2-oxidanyl-2,3-dihydro-1H-inden-1-yl]-2-oxidanylidene-3-(phenylmethyl)pyrrolidin-3-yl]propyl]-2-[(4-phenylphenyl)methyl]hydrazinyl]butan-2-yl]carbamate

>  <Synonyms>


>  <Type>
NON-POLYMER

>  <Formula>
C44 H52 N4 O6

>  <MolecularWeight>
732.907

>  <ModifiedDate>
2012-05-04

>  <Parent>


>  <OneLetterCode>


>  <SubcomponentList>


>  <AmbiguousFlag>
N

>  <InChI>
InChI=1S/C44H52N4O6/c1-43(2,3)39(45-42(53)54-4)40(51)46-47(28-31-20-22-33(23-21-31)32-16-9-6-10-17-32)25-13-24-44(27-30-14-7-5-8-15-30)37(50)29-48(41(44)52)38-35-19-12-11-18-34(35)26-36(38)49/h5-12,14-23,36-39,49-50H,13,24-29H2,1-4H3,(H,45,53)(H,46,51)/t36-,37-,38+,39-,44+/m1/s1

>  <InChIKey>
YNPGDSJLNVNNFA-MIYQMFTLSA-N

>  <SMILES>
CC(C)(C)[C@@H](C(=O)NN(CCC[C@@]1([C@@H](CN(C1=O)[C@H]2c3ccccc3C[C@H]2O)O)Cc4ccccc4)Cc5ccc(cc5)c6ccccc6)NC(=O)OC

$$$$
