4A6B_QG8_B_1200


 58 63  0  0  0  0  0  0  0  0999 V2000
   15.4526   23.2225    6.2333 C   0  0  0  0  0  0  0  0  0  0  0  0
   13.9550   23.3263    6.1053 C   0  0  0  0  0  0  0  0  0  0  0  0
   13.4130   23.3087    4.6490 C   0  0  0  0  0  0  0  0  0  0  0  0
   11.1205   23.5656    5.6988 C   0  0  0  0  0  0  0  0  0  0  0  0
   11.0875   22.4374    6.1848 O   0  0  0  0  0  0  0  0  0  0  0  0
   11.9882   23.9007    4.4340 C   0  0  0  0  0  0  0  0  0  0  0  0
   11.9384   25.4755    4.5019 C   0  0  0  0  0  0  0  0  0  0  0  0
   10.7203   25.7742    5.3257 C   0  0  0  0  0  0  0  0  0  0  0  0
   10.4452   24.6351    6.1613 N   0  0  0  0  0  0  0  0  0  0  0  0
   12.9671   26.1158    5.2081 O   0  0  0  0  0  0  0  0  0  0  0  0
   12.9533   25.8255    6.1335 H   0  0  0  0  0  0  0  0  0  0  0  0
    9.5332   24.6868    7.3388 C   0  0  0  0  0  0  0  0  0  0  0  0
    9.6852   25.8645    8.3047 C   0  0  0  0  0  0  0  0  0  0  0  0
    8.4123   26.2133    8.8589 C   0  0  0  0  0  0  0  0  0  0  0  0
    7.3274   25.3286    8.3175 C   0  0  0  0  0  0  0  0  0  0  0  0
    7.9775   24.6846    7.0677 C   0  0  0  0  0  0  0  0  0  0  0  0
    7.5588   25.5170    5.9806 O   0  0  0  0  0  0  0  0  0  0  0  0
    8.2677   27.3017    9.8082 C   0  0  0  0  0  0  0  0  0  0  0  0
    9.4559   28.0497   10.1972 C   0  0  0  0  0  0  0  0  0  0  0  0
   10.7628   27.7006    9.6300 C   0  0  0  0  0  0  0  0  0  0  0  0
   10.8880   26.6010    8.6830 C   0  0  0  0  0  0  0  0  0  0  0  0
    7.8019   26.4376    6.1659 H   0  0  0  0  0  0  0  0  0  0  0  0
   11.3267   23.2757    3.0703 C   0  0  0  0  0  0  0  0  0  0  0  0
   10.0166   23.8937    2.5309 C   0  0  0  0  0  0  0  0  0  0  0  0
   10.0321   24.8142    1.4003 C   0  0  0  0  0  0  0  0  0  0  0  0
    8.8011   25.3906    0.9142 C   0  0  0  0  0  0  0  0  0  0  0  0
    7.5476   25.0582    1.5475 C   0  0  0  0  0  0  0  0  0  0  0  0
    7.5267   24.1481    2.6629 C   0  0  0  0  0  0  0  0  0  0  0  0
    8.7453   23.5639    3.1597 C   0  0  0  0  0  0  0  0  0  0  0  0
   15.9696   21.8929    6.5833 N   0  0  0  0  0  0  0  0  0  0  0  0
   16.2383   21.1756    5.4032 N   0  0  0  0  0  0  0  0  0  0  0  0
   15.4774   20.1791    4.9333 C   0  0  0  0  0  0  0  0  0  0  0  0
   14.4458   19.7857    5.5003 O   0  0  0  0  0  0  0  0  0  0  0  0
   17.0400   21.4230    4.8881 H   0  0  0  0  0  0  0  0  0  0  0  0
   16.0356   19.5912    3.6258 C   0  0  0  0  0  0  0  0  0  0  0  0
   16.5438   18.2898    4.0624 N   0  0  0  0  0  0  0  0  0  0  0  0
   17.8334   17.8319    3.8335 C   0  0  0  0  0  0  0  0  0  0  0  0
   18.7082   18.4747    3.2280 O   0  0  0  0  0  0  0  0  0  0  0  0
   15.9278   17.6984    4.5523 H   0  0  0  0  0  0  0  0  0  0  0  0
   17.9417   16.5963    4.3794 O   0  0  0  0  0  0  0  0  0  0  0  0
   18.4664   16.4182    5.6927 C   0  0  0  0  0  0  0  0  0  0  0  0
   15.0485   19.3469    2.3874 C   0  0  0  0  0  0  0  0  0  0  0  0
   15.8996   19.1159    1.1062 C   0  0  0  0  0  0  0  0  0  0  0  0
   14.2288   18.0398    2.6090 C   0  0  0  0  0  0  0  0  0  0  0  0
   14.0223   20.4871    2.1395 C   0  0  0  0  0  0  0  0  0  0  0  0
   17.2093   22.0452    7.3824 C   0  0  0  0  0  0  0  0  0  0  0  0
   17.4337   18.9145   10.5495 C   0  0  0  0  0  0  0  0  0  0  0  0
   16.1651   19.3181    9.9503 C   0  0  0  0  0  0  0  0  0  0  0  0
   16.1148   20.3362    8.9266 C   0  0  0  0  0  0  0  0  0  0  0  0
   17.3317   20.9814    8.4705 C   0  0  0  0  0  0  0  0  0  0  0  0
   18.6188   20.6018    9.0504 C   0  0  0  0  0  0  0  0  0  0  0  0
   18.6680   19.5711   10.0883 C   0  0  0  0  0  0  0  0  0  0  0  0
   17.4524   17.8597   11.5977 C   0  0  0  0  0  0  0  0  0  0  0  0
   16.6159   16.6650   11.4719 C   0  0  0  0  0  0  0  0  0  0  0  0
   16.6292   15.6266   12.4913 C   0  0  0  0  0  0  0  0  0  0  0  0
   17.4857   15.7691   13.6608 C   0  0  0  0  0  0  0  0  0  0  0  0
   18.3248   16.9517   13.8052 C   0  0  0  0  0  0  0  0  0  0  0  0
   18.3106   17.9873   12.7846 C   0  0  0  0  0  0  0  0  0  0  0  0
  4  5  2  0  0  0
  4  6  1  0  0  0
  4  9  1  0  0  0
  6  7  1  0  0  0
  6  3  1  0  0  0
  6 23  1  0  0  0
  7  8  1  0  0  0
  7 10  1  0  0  0
  8  9  1  0  0  0
  9 12  1  0  0  0
 12 13  1  0  0  0
 12 16  1  0  0  0
 13 14  2  0  0  0
 13 21  1  0  0  0
 14 15  1  0  0  0
 14 18  1  0  0  0
 15 16  1  0  0  0
 16 17  1  0  0  0
 18 19  2  0  0  0
 19 20  1  0  0  0
 20 21  2  0  0  0
  2  1  1  0  0  0
  2  3  1  0  0  0
  1 30  1  0  0  0
 23 24  1  0  0  0
 24 25  2  0  0  0
 24 29  1  0  0  0
 25 26  1  0  0  0
 26 27  2  0  0  0
 27 28  1  0  0  0
 28 29  2  0  0  0
 53 47  1  0  0  0
 53 54  2  0  0  0
 53 58  1  0  0  0
 47 48  2  0  0  0
 47 52  1  0  0  0
 48 49  1  0  0  0
 49 50  2  0  0  0
 50 51  1  0  0  0
 50 46  1  0  0  0
 51 52  2  0  0  0
 46 30  1  0  0  0
 30 31  1  0  0  0
 31 32  1  0  0  0
 32 35  1  0  0  0
 32 33  2  0  0  0
 35 36  1  0  0  0
 35 42  1  0  0  0
 36 37  1  0  0  0
 37 40  1  0  0  0
 37 38  2  0  0  0
 40 41  1  0  0  0
 42 43  1  0  0  0
 42 44  1  0  0  0
 42 45  1  0  0  0
 54 55  1  0  0  0
 55 56  2  0  0  0
 56 57  1  0  0  0
 57 58  2  0  0  0
 17 22  1  0  0  0
 10 11  1  0  0  0
 31 34  1  0  0  0
 36 39  1  0  0  0
M  END
> <minimizedAffinity>
-11.22669

$$$$
4A6B_QG8_B_1200


 58 63  0  0  0  0  0  0  0  0999 V2000
   15.2709   23.7643    5.2329 C   0  0  0  0  0  0  0  0  0  0  0  0
   13.8615   24.2824    5.1101 C   0  0  0  0  0  0  0  0  0  0  0  0
   13.1452   24.5763    6.4575 C   0  0  0  0  0  0  0  0  0  0  0  0
   11.0212   24.8934    5.1116 C   0  0  0  0  0  0  0  0  0  0  0  0
   11.3457   25.9787    4.6353 O   0  0  0  0  0  0  0  0  0  0  0  0
   11.6001   24.3784    6.4771 C   0  0  0  0  0  0  0  0  0  0  0  0
   11.1525   22.8688    6.3896 C   0  0  0  0  0  0  0  0  0  0  0  0
   10.0163   22.8737    5.4095 C   0  0  0  0  0  0  0  0  0  0  0  0
   10.1574   24.0231    4.5547 N   0  0  0  0  0  0  0  0  0  0  0  0
   12.0624   21.9662    5.8202 O   0  0  0  0  0  0  0  0  0  0  0  0
   12.2448   22.2260    4.9036 H   0  0  0  0  0  0  0  0  0  0  0  0
    9.4241   24.1781    3.2665 C   0  0  0  0  0  0  0  0  0  0  0  0
    8.6711   25.4897    3.0304 C   0  0  0  0  0  0  0  0  0  0  0  0
    8.6892   25.8231    1.6384 C   0  0  0  0  0  0  0  0  0  0  0  0
    9.4444   24.7953    0.8471 C   0  0  0  0  0  0  0  0  0  0  0  0
   10.2462   24.0268    1.9269 C   0  0  0  0  0  0  0  0  0  0  0  0
   11.5288   24.6632    1.9372 O   0  0  0  0  0  0  0  0  0  0  0  0
    8.0467   27.0232    1.1347 C   0  0  0  0  0  0  0  0  0  0  0  0
    7.3711   27.9015    2.0806 C   0  0  0  0  0  0  0  0  0  0  0  0
    7.3523   27.5683    3.5089 C   0  0  0  0  0  0  0  0  0  0  0  0
    7.9982   26.3561    3.9940 C   0  0  0  0  0  0  0  0  0  0  0  0
   11.4159   25.6157    2.0817 H   0  0  0  0  0  0  0  0  0  0  0  0
   10.9523   25.1885    7.7467 C   0  0  0  0  0  0  0  0  0  0  0  0
    9.5533   25.8253    7.5842 C   0  0  0  0  0  0  0  0  0  0  0  0
    9.4037   27.2576    7.3563 C   0  0  0  0  0  0  0  0  0  0  0  0
    8.0898   27.8389    7.2161 C   0  0  0  0  0  0  0  0  0  0  0  0
    6.9165   27.0030    7.3022 C   0  0  0  0  0  0  0  0  0  0  0  0
    7.0589   25.5878    7.5250 C   0  0  0  0  0  0  0  0  0  0  0  0
    8.3620   24.9919    7.6663 C   0  0  0  0  0  0  0  0  0  0  0  0
   15.4383   22.5718    6.0741 N   0  0  0  0  0  0  0  0  0  0  0  0
   16.0220   21.5448    5.3099 N   0  0  0  0  0  0  0  0  0  0  0  0
   15.4194   20.3868    5.0124 C   0  0  0  0  0  0  0  0  0  0  0  0
   14.2706   20.1023    5.3861 O   0  0  0  0  0  0  0  0  0  0  0  0
   16.9353   21.6873    4.9710 H   0  0  0  0  0  0  0  0  0  0  0  0
   16.3167   19.4677    4.1658 C   0  0  0  0  0  0  0  0  0  0  0  0
   17.0479   18.7190    5.1891 N   0  0  0  0  0  0  0  0  0  0  0  0
   18.3014   19.0659    5.6723 C   0  0  0  0  0  0  0  0  0  0  0  0
   18.9512   20.0541    5.2897 O   0  0  0  0  0  0  0  0  0  0  0  0
   16.6207   17.9134    5.5603 H   0  0  0  0  0  0  0  0  0  0  0  0
   18.6588   18.1496    6.6046 O   0  0  0  0  0  0  0  0  0  0  0  0
   19.9735   17.5990    6.6255 C   0  0  0  0  0  0  0  0  0  0  0  0
   15.6428   18.4115    3.1668 C   0  0  0  0  0  0  0  0  0  0  0  0
   16.7648   17.5626    2.5036 C   0  0  0  0  0  0  0  0  0  0  0  0
   14.7544   17.4121    3.9678 C   0  0  0  0  0  0  0  0  0  0  0  0
   14.7395   19.0396    2.0695 C   0  0  0  0  0  0  0  0  0  0  0  0
   16.3062   22.9060    7.2289 C   0  0  0  0  0  0  0  0  0  0  0  0
   16.9064   19.5006   10.0440 C   0  0  0  0  0  0  0  0  0  0  0  0
   18.0289   20.2441    9.4800 C   0  0  0  0  0  0  0  0  0  0  0  0
   17.8120   21.3433    8.5680 C   0  0  0  0  0  0  0  0  0  0  0  0
   16.4658   21.7328    8.1925 C   0  0  0  0  0  0  0  0  0  0  0  0
   15.3191   21.0085    8.7380 C   0  0  0  0  0  0  0  0  0  0  0  0
   15.5405   19.8943    9.6608 C   0  0  0  0  0  0  0  0  0  0  0  0
   17.1628   18.3772   10.9842 C   0  0  0  0  0  0  0  0  0  0  0  0
   16.4585   17.1025   10.8366 C   0  0  0  0  0  0  0  0  0  0  0  0
   16.7044   15.9969   11.7503 C   0  0  0  0  0  0  0  0  0  0  0  0
   17.6658   16.1513   12.8335 C   0  0  0  0  0  0  0  0  0  0  0  0
   18.3762   17.4129   12.9982 C   0  0  0  0  0  0  0  0  0  0  0  0
   18.1295   18.5157   12.0832 C   0  0  0  0  0  0  0  0  0  0  0  0
  4  5  2  0  0  0
  4  6  1  0  0  0
  4  9  1  0  0  0
  6  7  1  0  0  0
  6  3  1  0  0  0
  6 23  1  0  0  0
  7  8  1  0  0  0
  7 10  1  0  0  0
  8  9  1  0  0  0
  9 12  1  0  0  0
 12 13  1  0  0  0
 12 16  1  0  0  0
 13 14  2  0  0  0
 13 21  1  0  0  0
 14 15  1  0  0  0
 14 18  1  0  0  0
 15 16  1  0  0  0
 16 17  1  0  0  0
 18 19  2  0  0  0
 19 20  1  0  0  0
 20 21  2  0  0  0
  2  1  1  0  0  0
  2  3  1  0  0  0
  1 30  1  0  0  0
 23 24  1  0  0  0
 24 25  2  0  0  0
 24 29  1  0  0  0
 25 26  1  0  0  0
 26 27  2  0  0  0
 27 28  1  0  0  0
 28 29  2  0  0  0
 53 47  1  0  0  0
 53 54  2  0  0  0
 53 58  1  0  0  0
 47 48  2  0  0  0
 47 52  1  0  0  0
 48 49  1  0  0  0
 49 50  2  0  0  0
 50 51  1  0  0  0
 50 46  1  0  0  0
 51 52  2  0  0  0
 46 30  1  0  0  0
 30 31  1  0  0  0
 31 32  1  0  0  0
 32 35  1  0  0  0
 32 33  2  0  0  0
 35 36  1  0  0  0
 35 42  1  0  0  0
 36 37  1  0  0  0
 37 40  1  0  0  0
 37 38  2  0  0  0
 40 41  1  0  0  0
 42 43  1  0  0  0
 42 44  1  0  0  0
 42 45  1  0  0  0
 54 55  1  0  0  0
 55 56  2  0  0  0
 56 57  1  0  0  0
 57 58  2  0  0  0
 17 22  1  0  0  0
 10 11  1  0  0  0
 31 34  1  0  0  0
 36 39  1  0  0  0
M  END
> <minimizedAffinity>
-11.09387

$$$$
4A6B_QG8_B_1200


 58 63  0  0  0  0  0  0  0  0999 V2000
   14.3033   23.8141    4.9764 C   0  0  0  0  0  0  0  0  0  0  0  0
   13.1631   24.6517    5.4945 C   0  0  0  0  0  0  0  0  0  0  0  0
   11.9906   24.8625    4.4966 C   0  0  0  0  0  0  0  0  0  0  0  0
    9.6430   25.7007    4.9537 C   0  0  0  0  0  0  0  0  0  0  0  0
    9.9937   26.7834    5.4174 O   0  0  0  0  0  0  0  0  0  0  0  0
   10.5758   24.4385    4.9921 C   0  0  0  0  0  0  0  0  0  0  0  0
    9.7976   23.5166    3.9764 C   0  0  0  0  0  0  0  0  0  0  0  0
    8.4023   24.0685    3.9666 C   0  0  0  0  0  0  0  0  0  0  0  0
    8.4561   25.4494    4.3689 N   0  0  0  0  0  0  0  0  0  0  0  0
   10.1796   23.5884    2.6290 O   0  0  0  0  0  0  0  0  0  0  0  0
   10.0428   24.4913    2.3018 H   0  0  0  0  0  0  0  0  0  0  0  0
    7.3337   26.4065    4.1563 C   0  0  0  0  0  0  0  0  0  0  0  0
    6.2085   25.9837    3.2086 C   0  0  0  0  0  0  0  0  0  0  0  0
    4.9623   26.5337    3.6487 C   0  0  0  0  0  0  0  0  0  0  0  0
    5.1415   27.3417    4.9009 C   0  0  0  0  0  0  0  0  0  0  0  0
    6.5282   26.8923    5.4246 C   0  0  0  0  0  0  0  0  0  0  0  0
    6.2326   25.8634    6.3755 O   0  0  0  0  0  0  0  0  0  0  0  0
    3.7256   26.2882    2.9298 C   0  0  0  0  0  0  0  0  0  0  0  0
    3.7682   25.4591    1.7327 C   0  0  0  0  0  0  0  0  0  0  0  0
    5.0408   24.8886    1.2783 C   0  0  0  0  0  0  0  0  0  0  0  0
    6.2723   25.1515    2.0105 C   0  0  0  0  0  0  0  0  0  0  0  0
    5.6898   25.1793    5.9534 H   0  0  0  0  0  0  0  0  0  0  0  0
   10.6804   23.8159    6.5051 C   0  0  0  0  0  0  0  0  0  0  0  0
   10.2527   24.6972    7.7008 C   0  0  0  0  0  0  0  0  0  0  0  0
    8.9201   24.5785    8.2804 C   0  0  0  0  0  0  0  0  0  0  0  0
    8.5324   25.4155    9.3909 C   0  0  0  0  0  0  0  0  0  0  0  0
    9.4638   26.3757    9.9322 C   0  0  0  0  0  0  0  0  0  0  0  0
   10.7816   26.4952    9.3649 C   0  0  0  0  0  0  0  0  0  0  0  0
   11.1846   25.6677    8.2576 C   0  0  0  0  0  0  0  0  0  0  0  0
   14.7192   22.7025    5.8418 N   0  0  0  0  0  0  0  0  0  0  0  0
   15.4545   21.7746    5.0817 N   0  0  0  0  0  0  0  0  0  0  0  0
   15.1231   20.4860    4.9332 C   0  0  0  0  0  0  0  0  0  0  0  0
   14.1203   19.9768    5.4583 O   0  0  0  0  0  0  0  0  0  0  0  0
   16.2678   22.0946    4.6282 H   0  0  0  0  0  0  0  0  0  0  0  0
   16.1268   19.7281    4.0473 C   0  0  0  0  0  0  0  0  0  0  0  0
   16.8277   18.8885    5.0200 N   0  0  0  0  0  0  0  0  0  0  0  0
   18.0927   19.1562    5.5233 C   0  0  0  0  0  0  0  0  0  0  0  0
   18.7799   20.1416    5.2039 O   0  0  0  0  0  0  0  0  0  0  0  0
   16.3697   18.0776    5.3394 H   0  0  0  0  0  0  0  0  0  0  0  0
   18.4138   18.1694    6.3948 O   0  0  0  0  0  0  0  0  0  0  0  0
   19.7700   17.9261    6.7599 C   0  0  0  0  0  0  0  0  0  0  0  0
   15.5837   18.7796    2.8755 C   0  0  0  0  0  0  0  0  0  0  0  0
   14.8474   17.5668    3.5130 C   0  0  0  0  0  0  0  0  0  0  0  0
   14.5203   19.5385    2.0252 C   0  0  0  0  0  0  0  0  0  0  0  0
   16.6739   18.2750    1.8899 C   0  0  0  0  0  0  0  0  0  0  0  0
   15.5520   23.2303    6.9492 C   0  0  0  0  0  0  0  0  0  0  0  0
   16.7638   19.9844    9.7559 C   0  0  0  0  0  0  0  0  0  0  0  0
   15.3619   20.3012    9.4997 C   0  0  0  0  0  0  0  0  0  0  0  0
   14.9913   21.3584    8.5876 C   0  0  0  0  0  0  0  0  0  0  0  0
   16.0113   22.1309    7.9036 C   0  0  0  0  0  0  0  0  0  0  0  0
   17.4247   21.8407    8.1385 C   0  0  0  0  0  0  0  0  0  0  0  0
   17.7986   20.7701    9.0638 C   0  0  0  0  0  0  0  0  0  0  0  0
   17.1124   18.8866   10.6967 C   0  0  0  0  0  0  0  0  0  0  0  0
   16.4813   17.5711   10.5783 C   0  0  0  0  0  0  0  0  0  0  0  0
   16.8176   16.4903   11.4927 C   0  0  0  0  0  0  0  0  0  0  0  0
   17.7977   16.7110   12.5474 C   0  0  0  0  0  0  0  0  0  0  0  0
   18.4362   18.0139   12.6828 C   0  0  0  0  0  0  0  0  0  0  0  0
   18.0992   19.0919   11.7671 C   0  0  0  0  0  0  0  0  0  0  0  0
  4  5  2  0  0  0
  4  6  1  0  0  0
  4  9  1  0  0  0
  6  7  1  0  0  0
  6  3  1  0  0  0
  6 23  1  0  0  0
  7  8  1  0  0  0
  7 10  1  0  0  0
  8  9  1  0  0  0
  9 12  1  0  0  0
 12 13  1  0  0  0
 12 16  1  0  0  0
 13 14  2  0  0  0
 13 21  1  0  0  0
 14 15  1  0  0  0
 14 18  1  0  0  0
 15 16  1  0  0  0
 16 17  1  0  0  0
 18 19  2  0  0  0
 19 20  1  0  0  0
 20 21  2  0  0  0
  2  1  1  0  0  0
  2  3  1  0  0  0
  1 30  1  0  0  0
 23 24  1  0  0  0
 24 25  2  0  0  0
 24 29  1  0  0  0
 25 26  1  0  0  0
 26 27  2  0  0  0
 27 28  1  0  0  0
 28 29  2  0  0  0
 53 47  1  0  0  0
 53 54  2  0  0  0
 53 58  1  0  0  0
 47 48  2  0  0  0
 47 52  1  0  0  0
 48 49  1  0  0  0
 49 50  2  0  0  0
 50 51  1  0  0  0
 50 46  1  0  0  0
 51 52  2  0  0  0
 46 30  1  0  0  0
 30 31  1  0  0  0
 31 32  1  0  0  0
 32 35  1  0  0  0
 32 33  2  0  0  0
 35 36  1  0  0  0
 35 42  1  0  0  0
 36 37  1  0  0  0
 37 40  1  0  0  0
 37 38  2  0  0  0
 40 41  1  0  0  0
 42 43  1  0  0  0
 42 44  1  0  0  0
 42 45  1  0  0  0
 54 55  1  0  0  0
 55 56  2  0  0  0
 56 57  1  0  0  0
 57 58  2  0  0  0
 17 22  1  0  0  0
 10 11  1  0  0  0
 31 34  1  0  0  0
 36 39  1  0  0  0
M  END
> <minimizedAffinity>
-10.56884

$$$$
4A6B_QG8_B_1200


 58 63  0  0  0  0  0  0  0  0999 V2000
   13.3960   20.7231    2.7291 C   0  0  0  0  0  0  0  0  0  0  0  0
   12.8735   22.1267    2.5654 C   0  0  0  0  0  0  0  0  0  0  0  0
   12.5877   22.8848    3.8915 C   0  0  0  0  0  0  0  0  0  0  0  0
   10.4248   23.7533    4.8870 C   0  0  0  0  0  0  0  0  0  0  0  0
    9.8969   22.6494    5.0004 O   0  0  0  0  0  0  0  0  0  0  0  0
   11.5400   24.0355    3.8186 C   0  0  0  0  0  0  0  0  0  0  0  0
   12.0733   25.4149    4.3664 C   0  0  0  0  0  0  0  0  0  0  0  0
   10.9433   25.9469    5.1982 C   0  0  0  0  0  0  0  0  0  0  0  0
   10.1357   24.8373    5.6320 N   0  0  0  0  0  0  0  0  0  0  0  0
   13.1435   25.3703    5.2716 O   0  0  0  0  0  0  0  0  0  0  0  0
   12.8784   24.8737    6.0615 H   0  0  0  0  0  0  0  0  0  0  0  0
    9.1382   24.9349    6.7350 C   0  0  0  0  0  0  0  0  0  0  0  0
    9.4282   25.9190    7.8709 C   0  0  0  0  0  0  0  0  0  0  0  0
    8.2036   26.4616    8.3760 C   0  0  0  0  0  0  0  0  0  0  0  0
    7.0219   25.9088    7.6338 C   0  0  0  0  0  0  0  0  0  0  0  0
    7.6509   25.3038    6.3540 C   0  0  0  0  0  0  0  0  0  0  0  0
    7.5240   26.3386    5.3725 O   0  0  0  0  0  0  0  0  0  0  0  0
    8.1883   27.4256    9.4610 C   0  0  0  0  0  0  0  0  0  0  0  0
    9.4582   27.8430   10.0403 C   0  0  0  0  0  0  0  0  0  0  0  0
   10.7172   27.2944    9.5249 C   0  0  0  0  0  0  0  0  0  0  0  0
   10.7111   26.3235    8.4391 C   0  0  0  0  0  0  0  0  0  0  0  0
    7.9298   27.1535    5.7074 H   0  0  0  0  0  0  0  0  0  0  0  0
   10.9134   24.1215    2.3061 C   0  0  0  0  0  0  0  0  0  0  0  0
    9.5006   24.7209    2.1216 C   0  0  0  0  0  0  0  0  0  0  0  0
    8.3300   23.8592    2.0075 C   0  0  0  0  0  0  0  0  0  0  0  0
    7.0183   24.4339    1.8259 C   0  0  0  0  0  0  0  0  0  0  0  0
    6.8602   25.8666    1.7553 C   0  0  0  0  0  0  0  0  0  0  0  0
    8.0126   26.7219    1.8696 C   0  0  0  0  0  0  0  0  0  0  0  0
    9.3279   26.1651    2.0517 C   0  0  0  0  0  0  0  0  0  0  0  0
   14.8571   20.5942    2.8066 N   0  0  0  0  0  0  0  0  0  0  0  0
   15.2375   20.4448    4.1529 N   0  0  0  0  0  0  0  0  0  0  0  0
   15.7145   21.4339    4.9188 C   0  0  0  0  0  0  0  0  0  0  0  0
   15.8692   22.5958    4.5108 O   0  0  0  0  0  0  0  0  0  0  0  0
   15.1468   19.5527    4.5592 H   0  0  0  0  0  0  0  0  0  0  0  0
   16.0440   20.9559    6.3435 C   0  0  0  0  0  0  0  0  0  0  0  0
   17.5051   21.0397    6.3691 N   0  0  0  0  0  0  0  0  0  0  0  0
   18.3455   20.0069    6.7595 C   0  0  0  0  0  0  0  0  0  0  0  0
   17.9537   18.8887    7.1356 O   0  0  0  0  0  0  0  0  0  0  0  0
   17.9203   21.8875    6.0900 H   0  0  0  0  0  0  0  0  0  0  0  0
   19.6236   20.4445    6.6530 O   0  0  0  0  0  0  0  0  0  0  0  0
   20.2527   21.1393    7.7270 C   0  0  0  0  0  0  0  0  0  0  0  0
   15.4793   21.7750    7.5996 C   0  0  0  0  0  0  0  0  0  0  0  0
   16.4926   22.8980    7.9621 C   0  0  0  0  0  0  0  0  0  0  0  0
   14.1507   22.4931    7.2140 C   0  0  0  0  0  0  0  0  0  0  0  0
   15.1781   20.9118    8.8561 C   0  0  0  0  0  0  0  0  0  0  0  0
   15.2860   19.4126    2.0202 C   0  0  0  0  0  0  0  0  0  0  0  0
   18.2490   16.9003    4.2091 C   0  0  0  0  0  0  0  0  0  0  0  0
   18.6594   17.9080    3.2357 C   0  0  0  0  0  0  0  0  0  0  0  0
   17.6824   18.7101    2.5362 C   0  0  0  0  0  0  0  0  0  0  0  0
   16.2652   18.5292    2.7890 C   0  0  0  0  0  0  0  0  0  0  0  0
   15.8199   17.5278    3.7565 C   0  0  0  0  0  0  0  0  0  0  0  0
   16.8108   16.7152    4.4634 C   0  0  0  0  0  0  0  0  0  0  0  0
   19.2794   16.0943    4.9162 C   0  0  0  0  0  0  0  0  0  0  0  0
   20.2169   16.7275    5.8452 C   0  0  0  0  0  0  0  0  0  0  0  0
   21.2271   15.9467    6.5433 C   0  0  0  0  0  0  0  0  0  0  0  0
   21.3154   14.5099    6.3207 C   0  0  0  0  0  0  0  0  0  0  0  0
   20.3922   13.8610    5.3987 C   0  0  0  0  0  0  0  0  0  0  0  0
   19.3830   14.6433    4.7032 C   0  0  0  0  0  0  0  0  0  0  0  0
  4  5  2  0  0  0
  4  6  1  0  0  0
  4  9  1  0  0  0
  6  7  1  0  0  0
  6  3  1  0  0  0
  6 23  1  0  0  0
  7  8  1  0  0  0
  7 10  1  0  0  0
  8  9  1  0  0  0
  9 12  1  0  0  0
 12 13  1  0  0  0
 12 16  1  0  0  0
 13 14  2  0  0  0
 13 21  1  0  0  0
 14 15  1  0  0  0
 14 18  1  0  0  0
 15 16  1  0  0  0
 16 17  1  0  0  0
 18 19  2  0  0  0
 19 20  1  0  0  0
 20 21  2  0  0  0
  2  1  1  0  0  0
  2  3  1  0  0  0
  1 30  1  0  0  0
 23 24  1  0  0  0
 24 25  2  0  0  0
 24 29  1  0  0  0
 25 26  1  0  0  0
 26 27  2  0  0  0
 27 28  1  0  0  0
 28 29  2  0  0  0
 53 47  1  0  0  0
 53 54  2  0  0  0
 53 58  1  0  0  0
 47 48  2  0  0  0
 47 52  1  0  0  0
 48 49  1  0  0  0
 49 50  2  0  0  0
 50 51  1  0  0  0
 50 46  1  0  0  0
 51 52  2  0  0  0
 46 30  1  0  0  0
 30 31  1  0  0  0
 31 32  1  0  0  0
 32 35  1  0  0  0
 32 33  2  0  0  0
 35 36  1  0  0  0
 35 42  1  0  0  0
 36 37  1  0  0  0
 37 40  1  0  0  0
 37 38  2  0  0  0
 40 41  1  0  0  0
 42 43  1  0  0  0
 42 44  1  0  0  0
 42 45  1  0  0  0
 54 55  1  0  0  0
 55 56  2  0  0  0
 56 57  1  0  0  0
 57 58  2  0  0  0
 17 22  1  0  0  0
 10 11  1  0  0  0
 31 34  1  0  0  0
 36 39  1  0  0  0
M  END
> <minimizedAffinity>
-10.47310

$$$$
4A6B_QG8_B_1200


 58 63  0  0  0  0  0  0  0  0999 V2000
   12.9441   21.8666    5.6369 C   0  0  0  0  0  0  0  0  0  0  0  0
   12.5993   23.2692    6.0655 C   0  0  0  0  0  0  0  0  0  0  0  0
   11.0792   23.5725    6.1749 C   0  0  0  0  0  0  0  0  0  0  0  0
    9.0544   25.0540    5.8167 C   0  0  0  0  0  0  0  0  0  0  0  0
    8.3226   24.1551    5.4085 O   0  0  0  0  0  0  0  0  0  0  0  0
   10.6171   24.9776    5.6861 C   0  0  0  0  0  0  0  0  0  0  0  0
   11.0112   26.1508    6.6635 C   0  0  0  0  0  0  0  0  0  0  0  0
    9.7799   27.0056    6.7346 C   0  0  0  0  0  0  0  0  0  0  0  0
    8.6397   26.1891    6.4112 N   0  0  0  0  0  0  0  0  0  0  0  0
   11.2436   25.8124    8.0045 O   0  0  0  0  0  0  0  0  0  0  0  0
   10.4378   25.4300    8.3857 H   0  0  0  0  0  0  0  0  0  0  0  0
    7.2355   26.5949    6.7021 C   0  0  0  0  0  0  0  0  0  0  0  0
    7.0196   27.8241    7.5883 C   0  0  0  0  0  0  0  0  0  0  0  0
    5.8324   28.5165    7.1880 C   0  0  0  0  0  0  0  0  0  0  0  0
    5.1758   27.8330    6.0241 C   0  0  0  0  0  0  0  0  0  0  0  0
    6.2881   26.9040    5.4772 C   0  0  0  0  0  0  0  0  0  0  0  0
    6.8978   27.6607    4.4256 O   0  0  0  0  0  0  0  0  0  0  0  0
    5.3909   29.7234    7.8626 C   0  0  0  0  0  0  0  0  0  0  0  0
    6.1858   30.2319    8.9726 C   0  0  0  0  0  0  0  0  0  0  0  0
    7.4058   29.5300    9.3855 C   0  0  0  0  0  0  0  0  0  0  0  0
    7.8291   28.3168    8.6993 C   0  0  0  0  0  0  0  0  0  0  0  0
    7.1862   28.5200    4.7709 H   0  0  0  0  0  0  0  0  0  0  0  0
   11.1018   25.2146    4.1380 C   0  0  0  0  0  0  0  0  0  0  0  0
   10.3773   24.4476    3.0084 C   0  0  0  0  0  0  0  0  0  0  0  0
   10.4941   22.9989    2.8916 C   0  0  0  0  0  0  0  0  0  0  0  0
    9.8191   22.2980    1.8253 C   0  0  0  0  0  0  0  0  0  0  0  0
    9.0252   23.0300    0.8680 C   0  0  0  0  0  0  0  0  0  0  0  0
    8.9048   24.4603    0.9802 C   0  0  0  0  0  0  0  0  0  0  0  0
    9.5710   25.1747    2.0381 C   0  0  0  0  0  0  0  0  0  0  0  0
   13.8755   21.1452    6.5142 N   0  0  0  0  0  0  0  0  0  0  0  0
   14.7670   20.3951    5.7255 N   0  0  0  0  0  0  0  0  0  0  0  0
   15.4841   20.8944    4.7111 C   0  0  0  0  0  0  0  0  0  0  0  0
   15.4326   22.0846    4.3629 O   0  0  0  0  0  0  0  0  0  0  0  0
   14.8705   19.4384    5.9335 H   0  0  0  0  0  0  0  0  0  0  0  0
   16.3628   19.8241    4.0410 C   0  0  0  0  0  0  0  0  0  0  0  0
   16.8877   19.0878    5.1920 N   0  0  0  0  0  0  0  0  0  0  0  0
   18.2036   19.1443    5.6284 C   0  0  0  0  0  0  0  0  0  0  0  0
   19.0919   19.8269    5.0897 O   0  0  0  0  0  0  0  0  0  0  0  0
   16.2638   18.5127    5.6912 H   0  0  0  0  0  0  0  0  0  0  0  0
   18.3198   18.3398    6.7127 O   0  0  0  0  0  0  0  0  0  0  0  0
   19.5999   17.9982    7.2386 C   0  0  0  0  0  0  0  0  0  0  0  0
   15.6917   18.7667    3.0414 C   0  0  0  0  0  0  0  0  0  0  0  0
   16.8130   18.0849    2.2064 C   0  0  0  0  0  0  0  0  0  0  0  0
   14.9996   17.6305    3.8536 C   0  0  0  0  0  0  0  0  0  0  0  0
   14.6161   19.3626    2.0914 C   0  0  0  0  0  0  0  0  0  0  0  0
   14.6231   22.1219    7.3422 C   0  0  0  0  0  0  0  0  0  0  0  0
   17.7702   20.1104    9.7778 C   0  0  0  0  0  0  0  0  0  0  0  0
   16.3563   19.7721    9.9104 C   0  0  0  0  0  0  0  0  0  0  0  0
   15.3526   20.4376    9.1125 C   0  0  0  0  0  0  0  0  0  0  0  0
   15.7322   21.4616    8.1573 C   0  0  0  0  0  0  0  0  0  0  0  0
   17.1393   21.8256    8.0004 C   0  0  0  0  0  0  0  0  0  0  0  0
   18.1549   21.1513    8.8104 C   0  0  0  0  0  0  0  0  0  0  0  0
   18.7796   19.4034   10.6102 C   0  0  0  0  0  0  0  0  0  0  0  0
   18.5481   18.0301   11.0611 C   0  0  0  0  0  0  0  0  0  0  0  0
   19.5308   17.3295   11.8740 C   0  0  0  0  0  0  0  0  0  0  0  0
   20.7692   17.9973   12.2509 C   0  0  0  0  0  0  0  0  0  0  0  0
   21.0178   19.3648   11.8132 C   0  0  0  0  0  0  0  0  0  0  0  0
   20.0347   20.0623   11.0001 C   0  0  0  0  0  0  0  0  0  0  0  0
  4  5  2  0  0  0
  4  6  1  0  0  0
  4  9  1  0  0  0
  6  7  1  0  0  0
  6  3  1  0  0  0
  6 23  1  0  0  0
  7  8  1  0  0  0
  7 10  1  0  0  0
  8  9  1  0  0  0
  9 12  1  0  0  0
 12 13  1  0  0  0
 12 16  1  0  0  0
 13 14  2  0  0  0
 13 21  1  0  0  0
 14 15  1  0  0  0
 14 18  1  0  0  0
 15 16  1  0  0  0
 16 17  1  0  0  0
 18 19  2  0  0  0
 19 20  1  0  0  0
 20 21  2  0  0  0
  2  1  1  0  0  0
  2  3  1  0  0  0
  1 30  1  0  0  0
 23 24  1  0  0  0
 24 25  2  0  0  0
 24 29  1  0  0  0
 25 26  1  0  0  0
 26 27  2  0  0  0
 27 28  1  0  0  0
 28 29  2  0  0  0
 53 47  1  0  0  0
 53 54  2  0  0  0
 53 58  1  0  0  0
 47 48  2  0  0  0
 47 52  1  0  0  0
 48 49  1  0  0  0
 49 50  2  0  0  0
 50 51  1  0  0  0
 50 46  1  0  0  0
 51 52  2  0  0  0
 46 30  1  0  0  0
 30 31  1  0  0  0
 31 32  1  0  0  0
 32 35  1  0  0  0
 32 33  2  0  0  0
 35 36  1  0  0  0
 35 42  1  0  0  0
 36 37  1  0  0  0
 37 40  1  0  0  0
 37 38  2  0  0  0
 40 41  1  0  0  0
 42 43  1  0  0  0
 42 44  1  0  0  0
 42 45  1  0  0  0
 54 55  1  0  0  0
 55 56  2  0  0  0
 56 57  1  0  0  0
 57 58  2  0  0  0
 17 22  1  0  0  0
 10 11  1  0  0  0
 31 34  1  0  0  0
 36 39  1  0  0  0
M  END
> <minimizedAffinity>
-10.45844

$$$$
4A6B_QG8_B_1200


 58 63  0  0  0  0  0  0  0  0999 V2000
   13.4174   23.6664    5.7162 C   0  0  0  0  0  0  0  0  0  0  0  0
   14.1977   22.8052    4.7573 C   0  0  0  0  0  0  0  0  0  0  0  0
   15.5545   22.2752    5.2984 C   0  0  0  0  0  0  0  0  0  0  0  0
   16.9924   20.3493    6.1026 C   0  0  0  0  0  0  0  0  0  0  0  0
   17.7490   20.3560    5.1343 O   0  0  0  0  0  0  0  0  0  0  0  0
   15.5216   20.8909    6.0122 C   0  0  0  0  0  0  0  0  0  0  0  0
   15.1880   20.9781    7.5511 C   0  0  0  0  0  0  0  0  0  0  0  0
   16.1596   20.0343    8.1966 C   0  0  0  0  0  0  0  0  0  0  0  0
   17.3019   19.8953    7.3322 N   0  0  0  0  0  0  0  0  0  0  0  0
   15.4519   22.1971    8.1923 O   0  0  0  0  0  0  0  0  0  0  0  0
   16.3991   22.3965    8.1306 H   0  0  0  0  0  0  0  0  0  0  0  0
   18.6005   19.3177    7.7809 C   0  0  0  0  0  0  0  0  0  0  0  0
   19.4093   20.1048    8.8151 C   0  0  0  0  0  0  0  0  0  0  0  0
   20.1248   19.2049    9.6679 C   0  0  0  0  0  0  0  0  0  0  0  0
   19.8549   17.7768    9.2932 C   0  0  0  0  0  0  0  0  0  0  0  0
   18.5856   17.8695    8.4102 C   0  0  0  0  0  0  0  0  0  0  0  0
   17.5042   17.6219    9.3153 O   0  0  0  0  0  0  0  0  0  0  0  0
   20.9739   19.6870   10.7419 C   0  0  0  0  0  0  0  0  0  0  0  0
   21.0908   21.1247   10.9460 C   0  0  0  0  0  0  0  0  0  0  0  0
   20.3571   22.0526   10.0786 C   0  0  0  0  0  0  0  0  0  0  0  0
   19.5144   21.5491    9.0024 C   0  0  0  0  0  0  0  0  0  0  0  0
   17.5569   18.2419   10.0594 H   0  0  0  0  0  0  0  0  0  0  0  0
   14.5532   19.8607    5.1822 C   0  0  0  0  0  0  0  0  0  0  0  0
   15.0799   19.2465    3.8652 C   0  0  0  0  0  0  0  0  0  0  0  0
   14.8809   19.9246    2.5898 C   0  0  0  0  0  0  0  0  0  0  0  0
   15.3703   19.3334    1.3672 C   0  0  0  0  0  0  0  0  0  0  0  0
   16.0589   18.0657    1.4022 C   0  0  0  0  0  0  0  0  0  0  0  0
   16.2599   17.3931    2.6592 C   0  0  0  0  0  0  0  0  0  0  0  0
   15.7788   17.9692    3.8879 C   0  0  0  0  0  0  0  0  0  0  0  0
   11.9982   23.8566    5.3885 N   0  0  0  0  0  0  0  0  0  0  0  0
   11.5065   24.9715    6.0918 N   0  0  0  0  0  0  0  0  0  0  0  0
   10.4059   24.9603    6.8542 C   0  0  0  0  0  0  0  0  0  0  0  0
    9.7023   23.9511    7.0179 O   0  0  0  0  0  0  0  0  0  0  0  0
   12.0054   25.8171    6.0185 H   0  0  0  0  0  0  0  0  0  0  0  0
   10.1264   26.3338    7.4882 C   0  0  0  0  0  0  0  0  0  0  0  0
    8.6927   26.5017    7.2463 N   0  0  0  0  0  0  0  0  0  0  0  0
    8.1502   27.3421    6.2847 C   0  0  0  0  0  0  0  0  0  0  0  0
    8.8208   28.0532    5.5167 O   0  0  0  0  0  0  0  0  0  0  0  0
    8.0700   25.9823    7.8047 H   0  0  0  0  0  0  0  0  0  0  0  0
    6.8008   27.2362    6.3495 O   0  0  0  0  0  0  0  0  0  0  0  0
    6.1823   26.1911    7.0959 C   0  0  0  0  0  0  0  0  0  0  0  0
   10.3925   26.5476    9.0538 C   0  0  0  0  0  0  0  0  0  0  0  0
   11.9088   26.3465    9.3365 C   0  0  0  0  0  0  0  0  0  0  0  0
   10.0646   28.0178    9.4544 C   0  0  0  0  0  0  0  0  0  0  0  0
    9.5564   25.6281    9.9866 C   0  0  0  0  0  0  0  0  0  0  0  0
   11.8582   24.0712    3.9280 C   0  0  0  0  0  0  0  0  0  0  0  0
    7.6559   24.8693    2.6687 C   0  0  0  0  0  0  0  0  0  0  0  0
    8.7035   25.8791    2.5495 C   0  0  0  0  0  0  0  0  0  0  0  0
   10.0586   25.6000    2.9654 C   0  0  0  0  0  0  0  0  0  0  0  0
   10.4075   24.3025    3.5128 C   0  0  0  0  0  0  0  0  0  0  0  0
    9.3823   23.2690    3.6472 C   0  0  0  0  0  0  0  0  0  0  0  0
    8.0097   23.5537    3.2266 C   0  0  0  0  0  0  0  0  0  0  0  0
    6.2717   25.1861    2.2269 C   0  0  0  0  0  0  0  0  0  0  0  0
    5.1216   24.5049    2.8237 C   0  0  0  0  0  0  0  0  0  0  0  0
    3.7634   24.8097    2.3995 C   0  0  0  0  0  0  0  0  0  0  0  0
    3.5338   25.8079    1.3639 C   0  0  0  0  0  0  0  0  0  0  0  0
    4.6655   26.4961    0.7564 C   0  0  0  0  0  0  0  0  0  0  0  0
    6.0215   26.1905    1.1829 C   0  0  0  0  0  0  0  0  0  0  0  0
  4  5  2  0  0  0
  4  6  1  0  0  0
  4  9  1  0  0  0
  6  7  1  0  0  0
  6  3  1  0  0  0
  6 23  1  0  0  0
  7  8  1  0  0  0
  7 10  1  0  0  0
  8  9  1  0  0  0
  9 12  1  0  0  0
 12 13  1  0  0  0
 12 16  1  0  0  0
 13 14  2  0  0  0
 13 21  1  0  0  0
 14 15  1  0  0  0
 14 18  1  0  0  0
 15 16  1  0  0  0
 16 17  1  0  0  0
 18 19  2  0  0  0
 19 20  1  0  0  0
 20 21  2  0  0  0
  2  1  1  0  0  0
  2  3  1  0  0  0
  1 30  1  0  0  0
 23 24  1  0  0  0
 24 25  2  0  0  0
 24 29  1  0  0  0
 25 26  1  0  0  0
 26 27  2  0  0  0
 27 28  1  0  0  0
 28 29  2  0  0  0
 53 47  1  0  0  0
 53 54  2  0  0  0
 53 58  1  0  0  0
 47 48  2  0  0  0
 47 52  1  0  0  0
 48 49  1  0  0  0
 49 50  2  0  0  0
 50 51  1  0  0  0
 50 46  1  0  0  0
 51 52  2  0  0  0
 46 30  1  0  0  0
 30 31  1  0  0  0
 31 32  1  0  0  0
 32 35  1  0  0  0
 32 33  2  0  0  0
 35 36  1  0  0  0
 35 42  1  0  0  0
 36 37  1  0  0  0
 37 40  1  0  0  0
 37 38  2  0  0  0
 40 41  1  0  0  0
 42 43  1  0  0  0
 42 44  1  0  0  0
 42 45  1  0  0  0
 54 55  1  0  0  0
 55 56  2  0  0  0
 56 57  1  0  0  0
 57 58  2  0  0  0
 17 22  1  0  0  0
 10 11  1  0  0  0
 31 34  1  0  0  0
 36 39  1  0  0  0
M  END
> <minimizedAffinity>
-10.43508

$$$$
4A6B_QG8_B_1200


 58 63  0  0  0  0  0  0  0  0999 V2000
   15.7309   21.7420    6.4461 C   0  0  0  0  0  0  0  0  0  0  0  0
   14.5991   21.7669    5.4520 C   0  0  0  0  0  0  0  0  0  0  0  0
   13.2136   22.1582    6.0369 C   0  0  0  0  0  0  0  0  0  0  0  0
   10.9750   23.3209    5.7922 C   0  0  0  0  0  0  0  0  0  0  0  0
   10.3079   22.2889    5.7818 O   0  0  0  0  0  0  0  0  0  0  0  0
   12.4789   23.3431    5.3419 C   0  0  0  0  0  0  0  0  0  0  0  0
   12.8901   24.7597    5.8998 C   0  0  0  0  0  0  0  0  0  0  0  0
   11.5907   25.4979    6.0352 C   0  0  0  0  0  0  0  0  0  0  0  0
   10.5316   24.5334    6.1756 N   0  0  0  0  0  0  0  0  0  0  0  0
   13.4201   24.8044    7.1974 O   0  0  0  0  0  0  0  0  0  0  0  0
   12.7626   24.4694    7.8270 H   0  0  0  0  0  0  0  0  0  0  0  0
    9.1677   24.8830    6.6640 C   0  0  0  0  0  0  0  0  0  0  0  0
    9.0632   25.7527    7.9194 C   0  0  0  0  0  0  0  0  0  0  0  0
    7.9075   26.5936    7.8401 C   0  0  0  0  0  0  0  0  0  0  0  0
    7.1656   26.3712    6.5544 C   0  0  0  0  0  0  0  0  0  0  0  0
    8.1959   25.6286    5.6675 C   0  0  0  0  0  0  0  0  0  0  0  0
    8.8116   26.6648    4.8946 O   0  0  0  0  0  0  0  0  0  0  0  0
    7.5685   27.5236    8.9016 C   0  0  0  0  0  0  0  0  0  0  0  0
    8.4353   27.5930   10.0705 C   0  0  0  0  0  0  0  0  0  0  0  0
    9.6235   26.7374   10.1566 C   0  0  0  0  0  0  0  0  0  0  0  0
    9.9435   25.8062    9.0831 C   0  0  0  0  0  0  0  0  0  0  0  0
    9.1663   27.3443    5.4892 H   0  0  0  0  0  0  0  0  0  0  0  0
   12.6196   23.2063    3.7143 C   0  0  0  0  0  0  0  0  0  0  0  0
   11.3520   23.3656    2.8443 C   0  0  0  0  0  0  0  0  0  0  0  0
   10.6417   22.1990    2.3339 C   0  0  0  0  0  0  0  0  0  0  0  0
    9.4648   22.3645    1.5146 C   0  0  0  0  0  0  0  0  0  0  0  0
    8.9860   23.6880    1.1959 C   0  0  0  0  0  0  0  0  0  0  0  0
    9.6825   24.8432    1.6991 C   0  0  0  0  0  0  0  0  0  0  0  0
   10.8575   24.6958    2.5181 C   0  0  0  0  0  0  0  0  0  0  0  0
   16.0555   20.4236    7.0063 N   0  0  0  0  0  0  0  0  0  0  0  0
   16.3102   19.5241    5.9548 N   0  0  0  0  0  0  0  0  0  0  0  0
   17.3805   19.5812    5.1524 C   0  0  0  0  0  0  0  0  0  0  0  0
   18.2656   20.4447    5.2597 O   0  0  0  0  0  0  0  0  0  0  0  0
   15.6572   18.8041    5.7984 H   0  0  0  0  0  0  0  0  0  0  0  0
   17.3733   18.4623    4.0967 C   0  0  0  0  0  0  0  0  0  0  0  0
   17.4290   17.2553    4.9228 N   0  0  0  0  0  0  0  0  0  0  0  0
   18.5998   16.6116    5.2970 C   0  0  0  0  0  0  0  0  0  0  0  0
   19.7398   16.9851    4.9714 O   0  0  0  0  0  0  0  0  0  0  0  0
   16.5767   16.8738    5.2346 H   0  0  0  0  0  0  0  0  0  0  0  0
   18.2640   15.5399    6.0556 O   0  0  0  0  0  0  0  0  0  0  0  0
   19.1745   14.4591    6.2416 C   0  0  0  0  0  0  0  0  0  0  0  0
   16.1236   18.3247    3.1032 C   0  0  0  0  0  0  0  0  0  0  0  0
   16.5505   17.4692    1.8764 C   0  0  0  0  0  0  0  0  0  0  0  0
   14.9709   17.5419    3.8019 C   0  0  0  0  0  0  0  0  0  0  0  0
   15.5250   19.6751    2.6209 C   0  0  0  0  0  0  0  0  0  0  0  0
   17.2495   20.5430    7.8773 C   0  0  0  0  0  0  0  0  0  0  0  0
   17.8073   17.0279   10.5634 C   0  0  0  0  0  0  0  0  0  0  0  0
   18.7034   17.2935    9.4419 C   0  0  0  0  0  0  0  0  0  0  0  0
   18.5034   18.4375    8.5827 C   0  0  0  0  0  0  0  0  0  0  0  0
   17.4013   19.3511    8.8190 C   0  0  0  0  0  0  0  0  0  0  0  0
   16.4844   19.1138    9.9325 C   0  0  0  0  0  0  0  0  0  0  0  0
   16.6876   17.9536   10.8014 C   0  0  0  0  0  0  0  0  0  0  0  0
   18.0432   15.8444   11.4325 C   0  0  0  0  0  0  0  0  0  0  0  0
   17.5852   15.8340   12.8228 C   0  0  0  0  0  0  0  0  0  0  0  0
   17.8095   14.6798   13.6801 C   0  0  0  0  0  0  0  0  0  0  0  0
   18.5008   13.5099   13.1555 C   0  0  0  0  0  0  0  0  0  0  0  0
   18.9658   13.5012   11.7745 C   0  0  0  0  0  0  0  0  0  0  0  0
   18.7394   14.6554   10.9196 C   0  0  0  0  0  0  0  0  0  0  0  0
  4  5  2  0  0  0
  4  6  1  0  0  0
  4  9  1  0  0  0
  6  7  1  0  0  0
  6  3  1  0  0  0
  6 23  1  0  0  0
  7  8  1  0  0  0
  7 10  1  0  0  0
  8  9  1  0  0  0
  9 12  1  0  0  0
 12 13  1  0  0  0
 12 16  1  0  0  0
 13 14  2  0  0  0
 13 21  1  0  0  0
 14 15  1  0  0  0
 14 18  1  0  0  0
 15 16  1  0  0  0
 16 17  1  0  0  0
 18 19  2  0  0  0
 19 20  1  0  0  0
 20 21  2  0  0  0
  2  1  1  0  0  0
  2  3  1  0  0  0
  1 30  1  0  0  0
 23 24  1  0  0  0
 24 25  2  0  0  0
 24 29  1  0  0  0
 25 26  1  0  0  0
 26 27  2  0  0  0
 27 28  1  0  0  0
 28 29  2  0  0  0
 53 47  1  0  0  0
 53 54  2  0  0  0
 53 58  1  0  0  0
 47 48  2  0  0  0
 47 52  1  0  0  0
 48 49  1  0  0  0
 49 50  2  0  0  0
 50 51  1  0  0  0
 50 46  1  0  0  0
 51 52  2  0  0  0
 46 30  1  0  0  0
 30 31  1  0  0  0
 31 32  1  0  0  0
 32 35  1  0  0  0
 32 33  2  0  0  0
 35 36  1  0  0  0
 35 42  1  0  0  0
 36 37  1  0  0  0
 37 40  1  0  0  0
 37 38  2  0  0  0
 40 41  1  0  0  0
 42 43  1  0  0  0
 42 44  1  0  0  0
 42 45  1  0  0  0
 54 55  1  0  0  0
 55 56  2  0  0  0
 56 57  1  0  0  0
 57 58  2  0  0  0
 17 22  1  0  0  0
 10 11  1  0  0  0
 31 34  1  0  0  0
 36 39  1  0  0  0
M  END
> <minimizedAffinity>
-10.41177

$$$$
4A6B_QG8_B_1200


 58 63  0  0  0  0  0  0  0  0999 V2000
   14.9432   20.1523    6.0656 C   0  0  0  0  0  0  0  0  0  0  0  0
   13.7393   20.8583    5.4980 C   0  0  0  0  0  0  0  0  0  0  0  0
   13.2187   22.0574    6.3382 C   0  0  0  0  0  0  0  0  0  0  0  0
   11.0384   23.2874    5.9421 C   0  0  0  0  0  0  0  0  0  0  0  0
   10.3305   22.2835    5.9735 O   0  0  0  0  0  0  0  0  0  0  0  0
   12.5559   23.2225    5.5444 C   0  0  0  0  0  0  0  0  0  0  0  0
   13.0061   24.6552    6.0258 C   0  0  0  0  0  0  0  0  0  0  0  0
   11.7342   25.4502    6.0687 C   0  0  0  0  0  0  0  0  0  0  0  0
   10.6327   24.5384    6.2324 N   0  0  0  0  0  0  0  0  0  0  0  0
   13.4951   24.7629    7.3358 O   0  0  0  0  0  0  0  0  0  0  0  0
   12.8043   24.4949    7.9618 H   0  0  0  0  0  0  0  0  0  0  0  0
    9.2690   24.9712    6.6497 C   0  0  0  0  0  0  0  0  0  0  0  0
    9.1412   25.7559    7.9578 C   0  0  0  0  0  0  0  0  0  0  0  0
    8.0682   26.6986    7.8627 C   0  0  0  0  0  0  0  0  0  0  0  0
    7.4107   26.6336    6.5149 C   0  0  0  0  0  0  0  0  0  0  0  0
    8.4408   25.8678    5.6479 C   0  0  0  0  0  0  0  0  0  0  0  0
    9.1971   26.8978    5.0019 O   0  0  0  0  0  0  0  0  0  0  0  0
    7.7271   27.5776    8.9662 C   0  0  0  0  0  0  0  0  0  0  0  0
    8.5050   27.4879   10.1948 C   0  0  0  0  0  0  0  0  0  0  0  0
    9.6086   26.5271   10.2977 C   0  0  0  0  0  0  0  0  0  0  0  0
    9.9316   25.6495    9.1809 C   0  0  0  0  0  0  0  0  0  0  0  0
    9.5602   27.4998    5.6702 H   0  0  0  0  0  0  0  0  0  0  0  0
   12.7438   22.9756    3.9346 C   0  0  0  0  0  0  0  0  0  0  0  0
   11.5372   23.2228    3.0006 C   0  0  0  0  0  0  0  0  0  0  0  0
   10.7256   22.1130    2.5152 C   0  0  0  0  0  0  0  0  0  0  0  0
    9.6077   22.3592    1.6356 C   0  0  0  0  0  0  0  0  0  0  0  0
    9.2890   23.7075    1.2316 C   0  0  0  0  0  0  0  0  0  0  0  0
   10.0860   24.8069    1.7098 C   0  0  0  0  0  0  0  0  0  0  0  0
   11.2039   24.5789    2.5881 C   0  0  0  0  0  0  0  0  0  0  0  0
   16.2060   20.8999    6.0030 N   0  0  0  0  0  0  0  0  0  0  0  0
   16.9789   20.5984    7.1393 N   0  0  0  0  0  0  0  0  0  0  0  0
   17.3283   21.4897    8.0753 C   0  0  0  0  0  0  0  0  0  0  0  0
   16.9993   22.6857    8.0320 O   0  0  0  0  0  0  0  0  0  0  0  0
   17.2834   19.6692    7.2539 H   0  0  0  0  0  0  0  0  0  0  0  0
   18.1772   20.8558    9.1906 C   0  0  0  0  0  0  0  0  0  0  0  0
   17.6172   19.5063    9.2783 N   0  0  0  0  0  0  0  0  0  0  0  0
   17.2426   18.8854   10.4612 C   0  0  0  0  0  0  0  0  0  0  0  0
   17.3414   19.4038   11.5867 O   0  0  0  0  0  0  0  0  0  0  0  0
   17.4981   19.0043    8.4398 H   0  0  0  0  0  0  0  0  0  0  0  0
   16.7685   17.6532   10.1552 O   0  0  0  0  0  0  0  0  0  0  0  0
   17.6516   16.5447   10.0032 C   0  0  0  0  0  0  0  0  0  0  0  0
   19.7620   20.7221    8.9950 C   0  0  0  0  0  0  0  0  0  0  0  0
   20.4710   21.2438   10.2773 C   0  0  0  0  0  0  0  0  0  0  0  0
   20.1573   19.2206    8.8572 C   0  0  0  0  0  0  0  0  0  0  0  0
   20.3267   21.4543    7.7461 C   0  0  0  0  0  0  0  0  0  0  0  0
   16.9385   20.5199    4.7710 C   0  0  0  0  0  0  0  0  0  0  0  0
   19.0075   16.5922    5.1889 C   0  0  0  0  0  0  0  0  0  0  0  0
   19.6507   17.8482    5.5630 C   0  0  0  0  0  0  0  0  0  0  0  0
   18.9627   19.1101    5.4178 C   0  0  0  0  0  0  0  0  0  0  0  0
   17.6103   19.1545    4.8942 C   0  0  0  0  0  0  0  0  0  0  0  0
   16.9374   17.9153    4.5087 C   0  0  0  0  0  0  0  0  0  0  0  0
   17.6362   16.6378    4.6553 C   0  0  0  0  0  0  0  0  0  0  0  0
   19.7408   15.3091    5.3554 C   0  0  0  0  0  0  0  0  0  0  0  0
   19.2077   14.2484    6.2118 C   0  0  0  0  0  0  0  0  0  0  0  0
   19.9170   12.9888    6.3790 C   0  0  0  0  0  0  0  0  0  0  0  0
   21.1799   12.7700    5.6870 C   0  0  0  0  0  0  0  0  0  0  0  0
   21.7280   13.8142    4.8311 C   0  0  0  0  0  0  0  0  0  0  0  0
   21.0168   15.0714    4.6647 C   0  0  0  0  0  0  0  0  0  0  0  0
  4  5  2  0  0  0
  4  6  1  0  0  0
  4  9  1  0  0  0
  6  7  1  0  0  0
  6  3  1  0  0  0
  6 23  1  0  0  0
  7  8  1  0  0  0
  7 10  1  0  0  0
  8  9  1  0  0  0
  9 12  1  0  0  0
 12 13  1  0  0  0
 12 16  1  0  0  0
 13 14  2  0  0  0
 13 21  1  0  0  0
 14 15  1  0  0  0
 14 18  1  0  0  0
 15 16  1  0  0  0
 16 17  1  0  0  0
 18 19  2  0  0  0
 19 20  1  0  0  0
 20 21  2  0  0  0
  2  1  1  0  0  0
  2  3  1  0  0  0
  1 30  1  0  0  0
 23 24  1  0  0  0
 24 25  2  0  0  0
 24 29  1  0  0  0
 25 26  1  0  0  0
 26 27  2  0  0  0
 27 28  1  0  0  0
 28 29  2  0  0  0
 53 47  1  0  0  0
 53 54  2  0  0  0
 53 58  1  0  0  0
 47 48  2  0  0  0
 47 52  1  0  0  0
 48 49  1  0  0  0
 49 50  2  0  0  0
 50 51  1  0  0  0
 50 46  1  0  0  0
 51 52  2  0  0  0
 46 30  1  0  0  0
 30 31  1  0  0  0
 31 32  1  0  0  0
 32 35  1  0  0  0
 32 33  2  0  0  0
 35 36  1  0  0  0
 35 42  1  0  0  0
 36 37  1  0  0  0
 37 40  1  0  0  0
 37 38  2  0  0  0
 40 41  1  0  0  0
 42 43  1  0  0  0
 42 44  1  0  0  0
 42 45  1  0  0  0
 54 55  1  0  0  0
 55 56  2  0  0  0
 56 57  1  0  0  0
 57 58  2  0  0  0
 17 22  1  0  0  0
 10 11  1  0  0  0
 31 34  1  0  0  0
 36 39  1  0  0  0
M  END
> <minimizedAffinity>
-10.23122

$$$$
4A6B_QG8_B_1200


 58 63  0  0  0  0  0  0  0  0999 V2000
   15.0419   20.5227    6.1907 C   0  0  0  0  0  0  0  0  0  0  0  0
   14.0847   21.2812    5.3085 C   0  0  0  0  0  0  0  0  0  0  0  0
   12.9791   22.0735    6.0599 C   0  0  0  0  0  0  0  0  0  0  0  0
   10.8615   23.4225    5.7142 C   0  0  0  0  0  0  0  0  0  0  0  0
   10.1050   22.4541    5.7130 O   0  0  0  0  0  0  0  0  0  0  0  0
   12.3733   23.2968    5.3093 C   0  0  0  0  0  0  0  0  0  0  0  0
   12.8944   24.6880    5.8388 C   0  0  0  0  0  0  0  0  0  0  0  0
   11.6633   25.5426    5.9135 C   0  0  0  0  0  0  0  0  0  0  0  0
   10.5184   24.6809    6.0492 N   0  0  0  0  0  0  0  0  0  0  0  0
   13.3902   24.7257    7.1501 O   0  0  0  0  0  0  0  0  0  0  0  0
   12.6881   24.4703    7.7687 H   0  0  0  0  0  0  0  0  0  0  0  0
    9.1784   25.1655    6.4858 C   0  0  0  0  0  0  0  0  0  0  0  0
    9.0782   25.8409    7.8558 C   0  0  0  0  0  0  0  0  0  0  0  0
    8.0707   26.8574    7.8302 C   0  0  0  0  0  0  0  0  0  0  0  0
    7.4348   26.9528    6.4740 C   0  0  0  0  0  0  0  0  0  0  0  0
    8.4285   26.1983    5.5561 C   0  0  0  0  0  0  0  0  0  0  0  0
    9.2616   27.2279    5.0120 O   0  0  0  0  0  0  0  0  0  0  0  0
    7.7675   27.6584    9.0021 C   0  0  0  0  0  0  0  0  0  0  0  0
    8.5155   27.4114   10.2276 C   0  0  0  0  0  0  0  0  0  0  0  0
    9.5524   26.3744   10.2598 C   0  0  0  0  0  0  0  0  0  0  0  0
    9.8378   25.5771    9.0746 C   0  0  0  0  0  0  0  0  0  0  0  0
    9.6509   27.7444    5.7348 H   0  0  0  0  0  0  0  0  0  0  0  0
   12.5461   23.0974    3.6913 C   0  0  0  0  0  0  0  0  0  0  0  0
   11.3217   23.3389    2.7793 C   0  0  0  0  0  0  0  0  0  0  0  0
   10.9166   24.6902    2.4108 C   0  0  0  0  0  0  0  0  0  0  0  0
    9.7650   24.8997    1.5660 C   0  0  0  0  0  0  0  0  0  0  0  0
    9.0078   23.7703    1.0826 C   0  0  0  0  0  0  0  0  0  0  0  0
    9.4050   22.4339    1.4418 C   0  0  0  0  0  0  0  0  0  0  0  0
   10.5515   22.2072    2.2829 C   0  0  0  0  0  0  0  0  0  0  0  0
   16.4681   20.7719    5.9424 N   0  0  0  0  0  0  0  0  0  0  0  0
   17.2252   20.2008    6.9817 N   0  0  0  0  0  0  0  0  0  0  0  0
   17.5623   20.8371    8.1104 C   0  0  0  0  0  0  0  0  0  0  0  0
   17.2346   22.0091    8.3543 O   0  0  0  0  0  0  0  0  0  0  0  0
   17.5276   19.2704    6.8714 H   0  0  0  0  0  0  0  0  0  0  0  0
   18.3956   19.9482    9.0497 C   0  0  0  0  0  0  0  0  0  0  0  0
   19.0819   20.9357    9.8842 N   0  0  0  0  0  0  0  0  0  0  0  0
   20.2992   21.5221    9.5689 C   0  0  0  0  0  0  0  0  0  0  0  0
   20.9506   21.2747    8.5395 O   0  0  0  0  0  0  0  0  0  0  0  0
   18.6497   21.2022   10.7276 H   0  0  0  0  0  0  0  0  0  0  0  0
   20.6206   22.3813   10.5664 O   0  0  0  0  0  0  0  0  0  0  0  0
   21.9248   22.9501   10.6525 C   0  0  0  0  0  0  0  0  0  0  0  0
   17.6516   18.9122   10.0196 C   0  0  0  0  0  0  0  0  0  0  0  0
   18.0376   17.4655    9.5983 C   0  0  0  0  0  0  0  0  0  0  0  0
   18.1601   19.0918   11.4821 C   0  0  0  0  0  0  0  0  0  0  0  0
   16.1047   19.0543   10.0585 C   0  0  0  0  0  0  0  0  0  0  0  0
   16.8501   20.1710    4.6419 C   0  0  0  0  0  0  0  0  0  0  0  0
   19.2725   16.4524    5.0735 C   0  0  0  0  0  0  0  0  0  0  0  0
   17.9301   16.4381    4.5000 C   0  0  0  0  0  0  0  0  0  0  0  0
   17.1616   17.6546    4.3710 C   0  0  0  0  0  0  0  0  0  0  0  0
   17.7123   18.9226    4.8113 C   0  0  0  0  0  0  0  0  0  0  0  0
   19.0532   18.9723    5.3914 C   0  0  0  0  0  0  0  0  0  0  0  0
   19.8300   17.7388    5.5225 C   0  0  0  0  0  0  0  0  0  0  0  0
   20.0398   15.1837    5.1879 C   0  0  0  0  0  0  0  0  0  0  0  0
   19.4603   14.0163    5.8544 C   0  0  0  0  0  0  0  0  0  0  0  0
   20.2027   12.7700    5.9692 C   0  0  0  0  0  0  0  0  0  0  0  0
   21.5462   12.6723    5.4150 C   0  0  0  0  0  0  0  0  0  0  0  0
   22.1413   13.8236    4.7491 C   0  0  0  0  0  0  0  0  0  0  0  0
   21.3970   15.0674    4.6346 C   0  0  0  0  0  0  0  0  0  0  0  0
  4  5  2  0  0  0
  4  6  1  0  0  0
  4  9  1  0  0  0
  6  7  1  0  0  0
  6  3  1  0  0  0
  6 23  1  0  0  0
  7  8  1  0  0  0
  7 10  1  0  0  0
  8  9  1  0  0  0
  9 12  1  0  0  0
 12 13  1  0  0  0
 12 16  1  0  0  0
 13 14  2  0  0  0
 13 21  1  0  0  0
 14 15  1  0  0  0
 14 18  1  0  0  0
 15 16  1  0  0  0
 16 17  1  0  0  0
 18 19  2  0  0  0
 19 20  1  0  0  0
 20 21  2  0  0  0
  2  1  1  0  0  0
  2  3  1  0  0  0
  1 30  1  0  0  0
 23 24  1  0  0  0
 24 25  2  0  0  0
 24 29  1  0  0  0
 25 26  1  0  0  0
 26 27  2  0  0  0
 27 28  1  0  0  0
 28 29  2  0  0  0
 53 47  1  0  0  0
 53 54  2  0  0  0
 53 58  1  0  0  0
 47 48  2  0  0  0
 47 52  1  0  0  0
 48 49  1  0  0  0
 49 50  2  0  0  0
 50 51  1  0  0  0
 50 46  1  0  0  0
 51 52  2  0  0  0
 46 30  1  0  0  0
 30 31  1  0  0  0
 31 32  1  0  0  0
 32 35  1  0  0  0
 32 33  2  0  0  0
 35 36  1  0  0  0
 35 42  1  0  0  0
 36 37  1  0  0  0
 37 40  1  0  0  0
 37 38  2  0  0  0
 40 41  1  0  0  0
 42 43  1  0  0  0
 42 44  1  0  0  0
 42 45  1  0  0  0
 54 55  1  0  0  0
 55 56  2  0  0  0
 56 57  1  0  0  0
 57 58  2  0  0  0
 17 22  1  0  0  0
 10 11  1  0  0  0
 31 34  1  0  0  0
 36 39  1  0  0  0
M  END
> <minimizedAffinity>
-10.15812

$$$$
4A6B_QG8_B_1200


 58 63  0  0  0  0  0  0  0  0999 V2000
    8.6042   24.6418    0.8054 C   0  0  0  0  0  0  0  0  0  0  0  0
   10.0199   24.5621    1.3149 C   0  0  0  0  0  0  0  0  0  0  0  0
   10.4637   23.1605    1.8180 C   0  0  0  0  0  0  0  0  0  0  0  0
   11.4222   24.4980    3.7455 C   0  0  0  0  0  0  0  0  0  0  0  0
   11.3883   25.5805    3.1649 O   0  0  0  0  0  0  0  0  0  0  0  0
   11.5172   23.1389    2.9654 C   0  0  0  0  0  0  0  0  0  0  0  0
   11.1581   22.1474    4.1380 C   0  0  0  0  0  0  0  0  0  0  0  0
   11.4612   22.9224    5.3867 C   0  0  0  0  0  0  0  0  0  0  0  0
   11.3843   24.3267    5.0808 N   0  0  0  0  0  0  0  0  0  0  0  0
    9.8066   21.8065    4.2931 O   0  0  0  0  0  0  0  0  0  0  0  0
    9.2902   22.6070    4.4761 H   0  0  0  0  0  0  0  0  0  0  0  0
   11.2913   25.3862    6.1247 C   0  0  0  0  0  0  0  0  0  0  0  0
   10.2571   25.1992    7.2376 C   0  0  0  0  0  0  0  0  0  0  0  0
   10.7414   25.7667    8.4592 C   0  0  0  0  0  0  0  0  0  0  0  0
   12.1090   26.3572    8.2750 C   0  0  0  0  0  0  0  0  0  0  0  0
   12.5961   25.7304    6.9449 C   0  0  0  0  0  0  0  0  0  0  0  0
   13.3658   24.5927    7.3491 O   0  0  0  0  0  0  0  0  0  0  0  0
    9.9575   25.7276    9.6802 C   0  0  0  0  0  0  0  0  0  0  0  0
    8.6474   25.0912    9.6471 C   0  0  0  0  0  0  0  0  0  0  0  0
    8.1466   24.5038    8.3998 C   0  0  0  0  0  0  0  0  0  0  0  0
    8.9462   24.5583    7.1835 C   0  0  0  0  0  0  0  0  0  0  0  0
   12.8266   24.0240    7.9206 H   0  0  0  0  0  0  0  0  0  0  0  0
   13.0153   22.9098    2.3401 C   0  0  0  0  0  0  0  0  0  0  0  0
   13.8234   21.6698    2.7860 C   0  0  0  0  0  0  0  0  0  0  0  0
   14.6748   21.7158    3.9687 C   0  0  0  0  0  0  0  0  0  0  0  0
   15.4308   20.5522    4.3668 C   0  0  0  0  0  0  0  0  0  0  0  0
   15.3476   19.3367    3.5935 C   0  0  0  0  0  0  0  0  0  0  0  0
   14.5066   19.2854    2.4260 C   0  0  0  0  0  0  0  0  0  0  0  0
   13.7455   20.4366    2.0156 C   0  0  0  0  0  0  0  0  0  0  0  0
    7.6365   25.2704    1.7142 N   0  0  0  0  0  0  0  0  0  0  0  0
    6.3327   25.0066    1.2560 N   0  0  0  0  0  0  0  0  0  0  0  0
    5.3494   25.9140    1.2075 C   0  0  0  0  0  0  0  0  0  0  0  0
    5.4939   27.0933    1.5663 O   0  0  0  0  0  0  0  0  0  0  0  0
    6.1297   24.0931    0.9503 H   0  0  0  0  0  0  0  0  0  0  0  0
    4.0390   25.3196    0.6631 C   0  0  0  0  0  0  0  0  0  0  0  0
    3.1401   25.4457    1.8114 N   0  0  0  0  0  0  0  0  0  0  0  0
    3.1930   24.6452    2.9435 C   0  0  0  0  0  0  0  0  0  0  0  0
    4.0109   23.7246    3.1133 O   0  0  0  0  0  0  0  0  0  0  0  0
    2.4500   26.1470    1.7781 H   0  0  0  0  0  0  0  0  0  0  0  0
    2.2155   25.0517    3.7895 O   0  0  0  0  0  0  0  0  0  0  0  0
    2.2797   24.7531    5.1818 C   0  0  0  0  0  0  0  0  0  0  0  0
    3.3281   26.0040   -0.5993 C   0  0  0  0  0  0  0  0  0  0  0  0
    2.5545   24.9120   -1.3919 C   0  0  0  0  0  0  0  0  0  0  0  0
    2.2608   27.0326   -0.1172 C   0  0  0  0  0  0  0  0  0  0  0  0
    4.2901   26.7649   -1.5534 C   0  0  0  0  0  0  0  0  0  0  0  0
    7.8195   24.7211    3.0792 C   0  0  0  0  0  0  0  0  0  0  0  0
    6.9788   27.7075    6.2818 C   0  0  0  0  0  0  0  0  0  0  0  0
    6.0660   26.6051    5.9942 C   0  0  0  0  0  0  0  0  0  0  0  0
    6.3569   25.6494    4.9506 C   0  0  0  0  0  0  0  0  0  0  0  0
    7.5698   25.7669    4.1630 C   0  0  0  0  0  0  0  0  0  0  0  0
    8.5048   26.8599    4.4240 C   0  0  0  0  0  0  0  0  0  0  0  0
    8.2080   27.8279    5.4808 C   0  0  0  0  0  0  0  0  0  0  0  0
    6.6531   28.6717    7.3662 C   0  0  0  0  0  0  0  0  0  0  0  0
    5.3605   29.3584    7.3935 C   0  0  0  0  0  0  0  0  0  0  0  0
    5.0321   30.3018    8.4516 C   0  0  0  0  0  0  0  0  0  0  0  0
    5.9991   30.5746    9.5061 C   0  0  0  0  0  0  0  0  0  0  0  0
    7.2919   29.9023    9.4960 C   0  0  0  0  0  0  0  0  0  0  0  0
    7.6173   28.9592    8.4382 C   0  0  0  0  0  0  0  0  0  0  0  0
  4  5  2  0  0  0
  4  6  1  0  0  0
  4  9  1  0  0  0
  6  7  1  0  0  0
  6  3  1  0  0  0
  6 23  1  0  0  0
  7  8  1  0  0  0
  7 10  1  0  0  0
  8  9  1  0  0  0
  9 12  1  0  0  0
 12 13  1  0  0  0
 12 16  1  0  0  0
 13 14  2  0  0  0
 13 21  1  0  0  0
 14 15  1  0  0  0
 14 18  1  0  0  0
 15 16  1  0  0  0
 16 17  1  0  0  0
 18 19  2  0  0  0
 19 20  1  0  0  0
 20 21  2  0  0  0
  2  1  1  0  0  0
  2  3  1  0  0  0
  1 30  1  0  0  0
 23 24  1  0  0  0
 24 25  2  0  0  0
 24 29  1  0  0  0
 25 26  1  0  0  0
 26 27  2  0  0  0
 27 28  1  0  0  0
 28 29  2  0  0  0
 53 47  1  0  0  0
 53 54  2  0  0  0
 53 58  1  0  0  0
 47 48  2  0  0  0
 47 52  1  0  0  0
 48 49  1  0  0  0
 49 50  2  0  0  0
 50 51  1  0  0  0
 50 46  1  0  0  0
 51 52  2  0  0  0
 46 30  1  0  0  0
 30 31  1  0  0  0
 31 32  1  0  0  0
 32 35  1  0  0  0
 32 33  2  0  0  0
 35 36  1  0  0  0
 35 42  1  0  0  0
 36 37  1  0  0  0
 37 40  1  0  0  0
 37 38  2  0  0  0
 40 41  1  0  0  0
 42 43  1  0  0  0
 42 44  1  0  0  0
 42 45  1  0  0  0
 54 55  1  0  0  0
 55 56  2  0  0  0
 56 57  1  0  0  0
 57 58  2  0  0  0
 17 22  1  0  0  0
 10 11  1  0  0  0
 31 34  1  0  0  0
 36 39  1  0  0  0
M  END
> <minimizedAffinity>
-10.12011

$$$$
