4XIP_40W_A_301
  RCSB PDB12061716133D
Coordinates from PDB:4XIP:A:301 Model:1 without hydrogens
 22 24  0  0  0  0            999 V2000
   -1.6190  -10.6030  -26.2250   N 0  0  0  0  0  0  0  0  0  0  0  0
    6.5070  -11.9690  -24.0840   C 0  0  0  0  0  0  0  0  0  0  0  0
    7.5940  -12.9300  -24.3300   C 0  0  0  0  0  0  0  0  0  0  0  0
    7.2210  -14.3390  -24.7380   C 0  0  0  0  0  0  0  0  0  0  0  0
    5.9390  -14.4600  -25.5800   C 0  0  0  0  0  0  0  0  0  0  0  0
    4.8090  -13.7260  -24.8500   C 0  0  0  0  0  0  0  0  0  0  0  0
    6.1620  -13.8500  -26.9680   C 0  0  0  0  0  0  0  0  0  0  0  0
    1.0350  -10.1620  -25.2280   C 0  0  0  0  0  0  0  0  0  0  0  0
    0.7500  -12.2470  -24.0470   C 0  0  0  0  0  0  0  0  0  0  0  0
   -1.2620  -11.1680  -25.1030   C 0  0  0  0  0  0  0  0  0  0  0  0
   -2.0830  -11.7030  -24.3180   O 0  0  0  0  0  0  0  0  0  0  0  0
    0.1960  -11.1910  -24.7790   C 0  0  0  0  0  0  0  0  0  0  0  0
    2.3960  -10.1930  -24.9700   C 0  0  0  0  0  0  0  0  0  0  0  0
    2.1080  -12.2800  -23.7770   C 0  0  0  0  0  0  0  0  0  0  0  0
    2.9420  -11.2580  -24.2510   C 0  0  0  0  0  0  0  0  0  0  0  0
    4.3630  -11.3160  -24.0220   N 0  0  0  0  0  0  0  0  0  0  0  0
    5.1450  -10.2480  -23.6190   C 0  0  0  0  0  0  0  0  0  0  0  0
    5.2070  -12.3810  -24.3160   C 0  0  0  0  0  0  0  0  0  0  0  0
    5.5580  -15.9280  -25.7510   C 0  0  0  0  0  0  0  0  0  0  0  0
    8.7710  -12.5920  -24.2680   O 0  0  0  0  0  0  0  0  0  0  0  0
    6.4570  -10.6010  -23.6410   C 0  0  0  0  0  0  0  0  0  0  0  0
    7.6050   -9.6950  -23.2800   C 0  0  0  0  0  0  0  0  0  0  0  0
  7  5  1  0  0  0  0
  1 10  1  0  0  0  0
 19  5  1  0  0  0  0
  5  6  1  0  0  0  0
  5  4  1  0  0  0  0
  8 13  2  0  0  0  0
  8 12  1  0  0  0  0
 10 12  1  0  0  0  0
 10 11  2  0  0  0  0
 13 15  1  0  0  0  0
  6 18  1  0  0  0  0
 12  9  2  0  0  0  0
  4  3  1  0  0  0  0
  3 20  2  0  0  0  0
  3  2  1  0  0  0  0
 18  2  2  0  0  0  0
 18 16  1  0  0  0  0
 15 16  1  0  0  0  0
 15 14  2  0  0  0  0
  2 21  1  0  0  0  0
  9 14  1  0  0  0  0
 16 17  1  0  0  0  0
 21 17  2  0  0  0  0
 21 22  1  0  0  0  0
A    1
N1
A    2
C4
A    3
C5
A    4
C6
A    5
C7
A    6
C8
A    7
C10
A    8
C13
A    9
C15
A   10
C17
A   11
O1
A   12
C14
A   13
C12
A   14
C16
A   15
C11
A   16
N
A   17
C2
A   18
C3
A   19
C9
A   20
O
A   21
C1
A   22
C
M  END
>  <InstanceId>
4XIP_40W_A_301

>  <ChemCompId>
40W

>  <PdbId>
4XIP

>  <ChainId>
A

>  <ResidueNumber>
301

>  <InsertionCode>


>  <Model>
1

>  <AltIds>


>  <MissingHeavyAtoms>
0

>  <ObservedFormula>
C18 N2 O2

>  <Name>
4-(3,6,6-trimethyl-4-oxo-4,5,6,7-tetrahydro-1H-indol-1-yl)benzamide

>  <SystematicName>
4-(3,6,6-trimethyl-4-oxidanylidene-5,7-dihydroindol-1-yl)benzamide

>  <Synonyms>


>  <Type>
NON-POLYMER

>  <Formula>
C18 H20 N2 O2

>  <MolecularWeight>
296.364

>  <ModifiedDate>
2015-02-27

>  <Parent>


>  <OneLetterCode>


>  <SubcomponentList>


>  <AmbiguousFlag>
N

>  <InChI>
InChI=1S/C18H20N2O2/c1-11-10-20(13-6-4-12(5-7-13)17(19)22)14-8-18(2,3)9-15(21)16(11)14/h4-7,10H,8-9H2,1-3H3,(H2,19,22)

>  <InChIKey>
WCNWRBAQSUPKHE-UHFFFAOYSA-N

>  <SMILES>
Cc1cn(c2c1C(=O)CC(C2)(C)C)c3ccc(cc3)C(=O)N

$$$$
