4JZ1_F4D_A_900


 44 47  0  0  0  0  0  0  0  0999 V2000
   15.9905   64.0514   23.5122 C   0  0  0  0  0  0  0  0  0  0  0  0
   16.6737   63.0718   24.1424 C   0  0  0  0  0  0  0  0  0  0  0  0
   14.8625   64.6547   24.0843 C   0  0  0  0  0  0  0  0  0  0  0  0
   14.5248   64.3500   25.3712 C   0  0  0  0  0  0  0  0  0  0  0  0
   15.2800   63.3838   26.0056 C   0  0  0  0  0  0  0  0  0  0  0  0
   16.3280   62.7768   25.4017 N   0  0  0  0  0  0  0  0  0  0  0  0
   16.0510   64.2322   22.2227 N   0  0  0  0  0  0  0  0  0  0  0  0
   15.1923   63.8829   21.8912 H   0  0  0  0  0  0  0  0  0  0  0  0
   17.8995   64.2152   20.2304 O   0  0  0  0  0  0  0  0  0  0  0  0
   16.7649   64.7043   20.9714 S   0  0  0  0  0  0  0  0  0  0  0  0
   17.4165   65.6668   21.7752 O   0  0  0  0  0  0  0  0  0  0  0  0
   15.6655   65.6147   20.2324 C   0  0  0  0  0  0  0  0  0  0  0  0
   15.6350   65.5899   18.8306 C   0  0  0  0  0  0  0  0  0  0  0  0
   14.7488   66.3775   18.1140 C   0  0  0  0  0  0  0  0  0  0  0  0
   13.8727   67.2022   18.7869 C   0  0  0  0  0  0  0  0  0  0  0  0
   13.0131   67.9654   18.0729 F   0  0  0  0  0  0  0  0  0  0  0  0
   13.8941   67.2466   20.1789 C   0  0  0  0  0  0  0  0  0  0  0  0
   14.7944   66.4578   20.8984 C   0  0  0  0  0  0  0  0  0  0  0  0
   17.6995   62.4556   23.4970 O   0  0  0  0  0  0  0  0  0  0  0  0
   18.3147   61.4122   24.1391 C   0  0  0  0  0  0  0  0  0  0  0  0
   18.1755   60.1423   23.6030 C   0  0  0  0  0  0  0  0  0  0  0  0
   18.7773   59.0646   24.2228 C   0  0  0  0  0  0  0  0  0  0  0  0
   19.5138   59.2370   25.3915 C   0  0  0  0  0  0  0  0  0  0  0  0
   19.6620   60.5155   25.9329 C   0  0  0  0  0  0  0  0  0  0  0  0
   19.0625   61.6049   25.2988 C   0  0  0  0  0  0  0  0  0  0  0  0
   20.1446   58.0555   26.0601 C   0  0  0  0  0  0  0  0  0  0  0  0
   20.0762   56.9214   25.5188 N   0  0  0  0  0  0  0  0  0  0  0  0
   20.8013   58.1904   27.2033 N   0  0  0  0  0  0  0  0  0  0  0  0
   19.5910   56.8098   24.6696 H   0  0  0  0  0  0  0  0  0  0  0  0
   20.8611   59.0729   27.6354 H   0  0  0  0  0  0  0  0  0  0  0  0
   21.2293   57.4080   27.6203 H   0  0  0  0  0  0  0  0  0  0  0  0
   15.0476   63.0916   27.3066 O   0  0  0  0  0  0  0  0  0  0  0  0
   13.9339   62.6314   27.8728 C   0  0  0  0  0  0  0  0  0  0  0  0
   12.8093   62.3323   27.1217 C   0  0  0  0  0  0  0  0  0  0  0  0
   11.7098   61.8329   27.7752 C   0  0  0  0  0  0  0  0  0  0  0  0
   11.7668   61.6476   29.1448 C   0  0  0  0  0  0  0  0  0  0  0  0
   12.8965   61.9475   29.8910 C   0  0  0  0  0  0  0  0  0  0  0  0
   14.0069   62.4459   29.2442 C   0  0  0  0  0  0  0  0  0  0  0  0
   10.5798   61.0884   29.8264 C   0  0  0  0  0  0  0  0  0  0  0  0
    9.4741   61.1392   29.2250 N   0  0  0  0  0  0  0  0  0  0  0  0
   10.7009   60.5919   31.0512 N   0  0  0  0  0  0  0  0  0  0  0  0
    9.4248   61.5150   28.3164 H   0  0  0  0  0  0  0  0  0  0  0  0
    8.6593   60.8031   29.6636 H   0  0  0  0  0  0  0  0  0  0  0  0
   11.5828   60.5695   31.4883 H   0  0  0  0  0  0  0  0  0  0  0  0
 17 18  2  0  0  0
 17 15  1  0  0  0
 18 12  1  0  0  0
 16 15  1  0  0  0
 15 14  2  0  0  0
  9 10  2  0  0  0
 12 10  1  0  0  0
 12 13  2  0  0  0
 10 11  2  0  0  0
 10  7  1  0  0  0
 14 13  1  0  0  0
  7  1  1  0  0  0
  1  3  2  0  0  0
  1  2  1  0  0  0
 19  2  1  0  0  0
 19 20  1  0  0  0
 25 20  2  0  0  0
 25 24  1  0  0  0
  3  4  1  0  0  0
  2  6  2  0  0  0
 20 21  1  0  0  0
 24 23  2  0  0  0
  4  5  2  0  0  0
 21 22  2  0  0  0
  6  5  1  0  0  0
 23 22  1  0  0  0
 23 26  1  0  0  0
 27 26  2  0  0  0
  5 32  1  0  0  0
 26 28  1  0  0  0
 34 35  2  0  0  0
 34 33  1  0  0  0
 32 33  1  0  0  0
 35 36  1  0  0  0
 33 38  2  0  0  0
 36 39  1  0  0  0
 36 37  2  0  0  0
 38 37  1  0  0  0
 41 39  2  0  0  0
 39 40  1  0  0  0
  7  8  1  0  0  0
 27 29  1  0  0  0
 28 30  1  0  0  0
 28 31  1  0  0  0
 40 42  1  0  0  0
 40 43  1  0  0  0
 41 44  1  0  0  0
M  END
> <minimizedAffinity>
-11.42901

$$$$
4JZ1_F4D_A_900


 44 47  0  0  0  0  0  0  0  0999 V2000
   16.0143   64.7233   22.9684 C   0  0  0  0  0  0  0  0  0  0  0  0
   16.7063   64.3856   24.0778 C   0  0  0  0  0  0  0  0  0  0  0  0
   14.6349   64.9678   23.0009 C   0  0  0  0  0  0  0  0  0  0  0  0
   13.9936   65.0076   24.2052 C   0  0  0  0  0  0  0  0  0  0  0  0
   14.7447   64.7121   25.3254 C   0  0  0  0  0  0  0  0  0  0  0  0
   16.0643   64.4211   25.2521 N   0  0  0  0  0  0  0  0  0  0  0  0
   16.4453   64.4644   21.7658 N   0  0  0  0  0  0  0  0  0  0  0  0
   16.3457   63.4887   21.6805 H   0  0  0  0  0  0  0  0  0  0  0  0
   17.9705   64.3048   19.5220 O   0  0  0  0  0  0  0  0  0  0  0  0
   17.0211   64.8946   20.4310 S   0  0  0  0  0  0  0  0  0  0  0  0
   17.8913   65.7481   21.1460 O   0  0  0  0  0  0  0  0  0  0  0  0
   15.9415   65.9495   19.8785 C   0  0  0  0  0  0  0  0  0  0  0  0
   15.9790   67.2520   20.3971 C   0  0  0  0  0  0  0  0  0  0  0  0
   15.0574   68.2104   20.0083 C   0  0  0  0  0  0  0  0  0  0  0  0
   14.0828   67.8849   19.0893 C   0  0  0  0  0  0  0  0  0  0  0  0
   13.1898   68.8321   18.7194 F   0  0  0  0  0  0  0  0  0  0  0  0
   14.0244   66.5939   18.5696 C   0  0  0  0  0  0  0  0  0  0  0  0
   14.9496   65.6274   18.9698 C   0  0  0  0  0  0  0  0  0  0  0  0
   18.0227   64.0637   23.9678 O   0  0  0  0  0  0  0  0  0  0  0  0
   18.3960   62.7958   24.3318 C   0  0  0  0  0  0  0  0  0  0  0  0
   19.2086   62.6484   25.4443 C   0  0  0  0  0  0  0  0  0  0  0  0
   19.6091   61.3874   25.8409 C   0  0  0  0  0  0  0  0  0  0  0  0
   19.2161   60.2592   25.1264 C   0  0  0  0  0  0  0  0  0  0  0  0
   18.3926   60.4016   24.0078 C   0  0  0  0  0  0  0  0  0  0  0  0
   17.9796   61.6759   23.6152 C   0  0  0  0  0  0  0  0  0  0  0  0
   19.6740   58.9015   25.5597 C   0  0  0  0  0  0  0  0  0  0  0  0
   20.4252   58.7864   26.5627 N   0  0  0  0  0  0  0  0  0  0  0  0
   19.2760   57.8120   24.9186 N   0  0  0  0  0  0  0  0  0  0  0  0
   20.7269   59.5890   27.0465 H   0  0  0  0  0  0  0  0  0  0  0  0
   18.6882   57.8904   24.1327 H   0  0  0  0  0  0  0  0  0  0  0  0
   19.5681   56.9243   25.2282 H   0  0  0  0  0  0  0  0  0  0  0  0
   14.1893   64.8103   26.5559 O   0  0  0  0  0  0  0  0  0  0  0  0
   13.2273   64.0674   27.0992 C   0  0  0  0  0  0  0  0  0  0  0  0
   11.9338   64.5436   27.2359 C   0  0  0  0  0  0  0  0  0  0  0  0
   10.9907   63.7058   27.7781 C   0  0  0  0  0  0  0  0  0  0  0  0
   11.3636   62.4302   28.1617 C   0  0  0  0  0  0  0  0  0  0  0  0
   12.6601   61.9587   28.0206 C   0  0  0  0  0  0  0  0  0  0  0  0
   13.6137   62.7905   27.4741 C   0  0  0  0  0  0  0  0  0  0  0  0
   10.3283   61.5363   28.7231 C   0  0  0  0  0  0  0  0  0  0  0  0
    9.5906   61.9880   29.6389 N   0  0  0  0  0  0  0  0  0  0  0  0
   10.2314   60.2882   28.2825 N   0  0  0  0  0  0  0  0  0  0  0  0
    9.6929   62.9201   29.9387 H   0  0  0  0  0  0  0  0  0  0  0  0
    8.9118   61.4088   30.0549 H   0  0  0  0  0  0  0  0  0  0  0  0
   10.8263   59.9720   27.5646 H   0  0  0  0  0  0  0  0  0  0  0  0
 17 18  2  0  0  0
 17 15  1  0  0  0
 18 12  1  0  0  0
 16 15  1  0  0  0
 15 14  2  0  0  0
  9 10  2  0  0  0
 12 10  1  0  0  0
 12 13  2  0  0  0
 10 11  2  0  0  0
 10  7  1  0  0  0
 14 13  1  0  0  0
  7  1  1  0  0  0
  1  3  2  0  0  0
  1  2  1  0  0  0
 19  2  1  0  0  0
 19 20  1  0  0  0
 25 20  2  0  0  0
 25 24  1  0  0  0
  3  4  1  0  0  0
  2  6  2  0  0  0
 20 21  1  0  0  0
 24 23  2  0  0  0
  4  5  2  0  0  0
 21 22  2  0  0  0
  6  5  1  0  0  0
 23 22  1  0  0  0
 23 26  1  0  0  0
 27 26  2  0  0  0
  5 32  1  0  0  0
 26 28  1  0  0  0
 34 35  2  0  0  0
 34 33  1  0  0  0
 32 33  1  0  0  0
 35 36  1  0  0  0
 33 38  2  0  0  0
 36 39  1  0  0  0
 36 37  2  0  0  0
 38 37  1  0  0  0
 41 39  2  0  0  0
 39 40  1  0  0  0
  7  8  1  0  0  0
 27 29  1  0  0  0
 28 30  1  0  0  0
 28 31  1  0  0  0
 40 42  1  0  0  0
 40 43  1  0  0  0
 41 44  1  0  0  0
M  END
> <minimizedAffinity>
-10.46988

$$$$
4JZ1_F4D_A_900


 44 47  0  0  0  0  0  0  0  0999 V2000
   14.6187   64.9022   25.3365 C   0  0  0  0  0  0  0  0  0  0  0  0
   15.5697   64.0659   25.8052 C   0  0  0  0  0  0  0  0  0  0  0  0
   13.3008   64.8665   25.8113 C   0  0  0  0  0  0  0  0  0  0  0  0
   12.9974   64.0671   26.8751 C   0  0  0  0  0  0  0  0  0  0  0  0
   14.0091   63.2658   27.3658 C   0  0  0  0  0  0  0  0  0  0  0  0
   15.2577   63.2812   26.8441 N   0  0  0  0  0  0  0  0  0  0  0  0
   14.7152   65.4988   24.1815 N   0  0  0  0  0  0  0  0  0  0  0  0
   14.2777   64.8788   23.5543 H   0  0  0  0  0  0  0  0  0  0  0  0
   15.4510   68.0427   23.5707 O   0  0  0  0  0  0  0  0  0  0  0  0
   15.1555   66.6573   23.3084 S   0  0  0  0  0  0  0  0  0  0  0  0
   13.8092   66.7859   22.8988 O   0  0  0  0  0  0  0  0  0  0  0  0
   15.7998   65.9364   22.0244 C   0  0  0  0  0  0  0  0  0  0  0  0
   16.9365   65.1403   22.2264 C   0  0  0  0  0  0  0  0  0  0  0  0
   17.5799   64.5192   21.1683 C   0  0  0  0  0  0  0  0  0  0  0  0
   17.0953   64.6795   19.8877 C   0  0  0  0  0  0  0  0  0  0  0  0
   17.7347   64.0664   18.8647 F   0  0  0  0  0  0  0  0  0  0  0  0
   15.9724   65.4734   19.6665 C   0  0  0  0  0  0  0  0  0  0  0  0
   15.3309   66.1052   20.7341 C   0  0  0  0  0  0  0  0  0  0  0  0
   16.8051   64.0791   25.2374 O   0  0  0  0  0  0  0  0  0  0  0  0
   17.5190   62.9088   25.2496 C   0  0  0  0  0  0  0  0  0  0  0  0
   17.2424   61.9650   24.2738 C   0  0  0  0  0  0  0  0  0  0  0  0
   17.9378   60.7717   24.2546 C   0  0  0  0  0  0  0  0  0  0  0  0
   18.9076   60.4986   25.2153 C   0  0  0  0  0  0  0  0  0  0  0  0
   19.1942   61.4486   26.1976 C   0  0  0  0  0  0  0  0  0  0  0  0
   18.4983   62.6586   26.2086 C   0  0  0  0  0  0  0  0  0  0  0  0
   19.6392   59.1930   25.1904 C   0  0  0  0  0  0  0  0  0  0  0  0
   20.3336   58.8472   26.1814 N   0  0  0  0  0  0  0  0  0  0  0  0
   19.5441   58.3789   24.1490 N   0  0  0  0  0  0  0  0  0  0  0  0
   20.4112   59.4441   26.9605 H   0  0  0  0  0  0  0  0  0  0  0  0
   19.0037   58.6393   23.3684 H   0  0  0  0  0  0  0  0  0  0  0  0
   20.0139   57.5137   24.1560 H   0  0  0  0  0  0  0  0  0  0  0  0
   13.7966   62.5086   28.4674 O   0  0  0  0  0  0  0  0  0  0  0  0
   12.6602   61.9683   28.9025 C   0  0  0  0  0  0  0  0  0  0  0  0
   11.7147   61.4643   28.0246 C   0  0  0  0  0  0  0  0  0  0  0  0
   10.5819   60.8951   28.5520 C   0  0  0  0  0  0  0  0  0  0  0  0
   10.4299   60.8453   29.9260 C   0  0  0  0  0  0  0  0  0  0  0  0
   11.3811   61.3502   30.7997 C   0  0  0  0  0  0  0  0  0  0  0  0
   12.5236   61.9205   30.2807 C   0  0  0  0  0  0  0  0  0  0  0  0
    9.2132   60.2087   30.4740 C   0  0  0  0  0  0  0  0  0  0  0  0
    8.3687   60.9451   31.0496 N   0  0  0  0  0  0  0  0  0  0  0  0
    9.0640   58.8931   30.3822 N   0  0  0  0  0  0  0  0  0  0  0  0
    8.5148   61.9176   31.0971 H   0  0  0  0  0  0  0  0  0  0  0  0
    7.5625   60.5483   31.4519 H   0  0  0  0  0  0  0  0  0  0  0  0
    9.7465   58.3512   29.9242 H   0  0  0  0  0  0  0  0  0  0  0  0
 17 18  2  0  0  0
 17 15  1  0  0  0
 18 12  1  0  0  0
 16 15  1  0  0  0
 15 14  2  0  0  0
  9 10  2  0  0  0
 12 10  1  0  0  0
 12 13  2  0  0  0
 10 11  2  0  0  0
 10  7  1  0  0  0
 14 13  1  0  0  0
  7  1  1  0  0  0
  1  3  2  0  0  0
  1  2  1  0  0  0
 19  2  1  0  0  0
 19 20  1  0  0  0
 25 20  2  0  0  0
 25 24  1  0  0  0
  3  4  1  0  0  0
  2  6  2  0  0  0
 20 21  1  0  0  0
 24 23  2  0  0  0
  4  5  2  0  0  0
 21 22  2  0  0  0
  6  5  1  0  0  0
 23 22  1  0  0  0
 23 26  1  0  0  0
 27 26  2  0  0  0
  5 32  1  0  0  0
 26 28  1  0  0  0
 34 35  2  0  0  0
 34 33  1  0  0  0
 32 33  1  0  0  0
 35 36  1  0  0  0
 33 38  2  0  0  0
 36 39  1  0  0  0
 36 37  2  0  0  0
 38 37  1  0  0  0
 41 39  2  0  0  0
 39 40  1  0  0  0
  7  8  1  0  0  0
 27 29  1  0  0  0
 28 30  1  0  0  0
 28 31  1  0  0  0
 40 42  1  0  0  0
 40 43  1  0  0  0
 41 44  1  0  0  0
M  END
> <minimizedAffinity>
-10.24721

$$$$
4JZ1_F4D_A_900


 44 47  0  0  0  0  0  0  0  0999 V2000
   15.1225   64.7563   24.2913 C   0  0  0  0  0  0  0  0  0  0  0  0
   16.1296   65.1780   23.4967 C   0  0  0  0  0  0  0  0  0  0  0  0
   14.9663   63.4074   24.6371 C   0  0  0  0  0  0  0  0  0  0  0  0
   15.9343   62.5125   24.2832 C   0  0  0  0  0  0  0  0  0  0  0  0
   16.9795   62.9898   23.5177 C   0  0  0  0  0  0  0  0  0  0  0  0
   17.0688   64.2892   23.1500 N   0  0  0  0  0  0  0  0  0  0  0  0
   14.0283   65.4436   24.4630 N   0  0  0  0  0  0  0  0  0  0  0  0
   13.3576   64.9649   23.9241 H   0  0  0  0  0  0  0  0  0  0  0  0
   13.5159   67.5037   26.1600 O   0  0  0  0  0  0  0  0  0  0  0  0
   13.2583   66.6017   25.0665 S   0  0  0  0  0  0  0  0  0  0  0  0
   12.4640   65.6476   25.7415 O   0  0  0  0  0  0  0  0  0  0  0  0
   12.2643   67.0484   23.8850 C   0  0  0  0  0  0  0  0  0  0  0  0
   12.0714   66.1534   22.8228 C   0  0  0  0  0  0  0  0  0  0  0  0
   11.2662   66.4774   21.7431 C   0  0  0  0  0  0  0  0  0  0  0  0
   10.6348   67.7024   21.7077 C   0  0  0  0  0  0  0  0  0  0  0  0
    9.8514   68.0043   20.6463 F   0  0  0  0  0  0  0  0  0  0  0  0
   10.8211   68.6079   22.7496 C   0  0  0  0  0  0  0  0  0  0  0  0
   11.6402   68.2817   23.8326 C   0  0  0  0  0  0  0  0  0  0  0  0
   16.1733   66.4821   23.1146 O   0  0  0  0  0  0  0  0  0  0  0  0
   15.5323   66.8219   21.9514 C   0  0  0  0  0  0  0  0  0  0  0  0
   14.9509   68.0768   21.8688 C   0  0  0  0  0  0  0  0  0  0  0  0
   14.2929   68.4550   20.7147 C   0  0  0  0  0  0  0  0  0  0  0  0
   14.1944   67.5829   19.6342 C   0  0  0  0  0  0  0  0  0  0  0  0
   14.7835   66.3192   19.7100 C   0  0  0  0  0  0  0  0  0  0  0  0
   15.4578   65.9430   20.8729 C   0  0  0  0  0  0  0  0  0  0  0  0
   13.4623   68.0023   18.3977 C   0  0  0  0  0  0  0  0  0  0  0  0
   12.2158   67.8447   18.3263 N   0  0  0  0  0  0  0  0  0  0  0  0
   14.1043   68.5656   17.3844 N   0  0  0  0  0  0  0  0  0  0  0  0
   11.7288   67.4274   19.0732 H   0  0  0  0  0  0  0  0  0  0  0  0
   15.0794   68.6938   17.4297 H   0  0  0  0  0  0  0  0  0  0  0  0
   13.6061   68.8559   16.5864 H   0  0  0  0  0  0  0  0  0  0  0  0
   18.0111   62.1733   23.1994 O   0  0  0  0  0  0  0  0  0  0  0  0
   18.4861   61.1273   23.8722 C   0  0  0  0  0  0  0  0  0  0  0  0
   18.3846   59.8387   23.3744 C   0  0  0  0  0  0  0  0  0  0  0  0
   18.9262   58.8160   24.1134 C   0  0  0  0  0  0  0  0  0  0  0  0
   19.5481   59.1083   25.3139 C   0  0  0  0  0  0  0  0  0  0  0  0
   19.6479   60.4009   25.8061 C   0  0  0  0  0  0  0  0  0  0  0  0
   19.1107   61.4353   25.0703 C   0  0  0  0  0  0  0  0  0  0  0  0
   20.1440   57.9955   26.0838 C   0  0  0  0  0  0  0  0  0  0  0  0
   20.0307   56.8293   25.6212 N   0  0  0  0  0  0  0  0  0  0  0  0
   20.7382   58.2457   27.2438 N   0  0  0  0  0  0  0  0  0  0  0  0
   19.5830   56.6841   24.7565 H   0  0  0  0  0  0  0  0  0  0  0  0
   20.3898   56.0631   26.1244 H   0  0  0  0  0  0  0  0  0  0  0  0
   20.8072   59.1714   27.5719 H   0  0  0  0  0  0  0  0  0  0  0  0
 17 18  2  0  0  0
 17 15  1  0  0  0
 18 12  1  0  0  0
 16 15  1  0  0  0
 15 14  2  0  0  0
  9 10  2  0  0  0
 12 10  1  0  0  0
 12 13  2  0  0  0
 10 11  2  0  0  0
 10  7  1  0  0  0
 14 13  1  0  0  0
  7  1  1  0  0  0
  1  3  2  0  0  0
  1  2  1  0  0  0
 19  2  1  0  0  0
 19 20  1  0  0  0
 25 20  2  0  0  0
 25 24  1  0  0  0
  3  4  1  0  0  0
  2  6  2  0  0  0
 20 21  1  0  0  0
 24 23  2  0  0  0
  4  5  2  0  0  0
 21 22  2  0  0  0
  6  5  1  0  0  0
 23 22  1  0  0  0
 23 26  1  0  0  0
 27 26  2  0  0  0
  5 32  1  0  0  0
 26 28  1  0  0  0
 34 35  2  0  0  0
 34 33  1  0  0  0
 32 33  1  0  0  0
 35 36  1  0  0  0
 33 38  2  0  0  0
 36 39  1  0  0  0
 36 37  2  0  0  0
 38 37  1  0  0  0
 41 39  2  0  0  0
 39 40  1  0  0  0
  7  8  1  0  0  0
 27 29  1  0  0  0
 28 30  1  0  0  0
 28 31  1  0  0  0
 40 42  1  0  0  0
 40 43  1  0  0  0
 41 44  1  0  0  0
M  END
> <minimizedAffinity>
-10.23742

$$$$
4JZ1_F4D_A_900


 44 47  0  0  0  0  0  0  0  0999 V2000
   16.3809   63.8051   24.6500 C   0  0  0  0  0  0  0  0  0  0  0  0
   17.6220   63.7846   24.1183 C   0  0  0  0  0  0  0  0  0  0  0  0
   15.2889   64.3512   23.9624 C   0  0  0  0  0  0  0  0  0  0  0  0
   15.4476   64.7443   22.6650 C   0  0  0  0  0  0  0  0  0  0  0  0
   16.7194   64.6571   22.1346 C   0  0  0  0  0  0  0  0  0  0  0  0
   17.7662   64.1798   22.8473 N   0  0  0  0  0  0  0  0  0  0  0  0
   16.1642   63.7097   25.9318 N   0  0  0  0  0  0  0  0  0  0  0  0
   16.2856   62.7519   26.1248 H   0  0  0  0  0  0  0  0  0  0  0  0
   16.0603   65.6048   27.8771 O   0  0  0  0  0  0  0  0  0  0  0  0
   15.8211   64.3166   27.2780 S   0  0  0  0  0  0  0  0  0  0  0  0
   16.9214   63.6095   27.8132 O   0  0  0  0  0  0  0  0  0  0  0  0
   14.5953   63.4147   27.7953 C   0  0  0  0  0  0  0  0  0  0  0  0
   13.5248   63.2037   26.9144 C   0  0  0  0  0  0  0  0  0  0  0  0
   12.4093   62.4759   27.2955 C   0  0  0  0  0  0  0  0  0  0  0  0
   12.3456   61.9415   28.5646 C   0  0  0  0  0  0  0  0  0  0  0  0
   11.2495   61.2329   28.9220 F   0  0  0  0  0  0  0  0  0  0  0  0
   13.3955   62.1478   29.4564 C   0  0  0  0  0  0  0  0  0  0  0  0
   14.5150   62.8890   29.0722 C   0  0  0  0  0  0  0  0  0  0  0  0
   18.6602   63.3325   24.8710 O   0  0  0  0  0  0  0  0  0  0  0  0
   18.8606   61.9773   24.9228 C   0  0  0  0  0  0  0  0  0  0  0  0
   18.4120   61.2099   23.8602 C   0  0  0  0  0  0  0  0  0  0  0  0
   18.5920   59.8405   23.8768 C   0  0  0  0  0  0  0  0  0  0  0  0
   19.2088   59.2177   24.9583 C   0  0  0  0  0  0  0  0  0  0  0  0
   19.6678   59.9871   26.0293 C   0  0  0  0  0  0  0  0  0  0  0  0
   19.4951   61.3720   26.0054 C   0  0  0  0  0  0  0  0  0  0  0  0
   19.3798   57.7306   24.9682 C   0  0  0  0  0  0  0  0  0  0  0  0
   20.2897   57.2112   25.6654 N   0  0  0  0  0  0  0  0  0  0  0  0
   18.5669   56.9472   24.2742 N   0  0  0  0  0  0  0  0  0  0  0  0
   20.8993   57.7838   26.1849 H   0  0  0  0  0  0  0  0  0  0  0  0
   17.8517   57.3428   23.7254 H   0  0  0  0  0  0  0  0  0  0  0  0
   18.6783   55.9695   24.3074 H   0  0  0  0  0  0  0  0  0  0  0  0
   16.9295   64.9564   20.8314 O   0  0  0  0  0  0  0  0  0  0  0  0
   16.2558   65.7969   20.0489 C   0  0  0  0  0  0  0  0  0  0  0  0
   15.4241   65.3391   19.0403 C   0  0  0  0  0  0  0  0  0  0  0  0
   14.7395   66.2678   18.2959 C   0  0  0  0  0  0  0  0  0  0  0  0
   14.9032   67.6118   18.5795 C   0  0  0  0  0  0  0  0  0  0  0  0
   15.7362   68.0637   19.5919 C   0  0  0  0  0  0  0  0  0  0  0  0
   16.4251   67.1395   20.3475 C   0  0  0  0  0  0  0  0  0  0  0  0
   14.1403   68.5946   17.7806 C   0  0  0  0  0  0  0  0  0  0  0  0
   13.4715   68.1691   16.8016 N   0  0  0  0  0  0  0  0  0  0  0  0
   14.2114   69.8840   18.0866 N   0  0  0  0  0  0  0  0  0  0  0  0
   13.4433   67.2045   16.6067 H   0  0  0  0  0  0  0  0  0  0  0  0
   12.9770   68.8012   16.2313 H   0  0  0  0  0  0  0  0  0  0  0  0
   14.7449   70.1777   18.8602 H   0  0  0  0  0  0  0  0  0  0  0  0
 17 18  2  0  0  0
 17 15  1  0  0  0
 18 12  1  0  0  0
 16 15  1  0  0  0
 15 14  2  0  0  0
  9 10  2  0  0  0
 12 10  1  0  0  0
 12 13  2  0  0  0
 10 11  2  0  0  0
 10  7  1  0  0  0
 14 13  1  0  0  0
  7  1  1  0  0  0
  1  3  2  0  0  0
  1  2  1  0  0  0
 19  2  1  0  0  0
 19 20  1  0  0  0
 25 20  2  0  0  0
 25 24  1  0  0  0
  3  4  1  0  0  0
  2  6  2  0  0  0
 20 21  1  0  0  0
 24 23  2  0  0  0
  4  5  2  0  0  0
 21 22  2  0  0  0
  6  5  1  0  0  0
 23 22  1  0  0  0
 23 26  1  0  0  0
 27 26  2  0  0  0
  5 32  1  0  0  0
 26 28  1  0  0  0
 34 35  2  0  0  0
 34 33  1  0  0  0
 32 33  1  0  0  0
 35 36  1  0  0  0
 33 38  2  0  0  0
 36 39  1  0  0  0
 36 37  2  0  0  0
 38 37  1  0  0  0
 41 39  2  0  0  0
 39 40  1  0  0  0
  7  8  1  0  0  0
 27 29  1  0  0  0
 28 30  1  0  0  0
 28 31  1  0  0  0
 40 42  1  0  0  0
 40 43  1  0  0  0
 41 44  1  0  0  0
M  END
> <minimizedAffinity>
-10.21774

$$$$
4JZ1_F4D_A_900


 44 47  0  0  0  0  0  0  0  0999 V2000
   14.5548   64.9000   25.3761 C   0  0  0  0  0  0  0  0  0  0  0  0
   15.4926   64.0177   25.7830 C   0  0  0  0  0  0  0  0  0  0  0  0
   13.2516   64.8867   25.8909 C   0  0  0  0  0  0  0  0  0  0  0  0
   12.9555   64.0570   26.9334 C   0  0  0  0  0  0  0  0  0  0  0  0
   13.9558   63.2069   27.3616 C   0  0  0  0  0  0  0  0  0  0  0  0
   15.1877   63.2038   26.8014 N   0  0  0  0  0  0  0  0  0  0  0  0
   14.6349   65.5369   24.2416 N   0  0  0  0  0  0  0  0  0  0  0  0
   14.1479   66.3771   24.4036 H   0  0  0  0  0  0  0  0  0  0  0  0
   16.0398   64.9147   21.9999 O   0  0  0  0  0  0  0  0  0  0  0  0
   15.0930   65.6480   22.8007 S   0  0  0  0  0  0  0  0  0  0  0  0
   15.9203   66.7195   23.2061 O   0  0  0  0  0  0  0  0  0  0  0  0
   13.8921   66.4409   22.0847 C   0  0  0  0  0  0  0  0  0  0  0  0
   12.5971   66.2565   22.5903 C   0  0  0  0  0  0  0  0  0  0  0  0
   11.5001   66.8673   22.0049 C   0  0  0  0  0  0  0  0  0  0  0  0
   11.6786   67.6782   20.9045 C   0  0  0  0  0  0  0  0  0  0  0  0
   10.5972   68.2679   20.3440 F   0  0  0  0  0  0  0  0  0  0  0  0
   12.9564   67.8665   20.3830 C   0  0  0  0  0  0  0  0  0  0  0  0
   14.0593   67.2427   20.9700 C   0  0  0  0  0  0  0  0  0  0  0  0
   16.7098   64.0146   25.1771 O   0  0  0  0  0  0  0  0  0  0  0  0
   17.4093   62.8356   25.1698 C   0  0  0  0  0  0  0  0  0  0  0  0
   18.3984   62.6574   26.1235 C   0  0  0  0  0  0  0  0  0  0  0  0
   19.1278   61.4846   26.1467 C   0  0  0  0  0  0  0  0  0  0  0  0
   18.8899   60.4809   25.2119 C   0  0  0  0  0  0  0  0  0  0  0  0
   17.8904   60.6531   24.2522 C   0  0  0  0  0  0  0  0  0  0  0  0
   17.1467   61.8342   24.2374 C   0  0  0  0  0  0  0  0  0  0  0  0
   19.7017   59.2236   25.2403 C   0  0  0  0  0  0  0  0  0  0  0  0
   19.7785   58.5064   24.2090 N   0  0  0  0  0  0  0  0  0  0  0  0
   20.3668   58.8671   26.3296 N   0  0  0  0  0  0  0  0  0  0  0  0
   19.2885   58.7618   23.3942 H   0  0  0  0  0  0  0  0  0  0  0  0
   20.3139   59.4208   27.1420 H   0  0  0  0  0  0  0  0  0  0  0  0
   20.9139   58.0486   26.3266 H   0  0  0  0  0  0  0  0  0  0  0  0
   13.7530   62.4151   28.4405 O   0  0  0  0  0  0  0  0  0  0  0  0
   12.6140   61.8928   28.8904 C   0  0  0  0  0  0  0  0  0  0  0  0
   11.6451   61.4129   28.0247 C   0  0  0  0  0  0  0  0  0  0  0  0
   10.5107   60.8609   28.5667 C   0  0  0  0  0  0  0  0  0  0  0  0
   10.3803   60.8038   29.9426 C   0  0  0  0  0  0  0  0  0  0  0  0
   11.3549   61.2845   30.8040 C   0  0  0  0  0  0  0  0  0  0  0  0
   12.4992   61.8373   30.2703 C   0  0  0  0  0  0  0  0  0  0  0  0
    9.1610   60.1857   30.5061 C   0  0  0  0  0  0  0  0  0  0  0  0
    8.3374   60.9343   31.0962 N   0  0  0  0  0  0  0  0  0  0  0  0
    8.9885   58.8732   30.4122 N   0  0  0  0  0  0  0  0  0  0  0  0
    8.5006   61.9039   31.1448 H   0  0  0  0  0  0  0  0  0  0  0  0
    7.5306   60.5496   31.5088 H   0  0  0  0  0  0  0  0  0  0  0  0
    9.6550   58.3214   29.9426 H   0  0  0  0  0  0  0  0  0  0  0  0
 17 18  2  0  0  0
 17 15  1  0  0  0
 18 12  1  0  0  0
 16 15  1  0  0  0
 15 14  2  0  0  0
  9 10  2  0  0  0
 12 10  1  0  0  0
 12 13  2  0  0  0
 10 11  2  0  0  0
 10  7  1  0  0  0
 14 13  1  0  0  0
  7  1  1  0  0  0
  1  3  2  0  0  0
  1  2  1  0  0  0
 19  2  1  0  0  0
 19 20  1  0  0  0
 25 20  2  0  0  0
 25 24  1  0  0  0
  3  4  1  0  0  0
  2  6  2  0  0  0
 20 21  1  0  0  0
 24 23  2  0  0  0
  4  5  2  0  0  0
 21 22  2  0  0  0
  6  5  1  0  0  0
 23 22  1  0  0  0
 23 26  1  0  0  0
 27 26  2  0  0  0
  5 32  1  0  0  0
 26 28  1  0  0  0
 34 35  2  0  0  0
 34 33  1  0  0  0
 32 33  1  0  0  0
 35 36  1  0  0  0
 33 38  2  0  0  0
 36 39  1  0  0  0
 36 37  2  0  0  0
 38 37  1  0  0  0
 41 39  2  0  0  0
 39 40  1  0  0  0
  7  8  1  0  0  0
 27 29  1  0  0  0
 28 30  1  0  0  0
 28 31  1  0  0  0
 40 42  1  0  0  0
 40 43  1  0  0  0
 41 44  1  0  0  0
M  END
> <minimizedAffinity>
-10.12962

$$$$
4JZ1_F4D_A_900


 44 47  0  0  0  0  0  0  0  0999 V2000
   16.2715   63.0143   26.3578 C   0  0  0  0  0  0  0  0  0  0  0  0
   15.2812   63.0163   25.4397 C   0  0  0  0  0  0  0  0  0  0  0  0
   16.0415   63.3566   27.6970 C   0  0  0  0  0  0  0  0  0  0  0  0
   14.7605   63.5593   28.1222 C   0  0  0  0  0  0  0  0  0  0  0  0
   13.7657   63.4984   27.1666 C   0  0  0  0  0  0  0  0  0  0  0  0
   14.0298   63.2240   25.8680 N   0  0  0  0  0  0  0  0  0  0  0  0
   17.5310   63.0975   26.0324 N   0  0  0  0  0  0  0  0  0  0  0  0
   17.5569   63.8117   25.3553 H   0  0  0  0  0  0  0  0  0  0  0  0
   20.0574   63.0438   27.0328 O   0  0  0  0  0  0  0  0  0  0  0  0
   18.9765   62.6590   26.1616 S   0  0  0  0  0  0  0  0  0  0  0  0
   19.2679   63.4908   25.0570 O   0  0  0  0  0  0  0  0  0  0  0  0
   18.9927   61.2094   25.4673 C   0  0  0  0  0  0  0  0  0  0  0  0
   19.6444   60.1695   26.1458 C   0  0  0  0  0  0  0  0  0  0  0  0
   19.7431   58.9008   25.5982 C   0  0  0  0  0  0  0  0  0  0  0  0
   19.1876   58.6473   24.3623 C   0  0  0  0  0  0  0  0  0  0  0  0
   19.2922   57.4030   23.8407 F   0  0  0  0  0  0  0  0  0  0  0  0
   18.5437   59.6699   23.6695 C   0  0  0  0  0  0  0  0  0  0  0  0
   18.4532   60.9500   24.2203 C   0  0  0  0  0  0  0  0  0  0  0  0
   15.5823   62.7721   24.1365 O   0  0  0  0  0  0  0  0  0  0  0  0
   15.7891   63.8551   23.3218 C   0  0  0  0  0  0  0  0  0  0  0  0
   16.9190   63.8625   22.5200 C   0  0  0  0  0  0  0  0  0  0  0  0
   17.1645   64.9374   21.6879 C   0  0  0  0  0  0  0  0  0  0  0  0
   16.2945   66.0237   21.6545 C   0  0  0  0  0  0  0  0  0  0  0  0
   15.1514   66.0187   22.4563 C   0  0  0  0  0  0  0  0  0  0  0  0
   14.8992   64.9265   23.2882 C   0  0  0  0  0  0  0  0  0  0  0  0
   16.5851   67.1883   20.7601 C   0  0  0  0  0  0  0  0  0  0  0  0
   17.7578   67.6379   20.6813 N   0  0  0  0  0  0  0  0  0  0  0  0
   15.6288   67.7375   20.0251 N   0  0  0  0  0  0  0  0  0  0  0  0
   18.4760   67.2375   21.2227 H   0  0  0  0  0  0  0  0  0  0  0  0
   14.7078   67.3937   20.0789 H   0  0  0  0  0  0  0  0  0  0  0  0
   15.8394   68.4892   19.4253 H   0  0  0  0  0  0  0  0  0  0  0  0
   12.4681   63.6123   27.5346 O   0  0  0  0  0  0  0  0  0  0  0  0
   11.7302   62.7761   28.2618 C   0  0  0  0  0  0  0  0  0  0  0  0
   11.3462   61.5376   27.7748 C   0  0  0  0  0  0  0  0  0  0  0  0
   10.6115   60.7195   28.5971 C   0  0  0  0  0  0  0  0  0  0  0  0
   10.2873   61.1577   29.8685 C   0  0  0  0  0  0  0  0  0  0  0  0
   10.6763   62.3983   30.3508 C   0  0  0  0  0  0  0  0  0  0  0  0
   11.4173   63.2258   29.5347 C   0  0  0  0  0  0  0  0  0  0  0  0
    9.5144   60.2528   30.7459 C   0  0  0  0  0  0  0  0  0  0  0  0
    9.2405   60.6493   31.9098 N   0  0  0  0  0  0  0  0  0  0  0  0
    9.1697   59.0494   30.3052 N   0  0  0  0  0  0  0  0  0  0  0  0
    9.5133   61.5496   32.2000 H   0  0  0  0  0  0  0  0  0  0  0  0
    8.7535   60.0590   32.5291 H   0  0  0  0  0  0  0  0  0  0  0  0
    9.4019   58.7758   29.3884 H   0  0  0  0  0  0  0  0  0  0  0  0
 17 18  2  0  0  0
 17 15  1  0  0  0
 18 12  1  0  0  0
 16 15  1  0  0  0
 15 14  2  0  0  0
  9 10  2  0  0  0
 12 10  1  0  0  0
 12 13  2  0  0  0
 10 11  2  0  0  0
 10  7  1  0  0  0
 14 13  1  0  0  0
  7  1  1  0  0  0
  1  3  2  0  0  0
  1  2  1  0  0  0
 19  2  1  0  0  0
 19 20  1  0  0  0
 25 20  2  0  0  0
 25 24  1  0  0  0
  3  4  1  0  0  0
  2  6  2  0  0  0
 20 21  1  0  0  0
 24 23  2  0  0  0
  4  5  2  0  0  0
 21 22  2  0  0  0
  6  5  1  0  0  0
 23 22  1  0  0  0
 23 26  1  0  0  0
 27 26  2  0  0  0
  5 32  1  0  0  0
 26 28  1  0  0  0
 34 35  2  0  0  0
 34 33  1  0  0  0
 32 33  1  0  0  0
 35 36  1  0  0  0
 33 38  2  0  0  0
 36 39  1  0  0  0
 36 37  2  0  0  0
 38 37  1  0  0  0
 41 39  2  0  0  0
 39 40  1  0  0  0
  7  8  1  0  0  0
 27 29  1  0  0  0
 28 30  1  0  0  0
 28 31  1  0  0  0
 40 42  1  0  0  0
 40 43  1  0  0  0
 41 44  1  0  0  0
M  END
> <minimizedAffinity>
-9.94336

$$$$
4JZ1_F4D_A_900


 44 47  0  0  0  0  0  0  0  0999 V2000
   16.5630   64.1250   23.3106 C   0  0  0  0  0  0  0  0  0  0  0  0
   16.8806   62.8917   23.7596 C   0  0  0  0  0  0  0  0  0  0  0  0
   15.4367   64.8162   23.7766 C   0  0  0  0  0  0  0  0  0  0  0  0
   14.7183   64.2966   24.8143 C   0  0  0  0  0  0  0  0  0  0  0  0
   15.1054   63.0582   25.2867 C   0  0  0  0  0  0  0  0  0  0  0  0
   16.1638   62.3896   24.7728 N   0  0  0  0  0  0  0  0  0  0  0  0
   16.9987   64.5926   22.1745 N   0  0  0  0  0  0  0  0  0  0  0  0
   17.7608   65.1626   22.4265 H   0  0  0  0  0  0  0  0  0  0  0  0
   16.2136   63.9936   19.6425 O   0  0  0  0  0  0  0  0  0  0  0  0
   16.9342   64.7092   20.6644 S   0  0  0  0  0  0  0  0  0  0  0  0
   18.1582   64.0048   20.6147 O   0  0  0  0  0  0  0  0  0  0  0  0
   17.4324   66.2111   20.3819 C   0  0  0  0  0  0  0  0  0  0  0  0
   18.0773   66.4650   19.1628 C   0  0  0  0  0  0  0  0  0  0  0  0
   18.5768   67.7208   18.8584 C   0  0  0  0  0  0  0  0  0  0  0  0
   18.4365   68.7482   19.7668 C   0  0  0  0  0  0  0  0  0  0  0  0
   18.9296   69.9692   19.4549 F   0  0  0  0  0  0  0  0  0  0  0  0
   17.8063   68.5129   20.9865 C   0  0  0  0  0  0  0  0  0  0  0  0
   17.3113   67.2438   21.2941 C   0  0  0  0  0  0  0  0  0  0  0  0
   17.9278   62.2295   23.1996 O   0  0  0  0  0  0  0  0  0  0  0  0
   18.4467   61.1662   23.8921 C   0  0  0  0  0  0  0  0  0  0  0  0
   19.1196   61.4235   25.0755 C   0  0  0  0  0  0  0  0  0  0  0  0
   19.6598   60.3791   25.8003 C   0  0  0  0  0  0  0  0  0  0  0  0
   19.5479   59.0673   25.3481 C   0  0  0  0  0  0  0  0  0  0  0  0
   18.8659   58.8019   24.1590 C   0  0  0  0  0  0  0  0  0  0  0  0
   18.3109   59.8576   23.4337 C   0  0  0  0  0  0  0  0  0  0  0  0
   20.1548   57.9491   26.1368 C   0  0  0  0  0  0  0  0  0  0  0  0
   20.1046   56.7726   25.6928 N   0  0  0  0  0  0  0  0  0  0  0  0
   20.7717   58.1832   27.2861 N   0  0  0  0  0  0  0  0  0  0  0  0
   19.6488   56.5873   24.8401 H   0  0  0  0  0  0  0  0  0  0  0  0
   20.8169   59.0997   27.6428 H   0  0  0  0  0  0  0  0  0  0  0  0
   21.1847   57.4405   27.7832 H   0  0  0  0  0  0  0  0  0  0  0  0
   14.4853   62.5225   26.3640 O   0  0  0  0  0  0  0  0  0  0  0  0
   13.5260   63.0490   27.1224 C   0  0  0  0  0  0  0  0  0  0  0  0
   13.7218   64.2267   27.8247 C   0  0  0  0  0  0  0  0  0  0  0  0
   12.6737   64.7221   28.5604 C   0  0  0  0  0  0  0  0  0  0  0  0
   11.4735   64.0345   28.5711 C   0  0  0  0  0  0  0  0  0  0  0  0
   11.2833   62.8567   27.8643 C   0  0  0  0  0  0  0  0  0  0  0  0
   12.3279   62.3526   27.1196 C   0  0  0  0  0  0  0  0  0  0  0  0
   10.3507   64.5964   29.3519 C   0  0  0  0  0  0  0  0  0  0  0  0
   10.1071   65.8268   29.2358 N   0  0  0  0  0  0  0  0  0  0  0  0
    9.6653   63.8102   30.1726 N   0  0  0  0  0  0  0  0  0  0  0  0
   10.6381   66.3774   28.6160 H   0  0  0  0  0  0  0  0  0  0  0  0
    9.3859   66.2379   29.7650 H   0  0  0  0  0  0  0  0  0  0  0  0
    9.8857   62.8527   30.2355 H   0  0  0  0  0  0  0  0  0  0  0  0
 17 18  2  0  0  0
 17 15  1  0  0  0
 18 12  1  0  0  0
 16 15  1  0  0  0
 15 14  2  0  0  0
  9 10  2  0  0  0
 12 10  1  0  0  0
 12 13  2  0  0  0
 10 11  2  0  0  0
 10  7  1  0  0  0
 14 13  1  0  0  0
  7  1  1  0  0  0
  1  3  2  0  0  0
  1  2  1  0  0  0
 19  2  1  0  0  0
 19 20  1  0  0  0
 25 20  2  0  0  0
 25 24  1  0  0  0
  3  4  1  0  0  0
  2  6  2  0  0  0
 20 21  1  0  0  0
 24 23  2  0  0  0
  4  5  2  0  0  0
 21 22  2  0  0  0
  6  5  1  0  0  0
 23 22  1  0  0  0
 23 26  1  0  0  0
 27 26  2  0  0  0
  5 32  1  0  0  0
 26 28  1  0  0  0
 34 35  2  0  0  0
 34 33  1  0  0  0
 32 33  1  0  0  0
 35 36  1  0  0  0
 33 38  2  0  0  0
 36 39  1  0  0  0
 36 37  2  0  0  0
 38 37  1  0  0  0
 41 39  2  0  0  0
 39 40  1  0  0  0
  7  8  1  0  0  0
 27 29  1  0  0  0
 28 30  1  0  0  0
 28 31  1  0  0  0
 40 42  1  0  0  0
 40 43  1  0  0  0
 41 44  1  0  0  0
M  END
> <minimizedAffinity>
-9.90845

$$$$
4JZ1_F4D_A_900


 44 47  0  0  0  0  0  0  0  0999 V2000
   13.2136   64.3031   26.9302 C   0  0  0  0  0  0  0  0  0  0  0  0
   13.8485   65.3057   26.2858 C   0  0  0  0  0  0  0  0  0  0  0  0
   13.7171   62.9954   26.9450 C   0  0  0  0  0  0  0  0  0  0  0  0
   14.9525   62.7513   26.4186 C   0  0  0  0  0  0  0  0  0  0  0  0
   15.5984   63.8128   25.8166 C   0  0  0  0  0  0  0  0  0  0  0  0
   15.0563   65.0518   25.7670 N   0  0  0  0  0  0  0  0  0  0  0  0
   11.9453   64.3510   27.2271 N   0  0  0  0  0  0  0  0  0  0  0  0
   11.4922   64.1551   26.3753 H   0  0  0  0  0  0  0  0  0  0  0  0
    9.7860   65.5571   28.3537 O   0  0  0  0  0  0  0  0  0  0  0  0
   10.8098   64.5536   28.2110 S   0  0  0  0  0  0  0  0  0  0  0  0
   11.7629   65.0712   29.1168 O   0  0  0  0  0  0  0  0  0  0  0  0
   10.5735   63.0848   28.8196 C   0  0  0  0  0  0  0  0  0  0  0  0
   10.3740   62.9775   30.2035 C   0  0  0  0  0  0  0  0  0  0  0  0
   10.2070   61.7459   30.8153 C   0  0  0  0  0  0  0  0  0  0  0  0
   10.2320   60.5977   30.0528 C   0  0  0  0  0  0  0  0  0  0  0  0
   10.0673   59.4020   30.6649 F   0  0  0  0  0  0  0  0  0  0  0  0
   10.4375   60.6837   28.6779 C   0  0  0  0  0  0  0  0  0  0  0  0
   10.6141   61.9262   28.0651 C   0  0  0  0  0  0  0  0  0  0  0  0
   13.2626   66.5310   26.2220 O   0  0  0  0  0  0  0  0  0  0  0  0
   12.4544   66.7900   25.1454 C   0  0  0  0  0  0  0  0  0  0  0  0
   11.2402   67.4160   25.3761 C   0  0  0  0  0  0  0  0  0  0  0  0
   10.3963   67.6909   24.3176 C   0  0  0  0  0  0  0  0  0  0  0  0
   10.7459   67.3334   23.0184 C   0  0  0  0  0  0  0  0  0  0  0  0
   11.9710   66.7074   22.7797 C   0  0  0  0  0  0  0  0  0  0  0  0
   12.8273   66.4406   23.8492 C   0  0  0  0  0  0  0  0  0  0  0  0
    9.8117   67.6227   21.8852 C   0  0  0  0  0  0  0  0  0  0  0  0
    8.6618   68.0753   22.1237 N   0  0  0  0  0  0  0  0  0  0  0  0
   10.1878   67.4363   20.6282 N   0  0  0  0  0  0  0  0  0  0  0  0
    8.3720   68.2176   23.0538 H   0  0  0  0  0  0  0  0  0  0  0  0
   11.0850   67.0828   20.4301 H   0  0  0  0  0  0  0  0  0  0  0  0
    9.5699   67.6514   19.8925 H   0  0  0  0  0  0  0  0  0  0  0  0
   16.8577   63.6575   25.3451 O   0  0  0  0  0  0  0  0  0  0  0  0
   17.5974   62.5520   25.2885 C   0  0  0  0  0  0  0  0  0  0  0  0
   18.5422   62.2618   26.2589 C   0  0  0  0  0  0  0  0  0  0  0  0
   19.2438   61.0868   26.1468 C   0  0  0  0  0  0  0  0  0  0  0  0
   18.9820   60.2449   25.0809 C   0  0  0  0  0  0  0  0  0  0  0  0
   18.0334   60.5404   24.1135 C   0  0  0  0  0  0  0  0  0  0  0  0
   17.3210   61.7156   24.2187 C   0  0  0  0  0  0  0  0  0  0  0  0
   19.7328   58.9744   24.9904 C   0  0  0  0  0  0  0  0  0  0  0  0
   20.3338   58.5682   26.0203 N   0  0  0  0  0  0  0  0  0  0  0  0
   19.7864   58.3261   23.8337 N   0  0  0  0  0  0  0  0  0  0  0  0
   20.2697   59.0772   26.8606 H   0  0  0  0  0  0  0  0  0  0  0  0
   20.8676   57.7417   25.9849 H   0  0  0  0  0  0  0  0  0  0  0  0
   19.3027   58.6755   23.0506 H   0  0  0  0  0  0  0  0  0  0  0  0
 17 18  2  0  0  0
 17 15  1  0  0  0
 18 12  1  0  0  0
 16 15  1  0  0  0
 15 14  2  0  0  0
  9 10  2  0  0  0
 12 10  1  0  0  0
 12 13  2  0  0  0
 10 11  2  0  0  0
 10  7  1  0  0  0
 14 13  1  0  0  0
  7  1  1  0  0  0
  1  3  2  0  0  0
  1  2  1  0  0  0
 19  2  1  0  0  0
 19 20  1  0  0  0
 25 20  2  0  0  0
 25 24  1  0  0  0
  3  4  1  0  0  0
  2  6  2  0  0  0
 20 21  1  0  0  0
 24 23  2  0  0  0
  4  5  2  0  0  0
 21 22  2  0  0  0
  6  5  1  0  0  0
 23 22  1  0  0  0
 23 26  1  0  0  0
 27 26  2  0  0  0
  5 32  1  0  0  0
 26 28  1  0  0  0
 34 35  2  0  0  0
 34 33  1  0  0  0
 32 33  1  0  0  0
 35 36  1  0  0  0
 33 38  2  0  0  0
 36 39  1  0  0  0
 36 37  2  0  0  0
 38 37  1  0  0  0
 41 39  2  0  0  0
 39 40  1  0  0  0
  7  8  1  0  0  0
 27 29  1  0  0  0
 28 30  1  0  0  0
 28 31  1  0  0  0
 40 42  1  0  0  0
 40 43  1  0  0  0
 41 44  1  0  0  0
M  END
> <minimizedAffinity>
-9.67921

$$$$
4JZ1_F4D_A_900


 44 47  0  0  0  0  0  0  0  0999 V2000
   12.0506   67.9984   22.1737 C   0  0  0  0  0  0  0  0  0  0  0  0
   12.8077   66.8836   22.0872 C   0  0  0  0  0  0  0  0  0  0  0  0
   11.5323   68.4496   23.3950 C   0  0  0  0  0  0  0  0  0  0  0  0
   11.9166   67.8327   24.5503 C   0  0  0  0  0  0  0  0  0  0  0  0
   12.7372   66.7290   24.4287 C   0  0  0  0  0  0  0  0  0  0  0  0
   13.1718   66.2831   23.2271 N   0  0  0  0  0  0  0  0  0  0  0  0
   11.4183   68.4992   21.1497 N   0  0  0  0  0  0  0  0  0  0  0  0
   10.7286   67.8280   20.9423 H   0  0  0  0  0  0  0  0  0  0  0  0
   10.3620   70.7557   20.0639 O   0  0  0  0  0  0  0  0  0  0  0  0
   11.1999   69.5848   20.1143 S   0  0  0  0  0  0  0  0  0  0  0  0
   10.3649   68.6782   19.4231 O   0  0  0  0  0  0  0  0  0  0  0  0
   12.5318   69.5213   19.2168 C   0  0  0  0  0  0  0  0  0  0  0  0
   13.6005   70.3547   19.5773 C   0  0  0  0  0  0  0  0  0  0  0  0
   14.7678   70.3946   18.8323 C   0  0  0  0  0  0  0  0  0  0  0  0
   14.8897   69.5975   17.7141 C   0  0  0  0  0  0  0  0  0  0  0  0
   16.0361   69.6475   16.9968 F   0  0  0  0  0  0  0  0  0  0  0  0
   13.8355   68.7695   17.3356 C   0  0  0  0  0  0  0  0  0  0  0  0
   12.6567   68.7378   18.0837 C   0  0  0  0  0  0  0  0  0  0  0  0
   13.1999   66.4396   20.8634 O   0  0  0  0  0  0  0  0  0  0  0  0
   14.4881   66.7058   20.4772 C   0  0  0  0  0  0  0  0  0  0  0  0
   14.9807   66.0576   19.3562 C   0  0  0  0  0  0  0  0  0  0  0  0
   16.2751   66.2965   18.9373 C   0  0  0  0  0  0  0  0  0  0  0  0
   17.0986   67.1735   19.6378 C   0  0  0  0  0  0  0  0  0  0  0  0
   16.6052   67.8336   20.7649 C   0  0  0  0  0  0  0  0  0  0  0  0
   15.2932   67.5995   21.1801 C   0  0  0  0  0  0  0  0  0  0  0  0
   18.5046   67.4072   19.1803 C   0  0  0  0  0  0  0  0  0  0  0  0
   19.0662   66.5649   18.4327 N   0  0  0  0  0  0  0  0  0  0  0  0
   19.1600   68.5053   19.5279 N   0  0  0  0  0  0  0  0  0  0  0  0
   18.5886   65.7456   18.1683 H   0  0  0  0  0  0  0  0  0  0  0  0
   18.7302   69.1709   20.1122 H   0  0  0  0  0  0  0  0  0  0  0  0
   20.0767   68.6554   19.2017 H   0  0  0  0  0  0  0  0  0  0  0  0
   13.2177   66.1194   25.5375 O   0  0  0  0  0  0  0  0  0  0  0  0
   12.6458   65.1798   26.2877 C   0  0  0  0  0  0  0  0  0  0  0  0
   11.4084   65.3774   26.8779 C   0  0  0  0  0  0  0  0  0  0  0  0
   10.8710   64.3488   27.6119 C   0  0  0  0  0  0  0  0  0  0  0  0
   11.5776   63.1657   27.7315 C   0  0  0  0  0  0  0  0  0  0  0  0
   12.8154   62.9735   27.1367 C   0  0  0  0  0  0  0  0  0  0  0  0
   13.3622   63.9984   26.3947 C   0  0  0  0  0  0  0  0  0  0  0  0
   10.9716   62.0628   28.5079 C   0  0  0  0  0  0  0  0  0  0  0  0
    9.7777   61.7492   28.2565 N   0  0  0  0  0  0  0  0  0  0  0  0
   11.6771   61.4685   29.4620 N   0  0  0  0  0  0  0  0  0  0  0  0
    9.2872   62.2136   27.5403 H   0  0  0  0  0  0  0  0  0  0  0  0
    9.3352   61.0398   28.7763 H   0  0  0  0  0  0  0  0  0  0  0  0
   12.6081   61.7418   29.6285 H   0  0  0  0  0  0  0  0  0  0  0  0
 17 18  2  0  0  0
 17 15  1  0  0  0
 18 12  1  0  0  0
 16 15  1  0  0  0
 15 14  2  0  0  0
  9 10  2  0  0  0
 12 10  1  0  0  0
 12 13  2  0  0  0
 10 11  2  0  0  0
 10  7  1  0  0  0
 14 13  1  0  0  0
  7  1  1  0  0  0
  1  3  2  0  0  0
  1  2  1  0  0  0
 19  2  1  0  0  0
 19 20  1  0  0  0
 25 20  2  0  0  0
 25 24  1  0  0  0
  3  4  1  0  0  0
  2  6  2  0  0  0
 20 21  1  0  0  0
 24 23  2  0  0  0
  4  5  2  0  0  0
 21 22  2  0  0  0
  6  5  1  0  0  0
 23 22  1  0  0  0
 23 26  1  0  0  0
 27 26  2  0  0  0
  5 32  1  0  0  0
 26 28  1  0  0  0
 34 35  2  0  0  0
 34 33  1  0  0  0
 32 33  1  0  0  0
 35 36  1  0  0  0
 33 38  2  0  0  0
 36 39  1  0  0  0
 36 37  2  0  0  0
 38 37  1  0  0  0
 41 39  2  0  0  0
 39 40  1  0  0  0
  7  8  1  0  0  0
 27 29  1  0  0  0
 28 30  1  0  0  0
 28 31  1  0  0  0
 40 42  1  0  0  0
 40 43  1  0  0  0
 41 44  1  0  0  0
M  END
> <minimizedAffinity>
-9.49197

$$$$
