4GFO_0X2_A_1206


 19 20  0  0  0  0  0  0  0  0999 V2000
   13.2992  -12.6162   24.3223 C   0  0  0  0  0  0  0  0  0  0  0  0
   14.0165  -13.1091   23.2987 N   0  0  0  0  0  0  0  0  0  0  0  0
   12.1398  -12.2367   24.2354 O   0  0  0  0  0  0  0  0  0  0  0  0
   14.9581  -13.3299   23.4828 H   0  0  0  0  0  0  0  0  0  0  0  0
   13.9178  -12.4745   25.6807 C   0  0  0  0  0  0  0  0  0  0  0  0
   14.2577  -11.2113   26.1450 C   0  0  0  0  0  0  0  0  0  0  0  0
   14.7652  -11.0428   27.4353 C   0  0  0  0  0  0  0  0  0  0  0  0
   14.0251  -13.5730   26.5334 C   0  0  0  0  0  0  0  0  0  0  0  0
   13.5693  -15.2098   25.9680 Cl  0  0  0  0  0  0  0  0  0  0  0  0
   14.5273  -13.4166   27.8283 C   0  0  0  0  0  0  0  0  0  0  0  0
   14.0653   -9.8070   25.0569 Cl  0  0  0  0  0  0  0  0  0  0  0  0
   14.8986  -12.1488   28.2776 C   0  0  0  0  0  0  0  0  0  0  0  0
   12.2202  -14.5330   20.3264 C   0  0  0  0  0  0  0  0  0  0  0  0
   13.5528  -13.3424   21.9818 C   0  0  0  0  0  0  0  0  0  0  0  0
   14.1449  -12.6256   20.9274 C   0  0  0  0  0  0  0  0  0  0  0  0
   13.7464  -12.8777   19.5985 C   0  0  0  0  0  0  0  0  0  0  0  0
   12.5804  -14.3093   21.6608 C   0  0  0  0  0  0  0  0  0  0  0  0
   12.8046  -13.8069   19.3301 N   0  0  0  0  0  0  0  0  0  0  0  0
   11.3721  -15.4164   20.0634 O   0  0  0  0  0  0  0  0  0  0  0  0
 16 18  2  0  0  0
 16 15  1  0  0  0
 11  6  1  0  0  0
 18 13  1  0  0  0
 15 14  1  0  0  0
 13 19  2  0  0  0
 13 17  1  0  0  0
 14 17  2  0  0  0
 14  2  1  0  0  0
  6  7  2  0  0  0
  6  5  1  0  0  0
  2  1  1  0  0  0
  7 12  1  0  0  0
  1  3  2  0  0  0
  1  5  1  0  0  0
  5  8  2  0  0  0
 12 10  2  0  0  0
  8 10  1  0  0  0
  8  9  1  0  0  0
  2  4  1  0  0  0
M  END
> <minimizedAffinity>
-8.41170

$$$$
4GFO_0X2_A_1206


 19 20  0  0  0  0  0  0  0  0999 V2000
   13.2209  -12.4791   24.0890 C   0  0  0  0  0  0  0  0  0  0  0  0
   14.0385  -12.7636   23.0614 N   0  0  0  0  0  0  0  0  0  0  0  0
   12.0491  -12.1495   23.9701 O   0  0  0  0  0  0  0  0  0  0  0  0
   14.9766  -12.9634   23.2835 H   0  0  0  0  0  0  0  0  0  0  0  0
   13.7313  -12.5273   25.4979 C   0  0  0  0  0  0  0  0  0  0  0  0
   13.8731  -13.7557   26.1285 C   0  0  0  0  0  0  0  0  0  0  0  0
   14.4170  -13.8352   27.4125 C   0  0  0  0  0  0  0  0  0  0  0  0
   14.1952  -11.3727   26.1280 C   0  0  0  0  0  0  0  0  0  0  0  0
   14.0479   -9.7784   25.3260 Cl  0  0  0  0  0  0  0  0  0  0  0  0
   14.7455  -11.4398   27.4110 C   0  0  0  0  0  0  0  0  0  0  0  0
   13.3210  -15.2315   25.2858 Cl  0  0  0  0  0  0  0  0  0  0  0  0
   14.8545  -12.6738   28.0531 C   0  0  0  0  0  0  0  0  0  0  0  0
   13.1097  -11.7670   19.5639 C   0  0  0  0  0  0  0  0  0  0  0  0
   13.6851  -12.8045   21.6914 C   0  0  0  0  0  0  0  0  0  0  0  0
   13.4018  -14.0531   21.1107 C   0  0  0  0  0  0  0  0  0  0  0  0
   12.9898  -14.1217   19.7639 C   0  0  0  0  0  0  0  0  0  0  0  0
   13.5290  -11.6535   20.8950 C   0  0  0  0  0  0  0  0  0  0  0  0
   12.8592  -12.9969   19.0290 N   0  0  0  0  0  0  0  0  0  0  0  0
   12.9527  -10.7275   18.8831 O   0  0  0  0  0  0  0  0  0  0  0  0
 16 18  2  0  0  0
 16 15  1  0  0  0
 11  6  1  0  0  0
 18 13  1  0  0  0
 15 14  1  0  0  0
 13 19  2  0  0  0
 13 17  1  0  0  0
 14 17  2  0  0  0
 14  2  1  0  0  0
  6  7  2  0  0  0
  6  5  1  0  0  0
  2  1  1  0  0  0
  7 12  1  0  0  0
  1  3  2  0  0  0
  1  5  1  0  0  0
  5  8  2  0  0  0
 12 10  2  0  0  0
  8 10  1  0  0  0
  8  9  1  0  0  0
  2  4  1  0  0  0
M  END
> <minimizedAffinity>
-8.29648

$$$$
4GFO_0X2_A_1206


 19 20  0  0  0  0  0  0  0  0999 V2000
   13.3788  -12.6037   24.2424 C   0  0  0  0  0  0  0  0  0  0  0  0
   14.2397  -12.4842   23.2178 N   0  0  0  0  0  0  0  0  0  0  0  0
   12.2315  -12.1800   24.2352 O   0  0  0  0  0  0  0  0  0  0  0  0
   15.1539  -12.8184   23.3656 H   0  0  0  0  0  0  0  0  0  0  0  0
   13.8060  -13.2695   25.5160 C   0  0  0  0  0  0  0  0  0  0  0  0
   13.7668  -14.6541   25.6061 C   0  0  0  0  0  0  0  0  0  0  0  0
   14.2300  -15.3035   26.7527 C   0  0  0  0  0  0  0  0  0  0  0  0
   14.3714  -12.5281   26.5533 C   0  0  0  0  0  0  0  0  0  0  0  0
   14.4578  -10.7424   26.4513 Cl  0  0  0  0  0  0  0  0  0  0  0  0
   14.8425  -13.1667   27.7038 C   0  0  0  0  0  0  0  0  0  0  0  0
   13.0865  -15.5924   24.2461 Cl  0  0  0  0  0  0  0  0  0  0  0  0
   14.7695  -14.5567   27.8022 C   0  0  0  0  0  0  0  0  0  0  0  0
   13.1595  -12.0421   19.6504 C   0  0  0  0  0  0  0  0  0  0  0  0
   13.9629  -11.9254   21.9471 C   0  0  0  0  0  0  0  0  0  0  0  0
   14.3986  -10.6151   21.6832 C   0  0  0  0  0  0  0  0  0  0  0  0
   14.1903  -10.0514   20.4076 C   0  0  0  0  0  0  0  0  0  0  0  0
   13.3390  -12.6380   20.9047 C   0  0  0  0  0  0  0  0  0  0  0  0
   13.5809  -10.7624   19.4354 N   0  0  0  0  0  0  0  0  0  0  0  0
   12.6258  -12.7046   18.7312 O   0  0  0  0  0  0  0  0  0  0  0  0
 16 18  2  0  0  0
 16 15  1  0  0  0
 11  6  1  0  0  0
 18 13  1  0  0  0
 15 14  1  0  0  0
 13 19  2  0  0  0
 13 17  1  0  0  0
 14 17  2  0  0  0
 14  2  1  0  0  0
  6  7  2  0  0  0
  6  5  1  0  0  0
  2  1  1  0  0  0
  7 12  1  0  0  0
  1  3  2  0  0  0
  1  5  1  0  0  0
  5  8  2  0  0  0
 12 10  2  0  0  0
  8 10  1  0  0  0
  8  9  1  0  0  0
  2  4  1  0  0  0
M  END
> <minimizedAffinity>
-8.14374

$$$$
4GFO_0X2_A_1206


 19 20  0  0  0  0  0  0  0  0999 V2000
   13.4756  -12.3165   24.2874 C   0  0  0  0  0  0  0  0  0  0  0  0
   14.3177  -12.1661   23.2513 N   0  0  0  0  0  0  0  0  0  0  0  0
   12.2856  -12.0360   24.2583 O   0  0  0  0  0  0  0  0  0  0  0  0
   15.2653  -12.3764   23.4160 H   0  0  0  0  0  0  0  0  0  0  0  0
   13.9779  -12.8349   25.6016 C   0  0  0  0  0  0  0  0  0  0  0  0
   14.4278  -11.9372   26.5599 C   0  0  0  0  0  0  0  0  0  0  0  0
   14.8300  -12.3869   27.8196 C   0  0  0  0  0  0  0  0  0  0  0  0
   13.8675  -14.1875   25.9237 C   0  0  0  0  0  0  0  0  0  0  0  0
   13.2659  -15.3631   24.7143 Cl  0  0  0  0  0  0  0  0  0  0  0  0
   14.2624  -14.6491   27.1823 C   0  0  0  0  0  0  0  0  0  0  0  0
   14.5142  -10.2005   26.1481 Cl  0  0  0  0  0  0  0  0  0  0  0  0
   14.7454  -13.7459   28.1300 C   0  0  0  0  0  0  0  0  0  0  0  0
   13.1738  -12.1048   19.6770 C   0  0  0  0  0  0  0  0  0  0  0  0
   13.9778  -11.7355   21.9465 C   0  0  0  0  0  0  0  0  0  0  0  0
   14.2793  -10.4125   21.5791 C   0  0  0  0  0  0  0  0  0  0  0  0
   14.0070   -9.9704   20.2680 C   0  0  0  0  0  0  0  0  0  0  0  0
   13.4205  -12.5831   20.9696 C   0  0  0  0  0  0  0  0  0  0  0  0
   13.4644  -10.8098   19.3606 N   0  0  0  0  0  0  0  0  0  0  0  0
   12.7021  -12.8845   18.8178 O   0  0  0  0  0  0  0  0  0  0  0  0
 16 18  2  0  0  0
 16 15  1  0  0  0
 11  6  1  0  0  0
 18 13  1  0  0  0
 15 14  1  0  0  0
 13 19  2  0  0  0
 13 17  1  0  0  0
 14 17  2  0  0  0
 14  2  1  0  0  0
  6  7  2  0  0  0
  6  5  1  0  0  0
  2  1  1  0  0  0
  7 12  1  0  0  0
  1  3  2  0  0  0
  1  5  1  0  0  0
  5  8  2  0  0  0
 12 10  2  0  0  0
  8 10  1  0  0  0
  8  9  1  0  0  0
  2  4  1  0  0  0
M  END
> <minimizedAffinity>
-8.07404

$$$$
4GFO_0X2_A_1206


 19 20  0  0  0  0  0  0  0  0999 V2000
   13.4267  -12.5837   23.9048 C   0  0  0  0  0  0  0  0  0  0  0  0
   14.3964  -12.2932   23.0214 N   0  0  0  0  0  0  0  0  0  0  0  0
   12.2823  -12.1567   23.8414 O   0  0  0  0  0  0  0  0  0  0  0  0
   15.2921  -12.6550   23.2113 H   0  0  0  0  0  0  0  0  0  0  0  0
   13.7154  -13.4652   25.0826 C   0  0  0  0  0  0  0  0  0  0  0  0
   13.6849  -14.8439   24.9243 C   0  0  0  0  0  0  0  0  0  0  0  0
   14.0235  -15.6873   25.9849 C   0  0  0  0  0  0  0  0  0  0  0  0
   14.1492  -12.9208   26.2913 C   0  0  0  0  0  0  0  0  0  0  0  0
   14.2225  -11.1455   26.5136 Cl  0  0  0  0  0  0  0  0  0  0  0  0
   14.4951  -13.7543   27.3585 C   0  0  0  0  0  0  0  0  0  0  0  0
   13.1762  -15.5248   23.3524 Cl  0  0  0  0  0  0  0  0  0  0  0  0
   14.4301  -15.1395   27.2035 C   0  0  0  0  0  0  0  0  0  0  0  0
   14.4941   -9.4663   20.5541 C   0  0  0  0  0  0  0  0  0  0  0  0
   14.2582  -11.5187   21.8447 C   0  0  0  0  0  0  0  0  0  0  0  0
   13.5503  -12.0682   20.7615 C   0  0  0  0  0  0  0  0  0  0  0  0
   13.3447  -11.2999   19.5972 C   0  0  0  0  0  0  0  0  0  0  0  0
   14.7278  -10.1962   21.7258 C   0  0  0  0  0  0  0  0  0  0  0  0
   13.8170  -10.0379   19.5166 N   0  0  0  0  0  0  0  0  0  0  0  0
   14.8985   -8.2831   20.4817 O   0  0  0  0  0  0  0  0  0  0  0  0
 16 18  2  0  0  0
 16 15  1  0  0  0
 11  6  1  0  0  0
 18 13  1  0  0  0
 15 14  1  0  0  0
 13 19  2  0  0  0
 13 17  1  0  0  0
 14 17  2  0  0  0
 14  2  1  0  0  0
  6  7  2  0  0  0
  6  5  1  0  0  0
  2  1  1  0  0  0
  7 12  1  0  0  0
  1  3  2  0  0  0
  1  5  1  0  0  0
  5  8  2  0  0  0
 12 10  2  0  0  0
  8 10  1  0  0  0
  8  9  1  0  0  0
  2  4  1  0  0  0
M  END
> <minimizedAffinity>
-7.95470

$$$$
4GFO_0X2_A_1206


 19 20  0  0  0  0  0  0  0  0999 V2000
   13.4126  -12.3781   23.5707 C   0  0  0  0  0  0  0  0  0  0  0  0
   14.3429  -12.1006   22.6418 N   0  0  0  0  0  0  0  0  0  0  0  0
   12.2799  -11.9169   23.5750 O   0  0  0  0  0  0  0  0  0  0  0  0
   15.2360  -12.4916   22.7781 H   0  0  0  0  0  0  0  0  0  0  0  0
   13.7363  -13.2883   24.7173 C   0  0  0  0  0  0  0  0  0  0  0  0
   14.0437  -12.7403   25.9551 C   0  0  0  0  0  0  0  0  0  0  0  0
   14.2750  -13.5652   27.0582 C   0  0  0  0  0  0  0  0  0  0  0  0
   13.5955  -14.6703   24.5924 C   0  0  0  0  0  0  0  0  0  0  0  0
   13.1745  -15.4014   23.0128 Cl  0  0  0  0  0  0  0  0  0  0  0  0
   13.8199  -15.5060   25.6899 C   0  0  0  0  0  0  0  0  0  0  0  0
   14.1694  -10.9645   26.1098 Cl  0  0  0  0  0  0  0  0  0  0  0  0
   14.1614  -14.9506   26.9236 C   0  0  0  0  0  0  0  0  0  0  0  0
   14.4650   -9.2623   20.1887 C   0  0  0  0  0  0  0  0  0  0  0  0
   14.1662  -11.3019   21.4866 C   0  0  0  0  0  0  0  0  0  0  0  0
   13.3144  -11.7723   20.4720 C   0  0  0  0  0  0  0  0  0  0  0  0
   13.0715  -10.9738   19.3354 C   0  0  0  0  0  0  0  0  0  0  0  0
   14.7398  -10.0252   21.3302 C   0  0  0  0  0  0  0  0  0  0  0  0
   13.6459   -9.7580   19.2166 N   0  0  0  0  0  0  0  0  0  0  0  0
   14.9657   -8.1191   20.0839 O   0  0  0  0  0  0  0  0  0  0  0  0
 16 18  2  0  0  0
 16 15  1  0  0  0
 11  6  1  0  0  0
 18 13  1  0  0  0
 15 14  1  0  0  0
 13 19  2  0  0  0
 13 17  1  0  0  0
 14 17  2  0  0  0
 14  2  1  0  0  0
  6  7  2  0  0  0
  6  5  1  0  0  0
  2  1  1  0  0  0
  7 12  1  0  0  0
  1  3  2  0  0  0
  1  5  1  0  0  0
  5  8  2  0  0  0
 12 10  2  0  0  0
  8 10  1  0  0  0
  8  9  1  0  0  0
  2  4  1  0  0  0
M  END
> <minimizedAffinity>
-7.78994

$$$$
4GFO_0X2_A_1206


 19 20  0  0  0  0  0  0  0  0999 V2000
   12.8072  -12.1961   21.8696 C   0  0  0  0  0  0  0  0  0  0  0  0
   13.7922  -11.8245   21.0349 N   0  0  0  0  0  0  0  0  0  0  0  0
   11.7386  -11.6119   21.9826 O   0  0  0  0  0  0  0  0  0  0  0  0
   14.6271  -12.3446   21.0750 H   0  0  0  0  0  0  0  0  0  0  0  0
   12.9834  -13.3848   22.7662 C   0  0  0  0  0  0  0  0  0  0  0  0
   12.8904  -14.6615   22.2295 C   0  0  0  0  0  0  0  0  0  0  0  0
   13.1249  -15.7845   23.0262 C   0  0  0  0  0  0  0  0  0  0  0  0
   13.3764  -13.2237   24.0948 C   0  0  0  0  0  0  0  0  0  0  0  0
   13.5290  -11.5869   24.8049 Cl  0  0  0  0  0  0  0  0  0  0  0  0
   13.6183  -14.3395   24.9008 C   0  0  0  0  0  0  0  0  0  0  0  0
   12.4361  -14.8487   20.5115 Cl  0  0  0  0  0  0  0  0  0  0  0  0
   13.4905  -15.6212   24.3641 C   0  0  0  0  0  0  0  0  0  0  0  0
   14.5118   -8.6292   19.2016 C   0  0  0  0  0  0  0  0  0  0  0  0
   13.7487  -10.7595   20.1035 C   0  0  0  0  0  0  0  0  0  0  0  0
   12.7003  -10.7319   19.1674 C   0  0  0  0  0  0  0  0  0  0  0  0
   12.5956   -9.6536   18.2647 C   0  0  0  0  0  0  0  0  0  0  0  0
   14.6579   -9.6839   20.1109 C   0  0  0  0  0  0  0  0  0  0  0  0
   13.4911   -8.6440   18.2963 N   0  0  0  0  0  0  0  0  0  0  0  0
   15.3171   -7.6709   19.2445 O   0  0  0  0  0  0  0  0  0  0  0  0
 16 18  2  0  0  0
 16 15  1  0  0  0
 11  6  1  0  0  0
 18 13  1  0  0  0
 15 14  1  0  0  0
 13 19  2  0  0  0
 13 17  1  0  0  0
 14 17  2  0  0  0
 14  2  1  0  0  0
  6  7  2  0  0  0
  6  5  1  0  0  0
  2  1  1  0  0  0
  7 12  1  0  0  0
  1  3  2  0  0  0
  1  5  1  0  0  0
  5  8  2  0  0  0
 12 10  2  0  0  0
  8 10  1  0  0  0
  8  9  1  0  0  0
  2  4  1  0  0  0
M  END
> <minimizedAffinity>
-7.70616

$$$$
4GFO_0X2_A_1206


 19 20  0  0  0  0  0  0  0  0999 V2000
   12.9268  -12.2331   21.8823 C   0  0  0  0  0  0  0  0  0  0  0  0
   13.8840  -11.8351   21.0276 N   0  0  0  0  0  0  0  0  0  0  0  0
   11.8512  -11.6695   22.0279 O   0  0  0  0  0  0  0  0  0  0  0  0
   14.7288  -12.3404   21.0414 H   0  0  0  0  0  0  0  0  0  0  0  0
   13.1464  -13.4277   22.7613 C   0  0  0  0  0  0  0  0  0  0  0  0
   13.4550  -13.2387   24.1014 C   0  0  0  0  0  0  0  0  0  0  0  0
   13.5902  -14.3327   24.9592 C   0  0  0  0  0  0  0  0  0  0  0  0
   12.9075  -14.7168   22.2853 C   0  0  0  0  0  0  0  0  0  0  0  0
   12.4827  -14.9863   20.5668 Cl  0  0  0  0  0  0  0  0  0  0  0  0
   13.0352  -15.8192   23.1349 C   0  0  0  0  0  0  0  0  0  0  0  0
   13.7072  -11.5765   24.7068 Cl  0  0  0  0  0  0  0  0  0  0  0  0
   13.3785  -15.6248   24.4733 C   0  0  0  0  0  0  0  0  0  0  0  0
   14.5104   -8.6153   19.2030 C   0  0  0  0  0  0  0  0  0  0  0  0
   13.7985  -10.7614   20.1092 C   0  0  0  0  0  0  0  0  0  0  0  0
   12.7178  -10.7345   19.2104 C   0  0  0  0  0  0  0  0  0  0  0  0
   12.5720   -9.6484   18.3229 C   0  0  0  0  0  0  0  0  0  0  0  0
   14.6976   -9.6774   20.0959 C   0  0  0  0  0  0  0  0  0  0  0  0
   13.4589   -8.6308   18.3337 N   0  0  0  0  0  0  0  0  0  0  0  0
   15.3079   -7.6499   19.2276 O   0  0  0  0  0  0  0  0  0  0  0  0
 16 18  2  0  0  0
 16 15  1  0  0  0
 11  6  1  0  0  0
 18 13  1  0  0  0
 15 14  1  0  0  0
 13 19  2  0  0  0
 13 17  1  0  0  0
 14 17  2  0  0  0
 14  2  1  0  0  0
  6  7  2  0  0  0
  6  5  1  0  0  0
  2  1  1  0  0  0
  7 12  1  0  0  0
  1  3  2  0  0  0
  1  5  1  0  0  0
  5  8  2  0  0  0
 12 10  2  0  0  0
  8 10  1  0  0  0
  8  9  1  0  0  0
  2  4  1  0  0  0
M  END
> <minimizedAffinity>
-7.63918

$$$$
4GFO_0X2_A_1206


 19 20  0  0  0  0  0  0  0  0999 V2000
   13.3734  -12.0260   24.6731 C   0  0  0  0  0  0  0  0  0  0  0  0
   14.1735  -12.7673   23.8887 N   0  0  0  0  0  0  0  0  0  0  0  0
   12.1681  -12.1972   24.7907 O   0  0  0  0  0  0  0  0  0  0  0  0
   15.1185  -12.4960   23.8368 H   0  0  0  0  0  0  0  0  0  0  0  0
   13.9360  -10.8814   25.4614 C   0  0  0  0  0  0  0  0  0  0  0  0
   14.4467  -11.1155   26.7307 C   0  0  0  0  0  0  0  0  0  0  0  0
   15.0449  -10.0826   27.4560 C   0  0  0  0  0  0  0  0  0  0  0  0
   14.0801   -9.6202   24.8834 C   0  0  0  0  0  0  0  0  0  0  0  0
   13.4531   -9.2984   23.2372 Cl  0  0  0  0  0  0  0  0  0  0  0  0
   14.6809   -8.5797   25.5973 C   0  0  0  0  0  0  0  0  0  0  0  0
   14.3000  -12.7507   27.4361 Cl  0  0  0  0  0  0  0  0  0  0  0  0
   15.1623   -8.8130   26.8861 C   0  0  0  0  0  0  0  0  0  0  0  0
   13.5210  -16.2964   22.7895 C   0  0  0  0  0  0  0  0  0  0  0  0
   13.7929  -13.8997   23.1295 C   0  0  0  0  0  0  0  0  0  0  0  0
   13.4103  -13.7093   21.7902 C   0  0  0  0  0  0  0  0  0  0  0  0
   13.0822  -14.8234   20.9905 C   0  0  0  0  0  0  0  0  0  0  0  0
   13.8476  -15.2183   23.6211 C   0  0  0  0  0  0  0  0  0  0  0  0
   13.1384  -16.0725   21.4992 N   0  0  0  0  0  0  0  0  0  0  0  0
   13.6024  -17.4618   23.2413 O   0  0  0  0  0  0  0  0  0  0  0  0
 16 18  2  0  0  0
 16 15  1  0  0  0
 11  6  1  0  0  0
 18 13  1  0  0  0
 15 14  1  0  0  0
 13 19  2  0  0  0
 13 17  1  0  0  0
 14 17  2  0  0  0
 14  2  1  0  0  0
  6  7  2  0  0  0
  6  5  1  0  0  0
  2  1  1  0  0  0
  7 12  1  0  0  0
  1  3  2  0  0  0
  1  5  1  0  0  0
  5  8  2  0  0  0
 12 10  2  0  0  0
  8 10  1  0  0  0
  8  9  1  0  0  0
  2  4  1  0  0  0
M  END
> <minimizedAffinity>
-7.56919

$$$$
4GFO_0X2_A_1206


 19 20  0  0  0  0  0  0  0  0999 V2000
   13.4180  -11.8910   24.5874 C   0  0  0  0  0  0  0  0  0  0  0  0
   14.1450  -12.6256   23.7289 N   0  0  0  0  0  0  0  0  0  0  0  0
   12.2221  -12.0466   24.7908 O   0  0  0  0  0  0  0  0  0  0  0  0
   15.0879  -12.3675   23.6127 H   0  0  0  0  0  0  0  0  0  0  0  0
   14.0570  -10.7742   25.3570 C   0  0  0  0  0  0  0  0  0  0  0  0
   14.0688   -9.4955   24.8170 C   0  0  0  0  0  0  0  0  0  0  0  0
   14.5896   -8.4231   25.5447 C   0  0  0  0  0  0  0  0  0  0  0  0
   14.5107  -10.9749   26.6606 C   0  0  0  0  0  0  0  0  0  0  0  0
   14.4828  -12.6099   27.3905 Cl  0  0  0  0  0  0  0  0  0  0  0  0
   15.0299   -9.9090   27.4005 C   0  0  0  0  0  0  0  0  0  0  0  0
   13.4358   -9.2465   23.1646 Cl  0  0  0  0  0  0  0  0  0  0  0  0
   15.0698   -8.6321   26.8394 C   0  0  0  0  0  0  0  0  0  0  0  0
   13.3841  -16.1189   22.5858 C   0  0  0  0  0  0  0  0  0  0  0  0
   13.6899  -13.7338   22.9749 C   0  0  0  0  0  0  0  0  0  0  0  0
   13.1757  -13.5010   21.6874 C   0  0  0  0  0  0  0  0  0  0  0  0
   12.7688  -14.5894   20.8885 C   0  0  0  0  0  0  0  0  0  0  0  0
   13.7927  -15.0675   23.4154 C   0  0  0  0  0  0  0  0  0  0  0  0
   12.8748  -15.8542   21.3481 N   0  0  0  0  0  0  0  0  0  0  0  0
   13.5095  -17.2981   22.9890 O   0  0  0  0  0  0  0  0  0  0  0  0
 16 18  2  0  0  0
 16 15  1  0  0  0
 11  6  1  0  0  0
 18 13  1  0  0  0
 15 14  1  0  0  0
 13 19  2  0  0  0
 13 17  1  0  0  0
 14 17  2  0  0  0
 14  2  1  0  0  0
  6  7  2  0  0  0
  6  5  1  0  0  0
  2  1  1  0  0  0
  7 12  1  0  0  0
  1  3  2  0  0  0
  1  5  1  0  0  0
  5  8  2  0  0  0
 12 10  2  0  0  0
  8 10  1  0  0  0
  8  9  1  0  0  0
  2  4  1  0  0  0
M  END
> <minimizedAffinity>
-7.54616

$$$$
