4GFO_0X2_A_1206
  RCSB PDB12061712423D
Coordinates from PDB:4GFO:A:1206 Model:1 without hydrogens
 18 19  0  0  0  0            999 V2000
   13.2760  -13.0620   22.0340   C 0  0  0  0  0  0  0  0  0  0  0  0
   12.1370  -12.4170   21.5720   C 0  0  0  0  0  0  0  0  0  0  0  0
   11.7970  -12.4610   20.2180   C 0  0  0  0  0  0  0  0  0  0  0  0
   14.7060  -12.9920   27.7390   C 0  0  0  0  0  0  0  0  0  0  0  0
   13.6610  -12.9300   23.4770   C 0  0  0  0  0  0  0  0  0  0  0  0
   13.9570  -14.0250   25.6640   C 0  0  0  0  0  0  0  0  0  0  0  0
   14.0870  -15.2770   26.2900   C 0  0  0  0  0  0  0  0  0  0  0  0
   14.5140  -15.3480   27.6320   C 0  0  0  0  0  0  0  0  0  0  0  0
   14.2780  -12.8750   26.4110   C 0  0  0  0  0  0  0  0  0  0  0  0
   13.5840  -13.9900   24.2990   N 0  0  0  0  0  0  0  0  0  0  0  0
   14.8050  -14.2230   28.3190   N 0  0  0  0  0  0  0  0  0  0  0  0
   14.1190  -13.7040   21.1270   C 0  0  0  0  0  0  0  0  0  0  0  0
   15.0110  -11.9570   28.3750   O 0  0  0  0  0  0  0  0  0  0  0  0
   14.0140  -11.8110   23.8220   O 0  0  0  0  0  0  0  0  0  0  0  0
   15.6080  -14.5220   21.6930  Cl 0  0  0  0  0  0  0  0  0  0  0  0
   13.7920  -13.7510   19.7690   C 0  0  0  0  0  0  0  0  0  0  0  0
   11.0950  -11.5550   22.7400  Cl 0  0  0  0  0  0  0  0  0  0  0  0
   12.6280  -13.1290   19.3160   C 0  0  0  0  0  0  0  0  0  0  0  0
  8 11  2  0  0  0  0
  8  7  1  0  0  0  0
 17  2  1  0  0  0  0
 11  4  1  0  0  0  0
  7  6  1  0  0  0  0
  4 13  2  0  0  0  0
  4  9  1  0  0  0  0
  6  9  2  0  0  0  0
  6 10  1  0  0  0  0
  2  3  2  0  0  0  0
  2  1  1  0  0  0  0
 10  5  1  0  0  0  0
  3 18  1  0  0  0  0
  5 14  2  0  0  0  0
  5  1  1  0  0  0  0
  1 12  2  0  0  0  0
 18 16  2  0  0  0  0
 12 16  1  0  0  0  0
 12 15  1  0  0  0  0
A    1
C4
A    2
C5
A    3
C6
A    4
C11
A    5
C7
A    6
C8
A    7
C9
A    8
C10
A    9
C12
A   10
N1
A   11
N2
A   12
C3
A   13
O2
A   14
O1
A   15
CL2
A   16
C2
A   17
CL1
A   18
C1
M  END
>  <InstanceId>
4GFO_0X2_A_1206

>  <ChemCompId>
0X2

>  <PdbId>
4GFO

>  <ChainId>
A

>  <ResidueNumber>
1206

>  <InsertionCode>


>  <Model>
1

>  <AltIds>


>  <MissingHeavyAtoms>
0

>  <ObservedFormula>
C12 N2 O2 Cl2

>  <Name>
2,6-dichloro-N-(2-oxo-2,5-dihydropyridin-4-yl)benzamide

>  <SystematicName>
2,6-bis(chloranyl)-N-(6-oxidanylidene-3H-pyridin-4-yl)benzamide

>  <Synonyms>


>  <Type>
NON-POLYMER

>  <Formula>
C12 H8 Cl2 N2 O2

>  <MolecularWeight>
283.11

>  <ModifiedDate>
2013-06-14

>  <Parent>


>  <OneLetterCode>


>  <SubcomponentList>


>  <AmbiguousFlag>
N

>  <InChI>
InChI=1S/C12H8Cl2N2O2/c13-8-2-1-3-9(14)11(8)12(18)16-7-4-5-15-10(17)6-7/h1-3,5-6H,4H2,(H,16,18)

>  <InChIKey>
HKIJJBMBTHKEPC-UHFFFAOYSA-N

>  <SMILES>
c1cc(c(c(c1)Cl)C(=O)NC2=CC(=O)N=CC2)Cl

$$$$
