3MXD_K53_A_200


 47 51  0  0  0  0  0  0  0  0999 V2000
   19.7093   29.0316   13.9615 C   0  0  0  0  0  0  0  0  0  0  0  0
   20.7313   28.1121   13.4683 N   0  0  0  0  0  0  0  0  0  0  0  0
   21.5470   28.3638   12.4339 C   0  0  0  0  0  0  0  0  0  0  0  0
   21.5808   29.4294   11.8374 O   0  0  0  0  0  0  0  0  0  0  0  0
   20.8282   27.2467   13.9275 H   0  0  0  0  0  0  0  0  0  0  0  0
   22.4169   25.8156   10.1337 N   0  0  0  0  0  0  0  0  0  0  0  0
   22.6878   27.2127   10.4818 C   0  0  0  0  0  0  0  0  0  0  0  0
   21.9331   25.1448   11.1638 C   0  0  0  0  0  0  0  0  0  0  0  0
   21.6383   23.9624   11.1886 O   0  0  0  0  0  0  0  0  0  0  0  0
   21.8467   25.9792   12.3174 O   0  0  0  0  0  0  0  0  0  0  0  0
   22.4553   27.2429   11.9957 C   0  0  0  0  0  0  0  0  0  0  0  0
   23.2132   24.0769    6.4268 C   0  0  0  0  0  0  0  0  0  0  0  0
   21.9004   24.3312    6.8255 C   0  0  0  0  0  0  0  0  0  0  0  0
   21.6509   24.9064    8.0720 C   0  0  0  0  0  0  0  0  0  0  0  0
   22.7076   25.2380    8.8941 C   0  0  0  0  0  0  0  0  0  0  0  0
   24.0217   24.9843    8.5022 C   0  0  0  0  0  0  0  0  0  0  0  0
   24.2782   24.4124    7.2670 C   0  0  0  0  0  0  0  0  0  0  0  0
   20.3694   25.1632    8.4784 O   0  0  0  0  0  0  0  0  0  0  0  0
   19.6482   24.9398    7.9234 H   0  0  0  0  0  0  0  0  0  0  0  0
   20.0882   29.5005   15.3693 C   0  0  0  0  0  0  0  0  0  0  0  0
   20.1163   28.3993   16.2925 O   0  0  0  0  0  0  0  0  0  0  0  0
   19.2277   28.0176   16.3677 H   0  0  0  0  0  0  0  0  0  0  0  0
   19.1518   30.5935   15.9045 C   0  0  0  0  0  0  0  0  0  0  0  0
   19.4279   31.8417   15.1503 N   0  0  0  0  0  0  0  0  0  0  0  0
   18.0895   32.5733   14.5937 S   0  0  0  0  0  0  0  0  0  0  0  0
   17.3063   31.5424   13.9755 O   0  0  0  0  0  0  0  0  0  0  0  0
   18.5359   33.5311   13.6253 O   0  0  0  0  0  0  0  0  0  0  0  0
   15.8240   34.5352   17.8403 C   0  0  0  0  0  0  0  0  0  0  0  0
   16.9322   35.1351   17.3193 C   0  0  0  0  0  0  0  0  0  0  0  0
   17.6531   34.5443   16.2877 C   0  0  0  0  0  0  0  0  0  0  0  0
   17.2469   33.3024   15.7784 C   0  0  0  0  0  0  0  0  0  0  0  0
   16.1045   32.6936   16.3277 C   0  0  0  0  0  0  0  0  0  0  0  0
   15.3819   33.3105   17.3690 C   0  0  0  0  0  0  0  0  0  0  0  0
   16.1788   36.4723   18.9952 C   0  0  0  0  0  0  0  0  0  0  0  0
   15.3249   35.3145   18.8391 O   0  0  0  0  0  0  0  0  0  0  0  0
   17.1521   36.3299   17.9535 O   0  0  0  0  0  0  0  0  0  0  0  0
   20.3276   32.7738   15.8825 C   0  0  0  0  0  0  0  0  0  0  0  0
   21.6990   32.8688   15.2008 C   0  0  0  0  0  0  0  0  0  0  0  0
   22.8165   32.2211   16.0237 C   0  0  0  0  0  0  0  0  0  0  0  0
   21.6346   32.2664   13.7935 C   0  0  0  0  0  0  0  0  0  0  0  0
   18.3133   28.3941   13.8943 C   0  0  0  0  0  0  0  0  0  0  0  0
   18.2262   26.5693   12.1641 C   0  0  0  0  0  0  0  0  0  0  0  0
   18.0459   26.1262   10.8660 C   0  0  0  0  0  0  0  0  0  0  0  0
   17.6997   27.0329    9.8729 C   0  0  0  0  0  0  0  0  0  0  0  0
   17.5526   28.3809   10.1812 C   0  0  0  0  0  0  0  0  0  0  0  0
   17.7324   28.8215   11.4836 C   0  0  0  0  0  0  0  0  0  0  0  0
   18.0711   27.9185   12.4803 C   0  0  0  0  0  0  0  0  0  0  0  0
 28 29  2  0  0  0
 28 33  1  0  0  0
 28 35  1  0  0  0
 29 30  1  0  0  0
 29 36  1  0  0  0
 30 31  2  0  0  0
 31 32  1  0  0  0
 31 25  1  0  0  0
 32 33  2  0  0  0
 25 26  2  0  0  0
 25 27  2  0  0  0
 25 24  1  0  0  0
 24 37  1  0  0  0
 24 23  1  0  0  0
 37 38  1  0  0  0
 38 39  1  0  0  0
 38 40  1  0  0  0
 23 20  1  0  0  0
 20 21  1  0  0  0
 20  1  1  0  0  0
 34 35  1  0  0  0
 34 36  1  0  0  0
  1  2  1  0  0  0
  1 41  1  0  0  0
  2  3  1  0  0  0
  3  4  2  0  0  0
  3 11  1  0  0  0
  6  7  1  0  0  0
  6  8  1  0  0  0
  6 15  1  0  0  0
  7 11  1  0  0  0
  8  9  2  0  0  0
  8 10  1  0  0  0
 10 11  1  0  0  0
 41 47  1  0  0  0
 42 43  2  0  0  0
 42 47  1  0  0  0
 43 44  1  0  0  0
 44 45  2  0  0  0
 45 46  1  0  0  0
 46 47  2  0  0  0
 12 13  2  0  0  0
 12 17  1  0  0  0
 13 14  1  0  0  0
 14 15  2  0  0  0
 14 18  1  0  0  0
 15 16  1  0  0  0
 16 17  2  0  0  0
 21 22  1  0  0  0
  2  5  1  0  0  0
 18 19  1  0  0  0
M  END
> <minimizedAffinity>
-10.38182

$$$$
3MXD_K53_A_200


 47 51  0  0  0  0  0  0  0  0999 V2000
   21.4265   28.1326   13.1777 C   0  0  0  0  0  0  0  0  0  0  0  0
   20.1773   27.9638   12.4398 N   0  0  0  0  0  0  0  0  0  0  0  0
   19.8576   26.8769   11.7221 C   0  0  0  0  0  0  0  0  0  0  0  0
   20.5448   25.8681   11.6720 O   0  0  0  0  0  0  0  0  0  0  0  0
   19.5241   28.6997   12.4715 H   0  0  0  0  0  0  0  0  0  0  0  0
   17.8422   25.7861    9.0223 N   0  0  0  0  0  0  0  0  0  0  0  0
   18.1007   25.5636   10.4471 C   0  0  0  0  0  0  0  0  0  0  0  0
   18.2440   26.9845    8.6384 C   0  0  0  0  0  0  0  0  0  0  0  0
   18.1387   27.4648    7.5231 O   0  0  0  0  0  0  0  0  0  0  0  0
   18.7849   27.7147    9.7379 O   0  0  0  0  0  0  0  0  0  0  0  0
   18.5757   26.9374   10.9307 C   0  0  0  0  0  0  0  0  0  0  0  0
   15.9283   23.0793    6.4907 C   0  0  0  0  0  0  0  0  0  0  0  0
   17.3091   23.2669    6.4178 C   0  0  0  0  0  0  0  0  0  0  0  0
   17.9328   24.1818    7.2667 C   0  0  0  0  0  0  0  0  0  0  0  0
   17.1802   24.8810    8.1871 C   0  0  0  0  0  0  0  0  0  0  0  0
   15.7996   24.6996    8.2634 C   0  0  0  0  0  0  0  0  0  0  0  0
   15.1724   23.7942    7.4235 C   0  0  0  0  0  0  0  0  0  0  0  0
   19.2862   24.3775    7.2089 O   0  0  0  0  0  0  0  0  0  0  0  0
   19.8017   23.9049    6.5853 H   0  0  0  0  0  0  0  0  0  0  0  0
   21.1268   28.7614   14.5416 C   0  0  0  0  0  0  0  0  0  0  0  0
   21.1238   27.7685   15.5808 O   0  0  0  0  0  0  0  0  0  0  0  0
   20.4107   27.1316   15.4174 H   0  0  0  0  0  0  0  0  0  0  0  0
   19.7974   29.5295   14.5635 C   0  0  0  0  0  0  0  0  0  0  0  0
   20.0898   30.9575   14.2834 N   0  0  0  0  0  0  0  0  0  0  0  0
   18.9063   31.7149   13.4698 S   0  0  0  0  0  0  0  0  0  0  0  0
   18.2929   30.7135   12.6455 O   0  0  0  0  0  0  0  0  0  0  0  0
   19.5525   32.7141   12.6707 O   0  0  0  0  0  0  0  0  0  0  0  0
   15.9546   33.5480   16.1990 C   0  0  0  0  0  0  0  0  0  0  0  0
   16.9024   34.3212   15.5963 C   0  0  0  0  0  0  0  0  0  0  0  0
   17.8327   33.7698   14.7226 C   0  0  0  0  0  0  0  0  0  0  0  0
   17.8104   32.3919   14.4626 C   0  0  0  0  0  0  0  0  0  0  0  0
   16.8299   31.6061   15.0940 C   0  0  0  0  0  0  0  0  0  0  0  0
   15.8903   32.1835   15.9720 C   0  0  0  0  0  0  0  0  0  0  0  0
   15.6930   35.6878   16.9506 C   0  0  0  0  0  0  0  0  0  0  0  0
   15.1903   34.3321   17.0084 O   0  0  0  0  0  0  0  0  0  0  0  0
   16.7481   35.6268   15.9834 O   0  0  0  0  0  0  0  0  0  0  0  0
   20.5240   31.7077   15.4929 C   0  0  0  0  0  0  0  0  0  0  0  0
   21.6583   32.6859   15.1597 C   0  0  0  0  0  0  0  0  0  0  0  0
   22.0145   33.6029   16.3334 C   0  0  0  0  0  0  0  0  0  0  0  0
   22.8912   31.9206   14.6680 C   0  0  0  0  0  0  0  0  0  0  0  0
   22.4494   28.9328   12.3572 C   0  0  0  0  0  0  0  0  0  0  0  0
   23.1564   27.7861   10.2321 C   0  0  0  0  0  0  0  0  0  0  0  0
   23.9264   26.8702    9.5377 C   0  0  0  0  0  0  0  0  0  0  0  0
   24.8825   26.1241   10.2142 C   0  0  0  0  0  0  0  0  0  0  0  0
   25.0507   26.2865   11.5850 C   0  0  0  0  0  0  0  0  0  0  0  0
   24.2784   27.2066   12.2777 C   0  0  0  0  0  0  0  0  0  0  0  0
   23.3274   27.9594   11.6051 C   0  0  0  0  0  0  0  0  0  0  0  0
 28 29  2  0  0  0
 28 33  1  0  0  0
 28 35  1  0  0  0
 29 30  1  0  0  0
 29 36  1  0  0  0
 30 31  2  0  0  0
 31 32  1  0  0  0
 31 25  1  0  0  0
 32 33  2  0  0  0
 25 26  2  0  0  0
 25 27  2  0  0  0
 25 24  1  0  0  0
 24 37  1  0  0  0
 24 23  1  0  0  0
 37 38  1  0  0  0
 38 39  1  0  0  0
 38 40  1  0  0  0
 23 20  1  0  0  0
 20 21  1  0  0  0
 20  1  1  0  0  0
 34 35  1  0  0  0
 34 36  1  0  0  0
  1  2  1  0  0  0
  1 41  1  0  0  0
  2  3  1  0  0  0
  3  4  2  0  0  0
  3 11  1  0  0  0
  6  7  1  0  0  0
  6  8  1  0  0  0
  6 15  1  0  0  0
  7 11  1  0  0  0
  8  9  2  0  0  0
  8 10  1  0  0  0
 10 11  1  0  0  0
 41 47  1  0  0  0
 42 43  2  0  0  0
 42 47  1  0  0  0
 43 44  1  0  0  0
 44 45  2  0  0  0
 45 46  1  0  0  0
 46 47  2  0  0  0
 12 13  2  0  0  0
 12 17  1  0  0  0
 13 14  1  0  0  0
 14 15  2  0  0  0
 14 18  1  0  0  0
 15 16  1  0  0  0
 16 17  2  0  0  0
 21 22  1  0  0  0
  2  5  1  0  0  0
 18 19  1  0  0  0
M  END
> <minimizedAffinity>
-10.22117

$$$$
3MXD_K53_A_200


 47 51  0  0  0  0  0  0  0  0999 V2000
   21.7379   28.0057   12.8897 C   0  0  0  0  0  0  0  0  0  0  0  0
   20.6533   27.2729   12.2418 N   0  0  0  0  0  0  0  0  0  0  0  0
   20.7405   26.0050   11.8130 C   0  0  0  0  0  0  0  0  0  0  0  0
   21.7162   25.2919   11.9912 O   0  0  0  0  0  0  0  0  0  0  0  0
   19.7982   27.7426   12.1104 H   0  0  0  0  0  0  0  0  0  0  0  0
   18.5419   26.0892    9.0382 N   0  0  0  0  0  0  0  0  0  0  0  0
   19.7592   25.4473    9.5408 C   0  0  0  0  0  0  0  0  0  0  0  0
   17.8086   26.5756   10.0233 C   0  0  0  0  0  0  0  0  0  0  0  0
   16.7325   27.1387    9.9202 O   0  0  0  0  0  0  0  0  0  0  0  0
   18.4115   26.3032   11.2871 O   0  0  0  0  0  0  0  0  0  0  0  0
   19.5545   25.4592   11.0589 C   0  0  0  0  0  0  0  0  0  0  0  0
   17.3893   26.0944    5.0294 C   0  0  0  0  0  0  0  0  0  0  0  0
   17.2480   24.9452    5.8084 C   0  0  0  0  0  0  0  0  0  0  0  0
   17.6455   24.9580    7.1458 C   0  0  0  0  0  0  0  0  0  0  0  0
   18.1580   26.1153    7.6940 C   0  0  0  0  0  0  0  0  0  0  0  0
   18.3038   27.2663    6.9201 C   0  0  0  0  0  0  0  0  0  0  0  0
   17.9128   27.2617    5.5913 C   0  0  0  0  0  0  0  0  0  0  0  0
   17.5133   23.8400    7.9241 O   0  0  0  0  0  0  0  0  0  0  0  0
   17.1656   23.0515    7.5562 H   0  0  0  0  0  0  0  0  0  0  0  0
   21.1578   28.8984   13.9905 C   0  0  0  0  0  0  0  0  0  0  0  0
   20.4866   28.1163   14.9923 O   0  0  0  0  0  0  0  0  0  0  0  0
   19.7304   27.6589   14.5925 H   0  0  0  0  0  0  0  0  0  0  0  0
   20.1977   29.9661   13.4464 C   0  0  0  0  0  0  0  0  0  0  0  0
   20.1345   31.0710   14.4356 N   0  0  0  0  0  0  0  0  0  0  0  0
   18.9014   30.9345   15.4831 S   0  0  0  0  0  0  0  0  0  0  0  0
   19.4727   30.4322   16.6995 O   0  0  0  0  0  0  0  0  0  0  0  0
   17.9973   29.9826   14.9077 O   0  0  0  0  0  0  0  0  0  0  0  0
   16.8325   34.7727   16.1968 C   0  0  0  0  0  0  0  0  0  0  0  0
   17.3990   34.0965   17.2367 C   0  0  0  0  0  0  0  0  0  0  0  0
   18.0677   32.8944   17.0350 C   0  0  0  0  0  0  0  0  0  0  0  0
   18.1529   32.3547   15.7435 C   0  0  0  0  0  0  0  0  0  0  0  0
   17.5609   33.0608   14.6812 C   0  0  0  0  0  0  0  0  0  0  0  0
   16.8925   34.2819   14.9034 C   0  0  0  0  0  0  0  0  0  0  0  0
   16.3967   35.9396   18.1100 C   0  0  0  0  0  0  0  0  0  0  0  0
   16.2348   35.8998   16.6726 O   0  0  0  0  0  0  0  0  0  0  0  0
   17.2028   34.7915   18.4014 O   0  0  0  0  0  0  0  0  0  0  0  0
   21.4365   31.3171   15.1128 C   0  0  0  0  0  0  0  0  0  0  0  0
   22.0263   32.6727   14.7017 C   0  0  0  0  0  0  0  0  0  0  0  0
   21.5930   33.8133   15.6273 C   0  0  0  0  0  0  0  0  0  0  0  0
   23.5536   32.5835   14.6194 C   0  0  0  0  0  0  0  0  0  0  0  0
   22.5717   28.7836   11.8603 C   0  0  0  0  0  0  0  0  0  0  0  0
   23.3315   27.4781    9.8481 C   0  0  0  0  0  0  0  0  0  0  0  0
   24.1697   26.5679    9.2293 C   0  0  0  0  0  0  0  0  0  0  0  0
   25.2131   25.9976    9.9464 C   0  0  0  0  0  0  0  0  0  0  0  0
   25.4013   26.3286   11.2839 C   0  0  0  0  0  0  0  0  0  0  0  0
   24.5605   27.2426   11.9007 C   0  0  0  0  0  0  0  0  0  0  0  0
   23.5215   27.8203   11.1864 C   0  0  0  0  0  0  0  0  0  0  0  0
 28 29  2  0  0  0
 28 33  1  0  0  0
 28 35  1  0  0  0
 29 30  1  0  0  0
 29 36  1  0  0  0
 30 31  2  0  0  0
 31 32  1  0  0  0
 31 25  1  0  0  0
 32 33  2  0  0  0
 25 26  2  0  0  0
 25 27  2  0  0  0
 25 24  1  0  0  0
 24 37  1  0  0  0
 24 23  1  0  0  0
 37 38  1  0  0  0
 38 39  1  0  0  0
 38 40  1  0  0  0
 23 20  1  0  0  0
 20 21  1  0  0  0
 20  1  1  0  0  0
 34 35  1  0  0  0
 34 36  1  0  0  0
  1  2  1  0  0  0
  1 41  1  0  0  0
  2  3  1  0  0  0
  3  4  2  0  0  0
  3 11  1  0  0  0
  6  7  1  0  0  0
  6  8  1  0  0  0
  6 15  1  0  0  0
  7 11  1  0  0  0
  8  9  2  0  0  0
  8 10  1  0  0  0
 10 11  1  0  0  0
 41 47  1  0  0  0
 42 43  2  0  0  0
 42 47  1  0  0  0
 43 44  1  0  0  0
 44 45  2  0  0  0
 45 46  1  0  0  0
 46 47  2  0  0  0
 12 13  2  0  0  0
 12 17  1  0  0  0
 13 14  1  0  0  0
 14 15  2  0  0  0
 14 18  1  0  0  0
 15 16  1  0  0  0
 16 17  2  0  0  0
 21 22  1  0  0  0
  2  5  1  0  0  0
 18 19  1  0  0  0
M  END
> <minimizedAffinity>
-10.01814

$$$$
3MXD_K53_A_200


 47 51  0  0  0  0  0  0  0  0999 V2000
   20.7299   27.6590   11.3734 C   0  0  0  0  0  0  0  0  0  0  0  0
   19.7689   27.3260   10.3250 N   0  0  0  0  0  0  0  0  0  0  0  0
   19.1622   26.1367   10.1978 C   0  0  0  0  0  0  0  0  0  0  0  0
   19.2851   25.2210   10.9969 O   0  0  0  0  0  0  0  0  0  0  0  0
   19.5513   28.0237    9.6653 H   0  0  0  0  0  0  0  0  0  0  0  0
   18.7943   25.7743    6.6943 N   0  0  0  0  0  0  0  0  0  0  0  0
   18.9171   25.0097    7.9380 C   0  0  0  0  0  0  0  0  0  0  0  0
   18.3626   27.0019    6.9211 C   0  0  0  0  0  0  0  0  0  0  0  0
   18.1373   27.8602    6.0855 O   0  0  0  0  0  0  0  0  0  0  0  0
   18.1178   27.2050    8.3116 O   0  0  0  0  0  0  0  0  0  0  0  0
   18.2938   25.9431    8.9805 C   0  0  0  0  0  0  0  0  0  0  0  0
   19.5517   24.2371    2.8914 C   0  0  0  0  0  0  0  0  0  0  0  0
   20.6019   24.6348    3.7197 C   0  0  0  0  0  0  0  0  0  0  0  0
   20.3310   25.1541    4.9861 C   0  0  0  0  0  0  0  0  0  0  0  0
   19.0247   25.2520    5.4180 C   0  0  0  0  0  0  0  0  0  0  0  0
   17.9707   24.8583    4.5940 C   0  0  0  0  0  0  0  0  0  0  0  0
   18.2308   24.3430    3.3349 C   0  0  0  0  0  0  0  0  0  0  0  0
   21.3492   25.5482    5.8115 O   0  0  0  0  0  0  0  0  0  0  0  0
   22.2382   25.4836    5.5225 H   0  0  0  0  0  0  0  0  0  0  0  0
   20.0035   28.3745   12.5160 C   0  0  0  0  0  0  0  0  0  0  0  0
   18.8790   27.6070   12.9767 O   0  0  0  0  0  0  0  0  0  0  0  0
   18.2310   27.5210   12.2601 H   0  0  0  0  0  0  0  0  0  0  0  0
   19.5373   29.7865   12.1329 C   0  0  0  0  0  0  0  0  0  0  0  0
   19.3867   30.5731   13.3827 N   0  0  0  0  0  0  0  0  0  0  0  0
   17.9027   30.4777   14.0347 S   0  0  0  0  0  0  0  0  0  0  0  0
   17.9746   29.4428   15.0257 O   0  0  0  0  0  0  0  0  0  0  0  0
   17.0240   30.1058   12.9651 O   0  0  0  0  0  0  0  0  0  0  0  0
   16.5917   34.2972   15.8274 C   0  0  0  0  0  0  0  0  0  0  0  0
   16.0989   33.1156   16.2970 C   0  0  0  0  0  0  0  0  0  0  0  0
   16.5071   31.9005   15.7588 C   0  0  0  0  0  0  0  0  0  0  0  0
   17.4316   31.8828   14.7045 C   0  0  0  0  0  0  0  0  0  0  0  0
   17.9286   33.1089   14.2278 C   0  0  0  0  0  0  0  0  0  0  0  0
   17.5083   34.3314   14.7901 C   0  0  0  0  0  0  0  0  0  0  0  0
   15.0732   34.7739   17.4642 C   0  0  0  0  0  0  0  0  0  0  0  0
   16.0173   35.3228   16.5148 O   0  0  0  0  0  0  0  0  0  0  0  0
   15.2178   33.3560   17.3188 O   0  0  0  0  0  0  0  0  0  0  0  0
   20.4651   30.3015   14.3713 C   0  0  0  0  0  0  0  0  0  0  0  0
   21.1537   31.6007   14.8098 C   0  0  0  0  0  0  0  0  0  0  0  0
   20.9776   31.8906   16.3032 C   0  0  0  0  0  0  0  0  0  0  0  0
   22.6374   31.5693   14.4286 C   0  0  0  0  0  0  0  0  0  0  0  0
   21.9069   28.4679   10.8076 C   0  0  0  0  0  0  0  0  0  0  0  0
   23.9085   27.4794   11.9683 C   0  0  0  0  0  0  0  0  0  0  0  0
   25.0589   26.7111   11.9752 C   0  0  0  0  0  0  0  0  0  0  0  0
   25.4429   26.0393   10.8221 C   0  0  0  0  0  0  0  0  0  0  0  0
   24.6824   26.1543    9.6635 C   0  0  0  0  0  0  0  0  0  0  0  0
   23.5290   26.9238    9.6604 C   0  0  0  0  0  0  0  0  0  0  0  0
   23.1375   27.5906   10.8118 C   0  0  0  0  0  0  0  0  0  0  0  0
 28 29  2  0  0  0
 28 33  1  0  0  0
 28 35  1  0  0  0
 29 30  1  0  0  0
 29 36  1  0  0  0
 30 31  2  0  0  0
 31 32  1  0  0  0
 31 25  1  0  0  0
 32 33  2  0  0  0
 25 26  2  0  0  0
 25 27  2  0  0  0
 25 24  1  0  0  0
 24 37  1  0  0  0
 24 23  1  0  0  0
 37 38  1  0  0  0
 38 39  1  0  0  0
 38 40  1  0  0  0
 23 20  1  0  0  0
 20 21  1  0  0  0
 20  1  1  0  0  0
 34 35  1  0  0  0
 34 36  1  0  0  0
  1  2  1  0  0  0
  1 41  1  0  0  0
  2  3  1  0  0  0
  3  4  2  0  0  0
  3 11  1  0  0  0
  6  7  1  0  0  0
  6  8  1  0  0  0
  6 15  1  0  0  0
  7 11  1  0  0  0
  8  9  2  0  0  0
  8 10  1  0  0  0
 10 11  1  0  0  0
 41 47  1  0  0  0
 42 43  2  0  0  0
 42 47  1  0  0  0
 43 44  1  0  0  0
 44 45  2  0  0  0
 45 46  1  0  0  0
 46 47  2  0  0  0
 12 13  2  0  0  0
 12 17  1  0  0  0
 13 14  1  0  0  0
 14 15  2  0  0  0
 14 18  1  0  0  0
 15 16  1  0  0  0
 16 17  2  0  0  0
 21 22  1  0  0  0
  2  5  1  0  0  0
 18 19  1  0  0  0
M  END
> <minimizedAffinity>
-9.95921

$$$$
3MXD_K53_A_200


 47 51  0  0  0  0  0  0  0  0999 V2000
   21.9078   30.0280   12.8087 C   0  0  0  0  0  0  0  0  0  0  0  0
   20.5176   30.2848   13.1757 N   0  0  0  0  0  0  0  0  0  0  0  0
   19.7849   31.3091   12.7146 C   0  0  0  0  0  0  0  0  0  0  0  0
   20.1759   32.0991   11.8687 O   0  0  0  0  0  0  0  0  0  0  0  0
   20.0882   29.6621   13.8059 H   0  0  0  0  0  0  0  0  0  0  0  0
   17.6596   32.3307   15.3566 N   0  0  0  0  0  0  0  0  0  0  0  0
   18.2436   32.7813   14.0907 C   0  0  0  0  0  0  0  0  0  0  0  0
   17.6322   31.0124   15.4352 C   0  0  0  0  0  0  0  0  0  0  0  0
   17.1820   30.3472   16.3521 O   0  0  0  0  0  0  0  0  0  0  0  0
   18.1555   30.4220   14.2468 O   0  0  0  0  0  0  0  0  0  0  0  0
   18.4067   31.4782   13.3022 C   0  0  0  0  0  0  0  0  0  0  0  0
   15.9905   34.8571   18.2254 C   0  0  0  0  0  0  0  0  0  0  0  0
   15.1760   34.0656   17.4147 C   0  0  0  0  0  0  0  0  0  0  0  0
   15.7500   33.2315   16.4546 C   0  0  0  0  0  0  0  0  0  0  0  0
   17.1225   33.1812   16.3277 C   0  0  0  0  0  0  0  0  0  0  0  0
   17.9418   33.9714   17.1333 C   0  0  0  0  0  0  0  0  0  0  0  0
   17.3801   34.8031   18.0880 C   0  0  0  0  0  0  0  0  0  0  0  0
   14.9657   32.4481   15.6518 O   0  0  0  0  0  0  0  0  0  0  0  0
   14.0329   32.4788   15.7343 H   0  0  0  0  0  0  0  0  0  0  0  0
   21.9967   28.6893   12.0703 C   0  0  0  0  0  0  0  0  0  0  0  0
   21.8174   28.8649   10.6551 O   0  0  0  0  0  0  0  0  0  0  0  0
   20.9265   29.2072   10.4821 H   0  0  0  0  0  0  0  0  0  0  0  0
   20.9875   27.6551   12.5898 C   0  0  0  0  0  0  0  0  0  0  0  0
   20.3009   27.0574   11.4174 N   0  0  0  0  0  0  0  0  0  0  0  0
   20.7613   25.5323   11.1037 S   0  0  0  0  0  0  0  0  0  0  0  0
   19.5516   24.7649   11.0249 O   0  0  0  0  0  0  0  0  0  0  0  0
   21.5590   25.1221   12.2217 O   0  0  0  0  0  0  0  0  0  0  0  0
   23.0672   25.1752    7.3518 C   0  0  0  0  0  0  0  0  0  0  0  0
   21.7334   24.8920    7.3653 C   0  0  0  0  0  0  0  0  0  0  0  0
   20.9838   25.0109    8.5301 C   0  0  0  0  0  0  0  0  0  0  0  0
   21.6070   25.4154    9.7194 C   0  0  0  0  0  0  0  0  0  0  0  0
   22.9838   25.7005    9.6917 C   0  0  0  0  0  0  0  0  0  0  0  0
   23.7268   25.5808    8.4998 C   0  0  0  0  0  0  0  0  0  0  0  0
   22.4782   24.4826    5.2577 C   0  0  0  0  0  0  0  0  0  0  0  0
   23.5541   24.9623    6.0981 O   0  0  0  0  0  0  0  0  0  0  0  0
   21.3276   24.5190    6.1106 O   0  0  0  0  0  0  0  0  0  0  0  0
   18.8217   27.2091   11.4731 C   0  0  0  0  0  0  0  0  0  0  0  0
   18.3270   28.2018   10.4128 C   0  0  0  0  0  0  0  0  0  0  0  0
   18.1218   27.5517    9.0415 C   0  0  0  0  0  0  0  0  0  0  0  0
   17.0449   28.8920   10.8898 C   0  0  0  0  0  0  0  0  0  0  0  0
   22.8264   30.1001   14.0380 C   0  0  0  0  0  0  0  0  0  0  0  0
   21.5842   31.2444   15.9030 C   0  0  0  0  0  0  0  0  0  0  0  0
   21.2191   32.3744   16.6127 C   0  0  0  0  0  0  0  0  0  0  0  0
   21.7472   33.6086   16.2576 C   0  0  0  0  0  0  0  0  0  0  0  0
   22.6243   33.7075   15.1831 C   0  0  0  0  0  0  0  0  0  0  0  0
   22.9895   32.5727   14.4748 C   0  0  0  0  0  0  0  0  0  0  0  0
   22.4705   31.3368   14.8305 C   0  0  0  0  0  0  0  0  0  0  0  0
 28 29  2  0  0  0
 28 33  1  0  0  0
 28 35  1  0  0  0
 29 30  1  0  0  0
 29 36  1  0  0  0
 30 31  2  0  0  0
 31 32  1  0  0  0
 31 25  1  0  0  0
 32 33  2  0  0  0
 25 26  2  0  0  0
 25 27  2  0  0  0
 25 24  1  0  0  0
 24 37  1  0  0  0
 24 23  1  0  0  0
 37 38  1  0  0  0
 38 39  1  0  0  0
 38 40  1  0  0  0
 23 20  1  0  0  0
 20 21  1  0  0  0
 20  1  1  0  0  0
 34 35  1  0  0  0
 34 36  1  0  0  0
  1  2  1  0  0  0
  1 41  1  0  0  0
  2  3  1  0  0  0
  3  4  2  0  0  0
  3 11  1  0  0  0
  6  7  1  0  0  0
  6  8  1  0  0  0
  6 15  1  0  0  0
  7 11  1  0  0  0
  8  9  2  0  0  0
  8 10  1  0  0  0
 10 11  1  0  0  0
 41 47  1  0  0  0
 42 43  2  0  0  0
 42 47  1  0  0  0
 43 44  1  0  0  0
 44 45  2  0  0  0
 45 46  1  0  0  0
 46 47  2  0  0  0
 12 13  2  0  0  0
 12 17  1  0  0  0
 13 14  1  0  0  0
 14 15  2  0  0  0
 14 18  1  0  0  0
 15 16  1  0  0  0
 16 17  2  0  0  0
 21 22  1  0  0  0
  2  5  1  0  0  0
 18 19  1  0  0  0
M  END
> <minimizedAffinity>
-9.87448

$$$$
3MXD_K53_A_200


 47 51  0  0  0  0  0  0  0  0999 V2000
   20.9982   35.4142   18.1941 C   0  0  0  0  0  0  0  0  0  0  0  0
   21.3011   34.0128   17.9157 N   0  0  0  0  0  0  0  0  0  0  0  0
   22.1338   33.5902   16.9530 C   0  0  0  0  0  0  0  0  0  0  0  0
   22.7977   34.3378   16.2510 O   0  0  0  0  0  0  0  0  0  0  0  0
   20.8633   33.3303   18.4741 H   0  0  0  0  0  0  0  0  0  0  0  0
   21.6417   30.7267   14.9285 N   0  0  0  0  0  0  0  0  0  0  0  0
   22.6455   31.7213   15.3153 C   0  0  0  0  0  0  0  0  0  0  0  0
   20.6818   30.6310   15.8308 C   0  0  0  0  0  0  0  0  0  0  0  0
   19.7270   29.8740   15.8003 O   0  0  0  0  0  0  0  0  0  0  0  0
   20.9278   31.5083   16.9284 O   0  0  0  0  0  0  0  0  0  0  0  0
   22.2255   32.1006   16.7387 C   0  0  0  0  0  0  0  0  0  0  0  0
   21.8593   28.3699   11.4937 C   0  0  0  0  0  0  0  0  0  0  0  0
   21.5150   29.7196   11.4094 C   0  0  0  0  0  0  0  0  0  0  0  0
   21.4393   30.4922   12.5688 C   0  0  0  0  0  0  0  0  0  0  0  0
   21.7254   29.9190   13.7903 C   0  0  0  0  0  0  0  0  0  0  0  0
   22.0679   28.5702   13.8814 C   0  0  0  0  0  0  0  0  0  0  0  0
   22.1440   27.7958   12.7355 C   0  0  0  0  0  0  0  0  0  0  0  0
   21.1038   31.8175   12.5039 O   0  0  0  0  0  0  0  0  0  0  0  0
   20.9087   32.2114   11.6764 H   0  0  0  0  0  0  0  0  0  0  0  0
   19.7558   35.4954   19.0858 C   0  0  0  0  0  0  0  0  0  0  0  0
   19.9424   34.7551   20.3036 O   0  0  0  0  0  0  0  0  0  0  0  0
   20.0615   33.8152   20.0956 H   0  0  0  0  0  0  0  0  0  0  0  0
   18.4833   35.0061   18.3791 C   0  0  0  0  0  0  0  0  0  0  0  0
   17.8429   36.1766   17.7286 N   0  0  0  0  0  0  0  0  0  0  0  0
   16.5225   35.7964   16.8636 S   0  0  0  0  0  0  0  0  0  0  0  0
   16.4163   36.8021   15.8459 O   0  0  0  0  0  0  0  0  0  0  0  0
   15.4185   35.8679   17.7750 O   0  0  0  0  0  0  0  0  0  0  0  0
   16.7739   31.7840   15.0307 C   0  0  0  0  0  0  0  0  0  0  0  0
   17.5897   32.7871   14.5974 C   0  0  0  0  0  0  0  0  0  0  0  0
   17.5391   34.0537   15.1682 C   0  0  0  0  0  0  0  0  0  0  0  0
   16.6254   34.3154   16.1993 C   0  0  0  0  0  0  0  0  0  0  0  0
   15.7877   33.2728   16.6336 C   0  0  0  0  0  0  0  0  0  0  0  0
   15.8574   31.9926   16.0476 C   0  0  0  0  0  0  0  0  0  0  0  0
   18.0299   30.9686   13.3076 C   0  0  0  0  0  0  0  0  0  0  0  0
   17.0182   30.6638   14.2962 O   0  0  0  0  0  0  0  0  0  0  0  0
   18.3984   32.3234   13.5929 O   0  0  0  0  0  0  0  0  0  0  0  0
   17.6056   37.3043   18.6700 C   0  0  0  0  0  0  0  0  0  0  0  0
   18.1449   38.6231   18.1006 C   0  0  0  0  0  0  0  0  0  0  0  0
   17.0333   39.6169   17.7512 C   0  0  0  0  0  0  0  0  0  0  0  0
   19.1529   39.2470   19.0712 C   0  0  0  0  0  0  0  0  0  0  0  0
   20.8593   36.2188   16.8928 C   0  0  0  0  0  0  0  0  0  0  0  0
   22.8365   37.4548   17.8382 C   0  0  0  0  0  0  0  0  0  0  0  0
   23.6137   38.5911   17.9747 C   0  0  0  0  0  0  0  0  0  0  0  0
   23.2852   39.7372   17.2628 C   0  0  0  0  0  0  0  0  0  0  0  0
   22.1706   39.7448   16.4312 C   0  0  0  0  0  0  0  0  0  0  0  0
   21.3947   38.6037   16.2953 C   0  0  0  0  0  0  0  0  0  0  0  0
   21.7232   37.4544   16.9986 C   0  0  0  0  0  0  0  0  0  0  0  0
 28 29  2  0  0  0
 28 33  1  0  0  0
 28 35  1  0  0  0
 29 30  1  0  0  0
 29 36  1  0  0  0
 30 31  2  0  0  0
 31 32  1  0  0  0
 31 25  1  0  0  0
 32 33  2  0  0  0
 25 26  2  0  0  0
 25 27  2  0  0  0
 25 24  1  0  0  0
 24 37  1  0  0  0
 24 23  1  0  0  0
 37 38  1  0  0  0
 38 39  1  0  0  0
 38 40  1  0  0  0
 23 20  1  0  0  0
 20 21  1  0  0  0
 20  1  1  0  0  0
 34 35  1  0  0  0
 34 36  1  0  0  0
  1  2  1  0  0  0
  1 41  1  0  0  0
  2  3  1  0  0  0
  3  4  2  0  0  0
  3 11  1  0  0  0
  6  7  1  0  0  0
  6  8  1  0  0  0
  6 15  1  0  0  0
  7 11  1  0  0  0
  8  9  2  0  0  0
  8 10  1  0  0  0
 10 11  1  0  0  0
 41 47  1  0  0  0
 42 43  2  0  0  0
 42 47  1  0  0  0
 43 44  1  0  0  0
 44 45  2  0  0  0
 45 46  1  0  0  0
 46 47  2  0  0  0
 12 13  2  0  0  0
 12 17  1  0  0  0
 13 14  1  0  0  0
 14 15  2  0  0  0
 14 18  1  0  0  0
 15 16  1  0  0  0
 16 17  2  0  0  0
 21 22  1  0  0  0
  2  5  1  0  0  0
 18 19  1  0  0  0
M  END
> <minimizedAffinity>
-9.86073

$$$$
3MXD_K53_A_200


 47 51  0  0  0  0  0  0  0  0999 V2000
   20.9741   28.4992   12.8577 C   0  0  0  0  0  0  0  0  0  0  0  0
   19.7843   28.2443   12.0498 N   0  0  0  0  0  0  0  0  0  0  0  0
   19.5070   27.0774   11.4495 C   0  0  0  0  0  0  0  0  0  0  0  0
   20.1822   26.0677   11.5796 O   0  0  0  0  0  0  0  0  0  0  0  0
   19.1406   28.9808   11.9380 H   0  0  0  0  0  0  0  0  0  0  0  0
   17.6980   25.6713    8.7493 N   0  0  0  0  0  0  0  0  0  0  0  0
   17.8416   25.6219   10.2065 C   0  0  0  0  0  0  0  0  0  0  0  0
   18.1414   26.8142    8.2573 C   0  0  0  0  0  0  0  0  0  0  0  0
   18.1290   27.1566    7.0875 O   0  0  0  0  0  0  0  0  0  0  0  0
   18.6021   27.6711    9.3004 O   0  0  0  0  0  0  0  0  0  0  0  0
   18.2918   27.0435   10.5576 C   0  0  0  0  0  0  0  0  0  0  0  0
   15.9596   22.6819    6.4168 C   0  0  0  0  0  0  0  0  0  0  0  0
   17.3420   22.8718    6.4147 C   0  0  0  0  0  0  0  0  0  0  0  0
   17.9069   23.8813    7.1949 C   0  0  0  0  0  0  0  0  0  0  0  0
   17.0940   24.6728    7.9792 C   0  0  0  0  0  0  0  0  0  0  0  0
   15.7115   24.4894    7.9839 C   0  0  0  0  0  0  0  0  0  0  0  0
   15.1425   23.4904    7.2114 C   0  0  0  0  0  0  0  0  0  0  0  0
   19.2610   24.0806    7.2050 O   0  0  0  0  0  0  0  0  0  0  0  0
   19.8173   23.5455    6.6739 H   0  0  0  0  0  0  0  0  0  0  0  0
   20.5765   29.2898   14.1076 C   0  0  0  0  0  0  0  0  0  0  0  0
   19.7511   28.5000   14.9798 O   0  0  0  0  0  0  0  0  0  0  0  0
   18.9218   28.2792   14.5279 H   0  0  0  0  0  0  0  0  0  0  0  0
   19.8580   30.6057   13.7757 C   0  0  0  0  0  0  0  0  0  0  0  0
   19.8415   31.4398   15.0034 N   0  0  0  0  0  0  0  0  0  0  0  0
   18.4659   31.3117   15.8566 S   0  0  0  0  0  0  0  0  0  0  0  0
   18.8252   30.6673   17.0871 O   0  0  0  0  0  0  0  0  0  0  0  0
   17.5932   30.4834   15.0776 O   0  0  0  0  0  0  0  0  0  0  0  0
   16.5709   35.2236   16.6487 C   0  0  0  0  0  0  0  0  0  0  0  0
   17.2183   34.5612   17.6495 C   0  0  0  0  0  0  0  0  0  0  0  0
   17.8345   33.3361   17.4212 C   0  0  0  0  0  0  0  0  0  0  0  0
   17.7813   32.7586   16.1443 C   0  0  0  0  0  0  0  0  0  0  0  0
   17.1071   33.4509   15.1228 C   0  0  0  0  0  0  0  0  0  0  0  0
   16.4936   34.6956   15.3709 C   0  0  0  0  0  0  0  0  0  0  0  0
   16.3508   36.4546   18.5587 C   0  0  0  0  0  0  0  0  0  0  0  0
   16.0498   36.3794   17.1453 O   0  0  0  0  0  0  0  0  0  0  0  0
   17.1526   35.2934   18.8061 O   0  0  0  0  0  0  0  0  0  0  0  0
   21.0557   31.2573   15.8439 C   0  0  0  0  0  0  0  0  0  0  0  0
   22.0462   32.4118   15.6432 C   0  0  0  0  0  0  0  0  0  0  0  0
   23.0518   32.1422   14.5201 C   0  0  0  0  0  0  0  0  0  0  0  0
   21.2908   33.7224   15.3998 C   0  0  0  0  0  0  0  0  0  0  0  0
   22.0668   29.1917   12.0292 C   0  0  0  0  0  0  0  0  0  0  0  0
   23.8479   27.4436   12.3492 C   0  0  0  0  0  0  0  0  0  0  0  0
   24.7337   26.5002   11.8599 C   0  0  0  0  0  0  0  0  0  0  0  0
   24.7699   26.2340   10.4975 C   0  0  0  0  0  0  0  0  0  0  0  0
   23.9314   26.9258    9.6303 C   0  0  0  0  0  0  0  0  0  0  0  0
   23.0436   27.8695   10.1242 C   0  0  0  0  0  0  0  0  0  0  0  0
   22.9986   28.1336   11.4850 C   0  0  0  0  0  0  0  0  0  0  0  0
 28 29  2  0  0  0
 28 33  1  0  0  0
 28 35  1  0  0  0
 29 30  1  0  0  0
 29 36  1  0  0  0
 30 31  2  0  0  0
 31 32  1  0  0  0
 31 25  1  0  0  0
 32 33  2  0  0  0
 25 26  2  0  0  0
 25 27  2  0  0  0
 25 24  1  0  0  0
 24 37  1  0  0  0
 24 23  1  0  0  0
 37 38  1  0  0  0
 38 39  1  0  0  0
 38 40  1  0  0  0
 23 20  1  0  0  0
 20 21  1  0  0  0
 20  1  1  0  0  0
 34 35  1  0  0  0
 34 36  1  0  0  0
  1  2  1  0  0  0
  1 41  1  0  0  0
  2  3  1  0  0  0
  3  4  2  0  0  0
  3 11  1  0  0  0
  6  7  1  0  0  0
  6  8  1  0  0  0
  6 15  1  0  0  0
  7 11  1  0  0  0
  8  9  2  0  0  0
  8 10  1  0  0  0
 10 11  1  0  0  0
 41 47  1  0  0  0
 42 43  2  0  0  0
 42 47  1  0  0  0
 43 44  1  0  0  0
 44 45  2  0  0  0
 45 46  1  0  0  0
 46 47  2  0  0  0
 12 13  2  0  0  0
 12 17  1  0  0  0
 13 14  1  0  0  0
 14 15  2  0  0  0
 14 18  1  0  0  0
 15 16  1  0  0  0
 16 17  2  0  0  0
 21 22  1  0  0  0
  2  5  1  0  0  0
 18 19  1  0  0  0
M  END
> <minimizedAffinity>
-9.82903

$$$$
3MXD_K53_A_200


 47 51  0  0  0  0  0  0  0  0999 V2000
   21.8520   29.5953   14.5936 C   0  0  0  0  0  0  0  0  0  0  0  0
   22.5095   28.4993   13.8866 N   0  0  0  0  0  0  0  0  0  0  0  0
   22.5623   28.3769   12.5520 C   0  0  0  0  0  0  0  0  0  0  0  0
   22.1341   29.2159   11.7742 O   0  0  0  0  0  0  0  0  0  0  0  0
   22.9445   27.8013   14.4277 H   0  0  0  0  0  0  0  0  0  0  0  0
   22.7024   25.8076   10.1190 N   0  0  0  0  0  0  0  0  0  0  0  0
   23.2848   27.1024   10.4807 C   0  0  0  0  0  0  0  0  0  0  0  0
   22.1696   25.2062   11.1675 C   0  0  0  0  0  0  0  0  0  0  0  0
   21.6372   24.1099   11.1851 O   0  0  0  0  0  0  0  0  0  0  0  0
   22.3478   25.9892   12.3464 O   0  0  0  0  0  0  0  0  0  0  0  0
   23.1803   27.1134   12.0089 C   0  0  0  0  0  0  0  0  0  0  0  0
   22.8330   24.0952    6.3177 C   0  0  0  0  0  0  0  0  0  0  0  0
   21.6115   24.4122    6.9132 C   0  0  0  0  0  0  0  0  0  0  0  0
   21.5850   24.9775    8.1885 C   0  0  0  0  0  0  0  0  0  0  0  0
   22.7704   25.2375    8.8441 C   0  0  0  0  0  0  0  0  0  0  0  0
   23.9943   24.9209    8.2553 C   0  0  0  0  0  0  0  0  0  0  0  0
   24.0294   24.3582    6.9901 C   0  0  0  0  0  0  0  0  0  0  0  0
   20.3957   25.2952    8.7868 O   0  0  0  0  0  0  0  0  0  0  0  0
   19.5879   25.1206    8.3454 H   0  0  0  0  0  0  0  0  0  0  0  0
   20.3618   29.2769   14.7455 C   0  0  0  0  0  0  0  0  0  0  0  0
   20.1015   28.5909   15.9814 O   0  0  0  0  0  0  0  0  0  0  0  0
   20.5589   27.7355   15.9789 H   0  0  0  0  0  0  0  0  0  0  0  0
   19.8074   28.4516   13.5753 C   0  0  0  0  0  0  0  0  0  0  0  0
   18.3508   28.7199   13.4761 N   0  0  0  0  0  0  0  0  0  0  0  0
   17.9991   30.1411   12.7741 S   0  0  0  0  0  0  0  0  0  0  0  0
   16.8184   29.9115   11.9920 O   0  0  0  0  0  0  0  0  0  0  0  0
   19.1184   30.4559   11.9359 O   0  0  0  0  0  0  0  0  0  0  0  0
   17.2863   33.3675   15.7074 C   0  0  0  0  0  0  0  0  0  0  0  0
   16.4704   32.2752   15.6791 C   0  0  0  0  0  0  0  0  0  0  0  0
   16.6832   31.2407   14.7751 C   0  0  0  0  0  0  0  0  0  0  0  0
   17.7458   31.3216   13.8637 C   0  0  0  0  0  0  0  0  0  0  0  0
   18.5769   32.4554   13.9016 C   0  0  0  0  0  0  0  0  0  0  0  0
   18.3501   33.4919   14.8297 C   0  0  0  0  0  0  0  0  0  0  0  0
   15.6567   33.6712   17.2771 C   0  0  0  0  0  0  0  0  0  0  0  0
   16.8465   34.2260   16.6684 O   0  0  0  0  0  0  0  0  0  0  0  0
   15.5045   32.3950   16.6439 O   0  0  0  0  0  0  0  0  0  0  0  0
   17.5919   27.5852   12.8839 C   0  0  0  0  0  0  0  0  0  0  0  0
   18.4250   26.8575   11.8206 C   0  0  0  0  0  0  0  0  0  0  0  0
   18.3866   25.3345   11.9768 C   0  0  0  0  0  0  0  0  0  0  0  0
   17.9758   27.2762   10.4168 C   0  0  0  0  0  0  0  0  0  0  0  0
   22.1129   30.9387   13.8956 C   0  0  0  0  0  0  0  0  0  0  0  0
   22.3978   31.6970   16.2777 C   0  0  0  0  0  0  0  0  0  0  0  0
   22.3953   32.6760   17.2552 C   0  0  0  0  0  0  0  0  0  0  0  0
   22.1510   33.9970   16.9034 C   0  0  0  0  0  0  0  0  0  0  0  0
   21.8936   34.3282   15.5776 C   0  0  0  0  0  0  0  0  0  0  0  0
   21.8984   33.3448   14.6000 C   0  0  0  0  0  0  0  0  0  0  0  0
   22.1492   32.0252   14.9455 C   0  0  0  0  0  0  0  0  0  0  0  0
 28 29  2  0  0  0
 28 33  1  0  0  0
 28 35  1  0  0  0
 29 30  1  0  0  0
 29 36  1  0  0  0
 30 31  2  0  0  0
 31 32  1  0  0  0
 31 25  1  0  0  0
 32 33  2  0  0  0
 25 26  2  0  0  0
 25 27  2  0  0  0
 25 24  1  0  0  0
 24 37  1  0  0  0
 24 23  1  0  0  0
 37 38  1  0  0  0
 38 39  1  0  0  0
 38 40  1  0  0  0
 23 20  1  0  0  0
 20 21  1  0  0  0
 20  1  1  0  0  0
 34 35  1  0  0  0
 34 36  1  0  0  0
  1  2  1  0  0  0
  1 41  1  0  0  0
  2  3  1  0  0  0
  3  4  2  0  0  0
  3 11  1  0  0  0
  6  7  1  0  0  0
  6  8  1  0  0  0
  6 15  1  0  0  0
  7 11  1  0  0  0
  8  9  2  0  0  0
  8 10  1  0  0  0
 10 11  1  0  0  0
 41 47  1  0  0  0
 42 43  2  0  0  0
 42 47  1  0  0  0
 43 44  1  0  0  0
 44 45  2  0  0  0
 45 46  1  0  0  0
 46 47  2  0  0  0
 12 13  2  0  0  0
 12 17  1  0  0  0
 13 14  1  0  0  0
 14 15  2  0  0  0
 14 18  1  0  0  0
 15 16  1  0  0  0
 16 17  2  0  0  0
 21 22  1  0  0  0
  2  5  1  0  0  0
 18 19  1  0  0  0
M  END
> <minimizedAffinity>
-9.60071

$$$$
3MXD_K53_A_200


 47 51  0  0  0  0  0  0  0  0999 V2000
   20.8728   29.5686   13.1189 C   0  0  0  0  0  0  0  0  0  0  0  0
   19.6255   30.2757   13.3974 N   0  0  0  0  0  0  0  0  0  0  0  0
   19.3350   31.5094   12.9587 C   0  0  0  0  0  0  0  0  0  0  0  0
   20.0521   32.1502   12.2052 O   0  0  0  0  0  0  0  0  0  0  0  0
   18.9505   29.8144   13.9458 H   0  0  0  0  0  0  0  0  0  0  0  0
   17.4590   33.1413   15.4802 N   0  0  0  0  0  0  0  0  0  0  0  0
   18.2624   33.3905   14.2807 C   0  0  0  0  0  0  0  0  0  0  0  0
   16.9884   31.9072   15.5002 C   0  0  0  0  0  0  0  0  0  0  0  0
   16.2683   31.4165   16.3525 O   0  0  0  0  0  0  0  0  0  0  0  0
   17.3823   31.1948   14.3288 O   0  0  0  0  0  0  0  0  0  0  0  0
   18.0478   32.1208   13.4510 C   0  0  0  0  0  0  0  0  0  0  0  0
   16.6073   35.9927   18.4030 C   0  0  0  0  0  0  0  0  0  0  0  0
   17.7276   35.1688   18.5185 C   0  0  0  0  0  0  0  0  0  0  0  0
   17.9940   34.2148   17.5357 C   0  0  0  0  0  0  0  0  0  0  0  0
   17.1566   34.1069   16.4451 C   0  0  0  0  0  0  0  0  0  0  0  0
   16.0342   34.9258   16.3250 C   0  0  0  0  0  0  0  0  0  0  0  0
   15.7617   35.8746   17.2968 C   0  0  0  0  0  0  0  0  0  0  0  0
   19.0888   33.3991   17.6331 O   0  0  0  0  0  0  0  0  0  0  0  0
   19.6606   33.4687   18.3721 H   0  0  0  0  0  0  0  0  0  0  0  0
   20.5544   28.2195   12.4679 C   0  0  0  0  0  0  0  0  0  0  0  0
   21.0828   27.1316   13.2444 O   0  0  0  0  0  0  0  0  0  0  0  0
   22.0504   27.1938   13.2715 H   0  0  0  0  0  0  0  0  0  0  0  0
   21.0720   28.1179   11.0257 C   0  0  0  0  0  0  0  0  0  0  0  0
   22.0776   27.0272   10.9767 N   0  0  0  0  0  0  0  0  0  0  0  0
   21.4398   25.5708   10.6472 S   0  0  0  0  0  0  0  0  0  0  0  0
   20.0177   25.7598   10.6275 O   0  0  0  0  0  0  0  0  0  0  0  0
   21.8302   24.7144   11.7283 O   0  0  0  0  0  0  0  0  0  0  0  0
   22.8315   23.9224    6.7913 C   0  0  0  0  0  0  0  0  0  0  0  0
   21.6857   24.6597    6.8472 C   0  0  0  0  0  0  0  0  0  0  0  0
   21.2353   25.2008    8.0460 C   0  0  0  0  0  0  0  0  0  0  0  0
   21.9601   24.9767    9.2255 C   0  0  0  0  0  0  0  0  0  0  0  0
   23.1378   24.2115    9.1537 C   0  0  0  0  0  0  0  0  0  0  0  0
   23.5829   23.6761    7.9281 C   0  0  0  0  0  0  0  0  0  0  0  0
   21.9297   23.9732    4.6946 C   0  0  0  0  0  0  0  0  0  0  0  0
   23.0293   23.5049    5.5105 O   0  0  0  0  0  0  0  0  0  0  0  0
   21.1375   24.7571    5.5950 O   0  0  0  0  0  0  0  0  0  0  0  0
   23.2422   27.3519   10.1093 C   0  0  0  0  0  0  0  0  0  0  0  0
   24.5410   27.4062   10.9244 C   0  0  0  0  0  0  0  0  0  0  0  0
   24.2920   27.4506   12.4348 C   0  0  0  0  0  0  0  0  0  0  0  0
   25.4500   26.2301   10.5529 C   0  0  0  0  0  0  0  0  0  0  0  0
   21.7293   29.4381   14.3874 C   0  0  0  0  0  0  0  0  0  0  0  0
   23.0375   31.5712   14.1243 C   0  0  0  0  0  0  0  0  0  0  0  0
   23.4264   32.8257   14.5590 C   0  0  0  0  0  0  0  0  0  0  0  0
   22.8831   33.3469   15.7259 C   0  0  0  0  0  0  0  0  0  0  0  0
   21.9665   32.6024   16.4603 C   0  0  0  0  0  0  0  0  0  0  0  0
   21.5776   31.3461   16.0209 C   0  0  0  0  0  0  0  0  0  0  0  0
   22.1119   30.8244   14.8522 C   0  0  0  0  0  0  0  0  0  0  0  0
 28 29  2  0  0  0
 28 33  1  0  0  0
 28 35  1  0  0  0
 29 30  1  0  0  0
 29 36  1  0  0  0
 30 31  2  0  0  0
 31 32  1  0  0  0
 31 25  1  0  0  0
 32 33  2  0  0  0
 25 26  2  0  0  0
 25 27  2  0  0  0
 25 24  1  0  0  0
 24 37  1  0  0  0
 24 23  1  0  0  0
 37 38  1  0  0  0
 38 39  1  0  0  0
 38 40  1  0  0  0
 23 20  1  0  0  0
 20 21  1  0  0  0
 20  1  1  0  0  0
 34 35  1  0  0  0
 34 36  1  0  0  0
  1  2  1  0  0  0
  1 41  1  0  0  0
  2  3  1  0  0  0
  3  4  2  0  0  0
  3 11  1  0  0  0
  6  7  1  0  0  0
  6  8  1  0  0  0
  6 15  1  0  0  0
  7 11  1  0  0  0
  8  9  2  0  0  0
  8 10  1  0  0  0
 10 11  1  0  0  0
 41 47  1  0  0  0
 42 43  2  0  0  0
 42 47  1  0  0  0
 43 44  1  0  0  0
 44 45  2  0  0  0
 45 46  1  0  0  0
 46 47  2  0  0  0
 12 13  2  0  0  0
 12 17  1  0  0  0
 13 14  1  0  0  0
 14 15  2  0  0  0
 14 18  1  0  0  0
 15 16  1  0  0  0
 16 17  2  0  0  0
 21 22  1  0  0  0
  2  5  1  0  0  0
 18 19  1  0  0  0
M  END
> <minimizedAffinity>
-9.41949

$$$$
3MXD_K53_A_200


 47 51  0  0  0  0  0  0  0  0999 V2000
   20.3908   25.6186    9.9300 C   0  0  0  0  0  0  0  0  0  0  0  0
   21.0897   26.8500   10.2885 N   0  0  0  0  0  0  0  0  0  0  0  0
   21.8227   27.0140   11.3996 C   0  0  0  0  0  0  0  0  0  0  0  0
   22.0553   26.1205   12.1995 O   0  0  0  0  0  0  0  0  0  0  0  0
   21.0176   27.6134    9.6710 H   0  0  0  0  0  0  0  0  0  0  0  0
   21.8108   30.0460   13.2293 N   0  0  0  0  0  0  0  0  0  0  0  0
   22.4651   28.7377   13.1469 C   0  0  0  0  0  0  0  0  0  0  0  0
   21.2503   30.3804   12.0809 C   0  0  0  0  0  0  0  0  0  0  0  0
   20.6585   31.4171   11.8344 O   0  0  0  0  0  0  0  0  0  0  0  0
   21.4764   29.3754   11.0941 O   0  0  0  0  0  0  0  0  0  0  0  0
   22.3679   28.3960   11.6568 C   0  0  0  0  0  0  0  0  0  0  0  0
   21.8362   32.5029   16.6000 C   0  0  0  0  0  0  0  0  0  0  0  0
   20.8414   31.5392   16.4300 C   0  0  0  0  0  0  0  0  0  0  0  0
   20.8431   30.7306   15.2929 C   0  0  0  0  0  0  0  0  0  0  0  0
   21.8419   30.8772   14.3531 C   0  0  0  0  0  0  0  0  0  0  0  0
   22.8376   31.8399   14.5161 C   0  0  0  0  0  0  0  0  0  0  0  0
   22.8426   32.6477   15.6414 C   0  0  0  0  0  0  0  0  0  0  0  0
   19.8752   29.7800   15.1109 O   0  0  0  0  0  0  0  0  0  0  0  0
   19.1946   29.6767   15.7466 H   0  0  0  0  0  0  0  0  0  0  0  0
   21.1008   24.9617    8.7428 C   0  0  0  0  0  0  0  0  0  0  0  0
   22.4189   25.5053    8.5615 O   0  0  0  0  0  0  0  0  0  0  0  0
   22.3527   26.4486    8.3451 H   0  0  0  0  0  0  0  0  0  0  0  0
   20.3102   25.0882    7.4325 C   0  0  0  0  0  0  0  0  0  0  0  0
   20.0262   23.7185    6.9359 N   0  0  0  0  0  0  0  0  0  0  0  0
   18.5005   23.5197    6.4171 S   0  0  0  0  0  0  0  0  0  0  0  0
   17.6881   23.4619    7.5982 O   0  0  0  0  0  0  0  0  0  0  0  0
   18.4807   22.2689    5.7172 O   0  0  0  0  0  0  0  0  0  0  0  0
   17.1464   26.8043    3.7904 C   0  0  0  0  0  0  0  0  0  0  0  0
   17.5326   27.0670    5.0716 C   0  0  0  0  0  0  0  0  0  0  0  0
   17.9761   26.0524    5.9123 C   0  0  0  0  0  0  0  0  0  0  0  0
   18.0164   24.7307    5.4455 C   0  0  0  0  0  0  0  0  0  0  0  0
   17.6117   24.4738    4.1234 C   0  0  0  0  0  0  0  0  0  0  0  0
   17.1711   25.5161    3.2828 C   0  0  0  0  0  0  0  0  0  0  0  0
   16.8505   29.0366    4.1662 C   0  0  0  0  0  0  0  0  0  0  0  0
   16.7468   27.9643    3.2000 O   0  0  0  0  0  0  0  0  0  0  0  0
   17.4174   28.4092    5.3228 O   0  0  0  0  0  0  0  0  0  0  0  0
   21.0332   23.2395    5.9506 C   0  0  0  0  0  0  0  0  0  0  0  0
   21.6492   24.4112    5.1748 C   0  0  0  0  0  0  0  0  0  0  0  0
   23.1739   24.4723    5.3046 C   0  0  0  0  0  0  0  0  0  0  0  0
   21.2260   24.3540    3.7034 C   0  0  0  0  0  0  0  0  0  0  0  0
   18.9006   25.8849    9.6686 C   0  0  0  0  0  0  0  0  0  0  0  0
   18.0587   28.1630   10.3257 C   0  0  0  0  0  0  0  0  0  0  0  0
   17.6360   29.0823   11.2692 C   0  0  0  0  0  0  0  0  0  0  0  0
   17.5439   28.7050   12.6024 C   0  0  0  0  0  0  0  0  0  0  0  0
   17.8917   27.4145   12.9864 C   0  0  0  0  0  0  0  0  0  0  0  0
   18.3133   26.4950   12.0380 C   0  0  0  0  0  0  0  0  0  0  0  0
   18.3999   26.8651   10.7042 C   0  0  0  0  0  0  0  0  0  0  0  0
 28 29  2  0  0  0
 28 33  1  0  0  0
 28 35  1  0  0  0
 29 30  1  0  0  0
 29 36  1  0  0  0
 30 31  2  0  0  0
 31 32  1  0  0  0
 31 25  1  0  0  0
 32 33  2  0  0  0
 25 26  2  0  0  0
 25 27  2  0  0  0
 25 24  1  0  0  0
 24 37  1  0  0  0
 24 23  1  0  0  0
 37 38  1  0  0  0
 38 39  1  0  0  0
 38 40  1  0  0  0
 23 20  1  0  0  0
 20 21  1  0  0  0
 20  1  1  0  0  0
 34 35  1  0  0  0
 34 36  1  0  0  0
  1  2  1  0  0  0
  1 41  1  0  0  0
  2  3  1  0  0  0
  3  4  2  0  0  0
  3 11  1  0  0  0
  6  7  1  0  0  0
  6  8  1  0  0  0
  6 15  1  0  0  0
  7 11  1  0  0  0
  8  9  2  0  0  0
  8 10  1  0  0  0
 10 11  1  0  0  0
 41 47  1  0  0  0
 42 43  2  0  0  0
 42 47  1  0  0  0
 43 44  1  0  0  0
 44 45  2  0  0  0
 45 46  1  0  0  0
 46 47  2  0  0  0
 12 13  2  0  0  0
 12 17  1  0  0  0
 13 14  1  0  0  0
 14 15  2  0  0  0
 14 18  1  0  0  0
 15 16  1  0  0  0
 16 17  2  0  0  0
 21 22  1  0  0  0
  2  5  1  0  0  0
 18 19  1  0  0  0
M  END
> <minimizedAffinity>
-9.07828

$$$$
