3MXD_K53_A_200
  RCSB PDB12061709493D
Coordinates from PDB:3MXD:A:200 Model:1 without hydrogens
 44 48  0  0  0  0            999 V2000
   15.5940   34.6280   17.5780   C 0  0  0  0  0  0  0  0  0  0  0  0
   16.5830   35.2700   16.8930   C 0  0  0  0  0  0  0  0  0  0  0  0
   17.3850   34.5920   15.9820   C 0  0  0  0  0  0  0  0  0  0  0  0
   17.1880   33.2200   15.7690   C 0  0  0  0  0  0  0  0  0  0  0  0
   16.1670   32.5700   16.4850   C 0  0  0  0  0  0  0  0  0  0  0  0
   15.3590   33.2750   17.4000   C 0  0  0  0  0  0  0  0  0  0  0  0
   18.1320   32.3950   14.7330   S 0  0  0  0  0  0  0  0  0  0  0  0
   17.4070   31.3060   14.1440   O 0  0  0  0  0  0  0  0  0  0  0  0
   18.6610   33.2660   13.7250   O 0  0  0  0  0  0  0  0  0  0  0  0
   19.4170   31.7280   15.4680   N 0  0  0  0  0  0  0  0  0  0  0  0
   20.1590   32.6990   16.3170   C 0  0  0  0  0  0  0  0  0  0  0  0
   21.6660   32.4110   16.2990   C 0  0  0  0  0  0  0  0  0  0  0  0
   22.2490   32.3900   14.8830   C 0  0  0  0  0  0  0  0  0  0  0  0
   22.4090   33.4180   17.1830   C 0  0  0  0  0  0  0  0  0  0  0  0
   19.1040   30.4620   16.1770   C 0  0  0  0  0  0  0  0  0  0  0  0
   20.0240   29.3670   15.6180   C 0  0  0  0  0  0  0  0  0  0  0  0
   15.6290   36.8020   18.2740   C 0  0  0  0  0  0  0  0  0  0  0  0
   19.9740   28.2150   16.4760   O 0  0  0  0  0  0  0  0  0  0  0  0
   19.6900   28.9930   14.1710   C 0  0  0  0  0  0  0  0  0  0  0  0
   14.9790   35.5160   18.4070   O 0  0  0  0  0  0  0  0  0  0  0  0
   20.7970   28.2280   13.6030   N 0  0  0  0  0  0  0  0  0  0  0  0
   21.5540   28.6340   12.5730   C 0  0  0  0  0  0  0  0  0  0  0  0
   21.4530   29.7310   12.0450   O 0  0  0  0  0  0  0  0  0  0  0  0
   22.5400   26.1590   10.2400   N 0  0  0  0  0  0  0  0  0  0  0  0
   22.6210   27.5950   10.5190   C 0  0  0  0  0  0  0  0  0  0  0  0
   22.3000   25.4650   11.3380   C 0  0  0  0  0  0  0  0  0  0  0  0
   22.2060   24.2530   11.4270   O 0  0  0  0  0  0  0  0  0  0  0  0
   22.2200   26.3240   12.4740   O 0  0  0  0  0  0  0  0  0  0  0  0
   22.5720   27.6530   12.0490   C 0  0  0  0  0  0  0  0  0  0  0  0
   16.6050   36.5940   17.2460   O 0  0  0  0  0  0  0  0  0  0  0  0
   18.3640   28.2290   14.0370   C 0  0  0  0  0  0  0  0  0  0  0  0
   18.5270   26.6040   12.1230   C 0  0  0  0  0  0  0  0  0  0  0  0
   18.3850   26.2740   10.7870   C 0  0  0  0  0  0  0  0  0  0  0  0
   17.8680   27.2090    9.9000   C 0  0  0  0  0  0  0  0  0  0  0  0
   17.5120   28.4750   10.3520   C 0  0  0  0  0  0  0  0  0  0  0  0
   17.6540   28.8020   11.6920   C 0  0  0  0  0  0  0  0  0  0  0  0
   18.1630   27.8690   12.5830   C 0  0  0  0  0  0  0  0  0  0  0  0
   23.2920   24.4370    6.5160   C 0  0  0  0  0  0  0  0  0  0  0  0
   24.2980   24.5140    7.4800   C 0  0  0  0  0  0  0  0  0  0  0  0
   24.0320   25.1000    8.7180   C 0  0  0  0  0  0  0  0  0  0  0  0
   22.7680   25.5820    8.9870   C 0  0  0  0  0  0  0  0  0  0  0  0
   21.7590   25.5100    8.0270   C 0  0  0  0  0  0  0  0  0  0  0  0
   22.0150   24.9310    6.7950   C 0  0  0  0  0  0  0  0  0  0  0  0
   25.0070   25.1830    9.6750   O 0  0  0  0  0  0  0  0  0  0  0  0
  1  2  2  0  0  0  0
  1  6  1  0  0  0  0
  1 20  1  0  0  0  0
  2  3  1  0  0  0  0
  2 30  1  0  0  0  0
  3  4  2  0  0  0  0
  4  5  1  0  0  0  0
  4  7  1  0  0  0  0
  5  6  2  0  0  0  0
  7  8  2  0  0  0  0
  7  9  2  0  0  0  0
  7 10  1  0  0  0  0
 10 11  1  0  0  0  0
 10 15  1  0  0  0  0
 11 12  1  0  0  0  0
 12 13  1  0  0  0  0
 12 14  1  0  0  0  0
 15 16  1  0  0  0  0
 16 18  1  0  0  0  0
 16 19  1  0  0  0  0
 17 20  1  0  0  0  0
 17 30  1  0  0  0  0
 19 21  1  0  0  0  0
 19 31  1  0  0  0  0
 21 22  1  0  0  0  0
 22 23  2  0  0  0  0
 22 29  1  0  0  0  0
 24 25  1  0  0  0  0
 24 26  1  0  0  0  0
 24 41  1  0  0  0  0
 25 29  1  0  0  0  0
 26 27  2  0  0  0  0
 26 28  1  0  0  0  0
 28 29  1  0  0  0  0
 31 37  1  0  0  0  0
 32 33  2  0  0  0  0
 32 37  1  0  0  0  0
 33 34  1  0  0  0  0
 34 35  2  0  0  0  0
 35 36  1  0  0  0  0
 36 37  2  0  0  0  0
 38 39  2  0  0  0  0
 38 43  1  0  0  0  0
 39 40  1  0  0  0  0
 40 41  2  0  0  0  0
 40 44  1  0  0  0  0
 41 42  1  0  0  0  0
 42 43  2  0  0  0  0
A    1
C2
A    2
C3
A    3
C4
A    4
C5
A    5
C6
A    6
C7
A    7
S8
A    8
O9
A    9
O10
A   10
N11
A   11
C12
A   12
C13
A   13
C14
A   14
C15
A   15
C16
A   16
C17
A   17
C18
A   18
O18
A   19
C19
A   20
O19
A   21
N20
A   22
C21
A   23
O22
A   24
N24
A   25
C25
A   26
C26
A   27
O27
A   28
O28
A   29
C29
A   30
O29
A   31
C32
A   32
C33
A   33
C34
A   34
C35
A   35
C36
A   36
C37
A   37
C38
A   38
C40
A   39
C41
A   40
C42
A   41
C43
A   42
C44
A   43
C45
A   44
O46
M  END
>  <InstanceId>
3MXD_K53_A_200

>  <ChemCompId>
K53

>  <PdbId>
3MXD

>  <ChainId>
A

>  <ResidueNumber>
200

>  <InsertionCode>


>  <Model>
1

>  <AltIds>


>  <MissingHeavyAtoms>
0

>  <ObservedFormula>
C31 N3 O9 S

>  <Name>
(5S)-N-{(1S,2R)-3-[(1,3-benzodioxol-5-ylsulfonyl)(2-methylpropyl)amino]-1-benzyl-2-hydroxypropyl}-3-(2-hydroxyphenyl)-2-oxo-1,3-oxazolidine-5-carboxamide

>  <SystematicName>
(5S)-N-[(2S,3R)-4-[1,3-benzodioxol-5-ylsulfonyl(2-methylpropyl)amino]-3-hydroxy-1-phenyl-butan-2-yl]-3-(2-hydroxyphenyl)-2-oxo-1,3-oxazolidine-5-carboxamide

>  <Synonyms>
(5S)-N-[(1S,2R)-3-[(1,3-Benzodioxol-5-ylsulfonyl)(2-methylpropyl)amino]-2-hydroxy-1-(phenylmethyl)propyl]-3-(2-hydroxyphenyl)-2-oxooxazolidine-5-carboxamide

>  <Type>
NON-POLYMER

>  <Formula>
C31 H35 N3 O9 S

>  <MolecularWeight>
625.689

>  <ModifiedDate>
2011-06-04

>  <Parent>


>  <OneLetterCode>


>  <SubcomponentList>


>  <AmbiguousFlag>
N

>  <InChI>
InChI=1S/C31H35N3O9S/c1-20(2)16-33(44(39,40)22-12-13-27-28(15-22)42-19-41-27)17-26(36)23(14-21-8-4-3-5-9-21)32-30(37)29-18-34(31(38)43-29)24-10-6-7-11-25(24)35/h3-13,15,20,23,26,29,35-36H,14,16-19H2,1-2H3,(H,32,37)/t23-,26+,29-/m0/s1

>  <InChIKey>
ACRHTKSQCOUKAC-LBGGBARHSA-N

>  <SMILES>
CC(C)C[N@@](C[C@H]([C@H](Cc1ccccc1)NC(=O)[C@@H]2CN(C(=O)O2)c3ccccc3O)O)S(=O)(=O)c4ccc5c(c4)OCO5

$$$$
