3WTL_N1Y_A_301


 18 19  0  0  0  0  0  0  0  0999 V2000
   30.5158  -27.1506  -27.9354 N   0  0  0  0  0  0  0  0  0  0  0  0
   29.3628  -27.4716  -27.2093 C   0  0  0  0  0  0  0  0  0  0  0  0
   28.3065  -28.1725  -27.6771 C   0  0  0  0  0  0  0  0  0  0  0  0
   29.5061  -26.9458  -25.9495 N   0  0  0  0  0  0  0  0  0  0  0  0
   30.7503  -26.2445  -25.7416 C   0  0  0  0  0  0  0  0  0  0  0  0
   31.4646  -26.3769  -27.1074 C   0  0  0  0  0  0  0  0  0  0  0  0
   28.8204  -27.0389  -25.2492 H   0  0  0  0  0  0  0  0  0  0  0  0
   27.1271  -28.4845  -26.8934 N   0  0  0  0  0  0  0  0  0  0  0  0
   27.0889  -28.2588  -25.6650 O   0  0  0  0  0  0  0  0  0  0  0  0
   26.1997  -28.9757  -27.5402 O   0  0  0  0  0  0  0  0  0  0  0  0
   30.8848  -27.4630  -29.3175 C   0  0  0  0  0  0  0  0  0  0  0  0
   29.0282  -23.5150  -33.4784 Cl  0  0  0  0  0  0  0  0  0  0  0  0
   29.5336  -24.6722  -32.3376 C   0  0  0  0  0  0  0  0  0  0  0  0
   29.8240  -24.1757  -31.0850 N   0  0  0  0  0  0  0  0  0  0  0  0
   30.2490  -25.0817  -30.1342 C   0  0  0  0  0  0  0  0  0  0  0  0
   30.3978  -26.4753  -30.3763 C   0  0  0  0  0  0  0  0  0  0  0  0
   30.0760  -26.9264  -31.6918 C   0  0  0  0  0  0  0  0  0  0  0  0
   29.6378  -26.0232  -32.6912 C   0  0  0  0  0  0  0  0  0  0  0  0
 12 13  1  0  0  0
 18 13  2  0  0  0
 18 17  1  0  0  0
 13 14  1  0  0  0
 17 16  2  0  0  0
 14 15  2  0  0  0
 15 16  1  0  0  0
 16 11  1  0  0  0
 11  1  1  0  0  0
  1  2  1  0  0  0
  1  6  1  0  0  0
 10  8  1  0  0  0
  3  2  2  0  0  0
  3  8  1  0  0  0
  2  4  1  0  0  0
  8  9  2  0  0  0
  6  5  1  0  0  0
  4  5  1  0  0  0
  4  7  1  0  0  0
M  CHG 1   8   1
M  CHG 1  10  -1
M  END
> <minimizedAffinity>
-7.76745

$$$$
3WTL_N1Y_A_301


 18 19  0  0  0  0  0  0  0  0999 V2000
   29.4173  -26.5272  -31.6093 N   0  0  0  0  0  0  0  0  0  0  0  0
   29.6366  -25.2673  -32.1788 C   0  0  0  0  0  0  0  0  0  0  0  0
   29.1484  -24.0964  -31.7136 C   0  0  0  0  0  0  0  0  0  0  0  0
   30.4298  -25.4444  -33.2849 N   0  0  0  0  0  0  0  0  0  0  0  0
   30.7966  -26.8180  -33.5333 C   0  0  0  0  0  0  0  0  0  0  0  0
   30.1047  -27.5838  -32.3809 C   0  0  0  0  0  0  0  0  0  0  0  0
   30.7228  -24.6998  -33.8585 H   0  0  0  0  0  0  0  0  0  0  0  0
   29.3969  -22.8091  -32.3330 N   0  0  0  0  0  0  0  0  0  0  0  0
   29.8949  -21.8646  -31.6838 O   0  0  0  0  0  0  0  0  0  0  0  0
   29.0795  -22.7452  -33.5225 O   0  0  0  0  0  0  0  0  0  0  0  0
   28.6489  -26.9122  -30.4239 C   0  0  0  0  0  0  0  0  0  0  0  0
   31.4306  -26.1204  -25.1341 Cl  0  0  0  0  0  0  0  0  0  0  0  0
   30.6276  -26.3955  -26.6091 C   0  0  0  0  0  0  0  0  0  0  0  0
   30.9749  -25.5441  -27.6359 N   0  0  0  0  0  0  0  0  0  0  0  0
   30.3365  -25.7274  -28.8459 C   0  0  0  0  0  0  0  0  0  0  0  0
   29.3583  -26.7323  -29.0830 C   0  0  0  0  0  0  0  0  0  0  0  0
   29.0473  -27.5845  -27.9808 C   0  0  0  0  0  0  0  0  0  0  0  0
   29.6833  -27.4231  -26.7254 C   0  0  0  0  0  0  0  0  0  0  0  0
 12 13  1  0  0  0
 18 13  2  0  0  0
 18 17  1  0  0  0
 13 14  1  0  0  0
 17 16  2  0  0  0
 14 15  2  0  0  0
 15 16  1  0  0  0
 16 11  1  0  0  0
 11  1  1  0  0  0
  1  2  1  0  0  0
  1  6  1  0  0  0
 10  8  1  0  0  0
  3  2  2  0  0  0
  3  8  1  0  0  0
  2  4  1  0  0  0
  8  9  2  0  0  0
  6  5  1  0  0  0
  4  5  1  0  0  0
  4  7  1  0  0  0
M  CHG 1   8   1
M  CHG 1  10  -1
M  END
> <minimizedAffinity>
-6.24927

$$$$
3WTL_N1Y_A_301


 18 19  0  0  0  0  0  0  0  0999 V2000
   30.4864  -26.3896  -30.9079 N   0  0  0  0  0  0  0  0  0  0  0  0
   30.0226  -25.2898  -31.6394 C   0  0  0  0  0  0  0  0  0  0  0  0
   30.0651  -24.0007  -31.2364 C   0  0  0  0  0  0  0  0  0  0  0  0
   29.5224  -25.7625  -32.8270 N   0  0  0  0  0  0  0  0  0  0  0  0
   29.6147  -27.1951  -32.9767 C   0  0  0  0  0  0  0  0  0  0  0  0
   30.2818  -27.6475  -31.6563 C   0  0  0  0  0  0  0  0  0  0  0  0
   29.1347  -25.1760  -33.5161 H   0  0  0  0  0  0  0  0  0  0  0  0
   29.5725  -22.8869  -32.0233 N   0  0  0  0  0  0  0  0  0  0  0  0
   28.8978  -23.0747  -33.0582 O   0  0  0  0  0  0  0  0  0  0  0  0
   29.8753  -21.7764  -31.5817 O   0  0  0  0  0  0  0  0  0  0  0  0
   31.1109  -26.4546  -29.5852 C   0  0  0  0  0  0  0  0  0  0  0  0
   27.4629  -28.0067  -25.0432 Cl  0  0  0  0  0  0  0  0  0  0  0  0
   28.5140  -27.5265  -26.2924 C   0  0  0  0  0  0  0  0  0  0  0  0
   28.2212  -28.0396  -27.5376 N   0  0  0  0  0  0  0  0  0  0  0  0
   29.0581  -27.6828  -28.5758 C   0  0  0  0  0  0  0  0  0  0  0  0
   30.1847  -26.8273  -28.4289 C   0  0  0  0  0  0  0  0  0  0  0  0
   30.4304  -26.3253  -27.1154 C   0  0  0  0  0  0  0  0  0  0  0  0
   29.5917  -26.6722  -26.0278 C   0  0  0  0  0  0  0  0  0  0  0  0
 12 13  1  0  0  0
 18 13  2  0  0  0
 18 17  1  0  0  0
 13 14  1  0  0  0
 17 16  2  0  0  0
 14 15  2  0  0  0
 15 16  1  0  0  0
 16 11  1  0  0  0
 11  1  1  0  0  0
  1  2  1  0  0  0
  1  6  1  0  0  0
 10  8  1  0  0  0
  3  2  2  0  0  0
  3  8  1  0  0  0
  2  4  1  0  0  0
  8  9  2  0  0  0
  6  5  1  0  0  0
  4  5  1  0  0  0
  4  7  1  0  0  0
M  CHG 1   8   1
M  CHG 1  10  -1
M  END
> <minimizedAffinity>
-6.22535

$$$$
3WTL_N1Y_A_301


 18 19  0  0  0  0  0  0  0  0999 V2000
   29.9264  -26.6344  -29.1064 N   0  0  0  0  0  0  0  0  0  0  0  0
   29.9069  -26.4123  -30.4885 C   0  0  0  0  0  0  0  0  0  0  0  0
   29.8342  -27.3693  -31.4395 C   0  0  0  0  0  0  0  0  0  0  0  0
   29.9759  -25.0565  -30.6918 N   0  0  0  0  0  0  0  0  0  0  0  0
   30.0441  -24.2811  -29.4764 C   0  0  0  0  0  0  0  0  0  0  0  0
   30.0096  -25.3579  -28.3663 C   0  0  0  0  0  0  0  0  0  0  0  0
   29.9786  -24.6489  -31.5879 H   0  0  0  0  0  0  0  0  0  0  0  0
   29.8177  -27.0995  -32.8641 N   0  0  0  0  0  0  0  0  0  0  0  0
   29.2969  -26.0587  -33.3190 O   0  0  0  0  0  0  0  0  0  0  0  0
   30.3521  -27.9697  -33.5547 O   0  0  0  0  0  0  0  0  0  0  0  0
   29.8748  -27.8840  -28.3452 C   0  0  0  0  0  0  0  0  0  0  0  0
   25.0006  -28.7333  -24.9003 Cl  0  0  0  0  0  0  0  0  0  0  0  0
   26.3955  -28.4549  -25.8346 C   0  0  0  0  0  0  0  0  0  0  0  0
   26.3453  -28.9368  -27.1249 N   0  0  0  0  0  0  0  0  0  0  0  0
   27.4626  -28.7411  -27.9115 C   0  0  0  0  0  0  0  0  0  0  0  0
   28.6400  -28.0786  -27.4671 C   0  0  0  0  0  0  0  0  0  0  0  0
   28.6263  -27.5988  -26.1227 C   0  0  0  0  0  0  0  0  0  0  0  0
   27.4965  -27.7834  -25.2885 C   0  0  0  0  0  0  0  0  0  0  0  0
 12 13  1  0  0  0
 18 13  2  0  0  0
 18 17  1  0  0  0
 13 14  1  0  0  0
 17 16  2  0  0  0
 14 15  2  0  0  0
 15 16  1  0  0  0
 16 11  1  0  0  0
 11  1  1  0  0  0
  1  2  1  0  0  0
  1  6  1  0  0  0
 10  8  1  0  0  0
  3  2  2  0  0  0
  3  8  1  0  0  0
  2  4  1  0  0  0
  8  9  2  0  0  0
  6  5  1  0  0  0
  4  5  1  0  0  0
  4  7  1  0  0  0
M  CHG 1   8   1
M  CHG 1  10  -1
M  END
> <minimizedAffinity>
-5.74168

$$$$
3WTL_N1Y_A_301


 18 19  0  0  0  0  0  0  0  0999 V2000
   30.0130  -27.1107  -28.2825 N   0  0  0  0  0  0  0  0  0  0  0  0
   30.2386  -26.0248  -29.1367 C   0  0  0  0  0  0  0  0  0  0  0  0
   29.6057  -25.7997  -30.3091 C   0  0  0  0  0  0  0  0  0  0  0  0
   31.2119  -25.2432  -28.5660 N   0  0  0  0  0  0  0  0  0  0  0  0
   31.7022  -25.7410  -27.3031 C   0  0  0  0  0  0  0  0  0  0  0  0
   30.8817  -27.0349  -27.0892 C   0  0  0  0  0  0  0  0  0  0  0  0
   31.5462  -24.4156  -28.9815 H   0  0  0  0  0  0  0  0  0  0  0  0
   29.8682  -24.6618  -31.1687 N   0  0  0  0  0  0  0  0  0  0  0  0
   29.9455  -23.5046  -30.7038 O   0  0  0  0  0  0  0  0  0  0  0  0
   30.0039  -24.9435  -32.3612 O   0  0  0  0  0  0  0  0  0  0  0  0
   29.0870  -28.2382  -28.4049 C   0  0  0  0  0  0  0  0  0  0  0  0
   24.7925  -28.6717  -24.1959 Cl  0  0  0  0  0  0  0  0  0  0  0  0
   26.0312  -28.5100  -25.3515 C   0  0  0  0  0  0  0  0  0  0  0  0
   25.7550  -29.0489  -26.5896 N   0  0  0  0  0  0  0  0  0  0  0  0
   26.7399  -28.9484  -27.5514 C   0  0  0  0  0  0  0  0  0  0  0  0
   28.0008  -28.3272  -27.3344 C   0  0  0  0  0  0  0  0  0  0  0  0
   28.2226  -27.7845  -26.0329 C   0  0  0  0  0  0  0  0  0  0  0  0
   27.2333  -27.8711  -25.0228 C   0  0  0  0  0  0  0  0  0  0  0  0
 12 13  1  0  0  0
 18 13  2  0  0  0
 18 17  1  0  0  0
 13 14  1  0  0  0
 17 16  2  0  0  0
 14 15  2  0  0  0
 15 16  1  0  0  0
 16 11  1  0  0  0
 11  1  1  0  0  0
  1  2  1  0  0  0
  1  6  1  0  0  0
 10  8  1  0  0  0
  3  2  2  0  0  0
  3  8  1  0  0  0
  2  4  1  0  0  0
  8  9  2  0  0  0
  6  5  1  0  0  0
  4  5  1  0  0  0
  4  7  1  0  0  0
M  CHG 1   8   1
M  CHG 1  10  -1
M  END
> <minimizedAffinity>
-5.65984

$$$$
3WTL_N1Y_A_301


 18 19  0  0  0  0  0  0  0  0999 V2000
   30.3013  -26.1447  -29.5810 N   0  0  0  0  0  0  0  0  0  0  0  0
   30.2511  -26.2123  -30.9783 C   0  0  0  0  0  0  0  0  0  0  0  0
   30.4318  -27.3269  -31.7205 C   0  0  0  0  0  0  0  0  0  0  0  0
   29.9880  -24.9487  -31.4456 N   0  0  0  0  0  0  0  0  0  0  0  0
   29.8431  -23.9553  -30.4087 C   0  0  0  0  0  0  0  0  0  0  0  0
   30.0557  -24.7660  -29.1085 C   0  0  0  0  0  0  0  0  0  0  0  0
   29.9055  -24.7386  -32.4039 H   0  0  0  0  0  0  0  0  0  0  0  0
   30.3734  -27.3568  -33.1690 N   0  0  0  0  0  0  0  0  0  0  0  0
   29.8394  -28.3104  -33.7749 O   0  0  0  0  0  0  0  0  0  0  0  0
   30.8846  -26.3801  -33.7208 O   0  0  0  0  0  0  0  0  0  0  0  0
   30.5458  -27.1928  -28.5883 C   0  0  0  0  0  0  0  0  0  0  0  0
   25.8585  -28.7342  -25.1243 Cl  0  0  0  0  0  0  0  0  0  0  0  0
   27.1976  -28.2612  -26.0618 C   0  0  0  0  0  0  0  0  0  0  0  0
   27.1645  -28.6630  -27.3798 N   0  0  0  0  0  0  0  0  0  0  0  0
   28.2390  -28.3089  -28.1707 C   0  0  0  0  0  0  0  0  0  0  0  0
   29.3565  -27.5632  -27.7040 C   0  0  0  0  0  0  0  0  0  0  0  0
   29.3275  -27.1732  -26.3311 C   0  0  0  0  0  0  0  0  0  0  0  0
   28.2406  -27.5206  -25.4918 C   0  0  0  0  0  0  0  0  0  0  0  0
 12 13  1  0  0  0
 18 13  2  0  0  0
 18 17  1  0  0  0
 13 14  1  0  0  0
 17 16  2  0  0  0
 14 15  2  0  0  0
 15 16  1  0  0  0
 16 11  1  0  0  0
 11  1  1  0  0  0
  1  2  1  0  0  0
  1  6  1  0  0  0
 10  8  1  0  0  0
  3  2  2  0  0  0
  3  8  1  0  0  0
  2  4  1  0  0  0
  8  9  2  0  0  0
  6  5  1  0  0  0
  4  5  1  0  0  0
  4  7  1  0  0  0
M  CHG 1   8   1
M  CHG 1  10  -1
M  END
> <minimizedAffinity>
-5.60696

$$$$
3WTL_N1Y_A_301


 18 19  0  0  0  0  0  0  0  0999 V2000
   28.9634  -25.4692  -32.0329 N   0  0  0  0  0  0  0  0  0  0  0  0
   29.7037  -26.2048  -32.9660 C   0  0  0  0  0  0  0  0  0  0  0  0
   29.9456  -27.5329  -32.9094 C   0  0  0  0  0  0  0  0  0  0  0  0
   30.1325  -25.3329  -33.9356 N   0  0  0  0  0  0  0  0  0  0  0  0
   29.7148  -23.9672  -33.7265 C   0  0  0  0  0  0  0  0  0  0  0  0
   28.9018  -24.0422  -32.4125 C   0  0  0  0  0  0  0  0  0  0  0  0
   30.6771  -25.6143  -34.7059 H   0  0  0  0  0  0  0  0  0  0  0  0
   30.7198  -28.2605  -33.8963 N   0  0  0  0  0  0  0  0  0  0  0  0
   30.2667  -29.2883  -34.4439 O   0  0  0  0  0  0  0  0  0  0  0  0
   31.8294  -27.7778  -34.1317 O   0  0  0  0  0  0  0  0  0  0  0  0
   28.2822  -25.8994  -30.8104 C   0  0  0  0  0  0  0  0  0  0  0  0
   31.7801  -26.6507  -25.9578 Cl  0  0  0  0  0  0  0  0  0  0  0  0
   30.7834  -26.4954  -27.3284 C   0  0  0  0  0  0  0  0  0  0  0  0
   30.8731  -25.2882  -27.9874 N   0  0  0  0  0  0  0  0  0  0  0  0
   30.0711  -25.1187  -29.0980 C   0  0  0  0  0  0  0  0  0  0  0  0
   29.1752  -26.1084  -29.5886 C   0  0  0  0  0  0  0  0  0  0  0  0
   29.1334  -27.3380  -28.8647 C   0  0  0  0  0  0  0  0  0  0  0  0
   29.9425  -27.5444  -27.7205 C   0  0  0  0  0  0  0  0  0  0  0  0
 12 13  1  0  0  0
 18 13  2  0  0  0
 18 17  1  0  0  0
 13 14  1  0  0  0
 17 16  2  0  0  0
 14 15  2  0  0  0
 15 16  1  0  0  0
 16 11  1  0  0  0
 11  1  1  0  0  0
  1  2  1  0  0  0
  1  6  1  0  0  0
 10  8  1  0  0  0
  3  2  2  0  0  0
  3  8  1  0  0  0
  2  4  1  0  0  0
  8  9  2  0  0  0
  6  5  1  0  0  0
  4  5  1  0  0  0
  4  7  1  0  0  0
M  CHG 1   8   1
M  CHG 1  10  -1
M  END
> <minimizedAffinity>
-4.88253

$$$$
