4UFL_DZX_A_1001


 16 17  0  0  0  0  0  0  0  0999 V2000
   79.0879   88.9827   18.5713 C   0  0  0  0  0  0  0  0  0  0  0  0
   78.7140   89.1937   20.0710 C   0  0  0  0  0  0  0  0  0  0  0  0
   79.1026   88.0341   20.7409 O   0  0  0  0  0  0  0  0  0  0  0  0
   77.2205   89.4601   20.3921 C   0  0  0  0  0  0  0  0  0  0  0  0
   77.0254   88.9736   21.6918 O   0  0  0  0  0  0  0  0  0  0  0  0
   76.2654   88.7626   19.3831 C   0  0  0  0  0  0  0  0  0  0  0  0
   76.5045   87.2447   19.3761 C   0  0  0  0  0  0  0  0  0  0  0  0
   77.5303   86.9848   18.2695 C   0  0  0  0  0  0  0  0  0  0  0  0
   77.8992   88.3899   17.7704 C   0  0  0  0  0  0  0  0  0  0  0  0
   76.6209   89.1224   18.0060 N   0  0  0  0  0  0  0  0  0  0  0  0
   78.5998   87.2787   20.3979 H   0  0  0  0  0  0  0  0  0  0  0  0
   77.2403   88.0281   21.7188 H   0  0  0  0  0  0  0  0  0  0  0  0
   76.7565   90.1294   17.9162 H   0  0  0  0  0  0  0  0  0  0  0  0
   80.5519   88.0249   16.9610 O   0  0  0  0  0  0  0  0  0  0  0  0
   80.3759   88.1472   18.3472 C   0  0  0  0  0  0  0  0  0  0  0  0
   81.3514   87.5060   16.7810 H   0  0  0  0  0  0  0  0  0  0  0  0
 14 15  1  0  0  0
 15  1  1  0  0  0
  1  2  1  0  0  0
  1  9  1  0  0  0
  2  3  1  0  0  0
  2  4  1  0  0  0
  4  5  1  0  0  0
  4  6  1  0  0  0
  6  7  1  0  0  0
  6 10  1  0  0  0
  7  8  1  0  0  0
  8  9  1  0  0  0
  9 10  1  0  0  0
 14 16  1  0  0  0
  3 11  1  0  0  0
  5 12  1  0  0  0
 10 13  1  0  0  0
M  END
> <minimizedAffinity>
-7.43719

$$$$
4UFL_DZX_A_1001


 16 17  0  0  0  0  0  0  0  0999 V2000
   78.5091   88.3557   20.1844 C   0  0  0  0  0  0  0  0  0  0  0  0
   79.5659   88.7087   19.0926 C   0  0  0  0  0  0  0  0  0  0  0  0
   79.0866   89.8390   18.4313 O   0  0  0  0  0  0  0  0  0  0  0  0
   79.8699   87.6202   18.0309 C   0  0  0  0  0  0  0  0  0  0  0  0
   80.2665   88.3189   16.8826 O   0  0  0  0  0  0  0  0  0  0  0  0
   78.6381   86.7173   17.7404 C   0  0  0  0  0  0  0  0  0  0  0  0
   77.4527   87.5643   17.2517 C   0  0  0  0  0  0  0  0  0  0  0  0
   76.6421   87.9156   18.5023 C   0  0  0  0  0  0  0  0  0  0  0  0
   77.4710   87.3314   19.6560 C   0  0  0  0  0  0  0  0  0  0  0  0
   78.1053   86.1580   18.9877 N   0  0  0  0  0  0  0  0  0  0  0  0
   78.2469   89.6265   17.9947 H   0  0  0  0  0  0  0  0  0  0  0  0
   79.5518   88.9114   16.6017 H   0  0  0  0  0  0  0  0  0  0  0  0
   78.8542   85.7722   19.5628 H   0  0  0  0  0  0  0  0  0  0  0  0
   76.8940   89.1025   21.7615 O   0  0  0  0  0  0  0  0  0  0  0  0
   77.8012   89.5875   20.8079 C   0  0  0  0  0  0  0  0  0  0  0  0
   76.4302   89.8475   22.1747 H   0  0  0  0  0  0  0  0  0  0  0  0
 14 15  1  0  0  0
 15  1  1  0  0  0
  1  2  1  0  0  0
  1  9  1  0  0  0
  2  3  1  0  0  0
  2  4  1  0  0  0
  4  5  1  0  0  0
  4  6  1  0  0  0
  6  7  1  0  0  0
  6 10  1  0  0  0
  7  8  1  0  0  0
  8  9  1  0  0  0
  9 10  1  0  0  0
 14 16  1  0  0  0
  3 11  1  0  0  0
  5 12  1  0  0  0
 10 13  1  0  0  0
M  END
> <minimizedAffinity>
-7.03432

$$$$
4UFL_DZX_A_1001


 16 17  0  0  0  0  0  0  0  0999 V2000
   77.1726   88.9363   19.5552 C   0  0  0  0  0  0  0  0  0  0  0  0
   76.8641   88.1702   18.2318 C   0  0  0  0  0  0  0  0  0  0  0  0
   76.8052   86.8172   18.5644 O   0  0  0  0  0  0  0  0  0  0  0  0
   77.8770   88.3386   17.0698 C   0  0  0  0  0  0  0  0  0  0  0  0
   77.7911   87.1548   16.3248 O   0  0  0  0  0  0  0  0  0  0  0  0
   79.3265   88.5767   17.5790 C   0  0  0  0  0  0  0  0  0  0  0  0
   79.7845   87.4085   18.4660 C   0  0  0  0  0  0  0  0  0  0  0  0
   79.4339   87.8074   19.9021 C   0  0  0  0  0  0  0  0  0  0  0  0
   78.6978   89.1462   19.7444 C   0  0  0  0  0  0  0  0  0  0  0  0
   79.3611   89.6963   18.5265 N   0  0  0  0  0  0  0  0  0  0  0  0
   77.6692   86.5282   18.8973 H   0  0  0  0  0  0  0  0  0  0  0  0
   78.0105   86.3991   16.8920 H   0  0  0  0  0  0  0  0  0  0  0  0
   78.8461   90.4978   18.1620 H   0  0  0  0  0  0  0  0  0  0  0  0
   76.8660   89.1298   21.9051 O   0  0  0  0  0  0  0  0  0  0  0  0
   76.5415   88.3000   20.8217 C   0  0  0  0  0  0  0  0  0  0  0  0
   76.4866   88.7624   22.7188 H   0  0  0  0  0  0  0  0  0  0  0  0
 14 15  1  0  0  0
 15  1  1  0  0  0
  1  2  1  0  0  0
  1  9  1  0  0  0
  2  3  1  0  0  0
  2  4  1  0  0  0
  4  5  1  0  0  0
  4  6  1  0  0  0
  6  7  1  0  0  0
  6 10  1  0  0  0
  7  8  1  0  0  0
  8  9  1  0  0  0
  9 10  1  0  0  0
 14 16  1  0  0  0
  3 11  1  0  0  0
  5 12  1  0  0  0
 10 13  1  0  0  0
M  END
> <minimizedAffinity>
-6.85218

$$$$
4UFL_DZX_A_1001


 16 17  0  0  0  0  0  0  0  0999 V2000
   77.2040   86.8150   18.7329 C   0  0  0  0  0  0  0  0  0  0  0  0
   76.5711   88.1804   19.1435 C   0  0  0  0  0  0  0  0  0  0  0  0
   76.5800   88.9785   18.0000 O   0  0  0  0  0  0  0  0  0  0  0  0
   77.2694   88.9637   20.2851 C   0  0  0  0  0  0  0  0  0  0  0  0
   76.9894   90.3142   20.0372 O   0  0  0  0  0  0  0  0  0  0  0  0
   78.8022   88.7072   20.3264 C   0  0  0  0  0  0  0  0  0  0  0  0
   79.4505   89.1019   18.9902 C   0  0  0  0  0  0  0  0  0  0  0  0
   79.4681   87.8296   18.1385 C   0  0  0  0  0  0  0  0  0  0  0  0
   78.7313   86.7959   19.0033 C   0  0  0  0  0  0  0  0  0  0  0  0
   79.0814   87.2677   20.3747 N   0  0  0  0  0  0  0  0  0  0  0  0
   77.4959   89.1317   17.7198 H   0  0  0  0  0  0  0  0  0  0  0  0
   77.3327   90.5606   19.1640 H   0  0  0  0  0  0  0  0  0  0  0  0
   78.5020   86.8078   21.0770 H   0  0  0  0  0  0  0  0  0  0  0  0
   75.7283   85.6065   17.3132 O   0  0  0  0  0  0  0  0  0  0  0  0
   76.8961   86.3827   17.2749 C   0  0  0  0  0  0  0  0  0  0  0  0
   75.5033   85.3165   16.4153 H   0  0  0  0  0  0  0  0  0  0  0  0
 14 15  1  0  0  0
 15  1  1  0  0  0
  1  2  1  0  0  0
  1  9  1  0  0  0
  2  3  1  0  0  0
  2  4  1  0  0  0
  4  5  1  0  0  0
  4  6  1  0  0  0
  6  7  1  0  0  0
  6 10  1  0  0  0
  7  8  1  0  0  0
  8  9  1  0  0  0
  9 10  1  0  0  0
 14 16  1  0  0  0
  3 11  1  0  0  0
  5 12  1  0  0  0
 10 13  1  0  0  0
M  END
> <minimizedAffinity>
-6.83817

$$$$
4UFL_DZX_A_1001


 16 17  0  0  0  0  0  0  0  0999 V2000
   76.9626   87.2745   18.2589 C   0  0  0  0  0  0  0  0  0  0  0  0
   78.0918   87.5179   17.2106 C   0  0  0  0  0  0  0  0  0  0  0  0
   78.8962   86.3790   17.2262 O   0  0  0  0  0  0  0  0  0  0  0  0
   79.0007   88.7547   17.4311 C   0  0  0  0  0  0  0  0  0  0  0  0
   80.2312   88.4227   16.8484 O   0  0  0  0  0  0  0  0  0  0  0  0
   79.1692   89.1036   18.9367 C   0  0  0  0  0  0  0  0  0  0  0  0
   79.7649   87.9119   19.7024 C   0  0  0  0  0  0  0  0  0  0  0  0
   78.5714   87.1125   20.2323 C   0  0  0  0  0  0  0  0  0  0  0  0
   77.3510   87.8409   19.6498 C   0  0  0  0  0  0  0  0  0  0  0  0
   77.8589   89.2421   19.5819 N   0  0  0  0  0  0  0  0  0  0  0  0
   79.3007   86.2809   18.1024 H   0  0  0  0  0  0  0  0  0  0  0  0
   80.5877   87.6284   17.2762 H   0  0  0  0  0  0  0  0  0  0  0  0
   77.2381   89.8278   19.0234 H   0  0  0  0  0  0  0  0  0  0  0  0
   75.9046   85.4551   17.1525 O   0  0  0  0  0  0  0  0  0  0  0  0
   76.5068   85.7958   18.3727 C   0  0  0  0  0  0  0  0  0  0  0  0
   75.6054   84.5330   17.1859 H   0  0  0  0  0  0  0  0  0  0  0  0
 14 15  1  0  0  0
 15  1  1  0  0  0
  1  2  1  0  0  0
  1  9  1  0  0  0
  2  3  1  0  0  0
  2  4  1  0  0  0
  4  5  1  0  0  0
  4  6  1  0  0  0
  6  7  1  0  0  0
  6 10  1  0  0  0
  7  8  1  0  0  0
  8  9  1  0  0  0
  9 10  1  0  0  0
 14 16  1  0  0  0
  3 11  1  0  0  0
  5 12  1  0  0  0
 10 13  1  0  0  0
M  END
> <minimizedAffinity>
-6.46473

$$$$
4UFL_DZX_A_1001


 16 17  0  0  0  0  0  0  0  0999 V2000
   77.0460   88.8915   18.5872 C   0  0  0  0  0  0  0  0  0  0  0  0
   77.2671   87.4656   17.9946 C   0  0  0  0  0  0  0  0  0  0  0  0
   77.0035   86.5650   19.0261 O   0  0  0  0  0  0  0  0  0  0  0  0
   78.6753   87.1513   17.4266 C   0  0  0  0  0  0  0  0  0  0  0  0
   78.8388   85.7677   17.5778 O   0  0  0  0  0  0  0  0  0  0  0  0
   79.7985   87.9326   18.1648 C   0  0  0  0  0  0  0  0  0  0  0  0
   79.7877   87.6019   19.6655 C   0  0  0  0  0  0  0  0  0  0  0  0
   78.9005   88.6619   20.3241 C   0  0  0  0  0  0  0  0  0  0  0  0
   78.3678   89.4846   19.1414 C   0  0  0  0  0  0  0  0  0  0  0  0
   79.5015   89.3693   18.1784 N   0  0  0  0  0  0  0  0  0  0  0  0
   77.6375   86.7044   19.7469 H   0  0  0  0  0  0  0  0  0  0  0  0
   78.7647   85.5340   18.5163 H   0  0  0  0  0  0  0  0  0  0  0  0
   79.2260   89.6929   17.2511 H   0  0  0  0  0  0  0  0  0  0  0  0
   75.5307   90.3180   19.7374 O   0  0  0  0  0  0  0  0  0  0  0  0
   75.9169   88.9725   19.6484 C   0  0  0  0  0  0  0  0  0  0  0  0
   74.8229   90.4084   20.3944 H   0  0  0  0  0  0  0  0  0  0  0  0
 14 15  1  0  0  0
 15  1  1  0  0  0
  1  2  1  0  0  0
  1  9  1  0  0  0
  2  3  1  0  0  0
  2  4  1  0  0  0
  4  5  1  0  0  0
  4  6  1  0  0  0
  6  7  1  0  0  0
  6 10  1  0  0  0
  7  8  1  0  0  0
  8  9  1  0  0  0
  9 10  1  0  0  0
 14 16  1  0  0  0
  3 11  1  0  0  0
  5 12  1  0  0  0
 10 13  1  0  0  0
M  END
> <minimizedAffinity>
-6.45284

$$$$
4UFL_DZX_A_1001


 16 17  0  0  0  0  0  0  0  0999 V2000
   77.7662   86.4244   19.5903 C   0  0  0  0  0  0  0  0  0  0  0  0
   76.6995   87.4359   19.0681 C   0  0  0  0  0  0  0  0  0  0  0  0
   76.8142   87.4470   17.6785 O   0  0  0  0  0  0  0  0  0  0  0  0
   76.8102   88.8975   19.5740 C   0  0  0  0  0  0  0  0  0  0  0  0
   76.2578   89.6876   18.5569 O   0  0  0  0  0  0  0  0  0  0  0  0
   78.2793   89.3110   19.8699 C   0  0  0  0  0  0  0  0  0  0  0  0
   79.1459   89.1590   18.6100 C   0  0  0  0  0  0  0  0  0  0  0  0
   79.7448   87.7515   18.6779 C   0  0  0  0  0  0  0  0  0  0  0  0
   79.1018   87.1364   19.9299 C   0  0  0  0  0  0  0  0  0  0  0  0
   78.9111   88.3483   20.7790 N   0  0  0  0  0  0  0  0  0  0  0  0
   77.6952   87.7673   17.4293 H   0  0  0  0  0  0  0  0  0  0  0  0
   76.7531   89.5488   17.7346 H   0  0  0  0  0  0  0  0  0  0  0  0
   78.3040   88.1447   21.5730 H   0  0  0  0  0  0  0  0  0  0  0  0
   76.7653   84.6018   18.4369 O   0  0  0  0  0  0  0  0  0  0  0  0
   78.0093   85.2134   18.6513 C   0  0  0  0  0  0  0  0  0  0  0  0
   76.8778   83.8367   17.8514 H   0  0  0  0  0  0  0  0  0  0  0  0
 14 15  1  0  0  0
 15  1  1  0  0  0
  1  2  1  0  0  0
  1  9  1  0  0  0
  2  3  1  0  0  0
  2  4  1  0  0  0
  4  5  1  0  0  0
  4  6  1  0  0  0
  6  7  1  0  0  0
  6 10  1  0  0  0
  7  8  1  0  0  0
  8  9  1  0  0  0
  9 10  1  0  0  0
 14 16  1  0  0  0
  3 11  1  0  0  0
  5 12  1  0  0  0
 10 13  1  0  0  0
M  END
> <minimizedAffinity>
-6.40032

$$$$
4UFL_DZX_A_1001


 16 17  0  0  0  0  0  0  0  0999 V2000
   79.0339   87.3643   18.2634 C   0  0  0  0  0  0  0  0  0  0  0  0
   77.8484   88.2750   17.8176 C   0  0  0  0  0  0  0  0  0  0  0  0
   78.3415   89.5791   17.7916 O   0  0  0  0  0  0  0  0  0  0  0  0
   76.5763   88.2569   18.7041 C   0  0  0  0  0  0  0  0  0  0  0  0
   75.9881   89.5181   18.5392 O   0  0  0  0  0  0  0  0  0  0  0  0
   76.9016   87.9810   20.1992 C   0  0  0  0  0  0  0  0  0  0  0  0
   77.8674   89.0442   20.7453 C   0  0  0  0  0  0  0  0  0  0  0  0
   79.2753   88.4761   20.5469 C   0  0  0  0  0  0  0  0  0  0  0  0
   79.0387   87.1547   19.8003 C   0  0  0  0  0  0  0  0  0  0  0  0
   77.7027   86.7593   20.3339 N   0  0  0  0  0  0  0  0  0  0  0  0
   78.6150   89.8392   18.6851 H   0  0  0  0  0  0  0  0  0  0  0  0
   76.6142   90.2055   18.8154 H   0  0  0  0  0  0  0  0  0  0  0  0
   77.3019   85.9987   19.7850 H   0  0  0  0  0  0  0  0  0  0  0  0
   80.2289   88.4573   16.5224 O   0  0  0  0  0  0  0  0  0  0  0  0
   80.4246   87.8401   17.7667 C   0  0  0  0  0  0  0  0  0  0  0  0
   81.0806   88.7693   16.1787 H   0  0  0  0  0  0  0  0  0  0  0  0
 14 15  1  0  0  0
 15  1  1  0  0  0
  1  2  1  0  0  0
  1  9  1  0  0  0
  2  3  1  0  0  0
  2  4  1  0  0  0
  4  5  1  0  0  0
  4  6  1  0  0  0
  6  7  1  0  0  0
  6 10  1  0  0  0
  7  8  1  0  0  0
  8  9  1  0  0  0
  9 10  1  0  0  0
 14 16  1  0  0  0
  3 11  1  0  0  0
  5 12  1  0  0  0
 10 13  1  0  0  0
M  END
> <minimizedAffinity>
-6.23192

$$$$
4UFL_DZX_A_1001


 16 17  0  0  0  0  0  0  0  0999 V2000
   76.8702   88.2694   19.5030 C   0  0  0  0  0  0  0  0  0  0  0  0
   77.2838   86.7921   19.7857 C   0  0  0  0  0  0  0  0  0  0  0  0
   78.5105   86.8459   20.4464 O   0  0  0  0  0  0  0  0  0  0  0  0
   77.4369   85.8579   18.5575 C   0  0  0  0  0  0  0  0  0  0  0  0
   78.3831   84.8959   18.9356 O   0  0  0  0  0  0  0  0  0  0  0  0
   77.8945   86.6247   17.2849 C   0  0  0  0  0  0  0  0  0  0  0  0
   79.2353   87.3324   17.5355 C   0  0  0  0  0  0  0  0  0  0  0  0
   78.8838   88.7450   18.0104 C   0  0  0  0  0  0  0  0  0  0  0  0
   77.3506   88.7328   18.1028 C   0  0  0  0  0  0  0  0  0  0  0  0
   77.0061   87.7625   17.0231 N   0  0  0  0  0  0  0  0  0  0  0  0
   79.1738   87.2490   19.8646 H   0  0  0  0  0  0  0  0  0  0  0  0
   79.2171   85.3352   19.1647 H   0  0  0  0  0  0  0  0  0  0  0  0
   76.0273   87.4819   17.0845 H   0  0  0  0  0  0  0  0  0  0  0  0
   76.7181   88.8617   21.8008 O   0  0  0  0  0  0  0  0  0  0  0  0
   77.3112   89.2754   20.5988 C   0  0  0  0  0  0  0  0  0  0  0  0
   76.9722   89.4695   22.5127 H   0  0  0  0  0  0  0  0  0  0  0  0
 14 15  1  0  0  0
 15  1  1  0  0  0
  1  2  1  0  0  0
  1  9  1  0  0  0
  2  3  1  0  0  0
  2  4  1  0  0  0
  4  5  1  0  0  0
  4  6  1  0  0  0
  6  7  1  0  0  0
  6 10  1  0  0  0
  7  8  1  0  0  0
  8  9  1  0  0  0
  9 10  1  0  0  0
 14 16  1  0  0  0
  3 11  1  0  0  0
  5 12  1  0  0  0
 10 13  1  0  0  0
M  END
> <minimizedAffinity>
-6.23050

$$$$
4UFL_DZX_A_1001


 16 17  0  0  0  0  0  0  0  0999 V2000
   78.4069   88.6266   19.4697 C   0  0  0  0  0  0  0  0  0  0  0  0
   77.6784   88.9748   18.1350 C   0  0  0  0  0  0  0  0  0  0  0  0
   76.3159   89.0152   18.4287 O   0  0  0  0  0  0  0  0  0  0  0  0
   77.8879   88.0020   16.9457 C   0  0  0  0  0  0  0  0  0  0  0  0
   76.7262   88.1063   16.1688 O   0  0  0  0  0  0  0  0  0  0  0  0
   78.1201   86.5377   17.4134 C   0  0  0  0  0  0  0  0  0  0  0  0
   76.9290   86.0441   18.2495 C   0  0  0  0  0  0  0  0  0  0  0  0
   77.2827   86.3489   19.7077 C   0  0  0  0  0  0  0  0  0  0  0  0
   78.6209   87.0971   19.6146 C   0  0  0  0  0  0  0  0  0  0  0  0
   79.2112   86.4778   18.3923 N   0  0  0  0  0  0  0  0  0  0  0  0
   76.0227   88.1390   18.7241 H   0  0  0  0  0  0  0  0  0  0  0  0
   75.9554   87.8640   16.7056 H   0  0  0  0  0  0  0  0  0  0  0  0
   80.0198   87.0089   18.0692 H   0  0  0  0  0  0  0  0  0  0  0  0
   77.7000   90.6056   20.5822 O   0  0  0  0  0  0  0  0  0  0  0  0
   77.7293   89.2117   20.7369 C   0  0  0  0  0  0  0  0  0  0  0  0
   77.2812   91.0083   21.3590 H   0  0  0  0  0  0  0  0  0  0  0  0
 14 15  1  0  0  0
 15  1  1  0  0  0
  1  2  1  0  0  0
  1  9  1  0  0  0
  2  3  1  0  0  0
  2  4  1  0  0  0
  4  5  1  0  0  0
  4  6  1  0  0  0
  6  7  1  0  0  0
  6 10  1  0  0  0
  7  8  1  0  0  0
  8  9  1  0  0  0
  9 10  1  0  0  0
 14 16  1  0  0  0
  3 11  1  0  0  0
  5 12  1  0  0  0
 10 13  1  0  0  0
M  END
> <minimizedAffinity>
-6.01389

$$$$
