1NFW_RRR_A_301


 29 32  0  0  0  0  0  0  0  0999 V2000
    5.2825    4.7778   21.3069 N   0  0  0  0  0  0  0  0  0  0  0  0
    4.7614    5.1020   22.5431 C   0  0  0  0  0  0  0  0  0  0  0  0
    4.0486    4.3484   23.2017 O   0  0  0  0  0  0  0  0  0  0  0  0
    5.1131    6.5035   23.0795 C   0  0  0  0  0  0  0  0  0  0  0  0
    5.9277    7.3886   22.1124 N   0  0  0  0  0  0  0  0  0  0  0  0
    6.7866    6.7856   21.3297 C   0  0  0  0  0  0  0  0  0  0  0  0
    6.1432    5.6674   20.4894 C   0  0  0  0  0  0  0  0  0  0  0  0
    6.5953    8.7968   23.1073 S   0  0  0  0  0  0  0  0  0  0  0  0
    5.6284    8.9442   24.1661 O   0  0  0  0  0  0  0  0  0  0  0  0
    6.5747    9.6498   21.9608 O   0  0  0  0  0  0  0  0  0  0  0  0
    8.2040    8.7351   23.7505 C   0  0  0  0  0  0  0  0  0  0  0  0
    8.3828    8.0601   24.8915 C   0  0  0  0  0  0  0  0  0  0  0  0
    9.6705    7.8306   25.5511 C   0  0  0  0  0  0  0  0  0  0  0  0
    9.7426    7.0378   26.7601 C   0  0  0  0  0  0  0  0  0  0  0  0
   11.0816    6.9046   27.2368 C   0  0  0  0  0  0  0  0  0  0  0  0
   12.0145    7.5997   26.3789 C   0  0  0  0  0  0  0  0  0  0  0  0
   13.7140    7.6037   26.6707 Cl  0  0  0  0  0  0  0  0  0  0  0  0
   11.2279    8.3847   25.0547 S   0  0  0  0  0  0  0  0  0  0  0  0
    4.9661    3.4637   20.7227 C   0  0  0  0  0  0  0  0  0  0  0  0
    5.7807    2.2093   18.7271 N   0  0  0  0  0  0  0  0  0  0  0  0
    6.9017    1.5489   18.2678 C   0  0  0  0  0  0  0  0  0  0  0  0
    7.9064    1.6545   19.3067 C   0  0  0  0  0  0  0  0  0  0  0  0
    9.1709    1.0373   19.0687 C   0  0  0  0  0  0  0  0  0  0  0  0
    9.3912    0.3823   17.8941 N   0  0  0  0  0  0  0  0  0  0  0  0
    8.4700    0.2685   16.9013 C   0  0  0  0  0  0  0  0  0  0  0  0
    7.1763    0.8544   17.0517 C   0  0  0  0  0  0  0  0  0  0  0  0
    7.3544    2.3847   20.3786 C   0  0  0  0  0  0  0  0  0  0  0  0
    6.0404    2.7003   19.9633 C   0  0  0  0  0  0  0  0  0  0  0  0
    4.9323    2.3076   18.2375 H   0  0  0  0  0  0  0  0  0  0  0  0
 20 21  1  0  0  0
 20 28  1  0  0  0
 21 22  2  0  0  0
 21 26  1  0  0  0
 22 23  1  0  0  0
 22 27  1  0  0  0
 23 24  2  0  0  0
 24 25  1  0  0  0
 25 26  2  0  0  0
 27 28  2  0  0  0
 28 19  1  0  0  0
 19  1  1  0  0  0
  1  2  1  0  0  0
  1  7  1  0  0  0
  2  3  2  0  0  0
  2  4  1  0  0  0
  4  5  1  0  0  0
  5  6  1  0  0  0
  5  8  1  0  0  0
  6  7  1  0  0  0
  8  9  2  0  0  0
  8 10  2  0  0  0
  8 11  1  0  0  0
 11 12  2  0  0  0
 12 13  1  0  0  0
 13 14  2  0  0  0
 13 18  1  0  0  0
 14 15  1  0  0  0
 15 16  2  0  0  0
 16 17  1  0  0  0
 16 18  1  0  0  0
 20 29  1  0  0  0
M  END
> <minimizedAffinity>
-9.64948

$$$$
1NFW_RRR_A_301


 29 32  0  0  0  0  0  0  0  0999 V2000
    6.2659    7.6791   22.4611 N   0  0  0  0  0  0  0  0  0  0  0  0
    6.6671    7.3595   21.1798 C   0  0  0  0  0  0  0  0  0  0  0  0
    7.5743    7.9367   20.5853 O   0  0  0  0  0  0  0  0  0  0  0  0
    5.8954    6.2147   20.4946 C   0  0  0  0  0  0  0  0  0  0  0  0
    4.7141    5.6438   21.3074 N   0  0  0  0  0  0  0  0  0  0  0  0
    4.8410    5.6195   22.6102 C   0  0  0  0  0  0  0  0  0  0  0  0
    5.1737    7.0016   23.2017 C   0  0  0  0  0  0  0  0  0  0  0  0
    4.2415    4.0419   20.5143 S   0  0  0  0  0  0  0  0  0  0  0  0
    3.6075    4.4525   19.2867 O   0  0  0  0  0  0  0  0  0  0  0  0
    3.4702    3.6732   21.6595 O   0  0  0  0  0  0  0  0  0  0  0  0
    5.4375    2.8245   20.2091 C   0  0  0  0  0  0  0  0  0  0  0  0
    6.0564    2.8563   19.0236 C   0  0  0  0  0  0  0  0  0  0  0  0
    7.1426    1.9661   18.6070 C   0  0  0  0  0  0  0  0  0  0  0  0
    8.3282    1.8252   19.4254 C   0  0  0  0  0  0  0  0  0  0  0  0
    9.2583    0.8959   18.8693 C   0  0  0  0  0  0  0  0  0  0  0  0
    8.7643    0.3386   17.6304 C   0  0  0  0  0  0  0  0  0  0  0  0
    9.6456   -0.8374   16.7281 Cl  0  0  0  0  0  0  0  0  0  0  0  0
    7.2155    0.9726   17.1976 S   0  0  0  0  0  0  0  0  0  0  0  0
    6.9435    8.7800   23.1662 C   0  0  0  0  0  0  0  0  0  0  0  0
    8.0633    7.6960   25.1131 N   0  0  0  0  0  0  0  0  0  0  0  0
    9.3017    7.6027   25.7142 C   0  0  0  0  0  0  0  0  0  0  0  0
   10.2162    8.3949   24.9168 C   0  0  0  0  0  0  0  0  0  0  0  0
   11.5766    8.4624   25.3426 C   0  0  0  0  0  0  0  0  0  0  0  0
   11.9667    7.7913   26.4629 N   0  0  0  0  0  0  0  0  0  0  0  0
   11.1331    7.0394   27.2290 C   0  0  0  0  0  0  0  0  0  0  0  0
    9.7541    6.9146   26.8797 C   0  0  0  0  0  0  0  0  0  0  0  0
    9.4927    8.9524   23.8432 C   0  0  0  0  0  0  0  0  0  0  0  0
    8.1695    8.4859   24.0170 C   0  0  0  0  0  0  0  0  0  0  0  0
    7.2385    7.2606   25.4285 H   0  0  0  0  0  0  0  0  0  0  0  0
 20 21  1  0  0  0
 20 28  1  0  0  0
 21 22  2  0  0  0
 21 26  1  0  0  0
 22 23  1  0  0  0
 22 27  1  0  0  0
 23 24  2  0  0  0
 24 25  1  0  0  0
 25 26  2  0  0  0
 27 28  2  0  0  0
 28 19  1  0  0  0
 19  1  1  0  0  0
  1  2  1  0  0  0
  1  7  1  0  0  0
  2  3  2  0  0  0
  2  4  1  0  0  0
  4  5  1  0  0  0
  5  6  1  0  0  0
  5  8  1  0  0  0
  6  7  1  0  0  0
  8  9  2  0  0  0
  8 10  2  0  0  0
  8 11  1  0  0  0
 11 12  2  0  0  0
 12 13  1  0  0  0
 13 14  2  0  0  0
 13 18  1  0  0  0
 14 15  1  0  0  0
 15 16  2  0  0  0
 16 17  1  0  0  0
 16 18  1  0  0  0
 20 29  1  0  0  0
M  END
> <minimizedAffinity>
-9.48025

$$$$
1NFW_RRR_A_301


 29 32  0  0  0  0  0  0  0  0999 V2000
    7.2242    7.9678   22.6594 N   0  0  0  0  0  0  0  0  0  0  0  0
    7.6421    7.4247   21.4615 C   0  0  0  0  0  0  0  0  0  0  0  0
    8.7072    7.7085   20.9187 O   0  0  0  0  0  0  0  0  0  0  0  0
    6.6785    6.4191   20.8014 C   0  0  0  0  0  0  0  0  0  0  0  0
    5.3316    6.2285   21.5307 N   0  0  0  0  0  0  0  0  0  0  0  0
    5.3404    6.3203   22.8366 C   0  0  0  0  0  0  0  0  0  0  0  0
    5.9440    7.6457   23.3361 C   0  0  0  0  0  0  0  0  0  0  0  0
    4.5568    4.7002   20.8359 S   0  0  0  0  0  0  0  0  0  0  0  0
    3.8447    5.1840   19.6799 O   0  0  0  0  0  0  0  0  0  0  0  0
    3.8824    4.4501   22.0709 O   0  0  0  0  0  0  0  0  0  0  0  0
    5.5329    3.3278   20.4245 C   0  0  0  0  0  0  0  0  0  0  0  0
    6.1878    3.3683   19.2587 C   0  0  0  0  0  0  0  0  0  0  0  0
    7.1163    2.3468   18.7688 C   0  0  0  0  0  0  0  0  0  0  0  0
    8.3171    2.0317   19.5133 C   0  0  0  0  0  0  0  0  0  0  0  0
    9.0779    0.9951   18.8930 C   0  0  0  0  0  0  0  0  0  0  0  0
    8.4416    0.5324   17.6804 C   0  0  0  0  0  0  0  0  0  0  0  0
    9.1004   -0.7356   16.7151 Cl  0  0  0  0  0  0  0  0  0  0  0  0
    6.9712    1.3783   17.3476 S   0  0  0  0  0  0  0  0  0  0  0  0
    8.0847    8.9548   23.3330 C   0  0  0  0  0  0  0  0  0  0  0  0
   10.4233    8.6676   24.1503 N   0  0  0  0  0  0  0  0  0  0  0  0
   11.1223    8.1448   25.2188 C   0  0  0  0  0  0  0  0  0  0  0  0
   10.1409    7.6141   26.1434 C   0  0  0  0  0  0  0  0  0  0  0  0
   10.6221    7.0063   27.3416 C   0  0  0  0  0  0  0  0  0  0  0  0
   11.9634    6.9467   27.5758 N   0  0  0  0  0  0  0  0  0  0  0  0
   12.9067    7.4371   26.7292 C   0  0  0  0  0  0  0  0  0  0  0  0
   12.5179    8.0622   25.5055 C   0  0  0  0  0  0  0  0  0  0  0  0
    8.8599    7.8338   25.5977 C   0  0  0  0  0  0  0  0  0  0  0  0
    9.0976    8.4875   24.3670 C   0  0  0  0  0  0  0  0  0  0  0  0
   10.8218    9.1001   23.3608 H   0  0  0  0  0  0  0  0  0  0  0  0
 20 21  1  0  0  0
 20 28  1  0  0  0
 21 22  2  0  0  0
 21 26  1  0  0  0
 22 23  1  0  0  0
 22 27  1  0  0  0
 23 24  2  0  0  0
 24 25  1  0  0  0
 25 26  2  0  0  0
 27 28  2  0  0  0
 28 19  1  0  0  0
 19  1  1  0  0  0
  1  2  1  0  0  0
  1  7  1  0  0  0
  2  3  2  0  0  0
  2  4  1  0  0  0
  4  5  1  0  0  0
  5  6  1  0  0  0
  5  8  1  0  0  0
  6  7  1  0  0  0
  8  9  2  0  0  0
  8 10  2  0  0  0
  8 11  1  0  0  0
 11 12  2  0  0  0
 12 13  1  0  0  0
 13 14  2  0  0  0
 13 18  1  0  0  0
 14 15  1  0  0  0
 15 16  2  0  0  0
 16 17  1  0  0  0
 16 18  1  0  0  0
 20 29  1  0  0  0
M  END
> <minimizedAffinity>
-9.14944

$$$$
1NFW_RRR_A_301


 29 32  0  0  0  0  0  0  0  0999 V2000
    6.3688    7.6977   23.1398 N   0  0  0  0  0  0  0  0  0  0  0  0
    5.1664    7.3986   23.7476 C   0  0  0  0  0  0  0  0  0  0  0  0
    4.7336    7.9924   24.7323 O   0  0  0  0  0  0  0  0  0  0  0  0
    4.3634    6.2393   23.1255 C   0  0  0  0  0  0  0  0  0  0  0  0
    5.0638    5.5104   21.9592 N   0  0  0  0  0  0  0  0  0  0  0  0
    5.8294    6.2298   21.1780 C   0  0  0  0  0  0  0  0  0  0  0  0
    6.9166    6.9970   21.9526 C   0  0  0  0  0  0  0  0  0  0  0  0
    3.7736    4.4947   21.1091 S   0  0  0  0  0  0  0  0  0  0  0  0
    2.6814    5.4194   20.9381 O   0  0  0  0  0  0  0  0  0  0  0  0
    3.7808    3.5454   22.1774 O   0  0  0  0  0  0  0  0  0  0  0  0
    4.1316    3.6863   19.6178 C   0  0  0  0  0  0  0  0  0  0  0  0
    5.1878    2.8654   19.6034 C   0  0  0  0  0  0  0  0  0  0  0  0
    5.6070    2.0386   18.4692 C   0  0  0  0  0  0  0  0  0  0  0  0
    7.0043    1.7123   18.2782 C   0  0  0  0  0  0  0  0  0  0  0  0
    7.2108    0.8779   17.1384 C   0  0  0  0  0  0  0  0  0  0  0  0
    5.9616    0.5781   16.4757 C   0  0  0  0  0  0  0  0  0  0  0  0
    5.8729   -0.4317   15.0808 Cl  0  0  0  0  0  0  0  0  0  0  0  0
    4.6109    1.3265   17.2528 S   0  0  0  0  0  0  0  0  0  0  0  0
    7.1996    8.7781   23.6973 C   0  0  0  0  0  0  0  0  0  0  0  0
    8.4505    7.6636   25.5447 N   0  0  0  0  0  0  0  0  0  0  0  0
    9.7356    7.5168   26.0248 C   0  0  0  0  0  0  0  0  0  0  0  0
   10.6049    8.2537   25.1298 C   0  0  0  0  0  0  0  0  0  0  0  0
   12.0020    8.2594   25.4210 C   0  0  0  0  0  0  0  0  0  0  0  0
   12.4667    7.5832   26.5093 N   0  0  0  0  0  0  0  0  0  0  0  0
   11.6767    6.8822   27.3647 C   0  0  0  0  0  0  0  0  0  0  0  0
   10.2659    6.8211   27.1523 C   0  0  0  0  0  0  0  0  0  0  0  0
    9.8078    8.8333   24.1220 C   0  0  0  0  0  0  0  0  0  0  0  0
    8.4871    8.4343   24.4305 C   0  0  0  0  0  0  0  0  0  0  0  0
    7.6405    7.2729   25.9453 H   0  0  0  0  0  0  0  0  0  0  0  0
 20 21  1  0  0  0
 20 28  1  0  0  0
 21 22  2  0  0  0
 21 26  1  0  0  0
 22 23  1  0  0  0
 22 27  1  0  0  0
 23 24  2  0  0  0
 24 25  1  0  0  0
 25 26  2  0  0  0
 27 28  2  0  0  0
 28 19  1  0  0  0
 19  1  1  0  0  0
  1  2  1  0  0  0
  1  7  1  0  0  0
  2  3  2  0  0  0
  2  4  1  0  0  0
  4  5  1  0  0  0
  5  6  1  0  0  0
  5  8  1  0  0  0
  6  7  1  0  0  0
  8  9  2  0  0  0
  8 10  2  0  0  0
  8 11  1  0  0  0
 11 12  2  0  0  0
 12 13  1  0  0  0
 13 14  2  0  0  0
 13 18  1  0  0  0
 14 15  1  0  0  0
 15 16  2  0  0  0
 16 17  1  0  0  0
 16 18  1  0  0  0
 20 29  1  0  0  0
M  END
> <minimizedAffinity>
-8.25431

$$$$
1NFW_RRR_A_301


 29 32  0  0  0  0  0  0  0  0999 V2000
    4.7881    4.9265   20.6745 N   0  0  0  0  0  0  0  0  0  0  0  0
    5.5043    6.0169   20.2244 C   0  0  0  0  0  0  0  0  0  0  0  0
    5.8263    6.1840   19.0504 O   0  0  0  0  0  0  0  0  0  0  0  0
    5.9088    7.0497   21.2946 C   0  0  0  0  0  0  0  0  0  0  0  0
    5.5339    6.6716   22.7432 N   0  0  0  0  0  0  0  0  0  0  0  0
    4.4281    5.9925   22.9169 C   0  0  0  0  0  0  0  0  0  0  0  0
    4.3877    4.6979   22.0844 C   0  0  0  0  0  0  0  0  0  0  0  0
    5.7043    8.2066   23.7597 S   0  0  0  0  0  0  0  0  0  0  0  0
    4.6196    8.1033   24.7031 O   0  0  0  0  0  0  0  0  0  0  0  0
    5.5955    9.0227   22.5915 O   0  0  0  0  0  0  0  0  0  0  0  0
    7.1931    8.5620   24.5738 C   0  0  0  0  0  0  0  0  0  0  0  0
    8.0507    7.5511   24.7530 C   0  0  0  0  0  0  0  0  0  0  0  0
    9.3846    7.6625   25.3479 C   0  0  0  0  0  0  0  0  0  0  0  0
   10.3707    8.5522   24.7723 C   0  0  0  0  0  0  0  0  0  0  0  0
   11.5957    8.5437   25.5054 C   0  0  0  0  0  0  0  0  0  0  0  0
   11.5237    7.6448   26.6351 C   0  0  0  0  0  0  0  0  0  0  0  0
   12.8353    7.4327   27.7343 Cl  0  0  0  0  0  0  0  0  0  0  0  0
    9.9920    6.8510   26.7449 S   0  0  0  0  0  0  0  0  0  0  0  0
    4.3901    3.8878   19.7095 C   0  0  0  0  0  0  0  0  0  0  0  0
    6.6374    2.8069   19.7409 N   0  0  0  0  0  0  0  0  0  0  0  0
    7.4177    1.9484   18.9941 C   0  0  0  0  0  0  0  0  0  0  0  0
    6.6344    1.5696   17.8353 C   0  0  0  0  0  0  0  0  0  0  0  0
    7.2335    0.6792   16.8947 C   0  0  0  0  0  0  0  0  0  0  0  0
    8.4982    0.2199   17.1118 N   0  0  0  0  0  0  0  0  0  0  0  0
    9.2557    0.5555   18.1891 C   0  0  0  0  0  0  0  0  0  0  0  0
    8.7384    1.4416   19.1824 C   0  0  0  0  0  0  0  0  0  0  0  0
    5.3869    2.2208   17.9168 C   0  0  0  0  0  0  0  0  0  0  0  0
    5.4470    2.9703   19.1140 C   0  0  0  0  0  0  0  0  0  0  0  0
    6.9017    3.2309   20.5892 H   0  0  0  0  0  0  0  0  0  0  0  0
 20 21  1  0  0  0
 20 28  1  0  0  0
 21 22  2  0  0  0
 21 26  1  0  0  0
 22 23  1  0  0  0
 22 27  1  0  0  0
 23 24  2  0  0  0
 24 25  1  0  0  0
 25 26  2  0  0  0
 27 28  2  0  0  0
 28 19  1  0  0  0
 19  1  1  0  0  0
  1  2  1  0  0  0
  1  7  1  0  0  0
  2  3  2  0  0  0
  2  4  1  0  0  0
  4  5  1  0  0  0
  5  6  1  0  0  0
  5  8  1  0  0  0
  6  7  1  0  0  0
  8  9  2  0  0  0
  8 10  2  0  0  0
  8 11  1  0  0  0
 11 12  2  0  0  0
 12 13  1  0  0  0
 13 14  2  0  0  0
 13 18  1  0  0  0
 14 15  1  0  0  0
 15 16  2  0  0  0
 16 17  1  0  0  0
 16 18  1  0  0  0
 20 29  1  0  0  0
M  END
> <minimizedAffinity>
-8.23406

$$$$
1NFW_RRR_A_301


 29 32  0  0  0  0  0  0  0  0999 V2000
    5.1014    5.5422   20.6813 N   0  0  0  0  0  0  0  0  0  0  0  0
    6.4726    5.6026   20.8248 C   0  0  0  0  0  0  0  0  0  0  0  0
    7.2540    4.8654   20.2284 O   0  0  0  0  0  0  0  0  0  0  0  0
    7.0042    6.6637   21.8082 C   0  0  0  0  0  0  0  0  0  0  0  0
    5.9178    7.4531   22.5689 N   0  0  0  0  0  0  0  0  0  0  0  0
    4.7991    7.6952   21.9334 C   0  0  0  0  0  0  0  0  0  0  0  0
    4.1350    6.4171   21.3893 C   0  0  0  0  0  0  0  0  0  0  0  0
    6.7503    8.9222   23.3222 S   0  0  0  0  0  0  0  0  0  0  0  0
    5.8513    9.3079   24.3806 O   0  0  0  0  0  0  0  0  0  0  0  0
    6.7484    9.6002   22.0640 O   0  0  0  0  0  0  0  0  0  0  0  0
    8.3767    8.8060   23.9112 C   0  0  0  0  0  0  0  0  0  0  0  0
    8.5687    8.1377   25.0541 C   0  0  0  0  0  0  0  0  0  0  0  0
    9.8686    7.8663   25.6726 C   0  0  0  0  0  0  0  0  0  0  0  0
    9.9547    7.0595   26.8713 C   0  0  0  0  0  0  0  0  0  0  0  0
   11.3031    6.8849   27.3063 C   0  0  0  0  0  0  0  0  0  0  0  0
   12.2289    7.5631   26.4274 C   0  0  0  0  0  0  0  0  0  0  0  0
   13.9358    7.5178   26.6682 Cl  0  0  0  0  0  0  0  0  0  0  0  0
   11.4252    8.3829   25.1350 S   0  0  0  0  0  0  0  0  0  0  0  0
    4.5234    4.5346   19.7763 C   0  0  0  0  0  0  0  0  0  0  0  0
    3.0166    2.5517   19.6450 N   0  0  0  0  0  0  0  0  0  0  0  0
    2.6279    1.4573   20.3899 C   0  0  0  0  0  0  0  0  0  0  0  0
    3.3671    1.5128   21.6350 C   0  0  0  0  0  0  0  0  0  0  0  0
    3.1324    0.4785   22.5899 C   0  0  0  0  0  0  0  0  0  0  0  0
    2.2393   -0.5112   22.3062 N   0  0  0  0  0  0  0  0  0  0  0  0
    1.5335   -0.5908   21.1475 C   0  0  0  0  0  0  0  0  0  0  0  0
    1.7032    0.4008   20.1339 C   0  0  0  0  0  0  0  0  0  0  0  0
    4.1912    2.6559   21.6056 C   0  0  0  0  0  0  0  0  0  0  0  0
    3.9319    3.2574   20.3528 C   0  0  0  0  0  0  0  0  0  0  0  0
    2.6841    2.7819   18.7474 H   0  0  0  0  0  0  0  0  0  0  0  0
 20 21  1  0  0  0
 20 28  1  0  0  0
 21 22  2  0  0  0
 21 26  1  0  0  0
 22 23  1  0  0  0
 22 27  1  0  0  0
 23 24  2  0  0  0
 24 25  1  0  0  0
 25 26  2  0  0  0
 27 28  2  0  0  0
 28 19  1  0  0  0
 19  1  1  0  0  0
  1  2  1  0  0  0
  1  7  1  0  0  0
  2  3  2  0  0  0
  2  4  1  0  0  0
  4  5  1  0  0  0
  5  6  1  0  0  0
  5  8  1  0  0  0
  6  7  1  0  0  0
  8  9  2  0  0  0
  8 10  2  0  0  0
  8 11  1  0  0  0
 11 12  2  0  0  0
 12 13  1  0  0  0
 13 14  2  0  0  0
 13 18  1  0  0  0
 14 15  1  0  0  0
 15 16  2  0  0  0
 16 17  1  0  0  0
 16 18  1  0  0  0
 20 29  1  0  0  0
M  END
> <minimizedAffinity>
-7.60064

$$$$
1NFW_RRR_A_301


 29 32  0  0  0  0  0  0  0  0999 V2000
    7.6290    8.6862   22.1331 N   0  0  0  0  0  0  0  0  0  0  0  0
    7.0944    9.2025   20.9703 C   0  0  0  0  0  0  0  0  0  0  0  0
    7.3701   10.3152   20.5281 O   0  0  0  0  0  0  0  0  0  0  0  0
    6.0917    8.2985   20.2265 C   0  0  0  0  0  0  0  0  0  0  0  0
    5.7537    6.9718   20.9392 N   0  0  0  0  0  0  0  0  0  0  0  0
    6.7082    6.4064   21.6343 C   0  0  0  0  0  0  0  0  0  0  0  0
    7.3131    7.3486   22.6912 C   0  0  0  0  0  0  0  0  0  0  0  0
    4.9163    5.8919   19.6937 S   0  0  0  0  0  0  0  0  0  0  0  0
    5.7531    6.0186   18.5271 O   0  0  0  0  0  0  0  0  0  0  0  0
    3.7052    6.6398   19.8220 O   0  0  0  0  0  0  0  0  0  0  0  0
    4.6028    4.2234   20.0450 C   0  0  0  0  0  0  0  0  0  0  0  0
    3.7937    3.9553   21.0760 C   0  0  0  0  0  0  0  0  0  0  0  0
    3.3494    2.6203   21.4837 C   0  0  0  0  0  0  0  0  0  0  0  0
    3.4913    2.1897   22.8584 C   0  0  0  0  0  0  0  0  0  0  0  0
    2.9779    0.8738   23.0655 C   0  0  0  0  0  0  0  0  0  0  0  0
    2.4484    0.3195   21.8401 C   0  0  0  0  0  0  0  0  0  0  0  0
    1.7297   -1.2464   21.7672 Cl  0  0  0  0  0  0  0  0  0  0  0  0
    2.6090    1.4063   20.5054 S   0  0  0  0  0  0  0  0  0  0  0  0
    8.5752    9.5065   22.9079 C   0  0  0  0  0  0  0  0  0  0  0  0
   10.7083    8.8680   24.0312 N   0  0  0  0  0  0  0  0  0  0  0  0
   11.1660    8.2280   25.1646 C   0  0  0  0  0  0  0  0  0  0  0  0
    9.9971    7.8258   25.9207 C   0  0  0  0  0  0  0  0  0  0  0  0
   10.2109    7.1305   27.1485 C   0  0  0  0  0  0  0  0  0  0  0  0
   11.4828    6.8731   27.5650 N   0  0  0  0  0  0  0  0  0  0  0  0
   12.5974    7.2394   26.8792 C   0  0  0  0  0  0  0  0  0  0  0  0
   12.4803    7.9390   25.6397 C   0  0  0  0  0  0  0  0  0  0  0  0
    8.8515    8.2393   25.2109 C   0  0  0  0  0  0  0  0  0  0  0  0
    9.3532    8.8768   24.0532 C   0  0  0  0  0  0  0  0  0  0  0  0
   11.2729    9.2544   23.3233 H   0  0  0  0  0  0  0  0  0  0  0  0
 20 21  1  0  0  0
 20 28  1  0  0  0
 21 22  2  0  0  0
 21 26  1  0  0  0
 22 23  1  0  0  0
 22 27  1  0  0  0
 23 24  2  0  0  0
 24 25  1  0  0  0
 25 26  2  0  0  0
 27 28  2  0  0  0
 28 19  1  0  0  0
 19  1  1  0  0  0
  1  2  1  0  0  0
  1  7  1  0  0  0
  2  3  2  0  0  0
  2  4  1  0  0  0
  4  5  1  0  0  0
  5  6  1  0  0  0
  5  8  1  0  0  0
  6  7  1  0  0  0
  8  9  2  0  0  0
  8 10  2  0  0  0
  8 11  1  0  0  0
 11 12  2  0  0  0
 12 13  1  0  0  0
 13 14  2  0  0  0
 13 18  1  0  0  0
 14 15  1  0  0  0
 15 16  2  0  0  0
 16 17  1  0  0  0
 16 18  1  0  0  0
 20 29  1  0  0  0
M  END
> <minimizedAffinity>
-7.32400

$$$$
1NFW_RRR_A_301


 29 32  0  0  0  0  0  0  0  0999 V2000
    5.6602    7.9411   21.7433 N   0  0  0  0  0  0  0  0  0  0  0  0
    5.2660    8.5151   20.5517 C   0  0  0  0  0  0  0  0  0  0  0  0
    5.1645    9.7274   20.3793 O   0  0  0  0  0  0  0  0  0  0  0  0
    4.9349    7.5380   19.4066 C   0  0  0  0  0  0  0  0  0  0  0  0
    5.0021    6.0426   19.7827 N   0  0  0  0  0  0  0  0  0  0  0  0
    5.9007    5.6880   20.6663 C   0  0  0  0  0  0  0  0  0  0  0  0
    5.7893    6.4825   21.9804 C   0  0  0  0  0  0  0  0  0  0  0  0
    5.0114    5.0906   18.1977 S   0  0  0  0  0  0  0  0  0  0  0  0
    5.4310    6.0678   17.2249 O   0  0  0  0  0  0  0  0  0  0  0  0
    3.6323    4.7536   18.3626 O   0  0  0  0  0  0  0  0  0  0  0  0
    5.9456    3.6377   18.0494 C   0  0  0  0  0  0  0  0  0  0  0  0
    5.5735    2.7627   17.1084 C   0  0  0  0  0  0  0  0  0  0  0  0
    6.2744    1.5195   16.7782 C   0  0  0  0  0  0  0  0  0  0  0  0
    5.6534    0.5359   15.9167 C   0  0  0  0  0  0  0  0  0  0  0  0
    6.4998   -0.5913   15.6900 C   0  0  0  0  0  0  0  0  0  0  0  0
    7.7596   -0.4481   16.3841 C   0  0  0  0  0  0  0  0  0  0  0  0
    9.0098   -1.6317   16.2866 Cl  0  0  0  0  0  0  0  0  0  0  0  0
    7.8507    1.0274   17.2802 S   0  0  0  0  0  0  0  0  0  0  0  0
    5.9681    8.8151   22.8877 C   0  0  0  0  0  0  0  0  0  0  0  0
    7.4305    7.9613   24.7185 N   0  0  0  0  0  0  0  0  0  0  0  0
    8.7368    8.0274   25.1578 C   0  0  0  0  0  0  0  0  0  0  0  0
    9.4550    8.8615   24.2153 C   0  0  0  0  0  0  0  0  0  0  0  0
   10.8426    9.0897   24.4582 C   0  0  0  0  0  0  0  0  0  0  0  0
   11.4384    8.5257   25.5466 N   0  0  0  0  0  0  0  0  0  0  0  0
   10.7918    7.7381   26.4459 C   0  0  0  0  0  0  0  0  0  0  0  0
    9.4015    7.4554   26.2836 C   0  0  0  0  0  0  0  0  0  0  0  0
    8.5483    9.2816   23.2212 C   0  0  0  0  0  0  0  0  0  0  0  0
    7.3146    8.6947   23.5847 C   0  0  0  0  0  0  0  0  0  0  0  0
    6.7028    7.4635   25.1564 H   0  0  0  0  0  0  0  0  0  0  0  0
 20 21  1  0  0  0
 20 28  1  0  0  0
 21 22  2  0  0  0
 21 26  1  0  0  0
 22 23  1  0  0  0
 22 27  1  0  0  0
 23 24  2  0  0  0
 24 25  1  0  0  0
 25 26  2  0  0  0
 27 28  2  0  0  0
 28 19  1  0  0  0
 19  1  1  0  0  0
  1  2  1  0  0  0
  1  7  1  0  0  0
  2  3  2  0  0  0
  2  4  1  0  0  0
  4  5  1  0  0  0
  5  6  1  0  0  0
  5  8  1  0  0  0
  6  7  1  0  0  0
  8  9  2  0  0  0
  8 10  2  0  0  0
  8 11  1  0  0  0
 11 12  2  0  0  0
 12 13  1  0  0  0
 13 14  2  0  0  0
 13 18  1  0  0  0
 14 15  1  0  0  0
 15 16  2  0  0  0
 16 17  1  0  0  0
 16 18  1  0  0  0
 20 29  1  0  0  0
M  END
> <minimizedAffinity>
-7.20597

$$$$
1NFW_RRR_A_301


 29 32  0  0  0  0  0  0  0  0999 V2000
    5.2956    5.3188   20.6232 N   0  0  0  0  0  0  0  0  0  0  0  0
    6.6517    5.5084   20.7957 C   0  0  0  0  0  0  0  0  0  0  0  0
    7.5117    4.8488   20.2170 O   0  0  0  0  0  0  0  0  0  0  0  0
    7.0596    6.6143   21.7889 C   0  0  0  0  0  0  0  0  0  0  0  0
    5.8875    7.2969   22.5253 N   0  0  0  0  0  0  0  0  0  0  0  0
    4.7647    7.4326   21.8658 C   0  0  0  0  0  0  0  0  0  0  0  0
    4.2361    6.0979   21.3094 C   0  0  0  0  0  0  0  0  0  0  0  0
    6.5613    8.8375   23.2942 S   0  0  0  0  0  0  0  0  0  0  0  0
    5.5692    9.1773   24.2831 O   0  0  0  0  0  0  0  0  0  0  0  0
    6.5934    9.4885   22.0223 O   0  0  0  0  0  0  0  0  0  0  0  0
    8.1495    8.8522   23.9890 C   0  0  0  0  0  0  0  0  0  0  0  0
    8.4073    7.9568   24.9489 C   0  0  0  0  0  0  0  0  0  0  0  0
    9.7030    7.7609   25.6036 C   0  0  0  0  0  0  0  0  0  0  0  0
    9.7975    6.9856   26.8223 C   0  0  0  0  0  0  0  0  0  0  0  0
   11.1417    6.8846   27.2925 C   0  0  0  0  0  0  0  0  0  0  0  0
   12.0558    7.5864   26.4200 C   0  0  0  0  0  0  0  0  0  0  0  0
   13.7566    7.6272   26.7014 Cl  0  0  0  0  0  0  0  0  0  0  0  0
   11.2464    8.3386   25.0906 S   0  0  0  0  0  0  0  0  0  0  0  0
    4.8348    4.2618   19.7074 C   0  0  0  0  0  0  0  0  0  0  0  0
    5.5856    3.2815   17.5406 N   0  0  0  0  0  0  0  0  0  0  0  0
    5.8082    3.6425   16.2277 C   0  0  0  0  0  0  0  0  0  0  0  0
    5.4733    5.0479   16.1161 C   0  0  0  0  0  0  0  0  0  0  0  0
    5.6277    5.6650   14.8386 C   0  0  0  0  0  0  0  0  0  0  0  0
    6.0746    4.9275   13.7831 N   0  0  0  0  0  0  0  0  0  0  0  0
    6.3942    3.6086   13.8567 C   0  0  0  0  0  0  0  0  0  0  0  0
    6.2712    2.9081   15.0950 C   0  0  0  0  0  0  0  0  0  0  0  0
    5.0537    5.5012   17.3831 C   0  0  0  0  0  0  0  0  0  0  0  0
    5.1441    4.3667   18.2219 C   0  0  0  0  0  0  0  0  0  0  0  0
    5.7246    2.3837   17.9199 H   0  0  0  0  0  0  0  0  0  0  0  0
 20 21  1  0  0  0
 20 28  1  0  0  0
 21 22  2  0  0  0
 21 26  1  0  0  0
 22 23  1  0  0  0
 22 27  1  0  0  0
 23 24  2  0  0  0
 24 25  1  0  0  0
 25 26  2  0  0  0
 27 28  2  0  0  0
 28 19  1  0  0  0
 19  1  1  0  0  0
  1  2  1  0  0  0
  1  7  1  0  0  0
  2  3  2  0  0  0
  2  4  1  0  0  0
  4  5  1  0  0  0
  5  6  1  0  0  0
  5  8  1  0  0  0
  6  7  1  0  0  0
  8  9  2  0  0  0
  8 10  2  0  0  0
  8 11  1  0  0  0
 11 12  2  0  0  0
 12 13  1  0  0  0
 13 14  2  0  0  0
 13 18  1  0  0  0
 14 15  1  0  0  0
 15 16  2  0  0  0
 16 17  1  0  0  0
 16 18  1  0  0  0
 20 29  1  0  0  0
M  END
> <minimizedAffinity>
-7.17111

$$$$
1NFW_RRR_A_301


 29 32  0  0  0  0  0  0  0  0999 V2000
    5.7491    8.5821   21.3690 N   0  0  0  0  0  0  0  0  0  0  0  0
    5.0803    7.3763   21.4278 C   0  0  0  0  0  0  0  0  0  0  0  0
    4.6753    6.8712   22.4721 O   0  0  0  0  0  0  0  0  0  0  0  0
    4.8636    6.6561   20.0824 C   0  0  0  0  0  0  0  0  0  0  0  0
    5.5097    7.3436   18.8610 N   0  0  0  0  0  0  0  0  0  0  0  0
    5.5599    8.6518   18.8683 C   0  0  0  0  0  0  0  0  0  0  0  0
    6.2507    9.2140   20.1242 C   0  0  0  0  0  0  0  0  0  0  0  0
    4.7622    6.5747   17.3548 S   0  0  0  0  0  0  0  0  0  0  0  0
    4.8110    7.6356   16.3803 O   0  0  0  0  0  0  0  0  0  0  0  0
    3.5607    6.2802   18.0704 O   0  0  0  0  0  0  0  0  0  0  0  0
    5.4156    5.1091   16.6985 C   0  0  0  0  0  0  0  0  0  0  0  0
    5.4444    4.0379   17.4993 C   0  0  0  0  0  0  0  0  0  0  0  0
    5.8862    2.6966   17.1100 C   0  0  0  0  0  0  0  0  0  0  0  0
    6.9033    2.0095   17.8773 C   0  0  0  0  0  0  0  0  0  0  0  0
    7.1790    0.7076   17.3605 C   0  0  0  0  0  0  0  0  0  0  0  0
    6.3628    0.4202   16.2027 C   0  0  0  0  0  0  0  0  0  0  0  0
    6.4408   -1.0857   15.3660 Cl  0  0  0  0  0  0  0  0  0  0  0  0
    5.3191    1.7359   15.7931 S   0  0  0  0  0  0  0  0  0  0  0  0
    6.0125    9.3125   22.6202 C   0  0  0  0  0  0  0  0  0  0  0  0
    8.4396    9.4718   23.1710 N   0  0  0  0  0  0  0  0  0  0  0  0
    9.3649    8.9722   24.0643 C   0  0  0  0  0  0  0  0  0  0  0  0
    8.6489    8.0837   24.9575 C   0  0  0  0  0  0  0  0  0  0  0  0
    9.3986    7.4302   25.9809 C   0  0  0  0  0  0  0  0  0  0  0  0
   10.7381    7.6588   26.0860 N   0  0  0  0  0  0  0  0  0  0  0  0
   11.4358    8.4874   25.2652 C   0  0  0  0  0  0  0  0  0  0  0  0
   10.7685    9.1837   24.2120 C   0  0  0  0  0  0  0  0  0  0  0  0
    7.2934    8.0716   24.5710 C   0  0  0  0  0  0  0  0  0  0  0  0
    7.2247    8.9470   23.4630 C   0  0  0  0  0  0  0  0  0  0  0  0
    8.6305   10.1050   22.4417 H   0  0  0  0  0  0  0  0  0  0  0  0
 20 21  1  0  0  0
 20 28  1  0  0  0
 21 22  2  0  0  0
 21 26  1  0  0  0
 22 23  1  0  0  0
 22 27  1  0  0  0
 23 24  2  0  0  0
 24 25  1  0  0  0
 25 26  2  0  0  0
 27 28  2  0  0  0
 28 19  1  0  0  0
 19  1  1  0  0  0
  1  2  1  0  0  0
  1  7  1  0  0  0
  2  3  2  0  0  0
  2  4  1  0  0  0
  4  5  1  0  0  0
  5  6  1  0  0  0
  5  8  1  0  0  0
  6  7  1  0  0  0
  8  9  2  0  0  0
  8 10  2  0  0  0
  8 11  1  0  0  0
 11 12  2  0  0  0
 12 13  1  0  0  0
 13 14  2  0  0  0
 13 18  1  0  0  0
 14 15  1  0  0  0
 15 16  2  0  0  0
 16 17  1  0  0  0
 16 18  1  0  0  0
 20 29  1  0  0  0
M  END
> <minimizedAffinity>
-7.02032

$$$$
