1HSH_MK1_A_401


 49 53  0  0  0  0  0  0  0  0999 V2000
   11.7306    1.0924    5.6954 C   0  0  0  0  0  0  0  0  0  0  0  0
   11.6380    1.1519    4.2681 O   0  0  0  0  0  0  0  0  0  0  0  0
   12.4777    0.8635    3.8773 H   0  0  0  0  0  0  0  0  0  0  0  0
   12.7758    2.0932    6.1934 C   0  0  0  0  0  0  0  0  0  0  0  0
   12.2011    4.6494    9.6955 N   0  0  0  0  0  0  0  0  0  0  0  0
   12.9428    3.3836    9.7794 C   0  0  0  0  0  0  0  0  0  0  0  0
   13.4507    2.7543    8.4750 C   0  0  0  0  0  0  0  0  0  0  0  0
   12.3939    2.6964    7.4582 N   0  0  0  0  0  0  0  0  0  0  0  0
   11.5307    3.9107    7.3570 C   0  0  0  0  0  0  0  0  0  0  0  0
   11.1017    4.5283    8.7011 C   0  0  0  0  0  0  0  0  0  0  0  0
   14.0722    1.4081    8.8061 C   0  0  0  0  0  0  0  0  0  0  0  0
   13.3500    0.4607    9.1312 O   0  0  0  0  0  0  0  0  0  0  0  0
   15.4040    1.3311    8.7689 N   0  0  0  0  0  0  0  0  0  0  0  0
   15.8931    2.1408    8.4959 H   0  0  0  0  0  0  0  0  0  0  0  0
   16.2471    0.0814    9.1171 C   0  0  0  0  0  0  0  0  0  0  0  0
   17.7687    0.3458    8.9248 C   0  0  0  0  0  0  0  0  0  0  0  0
   16.1052   -1.0381    8.0467 C   0  0  0  0  0  0  0  0  0  0  0  0
   15.9183   -0.4387   10.6167 C   0  0  0  0  0  0  0  0  0  0  0  0
   11.9142    5.3716   10.9666 C   0  0  0  0  0  0  0  0  0  0  0  0
   12.8514    5.3129   12.2436 C   0  0  0  0  0  0  0  0  0  0  0  0
   14.1631    5.7631   12.2387 C   0  0  0  0  0  0  0  0  0  0  0  0
   15.0064    5.8233   13.4279 N   0  0  0  0  0  0  0  0  0  0  0  0
   14.3593    5.3823   14.5990 C   0  0  0  0  0  0  0  0  0  0  0  0
   13.0586    4.9282   14.6316 C   0  0  0  0  0  0  0  0  0  0  0  0
   12.3020    4.8898   13.4563 C   0  0  0  0  0  0  0  0  0  0  0  0
   11.9846   -0.3790    6.0178 C   0  0  0  0  0  0  0  0  0  0  0  0
   11.1568   -1.4032    5.2400 C   0  0  0  0  0  0  0  0  0  0  0  0
    9.7197   -1.5037    5.7863 C   0  0  0  0  0  0  0  0  0  0  0  0
    9.4879   -1.4314    6.9920 O   0  0  0  0  0  0  0  0  0  0  0  0
    8.7593   -1.6893    4.8827 N   0  0  0  0  0  0  0  0  0  0  0  0
    9.0092   -1.6850    3.9304 H   0  0  0  0  0  0  0  0  0  0  0  0
    7.3512   -1.8995    5.2280 C   0  0  0  0  0  0  0  0  0  0  0  0
    6.6144   -2.7138    4.1375 C   0  0  0  0  0  0  0  0  0  0  0  0
    7.3594   -2.7426    2.9184 O   0  0  0  0  0  0  0  0  0  0  0  0
    5.1852   -2.2393    4.1574 C   0  0  0  0  0  0  0  0  0  0  0  0
    5.0930   -0.8368    4.6981 C   0  0  0  0  0  0  0  0  0  0  0  0
    4.1357    0.1647    4.6365 C   0  0  0  0  0  0  0  0  0  0  0  0
    4.4407    1.3980    5.2127 C   0  0  0  0  0  0  0  0  0  0  0  0
    5.6692    1.6257    5.8573 C   0  0  0  0  0  0  0  0  0  0  0  0
    6.6613    0.6290    5.9499 C   0  0  0  0  0  0  0  0  0  0  0  0
    6.4754   -0.6383    5.3902 C   0  0  0  0  0  0  0  0  0  0  0  0
    7.5099   -1.8353    2.6100 H   0  0  0  0  0  0  0  0  0  0  0  0
   11.9389   -2.6980    5.4611 C   0  0  0  0  0  0  0  0  0  0  0  0
   11.1399   -3.9242    5.1750 C   0  0  0  0  0  0  0  0  0  0  0  0
   10.6419   -4.1874    3.9046 C   0  0  0  0  0  0  0  0  0  0  0  0
    9.7352   -5.2311    3.7216 C   0  0  0  0  0  0  0  0  0  0  0  0
    9.3356   -6.0092    4.8136 C   0  0  0  0  0  0  0  0  0  0  0  0
    9.8435   -5.7493    6.0793 C   0  0  0  0  0  0  0  0  0  0  0  0
   10.7445   -4.7139    6.2594 C   0  0  0  0  0  0  0  0  0  0  0  0
  5  6  1  0  0  0
  5 10  1  0  0  0
  5 19  1  0  0  0
  6  7  1  0  0  0
  7 11  1  0  0  0
  7  8  1  0  0  0
 11 12  2  0  0  0
 11 13  1  0  0  0
 13 15  1  0  0  0
 15 16  1  0  0  0
 15 17  1  0  0  0
 15 18  1  0  0  0
  8  9  1  0  0  0
  8  4  1  0  0  0
  9 10  1  0  0  0
  4  1  1  0  0  0
  1  2  1  0  0  0
  1 26  1  0  0  0
 26 27  1  0  0  0
 27 43  1  0  0  0
 27 28  1  0  0  0
 43 44  1  0  0  0
 44 45  2  0  0  0
 44 49  1  0  0  0
 45 46  1  0  0  0
 46 47  2  0  0  0
 47 48  1  0  0  0
 48 49  2  0  0  0
 28 29  2  0  0  0
 28 30  1  0  0  0
 30 32  1  0  0  0
 32 33  1  0  0  0
 32 41  1  0  0  0
 33 34  1  0  0  0
 33 35  1  0  0  0
 35 36  1  0  0  0
 36 37  2  0  0  0
 36 41  1  0  0  0
 37 38  1  0  0  0
 38 39  2  0  0  0
 39 40  1  0  0  0
 40 41  2  0  0  0
 19 20  1  0  0  0
 20 21  1  0  0  0
 20 25  2  0  0  0
 21 22  2  0  0  0
 22 23  1  0  0  0
 23 24  2  0  0  0
 24 25  1  0  0  0
 13 14  1  0  0  0
  2  3  1  0  0  0
 30 31  1  0  0  0
 34 42  1  0  0  0
M  END
> <minimizedAffinity>
-11.80393

$$$$
1HSH_MK1_A_401


 49 53  0  0  0  0  0  0  0  0999 V2000
   11.7578    1.0979    5.6881 C   0  0  0  0  0  0  0  0  0  0  0  0
   12.4965    1.9879    4.8446 O   0  0  0  0  0  0  0  0  0  0  0  0
   11.8841    2.5945    4.3997 H   0  0  0  0  0  0  0  0  0  0  0  0
   10.8486    0.2070    4.8385 C   0  0  0  0  0  0  0  0  0  0  0  0
   10.3324   -4.0666    5.6120 N   0  0  0  0  0  0  0  0  0  0  0  0
    9.2925   -3.0895    5.9629 C   0  0  0  0  0  0  0  0  0  0  0  0
    9.3542   -1.7012    5.3113 C   0  0  0  0  0  0  0  0  0  0  0  0
   10.6984   -1.1202    5.4089 N   0  0  0  0  0  0  0  0  0  0  0  0
   11.8274   -2.0628    5.1506 C   0  0  0  0  0  0  0  0  0  0  0  0
   11.6788   -3.4587    5.7843 C   0  0  0  0  0  0  0  0  0  0  0  0
    8.2576   -0.8418    5.9171 C   0  0  0  0  0  0  0  0  0  0  0  0
    8.3960   -0.3794    7.0537 O   0  0  0  0  0  0  0  0  0  0  0  0
    7.1555   -0.6633    5.1859 N   0  0  0  0  0  0  0  0  0  0  0  0
    7.1404   -1.0708    4.2898 H   0  0  0  0  0  0  0  0  0  0  0  0
    5.8994    0.1276    5.6227 C   0  0  0  0  0  0  0  0  0  0  0  0
    6.1611    1.6618    5.6243 C   0  0  0  0  0  0  0  0  0  0  0  0
    5.6108   -0.0242    7.1435 C   0  0  0  0  0  0  0  0  0  0  0  0
    4.6235   -0.2577    4.7002 C   0  0  0  0  0  0  0  0  0  0  0  0
   10.1414   -5.4748    6.0597 C   0  0  0  0  0  0  0  0  0  0  0  0
    9.0690   -6.4600    5.4339 C   0  0  0  0  0  0  0  0  0  0  0  0
    9.0724   -6.8291    4.0970 C   0  0  0  0  0  0  0  0  0  0  0  0
    8.1666   -7.8196    3.5248 N   0  0  0  0  0  0  0  0  0  0  0  0
    7.2794   -8.3796    4.4649 C   0  0  0  0  0  0  0  0  0  0  0  0
    7.2531   -8.0297    5.7976 C   0  0  0  0  0  0  0  0  0  0  0  0
    8.1445   -7.0692    6.2857 C   0  0  0  0  0  0  0  0  0  0  0  0
   11.0695    1.9980    6.7125 C   0  0  0  0  0  0  0  0  0  0  0  0
   11.9229    3.1042    7.3349 C   0  0  0  0  0  0  0  0  0  0  0  0
   12.8992    2.5435    8.3868 C   0  0  0  0  0  0  0  0  0  0  0  0
   12.5350    1.7141    9.2187 O   0  0  0  0  0  0  0  0  0  0  0  0
   14.1415    3.0215    8.3491 N   0  0  0  0  0  0  0  0  0  0  0  0
   14.3789    3.6437    7.6240 H   0  0  0  0  0  0  0  0  0  0  0  0
   15.1744    2.6723    9.3276 C   0  0  0  0  0  0  0  0  0  0  0  0
   16.2194    3.8038    9.4789 C   0  0  0  0  0  0  0  0  0  0  0  0
   16.1440    4.7291    8.3925 O   0  0  0  0  0  0  0  0  0  0  0  0
   17.5188    3.1271    9.8274 C   0  0  0  0  0  0  0  0  0  0  0  0
   17.5365    1.7077    9.3243 C   0  0  0  0  0  0  0  0  0  0  0  0
   18.5365    0.7790    9.0780 C   0  0  0  0  0  0  0  0  0  0  0  0
   18.1684   -0.4488    8.5277 C   0  0  0  0  0  0  0  0  0  0  0  0
   16.8258   -0.7563    8.2459 C   0  0  0  0  0  0  0  0  0  0  0  0
   15.7814    0.1571    8.4934 C   0  0  0  0  0  0  0  0  0  0  0  0
   16.0334    1.4261    9.0226 C   0  0  0  0  0  0  0  0  0  0  0  0
   16.2839    4.2579    7.5562 H   0  0  0  0  0  0  0  0  0  0  0  0
   10.8722    4.0173    7.9668 C   0  0  0  0  0  0  0  0  0  0  0  0
   11.4539    5.0292    8.8951 C   0  0  0  0  0  0  0  0  0  0  0  0
   12.4711    5.8859    8.4918 C   0  0  0  0  0  0  0  0  0  0  0  0
   13.1249    6.6742    9.4384 C   0  0  0  0  0  0  0  0  0  0  0  0
   12.7520    6.6028   10.7850 C   0  0  0  0  0  0  0  0  0  0  0  0
   11.7282    5.7532   11.1820 C   0  0  0  0  0  0  0  0  0  0  0  0
   11.0791    4.9722   10.2412 C   0  0  0  0  0  0  0  0  0  0  0  0
  5  6  1  0  0  0
  5 10  1  0  0  0
  5 19  1  0  0  0
  6  7  1  0  0  0
  7 11  1  0  0  0
  7  8  1  0  0  0
 11 12  2  0  0  0
 11 13  1  0  0  0
 13 15  1  0  0  0
 15 16  1  0  0  0
 15 17  1  0  0  0
 15 18  1  0  0  0
  8  9  1  0  0  0
  8  4  1  0  0  0
  9 10  1  0  0  0
  4  1  1  0  0  0
  1  2  1  0  0  0
  1 26  1  0  0  0
 26 27  1  0  0  0
 27 43  1  0  0  0
 27 28  1  0  0  0
 43 44  1  0  0  0
 44 45  2  0  0  0
 44 49  1  0  0  0
 45 46  1  0  0  0
 46 47  2  0  0  0
 47 48  1  0  0  0
 48 49  2  0  0  0
 28 29  2  0  0  0
 28 30  1  0  0  0
 30 32  1  0  0  0
 32 33  1  0  0  0
 32 41  1  0  0  0
 33 34  1  0  0  0
 33 35  1  0  0  0
 35 36  1  0  0  0
 36 37  2  0  0  0
 36 41  1  0  0  0
 37 38  1  0  0  0
 38 39  2  0  0  0
 39 40  1  0  0  0
 40 41  2  0  0  0
 19 20  1  0  0  0
 20 21  1  0  0  0
 20 25  2  0  0  0
 21 22  2  0  0  0
 22 23  1  0  0  0
 23 24  2  0  0  0
 24 25  1  0  0  0
 13 14  1  0  0  0
  2  3  1  0  0  0
 30 31  1  0  0  0
 34 42  1  0  0  0
M  END
> <minimizedAffinity>
-10.87578

$$$$
1HSH_MK1_A_401


 49 53  0  0  0  0  0  0  0  0999 V2000
   11.3091    0.2893    5.9774 C   0  0  0  0  0  0  0  0  0  0  0  0
   12.2853   -0.7402    5.7865 O   0  0  0  0  0  0  0  0  0  0  0  0
   12.7964   -0.8565    6.6027 H   0  0  0  0  0  0  0  0  0  0  0  0
   12.0048    1.6313    6.2161 C   0  0  0  0  0  0  0  0  0  0  0  0
   11.5680    4.0506    9.8334 N   0  0  0  0  0  0  0  0  0  0  0  0
   12.5057    2.9209    9.7712 C   0  0  0  0  0  0  0  0  0  0  0  0
   12.9037    2.3858    8.3888 C   0  0  0  0  0  0  0  0  0  0  0  0
   11.7279    2.1611    7.5397 N   0  0  0  0  0  0  0  0  0  0  0  0
   10.6772    3.2204    7.6017 C   0  0  0  0  0  0  0  0  0  0  0  0
   10.3640    3.7566    9.0112 C   0  0  0  0  0  0  0  0  0  0  0  0
   13.7744    1.1566    8.5866 C   0  0  0  0  0  0  0  0  0  0  0  0
   13.2493    0.0534    8.7651 O   0  0  0  0  0  0  0  0  0  0  0  0
   15.0953    1.3469    8.6004 N   0  0  0  0  0  0  0  0  0  0  0  0
   15.4184    2.2641    8.4469 H   0  0  0  0  0  0  0  0  0  0  0  0
   16.1635    0.2527    8.8364 C   0  0  0  0  0  0  0  0  0  0  0  0
   17.5992    0.7849    8.5573 C   0  0  0  0  0  0  0  0  0  0  0  0
   16.1394   -0.8385    7.7283 C   0  0  0  0  0  0  0  0  0  0  0  0
   16.0378   -0.3659   10.3293 C   0  0  0  0  0  0  0  0  0  0  0  0
   11.3658    4.7132   11.1525 C   0  0  0  0  0  0  0  0  0  0  0  0
   12.4059    5.7175   11.8020 C   0  0  0  0  0  0  0  0  0  0  0  0
   13.1778    6.5936   11.0537 C   0  0  0  0  0  0  0  0  0  0  0  0
   14.0567    7.6027   11.6351 N   0  0  0  0  0  0  0  0  0  0  0  0
   14.0477    7.6120   13.0438 C   0  0  0  0  0  0  0  0  0  0  0  0
   13.2926    6.7519   13.8114 C   0  0  0  0  0  0  0  0  0  0  0  0
   12.4722    5.8020   13.1948 C   0  0  0  0  0  0  0  0  0  0  0  0
   10.4048   -0.2210    7.0978 C   0  0  0  0  0  0  0  0  0  0  0  0
    9.3109   -1.2121    6.6972 C   0  0  0  0  0  0  0  0  0  0  0  0
    9.8797   -2.6274    6.4799 C   0  0  0  0  0  0  0  0  0  0  0  0
   10.7493   -3.0870    7.2184 O   0  0  0  0  0  0  0  0  0  0  0  0
    9.3887   -3.3054    5.4443 N   0  0  0  0  0  0  0  0  0  0  0  0
    8.6570   -2.8984    4.9265 H   0  0  0  0  0  0  0  0  0  0  0  0
    9.8776   -4.6239    5.0334 C   0  0  0  0  0  0  0  0  0  0  0  0
    9.6397   -4.8730    3.5246 C   0  0  0  0  0  0  0  0  0  0  0  0
    8.6936   -3.9462    2.9879 O   0  0  0  0  0  0  0  0  0  0  0  0
    9.4361   -6.3576    3.3744 C   0  0  0  0  0  0  0  0  0  0  0  0
    8.9284   -6.9621    4.6569 C   0  0  0  0  0  0  0  0  0  0  0  0
    8.2872   -8.1479    4.9823 C   0  0  0  0  0  0  0  0  0  0  0  0
    7.8914   -8.3359    6.3067 C   0  0  0  0  0  0  0  0  0  0  0  0
    8.1470   -7.3698    7.2955 C   0  0  0  0  0  0  0  0  0  0  0  0
    8.8062   -6.1584    7.0051 C   0  0  0  0  0  0  0  0  0  0  0  0
    9.2289   -5.8516    5.7086 C   0  0  0  0  0  0  0  0  0  0  0  0
    7.8567   -4.0214    3.4726 H   0  0  0  0  0  0  0  0  0  0  0  0
    8.7782   -0.6098    5.3970 C   0  0  0  0  0  0  0  0  0  0  0  0
    7.3305   -0.2579    5.4614 C   0  0  0  0  0  0  0  0  0  0  0  0
    6.3738   -0.9849    4.7633 C   0  0  0  0  0  0  0  0  0  0  0  0
    5.0658   -0.5074    4.6854 C   0  0  0  0  0  0  0  0  0  0  0  0
    4.7223    0.6953    5.3123 C   0  0  0  0  0  0  0  0  0  0  0  0
    5.6789    1.4132    6.0174 C   0  0  0  0  0  0  0  0  0  0  0  0
    6.9766    0.9375    6.0952 C   0  0  0  0  0  0  0  0  0  0  0  0
  5  6  1  0  0  0
  5 10  1  0  0  0
  5 19  1  0  0  0
  6  7  1  0  0  0
  7 11  1  0  0  0
  7  8  1  0  0  0
 11 12  2  0  0  0
 11 13  1  0  0  0
 13 15  1  0  0  0
 15 16  1  0  0  0
 15 17  1  0  0  0
 15 18  1  0  0  0
  8  9  1  0  0  0
  8  4  1  0  0  0
  9 10  1  0  0  0
  4  1  1  0  0  0
  1  2  1  0  0  0
  1 26  1  0  0  0
 26 27  1  0  0  0
 27 43  1  0  0  0
 27 28  1  0  0  0
 43 44  1  0  0  0
 44 45  2  0  0  0
 44 49  1  0  0  0
 45 46  1  0  0  0
 46 47  2  0  0  0
 47 48  1  0  0  0
 48 49  2  0  0  0
 28 29  2  0  0  0
 28 30  1  0  0  0
 30 32  1  0  0  0
 32 33  1  0  0  0
 32 41  1  0  0  0
 33 34  1  0  0  0
 33 35  1  0  0  0
 35 36  1  0  0  0
 36 37  2  0  0  0
 36 41  1  0  0  0
 37 38  1  0  0  0
 38 39  2  0  0  0
 39 40  1  0  0  0
 40 41  2  0  0  0
 19 20  1  0  0  0
 20 21  1  0  0  0
 20 25  2  0  0  0
 21 22  2  0  0  0
 22 23  1  0  0  0
 23 24  2  0  0  0
 24 25  1  0  0  0
 13 14  1  0  0  0
  2  3  1  0  0  0
 30 31  1  0  0  0
 34 42  1  0  0  0
M  END
> <minimizedAffinity>
-10.80189

$$$$
1HSH_MK1_A_401


 49 53  0  0  0  0  0  0  0  0999 V2000
   11.0078   -0.8198    5.5283 C   0  0  0  0  0  0  0  0  0  0  0  0
   12.0566   -1.5977    4.9416 O   0  0  0  0  0  0  0  0  0  0  0  0
   11.9961   -2.5127    5.2577 H   0  0  0  0  0  0  0  0  0  0  0  0
   11.2018   -0.7400    7.0442 C   0  0  0  0  0  0  0  0  0  0  0  0
   11.5826    3.5951    7.4811 N   0  0  0  0  0  0  0  0  0  0  0  0
   12.7575    2.7128    7.5035 C   0  0  0  0  0  0  0  0  0  0  0  0
   12.6048    1.2899    6.9487 C   0  0  0  0  0  0  0  0  0  0  0  0
   11.4168    0.6237    7.4953 N   0  0  0  0  0  0  0  0  0  0  0  0
   10.1905    1.4705    7.5905 C   0  0  0  0  0  0  0  0  0  0  0  0
   10.4188    2.9060    8.0998 C   0  0  0  0  0  0  0  0  0  0  0  0
   13.9055    0.5427    7.1901 C   0  0  0  0  0  0  0  0  0  0  0  0
   14.3663   -0.1899    6.3093 O   0  0  0  0  0  0  0  0  0  0  0  0
   14.4731    0.6881    8.3891 N   0  0  0  0  0  0  0  0  0  0  0  0
   14.0308    1.2962    9.0245 H   0  0  0  0  0  0  0  0  0  0  0  0
   15.7653   -0.0151    8.8685 C   0  0  0  0  0  0  0  0  0  0  0  0
   15.8980   -1.4429    8.2635 C   0  0  0  0  0  0  0  0  0  0  0  0
   15.6810   -0.4414   10.3619 C   0  0  0  0  0  0  0  0  0  0  0  0
   17.0702    0.8911    8.5472 C   0  0  0  0  0  0  0  0  0  0  0  0
   11.7898    5.0355    7.8006 C   0  0  0  0  0  0  0  0  0  0  0  0
   12.6802    5.5508    9.0064 C   0  0  0  0  0  0  0  0  0  0  0  0
   13.8729    6.2351    8.8256 C   0  0  0  0  0  0  0  0  0  0  0  0
   14.6500    6.8162    9.9153 N   0  0  0  0  0  0  0  0  0  0  0  0
   14.0706    6.6224   11.1847 C   0  0  0  0  0  0  0  0  0  0  0  0
   12.8887    5.9450   11.3927 C   0  0  0  0  0  0  0  0  0  0  0  0
   12.1916    5.4059   10.3070 C   0  0  0  0  0  0  0  0  0  0  0  0
    9.7118   -1.4628    5.0377 C   0  0  0  0  0  0  0  0  0  0  0  0
    8.9498   -2.3234    6.0466 C   0  0  0  0  0  0  0  0  0  0  0  0
    9.5564   -3.7351    6.1604 C   0  0  0  0  0  0  0  0  0  0  0  0
   10.6380   -3.9231    6.7148 O   0  0  0  0  0  0  0  0  0  0  0  0
    8.8521   -4.7232    5.6117 N   0  0  0  0  0  0  0  0  0  0  0  0
    7.9697   -4.5098    5.2308 H   0  0  0  0  0  0  0  0  0  0  0  0
    9.3185   -6.1103    5.5438 C   0  0  0  0  0  0  0  0  0  0  0  0
    9.1416   -6.7003    4.1241 C   0  0  0  0  0  0  0  0  0  0  0  0
    8.2496   -5.9064    3.3392 O   0  0  0  0  0  0  0  0  0  0  0  0
    8.8996   -8.1747    4.3127 C   0  0  0  0  0  0  0  0  0  0  0  0
    8.3161   -8.4530    5.6728 C   0  0  0  0  0  0  0  0  0  0  0  0
    7.6248   -9.5175    6.2316 C   0  0  0  0  0  0  0  0  0  0  0  0
    7.1640   -9.3834    7.5414 C   0  0  0  0  0  0  0  0  0  0  0  0
    7.4041   -8.2181    8.2905 C   0  0  0  0  0  0  0  0  0  0  0  0
    8.1125   -7.1210    7.7607 C   0  0  0  0  0  0  0  0  0  0  0  0
    8.6026   -7.1336    6.4517 C   0  0  0  0  0  0  0  0  0  0  0  0
    7.3897   -5.8502    3.7845 H   0  0  0  0  0  0  0  0  0  0  0  0
    7.5407   -2.3582    5.4548 C   0  0  0  0  0  0  0  0  0  0  0  0
    6.8623   -1.0302    5.4721 C   0  0  0  0  0  0  0  0  0  0  0  0
    7.1279   -0.0911    6.4614 C   0  0  0  0  0  0  0  0  0  0  0  0
    6.3320    1.0498    6.5610 C   0  0  0  0  0  0  0  0  0  0  0  0
    5.2759    1.2456    5.6645 C   0  0  0  0  0  0  0  0  0  0  0  0
    5.0205    0.3099    4.6712 C   0  0  0  0  0  0  0  0  0  0  0  0
    5.8120   -0.8216    4.5725 C   0  0  0  0  0  0  0  0  0  0  0  0
  5  6  1  0  0  0
  5 10  1  0  0  0
  5 19  1  0  0  0
  6  7  1  0  0  0
  7 11  1  0  0  0
  7  8  1  0  0  0
 11 12  2  0  0  0
 11 13  1  0  0  0
 13 15  1  0  0  0
 15 16  1  0  0  0
 15 17  1  0  0  0
 15 18  1  0  0  0
  8  9  1  0  0  0
  8  4  1  0  0  0
  9 10  1  0  0  0
  4  1  1  0  0  0
  1  2  1  0  0  0
  1 26  1  0  0  0
 26 27  1  0  0  0
 27 43  1  0  0  0
 27 28  1  0  0  0
 43 44  1  0  0  0
 44 45  2  0  0  0
 44 49  1  0  0  0
 45 46  1  0  0  0
 46 47  2  0  0  0
 47 48  1  0  0  0
 48 49  2  0  0  0
 28 29  2  0  0  0
 28 30  1  0  0  0
 30 32  1  0  0  0
 32 33  1  0  0  0
 32 41  1  0  0  0
 33 34  1  0  0  0
 33 35  1  0  0  0
 35 36  1  0  0  0
 36 37  2  0  0  0
 36 41  1  0  0  0
 37 38  1  0  0  0
 38 39  2  0  0  0
 39 40  1  0  0  0
 40 41  2  0  0  0
 19 20  1  0  0  0
 20 21  1  0  0  0
 20 25  2  0  0  0
 21 22  2  0  0  0
 22 23  1  0  0  0
 23 24  2  0  0  0
 24 25  1  0  0  0
 13 14  1  0  0  0
  2  3  1  0  0  0
 30 31  1  0  0  0
 34 42  1  0  0  0
M  END
> <minimizedAffinity>
-10.62722

$$$$
1HSH_MK1_A_401


 49 53  0  0  0  0  0  0  0  0999 V2000
   11.2645    1.2030    6.2594 C   0  0  0  0  0  0  0  0  0  0  0  0
   10.1438    2.0747    6.4425 O   0  0  0  0  0  0  0  0  0  0  0  0
    9.3795    1.5596    6.7449 H   0  0  0  0  0  0  0  0  0  0  0  0
   10.9738    0.2077    5.1338 C   0  0  0  0  0  0  0  0  0  0  0  0
   10.4130   -4.0946    5.6856 N   0  0  0  0  0  0  0  0  0  0  0  0
    9.3481   -3.1325    6.0015 C   0  0  0  0  0  0  0  0  0  0  0  0
    9.4536   -1.7178    5.4157 C   0  0  0  0  0  0  0  0  0  0  0  0
   10.7858   -1.1425    5.6349 N   0  0  0  0  0  0  0  0  0  0  0  0
   11.9328   -2.0741    5.4193 C   0  0  0  0  0  0  0  0  0  0  0  0
   11.7419   -3.4955    5.9807 C   0  0  0  0  0  0  0  0  0  0  0  0
    8.3140   -0.8841    5.9764 C   0  0  0  0  0  0  0  0  0  0  0  0
    8.3712   -0.4658    7.1368 O   0  0  0  0  0  0  0  0  0  0  0  0
    7.2645   -0.6792    5.1777 N   0  0  0  0  0  0  0  0  0  0  0  0
    7.3134   -1.0517    4.2677 H   0  0  0  0  0  0  0  0  0  0  0  0
    5.9779    0.0924    5.5563 C   0  0  0  0  0  0  0  0  0  0  0  0
    6.2315    1.6261    5.6313 C   0  0  0  0  0  0  0  0  0  0  0  0
    5.5872   -0.1155    7.0473 C   0  0  0  0  0  0  0  0  0  0  0  0
    4.7696   -0.2619    4.5356 C   0  0  0  0  0  0  0  0  0  0  0  0
   10.1934   -5.5204    6.0581 C   0  0  0  0  0  0  0  0  0  0  0  0
    9.0580   -6.4300    5.4291 C   0  0  0  0  0  0  0  0  0  0  0  0
    9.0358   -6.7923    4.0905 C   0  0  0  0  0  0  0  0  0  0  0  0
    8.0664   -7.7184    3.5148 N   0  0  0  0  0  0  0  0  0  0  0  0
    7.1451   -8.2233    4.4534 C   0  0  0  0  0  0  0  0  0  0  0  0
    7.1432   -7.8787    5.7877 C   0  0  0  0  0  0  0  0  0  0  0  0
    8.0961   -6.9811    6.2792 C   0  0  0  0  0  0  0  0  0  0  0  0
   11.5400    0.6117    7.6407 C   0  0  0  0  0  0  0  0  0  0  0  0
   12.5471    1.3585    8.5167 C   0  0  0  0  0  0  0  0  0  0  0  0
   11.9546    2.6678    9.0721 C   0  0  0  0  0  0  0  0  0  0  0  0
   10.7936    2.7240    9.4740 O   0  0  0  0  0  0  0  0  0  0  0  0
   12.7641    3.7253    9.0726 N   0  0  0  0  0  0  0  0  0  0  0  0
   13.6972    3.5971    8.7861 H   0  0  0  0  0  0  0  0  0  0  0  0
   12.3421    5.0689    9.4762 C   0  0  0  0  0  0  0  0  0  0  0  0
   13.2212    6.1611    8.8210 C   0  0  0  0  0  0  0  0  0  0  0  0
   14.4299    5.6090    8.2955 O   0  0  0  0  0  0  0  0  0  0  0  0
   13.2568    7.3080    9.7964 C   0  0  0  0  0  0  0  0  0  0  0  0
   13.0117    6.8250   11.2016 C   0  0  0  0  0  0  0  0  0  0  0  0
   13.2485    7.3514   12.4626 C   0  0  0  0  0  0  0  0  0  0  0  0
   12.9457    6.5591   13.5701 C   0  0  0  0  0  0  0  0  0  0  0  0
   12.3974    5.2725   13.4268 C   0  0  0  0  0  0  0  0  0  0  0  0
   12.1321    4.7089   12.1626 C   0  0  0  0  0  0  0  0  0  0  0  0
   12.4155    5.4017   10.9821 C   0  0  0  0  0  0  0  0  0  0  0  0
   14.9214    5.1705    9.0075 H   0  0  0  0  0  0  0  0  0  0  0  0
   13.6977    1.6242    7.5459 C   0  0  0  0  0  0  0  0  0  0  0  0
   14.9786    0.9840    7.9622 C   0  0  0  0  0  0  0  0  0  0  0  0
   16.0050    1.7206    8.5411 C   0  0  0  0  0  0  0  0  0  0  0  0
   17.2551    1.1320    8.7295 C   0  0  0  0  0  0  0  0  0  0  0  0
   17.4686   -0.1949    8.3406 C   0  0  0  0  0  0  0  0  0  0  0  0
   16.4374   -0.9304    7.7721 C   0  0  0  0  0  0  0  0  0  0  0  0
   15.1965   -0.3454    7.5868 C   0  0  0  0  0  0  0  0  0  0  0  0
  5  6  1  0  0  0
  5 10  1  0  0  0
  5 19  1  0  0  0
  6  7  1  0  0  0
  7 11  1  0  0  0
  7  8  1  0  0  0
 11 12  2  0  0  0
 11 13  1  0  0  0
 13 15  1  0  0  0
 15 16  1  0  0  0
 15 17  1  0  0  0
 15 18  1  0  0  0
  8  9  1  0  0  0
  8  4  1  0  0  0
  9 10  1  0  0  0
  4  1  1  0  0  0
  1  2  1  0  0  0
  1 26  1  0  0  0
 26 27  1  0  0  0
 27 43  1  0  0  0
 27 28  1  0  0  0
 43 44  1  0  0  0
 44 45  2  0  0  0
 44 49  1  0  0  0
 45 46  1  0  0  0
 46 47  2  0  0  0
 47 48  1  0  0  0
 48 49  2  0  0  0
 28 29  2  0  0  0
 28 30  1  0  0  0
 30 32  1  0  0  0
 32 33  1  0  0  0
 32 41  1  0  0  0
 33 34  1  0  0  0
 33 35  1  0  0  0
 35 36  1  0  0  0
 36 37  2  0  0  0
 36 41  1  0  0  0
 37 38  1  0  0  0
 38 39  2  0  0  0
 39 40  1  0  0  0
 40 41  2  0  0  0
 19 20  1  0  0  0
 20 21  1  0  0  0
 20 25  2  0  0  0
 21 22  2  0  0  0
 22 23  1  0  0  0
 23 24  2  0  0  0
 24 25  1  0  0  0
 13 14  1  0  0  0
  2  3  1  0  0  0
 30 31  1  0  0  0
 34 42  1  0  0  0
M  END
> <minimizedAffinity>
-10.51737

$$$$
1HSH_MK1_A_401


 49 53  0  0  0  0  0  0  0  0999 V2000
   13.3322    0.6817    7.2384 C   0  0  0  0  0  0  0  0  0  0  0  0
   12.9453    0.7862    5.8641 O   0  0  0  0  0  0  0  0  0  0  0  0
   12.2671    1.4733    5.7705 H   0  0  0  0  0  0  0  0  0  0  0  0
   12.1476    0.2010    8.0797 C   0  0  0  0  0  0  0  0  0  0  0  0
    7.9679    0.8089    6.9444 N   0  0  0  0  0  0  0  0  0  0  0  0
    8.6666   -0.4528    6.6629 C   0  0  0  0  0  0  0  0  0  0  0  0
    9.9630   -0.7489    7.4291 C   0  0  0  0  0  0  0  0  0  0  0  0
   10.8801    0.3965    7.3982 N   0  0  0  0  0  0  0  0  0  0  0  0
   10.2456    1.7344    7.5915 C   0  0  0  0  0  0  0  0  0  0  0  0
    8.9177    1.9488    6.8413 C   0  0  0  0  0  0  0  0  0  0  0  0
   10.5552   -2.0371    6.8831 C   0  0  0  0  0  0  0  0  0  0  0  0
   11.4611   -2.6069    7.4990 O   0  0  0  0  0  0  0  0  0  0  0  0
   10.0818   -2.4725    5.7137 N   0  0  0  0  0  0  0  0  0  0  0  0
    9.3570   -1.9500    5.3002 H   0  0  0  0  0  0  0  0  0  0  0  0
   10.5717   -3.7262    4.9508 C   0  0  0  0  0  0  0  0  0  0  0  0
    9.5198   -4.2109    3.9112 C   0  0  0  0  0  0  0  0  0  0  0  0
   10.5633   -4.9978    5.8465 C   0  0  0  0  0  0  0  0  0  0  0  0
   12.0121   -3.4558    4.2583 C   0  0  0  0  0  0  0  0  0  0  0  0
    6.6015    0.9873    6.3778 C   0  0  0  0  0  0  0  0  0  0  0  0
    5.8255   -0.1402    5.5785 C   0  0  0  0  0  0  0  0  0  0  0  0
    4.8793    0.1404    4.6041 C   0  0  0  0  0  0  0  0  0  0  0  0
    4.2364   -0.8763    3.7785 N   0  0  0  0  0  0  0  0  0  0  0  0
    4.6719   -2.1864    4.0591 C   0  0  0  0  0  0  0  0  0  0  0  0
    5.6082   -2.4933    5.0225 C   0  0  0  0  0  0  0  0  0  0  0  0
    6.1858   -1.4739    5.7857 C   0  0  0  0  0  0  0  0  0  0  0  0
   13.9136    2.0487    7.5944 C   0  0  0  0  0  0  0  0  0  0  0  0
   14.0600    2.3638    9.0839 C   0  0  0  0  0  0  0  0  0  0  0  0
   13.2899    3.6406    9.4719 C   0  0  0  0  0  0  0  0  0  0  0  0
   12.5051    4.1758    8.6907 O   0  0  0  0  0  0  0  0  0  0  0  0
   13.5387    4.1311   10.6847 N   0  0  0  0  0  0  0  0  0  0  0  0
   14.1381    3.6232   11.2780 H   0  0  0  0  0  0  0  0  0  0  0  0
   12.9694    5.3850   11.1845 C   0  0  0  0  0  0  0  0  0  0  0  0
   13.8967    6.5880   10.8877 C   0  0  0  0  0  0  0  0  0  0  0  0
   15.2149    6.1555   10.5451 O   0  0  0  0  0  0  0  0  0  0  0  0
   13.6736    7.5719   12.0058 C   0  0  0  0  0  0  0  0  0  0  0  0
   13.1839    6.8724   13.2463 C   0  0  0  0  0  0  0  0  0  0  0  0
   13.1367    7.2049   14.5919 C   0  0  0  0  0  0  0  0  0  0  0  0
   12.6670    6.2441   15.4875 C   0  0  0  0  0  0  0  0  0  0  0  0
   12.2321    4.9806   15.0504 C   0  0  0  0  0  0  0  0  0  0  0  0
   12.2542    4.6111   13.6905 C   0  0  0  0  0  0  0  0  0  0  0  0
   12.7250    5.4844   12.7058 C   0  0  0  0  0  0  0  0  0  0  0  0
   15.5804    5.6261   11.2710 H   0  0  0  0  0  0  0  0  0  0  0  0
   15.5702    2.5443    9.2375 C   0  0  0  0  0  0  0  0  0  0  0  0
   16.2861    1.2733    9.5477 C   0  0  0  0  0  0  0  0  0  0  0  0
   17.4734    0.9335    8.9105 C   0  0  0  0  0  0  0  0  0  0  0  0
   18.0034   -0.3458    9.0759 C   0  0  0  0  0  0  0  0  0  0  0  0
   17.3421   -1.2772    9.8838 C   0  0  0  0  0  0  0  0  0  0  0  0
   16.1616   -0.9301   10.5268 C   0  0  0  0  0  0  0  0  0  0  0  0
   15.6372    0.3405   10.3629 C   0  0  0  0  0  0  0  0  0  0  0  0
  5  6  1  0  0  0
  5 10  1  0  0  0
  5 19  1  0  0  0
  6  7  1  0  0  0
  7 11  1  0  0  0
  7  8  1  0  0  0
 11 12  2  0  0  0
 11 13  1  0  0  0
 13 15  1  0  0  0
 15 16  1  0  0  0
 15 17  1  0  0  0
 15 18  1  0  0  0
  8  9  1  0  0  0
  8  4  1  0  0  0
  9 10  1  0  0  0
  4  1  1  0  0  0
  1  2  1  0  0  0
  1 26  1  0  0  0
 26 27  1  0  0  0
 27 43  1  0  0  0
 27 28  1  0  0  0
 43 44  1  0  0  0
 44 45  2  0  0  0
 44 49  1  0  0  0
 45 46  1  0  0  0
 46 47  2  0  0  0
 47 48  1  0  0  0
 48 49  2  0  0  0
 28 29  2  0  0  0
 28 30  1  0  0  0
 30 32  1  0  0  0
 32 33  1  0  0  0
 32 41  1  0  0  0
 33 34  1  0  0  0
 33 35  1  0  0  0
 35 36  1  0  0  0
 36 37  2  0  0  0
 36 41  1  0  0  0
 37 38  1  0  0  0
 38 39  2  0  0  0
 39 40  1  0  0  0
 40 41  2  0  0  0
 19 20  1  0  0  0
 20 21  1  0  0  0
 20 25  2  0  0  0
 21 22  2  0  0  0
 22 23  1  0  0  0
 23 24  2  0  0  0
 24 25  1  0  0  0
 13 14  1  0  0  0
  2  3  1  0  0  0
 30 31  1  0  0  0
 34 42  1  0  0  0
M  END
> <minimizedAffinity>
-10.16969

$$$$
1HSH_MK1_A_401


 49 53  0  0  0  0  0  0  0  0999 V2000
   13.8048    2.2133    8.2326 C   0  0  0  0  0  0  0  0  0  0  0  0
   13.7588    1.4672    9.4535 O   0  0  0  0  0  0  0  0  0  0  0  0
   14.4440    0.7808    9.4389 H   0  0  0  0  0  0  0  0  0  0  0  0
   13.4472    1.3068    7.0525 C   0  0  0  0  0  0  0  0  0  0  0  0
    9.5386   -0.5909    6.5525 N   0  0  0  0  0  0  0  0  0  0  0  0
    9.6674    0.7916    7.0338 C   0  0  0  0  0  0  0  0  0  0  0  0
   10.9996    1.5176    6.8019 C   0  0  0  0  0  0  0  0  0  0  0  0
   12.1412    0.6922    7.2134 N   0  0  0  0  0  0  0  0  0  0  0  0
   12.0594   -0.7515    6.8405 C   0  0  0  0  0  0  0  0  0  0  0  0
   10.6807   -1.4075    7.0430 C   0  0  0  0  0  0  0  0  0  0  0  0
   10.9295    2.8716    7.4873 C   0  0  0  0  0  0  0  0  0  0  0  0
   10.9517    3.9048    6.8114 O   0  0  0  0  0  0  0  0  0  0  0  0
   10.8902    2.8731    8.8213 N   0  0  0  0  0  0  0  0  0  0  0  0
   10.8740    1.9974    9.2709 H   0  0  0  0  0  0  0  0  0  0  0  0
   10.8679    4.1299    9.7234 C   0  0  0  0  0  0  0  0  0  0  0  0
   11.7831    5.2554    9.1595 C   0  0  0  0  0  0  0  0  0  0  0  0
   11.6321    3.9060   11.0595 C   0  0  0  0  0  0  0  0  0  0  0  0
    9.3505    4.6536    9.9484 C   0  0  0  0  0  0  0  0  0  0  0  0
    8.1827   -1.2083    6.5693 C   0  0  0  0  0  0  0  0  0  0  0  0
    6.9390   -0.6237    5.7795 C   0  0  0  0  0  0  0  0  0  0  0  0
    6.4237   -1.2170    4.6367 C   0  0  0  0  0  0  0  0  0  0  0  0
    5.2140   -0.7621    3.9594 N   0  0  0  0  0  0  0  0  0  0  0  0
    4.6043    0.3454    4.5810 C   0  0  0  0  0  0  0  0  0  0  0  0
    5.0960    0.9550    5.7148 C   0  0  0  0  0  0  0  0  0  0  0  0
    6.2638    0.4752    6.3159 C   0  0  0  0  0  0  0  0  0  0  0  0
   15.1918    2.8529    8.2078 C   0  0  0  0  0  0  0  0  0  0  0  0
   16.0822    2.6047    9.4263 C   0  0  0  0  0  0  0  0  0  0  0  0
   16.5500    3.9261   10.0657 C   0  0  0  0  0  0  0  0  0  0  0  0
   17.6414    4.4198    9.7867 O   0  0  0  0  0  0  0  0  0  0  0  0
   15.7156    4.4828   10.9416 N   0  0  0  0  0  0  0  0  0  0  0  0
   14.8360    4.0622   11.0783 H   0  0  0  0  0  0  0  0  0  0  0  0
   16.0347    5.6867   11.7128 C   0  0  0  0  0  0  0  0  0  0  0  0
   16.7975    5.3419   13.0145 C   0  0  0  0  0  0  0  0  0  0  0  0
   16.6824    3.9533   13.3316 O   0  0  0  0  0  0  0  0  0  0  0  0
   16.4098    6.3971   14.0166 C   0  0  0  0  0  0  0  0  0  0  0  0
   15.0643    6.9855   13.6829 C   0  0  0  0  0  0  0  0  0  0  0  0
   14.1183    7.7070   14.3954 C   0  0  0  0  0  0  0  0  0  0  0  0
   12.9211    8.0276   13.7551 C   0  0  0  0  0  0  0  0  0  0  0  0
   12.6767    7.6549   12.4217 C   0  0  0  0  0  0  0  0  0  0  0  0
   13.6186    6.9318   11.6625 C   0  0  0  0  0  0  0  0  0  0  0  0
   14.8440    6.5366   12.2066 C   0  0  0  0  0  0  0  0  0  0  0  0
   15.7456    3.7194   13.4242 H   0  0  0  0  0  0  0  0  0  0  0  0
   17.2500    1.8196    8.8289 C   0  0  0  0  0  0  0  0  0  0  0  0
   17.0478    0.3427    8.8688 C   0  0  0  0  0  0  0  0  0  0  0  0
   16.6530   -0.3678    7.7416 C   0  0  0  0  0  0  0  0  0  0  0  0
   16.2797   -1.7058    7.8652 C   0  0  0  0  0  0  0  0  0  0  0  0
   16.3087   -2.3265    9.1188 C   0  0  0  0  0  0  0  0  0  0  0  0
   16.7136   -1.6159   10.2406 C   0  0  0  0  0  0  0  0  0  0  0  0
   17.0852   -0.2882   10.1164 C   0  0  0  0  0  0  0  0  0  0  0  0
  5  6  1  0  0  0
  5 10  1  0  0  0
  5 19  1  0  0  0
  6  7  1  0  0  0
  7 11  1  0  0  0
  7  8  1  0  0  0
 11 12  2  0  0  0
 11 13  1  0  0  0
 13 15  1  0  0  0
 15 16  1  0  0  0
 15 17  1  0  0  0
 15 18  1  0  0  0
  8  9  1  0  0  0
  8  4  1  0  0  0
  9 10  1  0  0  0
  4  1  1  0  0  0
  1  2  1  0  0  0
  1 26  1  0  0  0
 26 27  1  0  0  0
 27 43  1  0  0  0
 27 28  1  0  0  0
 43 44  1  0  0  0
 44 45  2  0  0  0
 44 49  1  0  0  0
 45 46  1  0  0  0
 46 47  2  0  0  0
 47 48  1  0  0  0
 48 49  2  0  0  0
 28 29  2  0  0  0
 28 30  1  0  0  0
 30 32  1  0  0  0
 32 33  1  0  0  0
 32 41  1  0  0  0
 33 34  1  0  0  0
 33 35  1  0  0  0
 35 36  1  0  0  0
 36 37  2  0  0  0
 36 41  1  0  0  0
 37 38  1  0  0  0
 38 39  2  0  0  0
 39 40  1  0  0  0
 40 41  2  0  0  0
 19 20  1  0  0  0
 20 21  1  0  0  0
 20 25  2  0  0  0
 21 22  2  0  0  0
 22 23  1  0  0  0
 23 24  2  0  0  0
 24 25  1  0  0  0
 13 14  1  0  0  0
  2  3  1  0  0  0
 30 31  1  0  0  0
 34 42  1  0  0  0
M  END
> <minimizedAffinity>
-10.15983

$$$$
1HSH_MK1_A_401


 49 53  0  0  0  0  0  0  0  0999 V2000
   12.2238    1.0522    8.7766 C   0  0  0  0  0  0  0  0  0  0  0  0
   10.9028    1.5972    8.8615 O   0  0  0  0  0  0  0  0  0  0  0  0
   10.5898    1.8262    7.9725 H   0  0  0  0  0  0  0  0  0  0  0  0
   13.1965    2.1171    8.2649 C   0  0  0  0  0  0  0  0  0  0  0  0
   14.9556    5.1483   10.8814 N   0  0  0  0  0  0  0  0  0  0  0  0
   15.7450    4.0177   10.3734 C   0  0  0  0  0  0  0  0  0  0  0  0
   15.2024    3.2405    9.1662 C   0  0  0  0  0  0  0  0  0  0  0  0
   13.7922    2.8776    9.3494 N   0  0  0  0  0  0  0  0  0  0  0  0
   12.9258    3.9398    9.9418 C   0  0  0  0  0  0  0  0  0  0  0  0
   13.5496    4.7222   11.1127 C   0  0  0  0  0  0  0  0  0  0  0  0
   16.1222    2.0592    8.9080 C   0  0  0  0  0  0  0  0  0  0  0  0
   17.0805    2.1826    8.1391 O   0  0  0  0  0  0  0  0  0  0  0  0
   15.8119    0.9084    9.5085 N   0  0  0  0  0  0  0  0  0  0  0  0
   15.0290    0.9103   10.1055 H   0  0  0  0  0  0  0  0  0  0  0  0
   16.5743   -0.4284    9.3490 C   0  0  0  0  0  0  0  0  0  0  0  0
   16.3670   -1.3561   10.5814 C   0  0  0  0  0  0  0  0  0  0  0  0
   18.1121   -0.2472    9.4957 C   0  0  0  0  0  0  0  0  0  0  0  0
   16.1586   -1.1703    7.9691 C   0  0  0  0  0  0  0  0  0  0  0  0
   15.5895    6.0380   11.8945 C   0  0  0  0  0  0  0  0  0  0  0  0
   16.0784    5.5428   13.3186 C   0  0  0  0  0  0  0  0  0  0  0  0
   17.1731    4.7093   13.4933 C   0  0  0  0  0  0  0  0  0  0  0  0
   17.7084    4.3328   14.7973 N   0  0  0  0  0  0  0  0  0  0  0  0
   17.0081    4.9031   15.8785 C   0  0  0  0  0  0  0  0  0  0  0  0
   15.9167    5.7320   15.7335 C   0  0  0  0  0  0  0  0  0  0  0  0
   15.4474    6.0525   14.4559 C   0  0  0  0  0  0  0  0  0  0  0  0
   12.0813   -0.2089    7.9264 C   0  0  0  0  0  0  0  0  0  0  0  0
   12.4991   -0.0965    6.4594 C   0  0  0  0  0  0  0  0  0  0  0  0
   11.3072    0.2763    5.5571 C   0  0  0  0  0  0  0  0  0  0  0  0
   11.4783    0.7761    4.4464 O   0  0  0  0  0  0  0  0  0  0  0  0
   10.0956    0.0422    6.0577 N   0  0  0  0  0  0  0  0  0  0  0  0
   10.0319   -0.4084    6.9307 H   0  0  0  0  0  0  0  0  0  0  0  0
    8.8522    0.4183    5.3804 C   0  0  0  0  0  0  0  0  0  0  0  0
    8.0339    1.4313    6.2166 C   0  0  0  0  0  0  0  0  0  0  0  0
    8.4846    1.4700    7.5721 O   0  0  0  0  0  0  0  0  0  0  0  0
    6.5872    1.1674    5.8917 C   0  0  0  0  0  0  0  0  0  0  0  0
    6.3911   -0.2528    5.4309 C   0  0  0  0  0  0  0  0  0  0  0  0
    5.2947   -1.0957    5.3275 C   0  0  0  0  0  0  0  0  0  0  0  0
    5.5160   -2.4098    4.9148 C   0  0  0  0  0  0  0  0  0  0  0  0
    6.8033   -2.8726    4.5906 C   0  0  0  0  0  0  0  0  0  0  0  0
    7.9393   -2.0425    4.6722 C   0  0  0  0  0  0  0  0  0  0  0  0
    7.8417   -0.7137    5.0948 C   0  0  0  0  0  0  0  0  0  0  0  0
    8.4141    0.5845    7.9617 H   0  0  0  0  0  0  0  0  0  0  0  0
   13.0226   -1.5003    6.1555 C   0  0  0  0  0  0  0  0  0  0  0  0
   11.9407   -2.4745    5.8326 C   0  0  0  0  0  0  0  0  0  0  0  0
   11.2582   -3.1600    6.8303 C   0  0  0  0  0  0  0  0  0  0  0  0
   10.4003   -4.2045    6.4866 C   0  0  0  0  0  0  0  0  0  0  0  0
   10.2275   -4.5535    5.1428 C   0  0  0  0  0  0  0  0  0  0  0  0
   10.9035   -3.8592    4.1485 C   0  0  0  0  0  0  0  0  0  0  0  0
   11.7537   -2.8218    4.4908 C   0  0  0  0  0  0  0  0  0  0  0  0
  5  6  1  0  0  0
  5 10  1  0  0  0
  5 19  1  0  0  0
  6  7  1  0  0  0
  7 11  1  0  0  0
  7  8  1  0  0  0
 11 12  2  0  0  0
 11 13  1  0  0  0
 13 15  1  0  0  0
 15 16  1  0  0  0
 15 17  1  0  0  0
 15 18  1  0  0  0
  8  9  1  0  0  0
  8  4  1  0  0  0
  9 10  1  0  0  0
  4  1  1  0  0  0
  1  2  1  0  0  0
  1 26  1  0  0  0
 26 27  1  0  0  0
 27 43  1  0  0  0
 27 28  1  0  0  0
 43 44  1  0  0  0
 44 45  2  0  0  0
 44 49  1  0  0  0
 45 46  1  0  0  0
 46 47  2  0  0  0
 47 48  1  0  0  0
 48 49  2  0  0  0
 28 29  2  0  0  0
 28 30  1  0  0  0
 30 32  1  0  0  0
 32 33  1  0  0  0
 32 41  1  0  0  0
 33 34  1  0  0  0
 33 35  1  0  0  0
 35 36  1  0  0  0
 36 37  2  0  0  0
 36 41  1  0  0  0
 37 38  1  0  0  0
 38 39  2  0  0  0
 39 40  1  0  0  0
 40 41  2  0  0  0
 19 20  1  0  0  0
 20 21  1  0  0  0
 20 25  2  0  0  0
 21 22  2  0  0  0
 22 23  1  0  0  0
 23 24  2  0  0  0
 24 25  1  0  0  0
 13 14  1  0  0  0
  2  3  1  0  0  0
 30 31  1  0  0  0
 34 42  1  0  0  0
M  END
> <minimizedAffinity>
-10.15567

$$$$
1HSH_MK1_A_401


 49 53  0  0  0  0  0  0  0  0999 V2000
   14.3458    2.5530    9.4946 C   0  0  0  0  0  0  0  0  0  0  0  0
   12.9956    2.9922    9.3115 O   0  0  0  0  0  0  0  0  0  0  0  0
   12.7644    2.9431    8.3707 H   0  0  0  0  0  0  0  0  0  0  0  0
   15.3074    3.5119    8.7890 C   0  0  0  0  0  0  0  0  0  0  0  0
   18.3730    3.9269   11.8807 N   0  0  0  0  0  0  0  0  0  0  0  0
   17.2198    4.8351   11.8129 C   0  0  0  0  0  0  0  0  0  0  0  0
   16.0024    4.3989   10.9863 C   0  0  0  0  0  0  0  0  0  0  0  0
   16.3978    3.9254    9.6546 N   0  0  0  0  0  0  0  0  0  0  0  0
   17.6147    3.0608    9.6139 C   0  0  0  0  0  0  0  0  0  0  0  0
   18.7805    3.5210   10.5091 C   0  0  0  0  0  0  0  0  0  0  0  0
   15.0031    5.5431   10.9702 C   0  0  0  0  0  0  0  0  0  0  0  0
   15.3469    6.6541   10.5551 O   0  0  0  0  0  0  0  0  0  0  0  0
   13.7870    5.2910   11.4589 N   0  0  0  0  0  0  0  0  0  0  0  0
   13.6075    4.3726   11.7646 H   0  0  0  0  0  0  0  0  0  0  0  0
   12.6344    6.3153   11.5872 C   0  0  0  0  0  0  0  0  0  0  0  0
   12.8982    7.5845   10.7259 C   0  0  0  0  0  0  0  0  0  0  0  0
   12.6263    7.0175   12.9749 C   0  0  0  0  0  0  0  0  0  0  0  0
   11.2106    5.6327   11.2207 C   0  0  0  0  0  0  0  0  0  0  0  0
   19.4486    4.2424   12.8622 C   0  0  0  0  0  0  0  0  0  0  0  0
   19.1751    4.8179   14.3135 C   0  0  0  0  0  0  0  0  0  0  0  0
   19.2757    6.1662   14.6223 C   0  0  0  0  0  0  0  0  0  0  0  0
   18.9200    6.7319   15.9194 N   0  0  0  0  0  0  0  0  0  0  0  0
   18.4538    5.7744   16.8416 C   0  0  0  0  0  0  0  0  0  0  0  0
   18.3462    4.4293   16.5619 C   0  0  0  0  0  0  0  0  0  0  0  0
   18.7077    3.9466   15.3003 C   0  0  0  0  0  0  0  0  0  0  0  0
   14.3602    1.1001    9.0230 C   0  0  0  0  0  0  0  0  0  0  0  0
   14.6490    0.8645    7.5396 C   0  0  0  0  0  0  0  0  0  0  0  0
   13.4158    1.1666    6.6667 C   0  0  0  0  0  0  0  0  0  0  0  0
   13.5132    1.8126    5.6247 O   0  0  0  0  0  0  0  0  0  0  0  0
   12.2504    0.7047    7.1162 N   0  0  0  0  0  0  0  0  0  0  0  0
   12.2523    0.1503    7.9297 H   0  0  0  0  0  0  0  0  0  0  0  0
   10.9659    0.9763    6.4663 C   0  0  0  0  0  0  0  0  0  0  0  0
   10.0049    1.7436    7.4059 C   0  0  0  0  0  0  0  0  0  0  0  0
   10.4431    1.6763    8.7644 O   0  0  0  0  0  0  0  0  0  0  0  0
    8.6140    1.3128    7.0215 C   0  0  0  0  0  0  0  0  0  0  0  0
    8.6319   -0.0509    6.3828 C   0  0  0  0  0  0  0  0  0  0  0  0
    7.6731   -1.0261    6.1527 C   0  0  0  0  0  0  0  0  0  0  0  0
    8.0878   -2.2303    5.5835 C   0  0  0  0  0  0  0  0  0  0  0  0
    9.4301   -2.4537    5.2300 C   0  0  0  0  0  0  0  0  0  0  0  0
   10.4299   -1.4824    5.4377 C   0  0  0  0  0  0  0  0  0  0  0  0
   10.1353   -0.2468    6.0211 C   0  0  0  0  0  0  0  0  0  0  0  0
   10.5044    0.7479    9.0388 H   0  0  0  0  0  0  0  0  0  0  0  0
   15.0178   -0.6186    7.5054 C   0  0  0  0  0  0  0  0  0  0  0  0
   16.2042   -0.9494    8.3463 C   0  0  0  0  0  0  0  0  0  0  0  0
   16.0872   -1.7182    9.4980 C   0  0  0  0  0  0  0  0  0  0  0  0
   17.1754   -1.8360   10.3622 C   0  0  0  0  0  0  0  0  0  0  0  0
   18.3778   -1.1855   10.0646 C   0  0  0  0  0  0  0  0  0  0  0  0
   18.4935   -0.4268    8.9076 C   0  0  0  0  0  0  0  0  0  0  0  0
   17.4130   -0.3118    8.0499 C   0  0  0  0  0  0  0  0  0  0  0  0
  5  6  1  0  0  0
  5 10  1  0  0  0
  5 19  1  0  0  0
  6  7  1  0  0  0
  7 11  1  0  0  0
  7  8  1  0  0  0
 11 12  2  0  0  0
 11 13  1  0  0  0
 13 15  1  0  0  0
 15 16  1  0  0  0
 15 17  1  0  0  0
 15 18  1  0  0  0
  8  9  1  0  0  0
  8  4  1  0  0  0
  9 10  1  0  0  0
  4  1  1  0  0  0
  1  2  1  0  0  0
  1 26  1  0  0  0
 26 27  1  0  0  0
 27 43  1  0  0  0
 27 28  1  0  0  0
 43 44  1  0  0  0
 44 45  2  0  0  0
 44 49  1  0  0  0
 45 46  1  0  0  0
 46 47  2  0  0  0
 47 48  1  0  0  0
 48 49  2  0  0  0
 28 29  2  0  0  0
 28 30  1  0  0  0
 30 32  1  0  0  0
 32 33  1  0  0  0
 32 41  1  0  0  0
 33 34  1  0  0  0
 33 35  1  0  0  0
 35 36  1  0  0  0
 36 37  2  0  0  0
 36 41  1  0  0  0
 37 38  1  0  0  0
 38 39  2  0  0  0
 39 40  1  0  0  0
 40 41  2  0  0  0
 19 20  1  0  0  0
 20 21  1  0  0  0
 20 25  2  0  0  0
 21 22  2  0  0  0
 22 23  1  0  0  0
 23 24  2  0  0  0
 24 25  1  0  0  0
 13 14  1  0  0  0
  2  3  1  0  0  0
 30 31  1  0  0  0
 34 42  1  0  0  0
M  END
> <minimizedAffinity>
-10.15553

$$$$
1HSH_MK1_A_401


 49 53  0  0  0  0  0  0  0  0999 V2000
    9.7473    1.5212    6.6114 C   0  0  0  0  0  0  0  0  0  0  0  0
    9.6280    1.4333    5.1875 O   0  0  0  0  0  0  0  0  0  0  0  0
    8.8299    1.9039    4.9003 H   0  0  0  0  0  0  0  0  0  0  0  0
    8.5811    0.7894    7.2796 C   0  0  0  0  0  0  0  0  0  0  0  0
    5.5616   -1.5665    5.1674 N   0  0  0  0  0  0  0  0  0  0  0  0
    6.9336   -2.0600    5.3511 C   0  0  0  0  0  0  0  0  0  0  0  0
    7.8050   -1.3933    6.4242 C   0  0  0  0  0  0  0  0  0  0  0  0
    7.7656    0.0699    6.3170 N   0  0  0  0  0  0  0  0  0  0  0  0
    6.4208    0.6595    6.0453 C   0  0  0  0  0  0  0  0  0  0  0  0
    5.5721   -0.0886    5.0001 C   0  0  0  0  0  0  0  0  0  0  0  0
    9.2008   -1.9875    6.3409 C   0  0  0  0  0  0  0  0  0  0  0  0
   10.0109   -1.7843    7.2504 O   0  0  0  0  0  0  0  0  0  0  0  0
    9.4987   -2.6798    5.2395 N   0  0  0  0  0  0  0  0  0  0  0  0
    8.7844   -2.7889    4.5708 H   0  0  0  0  0  0  0  0  0  0  0  0
   10.8680   -3.3260    4.9210 C   0  0  0  0  0  0  0  0  0  0  0  0
   11.9200   -2.2592    4.4995 C   0  0  0  0  0  0  0  0  0  0  0  0
   10.8449   -4.1188    3.5831 C   0  0  0  0  0  0  0  0  0  0  0  0
   11.3915   -4.2171    6.1697 C   0  0  0  0  0  0  0  0  0  0  0  0
    4.6492   -2.3596    4.2967 C   0  0  0  0  0  0  0  0  0  0  0  0
    3.9520   -3.7090    4.7497 C   0  0  0  0  0  0  0  0  0  0  0  0
    4.6274   -4.9177    4.8305 C   0  0  0  0  0  0  0  0  0  0  0  0
    4.0366   -6.1458    5.3516 N   0  0  0  0  0  0  0  0  0  0  0  0
    2.7022   -5.9918    5.7762 C   0  0  0  0  0  0  0  0  0  0  0  0
    2.0072   -4.8039    5.7051 C   0  0  0  0  0  0  0  0  0  0  0  0
    2.6274   -3.6610    5.1908 C   0  0  0  0  0  0  0  0  0  0  0  0
    9.8789    3.0136    6.9095 C   0  0  0  0  0  0  0  0  0  0  0  0
   11.2790    3.5215    7.2577 C   0  0  0  0  0  0  0  0  0  0  0  0
   12.3750    2.6268    6.6477 C   0  0  0  0  0  0  0  0  0  0  0  0
   12.4638    2.4643    5.4318 O   0  0  0  0  0  0  0  0  0  0  0  0
   13.1979    2.0344    7.5110 N   0  0  0  0  0  0  0  0  0  0  0  0
   13.1033    2.2501    8.4669 H   0  0  0  0  0  0  0  0  0  0  0  0
   14.2363    1.0794    7.1161 C   0  0  0  0  0  0  0  0  0  0  0  0
   13.7183   -0.3779    7.1712 C   0  0  0  0  0  0  0  0  0  0  0  0
   12.5106   -0.4716    7.9292 O   0  0  0  0  0  0  0  0  0  0  0  0
   14.9113   -1.2316    7.5119 C   0  0  0  0  0  0  0  0  0  0  0  0
   15.9500   -0.4311    8.2525 C   0  0  0  0  0  0  0  0  0  0  0  0
   17.0321   -0.7558    9.0567 C   0  0  0  0  0  0  0  0  0  0  0  0
   17.7448    0.2877    9.6477 C   0  0  0  0  0  0  0  0  0  0  0  0
   17.3999    1.6326    9.4265 C   0  0  0  0  0  0  0  0  0  0  0  0
   16.3145    2.0013    8.6066 C   0  0  0  0  0  0  0  0  0  0  0  0
   15.5154    1.0408    7.9801 C   0  0  0  0  0  0  0  0  0  0  0  0
   12.6661   -0.1406    8.8276 H   0  0  0  0  0  0  0  0  0  0  0  0
   11.2830    3.4606    8.7853 C   0  0  0  0  0  0  0  0  0  0  0  0
   11.7186    4.7359    9.4238 C   0  0  0  0  0  0  0  0  0  0  0  0
   12.6574    5.5661    8.8232 C   0  0  0  0  0  0  0  0  0  0  0  0
   13.1870    6.6395    9.5388 C   0  0  0  0  0  0  0  0  0  0  0  0
   12.7689    6.8781   10.8524 C   0  0  0  0  0  0  0  0  0  0  0  0
   11.8231    6.0524   11.4450 C   0  0  0  0  0  0  0  0  0  0  0  0
   11.2971    4.9879   10.7332 C   0  0  0  0  0  0  0  0  0  0  0  0
  5  6  1  0  0  0
  5 10  1  0  0  0
  5 19  1  0  0  0
  6  7  1  0  0  0
  7 11  1  0  0  0
  7  8  1  0  0  0
 11 12  2  0  0  0
 11 13  1  0  0  0
 13 15  1  0  0  0
 15 16  1  0  0  0
 15 17  1  0  0  0
 15 18  1  0  0  0
  8  9  1  0  0  0
  8  4  1  0  0  0
  9 10  1  0  0  0
  4  1  1  0  0  0
  1  2  1  0  0  0
  1 26  1  0  0  0
 26 27  1  0  0  0
 27 43  1  0  0  0
 27 28  1  0  0  0
 43 44  1  0  0  0
 44 45  2  0  0  0
 44 49  1  0  0  0
 45 46  1  0  0  0
 46 47  2  0  0  0
 47 48  1  0  0  0
 48 49  2  0  0  0
 28 29  2  0  0  0
 28 30  1  0  0  0
 30 32  1  0  0  0
 32 33  1  0  0  0
 32 41  1  0  0  0
 33 34  1  0  0  0
 33 35  1  0  0  0
 35 36  1  0  0  0
 36 37  2  0  0  0
 36 41  1  0  0  0
 37 38  1  0  0  0
 38 39  2  0  0  0
 39 40  1  0  0  0
 40 41  2  0  0  0
 19 20  1  0  0  0
 20 21  1  0  0  0
 20 25  2  0  0  0
 21 22  2  0  0  0
 22 23  1  0  0  0
 23 24  2  0  0  0
 24 25  1  0  0  0
 13 14  1  0  0  0
  2  3  1  0  0  0
 30 31  1  0  0  0
 34 42  1  0  0  0
M  END
> <minimizedAffinity>
-10.14955

$$$$
