4X5Y_3XW_A_601


 42 47  0  0  0  0  0  0  0  0999 V2000
   11.6080   12.1775   11.5606 C   0  0  0  0  0  0  0  0  0  0  0  0
   11.7613   13.3318   12.5374 C   0  0  0  0  0  0  0  0  0  0  0  0
   10.6844   14.3625   12.3689 C   0  0  0  0  0  0  0  0  0  0  0  0
   11.5970   12.7883   10.1560 C   0  0  0  0  0  0  0  0  0  0  0  0
   10.6108   13.9866   10.0730 C   0  0  0  0  0  0  0  0  0  0  0  0
   10.8644   15.0215   11.0793 N   0  0  0  0  0  0  0  0  0  0  0  0
   12.7370   11.2182   11.7384 N   0  0  0  0  0  0  0  0  0  0  0  0
   13.6452   11.5943   11.7931 H   0  0  0  0  0  0  0  0  0  0  0  0
   13.5120    7.7653   12.2870 C   0  0  0  0  0  0  0  0  0  0  0  0
   13.6854    9.1105   12.1947 C   0  0  0  0  0  0  0  0  0  0  0  0
   12.6149    9.8709   11.8309 C   0  0  0  0  0  0  0  0  0  0  0  0
   11.4289    9.3094   11.5654 N   0  0  0  0  0  0  0  0  0  0  0  0
   12.3558    7.1534   12.0091 N   0  0  0  0  0  0  0  0  0  0  0  0
   15.7288    8.3874   12.8129 C   0  0  0  0  0  0  0  0  0  0  0  0
   14.8834    7.0868   12.7755 S   0  0  0  0  0  0  0  0  0  0  0  0
   14.9760    9.4378   12.5050 C   0  0  0  0  0  0  0  0  0  0  0  0
   11.2537    7.9290   11.6649 C   0  0  0  0  0  0  0  0  0  0  0  0
   17.1971    8.4326   13.1749 C   0  0  0  0  0  0  0  0  0  0  0  0
   19.2663    8.2790   11.9937 F   0  0  0  0  0  0  0  0  0  0  0  0
   18.0661    7.7119   12.0568 C   0  0  0  0  0  0  0  0  0  0  0  0
   18.1999    6.4253   12.3603 F   0  0  0  0  0  0  0  0  0  0  0  0
   17.4589    7.8284   10.8798 F   0  0  0  0  0  0  0  0  0  0  0  0
    9.8046   16.0620   10.9399 C   0  0  0  0  0  0  0  0  0  0  0  0
    9.9849   17.3067   11.6041 C   0  0  0  0  0  0  0  0  0  0  0  0
    8.8959   17.9789   12.1685 C   0  0  0  0  0  0  0  0  0  0  0  0
    7.6351   17.3996   12.0965 C   0  0  0  0  0  0  0  0  0  0  0  0
   11.2226   17.9301   11.6862 C   0  0  0  0  0  0  0  0  0  0  0  0
   11.3069   19.1617   12.3387 C   0  0  0  0  0  0  0  0  0  0  0  0
   10.2334   19.7556   12.8696 C   0  0  0  0  0  0  0  0  0  0  0  0
    9.0338   19.1717   12.7860 C   0  0  0  0  0  0  0  0  0  0  0  0
    8.1550   19.9893   13.4006 C   0  0  0  0  0  0  0  0  0  0  0  0
    8.8203   21.0639   13.8454 C   0  0  0  0  0  0  0  0  0  0  0  0
   10.0831   20.9219   13.5142 N   0  0  0  0  0  0  0  0  0  0  0  0
    8.3213   22.1338   14.5327 C   0  0  0  0  0  0  0  0  0  0  0  0
    7.9582   22.9589   15.0328 N   0  0  0  0  0  0  0  0  0  0  0  0
   11.0870   21.9031   13.8773 C   0  0  0  0  0  0  0  0  0  0  0  0
   11.3917   22.9535   12.8216 C   0  0  0  0  0  0  0  0  0  0  0  0
   11.6512   22.7815   11.5497 C   0  0  0  0  0  0  0  0  0  0  0  0
   11.8362   24.0245   11.1169 N   0  0  0  0  0  0  0  0  0  0  0  0
   11.7153   24.8434   11.9674 N   0  0  0  0  0  0  0  0  0  0  0  0
   11.4254   24.2420   13.1101 C   0  0  0  0  0  0  0  0  0  0  0  0
   12.0523   24.2445   10.1819 H   0  0  0  0  0  0  0  0  0  0  0  0
  9 10  2  0  0  0
  9 13  1  0  0  0
  9 15  1  0  0  0
 10 11  1  0  0  0
 10 16  1  0  0  0
 11 12  2  0  0  0
 11  7  1  0  0  0
 12 17  1  0  0  0
 13 17  2  0  0  0
 19 20  1  0  0  0
 20 21  1  0  0  0
 20 22  1  0  0  0
 20 18  1  0  0  0
 18 14  1  0  0  0
 14 15  1  0  0  0
 14 16  2  0  0  0
  7  1  1  0  0  0
  1  2  1  0  0  0
  1  4  1  0  0  0
  2  3  1  0  0  0
  3  6  1  0  0  0
  4  5  1  0  0  0
  5  6  1  0  0  0
  6 23  1  0  0  0
 23 24  1  0  0  0
 24 25  2  0  0  0
 24 27  1  0  0  0
 25 26  1  0  0  0
 25 30  1  0  0  0
 27 28  2  0  0  0
 28 29  1  0  0  0
 29 30  2  0  0  0
 29 33  1  0  0  0
 30 31  1  0  0  0
 31 32  2  0  0  0
 32 34  1  0  0  0
 32 33  1  0  0  0
 34 35  3  0  0  0
 33 36  1  0  0  0
 36 37  1  0  0  0
 37 38  2  0  0  0
 37 41  1  0  0  0
 38 39  1  0  0  0
 39 40  1  0  0  0
 40 41  2  0  0  0
  7  8  1  0  0  0
 39 42  1  0  0  0
M  END
> <minimizedAffinity>
-9.53930

$$$$
4X5Y_3XW_A_601


 42 47  0  0  0  0  0  0  0  0999 V2000
   15.3795   11.2432   11.3275 C   0  0  0  0  0  0  0  0  0  0  0  0
   14.1476   11.1398   12.2117 C   0  0  0  0  0  0  0  0  0  0  0  0
   12.8840   11.4329   11.4582 C   0  0  0  0  0  0  0  0  0  0  0  0
   15.3711   12.6509   10.7241 C   0  0  0  0  0  0  0  0  0  0  0  0
   13.9788   12.9967   10.1264 C   0  0  0  0  0  0  0  0  0  0  0  0
   12.8789   12.8432   11.0828 N   0  0  0  0  0  0  0  0  0  0  0  0
   16.6039   10.9983   12.1446 N   0  0  0  0  0  0  0  0  0  0  0  0
   16.8311   11.6676   12.8299 H   0  0  0  0  0  0  0  0  0  0  0  0
   19.4170    8.9595   11.2764 C   0  0  0  0  0  0  0  0  0  0  0  0
   18.6163   10.0548   11.3640 C   0  0  0  0  0  0  0  0  0  0  0  0
   17.4292    9.9295   12.0208 C   0  0  0  0  0  0  0  0  0  0  0  0
   17.0586    8.7607   12.5583 N   0  0  0  0  0  0  0  0  0  0  0  0
   19.0827    7.7642   11.7743 N   0  0  0  0  0  0  0  0  0  0  0  0
   20.3893   10.8266   10.2056 C   0  0  0  0  0  0  0  0  0  0  0  0
   20.7723    9.3541   10.5101 S   0  0  0  0  0  0  0  0  0  0  0  0
   19.2064   11.1164   10.7363 C   0  0  0  0  0  0  0  0  0  0  0  0
   17.8845    7.6399   12.4697 C   0  0  0  0  0  0  0  0  0  0  0  0
   21.2657   11.7865    9.4314 C   0  0  0  0  0  0  0  0  0  0  0  0
   22.1209   12.2928   11.6023 F   0  0  0  0  0  0  0  0  0  0  0  0
   21.9240   12.8496   10.4117 C   0  0  0  0  0  0  0  0  0  0  0  0
   23.0881   13.2511    9.9129 F   0  0  0  0  0  0  0  0  0  0  0  0
   21.1132   13.8953   10.5406 F   0  0  0  0  0  0  0  0  0  0  0  0
   11.6044   13.1247   10.3605 C   0  0  0  0  0  0  0  0  0  0  0  0
   10.7556   14.1516   10.8583 C   0  0  0  0  0  0  0  0  0  0  0  0
    9.7942   14.7452   10.0339 C   0  0  0  0  0  0  0  0  0  0  0  0
    9.6591   14.2977    8.7255 C   0  0  0  0  0  0  0  0  0  0  0  0
   10.8656   14.6411   12.1529 C   0  0  0  0  0  0  0  0  0  0  0  0
   10.0056   15.6655   12.5537 C   0  0  0  0  0  0  0  0  0  0  0  0
    9.0968   16.1904   11.7257 C   0  0  0  0  0  0  0  0  0  0  0  0
    8.9896   15.7366   10.4729 C   0  0  0  0  0  0  0  0  0  0  0  0
    8.0041   16.4427    9.8821 C   0  0  0  0  0  0  0  0  0  0  0  0
    7.5253   17.3225   10.7721 C   0  0  0  0  0  0  0  0  0  0  0  0
    8.1973   17.1713   11.8901 N   0  0  0  0  0  0  0  0  0  0  0  0
    6.5156   18.2260   10.5980 C   0  0  0  0  0  0  0  0  0  0  0  0
    5.7672   18.9177   10.4430 N   0  0  0  0  0  0  0  0  0  0  0  0
    7.9040   17.9554   13.0740 C   0  0  0  0  0  0  0  0  0  0  0  0
    8.8204   19.1430   13.3196 C   0  0  0  0  0  0  0  0  0  0  0  0
   10.0968   19.1427   13.6121 C   0  0  0  0  0  0  0  0  0  0  0  0
   10.3752   20.4384   13.7140 N   0  0  0  0  0  0  0  0  0  0  0  0
    9.4373   21.1393   13.5202 N   0  0  0  0  0  0  0  0  0  0  0  0
    8.3811   20.3870   13.2554 C   0  0  0  0  0  0  0  0  0  0  0  0
   11.2719   20.7830   13.9293 H   0  0  0  0  0  0  0  0  0  0  0  0
  9 10  2  0  0  0
  9 13  1  0  0  0
  9 15  1  0  0  0
 10 11  1  0  0  0
 10 16  1  0  0  0
 11 12  2  0  0  0
 11  7  1  0  0  0
 12 17  1  0  0  0
 13 17  2  0  0  0
 19 20  1  0  0  0
 20 21  1  0  0  0
 20 22  1  0  0  0
 20 18  1  0  0  0
 18 14  1  0  0  0
 14 15  1  0  0  0
 14 16  2  0  0  0
  7  1  1  0  0  0
  1  2  1  0  0  0
  1  4  1  0  0  0
  2  3  1  0  0  0
  3  6  1  0  0  0
  4  5  1  0  0  0
  5  6  1  0  0  0
  6 23  1  0  0  0
 23 24  1  0  0  0
 24 25  2  0  0  0
 24 27  1  0  0  0
 25 26  1  0  0  0
 25 30  1  0  0  0
 27 28  2  0  0  0
 28 29  1  0  0  0
 29 30  2  0  0  0
 29 33  1  0  0  0
 30 31  1  0  0  0
 31 32  2  0  0  0
 32 34  1  0  0  0
 32 33  1  0  0  0
 34 35  3  0  0  0
 33 36  1  0  0  0
 36 37  1  0  0  0
 37 38  2  0  0  0
 37 41  1  0  0  0
 38 39  1  0  0  0
 39 40  1  0  0  0
 40 41  2  0  0  0
  7  8  1  0  0  0
 39 42  1  0  0  0
M  END
> <minimizedAffinity>
-8.98536

$$$$
4X5Y_3XW_A_601


 42 47  0  0  0  0  0  0  0  0999 V2000
   11.5819   12.7672   10.5015 C   0  0  0  0  0  0  0  0  0  0  0  0
   11.9492   13.4266   11.8207 C   0  0  0  0  0  0  0  0  0  0  0  0
   10.8066   14.2066   12.4009 C   0  0  0  0  0  0  0  0  0  0  0  0
   11.1029   13.8844    9.5696 C   0  0  0  0  0  0  0  0  0  0  0  0
   10.0615   14.7964   10.2761 C   0  0  0  0  0  0  0  0  0  0  0  0
   10.5409   15.3567   11.5427 N   0  0  0  0  0  0  0  0  0  0  0  0
   12.7722   12.0571    9.9486 N   0  0  0  0  0  0  0  0  0  0  0  0
   13.6587   12.4301   10.1587 H   0  0  0  0  0  0  0  0  0  0  0  0
   12.7157    8.6178    8.9528 C   0  0  0  0  0  0  0  0  0  0  0  0
   12.7709    9.7088    9.7621 C   0  0  0  0  0  0  0  0  0  0  0  0
   12.7330   10.9403    9.1806 C   0  0  0  0  0  0  0  0  0  0  0  0
   12.6508   11.0726    7.8508 N   0  0  0  0  0  0  0  0  0  0  0  0
   12.6578    8.6955    7.6190 N   0  0  0  0  0  0  0  0  0  0  0  0
   12.8687    7.9981   11.2267 C   0  0  0  0  0  0  0  0  0  0  0  0
   12.7240    7.2886    9.8543 S   0  0  0  0  0  0  0  0  0  0  0  0
   12.8583    9.3172   11.0691 C   0  0  0  0  0  0  0  0  0  0  0  0
   12.5905    9.9508    7.0237 C   0  0  0  0  0  0  0  0  0  0  0  0
   12.9806    7.2704   12.5483 C   0  0  0  0  0  0  0  0  0  0  0  0
   14.6143    6.4283   14.0722 F   0  0  0  0  0  0  0  0  0  0  0  0
   14.4842    7.2815   13.0617 C   0  0  0  0  0  0  0  0  0  0  0  0
   15.2933    6.9213   12.0713 F   0  0  0  0  0  0  0  0  0  0  0  0
   14.8036    8.5053   13.4715 F   0  0  0  0  0  0  0  0  0  0  0  0
    9.4228   16.1367   12.1481 C   0  0  0  0  0  0  0  0  0  0  0  0
    9.6735   17.4760   12.5562 C   0  0  0  0  0  0  0  0  0  0  0  0
    8.6156   18.3450   12.8421 C   0  0  0  0  0  0  0  0  0  0  0  0
    7.3119   17.8734   12.7494 C   0  0  0  0  0  0  0  0  0  0  0  0
   10.9581   17.9946   12.6469 C   0  0  0  0  0  0  0  0  0  0  0  0
   11.1135   19.3267   13.0354 C   0  0  0  0  0  0  0  0  0  0  0  0
   10.0655   20.1110   13.3068 C   0  0  0  0  0  0  0  0  0  0  0  0
    8.8231   19.6272   13.2107 C   0  0  0  0  0  0  0  0  0  0  0  0
    7.9840   20.6307   13.5390 C   0  0  0  0  0  0  0  0  0  0  0  0
    8.7170   21.7156   13.8240 C   0  0  0  0  0  0  0  0  0  0  0  0
    9.9823   21.3980   13.6745 N   0  0  0  0  0  0  0  0  0  0  0  0
    8.2743   22.9477   14.2138 C   0  0  0  0  0  0  0  0  0  0  0  0
    7.9575   23.8760   14.5310 N   0  0  0  0  0  0  0  0  0  0  0  0
   11.0479   22.3454   13.9377 C   0  0  0  0  0  0  0  0  0  0  0  0
   11.3578   23.3164   12.8100 C   0  0  0  0  0  0  0  0  0  0  0  0
   11.3635   24.6255   12.8381 C   0  0  0  0  0  0  0  0  0  0  0  0
   11.6989   24.9447   11.5922 N   0  0  0  0  0  0  0  0  0  0  0  0
   11.8749   24.0010   10.8943 N   0  0  0  0  0  0  0  0  0  0  0  0
   11.6766   22.8981   11.5984 C   0  0  0  0  0  0  0  0  0  0  0  0
   11.7922   25.8733   11.2789 H   0  0  0  0  0  0  0  0  0  0  0  0
  9 10  2  0  0  0
  9 13  1  0  0  0
  9 15  1  0  0  0
 10 11  1  0  0  0
 10 16  1  0  0  0
 11 12  2  0  0  0
 11  7  1  0  0  0
 12 17  1  0  0  0
 13 17  2  0  0  0
 19 20  1  0  0  0
 20 21  1  0  0  0
 20 22  1  0  0  0
 20 18  1  0  0  0
 18 14  1  0  0  0
 14 15  1  0  0  0
 14 16  2  0  0  0
  7  1  1  0  0  0
  1  2  1  0  0  0
  1  4  1  0  0  0
  2  3  1  0  0  0
  3  6  1  0  0  0
  4  5  1  0  0  0
  5  6  1  0  0  0
  6 23  1  0  0  0
 23 24  1  0  0  0
 24 25  2  0  0  0
 24 27  1  0  0  0
 25 26  1  0  0  0
 25 30  1  0  0  0
 27 28  2  0  0  0
 28 29  1  0  0  0
 29 30  2  0  0  0
 29 33  1  0  0  0
 30 31  1  0  0  0
 31 32  2  0  0  0
 32 34  1  0  0  0
 32 33  1  0  0  0
 34 35  3  0  0  0
 33 36  1  0  0  0
 36 37  1  0  0  0
 37 38  2  0  0  0
 37 41  1  0  0  0
 38 39  1  0  0  0
 39 40  1  0  0  0
 40 41  2  0  0  0
  7  8  1  0  0  0
 39 42  1  0  0  0
M  END
> <minimizedAffinity>
-8.86652

$$$$
4X5Y_3XW_A_601


 42 47  0  0  0  0  0  0  0  0999 V2000
    9.5037   16.4291   12.1101 C   0  0  0  0  0  0  0  0  0  0  0  0
    9.9871   15.1678   12.8069 C   0  0  0  0  0  0  0  0  0  0  0  0
   11.0657   14.4709   12.0315 C   0  0  0  0  0  0  0  0  0  0  0  0
    9.0410   16.0093   10.7117 C   0  0  0  0  0  0  0  0  0  0  0  0
   10.1054   15.1185   10.0125 C   0  0  0  0  0  0  0  0  0  0  0  0
   10.4898   13.9429   10.7988 N   0  0  0  0  0  0  0  0  0  0  0  0
    8.3957   17.0431   12.8989 N   0  0  0  0  0  0  0  0  0  0  0  0
    8.2057   16.6595   13.7854 H   0  0  0  0  0  0  0  0  0  0  0  0
    7.3658   20.3451   11.9714 C   0  0  0  0  0  0  0  0  0  0  0  0
    8.1693   19.3329   12.3934 C   0  0  0  0  0  0  0  0  0  0  0  0
    7.6292   18.0861   12.4948 C   0  0  0  0  0  0  0  0  0  0  0  0
    6.3433   17.8654   12.1944 N   0  0  0  0  0  0  0  0  0  0  0  0
    6.0702   20.1822   11.6827 N   0  0  0  0  0  0  0  0  0  0  0  0
    9.5549   21.1106   12.4184 C   0  0  0  0  0  0  0  0  0  0  0  0
    8.2237   21.7000   11.8817 S   0  0  0  0  0  0  0  0  0  0  0  0
    9.4270   19.8074   12.6427 C   0  0  0  0  0  0  0  0  0  0  0  0
    5.5228   18.9058   11.7581 C   0  0  0  0  0  0  0  0  0  0  0  0
   10.8161   21.9199   12.6268 C   0  0  0  0  0  0  0  0  0  0  0  0
    9.9267   22.5502   14.7510 F   0  0  0  0  0  0  0  0  0  0  0  0
   11.0635   22.1716   14.1760 C   0  0  0  0  0  0  0  0  0  0  0  0
   11.4948   21.0507   14.7438 F   0  0  0  0  0  0  0  0  0  0  0  0
   11.9766   23.1257   14.3297 F   0  0  0  0  0  0  0  0  0  0  0  0
   11.5672   13.2290   10.0540 C   0  0  0  0  0  0  0  0  0  0  0  0
   12.3336   12.2493   10.7438 C   0  0  0  0  0  0  0  0  0  0  0  0
   11.9393   10.9074   10.7480 C   0  0  0  0  0  0  0  0  0  0  0  0
   10.8004   10.5373   10.0436 C   0  0  0  0  0  0  0  0  0  0  0  0
   13.4687   12.5757   11.4737 C   0  0  0  0  0  0  0  0  0  0  0  0
   14.1505   11.5544   12.1384 C   0  0  0  0  0  0  0  0  0  0  0  0
   13.7338   10.2848   12.1005 C   0  0  0  0  0  0  0  0  0  0  0  0
   12.6352    9.9597   11.4118 C   0  0  0  0  0  0  0  0  0  0  0  0
   12.4623    8.6296   11.5524 C   0  0  0  0  0  0  0  0  0  0  0  0
   13.4475    8.1572   12.3281 C   0  0  0  0  0  0  0  0  0  0  0  0
   14.2148    9.1679   12.6657 N   0  0  0  0  0  0  0  0  0  0  0  0
   13.6624    6.8652   12.7164 C   0  0  0  0  0  0  0  0  0  0  0  0
   13.8258    5.8825   12.9815 N   0  0  0  0  0  0  0  0  0  0  0  0
   15.3995    8.9927   13.4832 C   0  0  0  0  0  0  0  0  0  0  0  0
   16.7063    8.8381   12.7222 C   0  0  0  0  0  0  0  0  0  0  0  0
   17.3944    9.7533   12.0869 C   0  0  0  0  0  0  0  0  0  0  0  0
   18.4313    9.0675   11.6165 N   0  0  0  0  0  0  0  0  0  0  0  0
   18.4051    7.9162   11.9035 N   0  0  0  0  0  0  0  0  0  0  0  0
   17.3208    7.6732   12.6224 C   0  0  0  0  0  0  0  0  0  0  0  0
   19.1508    9.4749   11.0822 H   0  0  0  0  0  0  0  0  0  0  0  0
  9 10  2  0  0  0
  9 13  1  0  0  0
  9 15  1  0  0  0
 10 11  1  0  0  0
 10 16  1  0  0  0
 11 12  2  0  0  0
 11  7  1  0  0  0
 12 17  1  0  0  0
 13 17  2  0  0  0
 19 20  1  0  0  0
 20 21  1  0  0  0
 20 22  1  0  0  0
 20 18  1  0  0  0
 18 14  1  0  0  0
 14 15  1  0  0  0
 14 16  2  0  0  0
  7  1  1  0  0  0
  1  2  1  0  0  0
  1  4  1  0  0  0
  2  3  1  0  0  0
  3  6  1  0  0  0
  4  5  1  0  0  0
  5  6  1  0  0  0
  6 23  1  0  0  0
 23 24  1  0  0  0
 24 25  2  0  0  0
 24 27  1  0  0  0
 25 26  1  0  0  0
 25 30  1  0  0  0
 27 28  2  0  0  0
 28 29  1  0  0  0
 29 30  2  0  0  0
 29 33  1  0  0  0
 30 31  1  0  0  0
 31 32  2  0  0  0
 32 34  1  0  0  0
 32 33  1  0  0  0
 34 35  3  0  0  0
 33 36  1  0  0  0
 36 37  1  0  0  0
 37 38  2  0  0  0
 37 41  1  0  0  0
 38 39  1  0  0  0
 39 40  1  0  0  0
 40 41  2  0  0  0
  7  8  1  0  0  0
 39 42  1  0  0  0
M  END
> <minimizedAffinity>
-8.82479

$$$$
4X5Y_3XW_A_601


 42 47  0  0  0  0  0  0  0  0999 V2000
    9.9400   16.5522   12.2870 C   0  0  0  0  0  0  0  0  0  0  0  0
   10.3514   15.1105   12.5368 C   0  0  0  0  0  0  0  0  0  0  0  0
   11.7456   14.8291   12.0599 C   0  0  0  0  0  0  0  0  0  0  0  0
   10.1068   16.8034   10.7854 C   0  0  0  0  0  0  0  0  0  0  0  0
   11.4948   16.3145   10.2855 C   0  0  0  0  0  0  0  0  0  0  0  0
   11.7676   14.9099   10.6030 N   0  0  0  0  0  0  0  0  0  0  0  0
    8.5290   16.7537   12.7288 N   0  0  0  0  0  0  0  0  0  0  0  0
    8.1792   16.1422   13.4165 H   0  0  0  0  0  0  0  0  0  0  0  0
    7.0067   19.9370   12.1182 C   0  0  0  0  0  0  0  0  0  0  0  0
    7.8653   19.0115   12.6227 C   0  0  0  0  0  0  0  0  0  0  0  0
    7.6891   17.7098   12.2609 C   0  0  0  0  0  0  0  0  0  0  0  0
    6.6956   17.3514   11.4381 N   0  0  0  0  0  0  0  0  0  0  0  0
    5.9845   19.6280   11.3131 N   0  0  0  0  0  0  0  0  0  0  0  0
    8.6125   20.9323   13.5354 C   0  0  0  0  0  0  0  0  0  0  0  0
    7.4349   21.3953   12.6374 S   0  0  0  0  0  0  0  0  0  0  0  0
    8.7808   19.6182   13.4369 C   0  0  0  0  0  0  0  0  0  0  0  0
    5.8187   18.3043   10.9193 C   0  0  0  0  0  0  0  0  0  0  0  0
    9.4526   21.8665   14.3782 C   0  0  0  0  0  0  0  0  0  0  0  0
   11.1832   21.4749   12.7808 F   0  0  0  0  0  0  0  0  0  0  0  0
   10.9977   21.6379   14.0866 C   0  0  0  0  0  0  0  0  0  0  0  0
   11.6883   22.6935   14.5034 F   0  0  0  0  0  0  0  0  0  0  0  0
   11.4147   20.5529   14.7320 F   0  0  0  0  0  0  0  0  0  0  0  0
   13.1525   14.5996   10.1435 C   0  0  0  0  0  0  0  0  0  0  0  0
   13.6467   13.2783   10.3247 C   0  0  0  0  0  0  0  0  0  0  0  0
   14.8398   13.0513   11.0185 C   0  0  0  0  0  0  0  0  0  0  0  0
   15.5242   14.1350   11.5551 C   0  0  0  0  0  0  0  0  0  0  0  0
   13.0053   12.1679    9.7927 C   0  0  0  0  0  0  0  0  0  0  0  0
   13.5705   10.9082   10.0004 C   0  0  0  0  0  0  0  0  0  0  0  0
   14.7099   10.7478   10.6810 C   0  0  0  0  0  0  0  0  0  0  0  0
   15.3439   11.8102   11.1872 C   0  0  0  0  0  0  0  0  0  0  0  0
   16.4465   11.3491   11.8121 C   0  0  0  0  0  0  0  0  0  0  0  0
   16.4805   10.0165   11.6763 C   0  0  0  0  0  0  0  0  0  0  0  0
   15.4266    9.6549   10.9814 N   0  0  0  0  0  0  0  0  0  0  0  0
   17.4155    9.1478   12.1633 C   0  0  0  0  0  0  0  0  0  0  0  0
   18.1399    8.5021   12.5110 N   0  0  0  0  0  0  0  0  0  0  0  0
   15.1449    8.2646   10.6813 C   0  0  0  0  0  0  0  0  0  0  0  0
   14.1281    7.5894   11.5872 C   0  0  0  0  0  0  0  0  0  0  0  0
   12.8210    7.6498   11.5352 C   0  0  0  0  0  0  0  0  0  0  0  0
   12.4506    6.8786   12.5523 N   0  0  0  0  0  0  0  0  0  0  0  0
   13.3646    6.4104   13.1471 N   0  0  0  0  0  0  0  0  0  0  0  0
   14.4959    6.8156   12.5925 C   0  0  0  0  0  0  0  0  0  0  0  0
   11.5096    6.7120   12.7893 H   0  0  0  0  0  0  0  0  0  0  0  0
  9 10  2  0  0  0
  9 13  1  0  0  0
  9 15  1  0  0  0
 10 11  1  0  0  0
 10 16  1  0  0  0
 11 12  2  0  0  0
 11  7  1  0  0  0
 12 17  1  0  0  0
 13 17  2  0  0  0
 19 20  1  0  0  0
 20 21  1  0  0  0
 20 22  1  0  0  0
 20 18  1  0  0  0
 18 14  1  0  0  0
 14 15  1  0  0  0
 14 16  2  0  0  0
  7  1  1  0  0  0
  1  2  1  0  0  0
  1  4  1  0  0  0
  2  3  1  0  0  0
  3  6  1  0  0  0
  4  5  1  0  0  0
  5  6  1  0  0  0
  6 23  1  0  0  0
 23 24  1  0  0  0
 24 25  2  0  0  0
 24 27  1  0  0  0
 25 26  1  0  0  0
 25 30  1  0  0  0
 27 28  2  0  0  0
 28 29  1  0  0  0
 29 30  2  0  0  0
 29 33  1  0  0  0
 30 31  1  0  0  0
 31 32  2  0  0  0
 32 34  1  0  0  0
 32 33  1  0  0  0
 34 35  3  0  0  0
 33 36  1  0  0  0
 36 37  1  0  0  0
 37 38  2  0  0  0
 37 41  1  0  0  0
 38 39  1  0  0  0
 39 40  1  0  0  0
 40 41  2  0  0  0
  7  8  1  0  0  0
 39 42  1  0  0  0
M  END
> <minimizedAffinity>
-8.77553

$$$$
4X5Y_3XW_A_601


 42 47  0  0  0  0  0  0  0  0999 V2000
   13.7171   13.1996   11.6671 C   0  0  0  0  0  0  0  0  0  0  0  0
   12.4456   13.1277   12.4967 C   0  0  0  0  0  0  0  0  0  0  0  0
   11.2928   13.8148   11.8262 C   0  0  0  0  0  0  0  0  0  0  0  0
   13.9905   14.6844   11.4091 C   0  0  0  0  0  0  0  0  0  0  0  0
   12.7133   15.4102   10.9018 C   0  0  0  0  0  0  0  0  0  0  0  0
   11.5591   15.2492   11.7905 N   0  0  0  0  0  0  0  0  0  0  0  0
   14.8369   12.5513   12.4104 N   0  0  0  0  0  0  0  0  0  0  0  0
   15.0505   12.9049   13.3040 H   0  0  0  0  0  0  0  0  0  0  0  0
   15.8369    9.2561   11.4280 C   0  0  0  0  0  0  0  0  0  0  0  0
   15.0543   10.2611   11.9031 C   0  0  0  0  0  0  0  0  0  0  0  0
   15.5843   11.5152   11.9561 C   0  0  0  0  0  0  0  0  0  0  0  0
   16.8410   11.7499   11.5585 N   0  0  0  0  0  0  0  0  0  0  0  0
   17.1049    9.4331   11.0416 N   0  0  0  0  0  0  0  0  0  0  0  0
   13.6977    8.4665   12.0429 C   0  0  0  0  0  0  0  0  0  0  0  0
   14.9923    7.8900   11.4111 S   0  0  0  0  0  0  0  0  0  0  0  0
   13.8252    9.7727   12.2491 C   0  0  0  0  0  0  0  0  0  0  0  0
   17.6399   10.7168   11.0680 C   0  0  0  0  0  0  0  0  0  0  0  0
   12.4664    7.6429   12.3505 C   0  0  0  0  0  0  0  0  0  0  0  0
   11.6097    7.8832   10.1349 F   0  0  0  0  0  0  0  0  0  0  0  0
   11.2634    8.0698   11.4043 C   0  0  0  0  0  0  0  0  0  0  0  0
   10.1952    7.3314   11.6849 F   0  0  0  0  0  0  0  0  0  0  0  0
   10.9786    9.3535   11.6014 F   0  0  0  0  0  0  0  0  0  0  0  0
   10.3920   15.9201   11.1477 C   0  0  0  0  0  0  0  0  0  0  0  0
   10.1617   17.2954   11.4279 C   0  0  0  0  0  0  0  0  0  0  0  0
    9.2753   17.6791   12.4396 C   0  0  0  0  0  0  0  0  0  0  0  0
    8.6414   16.6958   13.1891 C   0  0  0  0  0  0  0  0  0  0  0  0
   10.7602   18.3112   10.6948 C   0  0  0  0  0  0  0  0  0  0  0  0
   10.4624   19.6352   11.0235 C   0  0  0  0  0  0  0  0  0  0  0  0
    9.6135   19.9455   12.0084 C   0  0  0  0  0  0  0  0  0  0  0  0
    9.0210   18.9765   12.7133 C   0  0  0  0  0  0  0  0  0  0  0  0
    8.2315   19.5802   13.6249 C   0  0  0  0  0  0  0  0  0  0  0  0
    8.3420   20.9059   13.4649 C   0  0  0  0  0  0  0  0  0  0  0  0
    9.1777   21.1244   12.4759 N   0  0  0  0  0  0  0  0  0  0  0  0
    7.7252   21.8912   14.1824 C   0  0  0  0  0  0  0  0  0  0  0  0
    7.2636   22.6191   14.7479 N   0  0  0  0  0  0  0  0  0  0  0  0
    9.5447   22.4651   12.0630 C   0  0  0  0  0  0  0  0  0  0  0  0
   10.8655   22.9827   12.6089 C   0  0  0  0  0  0  0  0  0  0  0  0
   11.2768   23.0205   13.8516 C   0  0  0  0  0  0  0  0  0  0  0  0
   12.4854   23.5631   13.7447 N   0  0  0  0  0  0  0  0  0  0  0  0
   12.7882   23.8248   12.6274 N   0  0  0  0  0  0  0  0  0  0  0  0
   11.7982   23.4826   11.8185 C   0  0  0  0  0  0  0  0  0  0  0  0
   13.0722   23.7316   14.5170 H   0  0  0  0  0  0  0  0  0  0  0  0
  9 10  2  0  0  0
  9 13  1  0  0  0
  9 15  1  0  0  0
 10 11  1  0  0  0
 10 16  1  0  0  0
 11 12  2  0  0  0
 11  7  1  0  0  0
 12 17  1  0  0  0
 13 17  2  0  0  0
 19 20  1  0  0  0
 20 21  1  0  0  0
 20 22  1  0  0  0
 20 18  1  0  0  0
 18 14  1  0  0  0
 14 15  1  0  0  0
 14 16  2  0  0  0
  7  1  1  0  0  0
  1  2  1  0  0  0
  1  4  1  0  0  0
  2  3  1  0  0  0
  3  6  1  0  0  0
  4  5  1  0  0  0
  5  6  1  0  0  0
  6 23  1  0  0  0
 23 24  1  0  0  0
 24 25  2  0  0  0
 24 27  1  0  0  0
 25 26  1  0  0  0
 25 30  1  0  0  0
 27 28  2  0  0  0
 28 29  1  0  0  0
 29 30  2  0  0  0
 29 33  1  0  0  0
 30 31  1  0  0  0
 31 32  2  0  0  0
 32 34  1  0  0  0
 32 33  1  0  0  0
 34 35  3  0  0  0
 33 36  1  0  0  0
 36 37  1  0  0  0
 37 38  2  0  0  0
 37 41  1  0  0  0
 38 39  1  0  0  0
 39 40  1  0  0  0
 40 41  2  0  0  0
  7  8  1  0  0  0
 39 42  1  0  0  0
M  END
> <minimizedAffinity>
-8.66097

$$$$
4X5Y_3XW_A_601


 42 47  0  0  0  0  0  0  0  0999 V2000
   11.5541   12.1146   11.5448 C   0  0  0  0  0  0  0  0  0  0  0  0
   11.7102   13.2497   12.5435 C   0  0  0  0  0  0  0  0  0  0  0  0
   10.5968   14.2500   12.4419 C   0  0  0  0  0  0  0  0  0  0  0  0
   11.4700   12.7579   10.1574 C   0  0  0  0  0  0  0  0  0  0  0  0
   10.4455   13.9264   10.1418 C   0  0  0  0  0  0  0  0  0  0  0  0
   10.7065   14.9446   11.1632 N   0  0  0  0  0  0  0  0  0  0  0  0
   12.7177   11.1871   11.6556 N   0  0  0  0  0  0  0  0  0  0  0  0
   13.6176   11.5844   11.6157 H   0  0  0  0  0  0  0  0  0  0  0  0
   13.6062    7.7840   12.3291 C   0  0  0  0  0  0  0  0  0  0  0  0
   13.7376    9.1285   12.1770 C   0  0  0  0  0  0  0  0  0  0  0  0
   12.6375    9.8419   11.8067 C   0  0  0  0  0  0  0  0  0  0  0  0
   11.4630    9.2361   11.5922 N   0  0  0  0  0  0  0  0  0  0  0  0
   12.4627    7.1281   12.1036 N   0  0  0  0  0  0  0  0  0  0  0  0
   15.8146    8.4908   12.7774 C   0  0  0  0  0  0  0  0  0  0  0  0
   15.0073    7.1662   12.8136 S   0  0  0  0  0  0  0  0  0  0  0  0
   15.0245    9.5054   12.4436 C   0  0  0  0  0  0  0  0  0  0  0  0
   11.3309    7.8566   11.7529 C   0  0  0  0  0  0  0  0  0  0  0  0
   17.2884    8.5933   13.1033 C   0  0  0  0  0  0  0  0  0  0  0  0
   17.5815    7.9816   10.8141 F   0  0  0  0  0  0  0  0  0  0  0  0
   18.1528    7.8370   12.0053 C   0  0  0  0  0  0  0  0  0  0  0  0
   19.3776    8.3508   11.9741 F   0  0  0  0  0  0  0  0  0  0  0  0
   18.2224    6.5445   12.3090 F   0  0  0  0  0  0  0  0  0  0  0  0
    9.6110   15.9545   11.0902 C   0  0  0  0  0  0  0  0  0  0  0  0
    9.8622   17.2642   11.5846 C   0  0  0  0  0  0  0  0  0  0  0  0
   10.4857   18.2235   10.7801 C   0  0  0  0  0  0  0  0  0  0  0  0
   10.8325   17.8882    9.4771 C   0  0  0  0  0  0  0  0  0  0  0  0
    9.5478   17.6385   12.8841 C   0  0  0  0  0  0  0  0  0  0  0  0
    9.8479   18.9390   13.2945 C   0  0  0  0  0  0  0  0  0  0  0  0
   10.4366   19.8197   12.4792 C   0  0  0  0  0  0  0  0  0  0  0  0
   10.7560   19.4676   11.2298 C   0  0  0  0  0  0  0  0  0  0  0  0
   11.3279   20.5437   10.6522 C   0  0  0  0  0  0  0  0  0  0  0  0
   11.3597   21.5366   11.5514 C   0  0  0  0  0  0  0  0  0  0  0  0
   10.8235   21.0903   12.6639 N   0  0  0  0  0  0  0  0  0  0  0  0
   11.8428   22.8034   11.3847 C   0  0  0  0  0  0  0  0  0  0  0  0
   12.1856   23.7649   11.2407 N   0  0  0  0  0  0  0  0  0  0  0  0
   10.6740   21.9316   13.8354 C   0  0  0  0  0  0  0  0  0  0  0  0
    9.3141   22.5897   14.0030 C   0  0  0  0  0  0  0  0  0  0  0  0
    8.2168   22.0805   14.5044 C   0  0  0  0  0  0  0  0  0  0  0  0
    7.3538   23.0864   14.4044 N   0  0  0  0  0  0  0  0  0  0  0  0
    7.8225   24.0643   13.9224 N   0  0  0  0  0  0  0  0  0  0  0  0
    9.0930   23.8372   13.6295 C   0  0  0  0  0  0  0  0  0  0  0  0
    6.4170   23.0260   14.7013 H   0  0  0  0  0  0  0  0  0  0  0  0
  9 10  2  0  0  0
  9 13  1  0  0  0
  9 15  1  0  0  0
 10 11  1  0  0  0
 10 16  1  0  0  0
 11 12  2  0  0  0
 11  7  1  0  0  0
 12 17  1  0  0  0
 13 17  2  0  0  0
 19 20  1  0  0  0
 20 21  1  0  0  0
 20 22  1  0  0  0
 20 18  1  0  0  0
 18 14  1  0  0  0
 14 15  1  0  0  0
 14 16  2  0  0  0
  7  1  1  0  0  0
  1  2  1  0  0  0
  1  4  1  0  0  0
  2  3  1  0  0  0
  3  6  1  0  0  0
  4  5  1  0  0  0
  5  6  1  0  0  0
  6 23  1  0  0  0
 23 24  1  0  0  0
 24 25  2  0  0  0
 24 27  1  0  0  0
 25 26  1  0  0  0
 25 30  1  0  0  0
 27 28  2  0  0  0
 28 29  1  0  0  0
 29 30  2  0  0  0
 29 33  1  0  0  0
 30 31  1  0  0  0
 31 32  2  0  0  0
 32 34  1  0  0  0
 32 33  1  0  0  0
 34 35  3  0  0  0
 33 36  1  0  0  0
 36 37  1  0  0  0
 37 38  2  0  0  0
 37 41  1  0  0  0
 38 39  1  0  0  0
 39 40  1  0  0  0
 40 41  2  0  0  0
  7  8  1  0  0  0
 39 42  1  0  0  0
M  END
> <minimizedAffinity>
-8.62678

$$$$
4X5Y_3XW_A_601


 42 47  0  0  0  0  0  0  0  0999 V2000
   11.6070    9.8749    7.4598 C   0  0  0  0  0  0  0  0  0  0  0  0
   10.4101   10.1843    8.3440 C   0  0  0  0  0  0  0  0  0  0  0  0
    9.7755   11.4988    7.9977 C   0  0  0  0  0  0  0  0  0  0  0  0
   12.5779   11.0503    7.6066 C   0  0  0  0  0  0  0  0  0  0  0  0
   11.8432   12.4094    7.4380 C   0  0  0  0  0  0  0  0  0  0  0  0
   10.7021   12.5719    8.3434 N   0  0  0  0  0  0  0  0  0  0  0  0
   12.2270    8.5875    7.8896 N   0  0  0  0  0  0  0  0  0  0  0  0
   11.6229    7.8811    8.2142 H   0  0  0  0  0  0  0  0  0  0  0  0
   15.5746    7.9141    8.9687 C   0  0  0  0  0  0  0  0  0  0  0  0
   14.2486    8.2063    9.0375 C   0  0  0  0  0  0  0  0  0  0  0  0
   13.5543    8.3105    7.8698 C   0  0  0  0  0  0  0  0  0  0  0  0
   14.1611    8.1371    6.6891 N   0  0  0  0  0  0  0  0  0  0  0  0
   16.2325    7.7558    7.8152 N   0  0  0  0  0  0  0  0  0  0  0  0
   14.8608    8.1618   11.2064 C   0  0  0  0  0  0  0  0  0  0  0  0
   16.1680    7.7928   10.4563 S   0  0  0  0  0  0  0  0  0  0  0  0
   13.8672    8.3426   10.3432 C   0  0  0  0  0  0  0  0  0  0  0  0
   15.5211    7.8337    6.6225 C   0  0  0  0  0  0  0  0  0  0  0  0
   14.7503    8.2714   12.7113 C   0  0  0  0  0  0  0  0  0  0  0  0
   14.3189    5.9279   12.5621 F   0  0  0  0  0  0  0  0  0  0  0  0
   14.8452    6.8333   13.3802 C   0  0  0  0  0  0  0  0  0  0  0  0
   16.1191    6.5346   13.6103 F   0  0  0  0  0  0  0  0  0  0  0  0
   14.1760    6.8339   14.5291 F   0  0  0  0  0  0  0  0  0  0  0  0
   10.0455   13.8717    8.0201 C   0  0  0  0  0  0  0  0  0  0  0  0
    9.6052   14.6943    9.0937 C   0  0  0  0  0  0  0  0  0  0  0  0
    8.4764   15.5081    8.9528 C   0  0  0  0  0  0  0  0  0  0  0  0
    7.7713   15.4816    7.7559 C   0  0  0  0  0  0  0  0  0  0  0  0
   10.2872   14.7648   10.3009 C   0  0  0  0  0  0  0  0  0  0  0  0
    9.7974   15.6145   11.2947 C   0  0  0  0  0  0  0  0  0  0  0  0
    8.7062   16.3642   11.1095 C   0  0  0  0  0  0  0  0  0  0  0  0
    8.0480   16.3149    9.9471 C   0  0  0  0  0  0  0  0  0  0  0  0
    7.0055   17.1643   10.0493 C   0  0  0  0  0  0  0  0  0  0  0  0
    7.0400   17.7281   11.2643 C   0  0  0  0  0  0  0  0  0  0  0  0
    8.0800   17.2447   11.9039 N   0  0  0  0  0  0  0  0  0  0  0  0
    6.1679   18.6380   11.7914 C   0  0  0  0  0  0  0  0  0  0  0  0
    5.5278   19.3282   12.2116 N   0  0  0  0  0  0  0  0  0  0  0  0
    8.3889   17.6282   13.2677 C   0  0  0  0  0  0  0  0  0  0  0  0
    9.3824   18.7684   13.4210 C   0  0  0  0  0  0  0  0  0  0  0  0
   10.6866   18.7356   13.3089 C   0  0  0  0  0  0  0  0  0  0  0  0
   11.0330   19.9980   13.5389 N   0  0  0  0  0  0  0  0  0  0  0  0
   10.1084   20.7086   13.7592 N   0  0  0  0  0  0  0  0  0  0  0  0
    8.9930   19.9984   13.7037 C   0  0  0  0  0  0  0  0  0  0  0  0
   11.9657   20.3129   13.5275 H   0  0  0  0  0  0  0  0  0  0  0  0
  9 10  2  0  0  0
  9 13  1  0  0  0
  9 15  1  0  0  0
 10 11  1  0  0  0
 10 16  1  0  0  0
 11 12  2  0  0  0
 11  7  1  0  0  0
 12 17  1  0  0  0
 13 17  2  0  0  0
 19 20  1  0  0  0
 20 21  1  0  0  0
 20 22  1  0  0  0
 20 18  1  0  0  0
 18 14  1  0  0  0
 14 15  1  0  0  0
 14 16  2  0  0  0
  7  1  1  0  0  0
  1  2  1  0  0  0
  1  4  1  0  0  0
  2  3  1  0  0  0
  3  6  1  0  0  0
  4  5  1  0  0  0
  5  6  1  0  0  0
  6 23  1  0  0  0
 23 24  1  0  0  0
 24 25  2  0  0  0
 24 27  1  0  0  0
 25 26  1  0  0  0
 25 30  1  0  0  0
 27 28  2  0  0  0
 28 29  1  0  0  0
 29 30  2  0  0  0
 29 33  1  0  0  0
 30 31  1  0  0  0
 31 32  2  0  0  0
 32 34  1  0  0  0
 32 33  1  0  0  0
 34 35  3  0  0  0
 33 36  1  0  0  0
 36 37  1  0  0  0
 37 38  2  0  0  0
 37 41  1  0  0  0
 38 39  1  0  0  0
 39 40  1  0  0  0
 40 41  2  0  0  0
  7  8  1  0  0  0
 39 42  1  0  0  0
M  END
> <minimizedAffinity>
-8.56226

$$$$
4X5Y_3XW_A_601


 42 47  0  0  0  0  0  0  0  0999 V2000
   15.6895   12.2745   11.1364 C   0  0  0  0  0  0  0  0  0  0  0  0
   14.8981   12.8497   12.2995 C   0  0  0  0  0  0  0  0  0  0  0  0
   13.4223   12.6300   12.1436 C   0  0  0  0  0  0  0  0  0  0  0  0
   15.1330   12.9199    9.8638 C   0  0  0  0  0  0  0  0  0  0  0  0
   13.5807   12.8498    9.8317 C   0  0  0  0  0  0  0  0  0  0  0  0
   12.9461   13.4290   11.0191 N   0  0  0  0  0  0  0  0  0  0  0  0
   17.1395   12.5745   11.3208 N   0  0  0  0  0  0  0  0  0  0  0  0
   17.3748   13.4522   11.6997 H   0  0  0  0  0  0  0  0  0  0  0  0
   19.1684    9.6339   11.0750 C   0  0  0  0  0  0  0  0  0  0  0  0
   18.1296   10.4393   11.4222 C   0  0  0  0  0  0  0  0  0  0  0  0
   18.1599   11.7374   11.0095 C   0  0  0  0  0  0  0  0  0  0  0  0
   19.1855   12.2081   10.2891 N   0  0  0  0  0  0  0  0  0  0  0  0
   20.2271   10.0607   10.3783 N   0  0  0  0  0  0  0  0  0  0  0  0
   17.5598    8.4656   12.3499 C   0  0  0  0  0  0  0  0  0  0  0  0
   18.8938    8.1494   11.6232 S   0  0  0  0  0  0  0  0  0  0  0  0
   17.2174    9.7347   12.1574 C   0  0  0  0  0  0  0  0  0  0  0  0
   20.2479   11.3777    9.9314 C   0  0  0  0  0  0  0  0  0  0  0  0
   16.7652    7.4498   13.1410 C   0  0  0  0  0  0  0  0  0  0  0  0
   15.4113    7.3384   11.1777 F   0  0  0  0  0  0  0  0  0  0  0  0
   15.3243    7.2529   12.5010 C   0  0  0  0  0  0  0  0  0  0  0  0
   14.8496    6.0584   12.8371 F   0  0  0  0  0  0  0  0  0  0  0  0
   14.5057    8.1980   12.9529 F   0  0  0  0  0  0  0  0  0  0  0  0
   11.4739   13.2221   10.8956 C   0  0  0  0  0  0  0  0  0  0  0  0
   10.6081   14.3056   11.2106 C   0  0  0  0  0  0  0  0  0  0  0  0
    9.8689   14.9431   10.2090 C   0  0  0  0  0  0  0  0  0  0  0  0
    9.9698   14.4845    8.9013 C   0  0  0  0  0  0  0  0  0  0  0  0
   10.4881   14.8074   12.4995 C   0  0  0  0  0  0  0  0  0  0  0  0
    9.6305   15.8876   12.7173 C   0  0  0  0  0  0  0  0  0  0  0  0
    8.9391   16.4533   11.7229 C   0  0  0  0  0  0  0  0  0  0  0  0
    9.0558   15.9877   10.4753 C   0  0  0  0  0  0  0  0  0  0  0  0
    8.2534   16.7424    9.6974 C   0  0  0  0  0  0  0  0  0  0  0  0
    7.6623   17.6629   10.4711 C   0  0  0  0  0  0  0  0  0  0  0  0
    8.0873   17.4889   11.7013 N   0  0  0  0  0  0  0  0  0  0  0  0
    6.7654   18.6226   10.0959 C   0  0  0  0  0  0  0  0  0  0  0  0
    6.0676   19.3269    9.8135 N   0  0  0  0  0  0  0  0  0  0  0  0
    7.6132   18.3072   12.8003 C   0  0  0  0  0  0  0  0  0  0  0  0
    8.4173   19.5672   13.0764 C   0  0  0  0  0  0  0  0  0  0  0  0
    8.0343   20.8162   12.9871 C   0  0  0  0  0  0  0  0  0  0  0  0
    9.1277   21.4847   13.3394 N   0  0  0  0  0  0  0  0  0  0  0  0
   10.0458   20.7813   13.6056 N   0  0  0  0  0  0  0  0  0  0  0  0
    9.6790   19.5176   13.4641 C   0  0  0  0  0  0  0  0  0  0  0  0
    9.1718   22.4675   13.3760 H   0  0  0  0  0  0  0  0  0  0  0  0
  9 10  2  0  0  0
  9 13  1  0  0  0
  9 15  1  0  0  0
 10 11  1  0  0  0
 10 16  1  0  0  0
 11 12  2  0  0  0
 11  7  1  0  0  0
 12 17  1  0  0  0
 13 17  2  0  0  0
 19 20  1  0  0  0
 20 21  1  0  0  0
 20 22  1  0  0  0
 20 18  1  0  0  0
 18 14  1  0  0  0
 14 15  1  0  0  0
 14 16  2  0  0  0
  7  1  1  0  0  0
  1  2  1  0  0  0
  1  4  1  0  0  0
  2  3  1  0  0  0
  3  6  1  0  0  0
  4  5  1  0  0  0
  5  6  1  0  0  0
  6 23  1  0  0  0
 23 24  1  0  0  0
 24 25  2  0  0  0
 24 27  1  0  0  0
 25 26  1  0  0  0
 25 30  1  0  0  0
 27 28  2  0  0  0
 28 29  1  0  0  0
 29 30  2  0  0  0
 29 33  1  0  0  0
 30 31  1  0  0  0
 31 32  2  0  0  0
 32 34  1  0  0  0
 32 33  1  0  0  0
 34 35  3  0  0  0
 33 36  1  0  0  0
 36 37  1  0  0  0
 37 38  2  0  0  0
 37 41  1  0  0  0
 38 39  1  0  0  0
 39 40  1  0  0  0
 40 41  2  0  0  0
  7  8  1  0  0  0
 39 42  1  0  0  0
M  END
> <minimizedAffinity>
-8.43196

$$$$
4X5Y_3XW_A_601


 42 47  0  0  0  0  0  0  0  0999 V2000
   13.9055   13.2833   11.6825 C   0  0  0  0  0  0  0  0  0  0  0  0
   12.7708   12.7943   12.5677 C   0  0  0  0  0  0  0  0  0  0  0  0
   11.4289   13.2365   12.0636 C   0  0  0  0  0  0  0  0  0  0  0  0
   13.7810   14.8081   11.6100 C   0  0  0  0  0  0  0  0  0  0  0  0
   12.3242   15.2371   11.2798 C   0  0  0  0  0  0  0  0  0  0  0  0
   11.3299   14.6857   12.2047 N   0  0  0  0  0  0  0  0  0  0  0  0
   15.2126   12.8614   12.2658 N   0  0  0  0  0  0  0  0  0  0  0  0
   15.3802   13.0872   13.2093 H   0  0  0  0  0  0  0  0  0  0  0  0
   17.2742   10.2099   11.0236 C   0  0  0  0  0  0  0  0  0  0  0  0
   16.2882   10.8387   11.7170 C   0  0  0  0  0  0  0  0  0  0  0  0
   16.1885   12.1928   11.6031 C   0  0  0  0  0  0  0  0  0  0  0  0
   17.0404   12.8847   10.8363 N   0  0  0  0  0  0  0  0  0  0  0  0
   18.1648   10.8568   10.2642 N   0  0  0  0  0  0  0  0  0  0  0  0
   15.9825    8.6750   12.2702 C   0  0  0  0  0  0  0  0  0  0  0  0
   17.1672    8.6262   11.2693 S   0  0  0  0  0  0  0  0  0  0  0  0
   15.5597    9.9248   12.4263 C   0  0  0  0  0  0  0  0  0  0  0  0
   18.0485   12.2356   10.1233 C   0  0  0  0  0  0  0  0  0  0  0  0
   15.3924    7.4556   12.9436 C   0  0  0  0  0  0  0  0  0  0  0  0
   13.5684    5.9254   12.7648 F   0  0  0  0  0  0  0  0  0  0  0  0
   13.9720    7.1110   12.3204 C   0  0  0  0  0  0  0  0  0  0  0  0
   13.0933    8.0407   12.6790 F   0  0  0  0  0  0  0  0  0  0  0  0
   14.0659    7.0784   10.9946 F   0  0  0  0  0  0  0  0  0  0  0  0
    9.9807   15.1056   11.7266 C   0  0  0  0  0  0  0  0  0  0  0  0
    9.5409   16.4274   12.0135 C   0  0  0  0  0  0  0  0  0  0  0  0
    8.7240   17.1191   11.1132 C   0  0  0  0  0  0  0  0  0  0  0  0
    8.3228   16.4858    9.9434 C   0  0  0  0  0  0  0  0  0  0  0  0
    9.9295   17.1048   13.1614 C   0  0  0  0  0  0  0  0  0  0  0  0
    9.4681   18.4084   13.3548 C   0  0  0  0  0  0  0  0  0  0  0  0
    8.6798   19.0189   12.4644 C   0  0  0  0  0  0  0  0  0  0  0  0
    8.3090   18.3821   11.3491 C   0  0  0  0  0  0  0  0  0  0  0  0
    7.5280   19.2324   10.6521 C   0  0  0  0  0  0  0  0  0  0  0  0
    7.4351   20.3782   11.3404 C   0  0  0  0  0  0  0  0  0  0  0  0
    8.1430   20.2475   12.4386 N   0  0  0  0  0  0  0  0  0  0  0  0
    6.7348   21.5025   11.0061 C   0  0  0  0  0  0  0  0  0  0  0  0
    6.1830   22.3397   10.7667 N   0  0  0  0  0  0  0  0  0  0  0  0
    8.2276   21.3043   13.4278 C   0  0  0  0  0  0  0  0  0  0  0  0
    9.5502   22.0517   13.4798 C   0  0  0  0  0  0  0  0  0  0  0  0
   10.6447   21.7305   14.1229 C   0  0  0  0  0  0  0  0  0  0  0  0
   11.4690   22.7269   13.8157 N   0  0  0  0  0  0  0  0  0  0  0  0
   10.9814   23.5398   13.1016 N   0  0  0  0  0  0  0  0  0  0  0  0
    9.7357   23.1859   12.8289 C   0  0  0  0  0  0  0  0  0  0  0  0
   12.3939   22.7849   14.1481 H   0  0  0  0  0  0  0  0  0  0  0  0
  9 10  2  0  0  0
  9 13  1  0  0  0
  9 15  1  0  0  0
 10 11  1  0  0  0
 10 16  1  0  0  0
 11 12  2  0  0  0
 11  7  1  0  0  0
 12 17  1  0  0  0
 13 17  2  0  0  0
 19 20  1  0  0  0
 20 21  1  0  0  0
 20 22  1  0  0  0
 20 18  1  0  0  0
 18 14  1  0  0  0
 14 15  1  0  0  0
 14 16  2  0  0  0
  7  1  1  0  0  0
  1  2  1  0  0  0
  1  4  1  0  0  0
  2  3  1  0  0  0
  3  6  1  0  0  0
  4  5  1  0  0  0
  5  6  1  0  0  0
  6 23  1  0  0  0
 23 24  1  0  0  0
 24 25  2  0  0  0
 24 27  1  0  0  0
 25 26  1  0  0  0
 25 30  1  0  0  0
 27 28  2  0  0  0
 28 29  1  0  0  0
 29 30  2  0  0  0
 29 33  1  0  0  0
 30 31  1  0  0  0
 31 32  2  0  0  0
 32 34  1  0  0  0
 32 33  1  0  0  0
 34 35  3  0  0  0
 33 36  1  0  0  0
 36 37  1  0  0  0
 37 38  2  0  0  0
 37 41  1  0  0  0
 38 39  1  0  0  0
 39 40  1  0  0  0
 40 41  2  0  0  0
  7  8  1  0  0  0
 39 42  1  0  0  0
M  END
> <minimizedAffinity>
-8.41469

$$$$
