2YA6_DAN_A_1777
  RCSB PDB12061707353D
Coordinates from PDB:2YA6:A:1777 Model:1 without hydrogens
 20 20  0  0  0  0            999 V2000
   14.7300  -20.0150   45.0510   C 0  0  0  0  0  0  0  0  0  0  0  0
   14.8800  -19.3650   43.6560   C 0  0  0  0  0  0  0  0  0  0  0  0
   13.7730  -18.9950   42.8870   C 0  0  0  0  0  0  0  0  0  0  0  0
   13.9910  -18.3190   41.5050   C 0  0  0  0  0  0  0  0  0  0  0  0
   15.3440  -18.7190   40.9140   C 0  0  0  0  0  0  0  0  0  0  0  0
   16.4470  -18.4740   41.9720   C 0  0  0  0  0  0  0  0  0  0  0  0
   17.8730  -18.8580   41.5400   C 0  0  0  0  0  0  0  0  0  0  0  0
   18.9180  -18.7430   42.6540   C 0  0  0  0  0  0  0  0  0  0  0  0
   20.2950  -19.1650   42.1230   C 0  0  0  0  0  0  0  0  0  0  0  0
   16.2050  -18.4270   38.6370   C 0  0  0  0  0  0  0  0  0  0  0  0
   16.3490  -17.4660   37.4380   C 0  0  0  0  0  0  0  0  0  0  0  0
   15.5830  -17.9210   39.6870   N 0  0  0  0  0  0  0  0  0  0  0  0
   13.5970  -20.2510   45.5230   O 0  0  0  0  0  0  0  0  0  0  0  0
   15.7900  -20.2480   45.6440   O 0  0  0  0  0  0  0  0  0  0  0  0
   12.8860  -18.5430   40.6180   O 0  0  0  0  0  0  0  0  0  0  0  0
   16.1630  -19.1910   43.2170   O 0  0  0  0  0  0  0  0  0  0  0  0
   17.8740  -20.1850   41.0540   O 0  0  0  0  0  0  0  0  0  0  0  0
   18.9640  -17.3940   43.1280   O 0  0  0  0  0  0  0  0  0  0  0  0
   21.2820  -19.0410   43.1470   O 0  0  0  0  0  0  0  0  0  0  0  0
   16.6830  -19.5700   38.6050   O 0  0  0  0  0  0  0  0  0  0  0  0
  1  2  1  0  0  0  0
  1 13  2  0  0  0  0
  1 14  1  0  0  0  0
  2  3  2  0  0  0  0
  2 16  1  0  0  0  0
  3  4  1  0  0  0  0
  4  5  1  0  0  0  0
  4 15  1  0  0  0  0
  5  6  1  0  0  0  0
  5 12  1  0  0  0  0
  6  7  1  0  0  0  0
  6 16  1  0  0  0  0
  7  8  1  0  0  0  0
  7 17  1  0  0  0  0
  8  9  1  0  0  0  0
  8 18  1  0  0  0  0
  9 19  1  0  0  0  0
 10 11  1  0  0  0  0
 10 12  1  0  0  0  0
 10 20  2  0  0  0  0
A    1
C1
A    2
C2
A    3
C3
A    4
C4
A    5
C5
A    6
C6
A    7
C7
A    8
C8
A    9
C9
A   10
C10
A   11
C11
A   12
N5
A   13
O1A
A   14
O1B
A   15
O4
A   16
O6
A   17
O7
A   18
O8
A   19
O9
A   20
O10
M  END
>  <InstanceId>
2YA6_DAN_A_1777

>  <ChemCompId>
DAN

>  <PdbId>
2YA6

>  <ChainId>
A

>  <ResidueNumber>
1777

>  <InsertionCode>


>  <Model>
1

>  <AltIds>


>  <MissingHeavyAtoms>
0

>  <ObservedFormula>
C11 N O8

>  <Name>
2-DEOXY-2,3-DEHYDRO-N-ACETYL-NEURAMINIC ACID

>  <SystematicName>
(4S,5R,6R)-5-acetamido-4-hydroxy-6-[(1R,2R)-1,2,3-trihydroxypropyl]-5,6-dihydro-4H-pyran-2-carboxylic acid

>  <Synonyms>


>  <Type>
NON-POLYMER

>  <Formula>
C11 H17 N O8

>  <MolecularWeight>
291.255

>  <ModifiedDate>
2011-06-04

>  <Parent>


>  <OneLetterCode>


>  <SubcomponentList>


>  <AmbiguousFlag>
N

>  <InChI>
InChI=1S/C11H17NO8/c1-4(14)12-8-5(15)2-7(11(18)19)20-10(8)9(17)6(16)3-13/h2,5-6,8-10,13,15-17H,3H2,1H3,(H,12,14)(H,18,19)/t5-,6+,8+,9+,10+/m0/s1

>  <InChIKey>
JINJZWSZQKHCIP-UFGQHTETSA-N

>  <SMILES>
CC(=O)N[C@@H]1[C@H](C=C(O[C@H]1[C@@H]([C@@H](CO)O)O)C(=O)O)O

$$$$
