2YA6_DAN_A_1777


 26 26  0  0  0  0  0  0  0  0999 V2000
   15.1994  -19.7551   43.4082 C   0  0  0  0  0  0  0  0  0  0  0  0
   14.1109  -19.4527   42.5852 C   0  0  0  0  0  0  0  0  0  0  0  0
   14.3506  -18.7245   41.2336 C   0  0  0  0  0  0  0  0  0  0  0  0
   15.7621  -19.0005   40.7128 C   0  0  0  0  0  0  0  0  0  0  0  0
   16.7813  -18.6982   41.8378 C   0  0  0  0  0  0  0  0  0  0  0  0
   13.3182  -19.0107   40.2796 O   0  0  0  0  0  0  0  0  0  0  0  0
   16.4868  -19.4687   43.0479 O   0  0  0  0  0  0  0  0  0  0  0  0
   13.3170  -19.9598   40.0794 H   0  0  0  0  0  0  0  0  0  0  0  0
   16.2979  -18.6755   38.3424 C   0  0  0  0  0  0  0  0  0  0  0  0
   16.4967  -17.6510   37.2054 C   0  0  0  0  0  0  0  0  0  0  0  0
   16.0043  -18.1532   39.5199 N   0  0  0  0  0  0  0  0  0  0  0  0
   16.4488  -19.8899   38.1464 O   0  0  0  0  0  0  0  0  0  0  0  0
   15.9447  -17.1745   39.6079 H   0  0  0  0  0  0  0  0  0  0  0  0
   15.0246  -20.4524   44.7772 C   0  0  0  0  0  0  0  0  0  0  0  0
   14.0731  -21.2392   44.9720 O   0  0  0  0  0  0  0  0  0  0  0  0
   15.8637  -20.1538   45.6352 O   0  0  0  0  0  0  0  0  0  0  0  0
   16.5549  -19.5566   45.4266 H   0  0  0  0  0  0  0  0  0  0  0  0
   18.2553  -18.9568   41.4802 C   0  0  0  0  0  0  0  0  0  0  0  0
   18.4358  -20.3305   41.2016 O   0  0  0  0  0  0  0  0  0  0  0  0
   18.2382  -20.8503   41.9964 H   0  0  0  0  0  0  0  0  0  0  0  0
   19.2472  -18.5434   42.5718 C   0  0  0  0  0  0  0  0  0  0  0  0
   20.3674  -17.8842   41.9742 O   0  0  0  0  0  0  0  0  0  0  0  0
   20.8062  -18.4890   41.3556 H   0  0  0  0  0  0  0  0  0  0  0  0
   19.7142  -19.7823   43.3485 C   0  0  0  0  0  0  0  0  0  0  0  0
   18.7729  -20.1130   44.3696 O   0  0  0  0  0  0  0  0  0  0  0  0
   18.6930  -19.3703   44.9885 H   0  0  0  0  0  0  0  0  0  0  0  0
 14  1  1  0  0  0
 14 15  2  0  0  0
 14 16  1  0  0  0
  1  2  2  0  0  0
  1  7  1  0  0  0
  2  3  1  0  0  0
  3  4  1  0  0  0
  3  6  1  0  0  0
  4  5  1  0  0  0
  4 11  1  0  0  0
  5 18  1  0  0  0
  5  7  1  0  0  0
 18 21  1  0  0  0
 18 19  1  0  0  0
 21 24  1  0  0  0
 21 22  1  0  0  0
 24 25  1  0  0  0
  9 10  1  0  0  0
  9 11  1  0  0  0
  9 12  2  0  0  0
 11 13  1  0  0  0
 16 17  1  0  0  0
  6  8  1  0  0  0
 19 20  1  0  0  0
 22 23  1  0  0  0
 25 26  1  0  0  0
M  END
> <minimizedAffinity>
-8.16405

$$$$
2YA6_DAN_A_1777


 26 26  0  0  0  0  0  0  0  0999 V2000
   16.8885  -18.2557   39.6413 C   0  0  0  0  0  0  0  0  0  0  0  0
   15.5798  -18.5397   40.0419 C   0  0  0  0  0  0  0  0  0  0  0  0
   15.3320  -19.5758   41.1730 C   0  0  0  0  0  0  0  0  0  0  0  0
   16.5456  -19.6661   42.0999 C   0  0  0  0  0  0  0  0  0  0  0  0
   17.8166  -19.8852   41.2440 C   0  0  0  0  0  0  0  0  0  0  0  0
   14.0976  -19.3326   41.8622 O   0  0  0  0  0  0  0  0  0  0  0  0
   17.9747  -18.8300   40.2409 O   0  0  0  0  0  0  0  0  0  0  0  0
   14.1335  -18.4643   42.2932 H   0  0  0  0  0  0  0  0  0  0  0  0
   16.1649  -20.5712   44.3465 C   0  0  0  0  0  0  0  0  0  0  0  0
   15.9367  -21.8428   45.1908 C   0  0  0  0  0  0  0  0  0  0  0  0
   16.3352  -20.7823   43.0534 N   0  0  0  0  0  0  0  0  0  0  0  0
   16.2204  -19.4512   44.8741 O   0  0  0  0  0  0  0  0  0  0  0  0
   16.3220  -21.7062   42.7135 H   0  0  0  0  0  0  0  0  0  0  0  0
   17.2000  -17.2566   38.5030 C   0  0  0  0  0  0  0  0  0  0  0  0
   17.5213  -17.6680   37.3674 O   0  0  0  0  0  0  0  0  0  0  0  0
   17.1292  -16.0613   38.8126 O   0  0  0  0  0  0  0  0  0  0  0  0
   16.8819  -15.8166   39.6827 H   0  0  0  0  0  0  0  0  0  0  0  0
   19.1363  -19.9673   42.0311 C   0  0  0  0  0  0  0  0  0  0  0  0
   19.1135  -21.1069   42.8665 O   0  0  0  0  0  0  0  0  0  0  0  0
   18.3979  -21.0179   43.5152 H   0  0  0  0  0  0  0  0  0  0  0  0
   19.4311  -18.7346   42.8912 C   0  0  0  0  0  0  0  0  0  0  0  0
   20.3042  -17.8532   42.1789 O   0  0  0  0  0  0  0  0  0  0  0  0
   21.1358  -18.3117   41.9814 H   0  0  0  0  0  0  0  0  0  0  0  0
   20.0778  -19.1649   44.2151 C   0  0  0  0  0  0  0  0  0  0  0  0
   21.4676  -19.4312   44.0259 O   0  0  0  0  0  0  0  0  0  0  0  0
   21.5746  -20.1476   43.3807 H   0  0  0  0  0  0  0  0  0  0  0  0
 14  1  1  0  0  0
 14 15  2  0  0  0
 14 16  1  0  0  0
  1  2  2  0  0  0
  1  7  1  0  0  0
  2  3  1  0  0  0
  3  4  1  0  0  0
  3  6  1  0  0  0
  4  5  1  0  0  0
  4 11  1  0  0  0
  5 18  1  0  0  0
  5  7  1  0  0  0
 18 21  1  0  0  0
 18 19  1  0  0  0
 21 24  1  0  0  0
 21 22  1  0  0  0
 24 25  1  0  0  0
  9 10  1  0  0  0
  9 11  1  0  0  0
  9 12  2  0  0  0
 11 13  1  0  0  0
 16 17  1  0  0  0
  6  8  1  0  0  0
 19 20  1  0  0  0
 22 23  1  0  0  0
 25 26  1  0  0  0
M  END
> <minimizedAffinity>
-7.52466

$$$$
2YA6_DAN_A_1777


 26 26  0  0  0  0  0  0  0  0999 V2000
   15.1128  -19.7347   42.4810 C   0  0  0  0  0  0  0  0  0  0  0  0
   15.6691  -20.2610   43.6503 C   0  0  0  0  0  0  0  0  0  0  0  0
   17.1651  -20.6805   43.6661 C   0  0  0  0  0  0  0  0  0  0  0  0
   17.9599  -19.8909   42.6246 C   0  0  0  0  0  0  0  0  0  0  0  0
   17.2396  -19.9939   41.2584 C   0  0  0  0  0  0  0  0  0  0  0  0
   17.7252  -20.6201   44.9854 O   0  0  0  0  0  0  0  0  0  0  0  0
   15.8523  -19.5335   41.3489 O   0  0  0  0  0  0  0  0  0  0  0  0
   17.6969  -19.7055   45.3072 H   0  0  0  0  0  0  0  0  0  0  0  0
   20.3189  -19.9550   43.2898 C   0  0  0  0  0  0  0  0  0  0  0  0
   21.6793  -20.6612   43.1100 C   0  0  0  0  0  0  0  0  0  0  0  0
   19.3348  -20.4425   42.5554 N   0  0  0  0  0  0  0  0  0  0  0  0
   20.1966  -18.9789   44.0438 O   0  0  0  0  0  0  0  0  0  0  0  0
   19.5194  -21.1928   41.9453 H   0  0  0  0  0  0  0  0  0  0  0  0
   13.6243  -19.3253   42.3923 C   0  0  0  0  0  0  0  0  0  0  0  0
   12.9819  -19.0391   43.4255 O   0  0  0  0  0  0  0  0  0  0  0  0
   13.1400  -19.3306   41.2543 O   0  0  0  0  0  0  0  0  0  0  0  0
   13.6751  -19.5546   40.5185 H   0  0  0  0  0  0  0  0  0  0  0  0
   17.9015  -19.2224   40.1034 C   0  0  0  0  0  0  0  0  0  0  0  0
   18.7569  -18.2297   40.6325 O   0  0  0  0  0  0  0  0  0  0  0  0
   18.2343  -17.5906   41.1418 H   0  0  0  0  0  0  0  0  0  0  0  0
   16.9098  -18.5553   39.1454 C   0  0  0  0  0  0  0  0  0  0  0  0
   16.4276  -19.5224   38.2079 O   0  0  0  0  0  0  0  0  0  0  0  0
   17.1726  -19.8794   37.6996 H   0  0  0  0  0  0  0  0  0  0  0  0
   17.5963  -17.3981   38.4066 C   0  0  0  0  0  0  0  0  0  0  0  0
   17.1948  -16.1458   38.9623 O   0  0  0  0  0  0  0  0  0  0  0  0
   16.2343  -16.0453   38.8725 H   0  0  0  0  0  0  0  0  0  0  0  0
 14  1  1  0  0  0
 14 15  2  0  0  0
 14 16  1  0  0  0
  1  2  2  0  0  0
  1  7  1  0  0  0
  2  3  1  0  0  0
  3  4  1  0  0  0
  3  6  1  0  0  0
  4  5  1  0  0  0
  4 11  1  0  0  0
  5 18  1  0  0  0
  5  7  1  0  0  0
 18 21  1  0  0  0
 18 19  1  0  0  0
 21 24  1  0  0  0
 21 22  1  0  0  0
 24 25  1  0  0  0
  9 10  1  0  0  0
  9 11  1  0  0  0
  9 12  2  0  0  0
 11 13  1  0  0  0
 16 17  1  0  0  0
  6  8  1  0  0  0
 19 20  1  0  0  0
 22 23  1  0  0  0
 25 26  1  0  0  0
M  END
> <minimizedAffinity>
-7.23553

$$$$
2YA6_DAN_A_1777


 26 26  0  0  0  0  0  0  0  0999 V2000
   19.9687  -20.3470   43.3375 C   0  0  0  0  0  0  0  0  0  0  0  0
   20.0129  -19.7150   42.0915 C   0  0  0  0  0  0  0  0  0  0  0  0
   18.7096  -19.5724   41.2576 C   0  0  0  0  0  0  0  0  0  0  0  0
   17.4808  -19.5754   42.1686 C   0  0  0  0  0  0  0  0  0  0  0  0
   17.5551  -20.8026   43.1090 C   0  0  0  0  0  0  0  0  0  0  0  0
   18.7632  -18.4495   40.3663 O   0  0  0  0  0  0  0  0  0  0  0  0
   18.8023  -20.8139   43.8765 O   0  0  0  0  0  0  0  0  0  0  0  0
   18.8462  -17.6317   40.8812 H   0  0  0  0  0  0  0  0  0  0  0  0
   15.2519  -18.7836   41.5233 C   0  0  0  0  0  0  0  0  0  0  0  0
   14.0730  -18.9444   40.5403 C   0  0  0  0  0  0  0  0  0  0  0  0
   16.2617  -19.6120   41.3248 N   0  0  0  0  0  0  0  0  0  0  0  0
   15.2102  -17.9580   42.4466 O   0  0  0  0  0  0  0  0  0  0  0  0
   16.2034  -20.2720   40.5966 H   0  0  0  0  0  0  0  0  0  0  0  0
   21.2349  -20.5457   44.2024 C   0  0  0  0  0  0  0  0  0  0  0  0
   21.1901  -21.2332   45.2452 O   0  0  0  0  0  0  0  0  0  0  0  0
   22.2495  -19.9653   43.7981 O   0  0  0  0  0  0  0  0  0  0  0  0
   22.2186  -19.4641   43.0070 H   0  0  0  0  0  0  0  0  0  0  0  0
   16.3990  -20.9336   44.1159 C   0  0  0  0  0  0  0  0  0  0  0  0
   16.2176  -19.7015   44.7839 O   0  0  0  0  0  0  0  0  0  0  0  0
   17.0165  -19.4879   45.2909 H   0  0  0  0  0  0  0  0  0  0  0  0
   16.6007  -22.0337   45.1625 C   0  0  0  0  0  0  0  0  0  0  0  0
   17.4245  -23.0676   44.6157 O   0  0  0  0  0  0  0  0  0  0  0  0
   16.9927  -23.4454   43.8335 H   0  0  0  0  0  0  0  0  0  0  0  0
   15.2410  -22.6076   45.5846 C   0  0  0  0  0  0  0  0  0  0  0  0
   14.1964  -21.6813   45.2868 O   0  0  0  0  0  0  0  0  0  0  0  0
   14.3488  -20.8551   45.7716 H   0  0  0  0  0  0  0  0  0  0  0  0
 14  1  1  0  0  0
 14 15  2  0  0  0
 14 16  1  0  0  0
  1  2  2  0  0  0
  1  7  1  0  0  0
  2  3  1  0  0  0
  3  4  1  0  0  0
  3  6  1  0  0  0
  4  5  1  0  0  0
  4 11  1  0  0  0
  5 18  1  0  0  0
  5  7  1  0  0  0
 18 21  1  0  0  0
 18 19  1  0  0  0
 21 24  1  0  0  0
 21 22  1  0  0  0
 24 25  1  0  0  0
  9 10  1  0  0  0
  9 11  1  0  0  0
  9 12  2  0  0  0
 11 13  1  0  0  0
 16 17  1  0  0  0
  6  8  1  0  0  0
 19 20  1  0  0  0
 22 23  1  0  0  0
 25 26  1  0  0  0
M  END
> <minimizedAffinity>
-6.97248

$$$$
2YA6_DAN_A_1777


 26 26  0  0  0  0  0  0  0  0999 V2000
   15.0404  -19.6771   42.6221 C   0  0  0  0  0  0  0  0  0  0  0  0
   15.1278  -20.1714   43.9266 C   0  0  0  0  0  0  0  0  0  0  0  0
   16.4230  -20.8961   44.3867 C   0  0  0  0  0  0  0  0  0  0  0  0
   17.6278  -20.4203   43.5730 C   0  0  0  0  0  0  0  0  0  0  0  0
   17.2895  -20.5242   42.0661 C   0  0  0  0  0  0  0  0  0  0  0  0
   16.6137  -20.8048   45.8055 O   0  0  0  0  0  0  0  0  0  0  0  0
   16.0777  -19.7707   41.7365 O   0  0  0  0  0  0  0  0  0  0  0  0
   16.7195  -19.8743   46.0583 H   0  0  0  0  0  0  0  0  0  0  0  0
   19.8215  -20.7734   44.6095 C   0  0  0  0  0  0  0  0  0  0  0  0
   20.9468  -21.7869   44.9070 C   0  0  0  0  0  0  0  0  0  0  0  0
   18.8008  -21.2571   43.9242 N   0  0  0  0  0  0  0  0  0  0  0  0
   19.9133  -19.5894   44.9639 O   0  0  0  0  0  0  0  0  0  0  0  0
   18.8194  -22.1991   43.6387 H   0  0  0  0  0  0  0  0  0  0  0  0
   13.7690  -18.9722   42.0950 C   0  0  0  0  0  0  0  0  0  0  0  0
   13.7188  -17.7256   42.0206 O   0  0  0  0  0  0  0  0  0  0  0  0
   12.8349  -19.7229   41.7893 O   0  0  0  0  0  0  0  0  0  0  0  0
   12.9350  -20.6512   41.8675 H   0  0  0  0  0  0  0  0  0  0  0  0
   18.3956  -20.0505   41.1071 C   0  0  0  0  0  0  0  0  0  0  0  0
   19.6117  -20.6871   41.4436 O   0  0  0  0  0  0  0  0  0  0  0  0
   19.8770  -20.4249   42.3390 H   0  0  0  0  0  0  0  0  0  0  0  0
   18.6190  -18.5352   41.1072 C   0  0  0  0  0  0  0  0  0  0  0  0
   18.2948  -18.0048   39.8187 O   0  0  0  0  0  0  0  0  0  0  0  0
   18.8654  -18.4122   39.1484 H   0  0  0  0  0  0  0  0  0  0  0  0
   20.0811  -18.2235   41.4555 C   0  0  0  0  0  0  0  0  0  0  0  0
   20.1821  -17.7505   42.7987 O   0  0  0  0  0  0  0  0  0  0  0  0
   19.6599  -16.9388   42.8958 H   0  0  0  0  0  0  0  0  0  0  0  0
 14  1  1  0  0  0
 14 15  2  0  0  0
 14 16  1  0  0  0
  1  2  2  0  0  0
  1  7  1  0  0  0
  2  3  1  0  0  0
  3  4  1  0  0  0
  3  6  1  0  0  0
  4  5  1  0  0  0
  4 11  1  0  0  0
  5 18  1  0  0  0
  5  7  1  0  0  0
 18 21  1  0  0  0
 18 19  1  0  0  0
 21 24  1  0  0  0
 21 22  1  0  0  0
 24 25  1  0  0  0
  9 10  1  0  0  0
  9 11  1  0  0  0
  9 12  2  0  0  0
 11 13  1  0  0  0
 16 17  1  0  0  0
  6  8  1  0  0  0
 19 20  1  0  0  0
 22 23  1  0  0  0
 25 26  1  0  0  0
M  END
> <minimizedAffinity>
-6.81841

$$$$
2YA6_DAN_A_1777


 26 26  0  0  0  0  0  0  0  0999 V2000
   15.4436  -19.0833   42.4616 C   0  0  0  0  0  0  0  0  0  0  0  0
   16.4724  -18.3110   41.9150 C   0  0  0  0  0  0  0  0  0  0  0  0
   17.9397  -18.5634   42.3596 C   0  0  0  0  0  0  0  0  0  0  0  0
   18.1193  -20.0041   42.8412 C   0  0  0  0  0  0  0  0  0  0  0  0
   17.0267  -20.3234   43.8903 C   0  0  0  0  0  0  0  0  0  0  0  0
   18.8809  -18.1719   41.3502 O   0  0  0  0  0  0  0  0  0  0  0  0
   15.6844  -20.0922   43.3522 O   0  0  0  0  0  0  0  0  0  0  0  0
   18.7430  -18.7084   40.5540 H   0  0  0  0  0  0  0  0  0  0  0  0
   20.5322  -20.3970   42.6549 C   0  0  0  0  0  0  0  0  0  0  0  0
   21.8737  -20.4955   43.4115 C   0  0  0  0  0  0  0  0  0  0  0  0
   19.4796  -20.1494   43.4139 N   0  0  0  0  0  0  0  0  0  0  0  0
   20.4701  -20.5815   41.4310 O   0  0  0  0  0  0  0  0  0  0  0  0
   19.6015  -20.0587   44.3866 H   0  0  0  0  0  0  0  0  0  0  0  0
   13.9610  -18.8623   42.0822 C   0  0  0  0  0  0  0  0  0  0  0  0
   13.5737  -17.7540   41.6534 O   0  0  0  0  0  0  0  0  0  0  0  0
   13.2181  -19.8353   42.2579 O   0  0  0  0  0  0  0  0  0  0  0  0
   13.5699  -20.6407   42.5826 H   0  0  0  0  0  0  0  0  0  0  0  0
   17.0514  -21.7547   44.4543 C   0  0  0  0  0  0  0  0  0  0  0  0
   17.1256  -22.6778   43.3868 O   0  0  0  0  0  0  0  0  0  0  0  0
   16.3306  -22.6003   42.8365 H   0  0  0  0  0  0  0  0  0  0  0  0
   15.8406  -22.1069   45.3239 C   0  0  0  0  0  0  0  0  0  0  0  0
   16.2888  -22.6570   46.5661 O   0  0  0  0  0  0  0  0  0  0  0  0
   16.8052  -23.4604   46.3964 H   0  0  0  0  0  0  0  0  0  0  0  0
   14.9470  -23.1161   44.5895 C   0  0  0  0  0  0  0  0  0  0  0  0
   14.0972  -22.4435   43.6602 O   0  0  0  0  0  0  0  0  0  0  0  0
   13.5310  -21.8156   44.1357 H   0  0  0  0  0  0  0  0  0  0  0  0
 14  1  1  0  0  0
 14 15  2  0  0  0
 14 16  1  0  0  0
  1  2  2  0  0  0
  1  7  1  0  0  0
  2  3  1  0  0  0
  3  4  1  0  0  0
  3  6  1  0  0  0
  4  5  1  0  0  0
  4 11  1  0  0  0
  5 18  1  0  0  0
  5  7  1  0  0  0
 18 21  1  0  0  0
 18 19  1  0  0  0
 21 24  1  0  0  0
 21 22  1  0  0  0
 24 25  1  0  0  0
  9 10  1  0  0  0
  9 11  1  0  0  0
  9 12  2  0  0  0
 11 13  1  0  0  0
 16 17  1  0  0  0
  6  8  1  0  0  0
 19 20  1  0  0  0
 22 23  1  0  0  0
 25 26  1  0  0  0
M  END
> <minimizedAffinity>
-6.80017

$$$$
2YA6_DAN_A_1777


 26 26  0  0  0  0  0  0  0  0999 V2000
   15.0568  -19.4479   42.6039 C   0  0  0  0  0  0  0  0  0  0  0  0
   14.2835  -20.3505   43.3394 C   0  0  0  0  0  0  0  0  0  0  0  0
   14.9692  -21.5603   44.0327 C   0  0  0  0  0  0  0  0  0  0  0  0
   16.4363  -21.2507   44.3354 C   0  0  0  0  0  0  0  0  0  0  0  0
   17.1169  -20.7308   43.0460 C   0  0  0  0  0  0  0  0  0  0  0  0
   14.2289  -22.0148   45.1743 O   0  0  0  0  0  0  0  0  0  0  0  0
   16.4151  -19.5657   42.5029 O   0  0  0  0  0  0  0  0  0  0  0  0
   14.1914  -21.3080   45.8376 H   0  0  0  0  0  0  0  0  0  0  0  0
   17.5114  -22.5944   46.0818 C   0  0  0  0  0  0  0  0  0  0  0  0
   18.1490  -23.9539   46.4382 C   0  0  0  0  0  0  0  0  0  0  0  0
   17.0909  -22.4844   44.8342 N   0  0  0  0  0  0  0  0  0  0  0  0
   17.4484  -21.6771   46.9127 O   0  0  0  0  0  0  0  0  0  0  0  0
   17.2156  -23.2425   44.2185 H   0  0  0  0  0  0  0  0  0  0  0  0
   14.4310  -18.2409   41.8674 C   0  0  0  0  0  0  0  0  0  0  0  0
   13.3642  -18.3701   41.2291 O   0  0  0  0  0  0  0  0  0  0  0  0
   15.0693  -17.1844   41.9435 O   0  0  0  0  0  0  0  0  0  0  0  0
   15.8640  -17.1518   42.4388 H   0  0  0  0  0  0  0  0  0  0  0  0
   18.5988  -20.3430   43.1921 C   0  0  0  0  0  0  0  0  0  0  0  0
   18.8979  -20.1418   44.5585 O   0  0  0  0  0  0  0  0  0  0  0  0
   18.3728  -19.4006   44.8987 H   0  0  0  0  0  0  0  0  0  0  0  0
   18.9978  -19.0864   42.4125 C   0  0  0  0  0  0  0  0  0  0  0  0
   20.2479  -19.3101   41.7538 O   0  0  0  0  0  0  0  0  0  0  0  0
   20.9306  -19.5071   42.4142 H   0  0  0  0  0  0  0  0  0  0  0  0
   19.1101  -17.8921   43.3703 C   0  0  0  0  0  0  0  0  0  0  0  0
   17.8161  -17.3619   43.6576 O   0  0  0  0  0  0  0  0  0  0  0  0
   17.3996  -17.0619   42.8346 H   0  0  0  0  0  0  0  0  0  0  0  0
 14  1  1  0  0  0
 14 15  2  0  0  0
 14 16  1  0  0  0
  1  2  2  0  0  0
  1  7  1  0  0  0
  2  3  1  0  0  0
  3  4  1  0  0  0
  3  6  1  0  0  0
  4  5  1  0  0  0
  4 11  1  0  0  0
  5 18  1  0  0  0
  5  7  1  0  0  0
 18 21  1  0  0  0
 18 19  1  0  0  0
 21 24  1  0  0  0
 21 22  1  0  0  0
 24 25  1  0  0  0
  9 10  1  0  0  0
  9 11  1  0  0  0
  9 12  2  0  0  0
 11 13  1  0  0  0
 16 17  1  0  0  0
  6  8  1  0  0  0
 19 20  1  0  0  0
 22 23  1  0  0  0
 25 26  1  0  0  0
M  END
> <minimizedAffinity>
-6.72175

$$$$
2YA6_DAN_A_1777


 26 26  0  0  0  0  0  0  0  0999 V2000
   21.4167  -21.0319   43.9439 C   0  0  0  0  0  0  0  0  0  0  0  0
   21.4518  -19.8684   43.1700 C   0  0  0  0  0  0  0  0  0  0  0  0
   20.1686  -19.4020   42.4284 C   0  0  0  0  0  0  0  0  0  0  0  0
   18.9153  -19.9147   43.1400 C   0  0  0  0  0  0  0  0  0  0  0  0
   19.0536  -21.4398   43.3654 C   0  0  0  0  0  0  0  0  0  0  0  0
   20.1642  -17.9852   42.2031 O   0  0  0  0  0  0  0  0  0  0  0  0
   20.2730  -21.7624   44.1096 O   0  0  0  0  0  0  0  0  0  0  0  0
   20.1679  -17.5223   43.0555 H   0  0  0  0  0  0  0  0  0  0  0  0
   16.8470  -18.6833   42.6743 C   0  0  0  0  0  0  0  0  0  0  0  0
   15.6875  -18.4611   41.6803 C   0  0  0  0  0  0  0  0  0  0  0  0
   17.7301  -19.5950   42.3078 N   0  0  0  0  0  0  0  0  0  0  0  0
   16.8989  -18.0674   43.7486 O   0  0  0  0  0  0  0  0  0  0  0  0
   17.5977  -20.0755   41.4588 H   0  0  0  0  0  0  0  0  0  0  0  0
   22.6663  -21.5642   44.6829 C   0  0  0  0  0  0  0  0  0  0  0  0
   22.5464  -22.3394   45.6559 O   0  0  0  0  0  0  0  0  0  0  0  0
   23.7508  -21.1501   44.2563 O   0  0  0  0  0  0  0  0  0  0  0  0
   23.7743  -20.5694   43.5214 H   0  0  0  0  0  0  0  0  0  0  0  0
   17.8796  -22.1072   44.1029 C   0  0  0  0  0  0  0  0  0  0  0  0
   16.8243  -22.3380   43.1917 O   0  0  0  0  0  0  0  0  0  0  0  0
   16.5022  -21.4898   42.8484 H   0  0  0  0  0  0  0  0  0  0  0  0
   17.3388  -21.2959   45.2843 C   0  0  0  0  0  0  0  0  0  0  0  0
   17.6890  -21.9457   46.5097 O   0  0  0  0  0  0  0  0  0  0  0  0
   17.3003  -22.8342   46.5272 H   0  0  0  0  0  0  0  0  0  0  0  0
   15.8136  -21.1641   45.1718 C   0  0  0  0  0  0  0  0  0  0  0  0
   15.3925  -19.8727   45.6112 O   0  0  0  0  0  0  0  0  0  0  0  0
   15.6475  -19.7477   46.5387 H   0  0  0  0  0  0  0  0  0  0  0  0
 14  1  1  0  0  0
 14 15  2  0  0  0
 14 16  1  0  0  0
  1  2  2  0  0  0
  1  7  1  0  0  0
  2  3  1  0  0  0
  3  4  1  0  0  0
  3  6  1  0  0  0
  4  5  1  0  0  0
  4 11  1  0  0  0
  5 18  1  0  0  0
  5  7  1  0  0  0
 18 21  1  0  0  0
 18 19  1  0  0  0
 21 24  1  0  0  0
 21 22  1  0  0  0
 24 25  1  0  0  0
  9 10  1  0  0  0
  9 11  1  0  0  0
  9 12  2  0  0  0
 11 13  1  0  0  0
 16 17  1  0  0  0
  6  8  1  0  0  0
 19 20  1  0  0  0
 22 23  1  0  0  0
 25 26  1  0  0  0
M  END
> <minimizedAffinity>
-6.53903

$$$$
2YA6_DAN_A_1777


 26 26  0  0  0  0  0  0  0  0999 V2000
   19.2208  -20.8655   43.9854 C   0  0  0  0  0  0  0  0  0  0  0  0
   19.9659  -20.5524   42.8451 C   0  0  0  0  0  0  0  0  0  0  0  0
   19.2313  -20.2081   41.5199 C   0  0  0  0  0  0  0  0  0  0  0  0
   17.8340  -19.6542   41.8035 C   0  0  0  0  0  0  0  0  0  0  0  0
   17.0942  -20.6213   42.7593 C   0  0  0  0  0  0  0  0  0  0  0  0
   20.0234  -19.3659   40.6706 O   0  0  0  0  0  0  0  0  0  0  0  0
   17.8539  -20.8405   43.9920 O   0  0  0  0  0  0  0  0  0  0  0  0
   20.1882  -18.5204   41.1165 H   0  0  0  0  0  0  0  0  0  0  0  0
   16.6837  -18.3286   40.0915 C   0  0  0  0  0  0  0  0  0  0  0  0
   15.9701  -18.3502   38.7232 C   0  0  0  0  0  0  0  0  0  0  0  0
   17.1105  -19.5040   40.5176 N   0  0  0  0  0  0  0  0  0  0  0  0
   16.7978  -17.2786   40.7399 O   0  0  0  0  0  0  0  0  0  0  0  0
   16.9437  -20.3024   39.9663 H   0  0  0  0  0  0  0  0  0  0  0  0
   19.8919  -21.2444   45.3260 C   0  0  0  0  0  0  0  0  0  0  0  0
   21.1355  -21.2085   45.4459 O   0  0  0  0  0  0  0  0  0  0  0  0
   19.1189  -21.5960   46.2250 O   0  0  0  0  0  0  0  0  0  0  0  0
   18.1944  -21.6013   46.0726 H   0  0  0  0  0  0  0  0  0  0  0  0
   15.6758  -20.1880   43.1690 C   0  0  0  0  0  0  0  0  0  0  0  0
   15.5920  -18.7774   43.1467 O   0  0  0  0  0  0  0  0  0  0  0  0
   16.2050  -18.4067   43.8006 H   0  0  0  0  0  0  0  0  0  0  0  0
   15.2440  -20.6830   44.5527 C   0  0  0  0  0  0  0  0  0  0  0  0
   15.8717  -19.8867   45.5619 O   0  0  0  0  0  0  0  0  0  0  0  0
   16.8353  -19.9630   45.4812 H   0  0  0  0  0  0  0  0  0  0  0  0
   15.6332  -22.1580   44.7238 C   0  0  0  0  0  0  0  0  0  0  0  0
   16.2329  -22.3688   46.0021 O   0  0  0  0  0  0  0  0  0  0  0  0
   17.0331  -21.8257   46.0774 H   0  0  0  0  0  0  0  0  0  0  0  0
 14  1  1  0  0  0
 14 15  2  0  0  0
 14 16  1  0  0  0
  1  2  2  0  0  0
  1  7  1  0  0  0
  2  3  1  0  0  0
  3  4  1  0  0  0
  3  6  1  0  0  0
  4  5  1  0  0  0
  4 11  1  0  0  0
  5 18  1  0  0  0
  5  7  1  0  0  0
 18 21  1  0  0  0
 18 19  1  0  0  0
 21 24  1  0  0  0
 21 22  1  0  0  0
 24 25  1  0  0  0
  9 10  1  0  0  0
  9 11  1  0  0  0
  9 12  2  0  0  0
 11 13  1  0  0  0
 16 17  1  0  0  0
  6  8  1  0  0  0
 19 20  1  0  0  0
 22 23  1  0  0  0
 25 26  1  0  0  0
M  END
> <minimizedAffinity>
-6.22909

$$$$
2YA6_DAN_A_1777


 26 26  0  0  0  0  0  0  0  0999 V2000
   19.4516  -20.4359   43.5460 C   0  0  0  0  0  0  0  0  0  0  0  0
   20.3966  -19.6255   42.9105 C   0  0  0  0  0  0  0  0  0  0  0  0
   20.0595  -18.9900   41.5332 C   0  0  0  0  0  0  0  0  0  0  0  0
   18.5476  -18.8266   41.3679 C   0  0  0  0  0  0  0  0  0  0  0  0
   17.8588  -20.1771   41.6802 C   0  0  0  0  0  0  0  0  0  0  0  0
   20.7980  -17.7815   41.3048 O   0  0  0  0  0  0  0  0  0  0  0  0
   18.2114  -20.6613   43.0166 O   0  0  0  0  0  0  0  0  0  0  0  0
   20.5548  -17.1227   41.9740 H   0  0  0  0  0  0  0  0  0  0  0  0
   17.3611  -17.4548   39.7182 C   0  0  0  0  0  0  0  0  0  0  0  0
   17.2105  -17.0960   38.2247 C   0  0  0  0  0  0  0  0  0  0  0  0
   18.2649  -18.3817   39.9817 N   0  0  0  0  0  0  0  0  0  0  0  0
   16.6454  -16.9263   40.5810 O   0  0  0  0  0  0  0  0  0  0  0  0
   18.7645  -18.7883   39.2372 H   0  0  0  0  0  0  0  0  0  0  0  0
   19.7368  -21.1200   44.9031 C   0  0  0  0  0  0  0  0  0  0  0  0
   18.8232  -21.2709   45.7425 O   0  0  0  0  0  0  0  0  0  0  0  0
   20.9096  -21.4679   45.0852 O   0  0  0  0  0  0  0  0  0  0  0  0
   21.5495  -21.3270   44.4154 H   0  0  0  0  0  0  0  0  0  0  0  0
   16.3228  -20.1716   41.5880 C   0  0  0  0  0  0  0  0  0  0  0  0
   15.9342  -19.8822   40.2605 O   0  0  0  0  0  0  0  0  0  0  0  0
   16.2389  -18.9931   40.0209 H   0  0  0  0  0  0  0  0  0  0  0  0
   15.6419  -19.1716   42.5274 C   0  0  0  0  0  0  0  0  0  0  0  0
   15.7265  -19.6475   43.8739 O   0  0  0  0  0  0  0  0  0  0  0  0
   15.2797  -20.5058   43.9421 H   0  0  0  0  0  0  0  0  0  0  0  0
   14.1728  -18.9911   42.1208 C   0  0  0  0  0  0  0  0  0  0  0  0
   13.9864  -17.7303   41.4775 O   0  0  0  0  0  0  0  0  0  0  0  0
   14.2296  -17.0168   42.0879 H   0  0  0  0  0  0  0  0  0  0  0  0
 14  1  1  0  0  0
 14 15  2  0  0  0
 14 16  1  0  0  0
  1  2  2  0  0  0
  1  7  1  0  0  0
  2  3  1  0  0  0
  3  4  1  0  0  0
  3  6  1  0  0  0
  4  5  1  0  0  0
  4 11  1  0  0  0
  5 18  1  0  0  0
  5  7  1  0  0  0
 18 21  1  0  0  0
 18 19  1  0  0  0
 21 24  1  0  0  0
 21 22  1  0  0  0
 24 25  1  0  0  0
  9 10  1  0  0  0
  9 11  1  0  0  0
  9 12  2  0  0  0
 11 13  1  0  0  0
 16 17  1  0  0  0
  6  8  1  0  0  0
 19 20  1  0  0  0
 22 23  1  0  0  0
 25 26  1  0  0  0
M  END
> <minimizedAffinity>
-5.93363

$$$$
