1DQN_IMU_A_300


 33 35  0  0  0  0  0  0  0  0999 V2000
   21.0194    8.3281   48.1935 C   0  0  0  0  0  0  0  0  0  0  0  0
   21.5967    8.4376   49.5438 N   0  0  0  0  0  0  0  0  0  0  0  0
   19.5980    8.7787   48.3699 C   0  0  0  0  0  0  0  0  0  0  0  0
   18.8203    8.3786   47.2428 O   0  0  0  0  0  0  0  0  0  0  0  0
   19.2759    8.1325   49.6516 C   0  0  0  0  0  0  0  0  0  0  0  0
   18.8676    6.7690   49.4866 O   0  0  0  0  0  0  0  0  0  0  0  0
   20.5526    8.3442   50.5618 C   0  0  0  0  0  0  0  0  0  0  0  0
   22.0716    9.3359   49.6329 H   0  0  0  0  0  0  0  0  0  0  0  0
   18.9145    7.4226   47.1079 H   0  0  0  0  0  0  0  0  0  0  0  0
   19.5789    6.2681   49.0577 H   0  0  0  0  0  0  0  0  0  0  0  0
   17.9422    9.5037   54.1248 C   0  0  0  0  0  0  0  0  0  0  0  0
   20.2766    9.6740   51.2804 C   0  0  0  0  0  0  0  0  0  0  0  0
   20.7952   10.9474   50.9711 C   0  0  0  0  0  0  0  0  0  0  0  0
   20.3662   11.9178   51.7456 N   0  0  0  0  0  0  0  0  0  0  0  0
   19.5105   11.2904   52.6327 C   0  0  0  0  0  0  0  0  0  0  0  0
   18.7237   11.8414   53.7165 C   0  0  0  0  0  0  0  0  0  0  0  0
   18.6595   13.0028   54.0603 O   0  0  0  0  0  0  0  0  0  0  0  0
   17.9697   10.8777   54.4111 N   0  0  0  0  0  0  0  0  0  0  0  0
   17.1724    8.7361   54.8899 N   0  0  0  0  0  0  0  0  0  0  0  0
   18.6790    8.9635   53.0879 N   0  0  0  0  0  0  0  0  0  0  0  0
   19.4444    9.9052   52.3769 C   0  0  0  0  0  0  0  0  0  0  0  0
   20.6002   12.8731   51.7041 H   0  0  0  0  0  0  0  0  0  0  0  0
   17.4150   11.1935   55.1606 H   0  0  0  0  0  0  0  0  0  0  0  0
   16.6536    9.1362   55.6248 H   0  0  0  0  0  0  0  0  0  0  0  0
   17.1210    7.7674   54.7217 H   0  0  0  0  0  0  0  0  0  0  0  0
   21.7463    9.0651   47.1272 C   0  0  0  0  0  0  0  0  0  0  0  0
   22.9531    9.6276   47.6535 O   0  0  0  0  0  0  0  0  0  0  0  0
   23.6303   10.9605   47.1800 P   0  0  0  0  0  0  0  0  0  0  0  0
   24.0116   11.6920   48.4089 O   0  0  0  0  0  0  0  0  0  0  0  0
   22.7581   11.7449   46.2844 O   0  0  0  0  0  0  0  0  0  0  0  0
   24.8805   10.5144   46.4969 O   0  0  0  0  0  0  0  0  0  0  0  0
   24.4374   12.5295   48.1677 H   0  0  0  0  0  0  0  0  0  0  0  0
   25.3644   11.2889   46.1702 H   0  0  0  0  0  0  0  0  0  0  0  0
 28 29  1  0  0  0
 28 30  2  0  0  0
 28 31  1  0  0  0
 28 27  1  0  0  0
 11 18  1  0  0  0
 11 19  1  0  0  0
 11 20  2  0  0  0
 27 26  1  0  0  0
 26  1  1  0  0  0
  1  2  1  0  0  0
  1  3  1  0  0  0
  2  7  1  0  0  0
  3  4  1  0  0  0
  3  5  1  0  0  0
  5  6  1  0  0  0
  5  7  1  0  0  0
  7 12  1  0  0  0
 12 13  2  0  0  0
 12 21  1  0  0  0
 13 14  1  0  0  0
 14 15  1  0  0  0
 15 16  1  0  0  0
 15 21  2  0  0  0
 16 17  2  0  0  0
 16 18  1  0  0  0
 20 21  1  0  0  0
 29 32  1  0  0  0
 31 33  1  0  0  0
  2  8  1  0  0  0
  4  9  1  0  0  0
  6 10  1  0  0  0
 14 22  1  0  0  0
 18 23  1  0  0  0
 19 24  1  0  0  0
 19 25  1  0  0  0
M  END
> <minimizedAffinity>
-10.10850

$$$$
1DQN_IMU_A_300


 33 35  0  0  0  0  0  0  0  0999 V2000
   19.3040    8.5851   51.6284 C   0  0  0  0  0  0  0  0  0  0  0  0
   19.2522    9.6365   50.5986 N   0  0  0  0  0  0  0  0  0  0  0  0
   19.8667    7.3964   50.9039 C   0  0  0  0  0  0  0  0  0  0  0  0
   19.6307    6.2114   51.6623 O   0  0  0  0  0  0  0  0  0  0  0  0
   19.1522    7.5085   49.6229 C   0  0  0  0  0  0  0  0  0  0  0  0
   17.8492    6.9145   49.6724 O   0  0  0  0  0  0  0  0  0  0  0  0
   19.1732    9.0490   49.2630 C   0  0  0  0  0  0  0  0  0  0  0  0
   20.0934   10.2098   50.6629 H   0  0  0  0  0  0  0  0  0  0  0  0
   18.6840    6.1376   51.8604 H   0  0  0  0  0  0  0  0  0  0  0  0
   17.3214    7.3496   50.3602 H   0  0  0  0  0  0  0  0  0  0  0  0
   23.1070   11.2439   50.0114 C   0  0  0  0  0  0  0  0  0  0  0  0
   20.4608    9.2182   48.4420 C   0  0  0  0  0  0  0  0  0  0  0  0
   20.7414    8.7068   47.1590 C   0  0  0  0  0  0  0  0  0  0  0  0
   21.9231    9.0303   46.6854 N   0  0  0  0  0  0  0  0  0  0  0  0
   22.4891    9.8018   47.6840 C   0  0  0  0  0  0  0  0  0  0  0  0
   23.7790   10.4577   47.7370 C   0  0  0  0  0  0  0  0  0  0  0  0
   24.6373   10.4596   46.8800 O   0  0  0  0  0  0  0  0  0  0  0  0
   24.0066   11.1558   48.9372 N   0  0  0  0  0  0  0  0  0  0  0  0
   23.4910   11.9459   51.0730 N   0  0  0  0  0  0  0  0  0  0  0  0
   21.8683   10.6324   49.9727 N   0  0  0  0  0  0  0  0  0  0  0  0
   21.6148    9.9251   48.7836 C   0  0  0  0  0  0  0  0  0  0  0  0
   22.3160    8.7807   45.8179 H   0  0  0  0  0  0  0  0  0  0  0  0
   24.8688   11.6215   49.0316 H   0  0  0  0  0  0  0  0  0  0  0  0
   24.3767   12.3755   51.0851 H   0  0  0  0  0  0  0  0  0  0  0  0
   22.8895   12.0362   51.8472 H   0  0  0  0  0  0  0  0  0  0  0  0
   20.0546    8.9368   52.8619 C   0  0  0  0  0  0  0  0  0  0  0  0
   19.6312    8.1064   53.9486 O   0  0  0  0  0  0  0  0  0  0  0  0
   18.1880    8.0559   54.5603 P   0  0  0  0  0  0  0  0  0  0  0  0
   17.4542    7.0141   53.8075 O   0  0  0  0  0  0  0  0  0  0  0  0
   17.5206    9.3718   54.5313 O   0  0  0  0  0  0  0  0  0  0  0  0
   18.3972    7.5630   55.9538 O   0  0  0  0  0  0  0  0  0  0  0  0
   16.5496    6.9439   54.1506 H   0  0  0  0  0  0  0  0  0  0  0  0
   17.5418    7.5024   56.4072 H   0  0  0  0  0  0  0  0  0  0  0  0
 28 29  1  0  0  0
 28 30  2  0  0  0
 28 31  1  0  0  0
 28 27  1  0  0  0
 11 18  1  0  0  0
 11 19  1  0  0  0
 11 20  2  0  0  0
 27 26  1  0  0  0
 26  1  1  0  0  0
  1  2  1  0  0  0
  1  3  1  0  0  0
  2  7  1  0  0  0
  3  4  1  0  0  0
  3  5  1  0  0  0
  5  6  1  0  0  0
  5  7  1  0  0  0
  7 12  1  0  0  0
 12 13  2  0  0  0
 12 21  1  0  0  0
 13 14  1  0  0  0
 14 15  1  0  0  0
 15 16  1  0  0  0
 15 21  2  0  0  0
 16 17  2  0  0  0
 16 18  1  0  0  0
 20 21  1  0  0  0
 29 32  1  0  0  0
 31 33  1  0  0  0
  2  8  1  0  0  0
  4  9  1  0  0  0
  6 10  1  0  0  0
 14 22  1  0  0  0
 18 23  1  0  0  0
 19 24  1  0  0  0
 19 25  1  0  0  0
M  END
> <minimizedAffinity>
-8.82030

$$$$
1DQN_IMU_A_300


 33 35  0  0  0  0  0  0  0  0999 V2000
   20.8534    9.5604   48.5343 C   0  0  0  0  0  0  0  0  0  0  0  0
   19.4444    9.1360   48.5930 N   0  0  0  0  0  0  0  0  0  0  0  0
   21.4534    8.9975   49.7904 C   0  0  0  0  0  0  0  0  0  0  0  0
   22.7033    9.6319   50.0557 O   0  0  0  0  0  0  0  0  0  0  0  0
   20.3658    9.2670   50.7435 C   0  0  0  0  0  0  0  0  0  0  0  0
   20.4174   10.6002   51.2661 O   0  0  0  0  0  0  0  0  0  0  0  0
   19.0325    8.8997   49.9750 C   0  0  0  0  0  0  0  0  0  0  0  0
   19.3317    8.2748   48.0582 H   0  0  0  0  0  0  0  0  0  0  0  0
   22.5796   10.5938   50.0774 H   0  0  0  0  0  0  0  0  0  0  0  0
   20.3541   11.2362   50.5364 H   0  0  0  0  0  0  0  0  0  0  0  0
   19.7582    5.0322   47.6580 C   0  0  0  0  0  0  0  0  0  0  0  0
   18.8145    7.4148   50.3040 C   0  0  0  0  0  0  0  0  0  0  0  0
   18.2832    6.8603   51.4857 C   0  0  0  0  0  0  0  0  0  0  0  0
   18.1888    5.5501   51.4832 N   0  0  0  0  0  0  0  0  0  0  0  0
   18.6760    5.1774   50.2436 C   0  0  0  0  0  0  0  0  0  0  0  0
   18.8112    3.8624   49.6523 C   0  0  0  0  0  0  0  0  0  0  0  0
   18.5052    2.7991   50.1492 O   0  0  0  0  0  0  0  0  0  0  0  0
   19.3620    3.8815   48.3577 N   0  0  0  0  0  0  0  0  0  0  0  0
   20.2640    4.8622   46.4403 N   0  0  0  0  0  0  0  0  0  0  0  0
   19.6265    6.2949   48.2038 N   0  0  0  0  0  0  0  0  0  0  0  0
   19.0795    6.3053   49.4996 C   0  0  0  0  0  0  0  0  0  0  0  0
   17.8490    4.9668   52.1998 H   0  0  0  0  0  0  0  0  0  0  0  0
   19.4795    3.0153   47.9047 H   0  0  0  0  0  0  0  0  0  0  0  0
   20.3513    3.9560   46.0656 H   0  0  0  0  0  0  0  0  0  0  0  0
   20.5514    5.6425   45.9133 H   0  0  0  0  0  0  0  0  0  0  0  0
   21.5861    9.1708   47.3016 C   0  0  0  0  0  0  0  0  0  0  0  0
   22.9504    9.5967   47.3852 O   0  0  0  0  0  0  0  0  0  0  0  0
   23.5042   11.0006   46.9584 P   0  0  0  0  0  0  0  0  0  0  0  0
   23.7619   11.7439   48.2121 O   0  0  0  0  0  0  0  0  0  0  0  0
   22.5900   11.7084   46.0412 O   0  0  0  0  0  0  0  0  0  0  0  0
   24.8183   10.6975   46.3182 O   0  0  0  0  0  0  0  0  0  0  0  0
   24.1081   12.6249   48.0003 H   0  0  0  0  0  0  0  0  0  0  0  0
   25.2319   11.5235   46.0223 H   0  0  0  0  0  0  0  0  0  0  0  0
 28 29  1  0  0  0
 28 30  2  0  0  0
 28 31  1  0  0  0
 28 27  1  0  0  0
 11 18  1  0  0  0
 11 19  1  0  0  0
 11 20  2  0  0  0
 27 26  1  0  0  0
 26  1  1  0  0  0
  1  2  1  0  0  0
  1  3  1  0  0  0
  2  7  1  0  0  0
  3  4  1  0  0  0
  3  5  1  0  0  0
  5  6  1  0  0  0
  5  7  1  0  0  0
  7 12  1  0  0  0
 12 13  2  0  0  0
 12 21  1  0  0  0
 13 14  1  0  0  0
 14 15  1  0  0  0
 15 16  1  0  0  0
 15 21  2  0  0  0
 16 17  2  0  0  0
 16 18  1  0  0  0
 20 21  1  0  0  0
 29 32  1  0  0  0
 31 33  1  0  0  0
  2  8  1  0  0  0
  4  9  1  0  0  0
  6 10  1  0  0  0
 14 22  1  0  0  0
 18 23  1  0  0  0
 19 24  1  0  0  0
 19 25  1  0  0  0
M  END
> <minimizedAffinity>
-8.71836

$$$$
1DQN_IMU_A_300


 33 35  0  0  0  0  0  0  0  0999 V2000
   19.5628    6.5646   50.9879 C   0  0  0  0  0  0  0  0  0  0  0  0
   20.5363    6.3072   49.9134 N   0  0  0  0  0  0  0  0  0  0  0  0
   19.7317    8.0264   51.2867 C   0  0  0  0  0  0  0  0  0  0  0  0
   19.1306    8.3359   52.5429 O   0  0  0  0  0  0  0  0  0  0  0  0
   21.1965    8.1405   51.2147 C   0  0  0  0  0  0  0  0  0  0  0  0
   21.8326    7.7725   52.4448 O   0  0  0  0  0  0  0  0  0  0  0  0
   21.6240    7.2821   49.9563 C   0  0  0  0  0  0  0  0  0  0  0  0
   20.0643    6.3719   49.0115 H   0  0  0  0  0  0  0  0  0  0  0  0
   19.4927    7.7516   53.2273 H   0  0  0  0  0  0  0  0  0  0  0  0
   21.6041    6.8559   52.6653 H   0  0  0  0  0  0  0  0  0  0  0  0
   24.7816    9.9680   48.0411 C   0  0  0  0  0  0  0  0  0  0  0  0
   21.5913    8.2881   48.7955 C   0  0  0  0  0  0  0  0  0  0  0  0
   20.4871    8.6547   48.0002 C   0  0  0  0  0  0  0  0  0  0  0  0
   20.7454    9.5634   47.0875 N   0  0  0  0  0  0  0  0  0  0  0  0
   22.0897    9.8412   47.2565 C   0  0  0  0  0  0  0  0  0  0  0  0
   22.9449   10.7724   46.5505 C   0  0  0  0  0  0  0  0  0  0  0  0
   22.6302   11.5178   45.6469 O   0  0  0  0  0  0  0  0  0  0  0  0
   24.2760   10.7707   47.0063 N   0  0  0  0  0  0  0  0  0  0  0  0
   26.0711   10.0957   48.3382 N   0  0  0  0  0  0  0  0  0  0  0  0
   23.9767    9.0818   48.7315 N   0  0  0  0  0  0  0  0  0  0  0  0
   22.6398    9.0616   48.2949 C   0  0  0  0  0  0  0  0  0  0  0  0
   20.1242    9.9568   46.4329 H   0  0  0  0  0  0  0  0  0  0  0  0
   24.9056   11.3836   46.5623 H   0  0  0  0  0  0  0  0  0  0  0  0
   26.6311   10.7315   47.8369 H   0  0  0  0  0  0  0  0  0  0  0  0
   26.4660    9.5544   49.0595 H   0  0  0  0  0  0  0  0  0  0  0  0
   18.1599    6.1806   50.6831 C   0  0  0  0  0  0  0  0  0  0  0  0
   18.0465    5.7791   49.3135 O   0  0  0  0  0  0  0  0  0  0  0  0
   17.7982    4.3182   48.8002 P   0  0  0  0  0  0  0  0  0  0  0  0
   16.6969    4.4058   47.8152 O   0  0  0  0  0  0  0  0  0  0  0  0
   17.5183    3.3770   49.9019 O   0  0  0  0  0  0  0  0  0  0  0  0
   19.0512    3.9687   48.0678 O   0  0  0  0  0  0  0  0  0  0  0  0
   16.5044    3.5215   47.4660 H   0  0  0  0  0  0  0  0  0  0  0  0
   18.9786    3.0684   47.7141 H   0  0  0  0  0  0  0  0  0  0  0  0
 28 29  1  0  0  0
 28 30  2  0  0  0
 28 31  1  0  0  0
 28 27  1  0  0  0
 11 18  1  0  0  0
 11 19  1  0  0  0
 11 20  2  0  0  0
 27 26  1  0  0  0
 26  1  1  0  0  0
  1  2  1  0  0  0
  1  3  1  0  0  0
  2  7  1  0  0  0
  3  4  1  0  0  0
  3  5  1  0  0  0
  5  6  1  0  0  0
  5  7  1  0  0  0
  7 12  1  0  0  0
 12 13  2  0  0  0
 12 21  1  0  0  0
 13 14  1  0  0  0
 14 15  1  0  0  0
 15 16  1  0  0  0
 15 21  2  0  0  0
 16 17  2  0  0  0
 16 18  1  0  0  0
 20 21  1  0  0  0
 29 32  1  0  0  0
 31 33  1  0  0  0
  2  8  1  0  0  0
  4  9  1  0  0  0
  6 10  1  0  0  0
 14 22  1  0  0  0
 18 23  1  0  0  0
 19 24  1  0  0  0
 19 25  1  0  0  0
M  END
> <minimizedAffinity>
-8.55341

$$$$
1DQN_IMU_A_300


 33 35  0  0  0  0  0  0  0  0999 V2000
   19.1377    7.7019   50.6773 C   0  0  0  0  0  0  0  0  0  0  0  0
   19.6511    9.0405   51.0137 N   0  0  0  0  0  0  0  0  0  0  0  0
   19.8183    7.3686   49.3809 C   0  0  0  0  0  0  0  0  0  0  0  0
   19.1478    6.2795   48.7488 O   0  0  0  0  0  0  0  0  0  0  0  0
   19.7390    8.6709   48.7015 C   0  0  0  0  0  0  0  0  0  0  0  0
   18.4825    8.8648   48.0406 O   0  0  0  0  0  0  0  0  0  0  0  0
   20.0860    9.7453   49.8098 C   0  0  0  0  0  0  0  0  0  0  0  0
   20.4426    8.9452   51.6501 H   0  0  0  0  0  0  0  0  0  0  0  0
   18.2059    6.4909   48.6539 H   0  0  0  0  0  0  0  0  0  0  0  0
   17.7639    8.8103   48.6899 H   0  0  0  0  0  0  0  0  0  0  0  0
   22.9104   10.8115   46.3836 C   0  0  0  0  0  0  0  0  0  0  0  0
   21.6113    9.9006   49.7079 C   0  0  0  0  0  0  0  0  0  0  0  0
   22.5684    9.7202   50.7266 C   0  0  0  0  0  0  0  0  0  0  0  0
   23.8135    9.8978   50.3476 N   0  0  0  0  0  0  0  0  0  0  0  0
   23.7173   10.2153   49.0050 C   0  0  0  0  0  0  0  0  0  0  0  0
   24.7565   10.5066   48.0394 C   0  0  0  0  0  0  0  0  0  0  0  0
   25.9540   10.5217   48.2317 O   0  0  0  0  0  0  0  0  0  0  0  0
   24.2647   10.7949   46.7530 N   0  0  0  0  0  0  0  0  0  0  0  0
   22.6262   11.1094   45.1196 N   0  0  0  0  0  0  0  0  0  0  0  0
   21.9073   10.5259   47.2902 N   0  0  0  0  0  0  0  0  0  0  0  0
   22.3710   10.2355   48.5859 C   0  0  0  0  0  0  0  0  0  0  0  0
   24.6288    9.8221   50.8943 H   0  0  0  0  0  0  0  0  0  0  0  0
   24.9256   11.0024   46.0535 H   0  0  0  0  0  0  0  0  0  0  0  0
   23.3524   11.3105   44.4859 H   0  0  0  0  0  0  0  0  0  0  0  0
   21.6895   11.1289   44.8171 H   0  0  0  0  0  0  0  0  0  0  0  0
   19.3220    6.6657   51.7265 C   0  0  0  0  0  0  0  0  0  0  0  0
   18.7950    5.4124   51.2778 O   0  0  0  0  0  0  0  0  0  0  0  0
   17.3083    4.9344   51.4222 P   0  0  0  0  0  0  0  0  0  0  0  0
   16.7655    5.6208   52.6158 O   0  0  0  0  0  0  0  0  0  0  0  0
   17.1969    3.4647   51.4968 O   0  0  0  0  0  0  0  0  0  0  0  0
   16.6259    5.4887   50.2157 O   0  0  0  0  0  0  0  0  0  0  0  0
   15.8418    5.3564   52.7487 H   0  0  0  0  0  0  0  0  0  0  0  0
   15.6897    5.2351   50.2286 H   0  0  0  0  0  0  0  0  0  0  0  0
 28 29  1  0  0  0
 28 30  2  0  0  0
 28 31  1  0  0  0
 28 27  1  0  0  0
 11 18  1  0  0  0
 11 19  1  0  0  0
 11 20  2  0  0  0
 27 26  1  0  0  0
 26  1  1  0  0  0
  1  2  1  0  0  0
  1  3  1  0  0  0
  2  7  1  0  0  0
  3  4  1  0  0  0
  3  5  1  0  0  0
  5  6  1  0  0  0
  5  7  1  0  0  0
  7 12  1  0  0  0
 12 13  2  0  0  0
 12 21  1  0  0  0
 13 14  1  0  0  0
 14 15  1  0  0  0
 15 16  1  0  0  0
 15 21  2  0  0  0
 16 17  2  0  0  0
 16 18  1  0  0  0
 20 21  1  0  0  0
 29 32  1  0  0  0
 31 33  1  0  0  0
  2  8  1  0  0  0
  4  9  1  0  0  0
  6 10  1  0  0  0
 14 22  1  0  0  0
 18 23  1  0  0  0
 19 24  1  0  0  0
 19 25  1  0  0  0
M  END
> <minimizedAffinity>
-8.50055

$$$$
1DQN_IMU_A_300


 33 35  0  0  0  0  0  0  0  0999 V2000
   20.2210    6.6609   50.8682 C   0  0  0  0  0  0  0  0  0  0  0  0
   20.4080    7.0483   52.2766 N   0  0  0  0  0  0  0  0  0  0  0  0
   18.8397    7.1490   50.5389 C   0  0  0  0  0  0  0  0  0  0  0  0
   18.3794    6.5262   49.3409 O   0  0  0  0  0  0  0  0  0  0  0  0
   18.1330    6.7899   51.7781 C   0  0  0  0  0  0  0  0  0  0  0  0
   17.6960    5.4253   51.7799 O   0  0  0  0  0  0  0  0  0  0  0  0
   19.1191    7.1792   52.9526 C   0  0  0  0  0  0  0  0  0  0  0  0
   20.8987    7.9417   52.3157 H   0  0  0  0  0  0  0  0  0  0  0  0
   18.4431    5.5626   49.4324 H   0  0  0  0  0  0  0  0  0  0  0  0
   18.4631    4.8400   51.6804 H   0  0  0  0  0  0  0  0  0  0  0  0
   21.0521   11.2083   52.0129 C   0  0  0  0  0  0  0  0  0  0  0  0
   18.7446    8.6326   53.2818 C   0  0  0  0  0  0  0  0  0  0  0  0
   17.6376    9.0934   54.0223 C   0  0  0  0  0  0  0  0  0  0  0  0
   17.5790   10.3975   54.1680 N   0  0  0  0  0  0  0  0  0  0  0  0
   18.6960   10.8640   53.4990 C   0  0  0  0  0  0  0  0  0  0  0  0
   19.1786   12.2178   53.3218 C   0  0  0  0  0  0  0  0  0  0  0  0
   18.6782   13.2371   53.7481 O   0  0  0  0  0  0  0  0  0  0  0  0
   20.3620   12.2989   52.5651 N   0  0  0  0  0  0  0  0  0  0  0  0
   22.1563   11.4717   51.3209 N   0  0  0  0  0  0  0  0  0  0  0  0
   20.6108    9.9096   52.1813 N   0  0  0  0  0  0  0  0  0  0  0  0
   19.4272    9.7991   52.9332 C   0  0  0  0  0  0  0  0  0  0  0  0
   16.8962   10.9228   54.6444 H   0  0  0  0  0  0  0  0  0  0  0  0
   20.7376   13.1957   52.4100 H   0  0  0  0  0  0  0  0  0  0  0  0
   22.4574   12.4024   51.2100 H   0  0  0  0  0  0  0  0  0  0  0  0
   22.6728   10.7360   50.9194 H   0  0  0  0  0  0  0  0  0  0  0  0
   21.2622    7.1512   49.9281 C   0  0  0  0  0  0  0  0  0  0  0  0
   20.6918    8.0878   49.0075 O   0  0  0  0  0  0  0  0  0  0  0  0
   20.8841    8.0822   47.4511 P   0  0  0  0  0  0  0  0  0  0  0  0
   21.4691    6.7662   47.1097 O   0  0  0  0  0  0  0  0  0  0  0  0
   21.7002    9.2193   46.9832 O   0  0  0  0  0  0  0  0  0  0  0  0
   19.4938    8.1283   46.9095 O   0  0  0  0  0  0  0  0  0  0  0  0
   21.6081    6.7129   46.1512 H   0  0  0  0  0  0  0  0  0  0  0  0
   19.5243    8.1278   45.9399 H   0  0  0  0  0  0  0  0  0  0  0  0
 28 29  1  0  0  0
 28 30  2  0  0  0
 28 31  1  0  0  0
 28 27  1  0  0  0
 11 18  1  0  0  0
 11 19  1  0  0  0
 11 20  2  0  0  0
 27 26  1  0  0  0
 26  1  1  0  0  0
  1  2  1  0  0  0
  1  3  1  0  0  0
  2  7  1  0  0  0
  3  4  1  0  0  0
  3  5  1  0  0  0
  5  6  1  0  0  0
  5  7  1  0  0  0
  7 12  1  0  0  0
 12 13  2  0  0  0
 12 21  1  0  0  0
 13 14  1  0  0  0
 14 15  1  0  0  0
 15 16  1  0  0  0
 15 21  2  0  0  0
 16 17  2  0  0  0
 16 18  1  0  0  0
 20 21  1  0  0  0
 29 32  1  0  0  0
 31 33  1  0  0  0
  2  8  1  0  0  0
  4  9  1  0  0  0
  6 10  1  0  0  0
 14 22  1  0  0  0
 18 23  1  0  0  0
 19 24  1  0  0  0
 19 25  1  0  0  0
M  END
> <minimizedAffinity>
-8.44284

$$$$
1DQN_IMU_A_300


 33 35  0  0  0  0  0  0  0  0999 V2000
   19.3644    6.3746   50.7606 C   0  0  0  0  0  0  0  0  0  0  0  0
   20.5904    6.1908   49.9658 N   0  0  0  0  0  0  0  0  0  0  0  0
   19.7395    7.4242   51.7668 C   0  0  0  0  0  0  0  0  0  0  0  0
   18.7866    7.4389   52.8284 O   0  0  0  0  0  0  0  0  0  0  0  0
   21.0992    6.9817   52.1120 C   0  0  0  0  0  0  0  0  0  0  0  0
   21.1007    5.9589   53.1156 O   0  0  0  0  0  0  0  0  0  0  0  0
   21.7701    6.5736   50.7385 C   0  0  0  0  0  0  0  0  0  0  0  0
   20.5364    6.7704   49.1282 H   0  0  0  0  0  0  0  0  0  0  0  0
   18.7063    6.5478   53.2031 H   0  0  0  0  0  0  0  0  0  0  0  0
   20.5975    5.1931   52.7976 H   0  0  0  0  0  0  0  0  0  0  0  0
   21.4005    9.0287   46.9059 C   0  0  0  0  0  0  0  0  0  0  0  0
   22.4280    7.8730   50.2492 C   0  0  0  0  0  0  0  0  0  0  0  0
   23.3857    8.6619   50.9176 C   0  0  0  0  0  0  0  0  0  0  0  0
   23.7938    9.7152   50.2472 N   0  0  0  0  0  0  0  0  0  0  0  0
   23.0884    9.6553   49.0592 C   0  0  0  0  0  0  0  0  0  0  0  0
   23.1209   10.5365   47.9105 C   0  0  0  0  0  0  0  0  0  0  0  0
   23.8037   11.5284   47.7654 O   0  0  0  0  0  0  0  0  0  0  0  0
   22.2450   10.1498   46.8795 N   0  0  0  0  0  0  0  0  0  0  0  0
   20.6342    8.8166   45.8405 N   0  0  0  0  0  0  0  0  0  0  0  0
   21.3650    8.1722   47.9898 N   0  0  0  0  0  0  0  0  0  0  0  0
   22.2304    8.5363   49.0371 C   0  0  0  0  0  0  0  0  0  0  0  0
   24.4515   10.3924   50.5267 H   0  0  0  0  0  0  0  0  0  0  0  0
   22.2224   10.7126   46.0721 H   0  0  0  0  0  0  0  0  0  0  0  0
   20.6712    9.4361   45.0763 H   0  0  0  0  0  0  0  0  0  0  0  0
   20.0296    8.0400   45.8157 H   0  0  0  0  0  0  0  0  0  0  0  0
   18.1437    6.7098   49.9822 C   0  0  0  0  0  0  0  0  0  0  0  0
   17.4155    5.5168   49.6719 O   0  0  0  0  0  0  0  0  0  0  0  0
   17.8153    4.4477   48.5964 P   0  0  0  0  0  0  0  0  0  0  0  0
   18.0488    3.1852   49.3327 O   0  0  0  0  0  0  0  0  0  0  0  0
   18.9754    4.8720   47.7888 O   0  0  0  0  0  0  0  0  0  0  0  0
   16.5845    4.2827   47.7679 O   0  0  0  0  0  0  0  0  0  0  0  0
   18.3006    2.4879   48.7072 H   0  0  0  0  0  0  0  0  0  0  0  0
   16.7497    3.6295   47.0701 H   0  0  0  0  0  0  0  0  0  0  0  0
 28 29  1  0  0  0
 28 30  2  0  0  0
 28 31  1  0  0  0
 28 27  1  0  0  0
 11 18  1  0  0  0
 11 19  1  0  0  0
 11 20  2  0  0  0
 27 26  1  0  0  0
 26  1  1  0  0  0
  1  2  1  0  0  0
  1  3  1  0  0  0
  2  7  1  0  0  0
  3  4  1  0  0  0
  3  5  1  0  0  0
  5  6  1  0  0  0
  5  7  1  0  0  0
  7 12  1  0  0  0
 12 13  2  0  0  0
 12 21  1  0  0  0
 13 14  1  0  0  0
 14 15  1  0  0  0
 15 16  1  0  0  0
 15 21  2  0  0  0
 16 17  2  0  0  0
 16 18  1  0  0  0
 20 21  1  0  0  0
 29 32  1  0  0  0
 31 33  1  0  0  0
  2  8  1  0  0  0
  4  9  1  0  0  0
  6 10  1  0  0  0
 14 22  1  0  0  0
 18 23  1  0  0  0
 19 24  1  0  0  0
 19 25  1  0  0  0
M  END
> <minimizedAffinity>
-8.38046

$$$$
1DQN_IMU_A_300


 33 35  0  0  0  0  0  0  0  0999 V2000
   19.9476    4.8180   47.5285 C   0  0  0  0  0  0  0  0  0  0  0  0
   19.8044    6.1903   47.0138 N   0  0  0  0  0  0  0  0  0  0  0  0
   21.0942    4.9112   48.4935 C   0  0  0  0  0  0  0  0  0  0  0  0
   21.5860    3.6048   48.7879 O   0  0  0  0  0  0  0  0  0  0  0  0
   21.9965    5.7979   47.7427 C   0  0  0  0  0  0  0  0  0  0  0  0
   22.7979    5.0828   46.7942 O   0  0  0  0  0  0  0  0  0  0  0  0
   21.0664    6.9185   47.1243 C   0  0  0  0  0  0  0  0  0  0  0  0
   19.0887    6.6771   47.5534 H   0  0  0  0  0  0  0  0  0  0  0  0
   21.8059    3.1482   47.9609 H   0  0  0  0  0  0  0  0  0  0  0  0
   22.2207    4.6235   46.1643 H   0  0  0  0  0  0  0  0  0  0  0  0
   24.1822    9.9082   48.6098 C   0  0  0  0  0  0  0  0  0  0  0  0
   21.0482    8.0167   48.1988 C   0  0  0  0  0  0  0  0  0  0  0  0
   19.9851    8.3728   49.0527 C   0  0  0  0  0  0  0  0  0  0  0  0
   20.2597    9.3411   49.8968 N   0  0  0  0  0  0  0  0  0  0  0  0
   21.5730    9.6724   49.6171 C   0  0  0  0  0  0  0  0  0  0  0  0
   22.4350   10.6623   50.2288 C   0  0  0  0  0  0  0  0  0  0  0  0
   22.1593   11.4125   51.1412 O   0  0  0  0  0  0  0  0  0  0  0  0
   23.7224   10.7139   49.6634 N   0  0  0  0  0  0  0  0  0  0  0  0
   25.4322   10.0964   48.1982 N   0  0  0  0  0  0  0  0  0  0  0  0
   23.3758    8.9521   48.0221 N   0  0  0  0  0  0  0  0  0  0  0  0
   22.0812    8.8799   48.5672 C   0  0  0  0  0  0  0  0  0  0  0  0
   19.6663    9.7398   50.5737 H   0  0  0  0  0  0  0  0  0  0  0  0
   24.3536   11.3700   50.0381 H   0  0  0  0  0  0  0  0  0  0  0  0
   25.9939   10.7816   48.6273 H   0  0  0  0  0  0  0  0  0  0  0  0
   25.7961    9.5505   47.4642 H   0  0  0  0  0  0  0  0  0  0  0  0
   18.7198    4.2282   48.1228 C   0  0  0  0  0  0  0  0  0  0  0  0
   18.8241    4.2109   49.5506 O   0  0  0  0  0  0  0  0  0  0  0  0
   17.8904    4.9771   50.5510 P   0  0  0  0  0  0  0  0  0  0  0  0
   18.7816    5.7764   51.4214 O   0  0  0  0  0  0  0  0  0  0  0  0
   17.0081    4.0651   51.3045 O   0  0  0  0  0  0  0  0  0  0  0  0
   17.1187    5.9175   49.6857 O   0  0  0  0  0  0  0  0  0  0  0  0
   18.2481    6.2721   52.0621 H   0  0  0  0  0  0  0  0  0  0  0  0
   16.5098    6.4360   50.2346 H   0  0  0  0  0  0  0  0  0  0  0  0
 28 29  1  0  0  0
 28 30  2  0  0  0
 28 31  1  0  0  0
 28 27  1  0  0  0
 11 18  1  0  0  0
 11 19  1  0  0  0
 11 20  2  0  0  0
 27 26  1  0  0  0
 26  1  1  0  0  0
  1  2  1  0  0  0
  1  3  1  0  0  0
  2  7  1  0  0  0
  3  4  1  0  0  0
  3  5  1  0  0  0
  5  6  1  0  0  0
  5  7  1  0  0  0
  7 12  1  0  0  0
 12 13  2  0  0  0
 12 21  1  0  0  0
 13 14  1  0  0  0
 14 15  1  0  0  0
 15 16  1  0  0  0
 15 21  2  0  0  0
 16 17  2  0  0  0
 16 18  1  0  0  0
 20 21  1  0  0  0
 29 32  1  0  0  0
 31 33  1  0  0  0
  2  8  1  0  0  0
  4  9  1  0  0  0
  6 10  1  0  0  0
 14 22  1  0  0  0
 18 23  1  0  0  0
 19 24  1  0  0  0
 19 25  1  0  0  0
M  END
> <minimizedAffinity>
-8.18758

$$$$
1DQN_IMU_A_300


 33 35  0  0  0  0  0  0  0  0999 V2000
   20.8904    8.1659   47.7576 C   0  0  0  0  0  0  0  0  0  0  0  0
   21.9574    7.4391   48.4662 N   0  0  0  0  0  0  0  0  0  0  0  0
   19.9495    8.5834   48.8508 C   0  0  0  0  0  0  0  0  0  0  0  0
   18.6954    8.9669   48.2891 O   0  0  0  0  0  0  0  0  0  0  0  0
   19.9531    7.3668   49.6778 C   0  0  0  0  0  0  0  0  0  0  0  0
   19.0288    6.3813   49.2008 O   0  0  0  0  0  0  0  0  0  0  0  0
   21.4635    6.8988   49.7308 C   0  0  0  0  0  0  0  0  0  0  0  0
   22.7299    8.0782   48.6542 H   0  0  0  0  0  0  0  0  0  0  0  0
   18.3564    8.2476   47.7336 H   0  0  0  0  0  0  0  0  0  0  0  0
   19.2577    6.1372   48.2903 H   0  0  0  0  0  0  0  0  0  0  0  0
   25.1221    9.5418   50.4252 C   0  0  0  0  0  0  0  0  0  0  0  0
   22.0286    7.6165   50.9662 C   0  0  0  0  0  0  0  0  0  0  0  0
   21.5154    7.6117   52.2788 C   0  0  0  0  0  0  0  0  0  0  0  0
   22.2219    8.2991   53.1470 N   0  0  0  0  0  0  0  0  0  0  0  0
   23.2738    8.8039   52.4044 C   0  0  0  0  0  0  0  0  0  0  0  0
   24.3915    9.6292   52.8129 C   0  0  0  0  0  0  0  0  0  0  0  0
   24.6286   10.0445   53.9275 O   0  0  0  0  0  0  0  0  0  0  0  0
   25.2668    9.9524   51.7598 N   0  0  0  0  0  0  0  0  0  0  0  0
   26.0461    9.9454   49.5588 N   0  0  0  0  0  0  0  0  0  0  0  0
   24.0671    8.7459   50.0211 N   0  0  0  0  0  0  0  0  0  0  0  0
   23.1744    8.4087   51.0544 C   0  0  0  0  0  0  0  0  0  0  0  0
   22.0434    8.4259   54.1069 H   0  0  0  0  0  0  0  0  0  0  0  0
   26.0460   10.5135   51.9771 H   0  0  0  0  0  0  0  0  0  0  0  0
   26.7916   10.5122   49.8626 H   0  0  0  0  0  0  0  0  0  0  0  0
   25.9849    9.6775   48.6134 H   0  0  0  0  0  0  0  0  0  0  0  0
   21.3453    9.2946   46.9046 C   0  0  0  0  0  0  0  0  0  0  0  0
   22.7410    9.5368   47.1127 O   0  0  0  0  0  0  0  0  0  0  0  0
   23.4700   10.9158   46.9509 P   0  0  0  0  0  0  0  0  0  0  0  0
   23.5693   11.4949   48.3093 O   0  0  0  0  0  0  0  0  0  0  0  0
   22.7851   11.8026   45.9904 O   0  0  0  0  0  0  0  0  0  0  0  0
   24.8453   10.5529   46.4977 O   0  0  0  0  0  0  0  0  0  0  0  0
   24.0160   12.3546   48.2625 H   0  0  0  0  0  0  0  0  0  0  0  0
   25.3682   11.3603   46.3726 H   0  0  0  0  0  0  0  0  0  0  0  0
 28 29  1  0  0  0
 28 30  2  0  0  0
 28 31  1  0  0  0
 28 27  1  0  0  0
 11 18  1  0  0  0
 11 19  1  0  0  0
 11 20  2  0  0  0
 27 26  1  0  0  0
 26  1  1  0  0  0
  1  2  1  0  0  0
  1  3  1  0  0  0
  2  7  1  0  0  0
  3  4  1  0  0  0
  3  5  1  0  0  0
  5  6  1  0  0  0
  5  7  1  0  0  0
  7 12  1  0  0  0
 12 13  2  0  0  0
 12 21  1  0  0  0
 13 14  1  0  0  0
 14 15  1  0  0  0
 15 16  1  0  0  0
 15 21  2  0  0  0
 16 17  2  0  0  0
 16 18  1  0  0  0
 20 21  1  0  0  0
 29 32  1  0  0  0
 31 33  1  0  0  0
  2  8  1  0  0  0
  4  9  1  0  0  0
  6 10  1  0  0  0
 14 22  1  0  0  0
 18 23  1  0  0  0
 19 24  1  0  0  0
 19 25  1  0  0  0
M  END
> <minimizedAffinity>
-8.16197

$$$$
1DQN_IMU_A_300


 33 35  0  0  0  0  0  0  0  0999 V2000
   19.5724    4.5956   50.7793 C   0  0  0  0  0  0  0  0  0  0  0  0
   20.4654    5.7181   51.1129 N   0  0  0  0  0  0  0  0  0  0  0  0
   18.3399    5.2619   50.2393 C   0  0  0  0  0  0  0  0  0  0  0  0
   17.2565    4.3340   50.2223 O   0  0  0  0  0  0  0  0  0  0  0  0
   18.2218    6.3911   51.1746 C   0  0  0  0  0  0  0  0  0  0  0  0
   17.5461    6.0274   52.3848 O   0  0  0  0  0  0  0  0  0  0  0  0
   19.6954    6.9337   51.3671 C   0  0  0  0  0  0  0  0  0  0  0  0
   21.1023    5.8822   50.3333 H   0  0  0  0  0  0  0  0  0  0  0  0
   17.1412    3.9553   51.1079 H   0  0  0  0  0  0  0  0  0  0  0  0
   18.0317    5.3116   52.8237 H   0  0  0  0  0  0  0  0  0  0  0  0
   23.2122    8.3346   48.8131 C   0  0  0  0  0  0  0  0  0  0  0  0
   19.8443    7.9949   50.2659 C   0  0  0  0  0  0  0  0  0  0  0  0
   18.8538    8.8607   49.7604 C   0  0  0  0  0  0  0  0  0  0  0  0
   19.2713    9.6886   48.8299 N   0  0  0  0  0  0  0  0  0  0  0  0
   20.6125    9.3847   48.6827 C   0  0  0  0  0  0  0  0  0  0  0  0
   21.6109    9.9710   47.8128 C   0  0  0  0  0  0  0  0  0  0  0  0
   21.4548   10.8783   47.0231 O   0  0  0  0  0  0  0  0  0  0  0  0
   22.8836    9.3853   47.9420 N   0  0  0  0  0  0  0  0  0  0  0  0
   24.4690    7.9015   48.8004 N   0  0  0  0  0  0  0  0  0  0  0  0
   22.2739    7.7710   49.6568 N   0  0  0  0  0  0  0  0  0  0  0  0
   20.9908    8.3368   49.5472 C   0  0  0  0  0  0  0  0  0  0  0  0
   18.7489   10.3696   48.3477 H   0  0  0  0  0  0  0  0  0  0  0  0
   23.6041    9.7422   47.3739 H   0  0  0  0  0  0  0  0  0  0  0  0
   25.1255    8.3136   48.1934 H   0  0  0  0  0  0  0  0  0  0  0  0
   24.7432    7.1687   49.3979 H   0  0  0  0  0  0  0  0  0  0  0  0
   20.1447    3.5760   49.8621 C   0  0  0  0  0  0  0  0  0  0  0  0
   19.6169    3.7501   48.5426 O   0  0  0  0  0  0  0  0  0  0  0  0
   20.3689    4.3981   47.3285 P   0  0  0  0  0  0  0  0  0  0  0  0
   19.3797    5.2545   46.6366 O   0  0  0  0  0  0  0  0  0  0  0  0
   20.9811    3.3874   46.4443 O   0  0  0  0  0  0  0  0  0  0  0  0
   21.3907    5.2841   47.9604 O   0  0  0  0  0  0  0  0  0  0  0  0
   19.7991    5.6806   45.8728 H   0  0  0  0  0  0  0  0  0  0  0  0
   21.9057    5.7283   47.2687 H   0  0  0  0  0  0  0  0  0  0  0  0
 28 29  1  0  0  0
 28 30  2  0  0  0
 28 31  1  0  0  0
 28 27  1  0  0  0
 11 18  1  0  0  0
 11 19  1  0  0  0
 11 20  2  0  0  0
 27 26  1  0  0  0
 26  1  1  0  0  0
  1  2  1  0  0  0
  1  3  1  0  0  0
  2  7  1  0  0  0
  3  4  1  0  0  0
  3  5  1  0  0  0
  5  6  1  0  0  0
  5  7  1  0  0  0
  7 12  1  0  0  0
 12 13  2  0  0  0
 12 21  1  0  0  0
 13 14  1  0  0  0
 14 15  1  0  0  0
 15 16  1  0  0  0
 15 21  2  0  0  0
 16 17  2  0  0  0
 16 18  1  0  0  0
 20 21  1  0  0  0
 29 32  1  0  0  0
 31 33  1  0  0  0
  2  8  1  0  0  0
  4  9  1  0  0  0
  6 10  1  0  0  0
 14 22  1  0  0  0
 18 23  1  0  0  0
 19 24  1  0  0  0
 19 25  1  0  0  0
M  END
> <minimizedAffinity>
-8.14495

$$$$
