1DQN_IMU_A_300
  RCSB PDB12061702183D
Coordinates from PDB:1DQN:A:300 Model:1 without hydrogens
 24 26  0  0  0  0            999 V2000
   23.4040   11.0060   47.1590   P 0  0  0  0  0  0  0  0  0  0  0  0
   18.0050    9.8050   54.4590   C 0  0  0  0  0  0  0  0  0  0  0  0
   24.0260   11.8820   48.1770   O 0  0  0  0  0  0  0  0  0  0  0  0
   22.7370   11.7560   46.0770   O 0  0  0  0  0  0  0  0  0  0  0  0
   24.4530   10.0810   46.6370   O 0  0  0  0  0  0  0  0  0  0  0  0
   22.4130   10.0680   47.9320   O 0  0  0  0  0  0  0  0  0  0  0  0
   21.7530    8.9170   47.3940   C 0  0  0  0  0  0  0  0  0  0  0  0
   20.9110    8.2770   48.4380   C 0  0  0  0  0  0  0  0  0  0  0  0
   21.4180    8.3900   49.8160   N 0  0  0  0  0  0  0  0  0  0  0  0
   19.5220    8.8420   48.5160   C 0  0  0  0  0  0  0  0  0  0  0  0
   18.7800    8.4630   47.3580   O 0  0  0  0  0  0  0  0  0  0  0  0
   19.0780    8.2690   49.7960   C 0  0  0  0  0  0  0  0  0  0  0  0
   18.5730    6.9360   49.6500   O 0  0  0  0  0  0  0  0  0  0  0  0
   20.3140    8.4140   50.7730   C 0  0  0  0  0  0  0  0  0  0  0  0
   20.1040    9.7860   51.4320   C 0  0  0  0  0  0  0  0  0  0  0  0
   20.6030   11.0340   51.0080   C 0  0  0  0  0  0  0  0  0  0  0  0
   20.2430   12.0520   51.7560   N 0  0  0  0  0  0  0  0  0  0  0  0
   19.4580   11.4860   52.7440   C 0  0  0  0  0  0  0  0  0  0  0  0
   18.7640   12.1070   53.8530   C 0  0  0  0  0  0  0  0  0  0  0  0
   18.7340   13.2870   54.1320   O 0  0  0  0  0  0  0  0  0  0  0  0
   18.0630   11.1930   54.6610   N 0  0  0  0  0  0  0  0  0  0  0  0
   17.2950    9.0910   55.3270   N 0  0  0  0  0  0  0  0  0  0  0  0
   18.6530    9.1980   53.4000   N 0  0  0  0  0  0  0  0  0  0  0  0
   19.3640   10.0890   52.5760   C 0  0  0  0  0  0  0  0  0  0  0  0
  1  3  1  0  0  0  0
  1  4  2  0  0  0  0
  1  5  1  0  0  0  0
  1  6  1  0  0  0  0
  2 21  1  0  0  0  0
  2 22  1  0  0  0  0
  2 23  2  0  0  0  0
  6  7  1  0  0  0  0
  7  8  1  0  0  0  0
  8  9  1  0  0  0  0
  8 10  1  0  0  0  0
  9 14  1  0  0  0  0
 10 11  1  0  0  0  0
 10 12  1  0  0  0  0
 12 13  1  0  0  0  0
 12 14  1  0  0  0  0
 14 15  1  0  0  0  0
 15 16  2  0  0  0  0
 15 24  1  0  0  0  0
 16 17  1  0  0  0  0
 17 18  1  0  0  0  0
 18 19  1  0  0  0  0
 18 24  2  0  0  0  0
 19 20  2  0  0  0  0
 19 21  1  0  0  0  0
 23 24  1  0  0  0  0
A    1
P
A    2
C2
A    3
O1P
A    4
O2P
A    5
O3P
A    6
O5'
A    7
C5'
A    8
C4'
A    9
N4'
A   10
C3'
A   11
O3'
A   12
C2'
A   13
O2'
A   14
C1'
A   15
C9
A   16
C8
A   17
N7
A   18
C5
A   19
C6
A   20
O6
A   21
N1
A   22
N2
A   23
N3
A   24
C4
M  END
>  <InstanceId>
1DQN_IMU_A_300

>  <ChemCompId>
IMU

>  <PdbId>
1DQN

>  <ChainId>
A

>  <ResidueNumber>
300

>  <InsertionCode>


>  <Model>
1

>  <AltIds>


>  <MissingHeavyAtoms>
0

>  <ObservedFormula>
C11 N5 O7 P

>  <Name>
PHOSPHORIC ACID MONO-[5-(2-AMINO-4-OXO-4,5-DIHYDRO-3H-PYRROLO[3,2-D]PYRIMIDIN-7-YL)-3,4-DIHYDROXY-PYRROLIDIN-2-YLMETHYL] ESTER

>  <SystematicName>
[(2R,3R,4S,5S)-5-(2-amino-4-oxo-3,5-dihydropyrrolo[4,5-d]pyrimidin-7-yl)-3,4-dihydroxy-pyrrolidin-2-yl]methyl dihydrogen phosphate

>  <Synonyms>
MODIFIED QUANOSINE-5-PHOSPHATE

>  <Type>
NON-POLYMER

>  <Formula>
C11 H16 N5 O7 P

>  <MolecularWeight>
361.248

>  <ModifiedDate>
2011-06-04

>  <Parent>


>  <OneLetterCode>


>  <SubcomponentList>


>  <AmbiguousFlag>
N

>  <InChI>
InChI=1S/C11H16N5O7P/c12-11-15-5-3(1-13-7(5)10(19)16-11)6-9(18)8(17)4(14-6)2-23-24(20,21)22/h1,4,6,8-9,13-14,17-18H,2H2,(H2,20,21,22)(H3,12,15,16,19)/t4-,6+,8-,9+/m1/s1

>  <InChIKey>
IQLBECLICFDTTF-PVEDRDFWSA-N

>  <SMILES>
c1c(c2c([nH]1)C(=O)NC(=N2)N)[C@H]3[C@@H]([C@@H]([C@H](N3)COP(=O)(O)O)O)O

$$$$
