4CU8_DGJ_A_1985


 16 16  0  0  0  0  0  0  0  0999 V2000
   40.2568  -47.3091    8.1959 C   0  0  0  0  0  0  0  0  0  0  0  0
   39.8537  -45.8581    8.2880 C   0  0  0  0  0  0  0  0  0  0  0  0
   39.1080  -45.7182    9.4512 O   0  0  0  0  0  0  0  0  0  0  0  0
   38.9857  -45.4236    7.0650 C   0  0  0  0  0  0  0  0  0  0  0  0
   38.7297  -43.9753    7.0763 O   0  0  0  0  0  0  0  0  0  0  0  0
   39.7426  -45.7719    5.7963 C   0  0  0  0  0  0  0  0  0  0  0  0
   41.0360  -45.1060    5.8239 O   0  0  0  0  0  0  0  0  0  0  0  0
   39.9543  -47.2627    5.8016 C   0  0  0  0  0  0  0  0  0  0  0  0
   40.8770  -47.6231    6.8938 N   0  0  0  0  0  0  0  0  0  0  0  0
   38.3270  -46.2917    9.4056 H   0  0  0  0  0  0  0  0  0  0  0  0
   39.5727  -43.4976    7.0333 H   0  0  0  0  0  0  0  0  0  0  0  0
   41.5260  -45.3839    6.6136 H   0  0  0  0  0  0  0  0  0  0  0  0
   41.0822  -48.6213    6.8483 H   0  0  0  0  0  0  0  0  0  0  0  0
   40.4605  -47.7479    4.4524 C   0  0  0  0  0  0  0  0  0  0  0  0
   40.7819  -49.1467    4.5882 O   0  0  0  0  0  0  0  0  0  0  0  0
   41.4563  -49.2581    5.2764 H   0  0  0  0  0  0  0  0  0  0  0  0
  9  1  1  0  0  0
  2  1  1  0  0  0
  4  2  1  0  0  0
  2  3  1  0  0  0
  6  4  1  0  0  0
  5  4  1  0  0  0
  7  6  1  0  0  0
  6  8  1  0  0  0
 14  8  1  0  0  0
  8  9  1  0  0  0
 14 15  1  0  0  0
  3 10  1  0  0  0
  5 11  1  0  0  0
  7 12  1  0  0  0
  9 13  1  0  0  0
 15 16  1  0  0  0
M  END
> <minimizedAffinity>
-6.57231

$$$$
4CU8_DGJ_A_1985


 16 16  0  0  0  0  0  0  0  0999 V2000
   40.6116  -47.9979    5.3747 C   0  0  0  0  0  0  0  0  0  0  0  0
   39.7901  -46.7721    5.6893 C   0  0  0  0  0  0  0  0  0  0  0  0
   39.4197  -46.2103    4.4744 O   0  0  0  0  0  0  0  0  0  0  0  0
   40.6083  -45.7269    6.5114 C   0  0  0  0  0  0  0  0  0  0  0  0
   39.7607  -44.6086    6.9521 O   0  0  0  0  0  0  0  0  0  0  0  0
   41.1710  -46.4212    7.7382 C   0  0  0  0  0  0  0  0  0  0  0  0
   40.0704  -46.9897    8.5017 O   0  0  0  0  0  0  0  0  0  0  0  0
   42.0597  -47.5339    7.2493 C   0  0  0  0  0  0  0  0  0  0  0  0
   41.2375  -48.5628    6.5862 N   0  0  0  0  0  0  0  0  0  0  0  0
   40.2149  -45.9739    3.9717 H   0  0  0  0  0  0  0  0  0  0  0  0
   39.0480  -44.9461    7.5170 H   0  0  0  0  0  0  0  0  0  0  0  0
   39.5752  -47.6089    7.9429 H   0  0  0  0  0  0  0  0  0  0  0  0
   41.8284  -49.3523    6.3255 H   0  0  0  0  0  0  0  0  0  0  0  0
   42.8826  -48.1167    8.3873 C   0  0  0  0  0  0  0  0  0  0  0  0
   42.0650  -49.0993    9.0538 O   0  0  0  0  0  0  0  0  0  0  0  0
   41.2574  -48.6767    9.3857 H   0  0  0  0  0  0  0  0  0  0  0  0
  9  1  1  0  0  0
  2  1  1  0  0  0
  4  2  1  0  0  0
  2  3  1  0  0  0
  6  4  1  0  0  0
  5  4  1  0  0  0
  7  6  1  0  0  0
  6  8  1  0  0  0
 14  8  1  0  0  0
  8  9  1  0  0  0
 14 15  1  0  0  0
  3 10  1  0  0  0
  5 11  1  0  0  0
  7 12  1  0  0  0
  9 13  1  0  0  0
 15 16  1  0  0  0
M  END
> <minimizedAffinity>
-6.49100

$$$$
4CU8_DGJ_A_1985


 16 16  0  0  0  0  0  0  0  0999 V2000
   39.9086  -47.1177    4.6018 C   0  0  0  0  0  0  0  0  0  0  0  0
   40.9381  -47.9389    5.3383 C   0  0  0  0  0  0  0  0  0  0  0  0
   40.9198  -49.2090    4.7769 O   0  0  0  0  0  0  0  0  0  0  0  0
   40.6079  -48.0443    6.8607 C   0  0  0  0  0  0  0  0  0  0  0  0
   41.6927  -48.7071    7.6003 O   0  0  0  0  0  0  0  0  0  0  0  0
   40.4355  -46.6395    7.4088 C   0  0  0  0  0  0  0  0  0  0  0  0
   41.6533  -45.8845    7.1558 O   0  0  0  0  0  0  0  0  0  0  0  0
   39.2961  -46.0063    6.6552 C   0  0  0  0  0  0  0  0  0  0  0  0
   39.6888  -45.8088    5.2477 N   0  0  0  0  0  0  0  0  0  0  0  0
   40.0349  -49.5938    4.8765 H   0  0  0  0  0  0  0  0  0  0  0  0
   42.5104  -48.1944    7.5034 H   0  0  0  0  0  0  0  0  0  0  0  0
   41.8331  -45.8709    6.2027 H   0  0  0  0  0  0  0  0  0  0  0  0
   38.9479  -45.3088    4.7563 H   0  0  0  0  0  0  0  0  0  0  0  0
   38.8655  -44.7028    7.3088 C   0  0  0  0  0  0  0  0  0  0  0  0
   39.0103  -44.8646    8.7340 O   0  0  0  0  0  0  0  0  0  0  0  0
   38.4599  -45.6053    9.0329 H   0  0  0  0  0  0  0  0  0  0  0  0
  9  1  1  0  0  0
  2  1  1  0  0  0
  4  2  1  0  0  0
  2  3  1  0  0  0
  6  4  1  0  0  0
  5  4  1  0  0  0
  7  6  1  0  0  0
  6  8  1  0  0  0
 14  8  1  0  0  0
  8  9  1  0  0  0
 14 15  1  0  0  0
  3 10  1  0  0  0
  5 11  1  0  0  0
  7 12  1  0  0  0
  9 13  1  0  0  0
 15 16  1  0  0  0
M  END
> <minimizedAffinity>
-6.19747

$$$$
4CU8_DGJ_A_1985


 16 16  0  0  0  0  0  0  0  0999 V2000
   39.2931  -45.2887    7.0361 C   0  0  0  0  0  0  0  0  0  0  0  0
   40.3406  -45.6588    8.0570 C   0  0  0  0  0  0  0  0  0  0  0  0
   40.6690  -44.4951    8.7402 O   0  0  0  0  0  0  0  0  0  0  0  0
   41.6233  -46.2380    7.3809 C   0  0  0  0  0  0  0  0  0  0  0  0
   42.5751  -46.7444    8.3813 O   0  0  0  0  0  0  0  0  0  0  0  0
   41.2092  -47.3876    6.4806 C   0  0  0  0  0  0  0  0  0  0  0  0
   40.5066  -48.3798    7.2800 O   0  0  0  0  0  0  0  0  0  0  0  0
   40.2662  -46.8259    5.4498 C   0  0  0  0  0  0  0  0  0  0  0  0
   39.0164  -46.4023    6.1076 N   0  0  0  0  0  0  0  0  0  0  0  0
   41.0130  -43.8388    8.1142 H   0  0  0  0  0  0  0  0  0  0  0  0
   42.1577  -47.4537    8.8946 H   0  0  0  0  0  0  0  0  0  0  0  0
   39.7364  -47.9684    7.7022 H   0  0  0  0  0  0  0  0  0  0  0  0
   38.3486  -46.0955    5.4003 H   0  0  0  0  0  0  0  0  0  0  0  0
   40.0064  -47.8326    4.3402 C   0  0  0  0  0  0  0  0  0  0  0  0
   40.7419  -49.0302    4.6613 O   0  0  0  0  0  0  0  0  0  0  0  0
   41.6865  -48.8208    4.7306 H   0  0  0  0  0  0  0  0  0  0  0  0
  9  1  1  0  0  0
  2  1  1  0  0  0
  4  2  1  0  0  0
  2  3  1  0  0  0
  6  4  1  0  0  0
  5  4  1  0  0  0
  7  6  1  0  0  0
  6  8  1  0  0  0
 14  8  1  0  0  0
  8  9  1  0  0  0
 14 15  1  0  0  0
  3 10  1  0  0  0
  5 11  1  0  0  0
  7 12  1  0  0  0
  9 13  1  0  0  0
 15 16  1  0  0  0
M  END
> <minimizedAffinity>
-6.12776

$$$$
4CU8_DGJ_A_1985


 16 16  0  0  0  0  0  0  0  0999 V2000
   43.2959  -46.0426    6.7087 C   0  0  0  0  0  0  0  0  0  0  0  0
   42.4947  -45.0531    7.5183 C   0  0  0  0  0  0  0  0  0  0  0  0
   43.2496  -44.7443    8.6423 O   0  0  0  0  0  0  0  0  0  0  0  0
   41.1248  -45.6527    7.9673 C   0  0  0  0  0  0  0  0  0  0  0  0
   40.2816  -44.6374    8.6164 O   0  0  0  0  0  0  0  0  0  0  0  0
   40.4029  -46.1660    6.7347 C   0  0  0  0  0  0  0  0  0  0  0  0
   40.2466  -45.0690    5.7918 O   0  0  0  0  0  0  0  0  0  0  0  0
   41.2767  -47.2263    6.1186 C   0  0  0  0  0  0  0  0  0  0  0  0
   42.5069  -46.6045    5.5949 N   0  0  0  0  0  0  0  0  0  0  0  0
   43.4168  -45.5527    9.1516 H   0  0  0  0  0  0  0  0  0  0  0  0
   40.1056  -43.9162    7.9922 H   0  0  0  0  0  0  0  0  0  0  0  0
   41.1190  -44.7107    5.5650 H   0  0  0  0  0  0  0  0  0  0  0  0
   43.0617  -47.3087    5.1084 H   0  0  0  0  0  0  0  0  0  0  0  0
   40.5284  -47.9924    5.0393 C   0  0  0  0  0  0  0  0  0  0  0  0
   39.1519  -48.0937    5.4557 O   0  0  0  0  0  0  0  0  0  0  0  0
   39.1051  -48.5536    6.3085 H   0  0  0  0  0  0  0  0  0  0  0  0
  9  1  1  0  0  0
  2  1  1  0  0  0
  4  2  1  0  0  0
  2  3  1  0  0  0
  6  4  1  0  0  0
  5  4  1  0  0  0
  7  6  1  0  0  0
  6  8  1  0  0  0
 14  8  1  0  0  0
  8  9  1  0  0  0
 14 15  1  0  0  0
  3 10  1  0  0  0
  5 11  1  0  0  0
  7 12  1  0  0  0
  9 13  1  0  0  0
 15 16  1  0  0  0
M  END
> <minimizedAffinity>
-6.06185

$$$$
4CU8_DGJ_A_1985


 16 16  0  0  0  0  0  0  0  0999 V2000
   42.9695  -45.5728    6.8546 C   0  0  0  0  0  0  0  0  0  0  0  0
   43.1020  -46.4489    8.0758 C   0  0  0  0  0  0  0  0  0  0  0  0
   44.4591  -46.5603    8.3488 O   0  0  0  0  0  0  0  0  0  0  0  0
   42.5081  -47.8719    7.8300 C   0  0  0  0  0  0  0  0  0  0  0  0
   42.4937  -48.6682    9.0664 O   0  0  0  0  0  0  0  0  0  0  0  0
   41.0806  -47.7137    7.3389 C   0  0  0  0  0  0  0  0  0  0  0  0
   40.3251  -46.9599    8.3280 O   0  0  0  0  0  0  0  0  0  0  0  0
   41.1377  -46.9270    6.0563 C   0  0  0  0  0  0  0  0  0  0  0  0
   41.5847  -45.5516    6.3440 N   0  0  0  0  0  0  0  0  0  0  0  0
   44.9104  -46.9576    7.5876 H   0  0  0  0  0  0  0  0  0  0  0  0
   41.9456  -48.2230    9.7314 H   0  0  0  0  0  0  0  0  0  0  0  0
   40.7466  -46.0976    8.4685 H   0  0  0  0  0  0  0  0  0  0  0  0
   41.5476  -44.9975    5.4884 H   0  0  0  0  0  0  0  0  0  0  0  0
   39.7951  -46.9461    5.3429 C   0  0  0  0  0  0  0  0  0  0  0  0
   39.1572  -48.2009    5.6543 O   0  0  0  0  0  0  0  0  0  0  0  0
   39.7215  -48.9325    5.3591 H   0  0  0  0  0  0  0  0  0  0  0  0
  9  1  1  0  0  0
  2  1  1  0  0  0
  4  2  1  0  0  0
  2  3  1  0  0  0
  6  4  1  0  0  0
  5  4  1  0  0  0
  7  6  1  0  0  0
  6  8  1  0  0  0
 14  8  1  0  0  0
  8  9  1  0  0  0
 14 15  1  0  0  0
  3 10  1  0  0  0
  5 11  1  0  0  0
  7 12  1  0  0  0
  9 13  1  0  0  0
 15 16  1  0  0  0
M  END
> <minimizedAffinity>
-5.99069

$$$$
4CU8_DGJ_A_1985


 16 16  0  0  0  0  0  0  0  0999 V2000
   40.3787  -45.1716    7.9203 C   0  0  0  0  0  0  0  0  0  0  0  0
   40.0522  -45.0795    6.4501 C   0  0  0  0  0  0  0  0  0  0  0  0
   38.9378  -44.2592    6.3336 O   0  0  0  0  0  0  0  0  0  0  0  0
   39.7251  -46.4811    5.8448 C   0  0  0  0  0  0  0  0  0  0  0  0
   39.5647  -46.4107    4.3845 O   0  0  0  0  0  0  0  0  0  0  0  0
   40.8774  -47.4170    6.1611 C   0  0  0  0  0  0  0  0  0  0  0  0
   42.1037  -46.8509    5.6200 O   0  0  0  0  0  0  0  0  0  0  0  0
   40.9880  -47.4928    7.6609 C   0  0  0  0  0  0  0  0  0  0  0  0
   41.4186  -46.1845    8.1875 N   0  0  0  0  0  0  0  0  0  0  0  0
   38.1985  -44.6459    6.8283 H   0  0  0  0  0  0  0  0  0  0  0  0
   40.3891  -46.0935    3.9836 H   0  0  0  0  0  0  0  0  0  0  0  0
   42.2497  -45.9713    6.0017 H   0  0  0  0  0  0  0  0  0  0  0  0
   41.5697  -46.2575    9.1936 H   0  0  0  0  0  0  0  0  0  0  0  0
   41.9300  -48.6088    8.0840 C   0  0  0  0  0  0  0  0  0  0  0  0
   42.8769  -48.0466    9.0145 O   0  0  0  0  0  0  0  0  0  0  0  0
   43.3605  -47.3231    8.5861 H   0  0  0  0  0  0  0  0  0  0  0  0
  9  1  1  0  0  0
  2  1  1  0  0  0
  4  2  1  0  0  0
  2  3  1  0  0  0
  6  4  1  0  0  0
  5  4  1  0  0  0
  7  6  1  0  0  0
  6  8  1  0  0  0
 14  8  1  0  0  0
  8  9  1  0  0  0
 14 15  1  0  0  0
  3 10  1  0  0  0
  5 11  1  0  0  0
  7 12  1  0  0  0
  9 13  1  0  0  0
 15 16  1  0  0  0
M  END
> <minimizedAffinity>
-5.94625

$$$$
4CU8_DGJ_A_1985


 16 16  0  0  0  0  0  0  0  0999 V2000
   39.9698  -45.3432    5.6023 C   0  0  0  0  0  0  0  0  0  0  0  0
   39.1730  -45.2317    6.8787 C   0  0  0  0  0  0  0  0  0  0  0  0
   38.5382  -43.9967    6.8529 O   0  0  0  0  0  0  0  0  0  0  0  0
   40.0913  -45.3121    8.1389 C   0  0  0  0  0  0  0  0  0  0  0  0
   39.2996  -45.3639    9.3772 O   0  0  0  0  0  0  0  0  0  0  0  0
   40.9228  -46.5782    8.0420 C   0  0  0  0  0  0  0  0  0  0  0  0
   40.0276  -47.7201    7.9335 O   0  0  0  0  0  0  0  0  0  0  0  0
   41.7448  -46.4736    6.7848 C   0  0  0  0  0  0  0  0  0  0  0  0
   40.8540  -46.5251    5.6108 N   0  0  0  0  0  0  0  0  0  0  0  0
   39.2030  -43.2926    6.7977 H   0  0  0  0  0  0  0  0  0  0  0  0
   38.7327  -46.1509    9.3659 H   0  0  0  0  0  0  0  0  0  0  0  0
   39.4587  -47.6122    7.1553 H   0  0  0  0  0  0  0  0  0  0  0  0
   41.4158  -46.5339    4.7595 H   0  0  0  0  0  0  0  0  0  0  0  0
   42.8076  -47.5598    6.7344 C   0  0  0  0  0  0  0  0  0  0  0  0
   42.6471  -48.3774    7.9109 O   0  0  0  0  0  0  0  0  0  0  0  0
   42.7458  -47.8267    8.7033 H   0  0  0  0  0  0  0  0  0  0  0  0
  9  1  1  0  0  0
  2  1  1  0  0  0
  4  2  1  0  0  0
  2  3  1  0  0  0
  6  4  1  0  0  0
  5  4  1  0  0  0
  7  6  1  0  0  0
  6  8  1  0  0  0
 14  8  1  0  0  0
  8  9  1  0  0  0
 14 15  1  0  0  0
  3 10  1  0  0  0
  5 11  1  0  0  0
  7 12  1  0  0  0
  9 13  1  0  0  0
 15 16  1  0  0  0
M  END
> <minimizedAffinity>
-5.83050

$$$$
4CU8_DGJ_A_1985


 16 16  0  0  0  0  0  0  0  0999 V2000
   41.8397  -48.2487    7.6526 C   0  0  0  0  0  0  0  0  0  0  0  0
   40.6611  -47.9760    6.7508 C   0  0  0  0  0  0  0  0  0  0  0  0
   40.3900  -49.1563    6.0711 O   0  0  0  0  0  0  0  0  0  0  0  0
   40.9760  -46.8481    5.7180 C   0  0  0  0  0  0  0  0  0  0  0  0
   39.7789  -46.4750    4.9493 O   0  0  0  0  0  0  0  0  0  0  0  0
   41.4630  -45.6284    6.4788 C   0  0  0  0  0  0  0  0  0  0  0  0
   40.4413  -45.2344    7.4370 O   0  0  0  0  0  0  0  0  0  0  0  0
   42.7066  -46.0373    7.2227 C   0  0  0  0  0  0  0  0  0  0  0  0
   42.3525  -47.0109    8.2720 N   0  0  0  0  0  0  0  0  0  0  0  0
   41.1679  -49.4177    5.5539 H   0  0  0  0  0  0  0  0  0  0  0  0
   39.0950  -46.1480    5.5545 H   0  0  0  0  0  0  0  0  0  0  0  0
   40.2588  -45.9741    8.0374 H   0  0  0  0  0  0  0  0  0  0  0  0
   43.1809  -47.2277    8.8263 H   0  0  0  0  0  0  0  0  0  0  0  0
   43.4238  -44.8256    7.7965 C   0  0  0  0  0  0  0  0  0  0  0  0
   42.5595  -44.2422    8.7920 O   0  0  0  0  0  0  0  0  0  0  0  0
   41.7178  -43.9895    8.3814 H   0  0  0  0  0  0  0  0  0  0  0  0
  9  1  1  0  0  0
  2  1  1  0  0  0
  4  2  1  0  0  0
  2  3  1  0  0  0
  6  4  1  0  0  0
  5  4  1  0  0  0
  7  6  1  0  0  0
  6  8  1  0  0  0
 14  8  1  0  0  0
  8  9  1  0  0  0
 14 15  1  0  0  0
  3 10  1  0  0  0
  5 11  1  0  0  0
  7 12  1  0  0  0
  9 13  1  0  0  0
 15 16  1  0  0  0
M  END
> <minimizedAffinity>
-5.83047

$$$$
4CU8_DGJ_A_1985


 16 16  0  0  0  0  0  0  0  0999 V2000
   40.6842  -47.0247    7.4955 C   0  0  0  0  0  0  0  0  0  0  0  0
   41.2747  -45.7272    7.0011 C   0  0  0  0  0  0  0  0  0  0  0  0
   40.4504  -45.2700    5.9812 O   0  0  0  0  0  0  0  0  0  0  0  0
   42.7194  -45.9283    6.4440 C   0  0  0  0  0  0  0  0  0  0  0  0
   43.3503  -44.6418    6.1121 O   0  0  0  0  0  0  0  0  0  0  0  0
   43.5507  -46.6141    7.5128 C   0  0  0  0  0  0  0  0  0  0  0  0
   43.5288  -45.7998    8.7185 O   0  0  0  0  0  0  0  0  0  0  0  0
   42.8970  -47.9398    7.8001 C   0  0  0  0  0  0  0  0  0  0  0  0
   41.5874  -47.7127    8.4387 N   0  0  0  0  0  0  0  0  0  0  0  0
   40.4198  -45.9291    5.2702 H   0  0  0  0  0  0  0  0  0  0  0  0
   43.4081  -44.0944    6.9108 H   0  0  0  0  0  0  0  0  0  0  0  0
   42.6116  -45.6783    9.0099 H   0  0  0  0  0  0  0  0  0  0  0  0
   41.1803  -48.6093    8.7046 H   0  0  0  0  0  0  0  0  0  0  0  0
   43.7962  -48.8191    8.6545 C   0  0  0  0  0  0  0  0  0  0  0  0
   43.5282  -48.5006   10.0348 O   0  0  0  0  0  0  0  0  0  0  0  0
   43.7074  -47.5600   10.1902 H   0  0  0  0  0  0  0  0  0  0  0  0
  9  1  1  0  0  0
  2  1  1  0  0  0
  4  2  1  0  0  0
  2  3  1  0  0  0
  6  4  1  0  0  0
  5  4  1  0  0  0
  7  6  1  0  0  0
  6  8  1  0  0  0
 14  8  1  0  0  0
  8  9  1  0  0  0
 14 15  1  0  0  0
  3 10  1  0  0  0
  5 11  1  0  0  0
  7 12  1  0  0  0
  9 13  1  0  0  0
 15 16  1  0  0  0
M  END
> <minimizedAffinity>
-5.82755

$$$$
