4CU8_DGJ_A_1985
  RCSB PDB12061712063D
Coordinates from PDB:4CU8:A:1985 Model:1 without hydrogens
 11 11  0  0  0  0            999 V2000
   40.0920  -46.8890    8.2510   C 0  0  0  0  0  0  0  0  0  0  0  0
   39.6020  -45.4640    8.1750   C 0  0  0  0  0  0  0  0  0  0  0  0
   38.8340  -45.2390    9.3100   O 0  0  0  0  0  0  0  0  0  0  0  0
   38.7260  -45.2240    6.9050   C 0  0  0  0  0  0  0  0  0  0  0  0
   38.3840  -43.8020    6.7500   O 0  0  0  0  0  0  0  0  0  0  0  0
   39.5190  -45.6670    5.6890   C 0  0  0  0  0  0  0  0  0  0  0  0
   40.7700  -44.9250    5.6490   O 0  0  0  0  0  0  0  0  0  0  0  0
   39.8190  -47.1320    5.8650   C 0  0  0  0  0  0  0  0  0  0  0  0
   40.7470  -47.3100    6.9970   N 0  0  0  0  0  0  0  0  0  0  0  0
   40.3710  -47.7350    4.5830   C 0  0  0  0  0  0  0  0  0  0  0  0
   40.5620  -49.1450    4.8150   O 0  0  0  0  0  0  0  0  0  0  0  0
  9  1  1  0  0  0  0
  2  1  1  0  0  0  0
  4  2  1  0  0  0  0
  2  3  1  0  0  0  0
  6  4  1  0  0  0  0
  5  4  1  0  0  0  0
  7  6  1  0  0  0  0
  6  8  1  0  0  0  0
 10  8  1  0  0  0  0
  8  9  1  0  0  0  0
 10 11  1  0  0  0  0
A    1
C1
A    2
C2
A    3
O2
A    4
C3
A    5
O3
A    6
C4
A    7
O4
A    8
C5
A    9
N5
A   10
C6
A   11
O6
M  END
>  <InstanceId>
4CU8_DGJ_A_1985

>  <ChemCompId>
DGJ

>  <PdbId>
4CU8

>  <ChainId>
A

>  <ResidueNumber>
1985

>  <InsertionCode>


>  <Model>
1

>  <AltIds>


>  <MissingHeavyAtoms>
0

>  <ObservedFormula>
C6 N O4

>  <Name>
(2R,3S,4R,5S)-2-(hydroxymethyl)piperidine-3,4,5-triol

>  <SystematicName>
(2R,3S,4R,5S)-2-(hydroxymethyl)piperidine-3,4,5-triol

>  <Synonyms>
1-deoxygalactonojirimycin

>  <Type>
NON-POLYMER

>  <Formula>
C6 H13 N O4

>  <MolecularWeight>
163.172

>  <ModifiedDate>
2011-12-02

>  <Parent>


>  <OneLetterCode>


>  <SubcomponentList>


>  <AmbiguousFlag>
N

>  <InChI>
InChI=1S/C6H13NO4/c8-2-3-5(10)6(11)4(9)1-7-3/h3-11H,1-2H2/t3-,4+,5+,6-/m1/s1

>  <InChIKey>
LXBIFEVIBLOUGU-DPYQTVNSSA-N

>  <SMILES>
C1[C@@H]([C@H]([C@H]([C@H](N1)CO)O)O)O

$$$$
