2YME_CWB_A_1207


 24 27  0  0  0  0  0  0  0  0999 V2000
   54.0530  -12.6647   66.9996 O   0  0  0  0  0  0  0  0  0  0  0  0
   54.1918  -12.8454   68.2240 C   0  0  0  0  0  0  0  0  0  0  0  0
   55.5109  -13.0215   68.8272 N   0  0  0  0  0  0  0  0  0  0  0  0
   55.5742  -13.0932   69.8070 H   0  0  0  0  0  0  0  0  0  0  0  0
   52.9701  -12.7783   69.1672 C   0  0  0  0  0  0  0  0  0  0  0  0
   52.6060  -13.7703   70.2188 C   0  0  0  0  0  0  0  0  0  0  0  0
   53.1643  -14.9780   70.6757 C   0  0  0  0  0  0  0  0  0  0  0  0
   52.5350  -15.6851   71.7283 C   0  0  0  0  0  0  0  0  0  0  0  0
   51.3563  -15.1693   72.3169 C   0  0  0  0  0  0  0  0  0  0  0  0
   50.7985  -13.9522   71.8614 C   0  0  0  0  0  0  0  0  0  0  0  0
   51.4145  -13.2549   70.8119 C   0  0  0  0  0  0  0  0  0  0  0  0
   51.1138  -12.0670   70.1648 N   0  0  0  0  0  0  0  0  0  0  0  0
   49.9579  -11.2197   70.4591 C   0  0  0  0  0  0  0  0  0  0  0  0
   52.0376  -11.8049   69.2084 N   0  0  0  0  0  0  0  0  0  0  0  0
   56.7406  -13.0961   68.0407 C   0  0  0  0  0  0  0  0  0  0  0  0
   56.9277  -14.5036   67.8557 C   0  0  0  0  0  0  0  0  0  0  0  0
   58.0720  -15.1723   68.5512 C   0  0  0  0  0  0  0  0  0  0  0  0
   57.7213  -12.3293   68.8785 C   0  0  0  0  0  0  0  0  0  0  0  0
   58.8026  -13.0992   69.5499 C   0  0  0  0  0  0  0  0  0  0  0  0
   59.2088  -14.2705   68.8320 N   0  0  0  0  0  0  0  0  0  0  0  0
   60.4498  -14.7934   69.2609 C   0  0  0  0  0  0  0  0  0  0  0  0
   58.3787  -13.5244   70.9670 C   0  0  0  0  0  0  0  0  0  0  0  0
   57.3891  -14.7046   70.9489 C   0  0  0  0  0  0  0  0  0  0  0  0
   57.6291  -15.7242   69.8517 C   0  0  0  0  0  0  0  0  0  0  0  0
  1  2  2  0  0  0
  2  5  1  0  0  0
  2  3  1  0  0  0
  5  6  1  0  0  0
  5 14  2  0  0  0
  6  7  1  0  0  0
  6 11  2  0  0  0
  7  8  2  0  0  0
  8  9  1  0  0  0
  9 10  2  0  0  0
 10 11  1  0  0  0
 11 12  1  0  0  0
 12 13  1  0  0  0
 12 14  1  0  0  0
  3 15  1  0  0  0
 15 16  1  0  0  0
 15 18  1  0  0  0
 16 17  1  0  0  0
 17 20  1  0  0  0
 17 24  1  0  0  0
 18 19  1  0  0  0
 19 20  1  0  0  0
 19 22  1  0  0  0
 20 21  1  0  0  0
 22 23  1  0  0  0
 23 24  1  0  0  0
  3  4  1  0  0  0
M  END
> <minimizedAffinity>
-0.00101

$$$$
2YME_CWB_A_1207


 24 27  0  0  0  0  0  0  0  0999 V2000
   50.9271   -5.5952   74.3952 O   0  0  0  0  0  0  0  0  0  0  0  0
   51.7858   -6.1244   73.6648 C   0  0  0  0  0  0  0  0  0  0  0  0
   51.4470   -7.2110   72.7486 N   0  0  0  0  0  0  0  0  0  0  0  0
   52.1452   -7.5506   72.1432 H   0  0  0  0  0  0  0  0  0  0  0  0
   53.2269   -5.5691   73.6242 C   0  0  0  0  0  0  0  0  0  0  0  0
   54.4855   -6.3598   73.7389 C   0  0  0  0  0  0  0  0  0  0  0  0
   54.7853   -7.7236   73.9099 C   0  0  0  0  0  0  0  0  0  0  0  0
   56.1368   -8.1388   73.9805 C   0  0  0  0  0  0  0  0  0  0  0  0
   57.1738   -7.1824   73.8710 C   0  0  0  0  0  0  0  0  0  0  0  0
   56.8722   -5.8123   73.6933 C   0  0  0  0  0  0  0  0  0  0  0  0
   55.5339   -5.3971   73.6331 C   0  0  0  0  0  0  0  0  0  0  0  0
   54.9381   -4.1568   73.4686 N   0  0  0  0  0  0  0  0  0  0  0  0
   55.6584   -2.8906   73.3330 C   0  0  0  0  0  0  0  0  0  0  0  0
   53.5884   -4.2799   73.4632 N   0  0  0  0  0  0  0  0  0  0  0  0
   50.1180   -7.8163   72.6908 C   0  0  0  0  0  0  0  0  0  0  0  0
   50.2313   -8.9428   73.5675 C   0  0  0  0  0  0  0  0  0  0  0  0
   50.1984  -10.3174   72.9763 C   0  0  0  0  0  0  0  0  0  0  0  0
   49.9182   -8.0470   71.2217 C   0  0  0  0  0  0  0  0  0  0  0  0
   49.9335   -9.4534   70.7376 C   0  0  0  0  0  0  0  0  0  0  0  0
   49.4568  -10.4008   71.7007 N   0  0  0  0  0  0  0  0  0  0  0  0
   49.1295  -11.6573   71.1424 C   0  0  0  0  0  0  0  0  0  0  0  0
   51.3503   -9.8735   70.3077 C   0  0  0  0  0  0  0  0  0  0  0  0
   52.2650  -10.1555   71.5145 C   0  0  0  0  0  0  0  0  0  0  0  0
   51.5746  -10.7919   72.7059 C   0  0  0  0  0  0  0  0  0  0  0  0
  1  2  2  0  0  0
  2  5  1  0  0  0
  2  3  1  0  0  0
  5  6  1  0  0  0
  5 14  2  0  0  0
  6  7  1  0  0  0
  6 11  2  0  0  0
  7  8  2  0  0  0
  8  9  1  0  0  0
  9 10  2  0  0  0
 10 11  1  0  0  0
 11 12  1  0  0  0
 12 13  1  0  0  0
 12 14  1  0  0  0
  3 15  1  0  0  0
 15 16  1  0  0  0
 15 18  1  0  0  0
 16 17  1  0  0  0
 17 20  1  0  0  0
 17 24  1  0  0  0
 18 19  1  0  0  0
 19 20  1  0  0  0
 19 22  1  0  0  0
 20 21  1  0  0  0
 22 23  1  0  0  0
 23 24  1  0  0  0
  3  4  1  0  0  0
M  END
> <minimizedAffinity>
-0.00082

$$$$
2YME_CWB_A_1207


 24 27  0  0  0  0  0  0  0  0999 V2000
   54.2460   -3.3204   69.5251 O   0  0  0  0  0  0  0  0  0  0  0  0
   54.3064   -2.8128   70.6607 C   0  0  0  0  0  0  0  0  0  0  0  0
   54.4326   -3.6358   71.8614 N   0  0  0  0  0  0  0  0  0  0  0  0
   54.5450   -3.1862   72.7301 H   0  0  0  0  0  0  0  0  0  0  0  0
   54.3610   -1.2780   70.8288 C   0  0  0  0  0  0  0  0  0  0  0  0
   53.5280   -0.4569   71.7530 C   0  0  0  0  0  0  0  0  0  0  0  0
   52.5139   -0.7393   72.6862 C   0  0  0  0  0  0  0  0  0  0  0  0
   51.9200    0.3189   73.4152 C   0  0  0  0  0  0  0  0  0  0  0  0
   52.3552    1.6489   73.2061 C   0  0  0  0  0  0  0  0  0  0  0  0
   53.3788    1.9320   72.2722 C   0  0  0  0  0  0  0  0  0  0  0  0
   53.9616    0.8863   71.5414 C   0  0  0  0  0  0  0  0  0  0  0  0
   54.9603    0.8496   70.5814 N   0  0  0  0  0  0  0  0  0  0  0  0
   55.6695    2.0192   70.0621 C   0  0  0  0  0  0  0  0  0  0  0  0
   55.1806   -0.4260   70.1799 N   0  0  0  0  0  0  0  0  0  0  0  0
   54.3996   -5.0966   71.8304 C   0  0  0  0  0  0  0  0  0  0  0  0
   53.0239   -5.3999   72.0870 C   0  0  0  0  0  0  0  0  0  0  0  0
   52.6621   -6.0422   73.3896 C   0  0  0  0  0  0  0  0  0  0  0  0
   55.4366   -5.4771   72.8460 C   0  0  0  0  0  0  0  0  0  0  0  0
   54.9629   -6.0813   74.1201 C   0  0  0  0  0  0  0  0  0  0  0  0
   53.7547   -6.8393   73.9855 N   0  0  0  0  0  0  0  0  0  0  0  0
   53.5018   -7.6972   75.0799 C   0  0  0  0  0  0  0  0  0  0  0  0
   54.7381   -5.0011   75.1929 C   0  0  0  0  0  0  0  0  0  0  0  0
   53.4422   -4.2036   74.9532 C   0  0  0  0  0  0  0  0  0  0  0  0
   52.2905   -5.0102   74.3840 C   0  0  0  0  0  0  0  0  0  0  0  0
  1  2  2  0  0  0
  2  5  1  0  0  0
  2  3  1  0  0  0
  5  6  1  0  0  0
  5 14  2  0  0  0
  6  7  1  0  0  0
  6 11  2  0  0  0
  7  8  2  0  0  0
  8  9  1  0  0  0
  9 10  2  0  0  0
 10 11  1  0  0  0
 11 12  1  0  0  0
 12 13  1  0  0  0
 12 14  1  0  0  0
  3 15  1  0  0  0
 15 16  1  0  0  0
 15 18  1  0  0  0
 16 17  1  0  0  0
 17 20  1  0  0  0
 17 24  1  0  0  0
 18 19  1  0  0  0
 19 20  1  0  0  0
 19 22  1  0  0  0
 20 21  1  0  0  0
 22 23  1  0  0  0
 23 24  1  0  0  0
  3  4  1  0  0  0
M  END
> <minimizedAffinity>
-0.00081

$$$$
2YME_CWB_A_1207


 24 27  0  0  0  0  0  0  0  0999 V2000
   53.1275   -9.4643   69.6591 O   0  0  0  0  0  0  0  0  0  0  0  0
   54.2397   -8.9061   69.6091 C   0  0  0  0  0  0  0  0  0  0  0  0
   54.3652   -7.4692   69.3757 N   0  0  0  0  0  0  0  0  0  0  0  0
   55.2614   -7.0633   69.4124 H   0  0  0  0  0  0  0  0  0  0  0  0
   55.5288   -9.7045   69.9048 C   0  0  0  0  0  0  0  0  0  0  0  0
   56.7720   -9.7178   69.0822 C   0  0  0  0  0  0  0  0  0  0  0  0
   57.1746   -9.0946   67.8870 C   0  0  0  0  0  0  0  0  0  0  0  0
   58.4701   -9.3404   67.3722 C   0  0  0  0  0  0  0  0  0  0  0  0
   59.3514  -10.2030   68.0660 C   0  0  0  0  0  0  0  0  0  0  0  0
   58.9486  -10.8249   69.2705 C   0  0  0  0  0  0  0  0  0  0  0  0
   57.6619  -10.5908   69.7773 C   0  0  0  0  0  0  0  0  0  0  0  0
   56.9965  -11.0429   70.9056 N   0  0  0  0  0  0  0  0  0  0  0  0
   57.5495  -11.9728   71.8906 C   0  0  0  0  0  0  0  0  0  0  0  0
   55.7515  -10.5103   70.9629 N   0  0  0  0  0  0  0  0  0  0  0  0
   53.2197   -6.6076   69.0900 C   0  0  0  0  0  0  0  0  0  0  0  0
   53.1855   -6.5697   67.6591 C   0  0  0  0  0  0  0  0  0  0  0  0
   53.5281   -5.2874   66.9674 C   0  0  0  0  0  0  0  0  0  0  0  0
   53.5447   -5.3550   69.8496 C   0  0  0  0  0  0  0  0  0  0  0  0
   53.9015   -4.1451   69.0613 C   0  0  0  0  0  0  0  0  0  0  0  0
   53.2634   -4.0818   67.7802 N   0  0  0  0  0  0  0  0  0  0  0  0
   53.3044   -2.7973   67.1921 C   0  0  0  0  0  0  0  0  0  0  0  0
   55.4229   -4.0547   68.8478 C   0  0  0  0  0  0  0  0  0  0  0  0
   55.9199   -5.0430   67.7759 C   0  0  0  0  0  0  0  0  0  0  0  0
   54.9664   -5.2628   66.6168 C   0  0  0  0  0  0  0  0  0  0  0  0
  1  2  2  0  0  0
  2  5  1  0  0  0
  2  3  1  0  0  0
  5  6  1  0  0  0
  5 14  2  0  0  0
  6  7  1  0  0  0
  6 11  2  0  0  0
  7  8  2  0  0  0
  8  9  1  0  0  0
  9 10  2  0  0  0
 10 11  1  0  0  0
 11 12  1  0  0  0
 12 13  1  0  0  0
 12 14  1  0  0  0
  3 15  1  0  0  0
 15 16  1  0  0  0
 15 18  1  0  0  0
 16 17  1  0  0  0
 17 20  1  0  0  0
 17 24  1  0  0  0
 18 19  1  0  0  0
 19 20  1  0  0  0
 19 22  1  0  0  0
 20 21  1  0  0  0
 22 23  1  0  0  0
 23 24  1  0  0  0
  3  4  1  0  0  0
M  END
> <minimizedAffinity>
-0.00080

$$$$
2YME_CWB_A_1207


 24 27  0  0  0  0  0  0  0  0999 V2000
   50.1836   -6.9043   70.0480 O   0  0  0  0  0  0  0  0  0  0  0  0
   50.6464   -7.8794   70.6692 C   0  0  0  0  0  0  0  0  0  0  0  0
   50.5143   -9.2432   70.1617 N   0  0  0  0  0  0  0  0  0  0  0  0
   50.9555   -9.9729   70.6537 H   0  0  0  0  0  0  0  0  0  0  0  0
   51.4787   -7.6646   71.9529 C   0  0  0  0  0  0  0  0  0  0  0  0
   51.3049   -8.3754   73.2518 C   0  0  0  0  0  0  0  0  0  0  0  0
   50.4298   -9.3691   73.7268 C   0  0  0  0  0  0  0  0  0  0  0  0
   50.5505   -9.8277   75.0606 C   0  0  0  0  0  0  0  0  0  0  0  0
   51.5532   -9.2902   75.9018 C   0  0  0  0  0  0  0  0  0  0  0  0
   52.4366   -8.2954   75.4224 C   0  0  0  0  0  0  0  0  0  0  0  0
   52.3125   -7.8321   74.1043 C   0  0  0  0  0  0  0  0  0  0  0  0
   53.0121   -6.8910   73.3661 N   0  0  0  0  0  0  0  0  0  0  0  0
   54.1255   -6.0867   73.8702 C   0  0  0  0  0  0  0  0  0  0  0  0
   52.5105   -6.8105   72.1096 N   0  0  0  0  0  0  0  0  0  0  0  0
   49.7564   -9.5723   68.9561 C   0  0  0  0  0  0  0  0  0  0  0  0
   48.4651   -9.9238   69.4653 C   0  0  0  0  0  0  0  0  0  0  0  0
   48.0241  -11.3514   69.3775 C   0  0  0  0  0  0  0  0  0  0  0  0
   50.6015  -10.6285   68.3068 C   0  0  0  0  0  0  0  0  0  0  0  0
   50.0795  -12.0214   68.3027 C   0  0  0  0  0  0  0  0  0  0  0  0
   48.6495  -12.1020   68.2686 N   0  0  0  0  0  0  0  0  0  0  0  0
   48.1647  -13.3784   67.9035 C   0  0  0  0  0  0  0  0  0  0  0  0
   50.5777  -12.8008   69.5328 C   0  0  0  0  0  0  0  0  0  0  0  0
   49.8296  -12.3995   70.8181 C   0  0  0  0  0  0  0  0  0  0  0  0
   48.3614  -12.0696   70.6275 C   0  0  0  0  0  0  0  0  0  0  0  0
  1  2  2  0  0  0
  2  5  1  0  0  0
  2  3  1  0  0  0
  5  6  1  0  0  0
  5 14  2  0  0  0
  6  7  1  0  0  0
  6 11  2  0  0  0
  7  8  2  0  0  0
  8  9  1  0  0  0
  9 10  2  0  0  0
 10 11  1  0  0  0
 11 12  1  0  0  0
 12 13  1  0  0  0
 12 14  1  0  0  0
  3 15  1  0  0  0
 15 16  1  0  0  0
 15 18  1  0  0  0
 16 17  1  0  0  0
 17 20  1  0  0  0
 17 24  1  0  0  0
 18 19  1  0  0  0
 19 20  1  0  0  0
 19 22  1  0  0  0
 20 21  1  0  0  0
 22 23  1  0  0  0
 23 24  1  0  0  0
  3  4  1  0  0  0
M  END
> <minimizedAffinity>
-0.00050

$$$$
2YME_CWB_A_1207


 24 27  0  0  0  0  0  0  0  0999 V2000
   55.2673   -9.3823   72.0163 O   0  0  0  0  0  0  0  0  0  0  0  0
   54.5165  -10.3754   72.0490 C   0  0  0  0  0  0  0  0  0  0  0  0
   55.0140  -11.7207   71.7703 N   0  0  0  0  0  0  0  0  0  0  0  0
   54.3975  -12.4811   71.8751 H   0  0  0  0  0  0  0  0  0  0  0  0
   53.0454  -10.2285   72.4974 C   0  0  0  0  0  0  0  0  0  0  0  0
   51.8463  -10.7702   71.7965 C   0  0  0  0  0  0  0  0  0  0  0  0
   51.6392  -11.5123   70.6196 C   0  0  0  0  0  0  0  0  0  0  0  0
   50.3226  -11.8673   70.2394 C   0  0  0  0  0  0  0  0  0  0  0  0
   49.2279  -11.4807   71.0482 C   0  0  0  0  0  0  0  0  0  0  0  0
   49.4368  -10.7396   72.2344 C   0  0  0  0  0  0  0  0  0  0  0  0
   50.7395  -10.3780   72.6078 C   0  0  0  0  0  0  0  0  0  0  0  0
   51.2496   -9.6732   73.6865 N   0  0  0  0  0  0  0  0  0  0  0  0
   50.4479   -9.0798   74.7568 C   0  0  0  0  0  0  0  0  0  0  0  0
   52.6004   -9.5998   73.6043 N   0  0  0  0  0  0  0  0  0  0  0  0
   56.3858  -11.9878   71.3430 C   0  0  0  0  0  0  0  0  0  0  0  0
   56.2865  -12.0120   69.9147 C   0  0  0  0  0  0  0  0  0  0  0  0
   56.4747  -13.3161   69.2049 C   0  0  0  0  0  0  0  0  0  0  0  0
   56.7254  -13.2521   72.0763 C   0  0  0  0  0  0  0  0  0  0  0  0
   56.8592  -14.4979   71.2748 C   0  0  0  0  0  0  0  0  0  0  0  0
   57.3250  -14.2773   69.9381 N   0  0  0  0  0  0  0  0  0  0  0  0
   57.7938  -15.4496   69.3029 C   0  0  0  0  0  0  0  0  0  0  0  0
   55.5200  -15.2528   71.2008 C   0  0  0  0  0  0  0  0  0  0  0  0
   54.5318  -14.5902   70.2225 C   0  0  0  0  0  0  0  0  0  0  0  0
   55.1668  -13.9757   68.9896 C   0  0  0  0  0  0  0  0  0  0  0  0
  1  2  2  0  0  0
  2  5  1  0  0  0
  2  3  1  0  0  0
  5  6  1  0  0  0
  5 14  2  0  0  0
  6  7  1  0  0  0
  6 11  2  0  0  0
  7  8  2  0  0  0
  8  9  1  0  0  0
  9 10  2  0  0  0
 10 11  1  0  0  0
 11 12  1  0  0  0
 12 13  1  0  0  0
 12 14  1  0  0  0
  3 15  1  0  0  0
 15 16  1  0  0  0
 15 18  1  0  0  0
 16 17  1  0  0  0
 17 20  1  0  0  0
 17 24  1  0  0  0
 18 19  1  0  0  0
 19 20  1  0  0  0
 19 22  1  0  0  0
 20 21  1  0  0  0
 22 23  1  0  0  0
 23 24  1  0  0  0
  3  4  1  0  0  0
M  END
> <minimizedAffinity>
-0.00037

$$$$
2YME_CWB_A_1207


 24 27  0  0  0  0  0  0  0  0999 V2000
   52.9302   -9.0383   71.4662 O   0  0  0  0  0  0  0  0  0  0  0  0
   51.7255   -8.7381   71.5633 C   0  0  0  0  0  0  0  0  0  0  0  0
   50.6891   -9.7608   71.6851 N   0  0  0  0  0  0  0  0  0  0  0  0
   49.7585   -9.4728   71.8274 H   0  0  0  0  0  0  0  0  0  0  0  0
   51.2950   -7.2582   71.6696 C   0  0  0  0  0  0  0  0  0  0  0  0
   50.2196   -6.5887   70.8836 C   0  0  0  0  0  0  0  0  0  0  0  0
   49.3223   -7.0022   69.8822 C   0  0  0  0  0  0  0  0  0  0  0  0
   48.4045   -6.0717   69.3382 C   0  0  0  0  0  0  0  0  0  0  0  0
   48.3913   -4.7379   69.8101 C   0  0  0  0  0  0  0  0  0  0  0  0
   49.2895   -4.3239   70.8209 C   0  0  0  0  0  0  0  0  0  0  0  0
   50.2065   -5.2413   71.3543 C   0  0  0  0  0  0  0  0  0  0  0  0
   51.1854   -5.1370   72.3296 N   0  0  0  0  0  0  0  0  0  0  0  0
   51.5128   -3.9143   73.0633 C   0  0  0  0  0  0  0  0  0  0  0  0
   51.8082   -6.3285   72.5008 N   0  0  0  0  0  0  0  0  0  0  0  0
   50.9724  -11.1924   71.6051 C   0  0  0  0  0  0  0  0  0  0  0  0
   50.7322  -11.4986   70.2271 C   0  0  0  0  0  0  0  0  0  0  0  0
   49.5510  -12.3484   69.8767 C   0  0  0  0  0  0  0  0  0  0  0  0
   50.0691  -11.7720   72.6537 C   0  0  0  0  0  0  0  0  0  0  0  0
   48.9061  -12.5763   72.1921 C   0  0  0  0  0  0  0  0  0  0  0  0
   49.1347  -13.2664   70.9576 N   0  0  0  0  0  0  0  0  0  0  0  0
   48.1991  -14.2949   70.7041 C   0  0  0  0  0  0  0  0  0  0  0  0
   47.6557  -11.6941   72.0275 C   0  0  0  0  0  0  0  0  0  0  0  0
   47.7153  -10.8325   70.7521 C   0  0  0  0  0  0  0  0  0  0  0  0
   48.3820  -11.4960   69.5621 C   0  0  0  0  0  0  0  0  0  0  0  0
  1  2  2  0  0  0
  2  5  1  0  0  0
  2  3  1  0  0  0
  5  6  1  0  0  0
  5 14  2  0  0  0
  6  7  1  0  0  0
  6 11  2  0  0  0
  7  8  2  0  0  0
  8  9  1  0  0  0
  9 10  2  0  0  0
 10 11  1  0  0  0
 11 12  1  0  0  0
 12 13  1  0  0  0
 12 14  1  0  0  0
  3 15  1  0  0  0
 15 16  1  0  0  0
 15 18  1  0  0  0
 16 17  1  0  0  0
 17 20  1  0  0  0
 17 24  1  0  0  0
 18 19  1  0  0  0
 19 20  1  0  0  0
 19 22  1  0  0  0
 20 21  1  0  0  0
 22 23  1  0  0  0
 23 24  1  0  0  0
  3  4  1  0  0  0
M  END
> <minimizedAffinity>
-0.00035

$$$$
2YME_CWB_A_1207


 24 27  0  0  0  0  0  0  0  0999 V2000
   58.3297   -4.8410   69.5891 O   0  0  0  0  0  0  0  0  0  0  0  0
   57.0901   -4.9415   69.6531 C   0  0  0  0  0  0  0  0  0  0  0  0
   56.4388   -6.2208   69.9255 N   0  0  0  0  0  0  0  0  0  0  0  0
   55.4605   -6.2368   70.0338 H   0  0  0  0  0  0  0  0  0  0  0  0
   56.1979   -3.6841   69.5549 C   0  0  0  0  0  0  0  0  0  0  0  0
   54.9981   -3.5136   68.6866 C   0  0  0  0  0  0  0  0  0  0  0  0
   54.3276   -4.3262   67.7545 C   0  0  0  0  0  0  0  0  0  0  0  0
   53.1815   -3.8281   67.0894 C   0  0  0  0  0  0  0  0  0  0  0  0
   52.7154   -2.5225   67.3722 C   0  0  0  0  0  0  0  0  0  0  0  0
   53.3862   -1.7078   68.3136 C   0  0  0  0  0  0  0  0  0  0  0  0
   54.5278   -2.1954   68.9664 C   0  0  0  0  0  0  0  0  0  0  0  0
   55.3769   -1.6486   69.9153 N   0  0  0  0  0  0  0  0  0  0  0  0
   55.2576   -0.3008   70.4719 C   0  0  0  0  0  0  0  0  0  0  0  0
   56.3451   -2.5367   70.2480 N   0  0  0  0  0  0  0  0  0  0  0  0
   57.1751   -7.4777   70.0443 C   0  0  0  0  0  0  0  0  0  0  0  0
   57.1103   -8.0231   68.7219 C   0  0  0  0  0  0  0  0  0  0  0  0
   56.2864   -9.2513   68.4925 C   0  0  0  0  0  0  0  0  0  0  0  0
   56.4625   -8.1793   71.1630 C   0  0  0  0  0  0  0  0  0  0  0  0
   55.6461   -9.3736   70.8171 C   0  0  0  0  0  0  0  0  0  0  0  0
   56.1424  -10.1055   69.6900 N   0  0  0  0  0  0  0  0  0  0  0  0
   55.6041  -11.4078   69.5812 C   0  0  0  0  0  0  0  0  0  0  0  0
   54.1858   -8.9798   70.5320 C   0  0  0  0  0  0  0  0  0  0  0  0
   54.0201   -8.3208   69.1497 C   0  0  0  0  0  0  0  0  0  0  0  0
   54.9195   -8.8785   68.0629 C   0  0  0  0  0  0  0  0  0  0  0  0
  1  2  2  0  0  0
  2  5  1  0  0  0
  2  3  1  0  0  0
  5  6  1  0  0  0
  5 14  2  0  0  0
  6  7  1  0  0  0
  6 11  2  0  0  0
  7  8  2  0  0  0
  8  9  1  0  0  0
  9 10  2  0  0  0
 10 11  1  0  0  0
 11 12  1  0  0  0
 12 13  1  0  0  0
 12 14  1  0  0  0
  3 15  1  0  0  0
 15 16  1  0  0  0
 15 18  1  0  0  0
 16 17  1  0  0  0
 17 20  1  0  0  0
 17 24  1  0  0  0
 18 19  1  0  0  0
 19 20  1  0  0  0
 19 22  1  0  0  0
 20 21  1  0  0  0
 22 23  1  0  0  0
 23 24  1  0  0  0
  3  4  1  0  0  0
M  END
> <minimizedAffinity>
-0.00033

$$$$
2YME_CWB_A_1207


 24 27  0  0  0  0  0  0  0  0999 V2000
   52.2099   -4.2985   72.1514 O   0  0  0  0  0  0  0  0  0  0  0  0
   53.3864   -3.9731   71.9044 C   0  0  0  0  0  0  0  0  0  0  0  0
   54.3744   -4.9532   71.4594 N   0  0  0  0  0  0  0  0  0  0  0  0
   55.2729   -4.6360   71.2115 H   0  0  0  0  0  0  0  0  0  0  0  0
   53.8139   -2.4894   71.9553 C   0  0  0  0  0  0  0  0  0  0  0  0
   55.0087   -1.9342   72.6529 C   0  0  0  0  0  0  0  0  0  0  0  0
   56.0478   -2.4839   73.4256 C   0  0  0  0  0  0  0  0  0  0  0  0
   57.0521   -1.6361   73.9513 C   0  0  0  0  0  0  0  0  0  0  0  0
   57.0079   -0.2462   73.6897 C   0  0  0  0  0  0  0  0  0  0  0  0
   55.9666    0.3054   72.9080 C   0  0  0  0  0  0  0  0  0  0  0  0
   54.9648   -0.5312   72.3945 C   0  0  0  0  0  0  0  0  0  0  0  0
   53.8454   -0.2919   71.6135 N   0  0  0  0  0  0  0  0  0  0  0  0
   53.4219    1.0238   71.1336 C   0  0  0  0  0  0  0  0  0  0  0  0
   53.1878   -1.4507   71.3656 N   0  0  0  0  0  0  0  0  0  0  0  0
   54.0885   -6.3834   71.3659 C   0  0  0  0  0  0  0  0  0  0  0  0
   54.5357   -6.8913   72.6278 C   0  0  0  0  0  0  0  0  0  0  0  0
   55.7459   -7.7715   72.6583 C   0  0  0  0  0  0  0  0  0  0  0  0
   54.8104   -6.7886   70.1144 C   0  0  0  0  0  0  0  0  0  0  0  0
   56.0205   -7.6408   70.2632 C   0  0  0  0  0  0  0  0  0  0  0  0
   55.9773   -8.5115   71.4000 N   0  0  0  0  0  0  0  0  0  0  0  0
   56.9275   -9.5564   71.3471 C   0  0  0  0  0  0  0  0  0  0  0  0
   57.2925   -6.7802   70.3624 C   0  0  0  0  0  0  0  0  0  0  0  0
   57.4429   -6.1214   71.7466 C   0  0  0  0  0  0  0  0  0  0  0  0
   56.9605   -6.9639   72.9121 C   0  0  0  0  0  0  0  0  0  0  0  0
  1  2  2  0  0  0
  2  5  1  0  0  0
  2  3  1  0  0  0
  5  6  1  0  0  0
  5 14  2  0  0  0
  6  7  1  0  0  0
  6 11  2  0  0  0
  7  8  2  0  0  0
  8  9  1  0  0  0
  9 10  2  0  0  0
 10 11  1  0  0  0
 11 12  1  0  0  0
 12 13  1  0  0  0
 12 14  1  0  0  0
  3 15  1  0  0  0
 15 16  1  0  0  0
 15 18  1  0  0  0
 16 17  1  0  0  0
 17 20  1  0  0  0
 17 24  1  0  0  0
 18 19  1  0  0  0
 19 20  1  0  0  0
 19 22  1  0  0  0
 20 21  1  0  0  0
 22 23  1  0  0  0
 23 24  1  0  0  0
  3  4  1  0  0  0
M  END
> <minimizedAffinity>
-0.00033

$$$$
2YME_CWB_A_1207


 24 27  0  0  0  0  0  0  0  0999 V2000
   55.5850  -11.4197   71.4274 O   0  0  0  0  0  0  0  0  0  0  0  0
   56.6949  -10.9606   71.7566 C   0  0  0  0  0  0  0  0  0  0  0  0
   57.7368  -11.8116   72.3268 N   0  0  0  0  0  0  0  0  0  0  0  0
   58.6201  -11.4164   72.5079 H   0  0  0  0  0  0  0  0  0  0  0  0
   57.0468   -9.4843   71.4677 C   0  0  0  0  0  0  0  0  0  0  0  0
   57.6340   -8.5080   72.4292 C   0  0  0  0  0  0  0  0  0  0  0  0
   58.0269   -8.5625   73.7788 C   0  0  0  0  0  0  0  0  0  0  0  0
   58.5636   -7.4080   74.3980 C   0  0  0  0  0  0  0  0  0  0  0  0
   58.7078   -6.2130   73.6543 C   0  0  0  0  0  0  0  0  0  0  0  0
   58.3182   -6.1601   72.2959 C   0  0  0  0  0  0  0  0  0  0  0  0
   57.7768   -7.2997   71.6831 C   0  0  0  0  0  0  0  0  0  0  0  0
   57.3163   -7.5515   70.4006 N   0  0  0  0  0  0  0  0  0  0  0  0
   57.2746   -6.5708   69.3156 C   0  0  0  0  0  0  0  0  0  0  0  0
   56.8967   -8.8359   70.2948 N   0  0  0  0  0  0  0  0  0  0  0  0
   57.5261  -13.2235   72.6404 C   0  0  0  0  0  0  0  0  0  0  0  0
   57.1558  -13.2015   74.0234 C   0  0  0  0  0  0  0  0  0  0  0  0
   58.1096  -13.7647   75.0300 C   0  0  0  0  0  0  0  0  0  0  0  0
   58.8273  -13.8538   72.2391 C   0  0  0  0  0  0  0  0  0  0  0  0
   59.7136  -14.3534   73.3243 C   0  0  0  0  0  0  0  0  0  0  0  0
   59.0063  -14.8056   74.4852 N   0  0  0  0  0  0  0  0  0  0  0  0
   59.7918  -15.6001   75.3508 C   0  0  0  0  0  0  0  0  0  0  0  0
   60.7155  -13.2699   73.7610 C   0  0  0  0  0  0  0  0  0  0  0  0
   60.0570  -12.1876   74.6371 C   0  0  0  0  0  0  0  0  0  0  0  0
   58.9746  -12.6924   75.5723 C   0  0  0  0  0  0  0  0  0  0  0  0
  1  2  2  0  0  0
  2  5  1  0  0  0
  2  3  1  0  0  0
  5  6  1  0  0  0
  5 14  2  0  0  0
  6  7  1  0  0  0
  6 11  2  0  0  0
  7  8  2  0  0  0
  8  9  1  0  0  0
  9 10  2  0  0  0
 10 11  1  0  0  0
 11 12  1  0  0  0
 12 13  1  0  0  0
 12 14  1  0  0  0
  3 15  1  0  0  0
 15 16  1  0  0  0
 15 18  1  0  0  0
 16 17  1  0  0  0
 17 20  1  0  0  0
 17 24  1  0  0  0
 18 19  1  0  0  0
 19 20  1  0  0  0
 19 22  1  0  0  0
 20 21  1  0  0  0
 22 23  1  0  0  0
 23 24  1  0  0  0
  3  4  1  0  0  0
M  END
> <minimizedAffinity>
-0.00001

$$$$
