1HXW_RIT_B_301


 54 57  0  0  0  0  0  0  0  0999 V2000
   11.2573   23.6256    3.3961 C   0  0  0  0  0  0  0  0  0  0  0  0
   10.5703   24.5158    4.3048 N   0  0  0  0  0  0  0  0  0  0  0  0
   10.0056   24.1264    5.4540 C   0  0  0  0  0  0  0  0  0  0  0  0
    9.9708   22.9339    5.8205 O   0  0  0  0  0  0  0  0  0  0  0  0
   10.5144   25.4685    4.0630 H   0  0  0  0  0  0  0  0  0  0  0  0
    9.3154   25.2713    6.2184 C   0  0  0  0  0  0  0  0  0  0  0  0
    7.9996   25.5719    5.6526 N   0  0  0  0  0  0  0  0  0  0  0  0
    7.8988   26.4344    4.6275 C   0  0  0  0  0  0  0  0  0  0  0  0
    6.6824   26.4411    4.0358 N   0  0  0  0  0  0  0  0  0  0  0  0
    8.8045   27.2615    4.3927 O   0  0  0  0  0  0  0  0  0  0  0  0
    5.6466   25.6440    4.2565 C   0  0  0  0  0  0  0  0  0  0  0  0
    7.1929   25.1444    6.0210 H   0  0  0  0  0  0  0  0  0  0  0  0
    6.3802   27.4310    3.0021 C   0  0  0  0  0  0  0  0  0  0  0  0
    6.5313   26.9971    1.6093 C   0  0  0  0  0  0  0  0  0  0  0  0
    7.7346   27.2312    1.0048 C   0  0  0  0  0  0  0  0  0  0  0  0
    7.5991   26.5370   -0.6322 S   0  0  0  0  0  0  0  0  0  0  0  0
    5.9917   25.9366   -0.2163 C   0  0  0  0  0  0  0  0  0  0  0  0
    5.5965   26.4022    0.9307 N   0  0  0  0  0  0  0  0  0  0  0  0
    5.5677   25.1112   -1.2457 C   0  0  0  0  0  0  0  0  0  0  0  0
    4.8339   25.4604   -2.5339 C   0  0  0  0  0  0  0  0  0  0  0  0
    4.7518   24.0317   -0.6621 C   0  0  0  0  0  0  0  0  0  0  0  0
    9.1705   25.1020    7.7644 C   0  0  0  0  0  0  0  0  0  0  0  0
   10.4700   25.2202    8.6049 C   0  0  0  0  0  0  0  0  0  0  0  0
    8.0195   25.9549    8.3445 C   0  0  0  0  0  0  0  0  0  0  0  0
   10.7434   23.8189    2.0012 C   0  0  0  0  0  0  0  0  0  0  0  0
    9.4800   23.1123    1.9082 C   0  0  0  0  0  0  0  0  0  0  0  0
    9.5368   21.7135    1.7940 C   0  0  0  0  0  0  0  0  0  0  0  0
    8.3552   20.9481    1.7443 C   0  0  0  0  0  0  0  0  0  0  0  0
    7.1285   21.6114    1.8316 C   0  0  0  0  0  0  0  0  0  0  0  0
    7.0730   22.9978    1.9509 C   0  0  0  0  0  0  0  0  0  0  0  0
    8.2429   23.7600    1.9886 C   0  0  0  0  0  0  0  0  0  0  0  0
   12.7977   23.8418    3.3402 C   0  0  0  0  0  0  0  0  0  0  0  0
   13.5783   24.0481    4.6212 C   0  0  0  0  0  0  0  0  0  0  0  0
   14.9373   24.3020    4.3057 O   0  0  0  0  0  0  0  0  0  0  0  0
   15.3124   23.5328    3.8491 H   0  0  0  0  0  0  0  0  0  0  0  0
   13.6295   22.8008    5.5075 C   0  0  0  0  0  0  0  0  0  0  0  0
   13.6383   20.4886    4.5601 C   0  0  0  0  0  0  0  0  0  0  0  0
   12.4152   20.3175    4.6172 O   0  0  0  0  0  0  0  0  0  0  0  0
   14.2909   21.6223    4.9131 N   0  0  0  0  0  0  0  0  0  0  0  0
   15.2632   21.6626    4.7644 H   0  0  0  0  0  0  0  0  0  0  0  0
   14.5231   19.5091    4.0918 O   0  0  0  0  0  0  0  0  0  0  0  0
   15.7716   19.1986    4.6871 C   0  0  0  0  0  0  0  0  0  0  0  0
   17.9329   18.1501    3.6252 C   0  0  0  0  0  0  0  0  0  0  0  0
   16.6396   18.5875    3.7182 C   0  0  0  0  0  0  0  0  0  0  0  0
   15.6770   18.4442    2.2218 S   0  0  0  0  0  0  0  0  0  0  0  0
   17.1965   17.6385    1.7502 C   0  0  0  0  0  0  0  0  0  0  0  0
   18.2250   17.5702    2.5190 N   0  0  0  0  0  0  0  0  0  0  0  0
   13.8981   23.1042    6.9834 C   0  0  0  0  0  0  0  0  0  0  0  0
   14.5739   22.1387    7.8202 C   0  0  0  0  0  0  0  0  0  0  0  0
   13.6706   21.6419    8.7662 C   0  0  0  0  0  0  0  0  0  0  0  0
   14.0884   20.5824    9.5874 C   0  0  0  0  0  0  0  0  0  0  0  0
   15.3712   20.0175    9.4782 C   0  0  0  0  0  0  0  0  0  0  0  0
   16.2749   20.5504    8.5334 C   0  0  0  0  0  0  0  0  0  0  0  0
   15.8788   21.6072    7.7078 C   0  0  0  0  0  0  0  0  0  0  0  0
 43 44  2  0  0  0
 43 47  1  0  0  0
 44 45  1  0  0  0
 44 42  1  0  0  0
 45 46  1  0  0  0
 46 47  2  0  0  0
 42 41  1  0  0  0
 41 37  1  0  0  0
 37 39  1  0  0  0
 37 38  2  0  0  0
 39 36  1  0  0  0
 36 33  1  0  0  0
 36 48  1  0  0  0
 33 32  1  0  0  0
 33 34  1  0  0  0
 32  1  1  0  0  0
  1 25  1  0  0  0
  1  2  1  0  0  0
  3  6  1  0  0  0
  3  2  1  0  0  0
  3  4  2  0  0  0
  6  7  1  0  0  0
  6 22  1  0  0  0
  7  8  1  0  0  0
  8  9  1  0  0  0
  8 10  2  0  0  0
 48 49  1  0  0  0
 49 50  2  0  0  0
 49 54  1  0  0  0
 50 51  1  0  0  0
 51 52  2  0  0  0
 52 53  1  0  0  0
 53 54  2  0  0  0
 25 26  1  0  0  0
 26 27  2  0  0  0
 26 31  1  0  0  0
 27 28  1  0  0  0
 28 29  2  0  0  0
 29 30  1  0  0  0
 30 31  2  0  0  0
 22 23  1  0  0  0
 22 24  1  0  0  0
  9 13  1  0  0  0
  9 11  1  0  0  0
 13 14  1  0  0  0
 14 15  2  0  0  0
 14 18  1  0  0  0
 15 16  1  0  0  0
 16 17  1  0  0  0
 17 18  2  0  0  0
 17 19  1  0  0  0
 19 20  1  0  0  0
 19 21  1  0  0  0
 39 40  1  0  0  0
 34 35  1  0  0  0
  2  5  1  0  0  0
  7 12  1  0  0  0
M  END
> <minimizedAffinity>
-10.35035

$$$$
1HXW_RIT_B_301


 54 57  0  0  0  0  0  0  0  0999 V2000
   11.2483   23.6027    3.4231 C   0  0  0  0  0  0  0  0  0  0  0  0
   10.5644   24.5163    4.3107 N   0  0  0  0  0  0  0  0  0  0  0  0
   10.0022   24.1567    5.4707 C   0  0  0  0  0  0  0  0  0  0  0  0
    9.9672   22.9739    5.8674 O   0  0  0  0  0  0  0  0  0  0  0  0
   10.5087   25.4626    4.0449 H   0  0  0  0  0  0  0  0  0  0  0  0
    9.3149   25.3213    6.2076 C   0  0  0  0  0  0  0  0  0  0  0  0
    8.0001   25.6119    5.6344 N   0  0  0  0  0  0  0  0  0  0  0  0
    7.8992   26.4700    4.6056 C   0  0  0  0  0  0  0  0  0  0  0  0
    6.6855   26.4673    4.0080 N   0  0  0  0  0  0  0  0  0  0  0  0
    8.8011   27.3015    4.3719 O   0  0  0  0  0  0  0  0  0  0  0  0
    5.6534   25.6649    4.2268 C   0  0  0  0  0  0  0  0  0  0  0  0
    7.1942   25.1811    6.0006 H   0  0  0  0  0  0  0  0  0  0  0  0
    6.3826   27.4514    2.9692 C   0  0  0  0  0  0  0  0  0  0  0  0
    6.5393   27.0121    1.5787 C   0  0  0  0  0  0  0  0  0  0  0  0
    7.7734   27.1561    1.0091 C   0  0  0  0  0  0  0  0  0  0  0  0
    7.6317   26.4797   -0.6348 S   0  0  0  0  0  0  0  0  0  0  0  0
    5.9724   26.0018   -0.2670 C   0  0  0  0  0  0  0  0  0  0  0  0
    5.5815   26.4922    0.8711 N   0  0  0  0  0  0  0  0  0  0  0  0
    5.5160   25.2145   -1.3123 C   0  0  0  0  0  0  0  0  0  0  0  0
    4.4948   25.5326   -2.3966 C   0  0  0  0  0  0  0  0  0  0  0  0
    5.0418   23.9368   -0.7516 C   0  0  0  0  0  0  0  0  0  0  0  0
    9.1691   25.1890    7.7571 C   0  0  0  0  0  0  0  0  0  0  0  0
   10.4809   25.2102    8.5865 C   0  0  0  0  0  0  0  0  0  0  0  0
    8.0990   26.1450    8.3313 C   0  0  0  0  0  0  0  0  0  0  0  0
   10.7461   23.7760    2.0213 C   0  0  0  0  0  0  0  0  0  0  0  0
    9.4824   23.0699    1.9284 C   0  0  0  0  0  0  0  0  0  0  0  0
    9.5393   21.6744    1.7791 C   0  0  0  0  0  0  0  0  0  0  0  0
    8.3580   20.9087    1.7269 C   0  0  0  0  0  0  0  0  0  0  0  0
    7.1318   21.5677    1.8474 C   0  0  0  0  0  0  0  0  0  0  0  0
    7.0763   22.9507    2.0016 C   0  0  0  0  0  0  0  0  0  0  0  0
    8.2457   23.7135    2.0418 C   0  0  0  0  0  0  0  0  0  0  0  0
   12.7912   23.8019    3.3743 C   0  0  0  0  0  0  0  0  0  0  0  0
   13.6172   23.6126    4.6292 C   0  0  0  0  0  0  0  0  0  0  0  0
   14.8197   24.3553    4.5148 O   0  0  0  0  0  0  0  0  0  0  0  0
   15.3363   24.0207    3.7651 H   0  0  0  0  0  0  0  0  0  0  0  0
   14.0892   22.1705    4.8325 C   0  0  0  0  0  0  0  0  0  0  0  0
   13.9452   21.6566    7.2736 C   0  0  0  0  0  0  0  0  0  0  0  0
   12.7109   21.6086    7.3262 O   0  0  0  0  0  0  0  0  0  0  0  0
   14.6766   21.8716    6.1535 N   0  0  0  0  0  0  0  0  0  0  0  0
   15.6574   21.8258    6.2248 H   0  0  0  0  0  0  0  0  0  0  0  0
   14.7629   21.4701    8.3953 O   0  0  0  0  0  0  0  0  0  0  0  0
   14.8462   20.2682    9.1423 C   0  0  0  0  0  0  0  0  0  0  0  0
   17.0880   19.6627    7.9152 C   0  0  0  0  0  0  0  0  0  0  0  0
   16.0444   19.5552    8.7939 C   0  0  0  0  0  0  0  0  0  0  0  0
   16.0625   18.0976    9.8242 S   0  0  0  0  0  0  0  0  0  0  0  0
   17.6226   17.9547    8.9720 C   0  0  0  0  0  0  0  0  0  0  0  0
   18.0024   18.7743    8.0569 N   0  0  0  0  0  0  0  0  0  0  0  0
   13.1626   21.1249    4.2076 C   0  0  0  0  0  0  0  0  0  0  0  0
   13.7037   19.9136    3.6339 C   0  0  0  0  0  0  0  0  0  0  0  0
   14.2040   20.1958    2.3581 C   0  0  0  0  0  0  0  0  0  0  0  0
   14.9058   19.1837    1.6838 C   0  0  0  0  0  0  0  0  0  0  0  0
   15.1161   17.9165    2.2552 C   0  0  0  0  0  0  0  0  0  0  0  0
   14.5815   17.6455    3.5336 C   0  0  0  0  0  0  0  0  0  0  0  0
   13.8774   18.6394    4.2204 C   0  0  0  0  0  0  0  0  0  0  0  0
 43 44  2  0  0  0
 43 47  1  0  0  0
 44 45  1  0  0  0
 44 42  1  0  0  0
 45 46  1  0  0  0
 46 47  2  0  0  0
 42 41  1  0  0  0
 41 37  1  0  0  0
 37 39  1  0  0  0
 37 38  2  0  0  0
 39 36  1  0  0  0
 36 33  1  0  0  0
 36 48  1  0  0  0
 33 32  1  0  0  0
 33 34  1  0  0  0
 32  1  1  0  0  0
  1 25  1  0  0  0
  1  2  1  0  0  0
  3  6  1  0  0  0
  3  2  1  0  0  0
  3  4  2  0  0  0
  6  7  1  0  0  0
  6 22  1  0  0  0
  7  8  1  0  0  0
  8  9  1  0  0  0
  8 10  2  0  0  0
 48 49  1  0  0  0
 49 50  2  0  0  0
 49 54  1  0  0  0
 50 51  1  0  0  0
 51 52  2  0  0  0
 52 53  1  0  0  0
 53 54  2  0  0  0
 25 26  1  0  0  0
 26 27  2  0  0  0
 26 31  1  0  0  0
 27 28  1  0  0  0
 28 29  2  0  0  0
 29 30  1  0  0  0
 30 31  2  0  0  0
 22 23  1  0  0  0
 22 24  1  0  0  0
  9 13  1  0  0  0
  9 11  1  0  0  0
 13 14  1  0  0  0
 14 15  2  0  0  0
 14 18  1  0  0  0
 15 16  1  0  0  0
 16 17  1  0  0  0
 17 18  2  0  0  0
 17 19  1  0  0  0
 19 20  1  0  0  0
 19 21  1  0  0  0
 39 40  1  0  0  0
 34 35  1  0  0  0
  2  5  1  0  0  0
  7 12  1  0  0  0
M  END
> <minimizedAffinity>
-10.19319

$$$$
1HXW_RIT_B_301


 54 57  0  0  0  0  0  0  0  0999 V2000
   11.8784   24.2378    6.7887 C   0  0  0  0  0  0  0  0  0  0  0  0
   11.0752   24.1994    5.5871 N   0  0  0  0  0  0  0  0  0  0  0  0
   10.3889   23.1262    5.1768 C   0  0  0  0  0  0  0  0  0  0  0  0
   10.4282   22.0300    5.7720 O   0  0  0  0  0  0  0  0  0  0  0  0
   11.0303   25.0140    5.0361 H   0  0  0  0  0  0  0  0  0  0  0  0
    9.6395   23.3466    3.8496 C   0  0  0  0  0  0  0  0  0  0  0  0
    9.2327   24.7437    3.6937 N   0  0  0  0  0  0  0  0  0  0  0  0
    7.9936   25.0302    3.2608 C   0  0  0  0  0  0  0  0  0  0  0  0
    7.6553   26.3333    3.3936 N   0  0  0  0  0  0  0  0  0  0  0  0
    7.3200   24.1845    2.6359 O   0  0  0  0  0  0  0  0  0  0  0  0
    8.3267   27.3096    3.9876 C   0  0  0  0  0  0  0  0  0  0  0  0
    9.8634   25.4695    3.9050 H   0  0  0  0  0  0  0  0  0  0  0  0
    6.3950   26.8198    2.8328 C   0  0  0  0  0  0  0  0  0  0  0  0
    5.3353   27.1589    3.7883 C   0  0  0  0  0  0  0  0  0  0  0  0
    4.7499   26.1288    4.4698 C   0  0  0  0  0  0  0  0  0  0  0  0
    3.5684   26.8843    5.5713 S   0  0  0  0  0  0  0  0  0  0  0  0
    4.1218   28.4724    5.0337 C   0  0  0  0  0  0  0  0  0  0  0  0
    4.9341   28.3720    4.0244 N   0  0  0  0  0  0  0  0  0  0  0  0
    3.5297   29.4257    5.8469 C   0  0  0  0  0  0  0  0  0  0  0  0
    2.9597   29.2878    7.2525 C   0  0  0  0  0  0  0  0  0  0  0  0
    2.4370   30.0609    5.0890 C   0  0  0  0  0  0  0  0  0  0  0  0
   10.3635   22.8858    2.5445 C   0  0  0  0  0  0  0  0  0  0  0  0
   11.7366   23.5417    2.2386 C   0  0  0  0  0  0  0  0  0  0  0  0
   10.4074   21.3469    2.4080 C   0  0  0  0  0  0  0  0  0  0  0  0
   11.0160   23.9961    7.9908 C   0  0  0  0  0  0  0  0  0  0  0  0
   10.1155   25.1274    8.1068 C   0  0  0  0  0  0  0  0  0  0  0  0
    8.7386   24.8578    8.0408 C   0  0  0  0  0  0  0  0  0  0  0  0
    7.7957   25.8938    8.1902 C   0  0  0  0  0  0  0  0  0  0  0  0
    8.2624   27.1896    8.4255 C   0  0  0  0  0  0  0  0  0  0  0  0
    9.6277   27.4552    8.4969 C   0  0  0  0  0  0  0  0  0  0  0  0
   10.5648   26.4318    8.3374 C   0  0  0  0  0  0  0  0  0  0  0  0
   13.0115   23.1715    6.8282 C   0  0  0  0  0  0  0  0  0  0  0  0
   14.2502   23.3539    5.9766 C   0  0  0  0  0  0  0  0  0  0  0  0
   13.9474   24.2090    4.8866 O   0  0  0  0  0  0  0  0  0  0  0  0
   13.2640   23.7987    4.3339 H   0  0  0  0  0  0  0  0  0  0  0  0
   14.7251   22.0590    5.3121 C   0  0  0  0  0  0  0  0  0  0  0  0
   15.5508   20.6060    7.1698 C   0  0  0  0  0  0  0  0  0  0  0  0
   14.4471   20.4242    7.6962 O   0  0  0  0  0  0  0  0  0  0  0  0
   15.7746   21.3169    6.0382 N   0  0  0  0  0  0  0  0  0  0  0  0
   16.6910   21.3398    5.6791 H   0  0  0  0  0  0  0  0  0  0  0  0
   16.7374   20.0676    7.6835 O   0  0  0  0  0  0  0  0  0  0  0  0
   17.9252   19.8723    6.9348 C   0  0  0  0  0  0  0  0  0  0  0  0
   18.3998   17.3069    7.2377 C   0  0  0  0  0  0  0  0  0  0  0  0
   18.0789   18.4804    6.6112 C   0  0  0  0  0  0  0  0  0  0  0  0
   17.7994   18.3542    4.8527 S   0  0  0  0  0  0  0  0  0  0  0  0
   18.0150   16.6429    5.3062 C   0  0  0  0  0  0  0  0  0  0  0  0
   18.3146   16.2628    6.4975 N   0  0  0  0  0  0  0  0  0  0  0  0
   13.6000   21.2531    4.6586 C   0  0  0  0  0  0  0  0  0  0  0  0
   13.8963   20.0545    3.9072 C   0  0  0  0  0  0  0  0  0  0  0  0
   14.2890   20.4117    2.6126 C   0  0  0  0  0  0  0  0  0  0  0  0
   14.7608   19.3997    1.7614 C   0  0  0  0  0  0  0  0  0  0  0  0
   14.8493   18.0594    2.1765 C   0  0  0  0  0  0  0  0  0  0  0  0
   14.4248   17.7173    3.4789 C   0  0  0  0  0  0  0  0  0  0  0  0
   13.9495   18.7103    4.3411 C   0  0  0  0  0  0  0  0  0  0  0  0
 43 44  2  0  0  0
 43 47  1  0  0  0
 44 45  1  0  0  0
 44 42  1  0  0  0
 45 46  1  0  0  0
 46 47  2  0  0  0
 42 41  1  0  0  0
 41 37  1  0  0  0
 37 39  1  0  0  0
 37 38  2  0  0  0
 39 36  1  0  0  0
 36 33  1  0  0  0
 36 48  1  0  0  0
 33 32  1  0  0  0
 33 34  1  0  0  0
 32  1  1  0  0  0
  1 25  1  0  0  0
  1  2  1  0  0  0
  3  6  1  0  0  0
  3  2  1  0  0  0
  3  4  2  0  0  0
  6  7  1  0  0  0
  6 22  1  0  0  0
  7  8  1  0  0  0
  8  9  1  0  0  0
  8 10  2  0  0  0
 48 49  1  0  0  0
 49 50  2  0  0  0
 49 54  1  0  0  0
 50 51  1  0  0  0
 51 52  2  0  0  0
 52 53  1  0  0  0
 53 54  2  0  0  0
 25 26  1  0  0  0
 26 27  2  0  0  0
 26 31  1  0  0  0
 27 28  1  0  0  0
 28 29  2  0  0  0
 29 30  1  0  0  0
 30 31  2  0  0  0
 22 23  1  0  0  0
 22 24  1  0  0  0
  9 13  1  0  0  0
  9 11  1  0  0  0
 13 14  1  0  0  0
 14 15  2  0  0  0
 14 18  1  0  0  0
 15 16  1  0  0  0
 16 17  1  0  0  0
 17 18  2  0  0  0
 17 19  1  0  0  0
 19 20  1  0  0  0
 19 21  1  0  0  0
 39 40  1  0  0  0
 34 35  1  0  0  0
  2  5  1  0  0  0
  7 12  1  0  0  0
M  END
> <minimizedAffinity>
-9.20203

$$$$
1HXW_RIT_B_301


 54 57  0  0  0  0  0  0  0  0999 V2000
   10.6547   24.3622    4.4726 C   0  0  0  0  0  0  0  0  0  0  0  0
    9.6912   24.5229    3.4068 N   0  0  0  0  0  0  0  0  0  0  0  0
    8.8174   25.5337    3.3305 C   0  0  0  0  0  0  0  0  0  0  0  0
    8.7159   26.4081    4.2152 O   0  0  0  0  0  0  0  0  0  0  0  0
    9.6769   23.8460    2.6920 H   0  0  0  0  0  0  0  0  0  0  0  0
    7.8855   25.4495    2.1074 C   0  0  0  0  0  0  0  0  0  0  0  0
    6.5352   25.0388    2.4941 N   0  0  0  0  0  0  0  0  0  0  0  0
    6.2289   23.7319    2.5495 C   0  0  0  0  0  0  0  0  0  0  0  0
    5.0453   23.4725    3.1511 N   0  0  0  0  0  0  0  0  0  0  0  0
    6.9093   22.8860    1.9324 O   0  0  0  0  0  0  0  0  0  0  0  0
    4.2313   24.3092    3.7789 C   0  0  0  0  0  0  0  0  0  0  0  0
    5.8551   25.7164    2.7125 H   0  0  0  0  0  0  0  0  0  0  0  0
    4.5130   22.1101    3.1549 C   0  0  0  0  0  0  0  0  0  0  0  0
    3.4683   21.8075    2.1709 C   0  0  0  0  0  0  0  0  0  0  0  0
    2.3741   21.1151    2.6084 C   0  0  0  0  0  0  0  0  0  0  0  0
    1.2931   20.9728    1.1973 S   0  0  0  0  0  0  0  0  0  0  0  0
    2.4201   21.9634    0.2669 C   0  0  0  0  0  0  0  0  0  0  0  0
    3.5234   22.1651    0.9230 N   0  0  0  0  0  0  0  0  0  0  0  0
    1.8173   22.2689   -0.9431 C   0  0  0  0  0  0  0  0  0  0  0  0
    2.4127   22.3098   -2.3444 C   0  0  0  0  0  0  0  0  0  0  0  0
    1.1545   23.5782   -0.8082 C   0  0  0  0  0  0  0  0  0  0  0  0
    7.7850   26.7219    1.2070 C   0  0  0  0  0  0  0  0  0  0  0  0
    8.9909   27.6985    1.2407 C   0  0  0  0  0  0  0  0  0  0  0  0
    7.3430   26.3884   -0.2359 C   0  0  0  0  0  0  0  0  0  0  0  0
   10.1247   23.4133    5.5052 C   0  0  0  0  0  0  0  0  0  0  0  0
    9.9961   24.1564    6.7443 C   0  0  0  0  0  0  0  0  0  0  0  0
    8.7029   24.5586    7.1171 C   0  0  0  0  0  0  0  0  0  0  0  0
    8.4850   25.2445    8.3281 C   0  0  0  0  0  0  0  0  0  0  0  0
    9.5813   25.4964    9.1569 C   0  0  0  0  0  0  0  0  0  0  0  0
   10.8623   25.0920    8.7895 C   0  0  0  0  0  0  0  0  0  0  0  0
   11.0828   24.4221    7.5838 C   0  0  0  0  0  0  0  0  0  0  0  0
   12.0275   23.7961    4.0063 C   0  0  0  0  0  0  0  0  0  0  0  0
   13.2834   24.1227    4.7865 C   0  0  0  0  0  0  0  0  0  0  0  0
   14.1682   24.8624    3.9614 O   0  0  0  0  0  0  0  0  0  0  0  0
   14.4245   24.3231    3.1969 H   0  0  0  0  0  0  0  0  0  0  0  0
   14.0917   22.8836    5.1807 C   0  0  0  0  0  0  0  0  0  0  0  0
   14.1549   20.7841    3.8273 C   0  0  0  0  0  0  0  0  0  0  0  0
   13.2783   20.1893    4.4646 O   0  0  0  0  0  0  0  0  0  0  0  0
   14.5723   22.0520    4.0596 N   0  0  0  0  0  0  0  0  0  0  0  0
   15.2350   22.4416    3.4446 H   0  0  0  0  0  0  0  0  0  0  0  0
   14.8304   20.2095    2.7432 O   0  0  0  0  0  0  0  0  0  0  0  0
   15.0850   18.8230    2.5943 C   0  0  0  0  0  0  0  0  0  0  0  0
   17.1702   18.8369    4.1911 C   0  0  0  0  0  0  0  0  0  0  0  0
   16.3820   18.5019    3.1238 C   0  0  0  0  0  0  0  0  0  0  0  0
   17.1199   17.3711    1.9563 S   0  0  0  0  0  0  0  0  0  0  0  0
   18.3563   17.4193    3.2407 C   0  0  0  0  0  0  0  0  0  0  0  0
   18.2696   18.1811    4.2729 N   0  0  0  0  0  0  0  0  0  0  0  0
   15.0413   23.1163    6.3582 C   0  0  0  0  0  0  0  0  0  0  0  0
   15.1503   22.1391    7.4177 C   0  0  0  0  0  0  0  0  0  0  0  0
   13.9834   22.1689    8.1890 C   0  0  0  0  0  0  0  0  0  0  0  0
   13.8245   21.1936    9.1865 C   0  0  0  0  0  0  0  0  0  0  0  0
   14.7943   20.2028    9.4196 C   0  0  0  0  0  0  0  0  0  0  0  0
   15.9752   20.2062    8.6458 C   0  0  0  0  0  0  0  0  0  0  0  0
   16.1535   21.1707    7.6491 C   0  0  0  0  0  0  0  0  0  0  0  0
 43 44  2  0  0  0
 43 47  1  0  0  0
 44 45  1  0  0  0
 44 42  1  0  0  0
 45 46  1  0  0  0
 46 47  2  0  0  0
 42 41  1  0  0  0
 41 37  1  0  0  0
 37 39  1  0  0  0
 37 38  2  0  0  0
 39 36  1  0  0  0
 36 33  1  0  0  0
 36 48  1  0  0  0
 33 32  1  0  0  0
 33 34  1  0  0  0
 32  1  1  0  0  0
  1 25  1  0  0  0
  1  2  1  0  0  0
  3  6  1  0  0  0
  3  2  1  0  0  0
  3  4  2  0  0  0
  6  7  1  0  0  0
  6 22  1  0  0  0
  7  8  1  0  0  0
  8  9  1  0  0  0
  8 10  2  0  0  0
 48 49  1  0  0  0
 49 50  2  0  0  0
 49 54  1  0  0  0
 50 51  1  0  0  0
 51 52  2  0  0  0
 52 53  1  0  0  0
 53 54  2  0  0  0
 25 26  1  0  0  0
 26 27  2  0  0  0
 26 31  1  0  0  0
 27 28  1  0  0  0
 28 29  2  0  0  0
 29 30  1  0  0  0
 30 31  2  0  0  0
 22 23  1  0  0  0
 22 24  1  0  0  0
  9 13  1  0  0  0
  9 11  1  0  0  0
 13 14  1  0  0  0
 14 15  2  0  0  0
 14 18  1  0  0  0
 15 16  1  0  0  0
 16 17  1  0  0  0
 17 18  2  0  0  0
 17 19  1  0  0  0
 19 20  1  0  0  0
 19 21  1  0  0  0
 39 40  1  0  0  0
 34 35  1  0  0  0
  2  5  1  0  0  0
  7 12  1  0  0  0
M  END
> <minimizedAffinity>
-9.06199

$$$$
1HXW_RIT_B_301


 54 57  0  0  0  0  0  0  0  0999 V2000
   12.4719   23.4187    5.0612 C   0  0  0  0  0  0  0  0  0  0  0  0
   11.5565   24.4626    5.4644 N   0  0  0  0  0  0  0  0  0  0  0  0
   10.3543   24.2383    6.0081 C   0  0  0  0  0  0  0  0  0  0  0  0
    9.8858   23.0922    6.1641 O   0  0  0  0  0  0  0  0  0  0  0  0
   11.8351   25.3973    5.3306 H   0  0  0  0  0  0  0  0  0  0  0  0
    9.5705   25.5270    6.3189 C   0  0  0  0  0  0  0  0  0  0  0  0
    8.2678   25.5316    5.6521 N   0  0  0  0  0  0  0  0  0  0  0  0
    7.9953   26.4735    4.7337 C   0  0  0  0  0  0  0  0  0  0  0  0
    6.8742   26.2303    4.0167 N   0  0  0  0  0  0  0  0  0  0  0  0
    8.6375   27.5440    4.7015 O   0  0  0  0  0  0  0  0  0  0  0  0
    6.1001   25.1544    4.0243 C   0  0  0  0  0  0  0  0  0  0  0  0
    7.5950   24.8484    5.8752 H   0  0  0  0  0  0  0  0  0  0  0  0
    6.3733   27.2387    3.0831 C   0  0  0  0  0  0  0  0  0  0  0  0
    6.5656   26.9681    1.6545 C   0  0  0  0  0  0  0  0  0  0  0  0
    7.8187   27.1562    1.1420 C   0  0  0  0  0  0  0  0  0  0  0  0
    7.7167   26.6868   -0.5753 S   0  0  0  0  0  0  0  0  0  0  0  0
    6.0396   26.2001   -0.3158 C   0  0  0  0  0  0  0  0  0  0  0  0
    5.6219   26.5565    0.8619 N   0  0  0  0  0  0  0  0  0  0  0  0
    5.6031   25.5542   -1.4617 C   0  0  0  0  0  0  0  0  0  0  0  0
    4.6997   26.0588   -2.5793 C   0  0  0  0  0  0  0  0  0  0  0  0
    4.9826   24.2788   -1.0618 C   0  0  0  0  0  0  0  0  0  0  0  0
    9.3645   25.8824    7.8259 C   0  0  0  0  0  0  0  0  0  0  0  0
    9.3118   27.3910    8.1869 C   0  0  0  0  0  0  0  0  0  0  0  0
    8.2029   25.0877    8.4645 C   0  0  0  0  0  0  0  0  0  0  0  0
   12.7854   23.5465    3.6009 C   0  0  0  0  0  0  0  0  0  0  0  0
   11.6067   23.1206    2.8705 C   0  0  0  0  0  0  0  0  0  0  0  0
   11.1471   21.8141    3.1047 C   0  0  0  0  0  0  0  0  0  0  0  0
    9.9829   21.3376    2.4705 C   0  0  0  0  0  0  0  0  0  0  0  0
    9.2870   22.2013    1.6207 C   0  0  0  0  0  0  0  0  0  0  0  0
    9.7400   23.4985    1.3938 C   0  0  0  0  0  0  0  0  0  0  0  0
   10.9004   23.9695    2.0122 C   0  0  0  0  0  0  0  0  0  0  0  0
   13.8331   23.4428    5.8157 C   0  0  0  0  0  0  0  0  0  0  0  0
   14.1145   22.4224    6.8985 C   0  0  0  0  0  0  0  0  0  0  0  0
   15.1123   22.9278    7.7702 O   0  0  0  0  0  0  0  0  0  0  0  0
   15.9337   23.0695    7.2740 H   0  0  0  0  0  0  0  0  0  0  0  0
   14.7145   21.1198    6.3628 C   0  0  0  0  0  0  0  0  0  0  0  0
   16.7178   19.7635    6.9884 C   0  0  0  0  0  0  0  0  0  0  0  0
   17.2744   19.8336    5.8868 O   0  0  0  0  0  0  0  0  0  0  0  0
   15.5469   20.3608    7.3171 N   0  0  0  0  0  0  0  0  0  0  0  0
   15.2327   20.2842    8.2470 H   0  0  0  0  0  0  0  0  0  0  0  0
   17.2549   19.0526    8.0690 O   0  0  0  0  0  0  0  0  0  0  0  0
   16.6055   18.8666    9.3153 C   0  0  0  0  0  0  0  0  0  0  0  0
   15.9343   16.6032   10.4661 C   0  0  0  0  0  0  0  0  0  0  0  0
   16.6388   17.4780    9.6844 C   0  0  0  0  0  0  0  0  0  0  0  0
   18.0786   16.7935    8.8814 S   0  0  0  0  0  0  0  0  0  0  0  0
   17.3670   15.3446    9.6396 C   0  0  0  0  0  0  0  0  0  0  0  0
   16.3282   15.3844   10.3965 N   0  0  0  0  0  0  0  0  0  0  0  0
   13.7666   20.3321    5.4554 C   0  0  0  0  0  0  0  0  0  0  0  0
   14.2368   19.7803    4.2049 C   0  0  0  0  0  0  0  0  0  0  0  0
   14.4028   18.3985    4.3486 C   0  0  0  0  0  0  0  0  0  0  0  0
   14.7164   17.6473    3.2046 C   0  0  0  0  0  0  0  0  0  0  0  0
   14.8605   18.2432    1.9395 C   0  0  0  0  0  0  0  0  0  0  0  0
   14.7127   19.6424    1.8218 C   0  0  0  0  0  0  0  0  0  0  0  0
   14.4027   20.4086    2.9497 C   0  0  0  0  0  0  0  0  0  0  0  0
 43 44  2  0  0  0
 43 47  1  0  0  0
 44 45  1  0  0  0
 44 42  1  0  0  0
 45 46  1  0  0  0
 46 47  2  0  0  0
 42 41  1  0  0  0
 41 37  1  0  0  0
 37 39  1  0  0  0
 37 38  2  0  0  0
 39 36  1  0  0  0
 36 33  1  0  0  0
 36 48  1  0  0  0
 33 32  1  0  0  0
 33 34  1  0  0  0
 32  1  1  0  0  0
  1 25  1  0  0  0
  1  2  1  0  0  0
  3  6  1  0  0  0
  3  2  1  0  0  0
  3  4  2  0  0  0
  6  7  1  0  0  0
  6 22  1  0  0  0
  7  8  1  0  0  0
  8  9  1  0  0  0
  8 10  2  0  0  0
 48 49  1  0  0  0
 49 50  2  0  0  0
 49 54  1  0  0  0
 50 51  1  0  0  0
 51 52  2  0  0  0
 52 53  1  0  0  0
 53 54  2  0  0  0
 25 26  1  0  0  0
 26 27  2  0  0  0
 26 31  1  0  0  0
 27 28  1  0  0  0
 28 29  2  0  0  0
 29 30  1  0  0  0
 30 31  2  0  0  0
 22 23  1  0  0  0
 22 24  1  0  0  0
  9 13  1  0  0  0
  9 11  1  0  0  0
 13 14  1  0  0  0
 14 15  2  0  0  0
 14 18  1  0  0  0
 15 16  1  0  0  0
 16 17  1  0  0  0
 17 18  2  0  0  0
 17 19  1  0  0  0
 19 20  1  0  0  0
 19 21  1  0  0  0
 39 40  1  0  0  0
 34 35  1  0  0  0
  2  5  1  0  0  0
  7 12  1  0  0  0
M  END
> <minimizedAffinity>
-9.02653

$$$$
1HXW_RIT_B_301


 54 57  0  0  0  0  0  0  0  0999 V2000
   11.5351   24.3427    5.9247 C   0  0  0  0  0  0  0  0  0  0  0  0
   10.6179   23.7821    4.9579 N   0  0  0  0  0  0  0  0  0  0  0  0
    9.6701   24.4851    4.3265 C   0  0  0  0  0  0  0  0  0  0  0  0
    9.4527   25.6912    4.5622 O   0  0  0  0  0  0  0  0  0  0  0  0
   10.6954   22.8227    4.7510 H   0  0  0  0  0  0  0  0  0  0  0  0
    8.8124   23.6379    3.3683 C   0  0  0  0  0  0  0  0  0  0  0  0
    7.9601   24.4817    2.5297 N   0  0  0  0  0  0  0  0  0  0  0  0
    6.6247   24.4144    2.6604 C   0  0  0  0  0  0  0  0  0  0  0  0
    5.9618   25.4049    2.0205 N   0  0  0  0  0  0  0  0  0  0  0  0
    6.0794   23.4168    3.1770 O   0  0  0  0  0  0  0  0  0  0  0  0
    6.4536   26.4675    1.3994 C   0  0  0  0  0  0  0  0  0  0  0  0
    8.3630   25.0951    1.8734 H   0  0  0  0  0  0  0  0  0  0  0  0
    4.5009   25.3787    1.9528 C   0  0  0  0  0  0  0  0  0  0  0  0
    3.7783   25.6111    3.2078 C   0  0  0  0  0  0  0  0  0  0  0  0
    2.5310   25.0648    3.3256 C   0  0  0  0  0  0  0  0  0  0  0  0
    1.9712   25.4813    4.9667 S   0  0  0  0  0  0  0  0  0  0  0  0
    3.5407   26.2243    5.2853 C   0  0  0  0  0  0  0  0  0  0  0  0
    4.2581   26.2934    4.2040 N   0  0  0  0  0  0  0  0  0  0  0  0
    3.5926   26.5451    6.6326 C   0  0  0  0  0  0  0  0  0  0  0  0
    2.7626   27.5442    7.4280 C   0  0  0  0  0  0  0  0  0  0  0  0
    4.9825   26.9038    6.9659 C   0  0  0  0  0  0  0  0  0  0  0  0
    9.5689   22.6222    2.4539 C   0  0  0  0  0  0  0  0  0  0  0  0
    8.7496   21.4153    1.9235 C   0  0  0  0  0  0  0  0  0  0  0  0
   10.3699   23.3228    1.3331 C   0  0  0  0  0  0  0  0  0  0  0  0
   11.1171   23.9582    7.3121 C   0  0  0  0  0  0  0  0  0  0  0  0
   10.2164   24.9900    7.7898 C   0  0  0  0  0  0  0  0  0  0  0  0
    8.8669   24.6355    7.9517 C   0  0  0  0  0  0  0  0  0  0  0  0
    7.9353   25.5651    8.4543 C   0  0  0  0  0  0  0  0  0  0  0  0
    8.3895   26.8388    8.8060 C   0  0  0  0  0  0  0  0  0  0  0  0
    9.7289   27.1875    8.6509 C   0  0  0  0  0  0  0  0  0  0  0  0
   10.6523   26.2715    8.1419 C   0  0  0  0  0  0  0  0  0  0  0  0
   13.0070   23.8672    5.7521 C   0  0  0  0  0  0  0  0  0  0  0  0
   13.7216   23.1896    6.9023 C   0  0  0  0  0  0  0  0  0  0  0  0
   15.0491   23.6816    6.9840 O   0  0  0  0  0  0  0  0  0  0  0  0
   15.5255   23.4635    6.1677 H   0  0  0  0  0  0  0  0  0  0  0  0
   13.8960   21.6816    6.7038 C   0  0  0  0  0  0  0  0  0  0  0  0
   15.4012   20.7564    8.4708 C   0  0  0  0  0  0  0  0  0  0  0  0
   16.4334   21.3024    8.0646 O   0  0  0  0  0  0  0  0  0  0  0  0
   14.1682   20.9039    7.9288 N   0  0  0  0  0  0  0  0  0  0  0  0
   13.4092   20.4668    8.3783 H   0  0  0  0  0  0  0  0  0  0  0  0
   15.3763   19.9086    9.5853 O   0  0  0  0  0  0  0  0  0  0  0  0
   15.6084   18.5108    9.5410 C   0  0  0  0  0  0  0  0  0  0  0  0
   17.8968   18.8458   10.7858 C   0  0  0  0  0  0  0  0  0  0  0  0
   16.8325   18.1941   10.2244 C   0  0  0  0  0  0  0  0  0  0  0  0
   16.9266   16.4118   10.2569 S   0  0  0  0  0  0  0  0  0  0  0  0
   18.3687   16.8652   11.2032 C   0  0  0  0  0  0  0  0  0  0  0  0
   18.7400   18.0835   11.3801 N   0  0  0  0  0  0  0  0  0  0  0  0
   12.9379   21.0810    5.6724 C   0  0  0  0  0  0  0  0  0  0  0  0
   13.4487   20.3667    4.5243 C   0  0  0  0  0  0  0  0  0  0  0  0
   13.4527   21.2230    3.4178 C   0  0  0  0  0  0  0  0  0  0  0  0
   14.0485   20.7674    2.2308 C   0  0  0  0  0  0  0  0  0  0  0  0
   14.6342   19.4930    2.1337 C   0  0  0  0  0  0  0  0  0  0  0  0
   14.5972   18.6361    3.2552 C   0  0  0  0  0  0  0  0  0  0  0  0
   14.0064   19.0703    4.4459 C   0  0  0  0  0  0  0  0  0  0  0  0
 43 44  2  0  0  0
 43 47  1  0  0  0
 44 45  1  0  0  0
 44 42  1  0  0  0
 45 46  1  0  0  0
 46 47  2  0  0  0
 42 41  1  0  0  0
 41 37  1  0  0  0
 37 39  1  0  0  0
 37 38  2  0  0  0
 39 36  1  0  0  0
 36 33  1  0  0  0
 36 48  1  0  0  0
 33 32  1  0  0  0
 33 34  1  0  0  0
 32  1  1  0  0  0
  1 25  1  0  0  0
  1  2  1  0  0  0
  3  6  1  0  0  0
  3  2  1  0  0  0
  3  4  2  0  0  0
  6  7  1  0  0  0
  6 22  1  0  0  0
  7  8  1  0  0  0
  8  9  1  0  0  0
  8 10  2  0  0  0
 48 49  1  0  0  0
 49 50  2  0  0  0
 49 54  1  0  0  0
 50 51  1  0  0  0
 51 52  2  0  0  0
 52 53  1  0  0  0
 53 54  2  0  0  0
 25 26  1  0  0  0
 26 27  2  0  0  0
 26 31  1  0  0  0
 27 28  1  0  0  0
 28 29  2  0  0  0
 29 30  1  0  0  0
 30 31  2  0  0  0
 22 23  1  0  0  0
 22 24  1  0  0  0
  9 13  1  0  0  0
  9 11  1  0  0  0
 13 14  1  0  0  0
 14 15  2  0  0  0
 14 18  1  0  0  0
 15 16  1  0  0  0
 16 17  1  0  0  0
 17 18  2  0  0  0
 17 19  1  0  0  0
 19 20  1  0  0  0
 19 21  1  0  0  0
 39 40  1  0  0  0
 34 35  1  0  0  0
  2  5  1  0  0  0
  7 12  1  0  0  0
M  END
> <minimizedAffinity>
-9.00440

$$$$
1HXW_RIT_B_301


 54 57  0  0  0  0  0  0  0  0999 V2000
    9.8483   24.5240    4.6775 C   0  0  0  0  0  0  0  0  0  0  0  0
    8.5511   25.0740    4.3533 N   0  0  0  0  0  0  0  0  0  0  0  0
    8.1897   26.3393    4.5972 C   0  0  0  0  0  0  0  0  0  0  0  0
    8.9302   27.1524    5.1870 O   0  0  0  0  0  0  0  0  0  0  0  0
    7.8921   24.4803    3.9261 H   0  0  0  0  0  0  0  0  0  0  0  0
    6.7424   26.6567    4.1777 C   0  0  0  0  0  0  0  0  0  0  0  0
    6.2246   25.6511    3.2490 N   0  0  0  0  0  0  0  0  0  0  0  0
    5.7336   26.0361    2.0593 C   0  0  0  0  0  0  0  0  0  0  0  0
    5.5190   25.0142    1.1994 N   0  0  0  0  0  0  0  0  0  0  0  0
    5.3548   27.2110    1.8706 O   0  0  0  0  0  0  0  0  0  0  0  0
    5.8335   23.7338    1.3354 C   0  0  0  0  0  0  0  0  0  0  0  0
    6.2360   24.6978    3.4948 H   0  0  0  0  0  0  0  0  0  0  0  0
    4.8520   25.2646   -0.0781 C   0  0  0  0  0  0  0  0  0  0  0  0
    5.5899   26.0638   -1.0619 C   0  0  0  0  0  0  0  0  0  0  0  0
    6.9538   26.0685   -0.9724 C   0  0  0  0  0  0  0  0  0  0  0  0
    7.5264   27.0715   -2.3311 S   0  0  0  0  0  0  0  0  0  0  0  0
    5.8563   27.2358   -2.8796 C   0  0  0  0  0  0  0  0  0  0  0  0
    5.0235   26.7524   -2.0070 N   0  0  0  0  0  0  0  0  0  0  0  0
    5.8760   27.8510   -4.1213 C   0  0  0  0  0  0  0  0  0  0  0  0
    4.8687   28.8036   -4.7518 C   0  0  0  0  0  0  0  0  0  0  0  0
    6.0590   26.8090   -5.1471 C   0  0  0  0  0  0  0  0  0  0  0  0
    5.7032   26.8626    5.3255 C   0  0  0  0  0  0  0  0  0  0  0  0
    6.2152   26.6572    6.7764 C   0  0  0  0  0  0  0  0  0  0  0  0
    4.9049   28.1766    5.1679 C   0  0  0  0  0  0  0  0  0  0  0  0
    9.7308   23.5801    5.8361 C   0  0  0  0  0  0  0  0  0  0  0  0
    9.8121   24.3752    7.0467 C   0  0  0  0  0  0  0  0  0  0  0  0
   11.0131   25.0656    7.2785 C   0  0  0  0  0  0  0  0  0  0  0  0
   11.1580   25.8961    8.4072 C   0  0  0  0  0  0  0  0  0  0  0  0
   10.0732   26.0318    9.2773 C   0  0  0  0  0  0  0  0  0  0  0  0
    8.8806   25.3517    9.0435 C   0  0  0  0  0  0  0  0  0  0  0  0
    8.7384   24.5185    7.9315 C   0  0  0  0  0  0  0  0  0  0  0  0
   10.5074   23.7265    3.5147 C   0  0  0  0  0  0  0  0  0  0  0  0
   11.9729   23.9321    3.1935 C   0  0  0  0  0  0  0  0  0  0  0  0
   12.2024   23.6158    1.8304 O   0  0  0  0  0  0  0  0  0  0  0  0
   11.9919   22.6817    1.6754 H   0  0  0  0  0  0  0  0  0  0  0  0
   12.8999   22.9822    3.9565 C   0  0  0  0  0  0  0  0  0  0  0  0
   13.7357   20.7256    3.2832 C   0  0  0  0  0  0  0  0  0  0  0  0
   13.0482   20.0847    4.0862 O   0  0  0  0  0  0  0  0  0  0  0  0
   13.7068   22.0705    3.1214 N   0  0  0  0  0  0  0  0  0  0  0  0
   14.2561   22.4629    2.4048 H   0  0  0  0  0  0  0  0  0  0  0  0
   14.6416   20.1200    2.4033 O   0  0  0  0  0  0  0  0  0  0  0  0
   14.7607   18.7215    2.2042 C   0  0  0  0  0  0  0  0  0  0  0  0
   17.1707   17.8078    1.6987 C   0  0  0  0  0  0  0  0  0  0  0  0
   16.1205   18.3086    2.4192 C   0  0  0  0  0  0  0  0  0  0  0  0
   16.4154   18.4912    4.1701 S   0  0  0  0  0  0  0  0  0  0  0  0
   18.0241   17.9909    3.5849 C   0  0  0  0  0  0  0  0  0  0  0  0
   18.2611   17.6755    2.3612 N   0  0  0  0  0  0  0  0  0  0  0  0
   13.5722   23.6223    5.1733 C   0  0  0  0  0  0  0  0  0  0  0  0
   13.8442   22.8401    6.3579 C   0  0  0  0  0  0  0  0  0  0  0  0
   15.2171   22.8779    6.6254 C   0  0  0  0  0  0  0  0  0  0  0  0
   15.6746   22.2985    7.8197 C   0  0  0  0  0  0  0  0  0  0  0  0
   14.7974   21.6956    8.7381 C   0  0  0  0  0  0  0  0  0  0  0  0
   13.4190   21.6471    8.4365 C   0  0  0  0  0  0  0  0  0  0  0  0
   12.9437   22.2164    7.2510 C   0  0  0  0  0  0  0  0  0  0  0  0
 43 44  2  0  0  0
 43 47  1  0  0  0
 44 45  1  0  0  0
 44 42  1  0  0  0
 45 46  1  0  0  0
 46 47  2  0  0  0
 42 41  1  0  0  0
 41 37  1  0  0  0
 37 39  1  0  0  0
 37 38  2  0  0  0
 39 36  1  0  0  0
 36 33  1  0  0  0
 36 48  1  0  0  0
 33 32  1  0  0  0
 33 34  1  0  0  0
 32  1  1  0  0  0
  1 25  1  0  0  0
  1  2  1  0  0  0
  3  6  1  0  0  0
  3  2  1  0  0  0
  3  4  2  0  0  0
  6  7  1  0  0  0
  6 22  1  0  0  0
  7  8  1  0  0  0
  8  9  1  0  0  0
  8 10  2  0  0  0
 48 49  1  0  0  0
 49 50  2  0  0  0
 49 54  1  0  0  0
 50 51  1  0  0  0
 51 52  2  0  0  0
 52 53  1  0  0  0
 53 54  2  0  0  0
 25 26  1  0  0  0
 26 27  2  0  0  0
 26 31  1  0  0  0
 27 28  1  0  0  0
 28 29  2  0  0  0
 29 30  1  0  0  0
 30 31  2  0  0  0
 22 23  1  0  0  0
 22 24  1  0  0  0
  9 13  1  0  0  0
  9 11  1  0  0  0
 13 14  1  0  0  0
 14 15  2  0  0  0
 14 18  1  0  0  0
 15 16  1  0  0  0
 16 17  1  0  0  0
 17 18  2  0  0  0
 17 19  1  0  0  0
 19 20  1  0  0  0
 19 21  1  0  0  0
 39 40  1  0  0  0
 34 35  1  0  0  0
  2  5  1  0  0  0
  7 12  1  0  0  0
M  END
> <minimizedAffinity>
-8.88602

$$$$
1HXW_RIT_B_301


 54 57  0  0  0  0  0  0  0  0999 V2000
   10.8173   24.4232    4.6289 C   0  0  0  0  0  0  0  0  0  0  0  0
    9.8154   24.5408    3.5933 N   0  0  0  0  0  0  0  0  0  0  0  0
    8.9182   25.5316    3.5255 C   0  0  0  0  0  0  0  0  0  0  0  0
    8.8279   26.4228    4.3945 O   0  0  0  0  0  0  0  0  0  0  0  0
    9.7916   23.8485    2.8938 H   0  0  0  0  0  0  0  0  0  0  0  0
    7.9478   25.4016    2.3368 C   0  0  0  0  0  0  0  0  0  0  0  0
    6.6047   25.8605    2.6934 N   0  0  0  0  0  0  0  0  0  0  0  0
    5.7831   25.0444    3.3743 C   0  0  0  0  0  0  0  0  0  0  0  0
    4.6786   25.6584    3.8569 N   0  0  0  0  0  0  0  0  0  0  0  0
    5.9663   23.8091    3.3820 O   0  0  0  0  0  0  0  0  0  0  0  0
    4.3727   26.9481    3.8449 C   0  0  0  0  0  0  0  0  0  0  0  0
    6.3050   26.7622    2.4357 H   0  0  0  0  0  0  0  0  0  0  0  0
    3.6244   24.8682    4.4924 C   0  0  0  0  0  0  0  0  0  0  0  0
    2.7051   24.1555    3.5991 C   0  0  0  0  0  0  0  0  0  0  0  0
    1.6563   24.8630    3.0817 C   0  0  0  0  0  0  0  0  0  0  0  0
    0.7888   23.7319    2.0102 S   0  0  0  0  0  0  0  0  0  0  0  0
    2.0307   22.5182    2.3290 C   0  0  0  0  0  0  0  0  0  0  0  0
    2.8376   22.9053    3.2712 N   0  0  0  0  0  0  0  0  0  0  0  0
    1.8107   21.4509    1.4728 C   0  0  0  0  0  0  0  0  0  0  0  0
    2.2054   19.9873    1.6201 C   0  0  0  0  0  0  0  0  0  0  0  0
    2.3240   21.8175    0.1409 C   0  0  0  0  0  0  0  0  0  0  0  0
    8.3739   26.0863    0.9991 C   0  0  0  0  0  0  0  0  0  0  0  0
    7.5024   25.7835   -0.2491 C   0  0  0  0  0  0  0  0  0  0  0  0
    8.6424   27.5985    1.1715 C   0  0  0  0  0  0  0  0  0  0  0  0
   10.3677   23.4422    5.6693 C   0  0  0  0  0  0  0  0  0  0  0  0
   10.0964   24.1948    6.8793 C   0  0  0  0  0  0  0  0  0  0  0  0
    8.7483   24.4198    7.2033 C   0  0  0  0  0  0  0  0  0  0  0  0
    8.3977   25.1024    8.3847 C   0  0  0  0  0  0  0  0  0  0  0  0
    9.4208   25.5312    9.2343 C   0  0  0  0  0  0  0  0  0  0  0  0
   10.7570   25.3023    8.9154 C   0  0  0  0  0  0  0  0  0  0  0  0
   11.1077   24.6361    7.7389 C   0  0  0  0  0  0  0  0  0  0  0  0
   12.2027   23.9311    4.1178 C   0  0  0  0  0  0  0  0  0  0  0  0
   13.4388   24.1404    4.9670 C   0  0  0  0  0  0  0  0  0  0  0  0
   14.5453   24.4150    4.1236 O   0  0  0  0  0  0  0  0  0  0  0  0
   14.7073   23.6538    3.5446 H   0  0  0  0  0  0  0  0  0  0  0  0
   13.8625   22.8887    5.7398 C   0  0  0  0  0  0  0  0  0  0  0  0
   14.0054   20.6434    4.6524 C   0  0  0  0  0  0  0  0  0  0  0  0
   12.8582   20.2837    4.9402 O   0  0  0  0  0  0  0  0  0  0  0  0
   14.5479   21.8499    4.9457 N   0  0  0  0  0  0  0  0  0  0  0  0
   15.4523   22.0453    4.6094 H   0  0  0  0  0  0  0  0  0  0  0  0
   14.9048   19.8307    3.9508 O   0  0  0  0  0  0  0  0  0  0  0  0
   15.8508   18.9652    4.5554 C   0  0  0  0  0  0  0  0  0  0  0  0
   18.0145   18.0098    3.4136 C   0  0  0  0  0  0  0  0  0  0  0  0
   16.7097   18.3983    3.5521 C   0  0  0  0  0  0  0  0  0  0  0  0
   15.7067   18.2383    2.0842 S   0  0  0  0  0  0  0  0  0  0  0  0
   17.2391   17.4947    1.5554 C   0  0  0  0  0  0  0  0  0  0  0  0
   18.2928   17.4547    2.2912 N   0  0  0  0  0  0  0  0  0  0  0  0
   14.3931   23.1822    7.1451 C   0  0  0  0  0  0  0  0  0  0  0  0
   14.9595   22.1250    7.9517 C   0  0  0  0  0  0  0  0  0  0  0  0
   13.9656   21.6057    8.7885 C   0  0  0  0  0  0  0  0  0  0  0  0
   14.2721   20.4690    9.5535 C   0  0  0  0  0  0  0  0  0  0  0  0
   15.5330   19.8501    9.4944 C   0  0  0  0  0  0  0  0  0  0  0  0
   16.5289   20.4051    8.6616 C   0  0  0  0  0  0  0  0  0  0  0  0
   16.2442   21.5384    7.8936 C   0  0  0  0  0  0  0  0  0  0  0  0
 43 44  2  0  0  0
 43 47  1  0  0  0
 44 45  1  0  0  0
 44 42  1  0  0  0
 45 46  1  0  0  0
 46 47  2  0  0  0
 42 41  1  0  0  0
 41 37  1  0  0  0
 37 39  1  0  0  0
 37 38  2  0  0  0
 39 36  1  0  0  0
 36 33  1  0  0  0
 36 48  1  0  0  0
 33 32  1  0  0  0
 33 34  1  0  0  0
 32  1  1  0  0  0
  1 25  1  0  0  0
  1  2  1  0  0  0
  3  6  1  0  0  0
  3  2  1  0  0  0
  3  4  2  0  0  0
  6  7  1  0  0  0
  6 22  1  0  0  0
  7  8  1  0  0  0
  8  9  1  0  0  0
  8 10  2  0  0  0
 48 49  1  0  0  0
 49 50  2  0  0  0
 49 54  1  0  0  0
 50 51  1  0  0  0
 51 52  2  0  0  0
 52 53  1  0  0  0
 53 54  2  0  0  0
 25 26  1  0  0  0
 26 27  2  0  0  0
 26 31  1  0  0  0
 27 28  1  0  0  0
 28 29  2  0  0  0
 29 30  1  0  0  0
 30 31  2  0  0  0
 22 23  1  0  0  0
 22 24  1  0  0  0
  9 13  1  0  0  0
  9 11  1  0  0  0
 13 14  1  0  0  0
 14 15  2  0  0  0
 14 18  1  0  0  0
 15 16  1  0  0  0
 16 17  1  0  0  0
 17 18  2  0  0  0
 17 19  1  0  0  0
 19 20  1  0  0  0
 19 21  1  0  0  0
 39 40  1  0  0  0
 34 35  1  0  0  0
  2  5  1  0  0  0
  7 12  1  0  0  0
M  END
> <minimizedAffinity>
-8.75742

$$$$
1HXW_RIT_B_301


 54 57  0  0  0  0  0  0  0  0999 V2000
   10.8281   24.0713    4.7751 C   0  0  0  0  0  0  0  0  0  0  0  0
    9.6684   23.5006    4.1272 N   0  0  0  0  0  0  0  0  0  0  0  0
    9.0407   24.0575    3.0846 C   0  0  0  0  0  0  0  0  0  0  0  0
    9.3698   25.1634    2.6091 O   0  0  0  0  0  0  0  0  0  0  0  0
    9.3185   22.6486    4.4748 H   0  0  0  0  0  0  0  0  0  0  0  0
    7.8165   23.2559    2.6048 C   0  0  0  0  0  0  0  0  0  0  0  0
    6.8574   24.1146    1.9086 N   0  0  0  0  0  0  0  0  0  0  0  0
    5.6084   24.2395    2.3874 C   0  0  0  0  0  0  0  0  0  0  0  0
    4.8996   25.2381    1.8126 N   0  0  0  0  0  0  0  0  0  0  0  0
    5.1268   23.3821    3.1570 O   0  0  0  0  0  0  0  0  0  0  0  0
    5.3080   26.1560    0.9481 C   0  0  0  0  0  0  0  0  0  0  0  0
    7.1260   24.5979    1.0941 H   0  0  0  0  0  0  0  0  0  0  0  0
    3.4805   25.3997    2.1284 C   0  0  0  0  0  0  0  0  0  0  0  0
    3.1565   26.1786    3.3282 C   0  0  0  0  0  0  0  0  0  0  0  0
    2.7344   27.4659    3.1471 C   0  0  0  0  0  0  0  0  0  0  0  0
    2.3746   28.0931    4.7772 S   0  0  0  0  0  0  0  0  0  0  0  0
    2.7337   26.4975    5.4420 C   0  0  0  0  0  0  0  0  0  0  0  0
    3.2405   25.7131    4.5383 N   0  0  0  0  0  0  0  0  0  0  0  0
    2.3736   26.5046    6.7803 C   0  0  0  0  0  0  0  0  0  0  0  0
    1.0169   26.7642    7.4220 C   0  0  0  0  0  0  0  0  0  0  0  0
    3.2779   27.4235    7.4942 C   0  0  0  0  0  0  0  0  0  0  0  0
    8.0974   21.9981    1.7222 C   0  0  0  0  0  0  0  0  0  0  0  0
    9.5308   21.4063    1.7856 C   0  0  0  0  0  0  0  0  0  0  0  0
    7.0091   20.9124    1.8816 C   0  0  0  0  0  0  0  0  0  0  0  0
   11.0321   23.4345    6.1168 C   0  0  0  0  0  0  0  0  0  0  0  0
   10.3907   24.2883    7.0984 C   0  0  0  0  0  0  0  0  0  0  0  0
   11.2089   25.2021    7.7828 C   0  0  0  0  0  0  0  0  0  0  0  0
   10.6577   26.0987    8.7192 C   0  0  0  0  0  0  0  0  0  0  0  0
    9.2776   26.0705    8.9351 C   0  0  0  0  0  0  0  0  0  0  0  0
    8.4660   25.1682    8.2517 C   0  0  0  0  0  0  0  0  0  0  0  0
    9.0116   24.2703    7.3314 C   0  0  0  0  0  0  0  0  0  0  0  0
   12.1543   23.8819    3.9828 C   0  0  0  0  0  0  0  0  0  0  0  0
   13.4626   23.7204    4.7278 C   0  0  0  0  0  0  0  0  0  0  0  0
   14.3968   24.6722    4.2456 O   0  0  0  0  0  0  0  0  0  0  0  0
   14.5679   24.5093    3.3048 H   0  0  0  0  0  0  0  0  0  0  0  0
   14.1420   22.3720    4.4747 C   0  0  0  0  0  0  0  0  0  0  0  0
   14.8345   21.4883    6.7071 C   0  0  0  0  0  0  0  0  0  0  0  0
   13.6914   21.2635    7.1209 O   0  0  0  0  0  0  0  0  0  0  0  0
   15.1460   21.9650    5.4777 N   0  0  0  0  0  0  0  0  0  0  0  0
   16.0978   22.0448    5.2391 H   0  0  0  0  0  0  0  0  0  0  0  0
   15.9821   21.2527    7.4746 O   0  0  0  0  0  0  0  0  0  0  0  0
   16.0270   20.4280    8.6267 C   0  0  0  0  0  0  0  0  0  0  0  0
   17.7757   18.8636    7.4466 C   0  0  0  0  0  0  0  0  0  0  0  0
   16.8878   19.3014    8.3914 C   0  0  0  0  0  0  0  0  0  0  0  0
   16.6107   18.1820    9.7539 S   0  0  0  0  0  0  0  0  0  0  0  0
   17.9126   17.3493    8.8637 C   0  0  0  0  0  0  0  0  0  0  0  0
   18.3869   17.7767    7.7476 N   0  0  0  0  0  0  0  0  0  0  0  0
   13.1967   21.2981    3.9312 C   0  0  0  0  0  0  0  0  0  0  0  0
   13.7082   20.0115    3.5161 C   0  0  0  0  0  0  0  0  0  0  0  0
   14.2803   20.1354    2.2452 C   0  0  0  0  0  0  0  0  0  0  0  0
   14.9660   19.0295    1.7177 C   0  0  0  0  0  0  0  0  0  0  0  0
   15.0912   17.8231    2.4287 C   0  0  0  0  0  0  0  0  0  0  0  0
   14.4853   17.7120    3.6991 C   0  0  0  0  0  0  0  0  0  0  0  0
   13.7958   18.8013    4.2409 C   0  0  0  0  0  0  0  0  0  0  0  0
 43 44  2  0  0  0
 43 47  1  0  0  0
 44 45  1  0  0  0
 44 42  1  0  0  0
 45 46  1  0  0  0
 46 47  2  0  0  0
 42 41  1  0  0  0
 41 37  1  0  0  0
 37 39  1  0  0  0
 37 38  2  0  0  0
 39 36  1  0  0  0
 36 33  1  0  0  0
 36 48  1  0  0  0
 33 32  1  0  0  0
 33 34  1  0  0  0
 32  1  1  0  0  0
  1 25  1  0  0  0
  1  2  1  0  0  0
  3  6  1  0  0  0
  3  2  1  0  0  0
  3  4  2  0  0  0
  6  7  1  0  0  0
  6 22  1  0  0  0
  7  8  1  0  0  0
  8  9  1  0  0  0
  8 10  2  0  0  0
 48 49  1  0  0  0
 49 50  2  0  0  0
 49 54  1  0  0  0
 50 51  1  0  0  0
 51 52  2  0  0  0
 52 53  1  0  0  0
 53 54  2  0  0  0
 25 26  1  0  0  0
 26 27  2  0  0  0
 26 31  1  0  0  0
 27 28  1  0  0  0
 28 29  2  0  0  0
 29 30  1  0  0  0
 30 31  2  0  0  0
 22 23  1  0  0  0
 22 24  1  0  0  0
  9 13  1  0  0  0
  9 11  1  0  0  0
 13 14  1  0  0  0
 14 15  2  0  0  0
 14 18  1  0  0  0
 15 16  1  0  0  0
 16 17  1  0  0  0
 17 18  2  0  0  0
 17 19  1  0  0  0
 19 20  1  0  0  0
 19 21  1  0  0  0
 39 40  1  0  0  0
 34 35  1  0  0  0
  2  5  1  0  0  0
  7 12  1  0  0  0
M  END
> <minimizedAffinity>
-8.61709

$$$$
1HXW_RIT_B_301


 54 57  0  0  0  0  0  0  0  0999 V2000
   10.4528   24.5192    4.2680 C   0  0  0  0  0  0  0  0  0  0  0  0
    9.5462   24.7374    3.1632 N   0  0  0  0  0  0  0  0  0  0  0  0
    8.7297   25.7927    3.0591 C   0  0  0  0  0  0  0  0  0  0  0  0
    8.6350   26.6647    3.9468 O   0  0  0  0  0  0  0  0  0  0  0  0
    9.5283   24.0675    2.4420 H   0  0  0  0  0  0  0  0  0  0  0  0
    7.8489   25.7659    1.7961 C   0  0  0  0  0  0  0  0  0  0  0  0
    6.4446   25.5270    2.1314 N   0  0  0  0  0  0  0  0  0  0  0  0
    5.6133   26.5701    2.2911 C   0  0  0  0  0  0  0  0  0  0  0  0
    4.3068   26.2243    2.3510 N   0  0  0  0  0  0  0  0  0  0  0  0
    6.0552   27.7115    2.5390 O   0  0  0  0  0  0  0  0  0  0  0  0
    3.7522   25.0359    2.1590 C   0  0  0  0  0  0  0  0  0  0  0  0
    6.1110   24.6070    2.2394 H   0  0  0  0  0  0  0  0  0  0  0  0
    3.2990   27.2360    2.6678 C   0  0  0  0  0  0  0  0  0  0  0  0
    3.0833   27.5298    4.0885 C   0  0  0  0  0  0  0  0  0  0  0  0
    3.4498   28.7678    4.5372 C   0  0  0  0  0  0  0  0  0  0  0  0
    3.0025   28.8111    6.2629 S   0  0  0  0  0  0  0  0  0  0  0  0
    2.2870   27.2062    6.0909 C   0  0  0  0  0  0  0  0  0  0  0  0
    2.5616   26.6893    4.9308 N   0  0  0  0  0  0  0  0  0  0  0  0
    1.6089   26.9161    7.2642 C   0  0  0  0  0  0  0  0  0  0  0  0
    0.2176   26.3297    7.4649 C   0  0  0  0  0  0  0  0  0  0  0  0
    1.5994   28.1291    8.1010 C   0  0  0  0  0  0  0  0  0  0  0  0
    7.9353   27.0044    0.8482 C   0  0  0  0  0  0  0  0  0  0  0  0
    9.1583   27.9420    1.0337 C   0  0  0  0  0  0  0  0  0  0  0  0
    7.7062   26.6287   -0.6333 C   0  0  0  0  0  0  0  0  0  0  0  0
    9.8564   23.5427    5.2365 C   0  0  0  0  0  0  0  0  0  0  0  0
    9.7429   24.2207    6.5138 C   0  0  0  0  0  0  0  0  0  0  0  0
   10.8570   24.1666    7.3674 C   0  0  0  0  0  0  0  0  0  0  0  0
   10.8459   24.8369    8.6065 C   0  0  0  0  0  0  0  0  0  0  0  0
    9.7099   25.5717    8.9555 C   0  0  0  0  0  0  0  0  0  0  0  0
    8.6080   25.6299    8.1059 C   0  0  0  0  0  0  0  0  0  0  0  0
    8.6119   24.9566    6.8821 C   0  0  0  0  0  0  0  0  0  0  0  0
   11.8373   23.9452    3.8481 C   0  0  0  0  0  0  0  0  0  0  0  0
   13.0578   24.2162    4.7025 C   0  0  0  0  0  0  0  0  0  0  0  0
   14.0214   24.9171    3.9337 O   0  0  0  0  0  0  0  0  0  0  0  0
   14.2989   24.3675    3.1841 H   0  0  0  0  0  0  0  0  0  0  0  0
   13.7864   22.9428    5.1400 C   0  0  0  0  0  0  0  0  0  0  0  0
   13.9328   20.9387    3.6548 C   0  0  0  0  0  0  0  0  0  0  0  0
   12.9191   20.3788    4.0876 O   0  0  0  0  0  0  0  0  0  0  0  0
   14.3930   22.1493    4.0529 N   0  0  0  0  0  0  0  0  0  0  0  0
   15.1782   22.5216    3.5901 H   0  0  0  0  0  0  0  0  0  0  0  0
   14.7427   20.3820    2.6569 O   0  0  0  0  0  0  0  0  0  0  0  0
   14.7637   19.0083    2.3078 C   0  0  0  0  0  0  0  0  0  0  0  0
   17.0874   17.9536    1.6864 C   0  0  0  0  0  0  0  0  0  0  0  0
   16.0921   18.4820    2.4628 C   0  0  0  0  0  0  0  0  0  0  0  0
   16.4333   18.5253    4.2144 S   0  0  0  0  0  0  0  0  0  0  0  0
   17.9880   17.9469    3.5595 C   0  0  0  0  0  0  0  0  0  0  0  0
   18.1771   17.6967    2.3125 N   0  0  0  0  0  0  0  0  0  0  0  0
   14.5800   23.1023    6.4389 C   0  0  0  0  0  0  0  0  0  0  0  0
   14.5331   22.0788    7.4584 C   0  0  0  0  0  0  0  0  0  0  0  0
   15.6358   21.2311    7.3063 C   0  0  0  0  0  0  0  0  0  0  0  0
   15.8575   20.2515    8.2875 C   0  0  0  0  0  0  0  0  0  0  0  0
   15.0123   20.1098    9.4019 C   0  0  0  0  0  0  0  0  0  0  0  0
   13.8917   20.9600    9.5228 C   0  0  0  0  0  0  0  0  0  0  0  0
   13.6520   21.9404    8.5549 C   0  0  0  0  0  0  0  0  0  0  0  0
 43 44  2  0  0  0
 43 47  1  0  0  0
 44 45  1  0  0  0
 44 42  1  0  0  0
 45 46  1  0  0  0
 46 47  2  0  0  0
 42 41  1  0  0  0
 41 37  1  0  0  0
 37 39  1  0  0  0
 37 38  2  0  0  0
 39 36  1  0  0  0
 36 33  1  0  0  0
 36 48  1  0  0  0
 33 32  1  0  0  0
 33 34  1  0  0  0
 32  1  1  0  0  0
  1 25  1  0  0  0
  1  2  1  0  0  0
  3  6  1  0  0  0
  3  2  1  0  0  0
  3  4  2  0  0  0
  6  7  1  0  0  0
  6 22  1  0  0  0
  7  8  1  0  0  0
  8  9  1  0  0  0
  8 10  2  0  0  0
 48 49  1  0  0  0
 49 50  2  0  0  0
 49 54  1  0  0  0
 50 51  1  0  0  0
 51 52  2  0  0  0
 52 53  1  0  0  0
 53 54  2  0  0  0
 25 26  1  0  0  0
 26 27  2  0  0  0
 26 31  1  0  0  0
 27 28  1  0  0  0
 28 29  2  0  0  0
 29 30  1  0  0  0
 30 31  2  0  0  0
 22 23  1  0  0  0
 22 24  1  0  0  0
  9 13  1  0  0  0
  9 11  1  0  0  0
 13 14  1  0  0  0
 14 15  2  0  0  0
 14 18  1  0  0  0
 15 16  1  0  0  0
 16 17  1  0  0  0
 17 18  2  0  0  0
 17 19  1  0  0  0
 19 20  1  0  0  0
 19 21  1  0  0  0
 39 40  1  0  0  0
 34 35  1  0  0  0
  2  5  1  0  0  0
  7 12  1  0  0  0
M  END
> <minimizedAffinity>
-8.60631

$$$$
