5BW4_SAM_A_301
  RCSB PDB12061717003D
Coordinates from PDB:5BW4:A:301 Model:1 without hydrogens
 27 29  0  0  0  0            999 V2000
   -5.1560  -25.0600    2.1480   N 0  0  0  0  0  0  0  0  0  0  0  0
   -5.2780  -26.2370    1.2410   C 0  0  0  0  0  0  0  0  0  0  0  0
   -6.1220  -27.3600    1.8400   C 0  0  0  0  0  0  0  0  0  0  0  0
   -7.3690  -27.2590    1.8010   O 0  0  0  0  0  0  0  0  0  0  0  0
   -5.5690  -28.3620    2.3650   O 0  5  0  0  0  0  0  0  0  0  0  0
   -3.8990  -26.7940    0.8250   C 0  0  0  0  0  0  0  0  0  0  0  0
   -2.8130  -26.6250    1.8940   C 0  0  0  0  0  0  0  0  0  0  0  0
   -1.2640  -26.7110    1.2280   S 0  3  0  0  0  0  0  0  0  0  0  0
   -1.0500  -28.3630    1.2390   C 0  0  0  0  0  0  0  0  0  0  0  0
   -0.1720  -25.7290    2.0740   C 0  0  0  0  0  0  0  0  0  0  0  0
    0.1100  -24.4640    1.2710   C 0  0  0  0  0  0  0  0  0  0  0  0
    0.5570  -23.3330    2.0420   O 0  0  0  0  0  0  0  0  0  0  0  0
    1.2300  -24.7650    0.2640   C 0  0  0  0  0  0  0  0  0  0  0  0
    0.8130  -24.7780   -1.0900   O 0  0  0  0  0  0  0  0  0  0  0  0
    2.2320  -23.6520    0.4340   C 0  0  0  0  0  0  0  0  0  0  0  0
    2.7720  -23.1780   -0.7940   O 0  0  0  0  0  0  0  0  0  0  0  0
    1.3690  -22.5950    1.1080   C 0  0  0  0  0  0  0  0  0  0  0  0
    2.2830  -21.5630    1.6080   N 0  0  0  0  0  0  0  0  0  0  0  0
    3.4260  -21.7420    2.3020   C 0  0  0  0  0  0  0  0  0  0  0  0
    3.9970  -20.5800    2.6260   N 0  0  0  0  0  0  0  0  0  0  0  0
    3.1630  -19.6260    2.1530   C 0  0  0  0  0  0  0  0  0  0  0  0
    3.1750  -18.2020    2.1480   C 0  0  0  0  0  0  0  0  0  0  0  0
    4.2020  -17.5930    2.7430   N 0  0  0  0  0  0  0  0  0  0  0  0
    2.1470  -17.5490    1.6020   N 0  0  0  0  0  0  0  0  0  0  0  0
    1.1670  -18.1810    1.0250   C 0  0  0  0  0  0  0  0  0  0  0  0
    1.0510  -19.5080    0.9810   N 0  0  0  0  0  0  0  0  0  0  0  0
    2.0610  -20.2480    1.4870   C 0  0  0  0  0  0  0  0  0  0  0  0
  1  2  1  0  0  0  0
  2  3  1  0  0  0  0
  2  6  1  0  0  0  0
  3  4  2  0  0  0  0
  3  5  1  0  0  0  0
  6  7  1  0  0  0  0
  7  8  1  0  0  0  0
  8  9  1  0  0  0  0
  8 10  1  0  0  0  0
 10 11  1  0  0  0  0
 11 12  1  0  0  0  0
 11 13  1  0  0  0  0
 12 17  1  0  0  0  0
 13 14  1  0  0  0  0
 13 15  1  0  0  0  0
 15 16  1  0  0  0  0
 15 17  1  0  0  0  0
 17 18  1  0  0  0  0
 18 19  1  0  0  0  0
 18 27  1  0  0  0  0
 19 20  2  0  0  0  0
 20 21  1  0  0  0  0
 21 22  1  0  0  0  0
 21 27  2  0  0  0  0
 22 23  1  0  0  0  0
 22 24  2  0  0  0  0
 24 25  1  0  0  0  0
 25 26  2  0  0  0  0
 26 27  1  0  0  0  0
M  CHG  2   5  -1   8   1
A    1
N
A    2
CA
A    3
C
A    4
O
A    5
OXT
A    6
CB
A    7
CG
A    8
SD
A    9
CE
A   10
C5'
A   11
C4'
A   12
O4'
A   13
C3'
A   14
O3'
A   15
C2'
A   16
O2'
A   17
C1'
A   18
N9
A   19
C8
A   20
N7
A   21
C5
A   22
C6
A   23
N6
A   24
N1
A   25
C2
A   26
N3
A   27
C4
M  END
>  <InstanceId>
5BW4_SAM_A_301

>  <ChemCompId>
SAM

>  <PdbId>
5BW4

>  <ChainId>
A

>  <ResidueNumber>
301

>  <InsertionCode>


>  <Model>
1

>  <AltIds>


>  <MissingHeavyAtoms>
0

>  <ObservedFormula>
C15 N6 O5 S

>  <Name>
S-ADENOSYLMETHIONINE

>  <SystematicName>
(2S)-2-amino-4-[[(2S,3S,4R,5R)-5-(6-aminopurin-9-yl)-3,4-dihydroxy-oxolan-2-yl]methyl-methyl-sulfonio]butanoate

>  <Synonyms>


>  <Type>
NON-POLYMER

>  <Formula>
C15 H22 N6 O5 S

>  <MolecularWeight>
398.437

>  <ModifiedDate>
2011-06-04

>  <Parent>


>  <OneLetterCode>


>  <SubcomponentList>


>  <AmbiguousFlag>
N

>  <InChI>
InChI=1S/C15H22N6O5S/c1-27(3-2-7(16)15(24)25)4-8-10(22)11(23)14(26-8)21-6-20-9-12(17)18-5-19-13(9)21/h5-8,10-11,14,22-23H,2-4,16H2,1H3,(H2-,17,18,19,24,25)/t7-,8+,10+,11+,14+,27-/m0/s1

>  <InChIKey>
MEFKEPWMEQBLKI-FCKMPRQPSA-N

>  <SMILES>
C[S@@+](CC[C@@H](C(=O)[O-])N)C[C@@H]1[C@H]([C@H]([C@@H](O1)n2cnc3c2ncnc3N)O)O

$$$$
