5BW4_SAM_A_301


 33 35  0  0  0  0  0  0  0  0999 V2000
   -0.1348  -24.5391    1.4671 C   0  0  0  0  0  0  0  0  0  0  0  0
    0.3872  -23.3803    2.1441 O   0  0  0  0  0  0  0  0  0  0  0  0
    0.9566  -24.9882    0.4842 C   0  0  0  0  0  0  0  0  0  0  0  0
    0.5291  -25.0828   -0.8633 O   0  0  0  0  0  0  0  0  0  0  0  0
    2.0267  -23.9297    0.5619 C   0  0  0  0  0  0  0  0  0  0  0  0
    2.5854  -23.5893   -0.7015 O   0  0  0  0  0  0  0  0  0  0  0  0
    1.2359  -22.7708    1.1519 C   0  0  0  0  0  0  0  0  0  0  0  0
    0.2253  -24.2135   -1.1679 H   0  0  0  0  0  0  0  0  0  0  0  0
    1.8798  -23.2943   -1.2982 H   0  0  0  0  0  0  0  0  0  0  0  0
    2.2157  -21.7612    1.5653 N   0  0  0  0  0  0  0  0  0  0  0  0
    3.4555  -21.9694    2.0550 C   0  0  0  0  0  0  0  0  0  0  0  0
    4.0683  -20.8231    2.3582 N   0  0  0  0  0  0  0  0  0  0  0  0
    3.1671  -19.8517    2.0870 C   0  0  0  0  0  0  0  0  0  0  0  0
    3.1748  -18.4302    2.1723 C   0  0  0  0  0  0  0  0  0  0  0  0
    4.2824  -17.8472    2.6339 N   0  0  0  0  0  0  0  0  0  0  0  0
    2.0711  -17.7569    1.8407 N   0  0  0  0  0  0  0  0  0  0  0  0
    1.0129  -18.3634    1.3878 C   0  0  0  0  0  0  0  0  0  0  0  0
    0.8945  -19.6863    1.2772 N   0  0  0  0  0  0  0  0  0  0  0  0
    1.9742  -20.4440    1.5666 C   0  0  0  0  0  0  0  0  0  0  0  0
    5.0679  -18.3947    2.8629 H   0  0  0  0  0  0  0  0  0  0  0  0
    4.3142  -16.8696    2.7456 H   0  0  0  0  0  0  0  0  0  0  0  0
   -0.4881  -25.7163    2.3693 C   0  0  0  0  0  0  0  0  0  0  0  0
   -1.3502  -26.8760    1.4837 S   0  0  0  0  0  0  0  0  0  0  0  0
   -1.9815  -28.1995    2.2741 C   0  0  0  0  0  0  0  0  0  0  0  0
   -2.7714  -26.2292    0.8418 C   0  0  0  0  0  0  0  0  0  0  0  0
   -4.0134  -26.7614    1.5664 C   0  0  0  0  0  0  0  0  0  0  0  0
   -5.5787  -24.8589    2.0833 N   0  0  0  0  0  0  0  0  0  0  0  0
   -5.3187  -26.0258    1.1924 C   0  0  0  0  0  0  0  0  0  0  0  0
   -6.4471  -24.4036    1.8024 H   0  0  0  0  0  0  0  0  0  0  0  0
   -4.8074  -24.1957    2.0086 H   0  0  0  0  0  0  0  0  0  0  0  0
   -6.4765  -27.0215    1.1693 C   0  0  0  0  0  0  0  0  0  0  0  0
   -6.4186  -27.9901    0.3786 O   0  0  0  0  0  0  0  0  0  0  0  0
   -7.4681  -26.8633    1.9290 O   0  0  0  0  0  0  0  0  0  0  0  0
 27 28  1  0  0  0
 28 31  1  0  0  0
 28 26  1  0  0  0
 31 32  2  0  0  0
 31 33  1  0  0  0
 26 25  1  0  0  0
 25 23  1  0  0  0
 23 24  1  0  0  0
 23 22  1  0  0  0
 22  1  1  0  0  0
  1  2  1  0  0  0
  1  3  1  0  0  0
  2  7  1  0  0  0
  3  4  1  0  0  0
  3  5  1  0  0  0
  5  6  1  0  0  0
  5  7  1  0  0  0
  7 10  1  0  0  0
 10 11  1  0  0  0
 10 19  1  0  0  0
 11 12  2  0  0  0
 12 13  1  0  0  0
 13 14  1  0  0  0
 13 19  2  0  0  0
 14 15  1  0  0  0
 14 16  2  0  0  0
 16 17  1  0  0  0
 17 18  2  0  0  0
 18 19  1  0  0  0
 27 29  1  0  0  0
 27 30  1  0  0  0
  4  8  1  0  0  0
  6  9  1  0  0  0
 15 20  1  0  0  0
 15 21  1  0  0  0
M  CHG 1  23   1
M  CHG 1  33  -1
M  END
> <minimizedAffinity>
-9.17208

$$$$
5BW4_SAM_A_301


 33 35  0  0  0  0  0  0  0  0999 V2000
   -0.1540  -24.5154    1.3129 C   0  0  0  0  0  0  0  0  0  0  0  0
    0.3255  -23.3864    2.0671 O   0  0  0  0  0  0  0  0  0  0  0  0
    0.9947  -24.9254    0.3794 C   0  0  0  0  0  0  0  0  0  0  0  0
    0.6487  -24.9638   -0.9940 O   0  0  0  0  0  0  0  0  0  0  0  0
    2.0573  -23.8728    0.5647 C   0  0  0  0  0  0  0  0  0  0  0  0
    2.6904  -23.4815   -0.6479 O   0  0  0  0  0  0  0  0  0  0  0  0
    1.2316  -22.7379    1.1535 C   0  0  0  0  0  0  0  0  0  0  0  0
    0.3630  -24.0821   -1.2802 H   0  0  0  0  0  0  0  0  0  0  0  0
    2.0215  -23.1611   -1.2731 H   0  0  0  0  0  0  0  0  0  0  0  0
    2.1841  -21.7478    1.6661 N   0  0  0  0  0  0  0  0  0  0  0  0
    3.3681  -21.9802    2.2696 C   0  0  0  0  0  0  0  0  0  0  0  0
    3.9680  -20.8466    2.6387 N   0  0  0  0  0  0  0  0  0  0  0  0
    3.1127  -19.8582    2.2910 C   0  0  0  0  0  0  0  0  0  0  0  0
    3.1355  -18.4376    2.3880 C   0  0  0  0  0  0  0  0  0  0  0  0
    4.2036  -17.8766    2.9573 N   0  0  0  0  0  0  0  0  0  0  0  0
    2.0795  -17.7435    1.9585 N   0  0  0  0  0  0  0  0  0  0  0  0
    1.0594  -18.3289    1.4024 C   0  0  0  0  0  0  0  0  0  0  0  0
    0.9304  -19.6488    1.2704 N   0  0  0  0  0  0  0  0  0  0  0  0
    1.9651  -20.4268    1.6550 C   0  0  0  0  0  0  0  0  0  0  0  0
    4.9548  -18.4387    3.2555 H   0  0  0  0  0  0  0  0  0  0  0  0
    4.2406  -16.9003    3.0792 H   0  0  0  0  0  0  0  0  0  0  0  0
   -0.5597  -25.7282    2.1430 C   0  0  0  0  0  0  0  0  0  0  0  0
   -1.6325  -26.6947    1.2556 S   0  0  0  0  0  0  0  0  0  0  0  0
   -1.3289  -28.3263    1.1116 C   0  0  0  0  0  0  0  0  0  0  0  0
   -3.1536  -26.7565    1.9856 C   0  0  0  0  0  0  0  0  0  0  0  0
   -4.2787  -26.5272    0.9696 C   0  0  0  0  0  0  0  0  0  0  0  0
   -4.8554  -28.8668    1.6985 N   0  0  0  0  0  0  0  0  0  0  0  0
   -5.2609  -27.7126    0.8462 C   0  0  0  0  0  0  0  0  0  0  0  0
   -5.5288  -29.6247    1.5871 H   0  0  0  0  0  0  0  0  0  0  0  0
   -4.8299  -28.5754    2.6756 H   0  0  0  0  0  0  0  0  0  0  0  0
   -5.4209  -28.0912   -0.6246 C   0  0  0  0  0  0  0  0  0  0  0  0
   -6.5743  -28.2777   -1.0737 O   0  0  0  0  0  0  0  0  0  0  0  0
   -4.4094  -28.2162   -1.3640 O   0  0  0  0  0  0  0  0  0  0  0  0
 27 28  1  0  0  0
 28 31  1  0  0  0
 28 26  1  0  0  0
 31 32  2  0  0  0
 31 33  1  0  0  0
 26 25  1  0  0  0
 25 23  1  0  0  0
 23 24  1  0  0  0
 23 22  1  0  0  0
 22  1  1  0  0  0
  1  2  1  0  0  0
  1  3  1  0  0  0
  2  7  1  0  0  0
  3  4  1  0  0  0
  3  5  1  0  0  0
  5  6  1  0  0  0
  5  7  1  0  0  0
  7 10  1  0  0  0
 10 11  1  0  0  0
 10 19  1  0  0  0
 11 12  2  0  0  0
 12 13  1  0  0  0
 13 14  1  0  0  0
 13 19  2  0  0  0
 14 15  1  0  0  0
 14 16  2  0  0  0
 16 17  1  0  0  0
 17 18  2  0  0  0
 18 19  1  0  0  0
 27 29  1  0  0  0
 27 30  1  0  0  0
  4  8  1  0  0  0
  6  9  1  0  0  0
 15 20  1  0  0  0
 15 21  1  0  0  0
M  CHG 1  23   1
M  CHG 1  33  -1
M  END
> <minimizedAffinity>
-8.85069

$$$$
5BW4_SAM_A_301


 33 35  0  0  0  0  0  0  0  0999 V2000
    0.5806  -24.5400    0.6823 C   0  0  0  0  0  0  0  0  0  0  0  0
   -0.0487  -25.6772    0.0625 O   0  0  0  0  0  0  0  0  0  0  0  0
    0.1151  -24.5382    2.1460 C   0  0  0  0  0  0  0  0  0  0  0  0
   -0.4987  -23.3318    2.5644 O   0  0  0  0  0  0  0  0  0  0  0  0
   -0.9074  -25.6413    2.2430 C   0  0  0  0  0  0  0  0  0  0  0  0
   -2.0338  -25.3062    3.0449 O   0  0  0  0  0  0  0  0  0  0  0  0
   -1.2928  -25.7992    0.7792 C   0  0  0  0  0  0  0  0  0  0  0  0
   -1.2875  -23.1662    2.0247 H   0  0  0  0  0  0  0  0  0  0  0  0
   -2.4531  -24.5047    2.6946 H   0  0  0  0  0  0  0  0  0  0  0  0
   -2.0616  -27.0440    0.6793 N   0  0  0  0  0  0  0  0  0  0  0  0
   -1.6001  -28.2740    0.3724 C   0  0  0  0  0  0  0  0  0  0  0  0
   -2.5811  -29.1784    0.3403 N   0  0  0  0  0  0  0  0  0  0  0  0
   -3.7149  -28.4874    0.5983 C   0  0  0  0  0  0  0  0  0  0  0  0
   -5.0905  -28.8350    0.7203 C   0  0  0  0  0  0  0  0  0  0  0  0
   -5.4212  -30.1137    0.5329 N   0  0  0  0  0  0  0  0  0  0  0  0
   -5.9816  -27.8712    0.9616 N   0  0  0  0  0  0  0  0  0  0  0  0
   -5.6168  -26.6359    1.1451 C   0  0  0  0  0  0  0  0  0  0  0  0
   -4.3613  -26.2002    1.0441 N   0  0  0  0  0  0  0  0  0  0  0  0
   -3.3906  -27.1137    0.8279 C   0  0  0  0  0  0  0  0  0  0  0  0
   -4.7205  -30.7829    0.3581 H   0  0  0  0  0  0  0  0  0  0  0  0
   -6.3659  -30.3883    0.5693 H   0  0  0  0  0  0  0  0  0  0  0  0
    2.1051  -24.5463    0.6590 C   0  0  0  0  0  0  0  0  0  0  0  0
    2.6949  -23.2026    1.5070 S   0  0  0  0  0  0  0  0  0  0  0  0
    4.3407  -22.9787    1.6340 C   0  0  0  0  0  0  0  0  0  0  0  0
    2.2742  -21.7580    0.7412 C   0  0  0  0  0  0  0  0  0  0  0  0
    1.9439  -20.6556    1.7542 C   0  0  0  0  0  0  0  0  0  0  0  0
    4.0411  -19.8061    2.8576 N   0  0  0  0  0  0  0  0  0  0  0  0
    3.0021  -19.5329    1.8238 C   0  0  0  0  0  0  0  0  0  0  0  0
    4.7175  -19.0427    2.8699 H   0  0  0  0  0  0  0  0  0  0  0  0
    4.5187  -20.6800    2.6369 H   0  0  0  0  0  0  0  0  0  0  0  0
    2.3066  -18.1884    2.0256 C   0  0  0  0  0  0  0  0  0  0  0  0
    1.0624  -18.1713    2.1617 O   0  0  0  0  0  0  0  0  0  0  0  0
    2.9758  -17.1220    2.0490 O   0  0  0  0  0  0  0  0  0  0  0  0
 27 28  1  0  0  0
 28 31  1  0  0  0
 28 26  1  0  0  0
 31 32  2  0  0  0
 31 33  1  0  0  0
 26 25  1  0  0  0
 25 23  1  0  0  0
 23 24  1  0  0  0
 23 22  1  0  0  0
 22  1  1  0  0  0
  1  2  1  0  0  0
  1  3  1  0  0  0
  2  7  1  0  0  0
  3  4  1  0  0  0
  3  5  1  0  0  0
  5  6  1  0  0  0
  5  7  1  0  0  0
  7 10  1  0  0  0
 10 11  1  0  0  0
 10 19  1  0  0  0
 11 12  2  0  0  0
 12 13  1  0  0  0
 13 14  1  0  0  0
 13 19  2  0  0  0
 14 15  1  0  0  0
 14 16  2  0  0  0
 16 17  1  0  0  0
 17 18  2  0  0  0
 18 19  1  0  0  0
 27 29  1  0  0  0
 27 30  1  0  0  0
  4  8  1  0  0  0
  6  9  1  0  0  0
 15 20  1  0  0  0
 15 21  1  0  0  0
M  CHG 1  23   1
M  CHG 1  33  -1
M  END
> <minimizedAffinity>
-8.49889

$$$$
5BW4_SAM_A_301


 33 35  0  0  0  0  0  0  0  0999 V2000
    5.0894  -23.0232    0.2743 C   0  0  0  0  0  0  0  0  0  0  0  0
    4.1781  -23.0812    1.3878 O   0  0  0  0  0  0  0  0  0  0  0  0
    4.2216  -23.0749   -0.9919 C   0  0  0  0  0  0  0  0  0  0  0  0
    4.5569  -24.1181   -1.8901 O   0  0  0  0  0  0  0  0  0  0  0  0
    2.8150  -23.3112   -0.5049 C   0  0  0  0  0  0  0  0  0  0  0  0
    2.0808  -24.2298   -1.3058 O   0  0  0  0  0  0  0  0  0  0  0  0
    3.0870  -23.8752    0.8823 C   0  0  0  0  0  0  0  0  0  0  0  0
    4.4480  -24.9739   -1.4468 H   0  0  0  0  0  0  0  0  0  0  0  0
    2.5561  -25.0743   -1.3474 H   0  0  0  0  0  0  0  0  0  0  0  0
    1.8054  -23.8735    1.5949 N   0  0  0  0  0  0  0  0  0  0  0  0
    1.4180  -23.0489    2.5900 C   0  0  0  0  0  0  0  0  0  0  0  0
    0.1947  -23.3462    3.0330 N   0  0  0  0  0  0  0  0  0  0  0  0
   -0.1934  -24.4265    2.3177 C   0  0  0  0  0  0  0  0  0  0  0  0
   -1.3689  -25.2294    2.2795 C   0  0  0  0  0  0  0  0  0  0  0  0
   -2.3526  -24.9212    3.1263 N   0  0  0  0  0  0  0  0  0  0  0  0
   -1.4131  -26.2715    1.4467 N   0  0  0  0  0  0  0  0  0  0  0  0
   -0.4340  -26.5342    0.6312 C   0  0  0  0  0  0  0  0  0  0  0  0
    0.7126  -25.8560    0.5903 N   0  0  0  0  0  0  0  0  0  0  0  0
    0.8324  -24.7684    1.3818 C   0  0  0  0  0  0  0  0  0  0  0  0
   -2.2655  -24.1395    3.7184 H   0  0  0  0  0  0  0  0  0  0  0  0
   -3.1656  -25.4754    3.1591 H   0  0  0  0  0  0  0  0  0  0  0  0
    5.9629  -21.7751    0.2122 C   0  0  0  0  0  0  0  0  0  0  0  0
    6.5031  -21.3779    1.7687 S   0  0  0  0  0  0  0  0  0  0  0  0
    8.0186  -21.8702    2.2544 C   0  0  0  0  0  0  0  0  0  0  0  0
    6.6788  -19.7089    1.9523 C   0  0  0  0  0  0  0  0  0  0  0  0
    5.4229  -18.9544    1.5006 C   0  0  0  0  0  0  0  0  0  0  0  0
    3.1540  -20.0282    1.6901 N   0  0  0  0  0  0  0  0  0  0  0  0
    4.1861  -19.2104    2.3892 C   0  0  0  0  0  0  0  0  0  0  0  0
    2.3573  -20.1730    2.3105 H   0  0  0  0  0  0  0  0  0  0  0  0
    3.5527  -20.9310    1.4324 H   0  0  0  0  0  0  0  0  0  0  0  0
    3.6396  -17.8784    2.8987 C   0  0  0  0  0  0  0  0  0  0  0  0
    3.1594  -17.0714    2.0711 O   0  0  0  0  0  0  0  0  0  0  0  0
    3.6785  -17.6016    4.1264 O   0  0  0  0  0  0  0  0  0  0  0  0
 27 28  1  0  0  0
 28 31  1  0  0  0
 28 26  1  0  0  0
 31 32  2  0  0  0
 31 33  1  0  0  0
 26 25  1  0  0  0
 25 23  1  0  0  0
 23 24  1  0  0  0
 23 22  1  0  0  0
 22  1  1  0  0  0
  1  2  1  0  0  0
  1  3  1  0  0  0
  2  7  1  0  0  0
  3  4  1  0  0  0
  3  5  1  0  0  0
  5  6  1  0  0  0
  5  7  1  0  0  0
  7 10  1  0  0  0
 10 11  1  0  0  0
 10 19  1  0  0  0
 11 12  2  0  0  0
 12 13  1  0  0  0
 13 14  1  0  0  0
 13 19  2  0  0  0
 14 15  1  0  0  0
 14 16  2  0  0  0
 16 17  1  0  0  0
 17 18  2  0  0  0
 18 19  1  0  0  0
 27 29  1  0  0  0
 27 30  1  0  0  0
  4  8  1  0  0  0
  6  9  1  0  0  0
 15 20  1  0  0  0
 15 21  1  0  0  0
M  CHG 1  23   1
M  CHG 1  33  -1
M  END
> <minimizedAffinity>
-8.23573

$$$$
5BW4_SAM_A_301


 33 35  0  0  0  0  0  0  0  0999 V2000
    0.0161  -24.4722    1.5729 C   0  0  0  0  0  0  0  0  0  0  0  0
    0.4690  -23.2995    2.2751 O   0  0  0  0  0  0  0  0  0  0  0  0
    1.1273  -24.8290    0.5745 C   0  0  0  0  0  0  0  0  0  0  0  0
    0.6982  -24.9183   -0.7729 O   0  0  0  0  0  0  0  0  0  0  0  0
    2.1298  -23.7079    0.6726 C   0  0  0  0  0  0  0  0  0  0  0  0
    2.6584  -23.3036   -0.5849 O   0  0  0  0  0  0  0  0  0  0  0  0
    1.2720  -22.6150    1.2938 C   0  0  0  0  0  0  0  0  0  0  0  0
    0.3390  -24.0626   -1.0552 H   0  0  0  0  0  0  0  0  0  0  0  0
    1.9322  -23.0392   -1.1710 H   0  0  0  0  0  0  0  0  0  0  0  0
    2.1896  -21.5562    1.7267 N   0  0  0  0  0  0  0  0  0  0  0  0
    3.3926  -21.7013    2.3200 C   0  0  0  0  0  0  0  0  0  0  0  0
    3.9493  -20.5230    2.6079 N   0  0  0  0  0  0  0  0  0  0  0  0
    3.0466  -19.5945    2.2176 C   0  0  0  0  0  0  0  0  0  0  0  0
    3.0100  -18.1710    2.2277 C   0  0  0  0  0  0  0  0  0  0  0  0
    4.0624  -17.5318    2.7410 N   0  0  0  0  0  0  0  0  0  0  0  0
    1.9180  -17.5494    1.7776 N   0  0  0  0  0  0  0  0  0  0  0  0
    0.9147  -18.2101    1.2781 C   0  0  0  0  0  0  0  0  0  0  0  0
    0.8403  -19.5399    1.2290 N   0  0  0  0  0  0  0  0  0  0  0  0
    1.9139  -20.2487    1.6397 C   0  0  0  0  0  0  0  0  0  0  0  0
    4.8420  -18.0427    3.0581 H   0  0  0  0  0  0  0  0  0  0  0  0
    4.0596  -16.5493    2.8028 H   0  0  0  0  0  0  0  0  0  0  0  0
   -0.2577  -25.6901    2.4483 C   0  0  0  0  0  0  0  0  0  0  0  0
   -1.7626  -26.3571    2.0446 S   0  0  0  0  0  0  0  0  0  0  0  0
   -2.2330  -26.3967    0.4470 C   0  0  0  0  0  0  0  0  0  0  0  0
   -1.8181  -28.0080    2.3936 C   0  0  0  0  0  0  0  0  0  0  0  0
   -3.0212  -28.6870    1.7288 C   0  0  0  0  0  0  0  0  0  0  0  0
   -3.4531  -31.1328    1.3181 N   0  0  0  0  0  0  0  0  0  0  0  0
   -2.6555  -29.9423    0.9069 C   0  0  0  0  0  0  0  0  0  0  0  0
   -3.1808  -31.9366    0.7522 H   0  0  0  0  0  0  0  0  0  0  0  0
   -4.4455  -30.9411    1.1810 H   0  0  0  0  0  0  0  0  0  0  0  0
   -1.1495  -30.1833    0.9869 C   0  0  0  0  0  0  0  0  0  0  0  0
   -0.4172  -29.7034    0.0924 O   0  0  0  0  0  0  0  0  0  0  0  0
   -0.6613  -30.8555    1.9330 O   0  0  0  0  0  0  0  0  0  0  0  0
 27 28  1  0  0  0
 28 31  1  0  0  0
 28 26  1  0  0  0
 31 32  2  0  0  0
 31 33  1  0  0  0
 26 25  1  0  0  0
 25 23  1  0  0  0
 23 24  1  0  0  0
 23 22  1  0  0  0
 22  1  1  0  0  0
  1  2  1  0  0  0
  1  3  1  0  0  0
  2  7  1  0  0  0
  3  4  1  0  0  0
  3  5  1  0  0  0
  5  6  1  0  0  0
  5  7  1  0  0  0
  7 10  1  0  0  0
 10 11  1  0  0  0
 10 19  1  0  0  0
 11 12  2  0  0  0
 12 13  1  0  0  0
 13 14  1  0  0  0
 13 19  2  0  0  0
 14 15  1  0  0  0
 14 16  2  0  0  0
 16 17  1  0  0  0
 17 18  2  0  0  0
 18 19  1  0  0  0
 27 29  1  0  0  0
 27 30  1  0  0  0
  4  8  1  0  0  0
  6  9  1  0  0  0
 15 20  1  0  0  0
 15 21  1  0  0  0
M  CHG 1  23   1
M  CHG 1  33  -1
M  END
> <minimizedAffinity>
-7.87344

$$$$
5BW4_SAM_A_301


 33 35  0  0  0  0  0  0  0  0999 V2000
   -2.7099  -28.8158    2.6918 C   0  0  0  0  0  0  0  0  0  0  0  0
   -1.4346  -28.2511    2.3336 O   0  0  0  0  0  0  0  0  0  0  0  0
   -3.7616  -28.0492    1.8762 C   0  0  0  0  0  0  0  0  0  0  0  0
   -4.7844  -27.4512    2.6532 O   0  0  0  0  0  0  0  0  0  0  0  0
   -3.0036  -26.9507    1.1760 C   0  0  0  0  0  0  0  0  0  0  0  0
   -3.6938  -25.7067    1.1523 O   0  0  0  0  0  0  0  0  0  0  0  0
   -1.7516  -26.8769    2.0382 C   0  0  0  0  0  0  0  0  0  0  0  0
   -4.3917  -26.8108    3.2668 H   0  0  0  0  0  0  0  0  0  0  0  0
   -3.8976  -25.4328    2.0602 H   0  0  0  0  0  0  0  0  0  0  0  0
   -0.7832  -26.0571    1.3030 N   0  0  0  0  0  0  0  0  0  0  0  0
   -0.2296  -26.3172    0.1005 C   0  0  0  0  0  0  0  0  0  0  0  0
    0.6381  -25.3700   -0.2617 N   0  0  0  0  0  0  0  0  0  0  0  0
    0.6653  -24.4949    0.7693 C   0  0  0  0  0  0  0  0  0  0  0  0
    1.3565  -23.2769    1.0275 C   0  0  0  0  0  0  0  0  0  0  0  0
    2.2048  -22.8409    0.0948 N   0  0  0  0  0  0  0  0  0  0  0  0
    1.1670  -22.6617    2.1966 N   0  0  0  0  0  0  0  0  0  0  0  0
    0.3247  -23.1166    3.0777 C   0  0  0  0  0  0  0  0  0  0  0  0
   -0.3652  -24.2490    2.9431 N   0  0  0  0  0  0  0  0  0  0  0  0
   -0.2536  -24.9226    1.7780 C   0  0  0  0  0  0  0  0  0  0  0  0
    2.3040  -23.3359   -0.7504 H   0  0  0  0  0  0  0  0  0  0  0  0
    2.7317  -22.0242    0.2517 H   0  0  0  0  0  0  0  0  0  0  0  0
   -2.8662  -30.3051    2.4054 C   0  0  0  0  0  0  0  0  0  0  0  0
   -3.8872  -30.5260    1.0708 S   0  0  0  0  0  0  0  0  0  0  0  0
   -3.3150  -31.3391   -0.2658 C   0  0  0  0  0  0  0  0  0  0  0  0
   -5.2013  -31.5129    1.4574 C   0  0  0  0  0  0  0  0  0  0  0  0
   -6.4472  -31.1405    0.6452 C   0  0  0  0  0  0  0  0  0  0  0  0
   -7.1171  -28.7366    0.9765 N   0  0  0  0  0  0  0  0  0  0  0  0
   -6.4194  -29.7032    0.0810 C   0  0  0  0  0  0  0  0  0  0  0  0
   -7.0751  -27.8031    0.5677 H   0  0  0  0  0  0  0  0  0  0  0  0
   -6.6615  -28.7289    1.8891 H   0  0  0  0  0  0  0  0  0  0  0  0
   -6.9787  -29.7022   -1.3400 C   0  0  0  0  0  0  0  0  0  0  0  0
   -7.4231  -28.6300   -1.8087 O   0  0  0  0  0  0  0  0  0  0  0  0
   -6.9939  -30.7622   -2.0195 O   0  0  0  0  0  0  0  0  0  0  0  0
 27 28  1  0  0  0
 28 31  1  0  0  0
 28 26  1  0  0  0
 31 32  2  0  0  0
 31 33  1  0  0  0
 26 25  1  0  0  0
 25 23  1  0  0  0
 23 24  1  0  0  0
 23 22  1  0  0  0
 22  1  1  0  0  0
  1  2  1  0  0  0
  1  3  1  0  0  0
  2  7  1  0  0  0
  3  4  1  0  0  0
  3  5  1  0  0  0
  5  6  1  0  0  0
  5  7  1  0  0  0
  7 10  1  0  0  0
 10 11  1  0  0  0
 10 19  1  0  0  0
 11 12  2  0  0  0
 12 13  1  0  0  0
 13 14  1  0  0  0
 13 19  2  0  0  0
 14 15  1  0  0  0
 14 16  2  0  0  0
 16 17  1  0  0  0
 17 18  2  0  0  0
 18 19  1  0  0  0
 27 29  1  0  0  0
 27 30  1  0  0  0
  4  8  1  0  0  0
  6  9  1  0  0  0
 15 20  1  0  0  0
 15 21  1  0  0  0
M  CHG 1  23   1
M  CHG 1  33  -1
M  END
> <minimizedAffinity>
-7.64323

$$$$
5BW4_SAM_A_301


 33 35  0  0  0  0  0  0  0  0999 V2000
    1.6428  -23.7642    1.9683 C   0  0  0  0  0  0  0  0  0  0  0  0
    0.5511  -24.4614    2.5971 O   0  0  0  0  0  0  0  0  0  0  0  0
    1.3423  -23.7682    0.4621 C   0  0  0  0  0  0  0  0  0  0  0  0
    2.3725  -24.3187   -0.3398 O   0  0  0  0  0  0  0  0  0  0  0  0
    0.1144  -24.6271    0.3004 C   0  0  0  0  0  0  0  0  0  0  0  0
    0.1626  -25.4835   -0.8348 O   0  0  0  0  0  0  0  0  0  0  0  0
    0.1511  -25.4204    1.5987 C   0  0  0  0  0  0  0  0  0  0  0  0
    2.5204  -25.2432   -0.0863 H   0  0  0  0  0  0  0  0  0  0  0  0
    0.9492  -26.0485   -0.7803 H   0  0  0  0  0  0  0  0  0  0  0  0
   -1.1497  -26.0862    1.7209 N   0  0  0  0  0  0  0  0  0  0  0  0
   -2.2440  -25.6414    2.3725 C   0  0  0  0  0  0  0  0  0  0  0  0
   -3.2501  -26.5159    2.3075 N   0  0  0  0  0  0  0  0  0  0  0  0
   -2.7619  -27.5742    1.6211 C   0  0  0  0  0  0  0  0  0  0  0  0
   -3.2991  -28.8226    1.1958 C   0  0  0  0  0  0  0  0  0  0  0  0
   -4.5625  -29.0940    1.5271 N   0  0  0  0  0  0  0  0  0  0  0  0
   -2.5100  -29.6757    0.5393 N   0  0  0  0  0  0  0  0  0  0  0  0
   -1.2841  -29.3696    0.2294 C   0  0  0  0  0  0  0  0  0  0  0  0
   -0.6796  -28.2363    0.5850 N   0  0  0  0  0  0  0  0  0  0  0  0
   -1.4133  -27.3039    1.2301 C   0  0  0  0  0  0  0  0  0  0  0  0
   -5.0986  -28.4258    2.0122 H   0  0  0  0  0  0  0  0  0  0  0  0
   -4.9588  -29.9625    1.2865 H   0  0  0  0  0  0  0  0  0  0  0  0
    1.8395  -22.3210    2.4190 C   0  0  0  0  0  0  0  0  0  0  0  0
    3.4873  -21.9273    2.3713 S   0  0  0  0  0  0  0  0  0  0  0  0
    4.5831  -23.0725    1.8588 C   0  0  0  0  0  0  0  0  0  0  0  0
    3.7983  -20.7153    1.2379 C   0  0  0  0  0  0  0  0  0  0  0  0
    4.9850  -19.8395    1.6568 C   0  0  0  0  0  0  0  0  0  0  0  0
    5.9756  -17.5253    1.6711 N   0  0  0  0  0  0  0  0  0  0  0  0
    4.7276  -18.3242    1.5065 C   0  0  0  0  0  0  0  0  0  0  0  0
    5.7611  -16.5338    1.5647 H   0  0  0  0  0  0  0  0  0  0  0  0
    6.6540  -17.8044    0.9623 H   0  0  0  0  0  0  0  0  0  0  0  0
    3.6210  -17.8970    2.4684 C   0  0  0  0  0  0  0  0  0  0  0  0
    3.7806  -18.0985    3.6934 O   0  0  0  0  0  0  0  0  0  0  0  0
    2.5703  -17.3579    2.0317 O   0  0  0  0  0  0  0  0  0  0  0  0
 27 28  1  0  0  0
 28 31  1  0  0  0
 28 26  1  0  0  0
 31 32  2  0  0  0
 31 33  1  0  0  0
 26 25  1  0  0  0
 25 23  1  0  0  0
 23 24  1  0  0  0
 23 22  1  0  0  0
 22  1  1  0  0  0
  1  2  1  0  0  0
  1  3  1  0  0  0
  2  7  1  0  0  0
  3  4  1  0  0  0
  3  5  1  0  0  0
  5  6  1  0  0  0
  5  7  1  0  0  0
  7 10  1  0  0  0
 10 11  1  0  0  0
 10 19  1  0  0  0
 11 12  2  0  0  0
 12 13  1  0  0  0
 13 14  1  0  0  0
 13 19  2  0  0  0
 14 15  1  0  0  0
 14 16  2  0  0  0
 16 17  1  0  0  0
 17 18  2  0  0  0
 18 19  1  0  0  0
 27 29  1  0  0  0
 27 30  1  0  0  0
  4  8  1  0  0  0
  6  9  1  0  0  0
 15 20  1  0  0  0
 15 21  1  0  0  0
M  CHG 1  23   1
M  CHG 1  33  -1
M  END
> <minimizedAffinity>
-7.52731

$$$$
5BW4_SAM_A_301


 33 35  0  0  0  0  0  0  0  0999 V2000
   -2.7813  -28.6694    2.8041 C   0  0  0  0  0  0  0  0  0  0  0  0
   -1.4963  -28.1068    2.4792 O   0  0  0  0  0  0  0  0  0  0  0  0
   -3.7898  -28.0118    1.8504 C   0  0  0  0  0  0  0  0  0  0  0  0
   -4.8758  -27.3711    2.4966 O   0  0  0  0  0  0  0  0  0  0  0  0
   -3.0081  -26.9641    1.1002 C   0  0  0  0  0  0  0  0  0  0  0  0
   -3.7204  -25.7470    0.9114 O   0  0  0  0  0  0  0  0  0  0  0  0
   -1.8203  -26.7756    2.0329 C   0  0  0  0  0  0  0  0  0  0  0  0
   -4.5396  -26.6653    3.0708 H   0  0  0  0  0  0  0  0  0  0  0  0
   -3.9919  -25.3943    1.7732 H   0  0  0  0  0  0  0  0  0  0  0  0
   -0.8206  -26.0029    1.2886 N   0  0  0  0  0  0  0  0  0  0  0  0
   -0.2704  -26.3033    0.0939 C   0  0  0  0  0  0  0  0  0  0  0  0
    0.6312  -25.3932   -0.2801 N   0  0  0  0  0  0  0  0  0  0  0  0
    0.6836  -24.5013    0.7353 C   0  0  0  0  0  0  0  0  0  0  0  0
    1.4152  -23.3034    0.9757 C   0  0  0  0  0  0  0  0  0  0  0  0
    2.2826  -22.9136    0.0402 N   0  0  0  0  0  0  0  0  0  0  0  0
    1.2413  -22.6612    2.1328 N   0  0  0  0  0  0  0  0  0  0  0  0
    0.3794  -23.0710    3.0170 C   0  0  0  0  0  0  0  0  0  0  0  0
   -0.3484  -24.1812    2.8988 N   0  0  0  0  0  0  0  0  0  0  0  0
   -0.2545  -24.8790    1.7464 C   0  0  0  0  0  0  0  0  0  0  0  0
    2.3688  -23.4268   -0.7956 H   0  0  0  0  0  0  0  0  0  0  0  0
    2.8365  -22.1128    0.1855 H   0  0  0  0  0  0  0  0  0  0  0  0
   -2.8869  -30.1827    2.6521 C   0  0  0  0  0  0  0  0  0  0  0  0
   -1.5091  -30.7749    1.8624 S   0  0  0  0  0  0  0  0  0  0  0  0
   -0.4098  -31.6880    2.7185 C   0  0  0  0  0  0  0  0  0  0  0  0
   -1.9189  -31.8859    0.6591 C   0  0  0  0  0  0  0  0  0  0  0  0
   -1.4854  -31.4019   -0.7296 C   0  0  0  0  0  0  0  0  0  0  0  0
   -2.6257  -31.9317   -2.9105 N   0  0  0  0  0  0  0  0  0  0  0  0
   -2.6629  -31.0915   -1.6794 C   0  0  0  0  0  0  0  0  0  0  0  0
   -3.4181  -31.6952   -3.5076 H   0  0  0  0  0  0  0  0  0  0  0  0
   -2.6774  -32.9169   -2.6514 H   0  0  0  0  0  0  0  0  0  0  0  0
   -2.6907  -29.5956   -1.9853 C   0  0  0  0  0  0  0  0  0  0  0  0
   -3.7014  -28.9348   -1.6557 O   0  0  0  0  0  0  0  0  0  0  0  0
   -1.7159  -29.0449   -2.5614 O   0  0  0  0  0  0  0  0  0  0  0  0
 27 28  1  0  0  0
 28 31  1  0  0  0
 28 26  1  0  0  0
 31 32  2  0  0  0
 31 33  1  0  0  0
 26 25  1  0  0  0
 25 23  1  0  0  0
 23 24  1  0  0  0
 23 22  1  0  0  0
 22  1  1  0  0  0
  1  2  1  0  0  0
  1  3  1  0  0  0
  2  7  1  0  0  0
  3  4  1  0  0  0
  3  5  1  0  0  0
  5  6  1  0  0  0
  5  7  1  0  0  0
  7 10  1  0  0  0
 10 11  1  0  0  0
 10 19  1  0  0  0
 11 12  2  0  0  0
 12 13  1  0  0  0
 13 14  1  0  0  0
 13 19  2  0  0  0
 14 15  1  0  0  0
 14 16  2  0  0  0
 16 17  1  0  0  0
 17 18  2  0  0  0
 18 19  1  0  0  0
 27 29  1  0  0  0
 27 30  1  0  0  0
  4  8  1  0  0  0
  6  9  1  0  0  0
 15 20  1  0  0  0
 15 21  1  0  0  0
M  CHG 1  23   1
M  CHG 1  33  -1
M  END
> <minimizedAffinity>
-7.47048

$$$$
5BW4_SAM_A_301


 33 35  0  0  0  0  0  0  0  0999 V2000
   -3.5253  -27.1305    1.5294 C   0  0  0  0  0  0  0  0  0  0  0  0
   -2.9477  -25.9316    2.0794 O   0  0  0  0  0  0  0  0  0  0  0  0
   -2.3457  -28.0248    1.1196 C   0  0  0  0  0  0  0  0  0  0  0  0
   -2.3629  -28.4325   -0.2372 O   0  0  0  0  0  0  0  0  0  0  0  0
   -1.1120  -27.1876    1.3406 C   0  0  0  0  0  0  0  0  0  0  0  0
   -0.1353  -27.3291    0.3158 O   0  0  0  0  0  0  0  0  0  0  0  0
   -1.7155  -25.7904    1.3459 C   0  0  0  0  0  0  0  0  0  0  0  0
   -2.3275  -27.6507   -0.8102 H   0  0  0  0  0  0  0  0  0  0  0  0
   -0.5308  -27.1047   -0.5410 H   0  0  0  0  0  0  0  0  0  0  0  0
   -0.6772  -24.8864    1.8508 N   0  0  0  0  0  0  0  0  0  0  0  0
   -0.6666  -24.2180    3.0227 C   0  0  0  0  0  0  0  0  0  0  0  0
    0.4226  -23.4572    3.1502 N   0  0  0  0  0  0  0  0  0  0  0  0
    1.1105  -23.6190    1.9970 C   0  0  0  0  0  0  0  0  0  0  0  0
    2.3407  -23.1130    1.4884 C   0  0  0  0  0  0  0  0  0  0  0  0
    3.0222  -22.2634    2.2587 N   0  0  0  0  0  0  0  0  0  0  0  0
    2.7259  -23.4653    0.2601 N   0  0  0  0  0  0  0  0  0  0  0  0
    2.0351  -24.3028   -0.4570 C   0  0  0  0  0  0  0  0  0  0  0  0
    0.8683  -24.8276   -0.0836 N   0  0  0  0  0  0  0  0  0  0  0  0
    0.4162  -24.5450    1.1571 C   0  0  0  0  0  0  0  0  0  0  0  0
    2.6902  -22.0396    3.1581 H   0  0  0  0  0  0  0  0  0  0  0  0
    3.8572  -21.8603    1.9278 H   0  0  0  0  0  0  0  0  0  0  0  0
   -4.4216  -27.9168    2.4796 C   0  0  0  0  0  0  0  0  0  0  0  0
   -6.0260  -27.3961    2.3135 S   0  0  0  0  0  0  0  0  0  0  0  0
   -6.3605  -26.0900    1.3351 C   0  0  0  0  0  0  0  0  0  0  0  0
   -6.9774  -28.5658    1.5539 C   0  0  0  0  0  0  0  0  0  0  0  0
   -6.1232  -29.5663    0.7664 C   0  0  0  0  0  0  0  0  0  0  0  0
   -5.8104  -30.7945   -1.4086 N   0  0  0  0  0  0  0  0  0  0  0  0
   -6.4728  -29.6405   -0.7360 C   0  0  0  0  0  0  0  0  0  0  0  0
   -6.0673  -30.8059   -2.3957 H   0  0  0  0  0  0  0  0  0  0  0  0
   -6.1126  -31.6637   -0.9686 H   0  0  0  0  0  0  0  0  0  0  0  0
   -6.1506  -28.3041   -1.4011 C   0  0  0  0  0  0  0  0  0  0  0  0
   -7.0956  -27.6057   -1.8325 O   0  0  0  0  0  0  0  0  0  0  0  0
   -4.9567  -27.9203   -1.5145 O   0  0  0  0  0  0  0  0  0  0  0  0
 27 28  1  0  0  0
 28 31  1  0  0  0
 28 26  1  0  0  0
 31 32  2  0  0  0
 31 33  1  0  0  0
 26 25  1  0  0  0
 25 23  1  0  0  0
 23 24  1  0  0  0
 23 22  1  0  0  0
 22  1  1  0  0  0
  1  2  1  0  0  0
  1  3  1  0  0  0
  2  7  1  0  0  0
  3  4  1  0  0  0
  3  5  1  0  0  0
  5  6  1  0  0  0
  5  7  1  0  0  0
  7 10  1  0  0  0
 10 11  1  0  0  0
 10 19  1  0  0  0
 11 12  2  0  0  0
 12 13  1  0  0  0
 13 14  1  0  0  0
 13 19  2  0  0  0
 14 15  1  0  0  0
 14 16  2  0  0  0
 16 17  1  0  0  0
 17 18  2  0  0  0
 18 19  1  0  0  0
 27 29  1  0  0  0
 27 30  1  0  0  0
  4  8  1  0  0  0
  6  9  1  0  0  0
 15 20  1  0  0  0
 15 21  1  0  0  0
M  CHG 1  23   1
M  CHG 1  33  -1
M  END
> <minimizedAffinity>
-7.40890

$$$$
5BW4_SAM_A_301


 33 35  0  0  0  0  0  0  0  0999 V2000
    1.2086  -24.7495    1.0475 C   0  0  0  0  0  0  0  0  0  0  0  0
    2.3356  -24.6420    0.1577 O   0  0  0  0  0  0  0  0  0  0  0  0
    1.0803  -23.3857    1.7423 C   0  0  0  0  0  0  0  0  0  0  0  0
    1.0988  -23.4450    3.1577 O   0  0  0  0  0  0  0  0  0  0  0  0
    2.2796  -22.5917    1.2918 C   0  0  0  0  0  0  0  0  0  0  0  0
    2.8734  -21.8180    2.3277 O   0  0  0  0  0  0  0  0  0  0  0  0
    3.2035  -23.7106    0.8328 C   0  0  0  0  0  0  0  0  0  0  0  0
    1.9396  -23.8269    3.4544 H   0  0  0  0  0  0  0  0  0  0  0  0
    3.1262  -22.3998    3.0614 H   0  0  0  0  0  0  0  0  0  0  0  0
    4.2951  -23.0749    0.0881 N   0  0  0  0  0  0  0  0  0  0  0  0
    4.3747  -22.8725   -1.2434 C   0  0  0  0  0  0  0  0  0  0  0  0
    5.5250  -22.2907   -1.5891 N   0  0  0  0  0  0  0  0  0  0  0  0
    6.2190  -22.1545   -0.4362 C   0  0  0  0  0  0  0  0  0  0  0  0
    7.4913  -21.6137   -0.0943 C   0  0  0  0  0  0  0  0  0  0  0  0
    8.2395  -21.1264   -1.0854 N   0  0  0  0  0  0  0  0  0  0  0  0
    7.8949  -21.6651    1.1768 N   0  0  0  0  0  0  0  0  0  0  0  0
    7.1313  -22.1429    2.1157 C   0  0  0  0  0  0  0  0  0  0  0  0
    5.9303  -22.6815    1.9062 N   0  0  0  0  0  0  0  0  0  0  0  0
    5.4322  -22.6472    0.6514 C   0  0  0  0  0  0  0  0  0  0  0  0
    7.8898  -21.1134   -2.0056 H   0  0  0  0  0  0  0  0  0  0  0  0
    9.1414  -20.7797   -0.8967 H   0  0  0  0  0  0  0  0  0  0  0  0
   -0.1208  -25.0786    0.3776 C   0  0  0  0  0  0  0  0  0  0  0  0
   -1.0109  -26.1328    1.3620 S   0  0  0  0  0  0  0  0  0  0  0  0
   -1.8513  -25.5177    2.6620 C   0  0  0  0  0  0  0  0  0  0  0  0
   -2.2875  -26.8386    0.5120 C   0  0  0  0  0  0  0  0  0  0  0  0
   -2.5955  -28.2510    1.0231 C   0  0  0  0  0  0  0  0  0  0  0  0
   -0.6965  -29.6322    0.1158 N   0  0  0  0  0  0  0  0  0  0  0  0
   -2.1637  -29.3742    0.0552 C   0  0  0  0  0  0  0  0  0  0  0  0
   -0.4553  -30.3783   -0.5365 H   0  0  0  0  0  0  0  0  0  0  0  0
   -0.4393  -29.9118    1.0624 H   0  0  0  0  0  0  0  0  0  0  0  0
   -2.6486  -29.0463   -1.3553 C   0  0  0  0  0  0  0  0  0  0  0  0
   -3.8742  -28.8753   -1.5435 O   0  0  0  0  0  0  0  0  0  0  0  0
   -1.8281  -28.9559   -2.3062 O   0  0  0  0  0  0  0  0  0  0  0  0
 27 28  1  0  0  0
 28 31  1  0  0  0
 28 26  1  0  0  0
 31 32  2  0  0  0
 31 33  1  0  0  0
 26 25  1  0  0  0
 25 23  1  0  0  0
 23 24  1  0  0  0
 23 22  1  0  0  0
 22  1  1  0  0  0
  1  2  1  0  0  0
  1  3  1  0  0  0
  2  7  1  0  0  0
  3  4  1  0  0  0
  3  5  1  0  0  0
  5  6  1  0  0  0
  5  7  1  0  0  0
  7 10  1  0  0  0
 10 11  1  0  0  0
 10 19  1  0  0  0
 11 12  2  0  0  0
 12 13  1  0  0  0
 13 14  1  0  0  0
 13 19  2  0  0  0
 14 15  1  0  0  0
 14 16  2  0  0  0
 16 17  1  0  0  0
 17 18  2  0  0  0
 18 19  1  0  0  0
 27 29  1  0  0  0
 27 30  1  0  0  0
  4  8  1  0  0  0
  6  9  1  0  0  0
 15 20  1  0  0  0
 15 21  1  0  0  0
M  CHG 1  23   1
M  CHG 1  33  -1
M  END
> <minimizedAffinity>
-7.16077

$$$$
