4O0Y_2OO_A_601


 29 31  0  0  0  0  0  0  0  0999 V2000
   13.7235  -33.8236   13.7593 C   0  0  0  0  0  0  0  0  0  0  0  0
   14.4954  -32.8809   13.2736 N   0  0  0  0  0  0  0  0  0  0  0  0
   14.0924  -31.6651   13.7515 C   0  0  0  0  0  0  0  0  0  0  0  0
   14.5487  -30.3500   13.5572 C   0  0  0  0  0  0  0  0  0  0  0  0
   13.9409  -29.2916   14.1943 C   0  0  0  0  0  0  0  0  0  0  0  0
   12.8365  -29.5139   15.0293 C   0  0  0  0  0  0  0  0  0  0  0  0
   12.3712  -30.8154   15.2285 C   0  0  0  0  0  0  0  0  0  0  0  0
   12.9897  -31.8888   14.6016 C   0  0  0  0  0  0  0  0  0  0  0  0
   12.7761  -33.2645   14.5867 N   0  0  0  0  0  0  0  0  0  0  0  0
   11.8029  -33.9604   15.2979 C   0  0  0  0  0  0  0  0  0  0  0  0
   11.4308  -33.5692   16.5242 N   0  0  0  0  0  0  0  0  0  0  0  0
   10.4840  -34.2373   17.1846 C   0  0  0  0  0  0  0  0  0  0  0  0
    9.8997  -35.2945   16.6185 N   0  0  0  0  0  0  0  0  0  0  0  0
   10.2689  -35.6737   15.3832 C   0  0  0  0  0  0  0  0  0  0  0  0
   11.2075  -35.0075   14.7272 N   0  0  0  0  0  0  0  0  0  0  0  0
    9.6994  -36.7576   14.7637 N   0  0  0  0  0  0  0  0  0  0  0  0
    9.9877  -37.0147   13.8581 H   0  0  0  0  0  0  0  0  0  0  0  0
    9.0025  -37.2781   15.2248 H   0  0  0  0  0  0  0  0  0  0  0  0
   13.8276  -35.1792   13.4955 N   0  0  0  0  0  0  0  0  0  0  0  0
   13.8214  -35.8156   14.2466 H   0  0  0  0  0  0  0  0  0  0  0  0
   12.7175  -35.3234   11.2859 C   0  0  0  0  0  0  0  0  0  0  0  0
   13.9475  -35.6941   12.1192 C   0  0  0  0  0  0  0  0  0  0  0  0
   12.1864  -28.4227   15.7021 C   0  0  0  0  0  0  0  0  0  0  0  0
   11.6671  -27.5183   16.2443 C   0  0  0  0  0  0  0  0  0  0  0  0
   11.0238  -26.3391   16.8588 C   0  0  0  0  0  0  0  0  0  0  0  0
    9.5387  -26.6781   17.0412 C   0  0  0  0  0  0  0  0  0  0  0  0
   11.6812  -26.0489   18.2046 C   0  0  0  0  0  0  0  0  0  0  0  0
   11.0743  -25.1792   16.0153 O   0  0  0  0  0  0  0  0  0  0  0  0
   10.6531  -25.3793   15.1647 H   0  0  0  0  0  0  0  0  0  0  0  0
 21 22  1  0  0  0
 22 19  1  0  0  0
  4  3  2  0  0  0
  4  5  1  0  0  0
  2  3  1  0  0  0
  2  1  2  0  0  0
  3  8  1  0  0  0
  5  6  2  0  0  0
 19  1  1  0  0  0
  1  9  1  0  0  0
  8  9  1  0  0  0
  8  7  2  0  0  0
  6  7  1  0  0  0
  6 23  1  0  0  0
  9 10  1  0  0  0
 23 24  3  0  0  0
 11 10  2  0  0  0
 11 12  1  0  0  0
 10 15  1  0  0  0
 28 25  1  0  0  0
 24 25  1  0  0  0
 12 13  2  0  0  0
 25 26  1  0  0  0
 25 27  1  0  0  0
 15 14  2  0  0  0
 13 14  1  0  0  0
 14 16  1  0  0  0
 19 20  1  0  0  0
 16 17  1  0  0  0
 16 18  1  0  0  0
 28 29  1  0  0  0
M  END
> <minimizedAffinity>
-9.11923

$$$$
4O0Y_2OO_A_601


 29 31  0  0  0  0  0  0  0  0999 V2000
   13.8409  -33.0519   11.4545 C   0  0  0  0  0  0  0  0  0  0  0  0
   13.4897  -33.5823   12.6016 N   0  0  0  0  0  0  0  0  0  0  0  0
   13.1256  -32.5939   13.4729 C   0  0  0  0  0  0  0  0  0  0  0  0
   12.6800  -32.5954   14.8059 C   0  0  0  0  0  0  0  0  0  0  0  0
   12.3661  -31.4174   15.4456 C   0  0  0  0  0  0  0  0  0  0  0  0
   12.5132  -30.1935   14.7771 C   0  0  0  0  0  0  0  0  0  0  0  0
   12.9579  -30.1777   13.4535 C   0  0  0  0  0  0  0  0  0  0  0  0
   13.2609  -31.3633   12.7975 C   0  0  0  0  0  0  0  0  0  0  0  0
   13.7175  -31.6826   11.5215 N   0  0  0  0  0  0  0  0  0  0  0  0
   13.9772  -30.7896   10.4861 C   0  0  0  0  0  0  0  0  0  0  0  0
   13.0179  -29.9833   10.0117 N   0  0  0  0  0  0  0  0  0  0  0  0
   13.2887  -29.1210    9.0308 C   0  0  0  0  0  0  0  0  0  0  0  0
   14.5216  -29.0555    8.5258 N   0  0  0  0  0  0  0  0  0  0  0  0
   15.4820  -29.8583    9.0150 C   0  0  0  0  0  0  0  0  0  0  0  0
   15.2124  -30.7124    9.9912 N   0  0  0  0  0  0  0  0  0  0  0  0
   16.7626  -29.8295    8.5229 N   0  0  0  0  0  0  0  0  0  0  0  0
   17.4480  -30.4280    8.8988 H   0  0  0  0  0  0  0  0  0  0  0  0
   16.9961  -29.2103    7.7940 H   0  0  0  0  0  0  0  0  0  0  0  0
   14.2714  -33.7432   10.3343 N   0  0  0  0  0  0  0  0  0  0  0  0
   15.2194  -33.9993   10.2639 H   0  0  0  0  0  0  0  0  0  0  0  0
   14.0836  -34.8442    8.1234 C   0  0  0  0  0  0  0  0  0  0  0  0
   13.3470  -34.1056    9.2444 C   0  0  0  0  0  0  0  0  0  0  0  0
   12.1928  -28.9524   15.4274 C   0  0  0  0  0  0  0  0  0  0  0  0
   11.9124  -27.9402   15.9551 C   0  0  0  0  0  0  0  0  0  0  0  0
   11.4954  -26.7041   16.6480 C   0  0  0  0  0  0  0  0  0  0  0  0
   10.0157  -26.8701   17.0175 C   0  0  0  0  0  0  0  0  0  0  0  0
   12.3470  -26.5145   17.8995 C   0  0  0  0  0  0  0  0  0  0  0  0
   11.5755  -25.5444   15.8063 O   0  0  0  0  0  0  0  0  0  0  0  0
   11.0296  -25.6802   15.0160 H   0  0  0  0  0  0  0  0  0  0  0  0
 21 22  1  0  0  0
 22 19  1  0  0  0
  4  3  2  0  0  0
  4  5  1  0  0  0
  2  3  1  0  0  0
  2  1  2  0  0  0
  3  8  1  0  0  0
  5  6  2  0  0  0
 19  1  1  0  0  0
  1  9  1  0  0  0
  8  9  1  0  0  0
  8  7  2  0  0  0
  6  7  1  0  0  0
  6 23  1  0  0  0
  9 10  1  0  0  0
 23 24  3  0  0  0
 11 10  2  0  0  0
 11 12  1  0  0  0
 10 15  1  0  0  0
 28 25  1  0  0  0
 24 25  1  0  0  0
 12 13  2  0  0  0
 25 26  1  0  0  0
 25 27  1  0  0  0
 15 14  2  0  0  0
 13 14  1  0  0  0
 14 16  1  0  0  0
 19 20  1  0  0  0
 16 17  1  0  0  0
 16 18  1  0  0  0
 28 29  1  0  0  0
M  END
> <minimizedAffinity>
-8.48516

$$$$
4O0Y_2OO_A_601


 29 31  0  0  0  0  0  0  0  0999 V2000
   12.2743  -31.1871   14.9162 C   0  0  0  0  0  0  0  0  0  0  0  0
   11.5236  -31.4190   15.9666 N   0  0  0  0  0  0  0  0  0  0  0  0
   11.2428  -32.7546   16.0451 C   0  0  0  0  0  0  0  0  0  0  0  0
   10.4950  -33.5345   16.9440 C   0  0  0  0  0  0  0  0  0  0  0  0
   10.3921  -34.8974   16.7783 C   0  0  0  0  0  0  0  0  0  0  0  0
   11.0158  -35.5222   15.6888 C   0  0  0  0  0  0  0  0  0  0  0  0
   11.7593  -34.7585   14.7866 C   0  0  0  0  0  0  0  0  0  0  0  0
   11.8803  -33.3859   14.9570 C   0  0  0  0  0  0  0  0  0  0  0  0
   12.5246  -32.3694   14.2570 N   0  0  0  0  0  0  0  0  0  0  0  0
   13.3059  -32.5154   13.1145 C   0  0  0  0  0  0  0  0  0  0  0  0
   14.2895  -33.4238   13.0611 N   0  0  0  0  0  0  0  0  0  0  0  0
   15.0170  -33.5624   11.9519 C   0  0  0  0  0  0  0  0  0  0  0  0
   14.7589  -32.7992   10.8887 N   0  0  0  0  0  0  0  0  0  0  0  0
   13.7626  -31.8990   10.9449 C   0  0  0  0  0  0  0  0  0  0  0  0
   13.0389  -31.7642   12.0463 N   0  0  0  0  0  0  0  0  0  0  0  0
   13.4647  -31.0890    9.8781 N   0  0  0  0  0  0  0  0  0  0  0  0
   12.7296  -30.4375    9.9449 H   0  0  0  0  0  0  0  0  0  0  0  0
   13.9859  -31.1595    9.0459 H   0  0  0  0  0  0  0  0  0  0  0  0
   12.7540  -29.9519   14.5136 N   0  0  0  0  0  0  0  0  0  0  0  0
   12.6460  -29.6787   13.5739 H   0  0  0  0  0  0  0  0  0  0  0  0
   12.4915  -27.8880   15.8578 C   0  0  0  0  0  0  0  0  0  0  0  0
   13.4223  -29.0354   15.4554 C   0  0  0  0  0  0  0  0  0  0  0  0
   10.9192  -36.9433   15.4965 C   0  0  0  0  0  0  0  0  0  0  0  0
   10.8517  -38.1041   15.3242 C   0  0  0  0  0  0  0  0  0  0  0  0
   10.8448  -39.5626   15.0904 C   0  0  0  0  0  0  0  0  0  0  0  0
   11.3865  -39.7959   13.6742 C   0  0  0  0  0  0  0  0  0  0  0  0
   11.7316  -40.2449   16.1275 C   0  0  0  0  0  0  0  0  0  0  0  0
    9.5228  -40.1204   15.1158 O   0  0  0  0  0  0  0  0  0  0  0  0
    8.9719  -39.6769   14.4519 H   0  0  0  0  0  0  0  0  0  0  0  0
 21 22  1  0  0  0
 22 19  1  0  0  0
  4  3  2  0  0  0
  4  5  1  0  0  0
  2  3  1  0  0  0
  2  1  2  0  0  0
  3  8  1  0  0  0
  5  6  2  0  0  0
 19  1  1  0  0  0
  1  9  1  0  0  0
  8  9  1  0  0  0
  8  7  2  0  0  0
  6  7  1  0  0  0
  6 23  1  0  0  0
  9 10  1  0  0  0
 23 24  3  0  0  0
 11 10  2  0  0  0
 11 12  1  0  0  0
 10 15  1  0  0  0
 28 25  1  0  0  0
 24 25  1  0  0  0
 12 13  2  0  0  0
 25 26  1  0  0  0
 25 27  1  0  0  0
 15 14  2  0  0  0
 13 14  1  0  0  0
 14 16  1  0  0  0
 19 20  1  0  0  0
 16 17  1  0  0  0
 16 18  1  0  0  0
 28 29  1  0  0  0
M  END
> <minimizedAffinity>
-8.40650

$$$$
4O0Y_2OO_A_601


 29 31  0  0  0  0  0  0  0  0999 V2000
   12.7933  -31.0636   13.7547 C   0  0  0  0  0  0  0  0  0  0  0  0
   12.3219  -31.7850   14.7437 N   0  0  0  0  0  0  0  0  0  0  0  0
   12.2235  -33.0915   14.3536 C   0  0  0  0  0  0  0  0  0  0  0  0
   11.7861  -34.2624   14.9962 C   0  0  0  0  0  0  0  0  0  0  0  0
   11.8102  -35.4751   14.3448 C   0  0  0  0  0  0  0  0  0  0  0  0
   12.2505  -35.5505   13.0155 C   0  0  0  0  0  0  0  0  0  0  0  0
   12.6849  -34.3941   12.3644 C   0  0  0  0  0  0  0  0  0  0  0  0
   12.6782  -33.1707   13.0210 C   0  0  0  0  0  0  0  0  0  0  0  0
   13.0310  -31.8715   12.6658 N   0  0  0  0  0  0  0  0  0  0  0  0
   13.5562  -31.4591   11.4447 C   0  0  0  0  0  0  0  0  0  0  0  0
   14.5349  -32.1500   10.8445 N   0  0  0  0  0  0  0  0  0  0  0  0
   15.0146  -31.7504    9.6659 C   0  0  0  0  0  0  0  0  0  0  0  0
   14.5122  -30.6632    9.0786 N   0  0  0  0  0  0  0  0  0  0  0  0
   13.5219  -29.9823    9.6802 C   0  0  0  0  0  0  0  0  0  0  0  0
   13.0445  -30.3818   10.8496 N   0  0  0  0  0  0  0  0  0  0  0  0
   12.9784  -28.8556    9.1161 N   0  0  0  0  0  0  0  0  0  0  0  0
   12.2536  -28.3749    9.5774 H   0  0  0  0  0  0  0  0  0  0  0  0
   13.3131  -28.5281    8.2502 H   0  0  0  0  0  0  0  0  0  0  0  0
   13.0256  -29.6986   13.7797 N   0  0  0  0  0  0  0  0  0  0  0  0
   12.8387  -29.1656   12.9734 H   0  0  0  0  0  0  0  0  0  0  0  0
   12.4288  -28.2776   15.7189 C   0  0  0  0  0  0  0  0  0  0  0  0
   13.5456  -29.0227   14.9824 C   0  0  0  0  0  0  0  0  0  0  0  0
   12.2816  -36.8062   12.3168 C   0  0  0  0  0  0  0  0  0  0  0  0
   12.3006  -37.8244   11.7298 C   0  0  0  0  0  0  0  0  0  0  0  0
   12.3517  -39.0642   10.9285 C   0  0  0  0  0  0  0  0  0  0  0  0
   13.7724  -39.1775   10.3610 C   0  0  0  0  0  0  0  0  0  0  0  0
   12.0302  -40.2576   11.8230 C   0  0  0  0  0  0  0  0  0  0  0  0
   11.4658  -39.0302    9.8000 O   0  0  0  0  0  0  0  0  0  0  0  0
   11.6825  -38.2671    9.2417 H   0  0  0  0  0  0  0  0  0  0  0  0
 21 22  1  0  0  0
 22 19  1  0  0  0
  4  3  2  0  0  0
  4  5  1  0  0  0
  2  3  1  0  0  0
  2  1  2  0  0  0
  3  8  1  0  0  0
  5  6  2  0  0  0
 19  1  1  0  0  0
  1  9  1  0  0  0
  8  9  1  0  0  0
  8  7  2  0  0  0
  6  7  1  0  0  0
  6 23  1  0  0  0
  9 10  1  0  0  0
 23 24  3  0  0  0
 11 10  2  0  0  0
 11 12  1  0  0  0
 10 15  1  0  0  0
 28 25  1  0  0  0
 24 25  1  0  0  0
 12 13  2  0  0  0
 25 26  1  0  0  0
 25 27  1  0  0  0
 15 14  2  0  0  0
 13 14  1  0  0  0
 14 16  1  0  0  0
 19 20  1  0  0  0
 16 17  1  0  0  0
 16 18  1  0  0  0
 28 29  1  0  0  0
M  END
> <minimizedAffinity>
-7.99905

$$$$
4O0Y_2OO_A_601


 29 31  0  0  0  0  0  0  0  0999 V2000
   13.6106  -33.6097   12.3148 C   0  0  0  0  0  0  0  0  0  0  0  0
   13.1494  -33.9814   13.4852 N   0  0  0  0  0  0  0  0  0  0  0  0
   12.7866  -32.8790   14.2076 C   0  0  0  0  0  0  0  0  0  0  0  0
   12.2507  -32.6993   15.4945 C   0  0  0  0  0  0  0  0  0  0  0  0
   11.9654  -31.4390   15.9696 C   0  0  0  0  0  0  0  0  0  0  0  0
   12.2324  -30.3123   15.1786 C   0  0  0  0  0  0  0  0  0  0  0  0
   12.7676  -30.4767   13.8993 C   0  0  0  0  0  0  0  0  0  0  0  0
   13.0427  -31.7459   13.4080 C   0  0  0  0  0  0  0  0  0  0  0  0
   13.5662  -32.2375   12.2152 N   0  0  0  0  0  0  0  0  0  0  0  0
   13.9505  -31.4883   11.1071 C   0  0  0  0  0  0  0  0  0  0  0  0
   15.0588  -31.7920   10.4180 N   0  0  0  0  0  0  0  0  0  0  0  0
   15.4030  -31.0741    9.3479 C   0  0  0  0  0  0  0  0  0  0  0  0
   14.6362  -30.0547    8.9575 N   0  0  0  0  0  0  0  0  0  0  0  0
   13.5192  -29.7636    9.6459 C   0  0  0  0  0  0  0  0  0  0  0  0
   13.1770  -30.4793   10.7069 N   0  0  0  0  0  0  0  0  0  0  0  0
   12.7031  -28.7214    9.2844 N   0  0  0  0  0  0  0  0  0  0  0  0
   11.8903  -28.5290    9.8055 H   0  0  0  0  0  0  0  0  0  0  0  0
   12.9305  -28.1660    8.5039 H   0  0  0  0  0  0  0  0  0  0  0  0
   14.0746  -34.4504   11.3169 N   0  0  0  0  0  0  0  0  0  0  0  0
   15.0243  -34.4114   11.0604 H   0  0  0  0  0  0  0  0  0  0  0  0
   13.2623  -36.7900   11.2712 C   0  0  0  0  0  0  0  0  0  0  0  0
   13.1835  -35.4022   10.6287 C   0  0  0  0  0  0  0  0  0  0  0  0
   11.9438  -28.9878   15.6565 C   0  0  0  0  0  0  0  0  0  0  0  0
   11.6908  -27.9108   16.0535 C   0  0  0  0  0  0  0  0  0  0  0  0
   11.3398  -26.5911   16.6166 C   0  0  0  0  0  0  0  0  0  0  0  0
    9.8302  -26.6032   16.8898 C   0  0  0  0  0  0  0  0  0  0  0  0
   12.1210  -26.3687   17.9081 C   0  0  0  0  0  0  0  0  0  0  0  0
   11.5765  -25.5162   15.6956 O   0  0  0  0  0  0  0  0  0  0  0  0
   11.0737  -25.6719   14.8809 H   0  0  0  0  0  0  0  0  0  0  0  0
 21 22  1  0  0  0
 22 19  1  0  0  0
  4  3  2  0  0  0
  4  5  1  0  0  0
  2  3  1  0  0  0
  2  1  2  0  0  0
  3  8  1  0  0  0
  5  6  2  0  0  0
 19  1  1  0  0  0
  1  9  1  0  0  0
  8  9  1  0  0  0
  8  7  2  0  0  0
  6  7  1  0  0  0
  6 23  1  0  0  0
  9 10  1  0  0  0
 23 24  3  0  0  0
 11 10  2  0  0  0
 11 12  1  0  0  0
 10 15  1  0  0  0
 28 25  1  0  0  0
 24 25  1  0  0  0
 12 13  2  0  0  0
 25 26  1  0  0  0
 25 27  1  0  0  0
 15 14  2  0  0  0
 13 14  1  0  0  0
 14 16  1  0  0  0
 19 20  1  0  0  0
 16 17  1  0  0  0
 16 18  1  0  0  0
 28 29  1  0  0  0
M  END
> <minimizedAffinity>
-7.65458

$$$$
4O0Y_2OO_A_601


 29 31  0  0  0  0  0  0  0  0999 V2000
   11.6057  -33.5154   16.2305 C   0  0  0  0  0  0  0  0  0  0  0  0
   11.7445  -32.2325   16.4662 N   0  0  0  0  0  0  0  0  0  0  0  0
   12.2886  -31.6202   15.3717 C   0  0  0  0  0  0  0  0  0  0  0  0
   12.6480  -30.2919   15.0854 C   0  0  0  0  0  0  0  0  0  0  0  0
   13.1785  -29.9535   13.8609 C   0  0  0  0  0  0  0  0  0  0  0  0
   13.3910  -30.9420   12.8892 C   0  0  0  0  0  0  0  0  0  0  0  0
   13.0412  -32.2661   13.1620 C   0  0  0  0  0  0  0  0  0  0  0  0
   12.4908  -32.6113   14.3890 C   0  0  0  0  0  0  0  0  0  0  0  0
   12.0516  -33.8027   14.9603 N   0  0  0  0  0  0  0  0  0  0  0  0
   12.0352  -35.0559   14.3552 C   0  0  0  0  0  0  0  0  0  0  0  0
   10.9540  -35.8441   14.4269 N   0  0  0  0  0  0  0  0  0  0  0  0
   10.9491  -37.0350   13.8263 C   0  0  0  0  0  0  0  0  0  0  0  0
   12.0221  -37.4393   13.1447 N   0  0  0  0  0  0  0  0  0  0  0  0
   13.0984  -36.6383   13.0663 C   0  0  0  0  0  0  0  0  0  0  0  0
   13.1010  -35.4545   13.6610 N   0  0  0  0  0  0  0  0  0  0  0  0
   14.2261  -37.0146   12.3809 N   0  0  0  0  0  0  0  0  0  0  0  0
   15.0013  -36.4093   12.3385 H   0  0  0  0  0  0  0  0  0  0  0  0
   14.2599  -37.8900   11.9315 H   0  0  0  0  0  0  0  0  0  0  0  0
   11.0912  -34.4547   17.1085 N   0  0  0  0  0  0  0  0  0  0  0  0
   11.6944  -35.1287   17.4971 H   0  0  0  0  0  0  0  0  0  0  0  0
    9.1335  -33.0498   17.6822 C   0  0  0  0  0  0  0  0  0  0  0  0
    9.6636  -34.4716   17.4764 C   0  0  0  0  0  0  0  0  0  0  0  0
   13.9455  -30.6101   11.6054 C   0  0  0  0  0  0  0  0  0  0  0  0
   14.3815  -30.3355   10.5489 C   0  0  0  0  0  0  0  0  0  0  0  0
   14.8754  -29.9317    9.2166 C   0  0  0  0  0  0  0  0  0  0  0  0
   15.3730  -31.2020    8.5149 C   0  0  0  0  0  0  0  0  0  0  0  0
   13.7374  -29.2896    8.4291 C   0  0  0  0  0  0  0  0  0  0  0  0
   15.9993  -29.0422    9.2898 O   0  0  0  0  0  0  0  0  0  0  0  0
   16.7134  -29.4642    9.7927 H   0  0  0  0  0  0  0  0  0  0  0  0
 21 22  1  0  0  0
 22 19  1  0  0  0
  4  3  2  0  0  0
  4  5  1  0  0  0
  2  3  1  0  0  0
  2  1  2  0  0  0
  3  8  1  0  0  0
  5  6  2  0  0  0
 19  1  1  0  0  0
  1  9  1  0  0  0
  8  9  1  0  0  0
  8  7  2  0  0  0
  6  7  1  0  0  0
  6 23  1  0  0  0
  9 10  1  0  0  0
 23 24  3  0  0  0
 11 10  2  0  0  0
 11 12  1  0  0  0
 10 15  1  0  0  0
 28 25  1  0  0  0
 24 25  1  0  0  0
 12 13  2  0  0  0
 25 26  1  0  0  0
 25 27  1  0  0  0
 15 14  2  0  0  0
 13 14  1  0  0  0
 14 16  1  0  0  0
 19 20  1  0  0  0
 16 17  1  0  0  0
 16 18  1  0  0  0
 28 29  1  0  0  0
M  END
> <minimizedAffinity>
-7.47801

$$$$
4O0Y_2OO_A_601


 29 31  0  0  0  0  0  0  0  0999 V2000
   12.7426  -35.0109   13.0992 C   0  0  0  0  0  0  0  0  0  0  0  0
   12.2304  -35.1126   14.3025 N   0  0  0  0  0  0  0  0  0  0  0  0
   12.1083  -33.8690   14.8569 C   0  0  0  0  0  0  0  0  0  0  0  0
   11.6364  -33.4049   16.0967 C   0  0  0  0  0  0  0  0  0  0  0  0
   11.6192  -32.0588   16.3854 C   0  0  0  0  0  0  0  0  0  0  0  0
   12.0995  -31.1326   15.4484 C   0  0  0  0  0  0  0  0  0  0  0  0
   12.5740  -31.5808   14.2139 C   0  0  0  0  0  0  0  0  0  0  0  0
   12.5792  -32.9356   13.9103 C   0  0  0  0  0  0  0  0  0  0  0  0
   12.9768  -33.6863   12.8072 N   0  0  0  0  0  0  0  0  0  0  0  0
   13.4914  -33.1943   11.6113 C   0  0  0  0  0  0  0  0  0  0  0  0
   14.2123  -32.0653   11.5814 N   0  0  0  0  0  0  0  0  0  0  0  0
   14.7128  -31.6175   10.4291 C   0  0  0  0  0  0  0  0  0  0  0  0
   14.5015  -32.3009    9.3031 N   0  0  0  0  0  0  0  0  0  0  0  0
   13.7882  -33.4393    9.3424 C   0  0  0  0  0  0  0  0  0  0  0  0
   13.2940  -33.8845   10.4881 N   0  0  0  0  0  0  0  0  0  0  0  0
   13.5412  -34.1723    8.2090 N   0  0  0  0  0  0  0  0  0  0  0  0
   13.0157  -35.0030    8.2647 H   0  0  0  0  0  0  0  0  0  0  0  0
   13.8894  -33.8675    7.3400 H   0  0  0  0  0  0  0  0  0  0  0  0
   13.0136  -36.0603   12.2370 N   0  0  0  0  0  0  0  0  0  0  0  0
   13.9028  -36.1196   11.8187 H   0  0  0  0  0  0  0  0  0  0  0  0
   12.2081  -38.3340   12.7999 C   0  0  0  0  0  0  0  0  0  0  0  0
   12.0051  -37.0908   11.9293 C   0  0  0  0  0  0  0  0  0  0  0  0
   12.0922  -29.7233   15.7308 C   0  0  0  0  0  0  0  0  0  0  0  0
   12.0691  -28.5694   15.9534 C   0  0  0  0  0  0  0  0  0  0  0  0
   11.9626  -27.1264   16.2506 C   0  0  0  0  0  0  0  0  0  0  0  0
   10.4700  -26.7719   16.2419 C   0  0  0  0  0  0  0  0  0  0  0  0
   12.5768  -26.8456   17.6187 C   0  0  0  0  0  0  0  0  0  0  0  0
   12.5796  -26.3079   15.2462 O   0  0  0  0  0  0  0  0  0  0  0  0
   12.1790  -26.4977   14.3834 H   0  0  0  0  0  0  0  0  0  0  0  0
 21 22  1  0  0  0
 22 19  1  0  0  0
  4  3  2  0  0  0
  4  5  1  0  0  0
  2  3  1  0  0  0
  2  1  2  0  0  0
  3  8  1  0  0  0
  5  6  2  0  0  0
 19  1  1  0  0  0
  1  9  1  0  0  0
  8  9  1  0  0  0
  8  7  2  0  0  0
  6  7  1  0  0  0
  6 23  1  0  0  0
  9 10  1  0  0  0
 23 24  3  0  0  0
 11 10  2  0  0  0
 11 12  1  0  0  0
 10 15  1  0  0  0
 28 25  1  0  0  0
 24 25  1  0  0  0
 12 13  2  0  0  0
 25 26  1  0  0  0
 25 27  1  0  0  0
 15 14  2  0  0  0
 13 14  1  0  0  0
 14 16  1  0  0  0
 19 20  1  0  0  0
 16 17  1  0  0  0
 16 18  1  0  0  0
 28 29  1  0  0  0
M  END
> <minimizedAffinity>
-7.27288

$$$$
4O0Y_2OO_A_601


 29 31  0  0  0  0  0  0  0  0999 V2000
   13.8631  -31.3982   10.2642 C   0  0  0  0  0  0  0  0  0  0  0  0
   14.1145  -32.2442    9.2938 N   0  0  0  0  0  0  0  0  0  0  0  0
   13.9423  -33.5237    9.7432 C   0  0  0  0  0  0  0  0  0  0  0  0
   14.0788  -34.7866    9.1418 C   0  0  0  0  0  0  0  0  0  0  0  0
   13.8209  -35.9374    9.8523 C   0  0  0  0  0  0  0  0  0  0  0  0
   13.4414  -35.8613   11.2001 C   0  0  0  0  0  0  0  0  0  0  0  0
   13.3050  -34.6128   11.8106 C   0  0  0  0  0  0  0  0  0  0  0  0
   13.5480  -33.4480   11.0952 C   0  0  0  0  0  0  0  0  0  0  0  0
   13.5079  -32.0900   11.4000 N   0  0  0  0  0  0  0  0  0  0  0  0
   13.1475  -31.5241   12.6193 C   0  0  0  0  0  0  0  0  0  0  0  0
   12.2274  -32.1010   13.4042 N   0  0  0  0  0  0  0  0  0  0  0  0
   11.9068  -31.5545   14.5778 C   0  0  0  0  0  0  0  0  0  0  0  0
   12.5105  -30.4333   14.9753 N   0  0  0  0  0  0  0  0  0  0  0  0
   13.4415  -29.8669   14.1888 C   0  0  0  0  0  0  0  0  0  0  0  0
   13.7611  -30.4124   13.0246 N   0  0  0  0  0  0  0  0  0  0  0  0
   14.0845  -28.7111   14.5541 N   0  0  0  0  0  0  0  0  0  0  0  0
   14.7629  -28.3163   13.9598 H   0  0  0  0  0  0  0  0  0  0  0  0
   13.8675  -28.2766   15.4104 H   0  0  0  0  0  0  0  0  0  0  0  0
   13.9359  -30.0176   10.1817 N   0  0  0  0  0  0  0  0  0  0  0  0
   14.3533  -29.5147   10.9179 H   0  0  0  0  0  0  0  0  0  0  0  0
   14.5314  -28.5932    8.2447 C   0  0  0  0  0  0  0  0  0  0  0  0
   13.4045  -29.2815    9.0200 C   0  0  0  0  0  0  0  0  0  0  0  0
   13.1694  -37.0505   11.9602 C   0  0  0  0  0  0  0  0  0  0  0  0
   12.9613  -38.0319   12.5727 C   0  0  0  0  0  0  0  0  0  0  0  0
   12.7786  -39.2757   13.3483 C   0  0  0  0  0  0  0  0  0  0  0  0
   11.9379  -38.9201   14.5814 C   0  0  0  0  0  0  0  0  0  0  0  0
   12.0615  -40.3089   12.4848 C   0  0  0  0  0  0  0  0  0  0  0  0
   14.0173  -39.8068   13.8416 O   0  0  0  0  0  0  0  0  0  0  0  0
   14.4606  -39.1391   14.3879 H   0  0  0  0  0  0  0  0  0  0  0  0
 21 22  1  0  0  0
 22 19  1  0  0  0
  4  3  2  0  0  0
  4  5  1  0  0  0
  2  3  1  0  0  0
  2  1  2  0  0  0
  3  8  1  0  0  0
  5  6  2  0  0  0
 19  1  1  0  0  0
  1  9  1  0  0  0
  8  9  1  0  0  0
  8  7  2  0  0  0
  6  7  1  0  0  0
  6 23  1  0  0  0
  9 10  1  0  0  0
 23 24  3  0  0  0
 11 10  2  0  0  0
 11 12  1  0  0  0
 10 15  1  0  0  0
 28 25  1  0  0  0
 24 25  1  0  0  0
 12 13  2  0  0  0
 25 26  1  0  0  0
 25 27  1  0  0  0
 15 14  2  0  0  0
 13 14  1  0  0  0
 14 16  1  0  0  0
 19 20  1  0  0  0
 16 17  1  0  0  0
 16 18  1  0  0  0
 28 29  1  0  0  0
M  END
> <minimizedAffinity>
-7.22920

$$$$
4O0Y_2OO_A_601


 29 31  0  0  0  0  0  0  0  0999 V2000
   14.6138  -31.3713   10.4856 C   0  0  0  0  0  0  0  0  0  0  0  0
   14.4209  -30.4250   11.3731 N   0  0  0  0  0  0  0  0  0  0  0  0
   13.7454  -30.9331   12.4475 C   0  0  0  0  0  0  0  0  0  0  0  0
   13.2837  -30.3748   13.6519 C   0  0  0  0  0  0  0  0  0  0  0  0
   12.6263  -31.1490   14.5814 C   0  0  0  0  0  0  0  0  0  0  0  0
   12.3864  -32.5062   14.3228 C   0  0  0  0  0  0  0  0  0  0  0  0
   12.8373  -33.0727   13.1287 C   0  0  0  0  0  0  0  0  0  0  0  0
   13.5151  -32.3012   12.1942 C   0  0  0  0  0  0  0  0  0  0  0  0
   14.0736  -32.5516   10.9437 N   0  0  0  0  0  0  0  0  0  0  0  0
   14.1100  -33.7753   10.2817 C   0  0  0  0  0  0  0  0  0  0  0  0
   13.6910  -33.8881    9.0139 N   0  0  0  0  0  0  0  0  0  0  0  0
   13.7492  -35.0648    8.3888 C   0  0  0  0  0  0  0  0  0  0  0  0
   14.2341  -36.1319    9.0258 N   0  0  0  0  0  0  0  0  0  0  0  0
   14.6643  -36.0088   10.2931 C   0  0  0  0  0  0  0  0  0  0  0  0
   14.6085  -34.8387   10.9119 N   0  0  0  0  0  0  0  0  0  0  0  0
   15.1657  -37.0797   10.9892 N   0  0  0  0  0  0  0  0  0  0  0  0
   15.4744  -36.9630   11.9167 H   0  0  0  0  0  0  0  0  0  0  0  0
   15.2167  -37.9648   10.5611 H   0  0  0  0  0  0  0  0  0  0  0  0
   15.2599  -31.2287    9.2689 N   0  0  0  0  0  0  0  0  0  0  0  0
   15.6787  -32.0167    8.8532 H   0  0  0  0  0  0  0  0  0  0  0  0
   16.7888  -29.5620    8.2589 C   0  0  0  0  0  0  0  0  0  0  0  0
   15.3369  -29.9274    8.5801 C   0  0  0  0  0  0  0  0  0  0  0  0
   11.7003  -33.3314   15.2789 C   0  0  0  0  0  0  0  0  0  0  0  0
   11.1241  -33.9944   16.0600 C   0  0  0  0  0  0  0  0  0  0  0  0
   10.3337  -34.8162   16.9990 C   0  0  0  0  0  0  0  0  0  0  0  0
   11.3033  -35.3445   18.0640 C   0  0  0  0  0  0  0  0  0  0  0  0
    9.2489  -33.9530   17.6361 C   0  0  0  0  0  0  0  0  0  0  0  0
    9.7533  -35.9690   16.3715 O   0  0  0  0  0  0  0  0  0  0  0  0
   10.4546  -36.5069   15.9717 H   0  0  0  0  0  0  0  0  0  0  0  0
 21 22  1  0  0  0
 22 19  1  0  0  0
  4  3  2  0  0  0
  4  5  1  0  0  0
  2  3  1  0  0  0
  2  1  2  0  0  0
  3  8  1  0  0  0
  5  6  2  0  0  0
 19  1  1  0  0  0
  1  9  1  0  0  0
  8  9  1  0  0  0
  8  7  2  0  0  0
  6  7  1  0  0  0
  6 23  1  0  0  0
  9 10  1  0  0  0
 23 24  3  0  0  0
 11 10  2  0  0  0
 11 12  1  0  0  0
 10 15  1  0  0  0
 28 25  1  0  0  0
 24 25  1  0  0  0
 12 13  2  0  0  0
 25 26  1  0  0  0
 25 27  1  0  0  0
 15 14  2  0  0  0
 13 14  1  0  0  0
 14 16  1  0  0  0
 19 20  1  0  0  0
 16 17  1  0  0  0
 16 18  1  0  0  0
 28 29  1  0  0  0
M  END
> <minimizedAffinity>
-7.20352

$$$$
4O0Y_2OO_A_601


 29 31  0  0  0  0  0  0  0  0999 V2000
   12.1666  -36.1952   13.3765 C   0  0  0  0  0  0  0  0  0  0  0  0
   12.0112  -35.1134   14.1018 N   0  0  0  0  0  0  0  0  0  0  0  0
   12.4361  -34.0221   13.3965 C   0  0  0  0  0  0  0  0  0  0  0  0
   12.5001  -32.6482   13.6861 C   0  0  0  0  0  0  0  0  0  0  0  0
   12.9761  -31.7529   12.7548 C   0  0  0  0  0  0  0  0  0  0  0  0
   13.4291  -32.2089   11.5085 C   0  0  0  0  0  0  0  0  0  0  0  0
   13.3738  -33.5718   11.2092 C   0  0  0  0  0  0  0  0  0  0  0  0
   12.8799  -34.4781   12.1380 C   0  0  0  0  0  0  0  0  0  0  0  0
   12.6999  -35.8586   12.1530 N   0  0  0  0  0  0  0  0  0  0  0  0
   12.9783  -36.7425   11.1146 C   0  0  0  0  0  0  0  0  0  0  0  0
   14.0745  -36.5969   10.3580 N   0  0  0  0  0  0  0  0  0  0  0  0
   14.3351  -37.4635    9.3782 C   0  0  0  0  0  0  0  0  0  0  0  0
   13.5051  -38.4840    9.1560 N   0  0  0  0  0  0  0  0  0  0  0  0
   12.4141  -38.6312    9.9270 C   0  0  0  0  0  0  0  0  0  0  0  0
   12.1579  -37.7713   10.9016 N   0  0  0  0  0  0  0  0  0  0  0  0
   11.5298  -39.6622    9.7318 N   0  0  0  0  0  0  0  0  0  0  0  0
   10.7380  -39.7477   10.3105 H   0  0  0  0  0  0  0  0  0  0  0  0
   11.6873  -40.3163    9.0130 H   0  0  0  0  0  0  0  0  0  0  0  0
   11.8488  -37.4872   13.7610 N   0  0  0  0  0  0  0  0  0  0  0  0
   12.2931  -38.2434   13.3138 H   0  0  0  0  0  0  0  0  0  0  0  0
   10.8945  -39.2338   15.2354 C   0  0  0  0  0  0  0  0  0  0  0  0
   10.8626  -37.7596   14.8225 C   0  0  0  0  0  0  0  0  0  0  0  0
   13.9315  -31.2911   10.5231 C   0  0  0  0  0  0  0  0  0  0  0  0
   14.3520  -30.5314    9.7309 C   0  0  0  0  0  0  0  0  0  0  0  0
   14.9505  -29.5792    8.7733 C   0  0  0  0  0  0  0  0  0  0  0  0
   15.7961  -30.3985    7.7898 C   0  0  0  0  0  0  0  0  0  0  0  0
   13.8392  -28.8341    8.0401 C   0  0  0  0  0  0  0  0  0  0  0  0
   15.8461  -28.6512    9.4028 O   0  0  0  0  0  0  0  0  0  0  0  0
   16.5459  -29.1394    9.8640 H   0  0  0  0  0  0  0  0  0  0  0  0
 21 22  1  0  0  0
 22 19  1  0  0  0
  4  3  2  0  0  0
  4  5  1  0  0  0
  2  3  1  0  0  0
  2  1  2  0  0  0
  3  8  1  0  0  0
  5  6  2  0  0  0
 19  1  1  0  0  0
  1  9  1  0  0  0
  8  9  1  0  0  0
  8  7  2  0  0  0
  6  7  1  0  0  0
  6 23  1  0  0  0
  9 10  1  0  0  0
 23 24  3  0  0  0
 11 10  2  0  0  0
 11 12  1  0  0  0
 10 15  1  0  0  0
 28 25  1  0  0  0
 24 25  1  0  0  0
 12 13  2  0  0  0
 25 26  1  0  0  0
 25 27  1  0  0  0
 15 14  2  0  0  0
 13 14  1  0  0  0
 14 16  1  0  0  0
 19 20  1  0  0  0
 16 17  1  0  0  0
 16 18  1  0  0  0
 28 29  1  0  0  0
M  END
> <minimizedAffinity>
-6.82999

$$$$
