4RRG_A3T_A_501
  RCSB PDB12061714413D
Coordinates from PDB:4RRG:A:501 Model:1 without hydrogens
 26 28  0  0  0  0            999 V2000
   -1.9720    7.6120   41.4790   C 0  0  0  0  0  0  0  0  0  0  0  0
    0.3640    7.7710   40.8430   N 0  0  0  0  0  0  0  0  0  0  0  0
   -1.7800    6.3410   41.9310   O 0  0  0  0  0  0  0  0  0  0  0  0
   -4.0000    3.8280   47.5900   N 0  0  0  0  0  0  0  0  0  0  0  0
   -3.0610    4.6840   47.1890   C 0  0  0  0  0  0  0  0  0  0  0  0
   -3.3950    5.8090   46.5480   N 0  0  0  0  0  0  0  0  0  0  0  0
   -4.6870    6.1070   46.2810   C 0  0  0  0  0  0  0  0  0  0  0  0
   -5.6850    5.2340   46.6890   C 0  0  0  0  0  0  0  0  0  0  0  0
   -5.3120    4.0710   47.3580   C 0  0  0  0  0  0  0  0  0  0  0  0
   -6.2530    3.2140   47.7610   N 0  0  0  0  0  0  0  0  0  0  0  0
   -6.8590    5.7520   46.3080   N 0  0  0  0  0  0  0  0  0  0  0  0
   -6.6180    6.9100   45.6940   C 0  0  0  0  0  0  0  0  0  0  0  0
   -2.9420    8.4380   41.8680   N 0  0  0  0  0  0  0  0  0  0  0  0
   -5.2960    7.1270   45.6670   N 0  0  0  0  0  0  0  0  0  0  0  0
   -0.9950    8.1530   40.4470   C 0  0  0  0  0  0  0  0  0  0  0  0
   -1.3130    7.5930   39.0590   C 0  0  0  0  0  0  0  0  0  0  0  0
   -0.4800    8.2790   38.1350   O 0  0  0  0  0  0  0  0  0  0  0  0
   -4.6240    8.3340   45.0940   C 0  0  0  0  0  0  0  0  0  0  0  0
   -3.3970    8.0180   44.2430   C 0  0  0  0  0  0  0  0  0  0  0  0
   -2.4270    9.0460   44.4510   O 0  0  0  0  0  0  0  0  0  0  0  0
   -3.9780    8.0580   42.8390   C 0  0  0  0  0  0  0  0  0  0  0  0
   -5.0520    9.1580   42.9200   C 0  0  0  0  0  0  0  0  0  0  0  0
   -5.5270    9.1580   44.2880   O 0  0  0  0  0  0  0  0  0  0  0  0
   -6.2480    8.8780   41.9870   C 0  0  0  0  0  0  0  0  0  0  0  0
   -6.7950    7.5820   42.2680   O 0  0  0  0  0  0  0  0  0  0  0  0
   -2.7850    7.7680   38.6520   C 0  0  0  0  0  0  0  0  0  0  0  0
  1  3  2  0  0  0  0
  1 13  1  0  0  0  0
  1 15  1  0  0  0  0
  2 15  1  0  0  0  0
  4  5  2  0  0  0  0
  4  9  1  0  0  0  0
  5  6  1  0  0  0  0
  6  7  2  0  0  0  0
  7  8  1  0  0  0  0
  7 14  1  0  0  0  0
  8  9  2  0  0  0  0
  8 11  1  0  0  0  0
  9 10  1  0  0  0  0
 11 12  2  0  0  0  0
 12 14  1  0  0  0  0
 13 21  1  0  0  0  0
 14 18  1  0  0  0  0
 15 16  1  0  0  0  0
 16 17  1  0  0  0  0
 16 26  1  0  0  0  0
 18 19  1  0  0  0  0
 18 23  1  0  0  0  0
 19 20  1  0  0  0  0
 19 21  1  0  0  0  0
 21 22  1  0  0  0  0
 22 23  1  0  0  0  0
 22 24  1  0  0  0  0
 24 25  1  0  0  0  0
A    1
C
A    2
N
A    3
O
A    4
N1
A    5
C2
A    6
N3
A    7
C4
A    8
C5
A    9
C6
A   10
N6
A   11
N7
A   12
C8
A   13
N8
A   14
N9
A   15
CA
A   16
CB
A   17
OG
A   18
C1'
A   19
C2'
A   20
O2'
A   21
C3'
A   22
C4'
A   23
O4'
A   24
C5'
A   25
O5'
A   26
CG2
M  END
>  <InstanceId>
4RRG_A3T_A_501

>  <ChemCompId>
A3T

>  <PdbId>
4RRG

>  <ChainId>
A

>  <ResidueNumber>
501

>  <InsertionCode>


>  <Model>
1

>  <AltIds>


>  <MissingHeavyAtoms>
0

>  <ObservedFormula>
C14 N7 O5

>  <Name>
3'-deoxy-3'-(L-threonylamino)adenosine

>  <SystematicName>
(2S,3R)-N-[(2S,3S,4R,5R)-5-(6-aminopurin-9-yl)-4-hydroxy-2-(hydroxymethyl)oxolan-3-yl]-2-azanyl-3-hydroxy-butanamide

>  <Synonyms>


>  <Type>
NON-POLYMER

>  <Formula>
C14 H21 N7 O5

>  <MolecularWeight>
367.36

>  <ModifiedDate>
2011-06-04

>  <Parent>


>  <OneLetterCode>


>  <SubcomponentList>


>  <AmbiguousFlag>
N

>  <InChI>
InChI=1S/C14H21N7O5/c1-5(23)7(15)13(25)20-8-6(2-22)26-14(10(8)24)21-4-19-9-11(16)17-3-18-12(9)21/h3-8,10,14,22-24H,2,15H2,1H3,(H,20,25)(H2,16,17,18)/t5-,6-,7+,8-,10-,14-/m1/s1

>  <InChIKey>
JYCQZCJEBNTMCV-JHJLZTHQSA-N

>  <SMILES>
C[C@H]([C@@H](C(=O)N[C@@H]1[C@H](O[C@H]([C@@H]1O)n2cnc3c2ncnc3N)CO)N)O

$$$$
