1TLP_RDF_E_317


 45 47  0  0  0  0  0  0  0  0999 V2000
   50.3026   17.0423   -6.8800 C   0  0  0  0  0  0  0  0  0  0  0  0
   50.3761   17.5783   -8.2803 C   0  0  0  0  0  0  0  0  0  0  0  0
   51.0752   16.9240   -9.0409 O   0  0  0  0  0  0  0  0  0  0  0  0
   49.6534   18.7186   -8.5757 N   0  0  0  0  0  0  0  0  0  0  0  0
   49.0919   19.0800   -7.8523 H   0  0  0  0  0  0  0  0  0  0  0  0
   49.6293   19.4545   -9.8535 C   0  0  0  0  0  0  0  0  0  0  0  0
   50.2734   20.8621   -9.7721 C   0  0  0  0  0  0  0  0  0  0  0  0
   51.1177   21.0441  -10.6995 O   0  0  0  0  0  0  0  0  0  0  0  0
   49.9350   21.6874   -8.8218 O   0  0  0  0  0  0  0  0  0  0  0  0
   49.2919   21.4348   -8.1889 H   0  0  0  0  0  0  0  0  0  0  0  0
   48.1969   19.3777  -10.4308 C   0  0  0  0  0  0  0  0  0  0  0  0
   47.7433   17.9965  -10.6629 C   0  0  0  0  0  0  0  0  0  0  0  0
   48.3393   17.0914  -11.4830 C   0  0  0  0  0  0  0  0  0  0  0  0
   46.6265   17.3426  -10.0646 C   0  0  0  0  0  0  0  0  0  0  0  0
   47.6828   15.8988  -11.4449 N   0  0  0  0  0  0  0  0  0  0  0  0
   46.6214   16.0188  -10.5967 C   0  0  0  0  0  0  0  0  0  0  0  0
   45.6436   17.7460   -9.1443 C   0  0  0  0  0  0  0  0  0  0  0  0
   45.6818   15.0702  -10.2392 C   0  0  0  0  0  0  0  0  0  0  0  0
   44.7149   16.7914   -8.7815 C   0  0  0  0  0  0  0  0  0  0  0  0
   44.7239   15.4888   -9.3367 C   0  0  0  0  0  0  0  0  0  0  0  0
   47.9320   15.0880  -11.9447 H   0  0  0  0  0  0  0  0  0  0  0  0
   50.8834   17.8559   -5.8221 N   0  0  0  0  0  0  0  0  0  0  0  0
   51.2067   17.1848   -5.1253 H   0  0  0  0  0  0  0  0  0  0  0  0
   51.9435   18.8001   -5.9368 P   0  0  0  0  0  0  0  0  0  0  0  0
   51.2272   20.0962   -6.3875 O   0  0  0  0  0  0  0  0  0  0  0  0
   52.8489   18.4158   -7.0099 O   0  0  0  0  0  0  0  0  0  0  0  0
   53.5652   19.0664   -7.0771 H   0  0  0  0  0  0  0  0  0  0  0  0
   52.6038   18.8435   -4.5673 O   0  0  0  0  0  0  0  0  0  0  0  0
   53.8891   18.4769   -4.1778 C   0  0  0  0  0  0  0  0  0  0  0  0
   53.7396   18.8009   -2.7273 C   0  0  0  0  0  0  0  0  0  0  0  0
   54.8681   18.3288   -1.8881 O   0  0  0  0  0  0  0  0  0  0  0  0
   52.6170   17.9646   -2.2446 C   0  0  0  0  0  0  0  0  0  0  0  0
   52.4788   18.4548   -0.9235 O   0  0  0  0  0  0  0  0  0  0  0  0
   53.1182   16.5337   -2.3236 C   0  0  0  0  0  0  0  0  0  0  0  0
   52.3202   15.6700   -1.5665 O   0  0  0  0  0  0  0  0  0  0  0  0
   53.2043   16.1216   -3.8022 C   0  0  0  0  0  0  0  0  0  0  0  0
   54.1330   17.0687   -4.4200 O   0  0  0  0  0  0  0  0  0  0  0  0
   53.5315   14.6502   -4.0915 C   0  0  0  0  0  0  0  0  0  0  0  0
   54.9479   17.3652   -1.9659 H   0  0  0  0  0  0  0  0  0  0  0  0
   53.3370   18.4168   -0.4731 H   0  0  0  0  0  0  0  0  0  0  0  0
   51.4124   15.6860   -1.9079 H   0  0  0  0  0  0  0  0  0  0  0  0
   48.8602   16.6508   -6.6010 C   0  0  0  0  0  0  0  0  0  0  0  0
   48.3912   15.3568   -7.3762 C   0  0  0  0  0  0  0  0  0  0  0  0
   49.3884   14.1844   -7.5212 C   0  0  0  0  0  0  0  0  0  0  0  0
   47.1284   14.7264   -6.7740 C   0  0  0  0  0  0  0  0  0  0  0  0
 29 28  1  0  0  0
 29 30  1  0  0  0
 29 37  1  0  0  0
 28 24  1  0  0  0
 30 31  1  0  0  0
 30 32  1  0  0  0
 32 33  1  0  0  0
 32 34  1  0  0  0
 34 35  1  0  0  0
 34 36  1  0  0  0
 36 37  1  0  0  0
 36 38  1  0  0  0
 24 25  2  0  0  0
 24 26  1  0  0  0
 22  1  1  0  0  0
  1  2  1  0  0  0
  1 42  1  0  0  0
  2  3  2  0  0  0
 42 43  1  0  0  0
 43 44  1  0  0  0
 43 45  1  0  0  0
  4  6  1  0  0  0
  6  7  1  0  0  0
  6 11  1  0  0  0
  7  8  2  0  0  0
  7  9  1  0  0  0
 11 12  1  0  0  0
 12 13  2  0  0  0
 12 14  1  0  0  0
 13 15  1  0  0  0
 14 16  2  0  0  0
 14 17  1  0  0  0
 15 16  1  0  0  0
 16 18  1  0  0  0
 17 19  2  0  0  0
 18 20  2  0  0  0
 19 20  1  0  0  0
 24 22  1  0  0  0
  2  4  1  0  0  0
 31 39  1  0  0  0
 33 40  1  0  0  0
 35 41  1  0  0  0
 26 27  1  0  0  0
 22 23  1  0  0  0
  4  5  1  0  0  0
 15 21  1  0  0  0
  9 10  1  0  0  0
M  END
> <minimizedAffinity>
-8.91015

$$$$
1TLP_RDF_E_317


 45 47  0  0  0  0  0  0  0  0999 V2000
   50.0991   17.0477   -6.8969 C   0  0  0  0  0  0  0  0  0  0  0  0
   50.2690   17.5637   -8.2964 C   0  0  0  0  0  0  0  0  0  0  0  0
   50.8969   16.8235   -9.0401 O   0  0  0  0  0  0  0  0  0  0  0  0
   49.7012   18.7840   -8.6098 N   0  0  0  0  0  0  0  0  0  0  0  0
   49.1740   19.2162   -7.8996 H   0  0  0  0  0  0  0  0  0  0  0  0
   49.7967   19.5110   -9.8894 C   0  0  0  0  0  0  0  0  0  0  0  0
   50.3711   20.9439   -9.7485 C   0  0  0  0  0  0  0  0  0  0  0  0
   51.2605   21.1787  -10.6202 O   0  0  0  0  0  0  0  0  0  0  0  0
   49.9398   21.7370   -8.8084 O   0  0  0  0  0  0  0  0  0  0  0  0
   49.2719   21.4455   -8.2194 H   0  0  0  0  0  0  0  0  0  0  0  0
   48.4453   19.3733  -10.6279 C   0  0  0  0  0  0  0  0  0  0  0  0
   48.5954   19.2744  -12.0891 C   0  0  0  0  0  0  0  0  0  0  0  0
   48.6750   20.3209  -12.9524 C   0  0  0  0  0  0  0  0  0  0  0  0
   48.7104   18.0849  -12.8665 C   0  0  0  0  0  0  0  0  0  0  0  0
   48.8401   19.8814  -14.2308 N   0  0  0  0  0  0  0  0  0  0  0  0
   48.8539   18.5176  -14.2185 C   0  0  0  0  0  0  0  0  0  0  0  0
   48.7037   16.7149  -12.5522 C   0  0  0  0  0  0  0  0  0  0  0  0
   49.0052   17.6394  -15.2752 C   0  0  0  0  0  0  0  0  0  0  0  0
   48.8672   15.8426  -13.6095 C   0  0  0  0  0  0  0  0  0  0  0  0
   48.9924   16.2987  -14.9441 C   0  0  0  0  0  0  0  0  0  0  0  0
   48.9336   20.4512  -15.0282 H   0  0  0  0  0  0  0  0  0  0  0  0
   50.8850   17.6844   -5.8503 N   0  0  0  0  0  0  0  0  0  0  0  0
   51.3690   16.9167   -5.3847 H   0  0  0  0  0  0  0  0  0  0  0  0
   51.8738   18.6980   -6.0031 P   0  0  0  0  0  0  0  0  0  0  0  0
   51.0558   19.9407   -6.4308 O   0  0  0  0  0  0  0  0  0  0  0  0
   52.7658   18.3720   -7.1062 O   0  0  0  0  0  0  0  0  0  0  0  0
   53.4335   19.0695   -7.1992 H   0  0  0  0  0  0  0  0  0  0  0  0
   52.5763   18.7917   -4.6573 O   0  0  0  0  0  0  0  0  0  0  0  0
   53.8605   18.4034   -4.2854 C   0  0  0  0  0  0  0  0  0  0  0  0
   53.7871   18.8651   -2.8667 C   0  0  0  0  0  0  0  0  0  0  0  0
   54.9295   18.4201   -2.0316 O   0  0  0  0  0  0  0  0  0  0  0  0
   52.6518   18.1291   -2.2650 C   0  0  0  0  0  0  0  0  0  0  0  0
   52.5912   18.7437   -0.9910 O   0  0  0  0  0  0  0  0  0  0  0  0
   53.0882   16.6753   -2.2298 C   0  0  0  0  0  0  0  0  0  0  0  0
   52.2875   15.9221   -1.3651 O   0  0  0  0  0  0  0  0  0  0  0  0
   53.0933   16.1263   -3.6657 C   0  0  0  0  0  0  0  0  0  0  0  0
   54.0339   16.9691   -4.4047 O   0  0  0  0  0  0  0  0  0  0  0  0
   53.3452   14.6211   -3.8292 C   0  0  0  0  0  0  0  0  0  0  0  0
   54.9650   17.4508   -2.0223 H   0  0  0  0  0  0  0  0  0  0  0  0
   53.4656   18.7075   -0.5727 H   0  0  0  0  0  0  0  0  0  0  0  0
   51.3674   15.9486   -1.6711 H   0  0  0  0  0  0  0  0  0  0  0  0
   48.6115   17.0173   -6.5840 C   0  0  0  0  0  0  0  0  0  0  0  0
   47.7723   16.1142   -7.5717 C   0  0  0  0  0  0  0  0  0  0  0  0
   47.2397   14.7578   -7.0553 C   0  0  0  0  0  0  0  0  0  0  0  0
   46.5383   16.8327   -8.1333 C   0  0  0  0  0  0  0  0  0  0  0  0
 29 28  1  0  0  0
 29 30  1  0  0  0
 29 37  1  0  0  0
 28 24  1  0  0  0
 30 31  1  0  0  0
 30 32  1  0  0  0
 32 33  1  0  0  0
 32 34  1  0  0  0
 34 35  1  0  0  0
 34 36  1  0  0  0
 36 37  1  0  0  0
 36 38  1  0  0  0
 24 25  2  0  0  0
 24 26  1  0  0  0
 22  1  1  0  0  0
  1  2  1  0  0  0
  1 42  1  0  0  0
  2  3  2  0  0  0
 42 43  1  0  0  0
 43 44  1  0  0  0
 43 45  1  0  0  0
  4  6  1  0  0  0
  6  7  1  0  0  0
  6 11  1  0  0  0
  7  8  2  0  0  0
  7  9  1  0  0  0
 11 12  1  0  0  0
 12 13  2  0  0  0
 12 14  1  0  0  0
 13 15  1  0  0  0
 14 16  2  0  0  0
 14 17  1  0  0  0
 15 16  1  0  0  0
 16 18  1  0  0  0
 17 19  2  0  0  0
 18 20  2  0  0  0
 19 20  1  0  0  0
 24 22  1  0  0  0
  2  4  1  0  0  0
 31 39  1  0  0  0
 33 40  1  0  0  0
 35 41  1  0  0  0
 26 27  1  0  0  0
 22 23  1  0  0  0
  4  5  1  0  0  0
 15 21  1  0  0  0
  9 10  1  0  0  0
M  END
> <minimizedAffinity>
-8.84752

$$$$
1TLP_RDF_E_317


 45 47  0  0  0  0  0  0  0  0999 V2000
   52.9114   18.2045   -3.3692 C   0  0  0  0  0  0  0  0  0  0  0  0
   53.4001   16.7877   -3.2817 C   0  0  0  0  0  0  0  0  0  0  0  0
   54.6136   16.6608   -3.3645 O   0  0  0  0  0  0  0  0  0  0  0  0
   52.4618   15.7891   -3.1030 N   0  0  0  0  0  0  0  0  0  0  0  0
   51.5280   16.0811   -2.9938 H   0  0  0  0  0  0  0  0  0  0  0  0
   52.7031   14.3349   -3.0575 C   0  0  0  0  0  0  0  0  0  0  0  0
   52.2583   13.6725   -1.7285 C   0  0  0  0  0  0  0  0  0  0  0  0
   53.1218   12.8469   -1.3059 O   0  0  0  0  0  0  0  0  0  0  0  0
   51.1115   13.9800   -1.1908 O   0  0  0  0  0  0  0  0  0  0  0  0
   50.5554   14.6119   -1.6024 H   0  0  0  0  0  0  0  0  0  0  0  0
   54.1563   14.0696   -3.5142 C   0  0  0  0  0  0  0  0  0  0  0  0
   54.2446   13.0997   -4.6183 C   0  0  0  0  0  0  0  0  0  0  0  0
   53.3389   12.9521   -5.6207 C   0  0  0  0  0  0  0  0  0  0  0  0
   55.2900   12.1614   -4.8616 C   0  0  0  0  0  0  0  0  0  0  0  0
   53.7376   11.9862   -6.4940 N   0  0  0  0  0  0  0  0  0  0  0  0
   54.9218   11.4712   -6.0548 C   0  0  0  0  0  0  0  0  0  0  0  0
   56.4842   11.8429   -4.1921 C   0  0  0  0  0  0  0  0  0  0  0  0
   55.7031   10.4810   -6.6201 C   0  0  0  0  0  0  0  0  0  0  0  0
   57.2666   10.8618   -4.7674 C   0  0  0  0  0  0  0  0  0  0  0  0
   56.8698   10.1818   -5.9444 C   0  0  0  0  0  0  0  0  0  0  0  0
   53.2535   11.7071   -7.3046 H   0  0  0  0  0  0  0  0  0  0  0  0
   51.8463   18.4859   -4.3206 N   0  0  0  0  0  0  0  0  0  0  0  0
   51.4179   19.3483   -3.9842 H   0  0  0  0  0  0  0  0  0  0  0  0
   51.9656   18.6644   -5.7285 P   0  0  0  0  0  0  0  0  0  0  0  0
   53.4580   18.3623   -6.0070 O   0  0  0  0  0  0  0  0  0  0  0  0
   51.7373   20.0578   -6.0826 O   0  0  0  0  0  0  0  0  0  0  0  0
   51.8214   20.1653   -7.0429 H   0  0  0  0  0  0  0  0  0  0  0  0
   50.9627   17.7045   -6.3499 O   0  0  0  0  0  0  0  0  0  0  0  0
   51.1187   16.7903   -7.3882 C   0  0  0  0  0  0  0  0  0  0  0  0
   50.0291   15.8562   -6.9741 C   0  0  0  0  0  0  0  0  0  0  0  0
   49.7147   14.8165   -7.9845 O   0  0  0  0  0  0  0  0  0  0  0  0
   48.7905   16.6675   -6.9613 C   0  0  0  0  0  0  0  0  0  0  0  0
   47.8734   15.7311   -6.4260 O   0  0  0  0  0  0  0  0  0  0  0  0
   48.5300   17.0271   -8.4132 C   0  0  0  0  0  0  0  0  0  0  0  0
   47.2172   17.4708   -8.6023 O   0  0  0  0  0  0  0  0  0  0  0  0
   49.5774   18.0592   -8.8619 C   0  0  0  0  0  0  0  0  0  0  0  0
   50.8745   17.4077   -8.6768 O   0  0  0  0  0  0  0  0  0  0  0  0
   49.3850   18.6791  -10.2527 C   0  0  0  0  0  0  0  0  0  0  0  0
   49.4369   15.2420   -8.8107 H   0  0  0  0  0  0  0  0  0  0  0  0
   47.9082   14.9119   -6.9443 H   0  0  0  0  0  0  0  0  0  0  0  0
   47.0643   18.2655   -8.0675 H   0  0  0  0  0  0  0  0  0  0  0  0
   52.5875   18.6784   -1.9613 C   0  0  0  0  0  0  0  0  0  0  0  0
   53.8036   18.5712   -0.9589 C   0  0  0  0  0  0  0  0  0  0  0  0
   54.7704   19.7721   -0.8442 C   0  0  0  0  0  0  0  0  0  0  0  0
   53.3640   18.2817    0.4825 C   0  0  0  0  0  0  0  0  0  0  0  0
 29 28  1  0  0  0
 29 30  1  0  0  0
 29 37  1  0  0  0
 28 24  1  0  0  0
 30 31  1  0  0  0
 30 32  1  0  0  0
 32 33  1  0  0  0
 32 34  1  0  0  0
 34 35  1  0  0  0
 34 36  1  0  0  0
 36 37  1  0  0  0
 36 38  1  0  0  0
 24 25  2  0  0  0
 24 26  1  0  0  0
 22  1  1  0  0  0
  1  2  1  0  0  0
  1 42  1  0  0  0
  2  3  2  0  0  0
 42 43  1  0  0  0
 43 44  1  0  0  0
 43 45  1  0  0  0
  4  6  1  0  0  0
  6  7  1  0  0  0
  6 11  1  0  0  0
  7  8  2  0  0  0
  7  9  1  0  0  0
 11 12  1  0  0  0
 12 13  2  0  0  0
 12 14  1  0  0  0
 13 15  1  0  0  0
 14 16  2  0  0  0
 14 17  1  0  0  0
 15 16  1  0  0  0
 16 18  1  0  0  0
 17 19  2  0  0  0
 18 20  2  0  0  0
 19 20  1  0  0  0
 24 22  1  0  0  0
  2  4  1  0  0  0
 31 39  1  0  0  0
 33 40  1  0  0  0
 35 41  1  0  0  0
 26 27  1  0  0  0
 22 23  1  0  0  0
  4  5  1  0  0  0
 15 21  1  0  0  0
  9 10  1  0  0  0
M  END
> <minimizedAffinity>
-8.68901

$$$$
1TLP_RDF_E_317


 45 47  0  0  0  0  0  0  0  0999 V2000
   50.2680   17.6392   -7.3258 C   0  0  0  0  0  0  0  0  0  0  0  0
   49.9940   18.4165   -8.5805 C   0  0  0  0  0  0  0  0  0  0  0  0
   50.9626   19.0083   -9.0356 O   0  0  0  0  0  0  0  0  0  0  0  0
   48.7139   18.3778   -9.0995 N   0  0  0  0  0  0  0  0  0  0  0  0
   48.0707   17.7958   -8.6339 H   0  0  0  0  0  0  0  0  0  0  0  0
   48.2036   19.1109  -10.2730 C   0  0  0  0  0  0  0  0  0  0  0  0
   46.6748   19.3639  -10.2310 C   0  0  0  0  0  0  0  0  0  0  0  0
   46.0575   18.4050   -9.6784 O   0  0  0  0  0  0  0  0  0  0  0  0
   46.1733   20.4544  -10.7391 O   0  0  0  0  0  0  0  0  0  0  0  0
   46.7386   21.0951  -11.1236 H   0  0  0  0  0  0  0  0  0  0  0  0
   48.7617   18.4361  -11.5473 C   0  0  0  0  0  0  0  0  0  0  0  0
   49.0795   19.3978  -12.6157 C   0  0  0  0  0  0  0  0  0  0  0  0
   48.5329   19.4127  -13.8599 C   0  0  0  0  0  0  0  0  0  0  0  0
   49.9861   20.4959  -12.5472 C   0  0  0  0  0  0  0  0  0  0  0  0
   49.0239   20.4514  -14.5911 N   0  0  0  0  0  0  0  0  0  0  0  0
   49.9255   21.1292  -13.8243 C   0  0  0  0  0  0  0  0  0  0  0  0
   50.8325   20.9951  -11.5421 C   0  0  0  0  0  0  0  0  0  0  0  0
   50.6661   22.2526  -14.1404 C   0  0  0  0  0  0  0  0  0  0  0  0
   51.5608   22.1242  -11.8589 C   0  0  0  0  0  0  0  0  0  0  0  0
   51.4931   22.7240  -13.1398 C   0  0  0  0  0  0  0  0  0  0  0  0
   48.7710   20.6751  -15.5159 H   0  0  0  0  0  0  0  0  0  0  0  0
   50.8493   18.3634   -6.2051 N   0  0  0  0  0  0  0  0  0  0  0  0
   50.5988   17.8148   -5.3825 H   0  0  0  0  0  0  0  0  0  0  0  0
   52.2178   18.7066   -6.0101 P   0  0  0  0  0  0  0  0  0  0  0  0
   52.1946   20.2518   -5.9201 O   0  0  0  0  0  0  0  0  0  0  0  0
   52.9992   18.3579   -7.1878 O   0  0  0  0  0  0  0  0  0  0  0  0
   53.9279   18.5966   -7.0419 H   0  0  0  0  0  0  0  0  0  0  0  0
   52.6498   17.9707   -4.7511 O   0  0  0  0  0  0  0  0  0  0  0  0
   53.9190   17.7847   -4.2101 C   0  0  0  0  0  0  0  0  0  0  0  0
   53.7772   18.7474   -3.0768 C   0  0  0  0  0  0  0  0  0  0  0  0
   54.8844   18.6808   -2.0917 O   0  0  0  0  0  0  0  0  0  0  0  0
   52.6222   18.2657   -2.2853 C   0  0  0  0  0  0  0  0  0  0  0  0
   52.4984   19.3154   -1.3433 O   0  0  0  0  0  0  0  0  0  0  0  0
   53.0691   16.9452   -1.6841 C   0  0  0  0  0  0  0  0  0  0  0  0
   52.2364   16.5557   -0.6300 O   0  0  0  0  0  0  0  0  0  0  0  0
   53.1441   15.8935   -2.8029 C   0  0  0  0  0  0  0  0  0  0  0  0
   54.1100   16.4170   -3.7693 O   0  0  0  0  0  0  0  0  0  0  0  0
   53.4162   14.4454   -2.3729 C   0  0  0  0  0  0  0  0  0  0  0  0
   54.9278   17.7885   -1.7138 H   0  0  0  0  0  0  0  0  0  0  0  0
   53.3532   19.4625   -0.9090 H   0  0  0  0  0  0  0  0  0  0  0  0
   51.3310   16.4411   -0.9586 H   0  0  0  0  0  0  0  0  0  0  0  0
   49.0001   16.8882   -6.9512 C   0  0  0  0  0  0  0  0  0  0  0  0
   49.0500   15.3466   -7.2922 C   0  0  0  0  0  0  0  0  0  0  0  0
   48.5118   14.8789   -8.6639 C   0  0  0  0  0  0  0  0  0  0  0  0
   50.4665   14.7629   -7.2062 C   0  0  0  0  0  0  0  0  0  0  0  0
 29 28  1  0  0  0
 29 30  1  0  0  0
 29 37  1  0  0  0
 28 24  1  0  0  0
 30 31  1  0  0  0
 30 32  1  0  0  0
 32 33  1  0  0  0
 32 34  1  0  0  0
 34 35  1  0  0  0
 34 36  1  0  0  0
 36 37  1  0  0  0
 36 38  1  0  0  0
 24 25  2  0  0  0
 24 26  1  0  0  0
 22  1  1  0  0  0
  1  2  1  0  0  0
  1 42  1  0  0  0
  2  3  2  0  0  0
 42 43  1  0  0  0
 43 44  1  0  0  0
 43 45  1  0  0  0
  4  6  1  0  0  0
  6  7  1  0  0  0
  6 11  1  0  0  0
  7  8  2  0  0  0
  7  9  1  0  0  0
 11 12  1  0  0  0
 12 13  2  0  0  0
 12 14  1  0  0  0
 13 15  1  0  0  0
 14 16  2  0  0  0
 14 17  1  0  0  0
 15 16  1  0  0  0
 16 18  1  0  0  0
 17 19  2  0  0  0
 18 20  2  0  0  0
 19 20  1  0  0  0
 24 22  1  0  0  0
  2  4  1  0  0  0
 31 39  1  0  0  0
 33 40  1  0  0  0
 35 41  1  0  0  0
 26 27  1  0  0  0
 22 23  1  0  0  0
  4  5  1  0  0  0
 15 21  1  0  0  0
  9 10  1  0  0  0
M  END
> <minimizedAffinity>
-8.61620

$$$$
1TLP_RDF_E_317


 45 47  0  0  0  0  0  0  0  0999 V2000
   50.1655   17.0541   -6.8180 C   0  0  0  0  0  0  0  0  0  0  0  0
   50.4392   17.4706   -8.2341 C   0  0  0  0  0  0  0  0  0  0  0  0
   51.0395   16.6411   -8.9027 O   0  0  0  0  0  0  0  0  0  0  0  0
   49.9846   18.7096   -8.6438 N   0  0  0  0  0  0  0  0  0  0  0  0
   49.4616   19.2228   -7.9863 H   0  0  0  0  0  0  0  0  0  0  0  0
   50.1955   19.3489   -9.9560 C   0  0  0  0  0  0  0  0  0  0  0  0
   50.1654   20.8979   -9.9044 C   0  0  0  0  0  0  0  0  0  0  0  0
   50.5754   21.4097  -10.9888 O   0  0  0  0  0  0  0  0  0  0  0  0
   49.7636   21.5135   -8.8281 O   0  0  0  0  0  0  0  0  0  0  0  0
   49.4814   21.0195   -8.0836 H   0  0  0  0  0  0  0  0  0  0  0  0
   49.2604   18.6693  -10.9829 C   0  0  0  0  0  0  0  0  0  0  0  0
   47.9395   19.3132  -11.0727 C   0  0  0  0  0  0  0  0  0  0  0  0
   47.0261   19.3964  -10.0699 C   0  0  0  0  0  0  0  0  0  0  0  0
   47.3815   19.9850  -12.1996 C   0  0  0  0  0  0  0  0  0  0  0  0
   45.9224   20.0827  -10.4770 N   0  0  0  0  0  0  0  0  0  0  0  0
   46.0990   20.4479  -11.7793 C   0  0  0  0  0  0  0  0  0  0  0  0
   47.8374   20.2336  -13.5058 C   0  0  0  0  0  0  0  0  0  0  0  0
   45.2520   21.1633  -12.6048 C   0  0  0  0  0  0  0  0  0  0  0  0
   46.9930   20.9588  -14.3222 C   0  0  0  0  0  0  0  0  0  0  0  0
   45.7184   21.3932  -13.8842 C   0  0  0  0  0  0  0  0  0  0  0  0
   45.1317   20.2815   -9.9252 H   0  0  0  0  0  0  0  0  0  0  0  0
   50.9149   17.7270   -5.7673 N   0  0  0  0  0  0  0  0  0  0  0  0
   51.3778   16.9758   -5.2556 H   0  0  0  0  0  0  0  0  0  0  0  0
   51.9132   18.7311   -5.9208 P   0  0  0  0  0  0  0  0  0  0  0  0
   51.1082   19.9786   -6.3587 O   0  0  0  0  0  0  0  0  0  0  0  0
   52.8074   18.3915   -7.0181 O   0  0  0  0  0  0  0  0  0  0  0  0
   53.4816   19.0826   -7.1116 H   0  0  0  0  0  0  0  0  0  0  0  0
   52.6104   18.8257   -4.5723 O   0  0  0  0  0  0  0  0  0  0  0  0
   53.8963   18.4461   -4.1973 C   0  0  0  0  0  0  0  0  0  0  0  0
   53.7825   18.8165   -2.7547 C   0  0  0  0  0  0  0  0  0  0  0  0
   54.9188   18.3480   -1.9240 O   0  0  0  0  0  0  0  0  0  0  0  0
   52.6543   18.0172   -2.2245 C   0  0  0  0  0  0  0  0  0  0  0  0
   52.5524   18.5496   -0.9166 O   0  0  0  0  0  0  0  0  0  0  0  0
   53.1268   16.5751   -2.2697 C   0  0  0  0  0  0  0  0  0  0  0  0
   52.3282   15.7503   -1.4709 O   0  0  0  0  0  0  0  0  0  0  0  0
   53.1749   16.1169   -3.7364 C   0  0  0  0  0  0  0  0  0  0  0  0
   54.1085   17.0266   -4.4012 O   0  0  0  0  0  0  0  0  0  0  0  0
   53.4683   14.6314   -3.9870 C   0  0  0  0  0  0  0  0  0  0  0  0
   54.9787   17.3812   -1.9739 H   0  0  0  0  0  0  0  0  0  0  0  0
   53.4188   18.5086   -0.4823 H   0  0  0  0  0  0  0  0  0  0  0  0
   51.4141   15.7737   -1.7945 H   0  0  0  0  0  0  0  0  0  0  0  0
   48.6621   17.1016   -6.5957 C   0  0  0  0  0  0  0  0  0  0  0  0
   47.8484   16.1348   -7.5435 C   0  0  0  0  0  0  0  0  0  0  0  0
   47.9033   14.6149   -7.2662 C   0  0  0  0  0  0  0  0  0  0  0  0
   46.3521   16.4709   -7.5948 C   0  0  0  0  0  0  0  0  0  0  0  0
 29 28  1  0  0  0
 29 30  1  0  0  0
 29 37  1  0  0  0
 28 24  1  0  0  0
 30 31  1  0  0  0
 30 32  1  0  0  0
 32 33  1  0  0  0
 32 34  1  0  0  0
 34 35  1  0  0  0
 34 36  1  0  0  0
 36 37  1  0  0  0
 36 38  1  0  0  0
 24 25  2  0  0  0
 24 26  1  0  0  0
 22  1  1  0  0  0
  1  2  1  0  0  0
  1 42  1  0  0  0
  2  3  2  0  0  0
 42 43  1  0  0  0
 43 44  1  0  0  0
 43 45  1  0  0  0
  4  6  1  0  0  0
  6  7  1  0  0  0
  6 11  1  0  0  0
  7  8  2  0  0  0
  7  9  1  0  0  0
 11 12  1  0  0  0
 12 13  2  0  0  0
 12 14  1  0  0  0
 13 15  1  0  0  0
 14 16  2  0  0  0
 14 17  1  0  0  0
 15 16  1  0  0  0
 16 18  1  0  0  0
 17 19  2  0  0  0
 18 20  2  0  0  0
 19 20  1  0  0  0
 24 22  1  0  0  0
  2  4  1  0  0  0
 31 39  1  0  0  0
 33 40  1  0  0  0
 35 41  1  0  0  0
 26 27  1  0  0  0
 22 23  1  0  0  0
  4  5  1  0  0  0
 15 21  1  0  0  0
  9 10  1  0  0  0
M  END
> <minimizedAffinity>
-8.60679

$$$$
1TLP_RDF_E_317


 45 47  0  0  0  0  0  0  0  0999 V2000
   49.9269   16.8883   -6.9628 C   0  0  0  0  0  0  0  0  0  0  0  0
   49.9551   17.3545   -8.3895 C   0  0  0  0  0  0  0  0  0  0  0  0
   50.7477   16.7587   -9.1052 O   0  0  0  0  0  0  0  0  0  0  0  0
   49.0948   18.3722   -8.7551 N   0  0  0  0  0  0  0  0  0  0  0  0
   48.4776   18.6943   -8.0589 H   0  0  0  0  0  0  0  0  0  0  0  0
   48.9978   19.0298  -10.0716 C   0  0  0  0  0  0  0  0  0  0  0  0
   48.3436   18.1434  -11.1622 C   0  0  0  0  0  0  0  0  0  0  0  0
   47.1485   18.4947  -11.3951 O   0  0  0  0  0  0  0  0  0  0  0  0
   49.0145   17.1688  -11.7088 O   0  0  0  0  0  0  0  0  0  0  0  0
   49.9005   17.0071  -11.4501 H   0  0  0  0  0  0  0  0  0  0  0  0
   50.3757   19.6446  -10.4097 C   0  0  0  0  0  0  0  0  0  0  0  0
   50.2737   20.9426  -11.0969 C   0  0  0  0  0  0  0  0  0  0  0  0
   50.4861   22.1600  -10.5315 C   0  0  0  0  0  0  0  0  0  0  0  0
   49.9635   21.1706  -12.4696 C   0  0  0  0  0  0  0  0  0  0  0  0
   50.3393   23.1528  -11.4521 N   0  0  0  0  0  0  0  0  0  0  0  0
   50.0070   22.5856  -12.6472 C   0  0  0  0  0  0  0  0  0  0  0  0
   49.6555   20.3246  -13.5491 C   0  0  0  0  0  0  0  0  0  0  0  0
   49.7687   23.1966  -13.8639 C   0  0  0  0  0  0  0  0  0  0  0  0
   49.4303   20.9391  -14.7645 C   0  0  0  0  0  0  0  0  0  0  0  0
   49.4649   22.3472  -14.9096 C   0  0  0  0  0  0  0  0  0  0  0  0
   50.4536   24.1160  -11.2837 H   0  0  0  0  0  0  0  0  0  0  0  0
   51.0175   17.3158   -6.0989 N   0  0  0  0  0  0  0  0  0  0  0  0
   51.7023   16.5617   -6.1516 H   0  0  0  0  0  0  0  0  0  0  0  0
   51.7850   18.5115   -6.1979 P   0  0  0  0  0  0  0  0  0  0  0  0
   50.7309   19.5912   -6.5430 O   0  0  0  0  0  0  0  0  0  0  0  0
   52.7017   18.4318   -7.3259 O   0  0  0  0  0  0  0  0  0  0  0  0
   53.2176   19.2514   -7.3818 H   0  0  0  0  0  0  0  0  0  0  0  0
   52.4819   18.6637   -4.8545 O   0  0  0  0  0  0  0  0  0  0  0  0
   53.7579   18.2753   -4.4555 C   0  0  0  0  0  0  0  0  0  0  0  0
   53.7555   18.9713   -3.1338 C   0  0  0  0  0  0  0  0  0  0  0  0
   54.9031   18.6122   -2.2650 O   0  0  0  0  0  0  0  0  0  0  0  0
   52.6073   18.4080   -2.3875 C   0  0  0  0  0  0  0  0  0  0  0  0
   52.6200   19.2296   -1.2345 O   0  0  0  0  0  0  0  0  0  0  0  0
   52.9741   16.9595   -2.1183 C   0  0  0  0  0  0  0  0  0  0  0  0
   52.1681   16.4055   -1.1185 O   0  0  0  0  0  0  0  0  0  0  0  0
   52.9035   16.1783   -3.4405 C   0  0  0  0  0  0  0  0  0  0  0  0
   53.8578   16.8342   -4.3350 O   0  0  0  0  0  0  0  0  0  0  0  0
   53.0769   14.6557   -3.3536 C   0  0  0  0  0  0  0  0  0  0  0  0
   54.8921   17.6576   -2.0930 H   0  0  0  0  0  0  0  0  0  0  0  0
   53.5055   19.2175   -0.8386 H   0  0  0  0  0  0  0  0  0  0  0  0
   51.2404   16.4293   -1.4009 H   0  0  0  0  0  0  0  0  0  0  0  0
   48.5564   17.2112   -6.3892 C   0  0  0  0  0  0  0  0  0  0  0  0
   47.4766   16.0885   -6.6517 C   0  0  0  0  0  0  0  0  0  0  0  0
   46.2979   16.4088   -7.5994 C   0  0  0  0  0  0  0  0  0  0  0  0
   48.0859   14.7939   -7.2061 C   0  0  0  0  0  0  0  0  0  0  0  0
 29 28  1  0  0  0
 29 30  1  0  0  0
 29 37  1  0  0  0
 28 24  1  0  0  0
 30 31  1  0  0  0
 30 32  1  0  0  0
 32 33  1  0  0  0
 32 34  1  0  0  0
 34 35  1  0  0  0
 34 36  1  0  0  0
 36 37  1  0  0  0
 36 38  1  0  0  0
 24 25  2  0  0  0
 24 26  1  0  0  0
 22  1  1  0  0  0
  1  2  1  0  0  0
  1 42  1  0  0  0
  2  3  2  0  0  0
 42 43  1  0  0  0
 43 44  1  0  0  0
 43 45  1  0  0  0
  4  6  1  0  0  0
  6  7  1  0  0  0
  6 11  1  0  0  0
  7  8  2  0  0  0
  7  9  1  0  0  0
 11 12  1  0  0  0
 12 13  2  0  0  0
 12 14  1  0  0  0
 13 15  1  0  0  0
 14 16  2  0  0  0
 14 17  1  0  0  0
 15 16  1  0  0  0
 16 18  1  0  0  0
 17 19  2  0  0  0
 18 20  2  0  0  0
 19 20  1  0  0  0
 24 22  1  0  0  0
  2  4  1  0  0  0
 31 39  1  0  0  0
 33 40  1  0  0  0
 35 41  1  0  0  0
 26 27  1  0  0  0
 22 23  1  0  0  0
  4  5  1  0  0  0
 15 21  1  0  0  0
  9 10  1  0  0  0
M  END
> <minimizedAffinity>
-8.59261

$$$$
1TLP_RDF_E_317


 45 47  0  0  0  0  0  0  0  0999 V2000
   52.7363   18.3086   -3.7004 C   0  0  0  0  0  0  0  0  0  0  0  0
   53.6565   17.1446   -3.9284 C   0  0  0  0  0  0  0  0  0  0  0  0
   54.8312   17.4462   -4.0849 O   0  0  0  0  0  0  0  0  0  0  0  0
   53.1091   15.8758   -3.9225 N   0  0  0  0  0  0  0  0  0  0  0  0
   52.1481   15.8151   -3.7173 H   0  0  0  0  0  0  0  0  0  0  0  0
   53.8036   14.6024   -4.1894 C   0  0  0  0  0  0  0  0  0  0  0  0
   53.0304   13.6623   -5.1493 C   0  0  0  0  0  0  0  0  0  0  0  0
   51.7839   13.8891   -5.1220 O   0  0  0  0  0  0  0  0  0  0  0  0
   53.6682   12.7679   -5.8507 O   0  0  0  0  0  0  0  0  0  0  0  0
   54.6001   12.6972   -5.7838 H   0  0  0  0  0  0  0  0  0  0  0  0
   54.2502   14.0005   -2.8370 C   0  0  0  0  0  0  0  0  0  0  0  0
   53.1337   13.4338   -2.0625 C   0  0  0  0  0  0  0  0  0  0  0  0
   52.0667   14.1260   -1.5835 C   0  0  0  0  0  0  0  0  0  0  0  0
   52.9440   12.0701   -1.6928 C   0  0  0  0  0  0  0  0  0  0  0  0
   51.2024   13.2954   -0.9372 N   0  0  0  0  0  0  0  0  0  0  0  0
   51.7127   12.0309   -0.9732 C   0  0  0  0  0  0  0  0  0  0  0  0
   53.6890   10.8958   -1.8975 C   0  0  0  0  0  0  0  0  0  0  0  0
   51.1820   10.8635   -0.4573 C   0  0  0  0  0  0  0  0  0  0  0  0
   53.1487    9.7309   -1.3909 C   0  0  0  0  0  0  0  0  0  0  0  0
   51.9317    9.7228   -0.6670 C   0  0  0  0  0  0  0  0  0  0  0  0
   50.3536   13.5622   -0.5158 H   0  0  0  0  0  0  0  0  0  0  0  0
   51.5718   18.4189   -4.5665 N   0  0  0  0  0  0  0  0  0  0  0  0
   51.0545   19.2209   -4.2064 H   0  0  0  0  0  0  0  0  0  0  0  0
   51.5552   18.5812   -5.9814 P   0  0  0  0  0  0  0  0  0  0  0  0
   53.0480   18.7767   -6.3412 O   0  0  0  0  0  0  0  0  0  0  0  0
   50.8634   19.8104   -6.3412 O   0  0  0  0  0  0  0  0  0  0  0  0
   50.8594   19.9086   -7.3062 H   0  0  0  0  0  0  0  0  0  0  0  0
   50.8947   17.3259   -6.5304 O   0  0  0  0  0  0  0  0  0  0  0  0
   50.9945   16.7346   -7.7868 C   0  0  0  0  0  0  0  0  0  0  0  0
   50.0856   15.5801   -7.5178 C   0  0  0  0  0  0  0  0  0  0  0  0
   49.7405   14.7942   -8.7277 O   0  0  0  0  0  0  0  0  0  0  0  0
   48.7817   16.1758   -7.1468 C   0  0  0  0  0  0  0  0  0  0  0  0
   48.0607   15.0132   -6.7820 O   0  0  0  0  0  0  0  0  0  0  0  0
   48.2727   16.8480   -8.4093 C   0  0  0  0  0  0  0  0  0  0  0  0
   46.9061   17.1320   -8.3218 O   0  0  0  0  0  0  0  0  0  0  0  0
   49.1242   18.0990   -8.6804 C   0  0  0  0  0  0  0  0  0  0  0  0
   50.4974   17.6149   -8.8258 O   0  0  0  0  0  0  0  0  0  0  0  0
   48.6629   19.0148   -9.8224 C   0  0  0  0  0  0  0  0  0  0  0  0
   49.2995   15.3696   -9.3721 H   0  0  0  0  0  0  0  0  0  0  0  0
   48.1075   14.3646   -7.5017 H   0  0  0  0  0  0  0  0  0  0  0  0
   46.7483   17.7361   -7.5794 H   0  0  0  0  0  0  0  0  0  0  0  0
   52.3800   18.3445   -2.2227 C   0  0  0  0  0  0  0  0  0  0  0  0
   53.6029   18.6832   -1.2819 C   0  0  0  0  0  0  0  0  0  0  0  0
   54.1791   20.1175   -1.3122 C   0  0  0  0  0  0  0  0  0  0  0  0
   53.3092   18.4090    0.1990 C   0  0  0  0  0  0  0  0  0  0  0  0
 29 28  1  0  0  0
 29 30  1  0  0  0
 29 37  1  0  0  0
 28 24  1  0  0  0
 30 31  1  0  0  0
 30 32  1  0  0  0
 32 33  1  0  0  0
 32 34  1  0  0  0
 34 35  1  0  0  0
 34 36  1  0  0  0
 36 37  1  0  0  0
 36 38  1  0  0  0
 24 25  2  0  0  0
 24 26  1  0  0  0
 22  1  1  0  0  0
  1  2  1  0  0  0
  1 42  1  0  0  0
  2  3  2  0  0  0
 42 43  1  0  0  0
 43 44  1  0  0  0
 43 45  1  0  0  0
  4  6  1  0  0  0
  6  7  1  0  0  0
  6 11  1  0  0  0
  7  8  2  0  0  0
  7  9  1  0  0  0
 11 12  1  0  0  0
 12 13  2  0  0  0
 12 14  1  0  0  0
 13 15  1  0  0  0
 14 16  2  0  0  0
 14 17  1  0  0  0
 15 16  1  0  0  0
 16 18  1  0  0  0
 17 19  2  0  0  0
 18 20  2  0  0  0
 19 20  1  0  0  0
 24 22  1  0  0  0
  2  4  1  0  0  0
 31 39  1  0  0  0
 33 40  1  0  0  0
 35 41  1  0  0  0
 26 27  1  0  0  0
 22 23  1  0  0  0
  4  5  1  0  0  0
 15 21  1  0  0  0
  9 10  1  0  0  0
M  END
> <minimizedAffinity>
-8.52026

$$$$
1TLP_RDF_E_317


 45 47  0  0  0  0  0  0  0  0999 V2000
   51.3930   14.4293   -6.7635 C   0  0  0  0  0  0  0  0  0  0  0  0
   50.7394   15.7520   -7.0407 C   0  0  0  0  0  0  0  0  0  0  0  0
   51.4332   16.7267   -6.7877 O   0  0  0  0  0  0  0  0  0  0  0  0
   49.4580   15.7451   -7.5579 N   0  0  0  0  0  0  0  0  0  0  0  0
   49.0725   14.8618   -7.7593 H   0  0  0  0  0  0  0  0  0  0  0  0
   48.6033   16.9130   -7.8417 C   0  0  0  0  0  0  0  0  0  0  0  0
   47.1378   16.7406   -7.3667 C   0  0  0  0  0  0  0  0  0  0  0  0
   46.3130   17.1468   -8.2389 O   0  0  0  0  0  0  0  0  0  0  0  0
   46.8810   16.2408   -6.1907 O   0  0  0  0  0  0  0  0  0  0  0  0
   47.5839   15.9743   -5.6313 H   0  0  0  0  0  0  0  0  0  0  0  0
   48.8120   17.3194   -9.3189 C   0  0  0  0  0  0  0  0  0  0  0  0
   49.5897   18.5603   -9.4700 C   0  0  0  0  0  0  0  0  0  0  0  0
   50.3279   19.1588   -8.4985 C   0  0  0  0  0  0  0  0  0  0  0  0
   49.7385   19.3477  -10.6491 C   0  0  0  0  0  0  0  0  0  0  0  0
   50.9454   20.2737   -8.9784 N   0  0  0  0  0  0  0  0  0  0  0  0
   50.5979   20.4280  -10.2882 C   0  0  0  0  0  0  0  0  0  0  0  0
   49.2322   19.2441  -11.9563 C   0  0  0  0  0  0  0  0  0  0  0  0
   50.9874   21.4076  -11.1822 C   0  0  0  0  0  0  0  0  0  0  0  0
   49.6339   20.2181  -12.8482 C   0  0  0  0  0  0  0  0  0  0  0  0
   50.4758   21.2882  -12.4595 C   0  0  0  0  0  0  0  0  0  0  0  0
   51.5414   20.8674   -8.4668 H   0  0  0  0  0  0  0  0  0  0  0  0
   51.5981   14.0648   -5.3694 N   0  0  0  0  0  0  0  0  0  0  0  0
   51.2813   13.0975   -5.3038 H   0  0  0  0  0  0  0  0  0  0  0  0
   52.8175   14.0986   -4.6343 P   0  0  0  0  0  0  0  0  0  0  0  0
   53.7747   13.2239   -5.4797 O   0  0  0  0  0  0  0  0  0  0  0  0
   52.6520   13.4340   -3.3498 O   0  0  0  0  0  0  0  0  0  0  0  0
   53.4888   13.4641   -2.8600 H   0  0  0  0  0  0  0  0  0  0  0  0
   53.1851   15.5699   -4.5174 O   0  0  0  0  0  0  0  0  0  0  0  0
   54.1380   16.1970   -3.7192 C   0  0  0  0  0  0  0  0  0  0  0  0
   53.9808   17.5681   -4.2906 C   0  0  0  0  0  0  0  0  0  0  0  0
   54.6977   18.6205   -3.5295 O   0  0  0  0  0  0  0  0  0  0  0  0
   52.5623   17.9323   -4.0715 C   0  0  0  0  0  0  0  0  0  0  0  0
   52.5008   19.1633   -4.7682 O   0  0  0  0  0  0  0  0  0  0  0  0
   52.4088   18.0653   -2.5669 C   0  0  0  0  0  0  0  0  0  0  0  0
   51.2392   18.7549   -2.2315 O   0  0  0  0  0  0  0  0  0  0  0  0
   52.4745   16.6640   -1.9381 C   0  0  0  0  0  0  0  0  0  0  0  0
   53.7814   16.1252   -2.3160 O   0  0  0  0  0  0  0  0  0  0  0  0
   52.1709   16.5653   -0.4368 C   0  0  0  0  0  0  0  0  0  0  0  0
   54.3658   18.6435   -2.6184 H   0  0  0  0  0  0  0  0  0  0  0  0
   53.2043   19.7504   -4.4500 H   0  0  0  0  0  0  0  0  0  0  0  0
   50.4697   18.2686   -2.5667 H   0  0  0  0  0  0  0  0  0  0  0  0
   50.6487   13.3624   -7.5505 C   0  0  0  0  0  0  0  0  0  0  0  0
   51.4053   12.8901   -8.8543 C   0  0  0  0  0  0  0  0  0  0  0  0
   51.3168   11.4002   -9.2572 C   0  0  0  0  0  0  0  0  0  0  0  0
   50.9721   13.6624  -10.1074 C   0  0  0  0  0  0  0  0  0  0  0  0
 29 28  1  0  0  0
 29 30  1  0  0  0
 29 37  1  0  0  0
 28 24  1  0  0  0
 30 31  1  0  0  0
 30 32  1  0  0  0
 32 33  1  0  0  0
 32 34  1  0  0  0
 34 35  1  0  0  0
 34 36  1  0  0  0
 36 37  1  0  0  0
 36 38  1  0  0  0
 24 25  2  0  0  0
 24 26  1  0  0  0
 22  1  1  0  0  0
  1  2  1  0  0  0
  1 42  1  0  0  0
  2  3  2  0  0  0
 42 43  1  0  0  0
 43 44  1  0  0  0
 43 45  1  0  0  0
  4  6  1  0  0  0
  6  7  1  0  0  0
  6 11  1  0  0  0
  7  8  2  0  0  0
  7  9  1  0  0  0
 11 12  1  0  0  0
 12 13  2  0  0  0
 12 14  1  0  0  0
 13 15  1  0  0  0
 14 16  2  0  0  0
 14 17  1  0  0  0
 15 16  1  0  0  0
 16 18  1  0  0  0
 17 19  2  0  0  0
 18 20  2  0  0  0
 19 20  1  0  0  0
 24 22  1  0  0  0
  2  4  1  0  0  0
 31 39  1  0  0  0
 33 40  1  0  0  0
 35 41  1  0  0  0
 26 27  1  0  0  0
 22 23  1  0  0  0
  4  5  1  0  0  0
 15 21  1  0  0  0
  9 10  1  0  0  0
M  END
> <minimizedAffinity>
-8.45318

$$$$
1TLP_RDF_E_317


 45 47  0  0  0  0  0  0  0  0999 V2000
   52.7246   18.0854   -3.5908 C   0  0  0  0  0  0  0  0  0  0  0  0
   53.5117   16.8089   -3.6590 C   0  0  0  0  0  0  0  0  0  0  0  0
   54.7142   16.9594   -3.8229 O   0  0  0  0  0  0  0  0  0  0  0  0
   52.8264   15.6174   -3.5166 N   0  0  0  0  0  0  0  0  0  0  0  0
   51.8627   15.6871   -3.3278 H   0  0  0  0  0  0  0  0  0  0  0  0
   53.3775   14.2530   -3.6157 C   0  0  0  0  0  0  0  0  0  0  0  0
   52.6976   13.3860   -4.7062 C   0  0  0  0  0  0  0  0  0  0  0  0
   53.4867   13.1401   -5.6669 O   0  0  0  0  0  0  0  0  0  0  0  0
   51.4561   13.0128   -4.5718 O   0  0  0  0  0  0  0  0  0  0  0  0
   50.9726   13.2600   -3.8082 H   0  0  0  0  0  0  0  0  0  0  0  0
   53.4455   13.6525   -2.1925 C   0  0  0  0  0  0  0  0  0  0  0  0
   53.9217   12.2595   -2.1778 C   0  0  0  0  0  0  0  0  0  0  0  0
   53.1726   11.1668   -1.8747 C   0  0  0  0  0  0  0  0  0  0  0  0
   55.2296   11.7908   -2.4974 C   0  0  0  0  0  0  0  0  0  0  0  0
   53.9117   10.0283   -1.9855 N   0  0  0  0  0  0  0  0  0  0  0  0
   55.1795   10.3723   -2.3527 C   0  0  0  0  0  0  0  0  0  0  0  0
   56.4216   12.4273   -2.8846 C   0  0  0  0  0  0  0  0  0  0  0  0
   56.2683    9.5549   -2.5915 C   0  0  0  0  0  0  0  0  0  0  0  0
   57.5024   11.6056   -3.1336 C   0  0  0  0  0  0  0  0  0  0  0  0
   57.4294   10.2012   -2.9674 C   0  0  0  0  0  0  0  0  0  0  0  0
   53.5863    9.1127   -1.8273 H   0  0  0  0  0  0  0  0  0  0  0  0
   51.6043   18.2290   -4.5089 N   0  0  0  0  0  0  0  0  0  0  0  0
   51.0170   18.9513   -4.0921 H   0  0  0  0  0  0  0  0  0  0  0  0
   51.6545   18.5560   -5.8942 P   0  0  0  0  0  0  0  0  0  0  0  0
   53.1668   18.7397   -6.1687 O   0  0  0  0  0  0  0  0  0  0  0  0
   51.0164   19.8423   -6.1335 O   0  0  0  0  0  0  0  0  0  0  0  0
   51.0575   20.0526   -7.0795 H   0  0  0  0  0  0  0  0  0  0  0  0
   50.9811   17.3974   -6.6136 O   0  0  0  0  0  0  0  0  0  0  0  0
   50.4450   17.3263   -7.8965 C   0  0  0  0  0  0  0  0  0  0  0  0
   50.9657   15.9683   -8.2369 C   0  0  0  0  0  0  0  0  0  0  0  0
   50.4092   15.4106   -9.4939 O   0  0  0  0  0  0  0  0  0  0  0  0
   50.4053   15.0571   -7.2130 C   0  0  0  0  0  0  0  0  0  0  0  0
   51.0704   13.8527   -7.5468 O   0  0  0  0  0  0  0  0  0  0  0  0
   48.9098   15.0301   -7.4737 C   0  0  0  0  0  0  0  0  0  0  0  0
   48.2993   13.9456   -6.8356 O   0  0  0  0  0  0  0  0  0  0  0  0
   48.3108   16.3820   -7.0532 C   0  0  0  0  0  0  0  0  0  0  0  0
   48.9969   17.3855   -7.8677 O   0  0  0  0  0  0  0  0  0  0  0  0
   46.7806   16.4983   -7.0806 C   0  0  0  0  0  0  0  0  0  0  0  0
   49.4444   15.3436   -9.4186 H   0  0  0  0  0  0  0  0  0  0  0  0
   50.9378   13.6603   -8.4883 H   0  0  0  0  0  0  0  0  0  0  0  0
   48.4325   14.0174   -5.8774 H   0  0  0  0  0  0  0  0  0  0  0  0
   52.3345   18.3208   -2.1402 C   0  0  0  0  0  0  0  0  0  0  0  0
   53.5667   18.5625   -1.1817 C   0  0  0  0  0  0  0  0  0  0  0  0
   54.2525   19.9479   -1.2004 C   0  0  0  0  0  0  0  0  0  0  0  0
   53.2320   18.3096    0.2943 C   0  0  0  0  0  0  0  0  0  0  0  0
 29 28  1  0  0  0
 29 30  1  0  0  0
 29 37  1  0  0  0
 28 24  1  0  0  0
 30 31  1  0  0  0
 30 32  1  0  0  0
 32 33  1  0  0  0
 32 34  1  0  0  0
 34 35  1  0  0  0
 34 36  1  0  0  0
 36 37  1  0  0  0
 36 38  1  0  0  0
 24 25  2  0  0  0
 24 26  1  0  0  0
 22  1  1  0  0  0
  1  2  1  0  0  0
  1 42  1  0  0  0
  2  3  2  0  0  0
 42 43  1  0  0  0
 43 44  1  0  0  0
 43 45  1  0  0  0
  4  6  1  0  0  0
  6  7  1  0  0  0
  6 11  1  0  0  0
  7  8  2  0  0  0
  7  9  1  0  0  0
 11 12  1  0  0  0
 12 13  2  0  0  0
 12 14  1  0  0  0
 13 15  1  0  0  0
 14 16  2  0  0  0
 14 17  1  0  0  0
 15 16  1  0  0  0
 16 18  1  0  0  0
 17 19  2  0  0  0
 18 20  2  0  0  0
 19 20  1  0  0  0
 24 22  1  0  0  0
  2  4  1  0  0  0
 31 39  1  0  0  0
 33 40  1  0  0  0
 35 41  1  0  0  0
 26 27  1  0  0  0
 22 23  1  0  0  0
  4  5  1  0  0  0
 15 21  1  0  0  0
  9 10  1  0  0  0
M  END
> <minimizedAffinity>
-8.43986

$$$$
1TLP_RDF_E_317


 45 47  0  0  0  0  0  0  0  0999 V2000
   52.7766   17.9475   -3.4817 C   0  0  0  0  0  0  0  0  0  0  0  0
   53.3669   16.5696   -3.4002 C   0  0  0  0  0  0  0  0  0  0  0  0
   54.5089   16.4779   -3.8277 O   0  0  0  0  0  0  0  0  0  0  0  0
   52.5935   15.5657   -2.8492 N   0  0  0  0  0  0  0  0  0  0  0  0
   51.7144   15.8344   -2.4968 H   0  0  0  0  0  0  0  0  0  0  0  0
   52.9380   14.1366   -2.7300 C   0  0  0  0  0  0  0  0  0  0  0  0
   52.1464   13.3970   -1.6212 C   0  0  0  0  0  0  0  0  0  0  0  0
   52.7471   12.3489   -1.2382 O   0  0  0  0  0  0  0  0  0  0  0  0
   51.0032   13.8642   -1.2048 O   0  0  0  0  0  0  0  0  0  0  0  0
   50.6603   14.6566   -1.5689 H   0  0  0  0  0  0  0  0  0  0  0  0
   54.4785   14.0107   -2.6861 C   0  0  0  0  0  0  0  0  0  0  0  0
   55.0038   13.0330   -3.6533 C   0  0  0  0  0  0  0  0  0  0  0  0
   54.3688   12.6065   -4.7766 C   0  0  0  0  0  0  0  0  0  0  0  0
   56.2677   12.3744   -3.6152 C   0  0  0  0  0  0  0  0  0  0  0  0
   55.1446   11.7234   -5.4646 N   0  0  0  0  0  0  0  0  0  0  0  0
   56.3094   11.5475   -4.7771 C   0  0  0  0  0  0  0  0  0  0  0  0
   57.3514   12.4039   -2.7205 C   0  0  0  0  0  0  0  0  0  0  0  0
   57.3958   10.7543   -5.0947 C   0  0  0  0  0  0  0  0  0  0  0  0
   58.4387   11.6192   -3.0486 C   0  0  0  0  0  0  0  0  0  0  0  0
   58.4476   10.7959   -4.2006 C   0  0  0  0  0  0  0  0  0  0  0  0
   54.9053   11.2864   -6.3137 H   0  0  0  0  0  0  0  0  0  0  0  0
   51.7089   18.1606   -4.4476 N   0  0  0  0  0  0  0  0  0  0  0  0
   51.1215   18.8831   -4.0312 H   0  0  0  0  0  0  0  0  0  0  0  0
   51.8383   18.5402   -5.8141 P   0  0  0  0  0  0  0  0  0  0  0  0
   53.3651   18.7161   -5.9984 O   0  0  0  0  0  0  0  0  0  0  0  0
   51.2272   19.8425   -6.0371 O   0  0  0  0  0  0  0  0  0  0  0  0
   51.3223   20.0887   -6.9705 H   0  0  0  0  0  0  0  0  0  0  0  0
   51.1939   17.4185   -6.6141 O   0  0  0  0  0  0  0  0  0  0  0  0
   49.9186   16.8677   -6.5222 C   0  0  0  0  0  0  0  0  0  0  0  0
   49.3748   17.4553   -7.7833 C   0  0  0  0  0  0  0  0  0  0  0  0
   48.0522   16.9106   -8.1768 O   0  0  0  0  0  0  0  0  0  0  0  0
   50.2543   16.9602   -8.8668 C   0  0  0  0  0  0  0  0  0  0  0  0
   49.7390   17.6839   -9.9692 O   0  0  0  0  0  0  0  0  0  0  0  0
   50.0028   15.4646   -8.9373 C   0  0  0  0  0  0  0  0  0  0  0  0
   50.4752   14.9229  -10.1371 O   0  0  0  0  0  0  0  0  0  0  0  0
   50.6254   14.8002   -7.6986 C   0  0  0  0  0  0  0  0  0  0  0  0
   49.9659   15.4191   -6.5483 O   0  0  0  0  0  0  0  0  0  0  0  0
   50.6263   13.2657   -7.6644 C   0  0  0  0  0  0  0  0  0  0  0  0
   48.1232   15.9521   -8.3076 H   0  0  0  0  0  0  0  0  0  0  0  0
   48.7803   17.5476  -10.0258 H   0  0  0  0  0  0  0  0  0  0  0  0
   51.4323   15.0665  -10.2019 H   0  0  0  0  0  0  0  0  0  0  0  0
   52.3967   18.3807   -2.0746 C   0  0  0  0  0  0  0  0  0  0  0  0
   53.6364   18.6002   -1.1205 C   0  0  0  0  0  0  0  0  0  0  0  0
   54.3419   19.9757   -1.1358 C   0  0  0  0  0  0  0  0  0  0  0  0
   53.3045   18.3453    0.3558 C   0  0  0  0  0  0  0  0  0  0  0  0
 29 28  1  0  0  0
 29 30  1  0  0  0
 29 37  1  0  0  0
 28 24  1  0  0  0
 30 31  1  0  0  0
 30 32  1  0  0  0
 32 33  1  0  0  0
 32 34  1  0  0  0
 34 35  1  0  0  0
 34 36  1  0  0  0
 36 37  1  0  0  0
 36 38  1  0  0  0
 24 25  2  0  0  0
 24 26  1  0  0  0
 22  1  1  0  0  0
  1  2  1  0  0  0
  1 42  1  0  0  0
  2  3  2  0  0  0
 42 43  1  0  0  0
 43 44  1  0  0  0
 43 45  1  0  0  0
  4  6  1  0  0  0
  6  7  1  0  0  0
  6 11  1  0  0  0
  7  8  2  0  0  0
  7  9  1  0  0  0
 11 12  1  0  0  0
 12 13  2  0  0  0
 12 14  1  0  0  0
 13 15  1  0  0  0
 14 16  2  0  0  0
 14 17  1  0  0  0
 15 16  1  0  0  0
 16 18  1  0  0  0
 17 19  2  0  0  0
 18 20  2  0  0  0
 19 20  1  0  0  0
 24 22  1  0  0  0
  2  4  1  0  0  0
 31 39  1  0  0  0
 33 40  1  0  0  0
 35 41  1  0  0  0
 26 27  1  0  0  0
 22 23  1  0  0  0
  4  5  1  0  0  0
 15 21  1  0  0  0
  9 10  1  0  0  0
M  END
> <minimizedAffinity>
-8.42419

$$$$
