1TLP_RDF_E_317
  RCSB PDB12061704073D
Coordinates from PDB:1TLP:E:317 Model:1 without hydrogens
 37 39  0  0  0  0            999 V2000
   51.1830   16.9140   -8.2540   C 0  0  0  0  0  0  0  0  0  0  0  0
   50.9200   18.1370   -7.6430   O 0  0  0  0  0  0  0  0  0  0  0  0
   50.1710   16.1130   -7.5020   C 0  0  0  0  0  0  0  0  0  0  0  0
   49.9760   14.7420   -8.0340   O 0  0  0  0  0  0  0  0  0  0  0  0
   48.8650   16.7500   -7.7870   C 0  0  0  0  0  0  0  0  0  0  0  0
   48.0220   16.0090   -6.9240   O 0  0  0  0  0  0  0  0  0  0  0  0
   48.6100   16.5020   -9.2630   C 0  0  0  0  0  0  0  0  0  0  0  0
   47.2680   16.7170   -9.5930   O 0  0  0  0  0  0  0  0  0  0  0  0
   49.5720   17.3760  -10.0840   C 0  0  0  0  0  0  0  0  0  0  0  0
   50.9170   16.9670   -9.6780   O 0  0  0  0  0  0  0  0  0  0  0  0
   49.3600   17.3970  -11.6040   C 0  0  0  0  0  0  0  0  0  0  0  0
   51.7150   18.9020   -6.5960   P 0  0  0  0  0  0  0  0  0  0  0  0
   53.2310   19.0530   -6.8700   O 0  0  0  0  0  0  0  0  0  0  0  0
   51.1940   20.2340   -6.3250   O 0  0  0  0  0  0  0  0  0  0  0  0
   51.6670   18.1030   -5.4180   N 0  0  0  0  0  0  0  0  0  0  0  0
   52.6880   17.9800   -4.3880   C 0  0  0  0  0  0  0  0  0  0  0  0
   53.5040   16.7200   -4.3740   C 0  0  0  0  0  0  0  0  0  0  0  0
   54.6370   16.8510   -3.9330   O 0  0  0  0  0  0  0  0  0  0  0  0
   52.1440   18.2040   -2.9860   C 0  0  0  0  0  0  0  0  0  0  0  0
   53.2360   18.0740   -1.8520   C 0  0  0  0  0  0  0  0  0  0  0  0
   54.3930   19.0990   -1.8240   C 0  0  0  0  0  0  0  0  0  0  0  0
   52.6370   18.1190   -0.4400   C 0  0  0  0  0  0  0  0  0  0  0  0
   52.9100   15.5590   -4.8310   N 0  0  0  0  0  0  0  0  0  0  0  0
   53.5360   14.2310   -4.9710   C 0  0  0  0  0  0  0  0  0  0  0  0
   52.6730   13.2180   -5.7660   C 0  0  0  0  0  0  0  0  0  0  0  0
   51.4900   13.6410   -5.9320   O 0  0  0  0  0  0  0  0  0  0  0  0
   54.0320   13.7790   -3.5780   C 0  0  0  0  0  0  0  0  0  0  0  0
   52.9380   13.3650   -2.6840   C 0  0  0  0  0  0  0  0  0  0  0  0
   52.1560   14.1970   -1.9470   C 0  0  0  0  0  0  0  0  0  0  0  0
   52.4770   12.0380   -2.4410   C 0  0  0  0  0  0  0  0  0  0  0  0
   51.2200   13.4920   -1.2530   N 0  0  0  0  0  0  0  0  0  0  0  0
   51.3940   12.1660   -1.5210   C 0  0  0  0  0  0  0  0  0  0  0  0
   52.8730   10.7720   -2.9060   C 0  0  0  0  0  0  0  0  0  0  0  0
   50.6760   11.0820   -1.0520   C 0  0  0  0  0  0  0  0  0  0  0  0
   52.1450    9.6940   -2.4440   C 0  0  0  0  0  0  0  0  0  0  0  0
   51.0840    9.8480   -1.5190   C 0  0  0  0  0  0  0  0  0  0  0  0
   53.1840   12.0870   -6.1640   O 0  0  0  0  0  0  0  0  0  0  0  0
  1  2  1  0  0  0  0
  1  3  1  0  0  0  0
  1 10  1  0  0  0  0
  2 12  1  0  0  0  0
  3  4  1  0  0  0  0
  3  5  1  0  0  0  0
  5  6  1  0  0  0  0
  5  7  1  0  0  0  0
  7  8  1  0  0  0  0
  7  9  1  0  0  0  0
  9 10  1  0  0  0  0
  9 11  1  0  0  0  0
 12 13  2  0  0  0  0
 12 14  1  0  0  0  0
 15 16  1  0  0  0  0
 16 17  1  0  0  0  0
 16 19  1  0  0  0  0
 17 18  2  0  0  0  0
 19 20  1  0  0  0  0
 20 21  1  0  0  0  0
 20 22  1  0  0  0  0
 23 24  1  0  0  0  0
 24 25  1  0  0  0  0
 24 27  1  0  0  0  0
 25 26  2  0  0  0  0
 25 37  1  0  0  0  0
 27 28  1  0  0  0  0
 28 29  2  0  0  0  0
 28 30  1  0  0  0  0
 29 31  1  0  0  0  0
 30 32  2  0  0  0  0
 30 33  1  0  0  0  0
 31 32  1  0  0  0  0
 32 34  1  0  0  0  0
 33 35  2  0  0  0  0
 34 36  2  0  0  0  0
 35 36  1  0  0  0  0
 12 15  1  0  0  0  0
 17 23  1  0  0  0  0
A    1
C1
A    2
O1
A    3
C2
A    4
O2
A    5
C3
A    6
O3
A    7
C4
A    8
O4
A    9
C5
A   10
O5
A   11
C6
A   12
P
A   13
O1P
A   14
O2P
A   15
N
A   16
CA
A   17
C
A   18
O
A   19
CB
A   20
CG
A   21
CD1
A   22
CD2
A   23
N1
A   24
CA1
A   25
C7
A   26
O6
A   27
CB1
A   28
CG1
A   29
CD11
A   30
CD21
A   31
NE1
A   32
CE2
A   33
CE3
A   34
CZ2
A   35
CZ3
A   36
CH2
A   37
OXT
M  END
>  <InstanceId>
1TLP_RDF_E_317

>  <ChemCompId>
RDF

>  <PdbId>
1TLP

>  <ChainId>
E

>  <ResidueNumber>
317

>  <InsertionCode>


>  <Model>
1

>  <AltIds>


>  <MissingHeavyAtoms>
0

>  <ObservedFormula>
C23 N3 O10 P

>  <Name>
N-ALPHA-L-RHAMNOPYRANOSYLOXY(HYDROXYPHOSPHINYL)-L-LEUCYL-L-TRYPTOPHAN

>  <SystematicName>
(2S)-2-[[(2S)-2-[[hydroxy-[(2S,3R,4R,5R,6S)-3,4,5-trihydroxy-6-methyl-oxan-2-yl]oxy-phosphoryl]amino]-4-methyl-pentanoyl]amino]-3-(1H-indol-3-yl)propanoic acid

>  <Synonyms>
PHOSPHORAMIDON

>  <Type>
peptide-like

>  <Formula>
C23 H34 N3 O10 P

>  <MolecularWeight>
543.504

>  <ModifiedDate>
2011-06-04

>  <Parent>


>  <OneLetterCode>


>  <SubcomponentList>
RHA LEU TRP

>  <AmbiguousFlag>
N

>  <InChI>
InChI=1S/C23H34N3O10P/c1-11(2)8-16(26-37(33,34)36-23-20(29)19(28)18(27)12(3)35-23)21(30)25-17(22(31)32)9-13-10-24-15-7-5-4-6-14(13)15/h4-7,10-12,16-20,23-24,27-29H,8-9H2,1-3H3,(H,25,30)(H,31,32)(H2,26,33,34)/t12-,16-,17-,18-,19+,20+,23-/m0/s1

>  <InChIKey>
ZPHBZEQOLSRPAK-XLCYBJAPSA-N

>  <SMILES>
C[C@H]1[C@@H]([C@H]([C@H]([C@@H](O1)O[P@](=O)(N[C@@H](CC(C)C)C(=O)N[C@@H](Cc2c[nH]c3c2cccc3)C(=O)O)O)O)O)O

$$$$
