6CVF_CDP_A_301
  RCSB PDB11171803143D
Coordinates from PDB:6CVF:A:301 Model:1 without hydrogens
 25 26  0  0  0  0            999 V2000
   -4.9570  -33.4450   22.5300   O 0  0  0  0  0  0  0  0  0  0  0  0
   -6.2590  -32.9090   21.9970   P 0  0  0  0  0  0  0  0  0  0  0  0
   -6.3940  -33.1080   20.5210   O 0  0  0  0  0  0  0  0  0  0  0  0
   -6.4070  -31.4380   22.3220   O 0  0  0  0  0  0  0  0  0  0  0  0
   -7.4500  -33.7190   22.7890   O 0  0  0  0  0  0  0  0  0  0  0  0
   -8.3470  -34.9440   22.1260   P 0  0  0  0  0  0  0  0  0  0  0  0
   -9.1920  -34.4070   20.9990   O 0  0  0  0  0  0  0  0  0  0  0  0
   -7.4560  -36.0660   21.6570   O 0  0  0  0  0  0  0  0  0  0  0  0
   -9.2930  -35.3750   23.3940   O 0  0  0  0  0  0  0  0  0  0  0  0
   -8.5890  -35.9300   24.4720   C 0  0  0  0  0  0  0  0  0  0  0  0
   -9.1620  -37.3420   24.8620   C 0  0  0  0  0  0  0  0  0  0  0  0
  -10.5670  -37.1540   25.4820   O 0  0  0  0  0  0  0  0  0  0  0  0
   -9.3240  -38.1170   23.8550   C 0  0  0  0  0  0  0  0  0  0  0  0
   -9.2730  -39.4930   24.2760   O 0  0  0  0  0  0  0  0  0  0  0  0
  -10.8920  -37.9550   23.3670   C 0  0  0  0  0  0  0  0  0  0  0  0
  -11.2240  -39.1970   22.6800   O 0  0  0  0  0  0  0  0  0  0  0  0
  -11.5320  -37.8440   24.4500   C 0  0  0  0  0  0  0  0  0  0  0  0
  -12.6680  -36.9090   24.3200   N 0  0  0  0  0  0  0  0  0  0  0  0
  -14.0800  -37.4300   24.2640   C 0  0  0  0  0  0  0  0  0  0  0  0
  -14.2840  -38.5770   24.2960   O 0  0  0  0  0  0  0  0  0  0  0  0
  -15.2040  -36.4680   24.1540   N 0  0  0  0  0  0  0  0  0  0  0  0
  -14.9530  -35.0340   24.1060   C 0  0  0  0  0  0  0  0  0  0  0  0
  -16.0610  -34.1140   23.9980   N 0  0  0  0  0  0  0  0  0  0  0  0
  -13.5380  -34.5110   24.1770   C 0  0  0  0  0  0  0  0  0  0  0  0
  -12.3960  -35.4690   24.2810   C 0  0  0  0  0  0  0  0  0  0  0  0
  1  2  1  0  0  0  0
  2  3  2  0  0  0  0
  2  4  1  0  0  0  0
  2  5  1  0  0  0  0
  5  6  1  0  0  0  0
  6  7  2  0  0  0  0
  6  8  1  0  0  0  0
  6  9  1  0  0  0  0
  9 10  1  0  0  0  0
 10 11  1  0  0  0  0
 11 12  1  0  0  0  0
 11 13  1  0  0  0  0
 12 17  1  0  0  0  0
 13 14  1  0  0  0  0
 13 15  1  0  0  0  0
 15 16  1  0  0  0  0
 15 17  1  0  0  0  0
 17 18  1  0  0  0  0
 18 19  1  0  0  0  0
 18 25  1  0  0  0  0
 19 20  2  0  0  0  0
 19 21  1  0  0  0  0
 21 22  2  0  0  0  0
 22 23  1  0  0  0  0
 22 24  1  0  0  0  0
 24 25  2  0  0  0  0
A    1
O3B
A    2
PB
A    3
O1B
A    4
O2B
A    5
O3A
A    6
PA
A    7
O1A
A    8
O2A
A    9
O5'
A   10
C5'
A   11
C4'
A   12
O4'
A   13
C3'
A   14
O3'
A   15
C2'
A   16
O2'
A   17
C1'
A   18
N1
A   19
C2
A   20
O2
A   21
N3
A   22
C4
A   23
N4
A   24
C5
A   25
C6
M  END
>  <InstanceId>
6CVF_CDP_A_301

>  <ChemCompId>
CDP

>  <PdbId>
6CVF

>  <ChainId>
A

>  <ResidueNumber>
301

>  <InsertionCode>


>  <Model>
1

>  <AltIds>


>  <MissingHeavyAtoms>
0

>  <ObservedFormula>
C9 N3 O11 P2

>  <Name>
CYTIDINE-5'-DIPHOSPHATE

>  <SystematicName>
[(2R,3S,4R,5R)-5-(4-amino-2-oxo-pyrimidin-1-yl)-3,4-dihydroxy-oxolan-2-yl]methyl phosphono hydrogen phosphate

>  <Synonyms>


>  <Type>
NON-POLYMER

>  <Formula>
C9 H15 N3 O11 P2

>  <MolecularWeight>
403.176

>  <ModifiedDate>
2011-06-04

>  <Parent>


>  <OneLetterCode>


>  <SubcomponentList>


>  <AmbiguousFlag>
N

>  <InChI>
InChI=1S/C9H15N3O11P2/c10-5-1-2-12(9(15)11-5)8-7(14)6(13)4(22-8)3-21-25(19,20)23-24(16,17)18/h1-2,4,6-8,13-14H,3H2,(H,19,20)(H2,10,11,15)(H2,16,17,18)/t4-,6-,7-,8-/m1/s1

>  <InChIKey>
ZWIADYZPOWUWEW-XVFCMESISA-N

>  <SMILES>
C1=CN(C(=O)N=C1N)[C@H]2[C@@H]([C@@H]([C@H](O2)CO[P@@](=O)(O)OP(=O)(O)O)O)O

$$$$
