4BCO_T6Q_A_1299
  RCSB PDB12061711493D
Coordinates from PDB:4BCO:A:1299 Model:1 without hydrogens
 33 36  0  0  0  0            999 V2000
   -3.8260   21.3860  -18.5080   C 0  0  0  0  0  0  0  0  0  0  0  0
   -4.4790   20.1420  -18.8970   N 0  0  0  0  0  0  0  0  0  0  0  0
   -5.5200   20.1830  -19.8550   C 0  0  0  0  0  0  0  0  0  0  0  0
   -6.3580   19.1690  -20.1870   N 0  0  0  0  0  0  0  0  0  0  0  0
   -7.2840   19.4350  -21.1270   C 0  0  0  0  0  0  0  0  0  0  0  0
   -8.2440   18.3370  -21.5560   C 0  0  0  0  0  0  0  0  0  0  0  0
   -7.2570   20.7510  -21.6580   C 0  0  0  0  0  0  0  0  0  0  0  0
   -8.0720   21.4290  -22.6080   C 0  0  0  0  0  0  0  0  0  0  0  0
   -7.5060   22.2710  -23.5060   N 0  0  0  0  0  0  0  0  0  0  0  0
   -8.2690   22.9720  -24.3970   C 0  0  0  0  0  0  0  0  0  0  0  0
   -7.6260   23.8510  -25.3730   N 0  0  0  0  0  0  0  0  0  0  0  0
   -6.3710   24.5370  -25.0890   C 0  0  0  0  0  0  0  0  0  0  0  0
   -5.7780   24.4750  -23.8180   C 0  0  0  0  0  0  0  0  0  0  0  0
   -4.5750   25.1400  -23.5760   C 0  0  0  0  0  0  0  0  0  0  0  0
   -3.9460   25.8860  -24.6180   C 0  0  0  0  0  0  0  0  0  0  0  0
   -4.5370   25.9400  -25.8810   C 0  0  0  0  0  0  0  0  0  0  0  0
   -3.8930   26.7090  -26.9640   N 0  0  0  0  0  0  0  0  0  0  0  0
   -2.6130   26.0890  -27.2040   C 0  0  0  0  0  0  0  0  0  0  0  0
   -2.3590   25.6900  -28.6120   C 0  0  0  0  0  0  0  0  0  0  0  0
   -3.4360   24.8510  -29.2120   C 0  0  0  0  0  0  0  0  0  0  0  0
   -4.5330   25.6200  -29.6940   N 0  0  0  0  0  0  0  0  0  0  0  0
   -4.9130   25.4170  -31.0840   C 0  0  0  0  0  0  0  0  0  0  0  0
   -6.0630   26.1990  -31.6780   C 0  0  0  0  0  0  0  0  0  0  0  0
   -4.2980   24.6120  -31.7800   O 0  0  0  0  0  0  0  0  0  0  0  0
   -5.3080   26.5860  -28.9710   C 0  0  0  0  0  0  0  0  0  0  0  0
   -4.4410   27.4320  -28.0790   C 0  0  0  0  0  0  0  0  0  0  0  0
   -5.7440   25.2760  -26.1190   C 0  0  0  0  0  0  0  0  0  0  0  0
   -9.6070   22.8660  -24.4000   N 0  0  0  0  0  0  0  0  0  0  0  0
  -10.2380   22.0530  -23.4970   C 0  0  0  0  0  0  0  0  0  0  0  0
   -9.4720   21.3340  -22.5780   C 0  0  0  0  0  0  0  0  0  0  0  0
  -10.1540   20.4780  -21.6020   C 0  0  0  0  0  0  0  0  0  0  0  0
  -10.6910   19.8120  -20.8480   N 0  0  0  0  0  0  0  0  0  0  0  0
   -5.9660   21.5400  -20.8360   S 0  0  0  0  0  0  0  0  0  0  0  0
  1  2  1  0  0  0  0
  2  3  1  0  0  0  0
  3  4  2  0  0  0  0
  3 33  1  0  0  0  0
  4  5  1  0  0  0  0
  5  6  1  0  0  0  0
  5  7  2  0  0  0  0
  7  8  1  0  0  0  0
  7 33  1  0  0  0  0
  8  9  1  0  0  0  0
  8 30  2  0  0  0  0
  9 10  2  0  0  0  0
 10 11  1  0  0  0  0
 10 28  1  0  0  0  0
 11 12  1  0  0  0  0
 12 13  1  0  0  0  0
 12 27  2  0  0  0  0
 13 14  2  0  0  0  0
 14 15  1  0  0  0  0
 15 16  2  0  0  0  0
 16 17  1  0  0  0  0
 16 27  1  0  0  0  0
 17 18  1  0  0  0  0
 17 26  1  0  0  0  0
 18 19  1  0  0  0  0
 19 20  1  0  0  0  0
 20 21  1  0  0  0  0
 21 22  1  0  0  0  0
 21 25  1  0  0  0  0
 22 23  1  0  0  0  0
 22 24  2  0  0  0  0
 25 26  1  0  0  0  0
 28 29  2  0  0  0  0
 29 30  1  0  0  0  0
 30 31  1  0  0  0  0
 31 32  3  0  0  0  0
A    1
C01
A    2
N02
A    3
C03
A    4
N04
A    5
C05
A    6
C06
A    7
C07
A    8
C08
A    9
N09
A   10
C10
A   11
N11
A   12
C12
A   13
C13
A   14
C14
A   15
C15
A   16
C16
A   17
N17
A   18
C18
A   19
C19
A   20
C20
A   21
N21
A   22
C22
A   23
C23
A   24
O24
A   25
C25
A   26
C26
A   27
C27
A   28
N28
A   29
C29
A   30
C30
A   31
C31
A   32
N32
A   33
S33
M  END
>  <InstanceId>
4BCO_T6Q_A_1299

>  <ChemCompId>
T6Q

>  <PdbId>
4BCO

>  <ChainId>
A

>  <ResidueNumber>
1299

>  <InsertionCode>


>  <Model>
1

>  <AltIds>


>  <MissingHeavyAtoms>
0

>  <ObservedFormula>
C23 N8 O S

>  <Name>
2-[[3-(4-ethanoyl-1,4-diazepan-1-yl)phenyl]amino]-4-[4-methyl-2-(methylamino)-1,3-thiazol-5-yl]pyrimidine-5-carbonitrile

>  <SystematicName>
2-[[3-(4-ethanoyl-1,4-diazepan-1-yl)phenyl]amino]-4-[4-methyl-2-(methylamino)-1,3-thiazol-5-yl]pyrimidine-5-carbonitrile

>  <Synonyms>


>  <Type>
non-polymer

>  <Formula>
C23 H26 N8 O S

>  <MolecularWeight>
462.571

>  <ModifiedDate>
2014-09-05

>  <Parent>


>  <OneLetterCode>


>  <SubcomponentList>


>  <AmbiguousFlag>
N

>  <InChI>
InChI=1S/C23H26N8OS/c1-15-21(33-23(25-3)27-15)20-17(13-24)14-26-22(29-20)28-18-6-4-7-19(12-18)31-9-5-8-30(10-11-31)16(2)32/h4,6-7,12,14H,5,8-11H2,1-3H3,(H,25,27)(H,26,28,29)

>  <InChIKey>
DZHBFQMOLIUZMP-UHFFFAOYSA-N

>  <SMILES>
Cc1c(sc(n1)NC)c2c(cnc(n2)Nc3cccc(c3)N4CCCN(CC4)C(=O)C)C#N

$$$$
