3I73_ADP_A_589
  RCSB PDB12061709013D
Coordinates from PDB:3I73:A:589 Model:1 without hydrogens
 27 29  0  0  0  0            999 V2000
  -40.1940    6.9430    0.1730   P 0  0  0  0  0  0  0  0  0  0  0  0
  -39.0540    6.6400    1.1210   O 0  0  0  0  0  0  0  0  0  0  0  0
  -39.7350    7.6590   -1.0740   O 0  0  0  0  0  0  0  0  0  0  0  0
  -41.1420    5.7910   -0.0790   O 0  0  0  0  0  0  0  0  0  0  0  0
  -42.6700    7.6110    1.1530   P 0  0  0  0  0  0  0  0  0  0  0  0
  -42.6860    6.4740    2.1450   O 0  0  0  0  0  0  0  0  0  0  0  0
  -43.2300    7.3770   -0.2280   O 0  0  0  0  0  0  0  0  0  0  0  0
  -41.1190    8.0000    0.9580   O 0  0  0  0  0  0  0  0  0  0  0  0
  -43.3800    8.9400    1.7910   O 0  0  0  0  0  0  0  0  0  0  0  0
  -44.7530    9.0130    2.2170   C 0  0  0  0  0  0  0  0  0  0  0  0
  -45.2650   10.4670    2.1740   C 0  0  0  0  0  0  0  0  0  0  0  0
  -46.6120   10.6470    1.6660   O 0  0  0  0  0  0  0  0  0  0  0  0
  -45.2470   11.2640    3.4700   C 0  0  0  0  0  0  0  0  0  0  0  0
  -44.0400   11.9760    3.5970   O 0  0  0  0  0  0  0  0  0  0  0  0
  -46.3540   12.2640    3.2680   C 0  0  0  0  0  0  0  0  0  0  0  0
  -45.9710   13.5610    2.8460   O 0  0  0  0  0  0  0  0  0  0  0  0
  -46.8960   12.0330    1.8890   C 0  0  0  0  0  0  0  0  0  0  0  0
  -48.2560   12.4410    2.2090   N 0  0  0  0  0  0  0  0  0  0  0  0
  -49.4350   12.1460    1.6740   C 0  0  0  0  0  0  0  0  0  0  0  0
  -50.4320   12.7640    2.3330   N 0  0  0  0  0  0  0  0  0  0  0  0
  -49.8710   13.4640    3.3110   C 0  0  0  0  0  0  0  0  0  0  0  0
  -50.3250   14.3380    4.3840   C 0  0  0  0  0  0  0  0  0  0  0  0
  -51.6280   14.5690    4.5100   N 0  0  0  0  0  0  0  0  0  0  0  0
  -49.3980   14.8830    5.2040   N 0  0  0  0  0  0  0  0  0  0  0  0
  -48.0820   14.6500    5.0490   C 0  0  0  0  0  0  0  0  0  0  0  0
  -47.5820   13.8520    4.0970   N 0  0  0  0  0  0  0  0  0  0  0  0
  -48.4280   13.2480    3.2250   C 0  0  0  0  0  0  0  0  0  0  0  0
  1  2  2  0  0  0  0
  1  3  1  0  0  0  0
  1  4  1  0  0  0  0
  1  8  1  0  0  0  0
  5  6  2  0  0  0  0
  5  7  1  0  0  0  0
  5  8  1  0  0  0  0
  5  9  1  0  0  0  0
  9 10  1  0  0  0  0
 10 11  1  0  0  0  0
 11 12  1  0  0  0  0
 11 13  1  0  0  0  0
 12 17  1  0  0  0  0
 13 14  1  0  0  0  0
 13 15  1  0  0  0  0
 15 16  1  0  0  0  0
 15 17  1  0  0  0  0
 17 18  1  0  0  0  0
 18 19  1  0  0  0  0
 18 27  1  0  0  0  0
 19 20  2  0  0  0  0
 20 21  1  0  0  0  0
 21 22  1  0  0  0  0
 21 27  2  0  0  0  0
 22 23  1  0  0  0  0
 22 24  2  0  0  0  0
 24 25  1  0  0  0  0
 25 26  2  0  0  0  0
 26 27  1  0  0  0  0
A    1
PB
A    2
O1B
A    3
O2B
A    4
O3B
A    5
PA
A    6
O1A
A    7
O2A
A    8
O3A
A    9
O5'
A   10
C5'
A   11
C4'
A   12
O4'
A   13
C3'
A   14
O3'
A   15
C2'
A   16
O2'
A   17
C1'
A   18
N9
A   19
C8
A   20
N7
A   21
C5
A   22
C6
A   23
N6
A   24
N1
A   25
C2
A   26
N3
A   27
C4
M  END
>  <InstanceId>
3I73_ADP_A_589

>  <ChemCompId>
ADP

>  <PdbId>
3I73

>  <ChainId>
A

>  <ResidueNumber>
589

>  <InsertionCode>


>  <Model>
1

>  <AltIds>


>  <MissingHeavyAtoms>
0

>  <ObservedFormula>
C10 N5 O10 P2

>  <Name>
ADENOSINE-5'-DIPHOSPHATE

>  <SystematicName>
[(2R,3S,4R,5R)-5-(6-aminopurin-9-yl)-3,4-dihydroxy-oxolan-2-yl]methyl phosphono hydrogen phosphate

>  <Synonyms>


>  <Type>
NON-POLYMER

>  <Formula>
C10 H15 N5 O10 P2

>  <MolecularWeight>
427.201

>  <ModifiedDate>
2011-06-04

>  <Parent>
A

>  <OneLetterCode>


>  <SubcomponentList>


>  <AmbiguousFlag>
N

>  <InChI>
InChI=1S/C10H15N5O10P2/c11-8-5-9(13-2-12-8)15(3-14-5)10-7(17)6(16)4(24-10)1-23-27(21,22)25-26(18,19)20/h2-4,6-7,10,16-17H,1H2,(H,21,22)(H2,11,12,13)(H2,18,19,20)/t4-,6-,7-,10-/m1/s1

>  <InChIKey>
XTWYTFMLZFPYCI-KQYNXXCUSA-N

>  <SMILES>
c1nc(c2c(n1)n(cn2)[C@H]3[C@@H]([C@@H]([C@H](O3)CO[P@](=O)(O)OP(=O)(O)O)O)O)N

$$$$
