3O9E_A60_A_200


 44 47  0  0  0  0  0  0  0  0999 V2000
   19.8575   29.5078   15.4545 C   0  0  0  0  0  0  0  0  0  0  0  0
   19.9369   28.3827   16.3712 O   0  0  0  0  0  0  0  0  0  0  0  0
   19.0794   27.9305   16.4032 H   0  0  0  0  0  0  0  0  0  0  0  0
   18.8268   30.5244   15.9684 C   0  0  0  0  0  0  0  0  0  0  0  0
   19.1114   31.8558   15.3954 N   0  0  0  0  0  0  0  0  0  0  0  0
   17.9470   32.5422   14.5084 S   0  0  0  0  0  0  0  0  0  0  0  0
   18.6300   33.4851   13.6552 O   0  0  0  0  0  0  0  0  0  0  0  0
   17.2644   31.4841   13.8154 O   0  0  0  0  0  0  0  0  0  0  0  0
   14.1060   35.0555   18.0731 N   0  0  0  0  0  0  0  0  0  0  0  0
   15.0287   34.5315   17.2095 C   0  0  0  0  0  0  0  0  0  0  0  0
   15.9131   35.3418   16.4827 C   0  0  0  0  0  0  0  0  0  0  0  0
   16.8452   34.7285   15.6145 C   0  0  0  0  0  0  0  0  0  0  0  0
   16.8809   33.3272   15.4596 C   0  0  0  0  0  0  0  0  0  0  0  0
   15.9581   32.5736   16.1854 C   0  0  0  0  0  0  0  0  0  0  0  0
   15.0479   33.1599   17.0588 C   0  0  0  0  0  0  0  0  0  0  0  0
   14.0578   36.0292   18.2106 H   0  0  0  0  0  0  0  0  0  0  0  0
   13.4903   34.4590   18.5572 H   0  0  0  0  0  0  0  0  0  0  0  0
   19.7740   32.7931   16.3368 C   0  0  0  0  0  0  0  0  0  0  0  0
   21.2925   32.6649   16.3201 C   0  0  0  0  0  0  0  0  0  0  0  0
   21.8559   32.7586   14.8994 C   0  0  0  0  0  0  0  0  0  0  0  0
   23.3312   32.4360   14.7582 C   0  0  0  0  0  0  0  0  0  0  0  0
   21.8937   33.7330   17.2509 C   0  0  0  0  0  0  0  0  0  0  0  0
   21.7350   35.1622   16.7695 C   0  0  0  0  0  0  0  0  0  0  0  0
   19.5458   28.9842   14.0534 C   0  0  0  0  0  0  0  0  0  0  0  0
   20.6670   28.1735   13.6323 N   0  0  0  0  0  0  0  0  0  0  0  0
   21.7616   28.6482   13.0638 C   0  0  0  0  0  0  0  0  0  0  0  0
   22.0588   29.7899   12.7872 O   0  0  0  0  0  0  0  0  0  0  0  0
   20.6110   27.2017   13.7792 H   0  0  0  0  0  0  0  0  0  0  0  0
   22.6660   27.5902   12.7576 O   0  0  0  0  0  0  0  0  0  0  0  0
   23.4847   27.7455   11.6046 C   0  0  0  0  0  0  0  0  0  0  0  0
   24.8028   27.1367   12.0369 C   0  0  0  0  0  0  0  0  0  0  0  0
   24.5955   25.7295   11.8975 O   0  0  0  0  0  0  0  0  0  0  0  0
   23.6981   25.4806   10.8203 C   0  0  0  0  0  0  0  0  0  0  0  0
   22.7212   24.5558   11.2556 O   0  0  0  0  0  0  0  0  0  0  0  0
   21.4486   25.1925   11.3301 C   0  0  0  0  0  0  0  0  0  0  0  0
   21.5388   26.4499   10.4623 C   0  0  0  0  0  0  0  0  0  0  0  0
   23.0205   26.8075   10.5140 C   0  0  0  0  0  0  0  0  0  0  0  0
   18.2625   28.1571   13.9641 C   0  0  0  0  0  0  0  0  0  0  0  0
   18.0350   26.3441   12.1613 C   0  0  0  0  0  0  0  0  0  0  0  0
   17.8141   25.9773   10.8399 C   0  0  0  0  0  0  0  0  0  0  0  0
   17.5247   26.9383    9.8881 C   0  0  0  0  0  0  0  0  0  0  0  0
   17.4813   28.2627   10.2622 C   0  0  0  0  0  0  0  0  0  0  0  0
   17.7033   28.6334   11.5784 C   0  0  0  0  0  0  0  0  0  0  0  0
   17.9891   27.6811   12.5481 C   0  0  0  0  0  0  0  0  0  0  0  0
  9 10  1  0  0  0
 10 11  2  0  0  0
 10 15  1  0  0  0
 11 12  1  0  0  0
 12 13  2  0  0  0
 13 14  1  0  0  0
 13  6  1  0  0  0
 14 15  2  0  0  0
  6  7  2  0  0  0
  6  8  2  0  0  0
  6  5  1  0  0  0
  5 18  1  0  0  0
  5  4  1  0  0  0
 18 19  1  0  0  0
 19 20  1  0  0  0
 19 22  1  0  0  0
 20 21  1  0  0  0
 22 23  1  0  0  0
  4  1  1  0  0  0
  1  2  1  0  0  0
  1 24  1  0  0  0
 24 25  1  0  0  0
 24 38  1  0  0  0
 25 26  1  0  0  0
 26 27  2  0  0  0
 26 29  1  0  0  0
 29 30  1  0  0  0
 30 31  1  0  0  0
 30 37  1  0  0  0
 31 32  1  0  0  0
 32 33  1  0  0  0
 33 34  1  0  0  0
 33 37  1  0  0  0
 34 35  1  0  0  0
 35 36  1  0  0  0
 36 37  1  0  0  0
 38 44  1  0  0  0
 39 40  2  0  0  0
 39 44  1  0  0  0
 40 41  1  0  0  0
 41 42  2  0  0  0
 42 43  1  0  0  0
 43 44  2  0  0  0
  9 16  1  0  0  0
  9 17  1  0  0  0
  2  3  1  0  0  0
 25 28  1  0  0  0
M  END
> <minimizedAffinity>
-10.02695

$$$$
3O9E_A60_A_200


 44 47  0  0  0  0  0  0  0  0999 V2000
   18.2694   33.1970   15.5982 C   0  0  0  0  0  0  0  0  0  0  0  0
   18.0063   33.6063   14.2287 O   0  0  0  0  0  0  0  0  0  0  0  0
   17.0485   33.6337   14.0777 H   0  0  0  0  0  0  0  0  0  0  0  0
   17.7326   31.7760   15.8275 C   0  0  0  0  0  0  0  0  0  0  0  0
   18.6136   30.7965   15.1592 N   0  0  0  0  0  0  0  0  0  0  0  0
   19.8763   30.2427   16.0034 S   0  0  0  0  0  0  0  0  0  0  0  0
   19.4716   30.3289   17.3863 O   0  0  0  0  0  0  0  0  0  0  0  0
   20.1470   28.9113   15.5345 O   0  0  0  0  0  0  0  0  0  0  0  0
   24.5828   33.6058   15.4414 N   0  0  0  0  0  0  0  0  0  0  0  0
   23.4853   32.7914   15.5038 C   0  0  0  0  0  0  0  0  0  0  0  0
   23.1685   31.8884   14.4784 C   0  0  0  0  0  0  0  0  0  0  0  0
   22.0220   31.0728   14.6163 C   0  0  0  0  0  0  0  0  0  0  0  0
   21.1928   31.1710   15.7527 C   0  0  0  0  0  0  0  0  0  0  0  0
   21.5405   32.1072   16.7268 C   0  0  0  0  0  0  0  0  0  0  0  0
   22.6760   32.9030   16.6160 C   0  0  0  0  0  0  0  0  0  0  0  0
   25.1871   33.5589   14.6656 H   0  0  0  0  0  0  0  0  0  0  0  0
   24.7684   34.2387   16.1723 H   0  0  0  0  0  0  0  0  0  0  0  0
   17.8887   29.7401   14.4095 C   0  0  0  0  0  0  0  0  0  0  0  0
   17.9093   29.9711   12.9033 C   0  0  0  0  0  0  0  0  0  0  0  0
   19.3008   30.3755   12.4087 C   0  0  0  0  0  0  0  0  0  0  0  0
   20.1890   29.2348   11.9499 C   0  0  0  0  0  0  0  0  0  0  0  0
   17.3912   28.7055   12.1972 C   0  0  0  0  0  0  0  0  0  0  0  0
   16.5140   28.9628   10.9874 C   0  0  0  0  0  0  0  0  0  0  0  0
   17.6697   34.2321   16.5486 C   0  0  0  0  0  0  0  0  0  0  0  0
   18.7559   35.0471   17.0461 N   0  0  0  0  0  0  0  0  0  0  0  0
   19.0012   35.2662   18.3261 C   0  0  0  0  0  0  0  0  0  0  0  0
   18.4172   34.8615   19.3077 O   0  0  0  0  0  0  0  0  0  0  0  0
   19.3534   35.4673   16.3861 H   0  0  0  0  0  0  0  0  0  0  0  0
   20.1306   36.1215   18.4802 O   0  0  0  0  0  0  0  0  0  0  0  0
   20.1527   37.3176   17.7104 C   0  0  0  0  0  0  0  0  0  0  0  0
   19.2635   38.2519   18.5049 C   0  0  0  0  0  0  0  0  0  0  0  0
   20.1093   38.7228   19.5562 O   0  0  0  0  0  0  0  0  0  0  0  0
   21.4548   38.7931   19.0953 C   0  0  0  0  0  0  0  0  0  0  0  0
   22.2920   38.1925   20.0635 O   0  0  0  0  0  0  0  0  0  0  0  0
   22.8484   36.9879   19.5443 C   0  0  0  0  0  0  0  0  0  0  0  0
   22.7242   37.0712   18.0212 C   0  0  0  0  0  0  0  0  0  0  0  0
   21.5110   37.9723   17.8160 C   0  0  0  0  0  0  0  0  0  0  0  0
   16.6135   35.1339   15.9081 C   0  0  0  0  0  0  0  0  0  0  0  0
   16.0284   37.0696   17.4891 C   0  0  0  0  0  0  0  0  0  0  0  0
   15.2128   37.6245   18.4670 C   0  0  0  0  0  0  0  0  0  0  0  0
   14.0891   36.9474   18.9052 C   0  0  0  0  0  0  0  0  0  0  0  0
   13.8029   35.7084   18.3770 C   0  0  0  0  0  0  0  0  0  0  0  0
   14.6147   35.1501   17.4032 C   0  0  0  0  0  0  0  0  0  0  0  0
   15.7433   35.8188   16.9474 C   0  0  0  0  0  0  0  0  0  0  0  0
  9 10  1  0  0  0
 10 11  2  0  0  0
 10 15  1  0  0  0
 11 12  1  0  0  0
 12 13  2  0  0  0
 13 14  1  0  0  0
 13  6  1  0  0  0
 14 15  2  0  0  0
  6  7  2  0  0  0
  6  8  2  0  0  0
  6  5  1  0  0  0
  5 18  1  0  0  0
  5  4  1  0  0  0
 18 19  1  0  0  0
 19 20  1  0  0  0
 19 22  1  0  0  0
 20 21  1  0  0  0
 22 23  1  0  0  0
  4  1  1  0  0  0
  1  2  1  0  0  0
  1 24  1  0  0  0
 24 25  1  0  0  0
 24 38  1  0  0  0
 25 26  1  0  0  0
 26 27  2  0  0  0
 26 29  1  0  0  0
 29 30  1  0  0  0
 30 31  1  0  0  0
 30 37  1  0  0  0
 31 32  1  0  0  0
 32 33  1  0  0  0
 33 34  1  0  0  0
 33 37  1  0  0  0
 34 35  1  0  0  0
 35 36  1  0  0  0
 36 37  1  0  0  0
 38 44  1  0  0  0
 39 40  2  0  0  0
 39 44  1  0  0  0
 40 41  1  0  0  0
 41 42  2  0  0  0
 42 43  1  0  0  0
 43 44  2  0  0  0
  9 16  1  0  0  0
  9 17  1  0  0  0
  2  3  1  0  0  0
 25 28  1  0  0  0
M  END
> <minimizedAffinity>
-9.18948

$$$$
3O9E_A60_A_200


 44 47  0  0  0  0  0  0  0  0999 V2000
   19.2488   29.8520   13.9929 C   0  0  0  0  0  0  0  0  0  0  0  0
   18.3312   29.2772   14.9625 O   0  0  0  0  0  0  0  0  0  0  0  0
   17.4354   29.2626   14.5906 H   0  0  0  0  0  0  0  0  0  0  0  0
   18.8534   31.3079   13.7035 C   0  0  0  0  0  0  0  0  0  0  0  0
   19.0481   32.1279   14.9167 N   0  0  0  0  0  0  0  0  0  0  0  0
   17.8323   32.1716   15.9814 S   0  0  0  0  0  0  0  0  0  0  0  0
   16.6709   31.7333   15.2448 O   0  0  0  0  0  0  0  0  0  0  0  0
   18.2043   31.3261   17.0826 O   0  0  0  0  0  0  0  0  0  0  0  0
   16.7056   37.5806   17.7842 N   0  0  0  0  0  0  0  0  0  0  0  0
   17.0258   36.3043   17.4096 C   0  0  0  0  0  0  0  0  0  0  0  0
   17.9653   35.5355   18.1119 C   0  0  0  0  0  0  0  0  0  0  0  0
   18.2395   34.2207   17.6703 C   0  0  0  0  0  0  0  0  0  0  0  0
   17.5990   33.6880   16.5324 C   0  0  0  0  0  0  0  0  0  0  0  0
   16.6958   34.5086   15.8564 C   0  0  0  0  0  0  0  0  0  0  0  0
   16.4000   35.7971   16.2892 C   0  0  0  0  0  0  0  0  0  0  0  0
   17.1287   37.9816   18.5776 H   0  0  0  0  0  0  0  0  0  0  0  0
   16.0520   38.0980   17.2604 H   0  0  0  0  0  0  0  0  0  0  0  0
   20.3846   31.9757   15.5445 C   0  0  0  0  0  0  0  0  0  0  0  0
   21.3608   33.0650   15.1166 C   0  0  0  0  0  0  0  0  0  0  0  0
   22.0007   33.7607   16.3213 C   0  0  0  0  0  0  0  0  0  0  0  0
   21.6005   35.2089   16.5289 C   0  0  0  0  0  0  0  0  0  0  0  0
   22.4147   32.4503   14.1784 C   0  0  0  0  0  0  0  0  0  0  0  0
   23.8438   32.5399   14.6772 C   0  0  0  0  0  0  0  0  0  0  0  0
   19.2682   28.9698   12.7456 C   0  0  0  0  0  0  0  0  0  0  0  0
   20.5283   28.2602   12.7340 N   0  0  0  0  0  0  0  0  0  0  0  0
   21.6605   28.7540   12.2639 C   0  0  0  0  0  0  0  0  0  0  0  0
   21.8888   29.8380   11.7729 O   0  0  0  0  0  0  0  0  0  0  0  0
   20.5438   27.3469   13.1012 H   0  0  0  0  0  0  0  0  0  0  0  0
   22.7117   27.7993   12.3848 O   0  0  0  0  0  0  0  0  0  0  0  0
   23.6979   27.7819   11.3597 C   0  0  0  0  0  0  0  0  0  0  0  0
   24.9032   27.1833   12.0550 C   0  0  0  0  0  0  0  0  0  0  0  0
   24.6424   25.7781   12.0498 O   0  0  0  0  0  0  0  0  0  0  0  0
   23.9005   25.4316   10.8848 C   0  0  0  0  0  0  0  0  0  0  0  0
   22.8215   24.6034   11.2706 O   0  0  0  0  0  0  0  0  0  0  0  0
   21.5883   25.2903   11.0763 C   0  0  0  0  0  0  0  0  0  0  0  0
   21.8730   26.4276   10.0926 C   0  0  0  0  0  0  0  0  0  0  0  0
   23.3483   26.7347   10.3273 C   0  0  0  0  0  0  0  0  0  0  0  0
   18.1201   27.9621   12.6723 C   0  0  0  0  0  0  0  0  0  0  0  0
   17.9141   25.9247   11.1246 C   0  0  0  0  0  0  0  0  0  0  0  0
   17.8760   25.3778    9.8484 C   0  0  0  0  0  0  0  0  0  0  0  0
   17.9330   26.1977    8.7358 C   0  0  0  0  0  0  0  0  0  0  0  0
   18.0510   27.5586    8.9096 C   0  0  0  0  0  0  0  0  0  0  0  0
   18.0917   28.1082   10.1805 C   0  0  0  0  0  0  0  0  0  0  0  0
   18.0295   27.3002   11.3084 C   0  0  0  0  0  0  0  0  0  0  0  0
  9 10  1  0  0  0
 10 11  2  0  0  0
 10 15  1  0  0  0
 11 12  1  0  0  0
 12 13  2  0  0  0
 13 14  1  0  0  0
 13  6  1  0  0  0
 14 15  2  0  0  0
  6  7  2  0  0  0
  6  8  2  0  0  0
  6  5  1  0  0  0
  5 18  1  0  0  0
  5  4  1  0  0  0
 18 19  1  0  0  0
 19 20  1  0  0  0
 19 22  1  0  0  0
 20 21  1  0  0  0
 22 23  1  0  0  0
  4  1  1  0  0  0
  1  2  1  0  0  0
  1 24  1  0  0  0
 24 25  1  0  0  0
 24 38  1  0  0  0
 25 26  1  0  0  0
 26 27  2  0  0  0
 26 29  1  0  0  0
 29 30  1  0  0  0
 30 31  1  0  0  0
 30 37  1  0  0  0
 31 32  1  0  0  0
 32 33  1  0  0  0
 33 34  1  0  0  0
 33 37  1  0  0  0
 34 35  1  0  0  0
 35 36  1  0  0  0
 36 37  1  0  0  0
 38 44  1  0  0  0
 39 40  2  0  0  0
 39 44  1  0  0  0
 40 41  1  0  0  0
 41 42  2  0  0  0
 42 43  1  0  0  0
 43 44  2  0  0  0
  9 16  1  0  0  0
  9 17  1  0  0  0
  2  3  1  0  0  0
 25 28  1  0  0  0
M  END
> <minimizedAffinity>
-8.96017

$$$$
3O9E_A60_A_200


 44 47  0  0  0  0  0  0  0  0999 V2000
   20.7049   34.2180   17.0262 C   0  0  0  0  0  0  0  0  0  0  0  0
   21.5742   33.3587   17.8126 O   0  0  0  0  0  0  0  0  0  0  0  0
   22.4536   33.7625   17.8794 H   0  0  0  0  0  0  0  0  0  0  0  0
   21.2556   34.3459   15.5979 C   0  0  0  0  0  0  0  0  0  0  0  0
   21.0147   33.0912   14.8565 N   0  0  0  0  0  0  0  0  0  0  0  0
   22.2979   32.1570   14.5493 S   0  0  0  0  0  0  0  0  0  0  0  0
   23.1315   32.9401   13.6687 O   0  0  0  0  0  0  0  0  0  0  0  0
   22.8953   31.8300   15.8150 O   0  0  0  0  0  0  0  0  0  0  0  0
   20.6124   27.1175   12.1957 N   0  0  0  0  0  0  0  0  0  0  0  0
   21.0084   28.3335   12.6817 C   0  0  0  0  0  0  0  0  0  0  0  0
   21.0526   29.4797   11.8746 C   0  0  0  0  0  0  0  0  0  0  0  0
   21.4650   30.7041   12.4487 C   0  0  0  0  0  0  0  0  0  0  0  0
   21.8463   30.7791   13.8043 C   0  0  0  0  0  0  0  0  0  0  0  0
   21.8107   29.6013   14.5512 C   0  0  0  0  0  0  0  0  0  0  0  0
   21.3884   28.3928   14.0070 C   0  0  0  0  0  0  0  0  0  0  0  0
   20.3332   27.0303   11.2556 H   0  0  0  0  0  0  0  0  0  0  0  0
   20.6066   26.3296   12.7860 H   0  0  0  0  0  0  0  0  0  0  0  0
   19.8228   32.3343   15.3148 C   0  0  0  0  0  0  0  0  0  0  0  0
   18.6280   32.5023   14.3839 C   0  0  0  0  0  0  0  0  0  0  0  0
   18.1919   31.1684   13.7714 C   0  0  0  0  0  0  0  0  0  0  0  0
   18.0499   30.0159   14.7471 C   0  0  0  0  0  0  0  0  0  0  0  0
   17.4847   33.1833   15.1572 C   0  0  0  0  0  0  0  0  0  0  0  0
   16.9342   34.4387   14.5091 C   0  0  0  0  0  0  0  0  0  0  0  0
   20.5566   35.5601   17.7411 C   0  0  0  0  0  0  0  0  0  0  0  0
   19.1511   35.7491   18.0248 N   0  0  0  0  0  0  0  0  0  0  0  0
   18.5235   35.2380   19.0695 C   0  0  0  0  0  0  0  0  0  0  0  0
   18.9503   34.5458   19.9679 O   0  0  0  0  0  0  0  0  0  0  0  0
   18.6260   36.2959   17.3967 H   0  0  0  0  0  0  0  0  0  0  0  0
   17.1447   35.5977   19.0507 O   0  0  0  0  0  0  0  0  0  0  0  0
   16.4417   35.4224   17.8263 C   0  0  0  0  0  0  0  0  0  0  0  0
   15.4351   34.3412   18.1618 C   0  0  0  0  0  0  0  0  0  0  0  0
   14.3929   35.0399   18.8460 O   0  0  0  0  0  0  0  0  0  0  0  0
   14.2867   36.3647   18.3347 C   0  0  0  0  0  0  0  0  0  0  0  0
   14.2194   37.2618   19.4254 O   0  0  0  0  0  0  0  0  0  0  0  0
   15.4007   38.0571   19.4738 C   0  0  0  0  0  0  0  0  0  0  0  0
   16.0357   37.9796   18.0834 C   0  0  0  0  0  0  0  0  0  0  0  0
   15.5680   36.6264   17.5581 C   0  0  0  0  0  0  0  0  0  0  0  0
   21.3538   35.6694   19.0416 C   0  0  0  0  0  0  0  0  0  0  0  0
   22.6163   37.5659   17.8591 C   0  0  0  0  0  0  0  0  0  0  0  0
   23.5885   38.5578   17.8685 C   0  0  0  0  0  0  0  0  0  0  0  0
   24.3165   38.8104   19.0172 C   0  0  0  0  0  0  0  0  0  0  0  0
   24.0812   38.0518   20.1420 C   0  0  0  0  0  0  0  0  0  0  0  0
   23.1141   37.0600   20.1365 C   0  0  0  0  0  0  0  0  0  0  0  0
   22.3699   36.7971   18.9938 C   0  0  0  0  0  0  0  0  0  0  0  0
  9 10  1  0  0  0
 10 11  2  0  0  0
 10 15  1  0  0  0
 11 12  1  0  0  0
 12 13  2  0  0  0
 13 14  1  0  0  0
 13  6  1  0  0  0
 14 15  2  0  0  0
  6  7  2  0  0  0
  6  8  2  0  0  0
  6  5  1  0  0  0
  5 18  1  0  0  0
  5  4  1  0  0  0
 18 19  1  0  0  0
 19 20  1  0  0  0
 19 22  1  0  0  0
 20 21  1  0  0  0
 22 23  1  0  0  0
  4  1  1  0  0  0
  1  2  1  0  0  0
  1 24  1  0  0  0
 24 25  1  0  0  0
 24 38  1  0  0  0
 25 26  1  0  0  0
 26 27  2  0  0  0
 26 29  1  0  0  0
 29 30  1  0  0  0
 30 31  1  0  0  0
 30 37  1  0  0  0
 31 32  1  0  0  0
 32 33  1  0  0  0
 33 34  1  0  0  0
 33 37  1  0  0  0
 34 35  1  0  0  0
 35 36  1  0  0  0
 36 37  1  0  0  0
 38 44  1  0  0  0
 39 40  2  0  0  0
 39 44  1  0  0  0
 40 41  1  0  0  0
 41 42  2  0  0  0
 42 43  1  0  0  0
 43 44  2  0  0  0
  9 16  1  0  0  0
  9 17  1  0  0  0
  2  3  1  0  0  0
 25 28  1  0  0  0
M  END
> <minimizedAffinity>
-8.85161

$$$$
3O9E_A60_A_200


 44 47  0  0  0  0  0  0  0  0999 V2000
   18.1866   33.7562   15.5087 C   0  0  0  0  0  0  0  0  0  0  0  0
   17.3613   33.7851   14.3126 O   0  0  0  0  0  0  0  0  0  0  0  0
   16.4756   33.4499   14.5227 H   0  0  0  0  0  0  0  0  0  0  0  0
   18.3518   32.3069   15.9905 C   0  0  0  0  0  0  0  0  0  0  0  0
   19.4236   31.6444   15.2195 N   0  0  0  0  0  0  0  0  0  0  0  0
   18.9753   30.5207   14.1472 S   0  0  0  0  0  0  0  0  0  0  0  0
   18.1213   29.6184   14.8821 O   0  0  0  0  0  0  0  0  0  0  0  0
   18.3353   31.2069   13.0585 O   0  0  0  0  0  0  0  0  0  0  0  0
   23.6274   27.8814   11.8734 N   0  0  0  0  0  0  0  0  0  0  0  0
   22.5395   28.4595   12.4685 C   0  0  0  0  0  0  0  0  0  0  0  0
   22.1815   28.1819   13.7959 C   0  0  0  0  0  0  0  0  0  0  0  0
   21.0482   28.8234   14.3463 C   0  0  0  0  0  0  0  0  0  0  0  0
   20.2723   29.7145   13.5765 C   0  0  0  0  0  0  0  0  0  0  0  0
   20.6586   29.9298   12.2534 C   0  0  0  0  0  0  0  0  0  0  0  0
   21.7823   29.3222   11.7027 C   0  0  0  0  0  0  0  0  0  0  0  0
   24.1951   27.2596   12.3835 H   0  0  0  0  0  0  0  0  0  0  0  0
   23.8425   28.0873   10.9350 H   0  0  0  0  0  0  0  0  0  0  0  0
   20.4673   32.5698   14.7117 C   0  0  0  0  0  0  0  0  0  0  0  0
   21.7842   32.4398   15.4675 C   0  0  0  0  0  0  0  0  0  0  0  0
   22.9398   32.0628   14.5364 C   0  0  0  0  0  0  0  0  0  0  0  0
   24.2676   32.7310   14.8380 C   0  0  0  0  0  0  0  0  0  0  0  0
   22.0572   33.7522   16.2238 C   0  0  0  0  0  0  0  0  0  0  0  0
   22.0425   33.6332   17.7355 C   0  0  0  0  0  0  0  0  0  0  0  0
   17.5686   34.6774   16.5593 C   0  0  0  0  0  0  0  0  0  0  0  0
   18.6353   35.4799   17.1160 N   0  0  0  0  0  0  0  0  0  0  0  0
   18.9459   35.5246   18.3998 C   0  0  0  0  0  0  0  0  0  0  0  0
   18.4472   34.9432   19.3387 O   0  0  0  0  0  0  0  0  0  0  0  0
   19.1663   36.0304   16.4962 H   0  0  0  0  0  0  0  0  0  0  0  0
   20.0323   36.4200   18.6212 O   0  0  0  0  0  0  0  0  0  0  0  0
   20.0755   37.6012   17.8295 C   0  0  0  0  0  0  0  0  0  0  0  0
   19.2779   38.5929   18.6512 C   0  0  0  0  0  0  0  0  0  0  0  0
   20.2003   39.0354   19.6491 O   0  0  0  0  0  0  0  0  0  0  0  0
   21.5218   39.0282   19.1188 C   0  0  0  0  0  0  0  0  0  0  0  0
   22.3764   38.4000   20.0537 O   0  0  0  0  0  0  0  0  0  0  0  0
   22.8425   37.1600   19.5289 C   0  0  0  0  0  0  0  0  0  0  0  0
   22.6437   37.2259   18.0129 C   0  0  0  0  0  0  0  0  0  0  0  0
   21.4693   38.1857   17.8535 C   0  0  0  0  0  0  0  0  0  0  0  0
   16.4727   35.5976   16.0198 C   0  0  0  0  0  0  0  0  0  0  0  0
   16.0076   37.4915   17.6889 C   0  0  0  0  0  0  0  0  0  0  0  0
   15.2656   38.0213   18.7368 C   0  0  0  0  0  0  0  0  0  0  0  0
   14.1741   37.3340   19.2363 C   0  0  0  0  0  0  0  0  0  0  0  0
   13.8473   36.1097   18.6976 C   0  0  0  0  0  0  0  0  0  0  0  0
   14.5858   35.5764   17.6540 C   0  0  0  0  0  0  0  0  0  0  0  0
   15.6810   36.2558   17.1363 C   0  0  0  0  0  0  0  0  0  0  0  0
  9 10  1  0  0  0
 10 11  2  0  0  0
 10 15  1  0  0  0
 11 12  1  0  0  0
 12 13  2  0  0  0
 13 14  1  0  0  0
 13  6  1  0  0  0
 14 15  2  0  0  0
  6  7  2  0  0  0
  6  8  2  0  0  0
  6  5  1  0  0  0
  5 18  1  0  0  0
  5  4  1  0  0  0
 18 19  1  0  0  0
 19 20  1  0  0  0
 19 22  1  0  0  0
 20 21  1  0  0  0
 22 23  1  0  0  0
  4  1  1  0  0  0
  1  2  1  0  0  0
  1 24  1  0  0  0
 24 25  1  0  0  0
 24 38  1  0  0  0
 25 26  1  0  0  0
 26 27  2  0  0  0
 26 29  1  0  0  0
 29 30  1  0  0  0
 30 31  1  0  0  0
 30 37  1  0  0  0
 31 32  1  0  0  0
 32 33  1  0  0  0
 33 34  1  0  0  0
 33 37  1  0  0  0
 34 35  1  0  0  0
 35 36  1  0  0  0
 36 37  1  0  0  0
 38 44  1  0  0  0
 39 40  2  0  0  0
 39 44  1  0  0  0
 40 41  1  0  0  0
 41 42  2  0  0  0
 42 43  1  0  0  0
 43 44  2  0  0  0
  9 16  1  0  0  0
  9 17  1  0  0  0
  2  3  1  0  0  0
 25 28  1  0  0  0
M  END
> <minimizedAffinity>
-8.80770

$$$$
3O9E_A60_A_200


 44 47  0  0  0  0  0  0  0  0999 V2000
   19.8946   29.9345   15.5390 C   0  0  0  0  0  0  0  0  0  0  0  0
   20.0656   28.7355   16.3425 O   0  0  0  0  0  0  0  0  0  0  0  0
   19.2283   28.2470   16.3765 H   0  0  0  0  0  0  0  0  0  0  0  0
   18.8570   30.8567   16.1970 C   0  0  0  0  0  0  0  0  0  0  0  0
   19.3427   32.2515   16.1716 N   0  0  0  0  0  0  0  0  0  0  0  0
   20.9423   32.4777   16.2340 S   0  0  0  0  0  0  0  0  0  0  0  0
   21.4492   31.3703   17.0088 O   0  0  0  0  0  0  0  0  0  0  0  0
   21.4146   32.5328   14.8776 O   0  0  0  0  0  0  0  0  0  0  0  0
   22.0875   37.6519   18.6199 N   0  0  0  0  0  0  0  0  0  0  0  0
   21.8315   36.4028   18.1243 C   0  0  0  0  0  0  0  0  0  0  0  0
   21.7622   35.2727   18.9521 C   0  0  0  0  0  0  0  0  0  0  0  0
   21.4856   34.0146   18.3693 C   0  0  0  0  0  0  0  0  0  0  0  0
   21.3001   33.8837   16.9775 C   0  0  0  0  0  0  0  0  0  0  0  0
   21.4095   35.0369   16.2001 C   0  0  0  0  0  0  0  0  0  0  0  0
   21.6612   36.2852   16.7599 C   0  0  0  0  0  0  0  0  0  0  0  0
   22.2156   37.7809   19.5875 H   0  0  0  0  0  0  0  0  0  0  0  0
   22.1435   38.4220   18.0091 H   0  0  0  0  0  0  0  0  0  0  0  0
   18.6572   33.1153   15.1779 C   0  0  0  0  0  0  0  0  0  0  0  0
   17.6059   34.0181   15.8120 C   0  0  0  0  0  0  0  0  0  0  0  0
   16.1925   33.6620   15.3428 C   0  0  0  0  0  0  0  0  0  0  0  0
   15.5292   32.5131   16.0780 C   0  0  0  0  0  0  0  0  0  0  0  0
   17.7416   33.9430   17.3433 C   0  0  0  0  0  0  0  0  0  0  0  0
   17.9506   35.2776   18.0322 C   0  0  0  0  0  0  0  0  0  0  0  0
   19.5257   29.5271   14.1134 C   0  0  0  0  0  0  0  0  0  0  0  0
   20.5301   28.5934   13.6539 N   0  0  0  0  0  0  0  0  0  0  0  0
   21.7021   28.9422   13.1525 C   0  0  0  0  0  0  0  0  0  0  0  0
   22.1733   30.0448   12.9776 O   0  0  0  0  0  0  0  0  0  0  0  0
   20.3268   27.6323   13.7192 H   0  0  0  0  0  0  0  0  0  0  0  0
   22.4517   27.7882   12.7820 O   0  0  0  0  0  0  0  0  0  0  0  0
   23.2729   27.8879   11.6246 C   0  0  0  0  0  0  0  0  0  0  0  0
   24.5904   27.3018   12.0887 C   0  0  0  0  0  0  0  0  0  0  0  0
   24.3843   25.8894   12.0174 O   0  0  0  0  0  0  0  0  0  0  0  0
   23.4894   25.5877   10.9516 C   0  0  0  0  0  0  0  0  0  0  0  0
   22.5122   24.6844   11.4292 O   0  0  0  0  0  0  0  0  0  0  0  0
   21.2391   25.3230   11.4700 C   0  0  0  0  0  0  0  0  0  0  0  0
   21.3303   26.5368   10.5423 C   0  0  0  0  0  0  0  0  0  0  0  0
   22.8116   26.8976   10.5798 C   0  0  0  0  0  0  0  0  0  0  0  0
   18.1430   28.8871   13.9819 C   0  0  0  0  0  0  0  0  0  0  0  0
   17.7676   28.8925   11.4426 C   0  0  0  0  0  0  0  0  0  0  0  0
   17.5630   28.2078   10.2516 C   0  0  0  0  0  0  0  0  0  0  0  0
   17.5635   26.8247   10.2329 C   0  0  0  0  0  0  0  0  0  0  0  0
   17.7463   26.1370   11.4118 C   0  0  0  0  0  0  0  0  0  0  0  0
   17.9484   26.8158   12.6024 C   0  0  0  0  0  0  0  0  0  0  0  0
   17.9569   28.2042   12.6382 C   0  0  0  0  0  0  0  0  0  0  0  0
  9 10  1  0  0  0
 10 11  2  0  0  0
 10 15  1  0  0  0
 11 12  1  0  0  0
 12 13  2  0  0  0
 13 14  1  0  0  0
 13  6  1  0  0  0
 14 15  2  0  0  0
  6  7  2  0  0  0
  6  8  2  0  0  0
  6  5  1  0  0  0
  5 18  1  0  0  0
  5  4  1  0  0  0
 18 19  1  0  0  0
 19 20  1  0  0  0
 19 22  1  0  0  0
 20 21  1  0  0  0
 22 23  1  0  0  0
  4  1  1  0  0  0
  1  2  1  0  0  0
  1 24  1  0  0  0
 24 25  1  0  0  0
 24 38  1  0  0  0
 25 26  1  0  0  0
 26 27  2  0  0  0
 26 29  1  0  0  0
 29 30  1  0  0  0
 30 31  1  0  0  0
 30 37  1  0  0  0
 31 32  1  0  0  0
 32 33  1  0  0  0
 33 34  1  0  0  0
 33 37  1  0  0  0
 34 35  1  0  0  0
 35 36  1  0  0  0
 36 37  1  0  0  0
 38 44  1  0  0  0
 39 40  2  0  0  0
 39 44  1  0  0  0
 40 41  1  0  0  0
 41 42  2  0  0  0
 42 43  1  0  0  0
 43 44  2  0  0  0
  9 16  1  0  0  0
  9 17  1  0  0  0
  2  3  1  0  0  0
 25 28  1  0  0  0
M  END
> <minimizedAffinity>
-8.77682

$$$$
3O9E_A60_A_200


 44 47  0  0  0  0  0  0  0  0999 V2000
   21.2253   31.5658   13.7383 C   0  0  0  0  0  0  0  0  0  0  0  0
   22.0416   32.7580   13.5810 O   0  0  0  0  0  0  0  0  0  0  0  0
   21.5481   33.4235   13.0765 H   0  0  0  0  0  0  0  0  0  0  0  0
   20.9225   30.9585   12.3601 C   0  0  0  0  0  0  0  0  0  0  0  0
   20.8674   29.4861   12.4654 N   0  0  0  0  0  0  0  0  0  0  0  0
   22.0924   28.7539   13.2251 S   0  0  0  0  0  0  0  0  0  0  0  0
   23.0786   29.7874   13.4323 O   0  0  0  0  0  0  0  0  0  0  0  0
   21.5590   28.1772   14.4287 O   0  0  0  0  0  0  0  0  0  0  0  0
   24.0179   24.4486    9.8289 N   0  0  0  0  0  0  0  0  0  0  0  0
   23.6348   25.4853   10.6352 C   0  0  0  0  0  0  0  0  0  0  0  0
   24.5306   26.4872   11.0365 C   0  0  0  0  0  0  0  0  0  0  0  0
   24.0606   27.5324   11.8644 C   0  0  0  0  0  0  0  0  0  0  0  0
   22.7201   27.5664   12.3012 C   0  0  0  0  0  0  0  0  0  0  0  0
   21.8820   26.5279   11.8948 C   0  0  0  0  0  0  0  0  0  0  0  0
   22.3234   25.5031   11.0642 C   0  0  0  0  0  0  0  0  0  0  0  0
   24.9445   24.3971    9.5001 H   0  0  0  0  0  0  0  0  0  0  0  0
   23.3671   23.7540    9.5776 H   0  0  0  0  0  0  0  0  0  0  0  0
   19.5326   28.9532   12.8364 C   0  0  0  0  0  0  0  0  0  0  0  0
   18.5747   28.8954   11.6525 C   0  0  0  0  0  0  0  0  0  0  0  0
   18.5450   27.5049   11.0120 C   0  0  0  0  0  0  0  0  0  0  0  0
   18.1405   26.3692   11.9325 C   0  0  0  0  0  0  0  0  0  0  0  0
   17.1786   29.3463   12.1177 C   0  0  0  0  0  0  0  0  0  0  0  0
   16.0690   29.1348   11.1059 C   0  0  0  0  0  0  0  0  0  0  0  0
   19.9698   31.9260   14.5310 C   0  0  0  0  0  0  0  0  0  0  0  0
   20.3310   32.9653   15.4696 N   0  0  0  0  0  0  0  0  0  0  0  0
   20.8202   32.7453   16.6775 C   0  0  0  0  0  0  0  0  0  0  0  0
   21.0646   31.6980   17.2360 O   0  0  0  0  0  0  0  0  0  0  0  0
   20.2038   33.9005   15.1897 H   0  0  0  0  0  0  0  0  0  0  0  0
   21.0566   33.9771   17.3541 O   0  0  0  0  0  0  0  0  0  0  0  0
   20.1838   35.0611   17.0590 C   0  0  0  0  0  0  0  0  0  0  0  0
   18.9043   34.6735   17.7713 C   0  0  0  0  0  0  0  0  0  0  0  0
   19.1463   35.0294   19.1341 O   0  0  0  0  0  0  0  0  0  0  0  0
   20.0025   36.1659   19.1890 C   0  0  0  0  0  0  0  0  0  0  0  0
   21.0241   35.9121   20.1328 O   0  0  0  0  0  0  0  0  0  0  0  0
   22.2796   35.7931   19.4695 C   0  0  0  0  0  0  0  0  0  0  0  0
   22.1148   36.4592   18.1015 C   0  0  0  0  0  0  0  0  0  0  0  0
   20.6270   36.2968   17.8082 C   0  0  0  0  0  0  0  0  0  0  0  0
   18.8009   32.4068   13.6699 C   0  0  0  0  0  0  0  0  0  0  0  0
   16.8171   31.8504   15.2009 C   0  0  0  0  0  0  0  0  0  0  0  0
   15.6974   32.2507   15.9187 C   0  0  0  0  0  0  0  0  0  0  0  0
   15.3440   33.5869   15.9725 C   0  0  0  0  0  0  0  0  0  0  0  0
   16.1019   34.5103   15.2875 C   0  0  0  0  0  0  0  0  0  0  0  0
   17.2181   34.1152   14.5684 C   0  0  0  0  0  0  0  0  0  0  0  0
   17.5907   32.7786   14.5088 C   0  0  0  0  0  0  0  0  0  0  0  0
  9 10  1  0  0  0
 10 11  2  0  0  0
 10 15  1  0  0  0
 11 12  1  0  0  0
 12 13  2  0  0  0
 13 14  1  0  0  0
 13  6  1  0  0  0
 14 15  2  0  0  0
  6  7  2  0  0  0
  6  8  2  0  0  0
  6  5  1  0  0  0
  5 18  1  0  0  0
  5  4  1  0  0  0
 18 19  1  0  0  0
 19 20  1  0  0  0
 19 22  1  0  0  0
 20 21  1  0  0  0
 22 23  1  0  0  0
  4  1  1  0  0  0
  1  2  1  0  0  0
  1 24  1  0  0  0
 24 25  1  0  0  0
 24 38  1  0  0  0
 25 26  1  0  0  0
 26 27  2  0  0  0
 26 29  1  0  0  0
 29 30  1  0  0  0
 30 31  1  0  0  0
 30 37  1  0  0  0
 31 32  1  0  0  0
 32 33  1  0  0  0
 33 34  1  0  0  0
 33 37  1  0  0  0
 34 35  1  0  0  0
 35 36  1  0  0  0
 36 37  1  0  0  0
 38 44  1  0  0  0
 39 40  2  0  0  0
 39 44  1  0  0  0
 40 41  1  0  0  0
 41 42  2  0  0  0
 42 43  1  0  0  0
 43 44  2  0  0  0
  9 16  1  0  0  0
  9 17  1  0  0  0
  2  3  1  0  0  0
 25 28  1  0  0  0
M  END
> <minimizedAffinity>
-8.76805

$$$$
3O9E_A60_A_200


 44 47  0  0  0  0  0  0  0  0999 V2000
   18.3548   30.4149   14.2514 C   0  0  0  0  0  0  0  0  0  0  0  0
   18.5414   29.1331   14.9107 O   0  0  0  0  0  0  0  0  0  0  0  0
   19.4605   28.8433   14.8000 H   0  0  0  0  0  0  0  0  0  0  0  0
   18.6049   30.2641   12.7432 C   0  0  0  0  0  0  0  0  0  0  0  0
   18.7937   28.8376   12.4094 N   0  0  0  0  0  0  0  0  0  0  0  0
   17.4891   28.0129   11.9282 S   0  0  0  0  0  0  0  0  0  0  0  0
   17.2390   27.0566   12.9801 O   0  0  0  0  0  0  0  0  0  0  0  0
   16.4375   28.9701   11.7189 O   0  0  0  0  0  0  0  0  0  0  0  0
   18.6608   25.5146    6.8132 N   0  0  0  0  0  0  0  0  0  0  0  0
   18.3734   26.0350    8.0454 C   0  0  0  0  0  0  0  0  0  0  0  0
   18.1918   25.2217    9.1735 C   0  0  0  0  0  0  0  0  0  0  0  0
   17.9047   25.8314   10.4164 C   0  0  0  0  0  0  0  0  0  0  0  0
   17.7816   27.2319   10.5275 C   0  0  0  0  0  0  0  0  0  0  0  0
   17.9434   27.9884    9.3665 C   0  0  0  0  0  0  0  0  0  0  0  0
   18.2459   27.4058    8.1401 C   0  0  0  0  0  0  0  0  0  0  0  0
   18.7604   24.5416    6.7008 H   0  0  0  0  0  0  0  0  0  0  0  0
   18.7681   26.1131    6.0389 H   0  0  0  0  0  0  0  0  0  0  0  0
   20.0067   28.5586   11.6006 C   0  0  0  0  0  0  0  0  0  0  0  0
   20.8922   27.4856   12.2228 C   0  0  0  0  0  0  0  0  0  0  0  0
   21.5371   26.5928   11.1590 C   0  0  0  0  0  0  0  0  0  0  0  0
   21.3981   25.0997   11.3863 C   0  0  0  0  0  0  0  0  0  0  0  0
   21.9423   28.1640   13.1205 C   0  0  0  0  0  0  0  0  0  0  0  0
   23.3508   28.1762   12.5589 C   0  0  0  0  0  0  0  0  0  0  0  0
   19.2610   31.4502   14.9155 C   0  0  0  0  0  0  0  0  0  0  0  0
   18.4453   32.2216   15.8272 N   0  0  0  0  0  0  0  0  0  0  0  0
   17.8045   33.3309   15.5020 C   0  0  0  0  0  0  0  0  0  0  0  0
   17.7533   33.9138   14.4409 O   0  0  0  0  0  0  0  0  0  0  0  0
   18.3616   31.8984   16.7533 H   0  0  0  0  0  0  0  0  0  0  0  0
   17.1052   33.8537   16.6283 O   0  0  0  0  0  0  0  0  0  0  0  0
   15.7729   34.3055   16.4164 C   0  0  0  0  0  0  0  0  0  0  0  0
   14.9740   33.4946   17.4159 C   0  0  0  0  0  0  0  0  0  0  0  0
   15.1786   34.1757   18.6555 O   0  0  0  0  0  0  0  0  0  0  0  0
   15.3379   35.5705   18.4167 C   0  0  0  0  0  0  0  0  0  0  0  0
   16.4607   36.0246   19.1460 O   0  0  0  0  0  0  0  0  0  0  0  0
   17.5029   36.3997   18.2496 C   0  0  0  0  0  0  0  0  0  0  0  0
   16.8445   36.6294   16.8873 C   0  0  0  0  0  0  0  0  0  0  0  0
   15.6215   35.7192   16.9297 C   0  0  0  0  0  0  0  0  0  0  0  0
   20.4433   30.8513   15.6786 C   0  0  0  0  0  0  0  0  0  0  0  0
   22.6397   31.5782   14.5665 C   0  0  0  0  0  0  0  0  0  0  0  0
   23.7768   32.3757   14.5483 C   0  0  0  0  0  0  0  0  0  0  0  0
   23.9706   33.3370   15.5237 C   0  0  0  0  0  0  0  0  0  0  0  0
   23.0347   33.4774   16.5239 C   0  0  0  0  0  0  0  0  0  0  0  0
   21.9002   32.6827   16.5473 C   0  0  0  0  0  0  0  0  0  0  0  0
   21.6868   31.7168   15.5725 C   0  0  0  0  0  0  0  0  0  0  0  0
  9 10  1  0  0  0
 10 11  2  0  0  0
 10 15  1  0  0  0
 11 12  1  0  0  0
 12 13  2  0  0  0
 13 14  1  0  0  0
 13  6  1  0  0  0
 14 15  2  0  0  0
  6  7  2  0  0  0
  6  8  2  0  0  0
  6  5  1  0  0  0
  5 18  1  0  0  0
  5  4  1  0  0  0
 18 19  1  0  0  0
 19 20  1  0  0  0
 19 22  1  0  0  0
 20 21  1  0  0  0
 22 23  1  0  0  0
  4  1  1  0  0  0
  1  2  1  0  0  0
  1 24  1  0  0  0
 24 25  1  0  0  0
 24 38  1  0  0  0
 25 26  1  0  0  0
 26 27  2  0  0  0
 26 29  1  0  0  0
 29 30  1  0  0  0
 30 31  1  0  0  0
 30 37  1  0  0  0
 31 32  1  0  0  0
 32 33  1  0  0  0
 33 34  1  0  0  0
 33 37  1  0  0  0
 34 35  1  0  0  0
 35 36  1  0  0  0
 36 37  1  0  0  0
 38 44  1  0  0  0
 39 40  2  0  0  0
 39 44  1  0  0  0
 40 41  1  0  0  0
 41 42  2  0  0  0
 42 43  1  0  0  0
 43 44  2  0  0  0
  9 16  1  0  0  0
  9 17  1  0  0  0
  2  3  1  0  0  0
 25 28  1  0  0  0
M  END
> <minimizedAffinity>
-8.70157

$$$$
3O9E_A60_A_200


 44 47  0  0  0  0  0  0  0  0999 V2000
   18.9016   31.6168   15.9374 C   0  0  0  0  0  0  0  0  0  0  0  0
   18.3402   30.6040   16.8158 O   0  0  0  0  0  0  0  0  0  0  0  0
   17.5384   30.9504   17.2378 H   0  0  0  0  0  0  0  0  0  0  0  0
   19.3163   32.8458   16.7605 C   0  0  0  0  0  0  0  0  0  0  0  0
   20.6795   33.2658   16.3769 N   0  0  0  0  0  0  0  0  0  0  0  0
   21.3264   34.5050   17.1891 S   0  0  0  0  0  0  0  0  0  0  0  0
   22.0572   33.9012   18.2776 O   0  0  0  0  0  0  0  0  0  0  0  0
   22.1319   35.2464   16.2578 O   0  0  0  0  0  0  0  0  0  0  0  0
   17.2556   38.2119   19.0507 N   0  0  0  0  0  0  0  0  0  0  0  0
   18.1826   37.2869   18.6548 C   0  0  0  0  0  0  0  0  0  0  0  0
   18.0768   35.9315   18.9997 C   0  0  0  0  0  0  0  0  0  0  0  0
   19.0694   35.0319   18.5476 C   0  0  0  0  0  0  0  0  0  0  0  0
   20.1622   35.4823   17.7784 C   0  0  0  0  0  0  0  0  0  0  0  0
   20.2310   36.8456   17.4905 C   0  0  0  0  0  0  0  0  0  0  0  0
   19.2525   37.7406   17.9107 C   0  0  0  0  0  0  0  0  0  0  0  0
   16.4765   37.9312   19.5831 H   0  0  0  0  0  0  0  0  0  0  0  0
   17.3676   39.1582   18.8032 H   0  0  0  0  0  0  0  0  0  0  0  0
   21.6223   32.1406   16.1568 C   0  0  0  0  0  0  0  0  0  0  0  0
   21.9138   31.9001   14.6804 C   0  0  0  0  0  0  0  0  0  0  0  0
   23.1457   32.6782   14.2095 C   0  0  0  0  0  0  0  0  0  0  0  0
   24.2450   32.8489   15.2405 C   0  0  0  0  0  0  0  0  0  0  0  0
   22.0607   30.3869   14.4408 C   0  0  0  0  0  0  0  0  0  0  0  0
   22.3643   29.9936   13.0081 C   0  0  0  0  0  0  0  0  0  0  0  0
   17.8889   31.9365   14.8390 C   0  0  0  0  0  0  0  0  0  0  0  0
   18.0338   30.9328   13.8079 N   0  0  0  0  0  0  0  0  0  0  0  0
   18.7987   31.0643   12.7382 C   0  0  0  0  0  0  0  0  0  0  0  0
   19.5067   31.9878   12.4003 O   0  0  0  0  0  0  0  0  0  0  0  0
   17.5280   30.0943   13.9098 H   0  0  0  0  0  0  0  0  0  0  0  0
   18.7088   29.9059   11.9129 O   0  0  0  0  0  0  0  0  0  0  0  0
   17.7485   28.9205   12.2744 C   0  0  0  0  0  0  0  0  0  0  0  0
   16.7383   28.9983   11.1483 C   0  0  0  0  0  0  0  0  0  0  0  0
   17.3428   28.2519   10.0900 O   0  0  0  0  0  0  0  0  0  0  0  0
   18.1366   27.2026   10.6347 C   0  0  0  0  0  0  0  0  0  0  0  0
   19.3923   27.2073    9.9849 O   0  0  0  0  0  0  0  0  0  0  0  0
   20.4122   27.5939   10.9017 C   0  0  0  0  0  0  0  0  0  0  0  0
   19.8422   27.3760   12.3053 C   0  0  0  0  0  0  0  0  0  0  0  0
   18.3394   27.5397   12.1040 C   0  0  0  0  0  0  0  0  0  0  0  0
   16.4358   31.9658   15.3150 C   0  0  0  0  0  0  0  0  0  0  0  0
   16.4930   34.5316   15.3622 C   0  0  0  0  0  0  0  0  0  0  0  0
   16.1365   35.7359   15.9556 C   0  0  0  0  0  0  0  0  0  0  0  0
   15.3169   35.7491   17.0697 C   0  0  0  0  0  0  0  0  0  0  0  0
   14.8787   34.5543   17.5955 C   0  0  0  0  0  0  0  0  0  0  0  0
   15.2335   33.3508   17.0084 C   0  0  0  0  0  0  0  0  0  0  0  0
   16.0507   33.3195   15.8859 C   0  0  0  0  0  0  0  0  0  0  0  0
  9 10  1  0  0  0
 10 11  2  0  0  0
 10 15  1  0  0  0
 11 12  1  0  0  0
 12 13  2  0  0  0
 13 14  1  0  0  0
 13  6  1  0  0  0
 14 15  2  0  0  0
  6  7  2  0  0  0
  6  8  2  0  0  0
  6  5  1  0  0  0
  5 18  1  0  0  0
  5  4  1  0  0  0
 18 19  1  0  0  0
 19 20  1  0  0  0
 19 22  1  0  0  0
 20 21  1  0  0  0
 22 23  1  0  0  0
  4  1  1  0  0  0
  1  2  1  0  0  0
  1 24  1  0  0  0
 24 25  1  0  0  0
 24 38  1  0  0  0
 25 26  1  0  0  0
 26 27  2  0  0  0
 26 29  1  0  0  0
 29 30  1  0  0  0
 30 31  1  0  0  0
 30 37  1  0  0  0
 31 32  1  0  0  0
 32 33  1  0  0  0
 33 34  1  0  0  0
 33 37  1  0  0  0
 34 35  1  0  0  0
 35 36  1  0  0  0
 36 37  1  0  0  0
 38 44  1  0  0  0
 39 40  2  0  0  0
 39 44  1  0  0  0
 40 41  1  0  0  0
 41 42  2  0  0  0
 42 43  1  0  0  0
 43 44  2  0  0  0
  9 16  1  0  0  0
  9 17  1  0  0  0
  2  3  1  0  0  0
 25 28  1  0  0  0
M  END
> <minimizedAffinity>
-8.63932

$$$$
3O9E_A60_A_200


 44 47  0  0  0  0  0  0  0  0999 V2000
   18.7051   29.5078   13.8337 C   0  0  0  0  0  0  0  0  0  0  0  0
   17.7518   29.0525   14.8319 O   0  0  0  0  0  0  0  0  0  0  0  0
   18.2291   28.7459   15.6187 H   0  0  0  0  0  0  0  0  0  0  0  0
   19.5974   28.3366   13.3958 C   0  0  0  0  0  0  0  0  0  0  0  0
   20.3160   28.6939   12.1556 N   0  0  0  0  0  0  0  0  0  0  0  0
   21.9213   28.5019   12.1509 S   0  0  0  0  0  0  0  0  0  0  0  0
   22.4388   29.6755   11.4888 O   0  0  0  0  0  0  0  0  0  0  0  0
   22.3326   28.3491   13.5196 O   0  0  0  0  0  0  0  0  0  0  0  0
   23.7190   23.8815    9.1182 N   0  0  0  0  0  0  0  0  0  0  0  0
   23.2398   24.9279    9.8579 C   0  0  0  0  0  0  0  0  0  0  0  0
   22.1897   24.7728   10.7746 C   0  0  0  0  0  0  0  0  0  0  0  0
   21.7525   25.8986   11.5097 C   0  0  0  0  0  0  0  0  0  0  0  0
   22.3424   27.1651   11.3183 C   0  0  0  0  0  0  0  0  0  0  0  0
   23.3628   27.2659   10.3724 C   0  0  0  0  0  0  0  0  0  0  0  0
   23.8182   26.1643    9.6553 C   0  0  0  0  0  0  0  0  0  0  0  0
   23.3349   22.9821    9.2312 H   0  0  0  0  0  0  0  0  0  0  0  0
   24.4481   24.0279    8.4730 H   0  0  0  0  0  0  0  0  0  0  0  0
   19.6557   28.2204   10.9133 C   0  0  0  0  0  0  0  0  0  0  0  0
   18.2720   27.6361   11.1709 C   0  0  0  0  0  0  0  0  0  0  0  0
   17.1801   28.4092   10.4261 C   0  0  0  0  0  0  0  0  0  0  0  0
   16.1775   29.1340   11.3036 C   0  0  0  0  0  0  0  0  0  0  0  0
   18.2822   26.1440   10.7934 C   0  0  0  0  0  0  0  0  0  0  0  0
   17.9591   25.1951   11.9311 C   0  0  0  0  0  0  0  0  0  0  0  0
   19.4905   30.6890   14.4012 C   0  0  0  0  0  0  0  0  0  0  0  0
   18.5766   31.4764   15.1990 N   0  0  0  0  0  0  0  0  0  0  0  0
   18.4893   32.7944   15.1544 C   0  0  0  0  0  0  0  0  0  0  0  0
   19.1076   33.5898   14.4812 O   0  0  0  0  0  0  0  0  0  0  0  0
   17.9785   30.9978   15.8175 H   0  0  0  0  0  0  0  0  0  0  0  0
   17.5045   33.2623   16.0721 O   0  0  0  0  0  0  0  0  0  0  0  0
   16.3072   33.8017   15.5248 C   0  0  0  0  0  0  0  0  0  0  0  0
   15.2595   32.7833   15.9246 C   0  0  0  0  0  0  0  0  0  0  0  0
   14.9703   33.1023   17.2874 O   0  0  0  0  0  0  0  0  0  0  0  0
   15.1157   34.5036   17.4941 C   0  0  0  0  0  0  0  0  0  0  0  0
   15.8781   34.7067   18.6673 O   0  0  0  0  0  0  0  0  0  0  0  0
   17.1438   35.2692   18.3329 C   0  0  0  0  0  0  0  0  0  0  0  0
   16.9956   35.8765   16.9360 C   0  0  0  0  0  0  0  0  0  0  0  0
   15.8960   35.0323   16.3003 C   0  0  0  0  0  0  0  0  0  0  0  0
   20.6930   30.2893   15.2573 C   0  0  0  0  0  0  0  0  0  0  0  0
   22.5937   31.7211   14.2948 C   0  0  0  0  0  0  0  0  0  0  0  0
   23.5470   32.7200   14.4452 C   0  0  0  0  0  0  0  0  0  0  0  0
   23.6387   33.4240   15.6322 C   0  0  0  0  0  0  0  0  0  0  0  0
   22.7895   33.1067   16.6688 C   0  0  0  0  0  0  0  0  0  0  0  0
   21.8387   32.1097   16.5240 C   0  0  0  0  0  0  0  0  0  0  0  0
   21.7289   31.3971   15.3370 C   0  0  0  0  0  0  0  0  0  0  0  0
  9 10  1  0  0  0
 10 11  2  0  0  0
 10 15  1  0  0  0
 11 12  1  0  0  0
 12 13  2  0  0  0
 13 14  1  0  0  0
 13  6  1  0  0  0
 14 15  2  0  0  0
  6  7  2  0  0  0
  6  8  2  0  0  0
  6  5  1  0  0  0
  5 18  1  0  0  0
  5  4  1  0  0  0
 18 19  1  0  0  0
 19 20  1  0  0  0
 19 22  1  0  0  0
 20 21  1  0  0  0
 22 23  1  0  0  0
  4  1  1  0  0  0
  1  2  1  0  0  0
  1 24  1  0  0  0
 24 25  1  0  0  0
 24 38  1  0  0  0
 25 26  1  0  0  0
 26 27  2  0  0  0
 26 29  1  0  0  0
 29 30  1  0  0  0
 30 31  1  0  0  0
 30 37  1  0  0  0
 31 32  1  0  0  0
 32 33  1  0  0  0
 33 34  1  0  0  0
 33 37  1  0  0  0
 34 35  1  0  0  0
 35 36  1  0  0  0
 36 37  1  0  0  0
 38 44  1  0  0  0
 39 40  2  0  0  0
 39 44  1  0  0  0
 40 41  1  0  0  0
 41 42  2  0  0  0
 42 43  1  0  0  0
 43 44  2  0  0  0
  9 16  1  0  0  0
  9 17  1  0  0  0
  2  3  1  0  0  0
 25 28  1  0  0  0
M  END
> <minimizedAffinity>
-8.58656

$$$$
