2XHT_C0Y_A_1224
  RCSB PDB12061707263D
Coordinates from PDB:2XHT:A:1224 Model:1 without hydrogens
 19 20  0  0  0  0            999 V2000
    7.0240   -1.1390    9.9970   C 0  0  0  0  0  0  0  0  0  0  0  0
    6.3580   -1.5910   11.2970   C 0  0  0  0  0  0  0  0  0  0  0  0
    6.8370   -0.6640   12.4250   C 0  0  0  0  0  0  0  0  0  0  0  0
    4.8420   -1.4330   11.1450   C 0  0  0  0  0  0  0  0  0  0  0  0
    6.7260   -3.0510   11.6090   C 0  0  0  0  0  0  0  0  0  0  0  0
    7.6540   -3.6470   10.7750   C 0  0  0  0  0  0  0  0  0  0  0  0
    8.0850   -4.9480   10.9730   C 0  0  0  0  0  0  0  0  0  0  0  0
    7.5790   -5.6790   12.0420   C 0  0  0  0  0  0  0  0  0  0  0  0
    6.6500   -5.1170   12.8980   C 0  0  0  0  0  0  0  0  0  0  0  0
    6.2140   -3.8100   12.6990   C 0  0  0  0  0  0  0  0  0  0  0  0
    5.2800   -3.2770   13.5590   O 0  0  0  0  0  0  0  0  0  0  0  0
    9.1280   -5.5350   10.0760   C 0  0  0  0  0  0  0  0  0  0  0  0
   10.1770   -5.9220   10.5570   O 0  0  0  0  0  0  0  0  0  0  0  0
    8.9170   -5.5450    8.7360   N 0  0  0  0  0  0  0  0  0  0  0  0
    9.9440   -5.9770    7.7780   C 0  0  0  0  0  0  0  0  0  0  0  0
    9.4830   -7.2380    7.0710   C 0  0  0  0  0  0  0  0  0  0  0  0
    8.2110   -7.0430    6.4360   O 0  0  0  0  0  0  0  0  0  0  0  0
    7.2190   -6.6960    7.4140   C 0  0  0  0  0  0  0  0  0  0  0  0
    7.5850   -5.4130    8.1420   C 0  0  0  0  0  0  0  0  0  0  0  0
  1  2  1  0  0  0  0
  2  3  1  0  0  0  0
  2  4  1  0  0  0  0
  2  5  1  0  0  0  0
  5  6  1  0  0  0  0
  5 10  2  0  0  0  0
  6  7  2  0  0  0  0
  7  8  1  0  0  0  0
  7 12  1  0  0  0  0
  8  9  2  0  0  0  0
  9 10  1  0  0  0  0
 10 11  1  0  0  0  0
 12 13  2  0  0  0  0
 12 14  1  0  0  0  0
 14 15  1  0  0  0  0
 14 19  1  0  0  0  0
 15 16  1  0  0  0  0
 16 17  1  0  0  0  0
 17 18  1  0  0  0  0
 18 19  1  0  0  0  0
A    1
C1
A    2
C2
A    3
C3
A    4
C4
A    5
C5
A    6
C6
A    7
C7
A    8
C8
A    9
C9
A   10
C10
A   11
O11
A   12
C12
A   13
O13
A   14
N14
A   15
C15
A   16
C16
A   17
O17
A   18
C18
A   19
C19
M  END
>  <InstanceId>
2XHT_C0Y_A_1224

>  <ChemCompId>
C0Y

>  <PdbId>
2XHT

>  <ChainId>
A

>  <ResidueNumber>
1224

>  <InsertionCode>


>  <Model>
1

>  <AltIds>


>  <MissingHeavyAtoms>
0

>  <ObservedFormula>
C15 N O3

>  <Name>
(3-TERT-BUTYL-4-HYDROXYPHENYL)MORPHOLIN-4-YL-METHANONE

>  <SystematicName>
(3-tert-butyl-4-hydroxy-phenyl)-morpholin-4-yl-methanone

>  <Synonyms>


>  <Type>
non-polymer

>  <Formula>
C15 H21 N O3

>  <MolecularWeight>
263.332

>  <ModifiedDate>
2011-06-04

>  <Parent>


>  <OneLetterCode>


>  <SubcomponentList>


>  <AmbiguousFlag>
N

>  <InChI>
InChI=1S/C15H21NO3/c1-15(2,3)12-10-11(4-5-13(12)17)14(18)16-6-8-19-9-7-16/h4-5,10,17H,6-9H2,1-3H3

>  <InChIKey>
KPZLYGXXDVGCGM-UHFFFAOYSA-N

>  <SMILES>
CC(C)(C)c1cc(ccc1O)C(=O)N2CCOCC2

$$$$
