3EKV_478_A_200
  RCSB PDB12061708283D
Coordinates from PDB:3EKV:A:200 Model:1 without hydrogens
 35 37  0  0  0  0            999 V2000
   23.4000   25.8700   10.7830   C 0  0  0  0  0  0  0  0  0  0  0  0
   24.4520   27.7830   11.7810   C 0  0  0  0  0  0  0  0  0  0  0  0
   21.4400   28.2740   12.7340   C 0  0  0  0  0  0  0  0  0  0  0  0
   23.1200   27.2820   11.2620   C 0  0  0  0  0  0  0  0  0  0  0  0
   19.5870   28.8070   14.2580   C 0  0  0  0  0  0  0  0  0  0  0  0
   19.9690   29.1940   15.6810   C 0  0  0  0  0  0  0  0  0  0  0  0
   18.2760   28.0360   14.1060   C 0  0  0  0  0  0  0  0  0  0  0  0
   18.0450   27.6520   12.6600   C 0  0  0  0  0  0  0  0  0  0  0  0
   18.4240   26.3950   12.1820   C 0  0  0  0  0  0  0  0  0  0  0  0
   17.4570   28.5580   11.7890   C 0  0  0  0  0  0  0  0  0  0  0  0
   18.2320   26.0650   10.8410   C 0  0  0  0  0  0  0  0  0  0  0  0
   17.2640   28.2280   10.4520   C 0  0  0  0  0  0  0  0  0  0  0  0
   17.6400   26.9730    9.9760   C 0  0  0  0  0  0  0  0  0  0  0  0
   19.0380   30.2540   16.2520   C 0  0  0  0  0  0  0  0  0  0  0  0
   20.1020   32.4520   16.4680   C 0  0  0  0  0  0  0  0  0  0  0  0
   21.6130   32.2010   16.4280   C 0  0  0  0  0  0  0  0  0  0  0  0
   17.1060   33.0120   15.7110   C 0  0  0  0  0  0  0  0  0  0  0  0
   16.0720   32.3350   16.3650   C 0  0  0  0  0  0  0  0  0  0  0  0
   15.1760   32.9770   17.2100   C 0  0  0  0  0  0  0  0  0  0  0  0
   15.2810   34.3520   17.3990   C 0  0  0  0  0  0  0  0  0  0  0  0
   16.2840   35.0510   16.7400   C 0  0  0  0  0  0  0  0  0  0  0  0
   17.1860   34.3810   15.9070   C 0  0  0  0  0  0  0  0  0  0  0  0
   22.2520   32.2430   15.0420   C 0  0  0  0  0  0  0  0  0  0  0  0
   22.3240   33.2540   17.2740   C 0  0  0  0  0  0  0  0  0  0  0  0
   25.2870   26.5250   11.9820   C 0  0  0  0  0  0  0  0  0  0  0  0
   20.6520   27.9610   13.7600   N 0  0  0  0  0  0  0  0  0  0  0  0
   19.3690   31.5270   15.5820   N 0  0  0  0  0  0  0  0  0  0  0  0
   14.4000   34.9810   18.2110   N 0  0  0  0  0  0  0  0  0  0  0  0
   22.2460   27.1400   12.3730   O 0  0  0  0  0  0  0  0  0  0  0  0
   21.4990   29.3460   12.1360   O 0  0  0  0  0  0  0  0  0  0  0  0
   19.9580   28.0360   16.5280   O 0  0  0  0  0  0  0  0  0  0  0  0
   17.4210   31.1750   14.0660   O 0  0  0  0  0  0  0  0  0  0  0  0
   18.7150   33.0920   13.7920   O 0  0  0  0  0  0  0  0  0  0  0  0
   24.4480   25.4180   11.6380   O 0  0  0  0  0  0  0  0  0  0  0  0
   18.1350   32.1960   14.7720   S 0  0  0  0  0  0  0  0  0  0  0  0
  1  4  1  0  0  0  0
  1 34  1  0  0  0  0
  2  4  1  0  0  0  0
  2 25  1  0  0  0  0
  3 26  1  0  0  0  0
  3 29  1  0  0  0  0
  3 30  2  0  0  0  0
  4 29  1  0  0  0  0
  5  6  1  0  0  0  0
  5  7  1  0  0  0  0
  5 26  1  0  0  0  0
  6 14  1  0  0  0  0
  6 31  1  0  0  0  0
  7  8  1  0  0  0  0
  8  9  2  0  0  0  0
  8 10  1  0  0  0  0
  9 11  1  0  0  0  0
 10 12  2  0  0  0  0
 11 13  2  0  0  0  0
 12 13  1  0  0  0  0
 14 27  1  0  0  0  0
 15 16  1  0  0  0  0
 15 27  1  0  0  0  0
 16 23  1  0  0  0  0
 16 24  1  0  0  0  0
 17 18  2  0  0  0  0
 17 22  1  0  0  0  0
 17 35  1  0  0  0  0
 18 19  1  0  0  0  0
 19 20  2  0  0  0  0
 20 21  1  0  0  0  0
 20 28  1  0  0  0  0
 21 22  2  0  0  0  0
 25 34  1  0  0  0  0
 27 35  1  0  0  0  0
 32 35  2  0  0  0  0
 33 35  2  0  0  0  0
A    1
C1
A    2
C2
A    3
C3
A    4
C4
A    5
C5
A    6
C6
A    7
C7
A    8
C8
A    9
C9
A   10
C10
A   11
C11
A   12
C12
A   13
C13
A   14
C14
A   15
C15
A   16
C16
A   17
C17
A   18
C18
A   19
C19
A   20
C20
A   21
C21
A   22
C22
A   23
C23
A   24
C24
A   25
C25
A   26
N1
A   27
N2
A   28
N3
A   29
O1
A   30
O2
A   31
O3
A   32
O4
A   33
O5
A   34
O6
A   35
S1
M  END
>  <InstanceId>
3EKV_478_A_200

>  <ChemCompId>
478

>  <PdbId>
3EKV

>  <ChainId>
A

>  <ResidueNumber>
200

>  <InsertionCode>


>  <Model>
1

>  <AltIds>


>  <MissingHeavyAtoms>
0

>  <ObservedFormula>
C25 N3 O6 S

>  <Name>
{3-[(4-AMINO-BENZENESULFONYL)-ISOBUTYL-AMINO]-1-BENZYL-2-HYDROXY-PROPYL}-CARBAMIC ACID TETRAHYDRO-FURAN-3-YL ESTER

>  <SystematicName>
[(3S)-oxolan-3-yl] N-[(2S,3R)-4-[(4-aminophenyl)sulfonyl-(2-methylpropyl)amino]-3-hydroxy-1-phenyl-butan-2-yl]carbamate

>  <Synonyms>
Amprenavir

>  <Type>
NON-POLYMER

>  <Formula>
C25 H35 N3 O6 S

>  <MolecularWeight>
505.627

>  <ModifiedDate>
2011-06-04

>  <Parent>


>  <OneLetterCode>


>  <SubcomponentList>


>  <AmbiguousFlag>
N

>  <InChI>
InChI=1S/C25H35N3O6S/c1-18(2)15-28(35(31,32)22-10-8-20(26)9-11-22)16-24(29)23(14-19-6-4-3-5-7-19)27-25(30)34-21-12-13-33-17-21/h3-11,18,21,23-24,29H,12-17,26H2,1-2H3,(H,27,30)/t21-,23-,24+/m0/s1

>  <InChIKey>
YMARZQAQMVYCKC-OEMFJLHTSA-N

>  <SMILES>
CC(C)C[N@](C[C@H]([C@H](Cc1ccccc1)NC(=O)O[C@H]2CCOC2)O)S(=O)(=O)c3ccc(cc3)N

$$$$
