1G7F_INZ_A_500


 45 46  0  0  0  0  0  0  0  0999 V2000
   13.0578   20.6137   16.1241 C   0  0  0  0  0  0  0  0  0  0  0  0
   13.8212   19.9253   15.0873 N   0  0  0  0  0  0  0  0  0  0  0  0
   13.6443   18.6117   14.9422 C   0  0  0  0  0  0  0  0  0  0  0  0
   12.6383   18.0284   15.4589 O   0  0  0  0  0  0  0  0  0  0  0  0
   14.5425   17.9983   14.1734 N   0  0  0  0  0  0  0  0  0  0  0  0
   14.4495   20.4176   14.5110 H   0  0  0  0  0  0  0  0  0  0  0  0
   15.3155   18.4888   13.8113 H   0  0  0  0  0  0  0  0  0  0  0  0
   14.3507   16.5678   13.8781 C   0  0  0  0  0  0  0  0  0  0  0  0
   15.3162   15.7551   14.7396 C   0  0  0  0  0  0  0  0  0  0  0  0
   16.4710   15.4979   14.1020 O   0  0  0  0  0  0  0  0  0  0  0  0
   15.0987   15.4719   15.8804 O   0  0  0  0  0  0  0  0  0  0  0  0
   14.2700   15.6802   16.2650 H   0  0  0  0  0  0  0  0  0  0  0  0
   14.6143   16.3673   12.3381 C   0  0  0  0  0  0  0  0  0  0  0  0
   13.4009   16.7612   11.5018 C   0  0  0  0  0  0  0  0  0  0  0  0
   13.4810   16.8702   10.1060 C   0  0  0  0  0  0  0  0  0  0  0  0
   12.3474   17.2289    9.3399 C   0  0  0  0  0  0  0  0  0  0  0  0
   11.1343   17.4779    9.9785 C   0  0  0  0  0  0  0  0  0  0  0  0
   11.0406   17.3754   11.3722 C   0  0  0  0  0  0  0  0  0  0  0  0
   12.1721   17.0185   12.1336 C   0  0  0  0  0  0  0  0  0  0  0  0
   12.1865   21.6399   15.3551 C   0  0  0  0  0  0  0  0  0  0  0  0
   12.4468   21.6888   14.0362 N   0  0  0  0  0  0  0  0  0  0  0  0
   11.5770   22.5005   15.9918 O   0  0  0  0  0  0  0  0  0  0  0  0
   12.9469   20.9397   13.6386 H   0  0  0  0  0  0  0  0  0  0  0  0
   12.0389   22.7743   13.1583 C   0  0  0  0  0  0  0  0  0  0  0  0
   11.9981   22.2804   11.6949 C   0  0  0  0  0  0  0  0  0  0  0  0
   12.3942   20.7757   11.5544 C   0  0  0  0  0  0  0  0  0  0  0  0
   13.6552   20.6161   10.6726 C   0  0  0  0  0  0  0  0  0  0  0  0
   14.8508   20.2744   11.5501 C   0  0  0  0  0  0  0  0  0  0  0  0
   14.1119   21.3615   17.0054 C   0  0  0  0  0  0  0  0  0  0  0  0
   17.6871   22.5349   14.9015 C   0  0  0  0  0  0  0  0  0  0  0  0
   17.5797   21.2878   15.5435 C   0  0  0  0  0  0  0  0  0  0  0  0
   16.4354   20.9027   16.2228 C   0  0  0  0  0  0  0  0  0  0  0  0
   15.3427   21.7937   16.2571 C   0  0  0  0  0  0  0  0  0  0  0  0
   15.4232   23.0353   15.6077 C   0  0  0  0  0  0  0  0  0  0  0  0
   16.5971   23.4281   14.9273 C   0  0  0  0  0  0  0  0  0  0  0  0
   18.8855   22.7960   14.2909 O   0  0  0  0  0  0  0  0  0  0  0  0
   18.9776   22.7570   12.8328 C   0  0  0  0  0  0  0  0  0  0  0  0
   19.3869   24.0945   12.1948 C   0  0  0  0  0  0  0  0  0  0  0  0
   19.2637   24.3082   10.9997 O   0  0  0  0  0  0  0  0  0  0  0  0
   19.9187   24.9934   13.0341 O   0  0  0  0  0  0  0  0  0  0  0  0
   18.8869   23.6550   10.4434 H   0  0  0  0  0  0  0  0  0  0  0  0
   20.1397   21.7894   12.5564 C   0  0  0  0  0  0  0  0  0  0  0  0
   21.2163   22.4268   12.1171 O   0  0  0  0  0  0  0  0  0  0  0  0
   20.0256   20.6120   12.7512 O   0  0  0  0  0  0  0  0  0  0  0  0
   21.1953   23.3562   11.9999 H   0  0  0  0  0  0  0  0  0  0  0  0
 42 43  1  0  0  0
 42 44  2  0  0  0
 42 37  1  0  0  0
 30 31  2  0  0  0
 30 35  1  0  0  0
 30 36  1  0  0  0
 31 32  1  0  0  0
 32 33  2  0  0  0
 33 34  1  0  0  0
 33 29  1  0  0  0
 34 35  2  0  0  0
 37 36  1  0  0  0
 37 38  1  0  0  0
 29  1  1  0  0  0
  1  2  1  0  0  0
  1 20  1  0  0  0
 38 39  1  0  0  0
 38 40  2  0  0  0
  2  3  1  0  0  0
 20 21  1  0  0  0
 20 22  2  0  0  0
  3  4  2  0  0  0
  3  5  1  0  0  0
 21 24  1  0  0  0
 24 25  1  0  0  0
 25 26  1  0  0  0
 26 27  1  0  0  0
 27 28  1  0  0  0
  5  8  1  0  0  0
  8 13  1  0  0  0
  8  9  1  0  0  0
 13 14  1  0  0  0
  9 10  2  0  0  0
  9 11  1  0  0  0
 14 15  2  0  0  0
 14 19  1  0  0  0
 15 16  1  0  0  0
 16 17  2  0  0  0
 17 18  1  0  0  0
 18 19  2  0  0  0
 43 45  1  0  0  0
 39 41  1  0  0  0
  2  6  1  0  0  0
 21 23  1  0  0  0
  5  7  1  0  0  0
 11 12  1  0  0  0
M  END
> <minimizedAffinity>
-7.25642

$$$$
1G7F_INZ_A_500


 45 46  0  0  0  0  0  0  0  0999 V2000
   11.1971   21.9172   14.4874 C   0  0  0  0  0  0  0  0  0  0  0  0
   12.0829   21.0063   13.7682 N   0  0  0  0  0  0  0  0  0  0  0  0
   12.1601   19.7423   14.1855 C   0  0  0  0  0  0  0  0  0  0  0  0
   11.2809   19.2595   14.9687 O   0  0  0  0  0  0  0  0  0  0  0  0
   13.1625   19.0331   13.6696 N   0  0  0  0  0  0  0  0  0  0  0  0
   12.6089   21.3169   12.9961 H   0  0  0  0  0  0  0  0  0  0  0  0
   13.8298   19.4563   13.0823 H   0  0  0  0  0  0  0  0  0  0  0  0
   13.2481   17.5998   13.9992 C   0  0  0  0  0  0  0  0  0  0  0  0
   14.1520   17.4299   15.2194 C   0  0  0  0  0  0  0  0  0  0  0  0
   15.4310   17.2020   14.8752 O   0  0  0  0  0  0  0  0  0  0  0  0
   13.7732   17.5822   16.3430 O   0  0  0  0  0  0  0  0  0  0  0  0
   12.8653   17.7379   16.5143 H   0  0  0  0  0  0  0  0  0  0  0  0
   13.8166   16.8598   12.7300 C   0  0  0  0  0  0  0  0  0  0  0  0
   12.8761   16.9847   11.5355 C   0  0  0  0  0  0  0  0  0  0  0  0
   13.3565   16.9257   10.2193 C   0  0  0  0  0  0  0  0  0  0  0  0
   12.4742   17.0352    9.1192 C   0  0  0  0  0  0  0  0  0  0  0  0
   11.1095   17.2040    9.3439 C   0  0  0  0  0  0  0  0  0  0  0  0
   10.6162   17.2675   10.6533 C   0  0  0  0  0  0  0  0  0  0  0  0
   11.4978   17.1590   11.7481 C   0  0  0  0  0  0  0  0  0  0  0  0
   10.2535   22.4897   13.3986 C   0  0  0  0  0  0  0  0  0  0  0  0
   10.1973   21.7393   12.2835 N   0  0  0  0  0  0  0  0  0  0  0  0
    9.8829   23.6612   13.4865 O   0  0  0  0  0  0  0  0  0  0  0  0
   10.5275   20.8133   12.3359 H   0  0  0  0  0  0  0  0  0  0  0  0
    9.6813   22.2045   11.0057 C   0  0  0  0  0  0  0  0  0  0  0  0
   10.6922   21.8845    9.8821 C   0  0  0  0  0  0  0  0  0  0  0  0
   11.7262   20.7883   10.2946 C   0  0  0  0  0  0  0  0  0  0  0  0
   13.1563   21.1855    9.8587 C   0  0  0  0  0  0  0  0  0  0  0  0
   14.1675   20.5999   10.8339 C   0  0  0  0  0  0  0  0  0  0  0  0
   12.1158   23.0519   15.0490 C   0  0  0  0  0  0  0  0  0  0  0  0
   16.2914   21.9930   15.2190 C   0  0  0  0  0  0  0  0  0  0  0  0
   15.7469   22.6904   14.1253 C   0  0  0  0  0  0  0  0  0  0  0  0
   14.4063   23.0338   14.0614 C   0  0  0  0  0  0  0  0  0  0  0  0
   13.5695   22.6773   15.1393 C   0  0  0  0  0  0  0  0  0  0  0  0
   14.0970   21.9971   16.2479 C   0  0  0  0  0  0  0  0  0  0  0  0
   15.4621   21.6382   16.3020 C   0  0  0  0  0  0  0  0  0  0  0  0
   17.6262   21.6947   15.1380 O   0  0  0  0  0  0  0  0  0  0  0  0
   18.0822   20.6688   14.2024 C   0  0  0  0  0  0  0  0  0  0  0  0
   19.4277   20.9874   13.5302 C   0  0  0  0  0  0  0  0  0  0  0  0
   20.3378   20.1757   13.4826 O   0  0  0  0  0  0  0  0  0  0  0  0
   19.5431   22.2259   13.0323 O   0  0  0  0  0  0  0  0  0  0  0  0
   20.2200   19.3183   13.8416 H   0  0  0  0  0  0  0  0  0  0  0  0
   18.3393   19.4400   15.0897 C   0  0  0  0  0  0  0  0  0  0  0  0
   18.1287   18.3071   14.4335 O   0  0  0  0  0  0  0  0  0  0  0  0
   18.7009   19.5610   16.2262 O   0  0  0  0  0  0  0  0  0  0  0  0
   17.8448   18.3285   13.5408 H   0  0  0  0  0  0  0  0  0  0  0  0
 42 43  1  0  0  0
 42 44  2  0  0  0
 42 37  1  0  0  0
 30 31  2  0  0  0
 30 35  1  0  0  0
 30 36  1  0  0  0
 31 32  1  0  0  0
 32 33  2  0  0  0
 33 34  1  0  0  0
 33 29  1  0  0  0
 34 35  2  0  0  0
 37 36  1  0  0  0
 37 38  1  0  0  0
 29  1  1  0  0  0
  1  2  1  0  0  0
  1 20  1  0  0  0
 38 39  1  0  0  0
 38 40  2  0  0  0
  2  3  1  0  0  0
 20 21  1  0  0  0
 20 22  2  0  0  0
  3  4  2  0  0  0
  3  5  1  0  0  0
 21 24  1  0  0  0
 24 25  1  0  0  0
 25 26  1  0  0  0
 26 27  1  0  0  0
 27 28  1  0  0  0
  5  8  1  0  0  0
  8 13  1  0  0  0
  8  9  1  0  0  0
 13 14  1  0  0  0
  9 10  2  0  0  0
  9 11  1  0  0  0
 14 15  2  0  0  0
 14 19  1  0  0  0
 15 16  1  0  0  0
 16 17  2  0  0  0
 17 18  1  0  0  0
 18 19  2  0  0  0
 43 45  1  0  0  0
 39 41  1  0  0  0
  2  6  1  0  0  0
 21 23  1  0  0  0
  5  7  1  0  0  0
 11 12  1  0  0  0
M  END
> <minimizedAffinity>
-6.91353

$$$$
1G7F_INZ_A_500


 45 46  0  0  0  0  0  0  0  0999 V2000
   12.9620   20.6322   16.0529 C   0  0  0  0  0  0  0  0  0  0  0  0
   13.7618   20.0000   15.0078 N   0  0  0  0  0  0  0  0  0  0  0  0
   13.6400   18.6841   14.8306 C   0  0  0  0  0  0  0  0  0  0  0  0
   12.6542   18.0484   15.3241 O   0  0  0  0  0  0  0  0  0  0  0  0
   14.5690   18.1259   14.0565 N   0  0  0  0  0  0  0  0  0  0  0  0
   14.3744   20.5309   14.4491 H   0  0  0  0  0  0  0  0  0  0  0  0
   15.3244   18.6558   13.7133 H   0  0  0  0  0  0  0  0  0  0  0  0
   14.4384   16.6961   13.7264 C   0  0  0  0  0  0  0  0  0  0  0  0
   15.4665   15.9092   14.5378 C   0  0  0  0  0  0  0  0  0  0  0  0
   15.0116   15.5929   15.7622 O   0  0  0  0  0  0  0  0  0  0  0  0
   16.5113   15.5387   14.0905 O   0  0  0  0  0  0  0  0  0  0  0  0
   16.7692   15.7964   13.2273 H   0  0  0  0  0  0  0  0  0  0  0  0
   14.6670   16.5503   12.1747 C   0  0  0  0  0  0  0  0  0  0  0  0
   13.3866   16.8134   11.3883 C   0  0  0  0  0  0  0  0  0  0  0  0
   12.1666   17.0494   12.0384 C   0  0  0  0  0  0  0  0  0  0  0  0
   10.9870   17.2998   11.2992 C   0  0  0  0  0  0  0  0  0  0  0  0
   11.0355   17.3122    9.9067 C   0  0  0  0  0  0  0  0  0  0  0  0
   12.2466   17.0753    9.2443 C   0  0  0  0  0  0  0  0  0  0  0  0
   13.4208   16.8253    9.9834 C   0  0  0  0  0  0  0  0  0  0  0  0
   12.0954   21.6787   15.3063 C   0  0  0  0  0  0  0  0  0  0  0  0
   12.3738   21.7729   13.9935 N   0  0  0  0  0  0  0  0  0  0  0  0
   11.4720   22.5143   15.9625 O   0  0  0  0  0  0  0  0  0  0  0  0
   12.8838   21.0402   13.5784 H   0  0  0  0  0  0  0  0  0  0  0  0
   11.9716   22.8847   13.1464 C   0  0  0  0  0  0  0  0  0  0  0  0
   11.6352   22.3712   11.7287 C   0  0  0  0  0  0  0  0  0  0  0  0
   11.9063   20.8418   11.5605 C   0  0  0  0  0  0  0  0  0  0  0  0
   13.0264   20.5898   10.5238 C   0  0  0  0  0  0  0  0  0  0  0  0
   14.3455   20.3546   11.2456 C   0  0  0  0  0  0  0  0  0  0  0  0
   13.9820   21.3556   16.9928 C   0  0  0  0  0  0  0  0  0  0  0  0
   17.7465   22.2592   15.0961 C   0  0  0  0  0  0  0  0  0  0  0  0
   16.6426   23.1265   15.0046 C   0  0  0  0  0  0  0  0  0  0  0  0
   15.4289   22.8438   15.6096 C   0  0  0  0  0  0  0  0  0  0  0  0
   15.3091   21.6490   16.3493 C   0  0  0  0  0  0  0  0  0  0  0  0
   16.4041   20.7790   16.4677 C   0  0  0  0  0  0  0  0  0  0  0  0
   17.6356   21.0660   15.8380 C   0  0  0  0  0  0  0  0  0  0  0  0
   18.8760   22.6504   14.4265 O   0  0  0  0  0  0  0  0  0  0  0  0
   19.3775   21.8389   13.3193 C   0  0  0  0  0  0  0  0  0  0  0  0
   18.2745   21.2419   12.4301 C   0  0  0  0  0  0  0  0  0  0  0  0
   17.4631   21.9409   11.8452 O   0  0  0  0  0  0  0  0  0  0  0  0
   18.2452   19.9037   12.3701 O   0  0  0  0  0  0  0  0  0  0  0  0
   17.5152   22.8742   11.9107 H   0  0  0  0  0  0  0  0  0  0  0  0
   20.1325   22.8415   12.4317 C   0  0  0  0  0  0  0  0  0  0  0  0
   19.4706   23.9838   12.3076 O   0  0  0  0  0  0  0  0  0  0  0  0
   21.1964   22.5665   11.9525 O   0  0  0  0  0  0  0  0  0  0  0  0
   18.6402   24.0922   12.7278 H   0  0  0  0  0  0  0  0  0  0  0  0
 42 43  1  0  0  0
 42 44  2  0  0  0
 42 37  1  0  0  0
 30 31  2  0  0  0
 30 35  1  0  0  0
 30 36  1  0  0  0
 31 32  1  0  0  0
 32 33  2  0  0  0
 33 34  1  0  0  0
 33 29  1  0  0  0
 34 35  2  0  0  0
 37 36  1  0  0  0
 37 38  1  0  0  0
 29  1  1  0  0  0
  1  2  1  0  0  0
  1 20  1  0  0  0
 38 39  1  0  0  0
 38 40  2  0  0  0
  2  3  1  0  0  0
 20 21  1  0  0  0
 20 22  2  0  0  0
  3  4  2  0  0  0
  3  5  1  0  0  0
 21 24  1  0  0  0
 24 25  1  0  0  0
 25 26  1  0  0  0
 26 27  1  0  0  0
 27 28  1  0  0  0
  5  8  1  0  0  0
  8 13  1  0  0  0
  8  9  1  0  0  0
 13 14  1  0  0  0
  9 10  2  0  0  0
  9 11  1  0  0  0
 14 15  2  0  0  0
 14 19  1  0  0  0
 15 16  1  0  0  0
 16 17  2  0  0  0
 17 18  1  0  0  0
 18 19  2  0  0  0
 43 45  1  0  0  0
 39 41  1  0  0  0
  2  6  1  0  0  0
 21 23  1  0  0  0
  5  7  1  0  0  0
 11 12  1  0  0  0
M  END
> <minimizedAffinity>
-6.91302

$$$$
1G7F_INZ_A_500


 45 46  0  0  0  0  0  0  0  0999 V2000
    9.1455   19.2081    9.1482 C   0  0  0  0  0  0  0  0  0  0  0  0
    7.8693   19.0825    8.4503 N   0  0  0  0  0  0  0  0  0  0  0  0
    6.7522   19.3504    9.1272 C   0  0  0  0  0  0  0  0  0  0  0  0
    6.7940   19.9856   10.2291 O   0  0  0  0  0  0  0  0  0  0  0  0
    5.6220   18.9725    8.5322 N   0  0  0  0  0  0  0  0  0  0  0  0
    7.8345   18.8075    7.5057 H   0  0  0  0  0  0  0  0  0  0  0  0
    5.6414   18.4656    7.6884 H   0  0  0  0  0  0  0  0  0  0  0  0
    4.3424   19.3315    9.1677 C   0  0  0  0  0  0  0  0  0  0  0  0
    3.6026   18.0478    9.5411 C   0  0  0  0  0  0  0  0  0  0  0  0
    3.7023   17.7682   10.8519 O   0  0  0  0  0  0  0  0  0  0  0  0
    2.9346   17.4268    8.7684 O   0  0  0  0  0  0  0  0  0  0  0  0
    2.9095   17.6756    7.8654 H   0  0  0  0  0  0  0  0  0  0  0  0
    3.5347   20.2049    8.1351 C   0  0  0  0  0  0  0  0  0  0  0  0
    4.0695   20.0396    6.7161 C   0  0  0  0  0  0  0  0  0  0  0  0
    5.0299   20.9167    6.1915 C   0  0  0  0  0  0  0  0  0  0  0  0
    5.5243   20.7495    4.8769 C   0  0  0  0  0  0  0  0  0  0  0  0
    5.0521   19.7003    4.0910 C   0  0  0  0  0  0  0  0  0  0  0  0
    4.0909   18.8184    4.6010 C   0  0  0  0  0  0  0  0  0  0  0  0
    3.5992   18.9878    5.9114 C   0  0  0  0  0  0  0  0  0  0  0  0
   10.0186   20.0873    8.2164 C   0  0  0  0  0  0  0  0  0  0  0  0
   10.4407   19.4485    7.1103 N   0  0  0  0  0  0  0  0  0  0  0  0
   10.4942   21.1344    8.6578 O   0  0  0  0  0  0  0  0  0  0  0  0
    9.9822   18.6146    6.8583 H   0  0  0  0  0  0  0  0  0  0  0  0
   11.5294   19.9075    6.2620 C   0  0  0  0  0  0  0  0  0  0  0  0
   11.9935   18.7614    5.3356 C   0  0  0  0  0  0  0  0  0  0  0  0
   11.7042   17.3473    5.9334 C   0  0  0  0  0  0  0  0  0  0  0  0
   11.8863   16.2465    4.8619 C   0  0  0  0  0  0  0  0  0  0  0  0
   13.2064   16.4568    4.1343 C   0  0  0  0  0  0  0  0  0  0  0  0
    9.7350   17.7611    9.2246 C   0  0  0  0  0  0  0  0  0  0  0  0
   13.1128   17.4291   11.8827 C   0  0  0  0  0  0  0  0  0  0  0  0
   11.8165   17.6948   12.3601 C   0  0  0  0  0  0  0  0  0  0  0  0
   10.7254   17.8044   11.5135 C   0  0  0  0  0  0  0  0  0  0  0  0
   10.9296   17.6313   10.1288 C   0  0  0  0  0  0  0  0  0  0  0  0
   12.2121   17.3478    9.6341 C   0  0  0  0  0  0  0  0  0  0  0  0
   13.3233   17.2498   10.5006 C   0  0  0  0  0  0  0  0  0  0  0  0
   14.1026   17.3740   12.8284 O   0  0  0  0  0  0  0  0  0  0  0  0
   14.4129   16.1016   13.4770 C   0  0  0  0  0  0  0  0  0  0  0  0
   15.5267   15.3001   12.7836 C   0  0  0  0  0  0  0  0  0  0  0  0
   16.6936   15.3746   13.1327 O   0  0  0  0  0  0  0  0  0  0  0  0
   15.1329   14.5432   11.7505 O   0  0  0  0  0  0  0  0  0  0  0  0
   16.9313   15.9148   13.8605 H   0  0  0  0  0  0  0  0  0  0  0  0
   14.9813   16.5078   14.8464 C   0  0  0  0  0  0  0  0  0  0  0  0
   14.9717   15.4953   15.7026 O   0  0  0  0  0  0  0  0  0  0  0  0
   15.3833   17.6195   15.0456 O   0  0  0  0  0  0  0  0  0  0  0  0
   14.6316   14.6627   15.4397 H   0  0  0  0  0  0  0  0  0  0  0  0
 42 43  1  0  0  0
 42 44  2  0  0  0
 42 37  1  0  0  0
 30 31  2  0  0  0
 30 35  1  0  0  0
 30 36  1  0  0  0
 31 32  1  0  0  0
 32 33  2  0  0  0
 33 34  1  0  0  0
 33 29  1  0  0  0
 34 35  2  0  0  0
 37 36  1  0  0  0
 37 38  1  0  0  0
 29  1  1  0  0  0
  1  2  1  0  0  0
  1 20  1  0  0  0
 38 39  1  0  0  0
 38 40  2  0  0  0
  2  3  1  0  0  0
 20 21  1  0  0  0
 20 22  2  0  0  0
  3  4  2  0  0  0
  3  5  1  0  0  0
 21 24  1  0  0  0
 24 25  1  0  0  0
 25 26  1  0  0  0
 26 27  1  0  0  0
 27 28  1  0  0  0
  5  8  1  0  0  0
  8 13  1  0  0  0
  8  9  1  0  0  0
 13 14  1  0  0  0
  9 10  2  0  0  0
  9 11  1  0  0  0
 14 15  2  0  0  0
 14 19  1  0  0  0
 15 16  1  0  0  0
 16 17  2  0  0  0
 17 18  1  0  0  0
 18 19  2  0  0  0
 43 45  1  0  0  0
 39 41  1  0  0  0
  2  6  1  0  0  0
 21 23  1  0  0  0
  5  7  1  0  0  0
 11 12  1  0  0  0
M  END
> <minimizedAffinity>
-6.85481

$$$$
1G7F_INZ_A_500


 45 46  0  0  0  0  0  0  0  0999 V2000
   15.1959   17.0347   13.7076 C   0  0  0  0  0  0  0  0  0  0  0  0
   15.6058   18.4336   13.6251 N   0  0  0  0  0  0  0  0  0  0  0  0
   16.7765   18.7797   14.1614 C   0  0  0  0  0  0  0  0  0  0  0  0
   17.6453   17.8974   14.4548 O   0  0  0  0  0  0  0  0  0  0  0  0
   16.9783   20.0899   14.2897 N   0  0  0  0  0  0  0  0  0  0  0  0
   15.0334   19.1031   13.1854 H   0  0  0  0  0  0  0  0  0  0  0  0
   16.2676   20.7339   14.0670 H   0  0  0  0  0  0  0  0  0  0  0  0
   18.2910   20.5519   14.7730 C   0  0  0  0  0  0  0  0  0  0  0  0
   18.1448   21.0177   16.2209 C   0  0  0  0  0  0  0  0  0  0  0  0
   16.9290   20.7409   16.7222 O   0  0  0  0  0  0  0  0  0  0  0  0
   19.0451   21.4833   16.8546 O   0  0  0  0  0  0  0  0  0  0  0  0
   19.8696   21.6524   16.4428 H   0  0  0  0  0  0  0  0  0  0  0  0
   18.7597   21.7141   13.8185 C   0  0  0  0  0  0  0  0  0  0  0  0
   17.6553   22.7429   13.5975 C   0  0  0  0  0  0  0  0  0  0  0  0
   16.9122   22.7717   12.4085 C   0  0  0  0  0  0  0  0  0  0  0  0
   15.8853   23.7254   12.2174 C   0  0  0  0  0  0  0  0  0  0  0  0
   15.6069   24.6496   13.2224 C   0  0  0  0  0  0  0  0  0  0  0  0
   16.3430   24.6342   14.4138 C   0  0  0  0  0  0  0  0  0  0  0  0
   17.3666   23.6830   14.6015 C   0  0  0  0  0  0  0  0  0  0  0  0
   15.1991   16.5366   12.2395 C   0  0  0  0  0  0  0  0  0  0  0  0
   14.2549   17.1106   11.4722 N   0  0  0  0  0  0  0  0  0  0  0  0
   15.8096   15.5034   11.9616 O   0  0  0  0  0  0  0  0  0  0  0  0
   13.8336   17.9366   11.8032 H   0  0  0  0  0  0  0  0  0  0  0  0
   13.8147   16.5926   10.1864 C   0  0  0  0  0  0  0  0  0  0  0  0
   12.4785   17.2543    9.7821 C   0  0  0  0  0  0  0  0  0  0  0  0
   11.4434   17.2881   10.9518 C   0  0  0  0  0  0  0  0  0  0  0  0
   10.1288   17.9715   10.5069 C   0  0  0  0  0  0  0  0  0  0  0  0
    9.7113   17.4356    9.1450 C   0  0  0  0  0  0  0  0  0  0  0  0
   13.7339   17.0499   14.2639 C   0  0  0  0  0  0  0  0  0  0  0  0
   12.4637   20.8943   15.7448 C   0  0  0  0  0  0  0  0  0  0  0  0
   12.1076   20.4387   14.4623 C   0  0  0  0  0  0  0  0  0  0  0  0
   12.5121   19.2056   13.9776 C   0  0  0  0  0  0  0  0  0  0  0  0
   13.2982   18.3818   14.8097 C   0  0  0  0  0  0  0  0  0  0  0  0
   13.6491   18.8102   16.0994 C   0  0  0  0  0  0  0  0  0  0  0  0
   13.2446   20.0740   16.5837 C   0  0  0  0  0  0  0  0  0  0  0  0
   12.0176   22.1444   16.0845 O   0  0  0  0  0  0  0  0  0  0  0  0
   11.1331   22.8686   15.1739 C   0  0  0  0  0  0  0  0  0  0  0  0
    9.9378   23.5435   15.8662 C   0  0  0  0  0  0  0  0  0  0  0  0
    9.3730   24.5134   15.3869 O   0  0  0  0  0  0  0  0  0  0  0  0
    9.5824   23.0155   17.0452 O   0  0  0  0  0  0  0  0  0  0  0  0
    9.6496   24.8549   14.5593 H   0  0  0  0  0  0  0  0  0  0  0  0
   12.0057   24.0143   14.6361 C   0  0  0  0  0  0  0  0  0  0  0  0
   12.1877   23.9203   13.3260 O   0  0  0  0  0  0  0  0  0  0  0  0
   12.4263   24.8679   15.3652 O   0  0  0  0  0  0  0  0  0  0  0  0
   11.8108   23.2062   12.8506 H   0  0  0  0  0  0  0  0  0  0  0  0
 42 43  1  0  0  0
 42 44  2  0  0  0
 42 37  1  0  0  0
 30 31  2  0  0  0
 30 35  1  0  0  0
 30 36  1  0  0  0
 31 32  1  0  0  0
 32 33  2  0  0  0
 33 34  1  0  0  0
 33 29  1  0  0  0
 34 35  2  0  0  0
 37 36  1  0  0  0
 37 38  1  0  0  0
 29  1  1  0  0  0
  1  2  1  0  0  0
  1 20  1  0  0  0
 38 39  1  0  0  0
 38 40  2  0  0  0
  2  3  1  0  0  0
 20 21  1  0  0  0
 20 22  2  0  0  0
  3  4  2  0  0  0
  3  5  1  0  0  0
 21 24  1  0  0  0
 24 25  1  0  0  0
 25 26  1  0  0  0
 26 27  1  0  0  0
 27 28  1  0  0  0
  5  8  1  0  0  0
  8 13  1  0  0  0
  8  9  1  0  0  0
 13 14  1  0  0  0
  9 10  2  0  0  0
  9 11  1  0  0  0
 14 15  2  0  0  0
 14 19  1  0  0  0
 15 16  1  0  0  0
 16 17  2  0  0  0
 17 18  1  0  0  0
 18 19  2  0  0  0
 43 45  1  0  0  0
 39 41  1  0  0  0
  2  6  1  0  0  0
 21 23  1  0  0  0
  5  7  1  0  0  0
 11 12  1  0  0  0
M  END
> <minimizedAffinity>
-6.68827

$$$$
1G7F_INZ_A_500


 45 46  0  0  0  0  0  0  0  0999 V2000
    9.2559   19.0167    9.4468 C   0  0  0  0  0  0  0  0  0  0  0  0
    8.0583   18.9173    8.6177 N   0  0  0  0  0  0  0  0  0  0  0  0
    6.8908   19.2772    9.1518 C   0  0  0  0  0  0  0  0  0  0  0  0
    6.8477   19.9686   10.2193 O   0  0  0  0  0  0  0  0  0  0  0  0
    5.8129   18.9244    8.4534 N   0  0  0  0  0  0  0  0  0  0  0  0
    8.1113   18.5933    7.6896 H   0  0  0  0  0  0  0  0  0  0  0  0
    5.8957   18.3720    7.6427 H   0  0  0  0  0  0  0  0  0  0  0  0
    4.4937   19.3811    8.9239 C   0  0  0  0  0  0  0  0  0  0  0  0
    3.7320   18.1827    9.4882 C   0  0  0  0  0  0  0  0  0  0  0  0
    3.0686   17.5083    8.5335 O   0  0  0  0  0  0  0  0  0  0  0  0
    3.8048   17.8374   10.6304 O   0  0  0  0  0  0  0  0  0  0  0  0
    4.2845   18.3551   11.2466 H   0  0  0  0  0  0  0  0  0  0  0  0
    3.7553   20.0293    7.6927 C   0  0  0  0  0  0  0  0  0  0  0  0
    4.4026   21.3461    7.2757 C   0  0  0  0  0  0  0  0  0  0  0  0
    4.7089   21.6160    5.9341 C   0  0  0  0  0  0  0  0  0  0  0  0
    5.3023   22.8435    5.5579 C   0  0  0  0  0  0  0  0  0  0  0  0
    5.5873   23.7986    6.5316 C   0  0  0  0  0  0  0  0  0  0  0  0
    5.2894   23.5413    7.8757 C   0  0  0  0  0  0  0  0  0  0  0  0
    4.6987   22.3166    8.2482 C   0  0  0  0  0  0  0  0  0  0  0  0
   10.1943   19.9749    8.6691 C   0  0  0  0  0  0  0  0  0  0  0  0
   10.3142   19.6721    7.3638 N   0  0  0  0  0  0  0  0  0  0  0  0
   10.9564   20.7072    9.3019 O   0  0  0  0  0  0  0  0  0  0  0  0
    9.6425   19.0709    6.9682 H   0  0  0  0  0  0  0  0  0  0  0  0
   11.3699   20.1735    6.4981 C   0  0  0  0  0  0  0  0  0  0  0  0
   11.8537   19.0506    5.5537 C   0  0  0  0  0  0  0  0  0  0  0  0
   11.6379   17.6237    6.1523 C   0  0  0  0  0  0  0  0  0  0  0  0
   11.7286   16.5423    5.0498 C   0  0  0  0  0  0  0  0  0  0  0  0
   11.2113   17.1096    3.7357 C   0  0  0  0  0  0  0  0  0  0  0  0
    9.8710   17.5789    9.4833 C   0  0  0  0  0  0  0  0  0  0  0  0
   13.6220   17.2569   11.5838 C   0  0  0  0  0  0  0  0  0  0  0  0
   13.5084   16.9461   10.2165 C   0  0  0  0  0  0  0  0  0  0  0  0
   12.3071   17.0455    9.5336 C   0  0  0  0  0  0  0  0  0  0  0  0
   11.1676   17.4843   10.2393 C   0  0  0  0  0  0  0  0  0  0  0  0
   11.2638   17.8165   11.5995 C   0  0  0  0  0  0  0  0  0  0  0  0
   12.4884   17.7012   12.2940 C   0  0  0  0  0  0  0  0  0  0  0  0
   14.8635   17.0879   12.1381 O   0  0  0  0  0  0  0  0  0  0  0  0
   15.0018   17.0069   13.5908 C   0  0  0  0  0  0  0  0  0  0  0  0
   14.7707   15.5995   14.1647 C   0  0  0  0  0  0  0  0  0  0  0  0
   14.1442   14.7459   13.5579 O   0  0  0  0  0  0  0  0  0  0  0  0
   15.2741   15.3872   15.3881 O   0  0  0  0  0  0  0  0  0  0  0  0
   13.8071   14.9309   12.7035 H   0  0  0  0  0  0  0  0  0  0  0  0
   16.4846   17.3231   13.8443 C   0  0  0  0  0  0  0  0  0  0  0  0
   17.2836   16.5085   13.1687 O   0  0  0  0  0  0  0  0  0  0  0  0
   16.8119   18.2229   14.5657 O   0  0  0  0  0  0  0  0  0  0  0  0
   16.9183   15.8340   12.6305 H   0  0  0  0  0  0  0  0  0  0  0  0
 42 43  1  0  0  0
 42 44  2  0  0  0
 42 37  1  0  0  0
 30 31  2  0  0  0
 30 35  1  0  0  0
 30 36  1  0  0  0
 31 32  1  0  0  0
 32 33  2  0  0  0
 33 34  1  0  0  0
 33 29  1  0  0  0
 34 35  2  0  0  0
 37 36  1  0  0  0
 37 38  1  0  0  0
 29  1  1  0  0  0
  1  2  1  0  0  0
  1 20  1  0  0  0
 38 39  1  0  0  0
 38 40  2  0  0  0
  2  3  1  0  0  0
 20 21  1  0  0  0
 20 22  2  0  0  0
  3  4  2  0  0  0
  3  5  1  0  0  0
 21 24  1  0  0  0
 24 25  1  0  0  0
 25 26  1  0  0  0
 26 27  1  0  0  0
 27 28  1  0  0  0
  5  8  1  0  0  0
  8 13  1  0  0  0
  8  9  1  0  0  0
 13 14  1  0  0  0
  9 10  2  0  0  0
  9 11  1  0  0  0
 14 15  2  0  0  0
 14 19  1  0  0  0
 15 16  1  0  0  0
 16 17  2  0  0  0
 17 18  1  0  0  0
 18 19  2  0  0  0
 43 45  1  0  0  0
 39 41  1  0  0  0
  2  6  1  0  0  0
 21 23  1  0  0  0
  5  7  1  0  0  0
 11 12  1  0  0  0
M  END
> <minimizedAffinity>
-6.66939

$$$$
1G7F_INZ_A_500


 45 46  0  0  0  0  0  0  0  0999 V2000
   11.2192   19.7496   12.1134 C   0  0  0  0  0  0  0  0  0  0  0  0
   12.0087   18.7350   12.8054 N   0  0  0  0  0  0  0  0  0  0  0  0
   13.3059   18.6383   12.5126 C   0  0  0  0  0  0  0  0  0  0  0  0
   13.9073   19.5768   11.8985 O   0  0  0  0  0  0  0  0  0  0  0  0
   13.9121   17.5436   12.9689 N   0  0  0  0  0  0  0  0  0  0  0  0
   11.5946   18.1385   13.4701 H   0  0  0  0  0  0  0  0  0  0  0  0
   13.4000   16.8354   13.4221 H   0  0  0  0  0  0  0  0  0  0  0  0
   15.3676   17.4187   12.7789 C   0  0  0  0  0  0  0  0  0  0  0  0
   15.6926   15.9707   12.4151 C   0  0  0  0  0  0  0  0  0  0  0  0
   16.5266   15.4002   13.3012 O   0  0  0  0  0  0  0  0  0  0  0  0
   15.1814   15.3928   11.5019 O   0  0  0  0  0  0  0  0  0  0  0  0
   14.6083   15.8512   10.9194 H   0  0  0  0  0  0  0  0  0  0  0  0
   16.0560   17.8631   14.1242 C   0  0  0  0  0  0  0  0  0  0  0  0
   17.1384   18.9111   13.8849 C   0  0  0  0  0  0  0  0  0  0  0  0
   18.1307   19.1668   14.8422 C   0  0  0  0  0  0  0  0  0  0  0  0
   19.1340   20.1357   14.6066 C   0  0  0  0  0  0  0  0  0  0  0  0
   19.1379   20.8467   13.4083 C   0  0  0  0  0  0  0  0  0  0  0  0
   18.1512   20.6035   12.4444 C   0  0  0  0  0  0  0  0  0  0  0  0
   17.1519   19.6379   12.6821 C   0  0  0  0  0  0  0  0  0  0  0  0
   10.5143   20.5397   13.2459 C   0  0  0  0  0  0  0  0  0  0  0  0
   11.0949   21.7212   13.5225 N   0  0  0  0  0  0  0  0  0  0  0  0
    9.7181   19.9502   13.9780 O   0  0  0  0  0  0  0  0  0  0  0  0
   11.7192   22.0930   12.8582 H   0  0  0  0  0  0  0  0  0  0  0  0
   10.8620   22.4863   14.7374 C   0  0  0  0  0  0  0  0  0  0  0  0
   12.1965   22.7076   15.4838 C   0  0  0  0  0  0  0  0  0  0  0  0
   12.8882   21.3681   15.8938 C   0  0  0  0  0  0  0  0  0  0  0  0
   14.2381   21.1954   15.1584 C   0  0  0  0  0  0  0  0  0  0  0  0
   15.3832   21.4072   16.1383 C   0  0  0  0  0  0  0  0  0  0  0  0
   10.1607   18.9654   11.2698 C   0  0  0  0  0  0  0  0  0  0  0  0
   11.6694   17.3987    7.5476 C   0  0  0  0  0  0  0  0  0  0  0  0
   11.2768   18.7429    7.6819 C   0  0  0  0  0  0  0  0  0  0  0  0
   10.7898   19.2547    8.8735 C   0  0  0  0  0  0  0  0  0  0  0  0
   10.6985   18.3940    9.9869 C   0  0  0  0  0  0  0  0  0  0  0  0
   11.1020   17.0540    9.8786 C   0  0  0  0  0  0  0  0  0  0  0  0
   11.5859   16.5341    8.6576 C   0  0  0  0  0  0  0  0  0  0  0  0
   12.1065   17.0208    6.3053 O   0  0  0  0  0  0  0  0  0  0  0  0
   11.8444   17.8819    5.1539 C   0  0  0  0  0  0  0  0  0  0  0  0
   13.1044   18.5279    4.5549 C   0  0  0  0  0  0  0  0  0  0  0  0
   13.3198   19.7264    4.6346 O   0  0  0  0  0  0  0  0  0  0  0  0
   13.9295   17.6910    3.9114 O   0  0  0  0  0  0  0  0  0  0  0  0
   12.7195   20.2808    5.0932 H   0  0  0  0  0  0  0  0  0  0  0  0
   11.3170   16.9188    4.0780 C   0  0  0  0  0  0  0  0  0  0  0  0
   11.6971   15.6694    4.3076 O   0  0  0  0  0  0  0  0  0  0  0  0
   10.6351   17.3128    3.1741 O   0  0  0  0  0  0  0  0  0  0  0  0
   12.2342   15.4719    5.0496 H   0  0  0  0  0  0  0  0  0  0  0  0
 42 43  1  0  0  0
 42 44  2  0  0  0
 42 37  1  0  0  0
 30 31  2  0  0  0
 30 35  1  0  0  0
 30 36  1  0  0  0
 31 32  1  0  0  0
 32 33  2  0  0  0
 33 34  1  0  0  0
 33 29  1  0  0  0
 34 35  2  0  0  0
 37 36  1  0  0  0
 37 38  1  0  0  0
 29  1  1  0  0  0
  1  2  1  0  0  0
  1 20  1  0  0  0
 38 39  1  0  0  0
 38 40  2  0  0  0
  2  3  1  0  0  0
 20 21  1  0  0  0
 20 22  2  0  0  0
  3  4  2  0  0  0
  3  5  1  0  0  0
 21 24  1  0  0  0
 24 25  1  0  0  0
 25 26  1  0  0  0
 26 27  1  0  0  0
 27 28  1  0  0  0
  5  8  1  0  0  0
  8 13  1  0  0  0
  8  9  1  0  0  0
 13 14  1  0  0  0
  9 10  2  0  0  0
  9 11  1  0  0  0
 14 15  2  0  0  0
 14 19  1  0  0  0
 15 16  1  0  0  0
 16 17  2  0  0  0
 17 18  1  0  0  0
 18 19  2  0  0  0
 43 45  1  0  0  0
 39 41  1  0  0  0
  2  6  1  0  0  0
 21 23  1  0  0  0
  5  7  1  0  0  0
 11 12  1  0  0  0
M  END
> <minimizedAffinity>
-6.64900

$$$$
1G7F_INZ_A_500


 45 46  0  0  0  0  0  0  0  0999 V2000
   11.4447   21.3869   11.6615 C   0  0  0  0  0  0  0  0  0  0  0  0
   12.2341   20.2894   12.2129 N   0  0  0  0  0  0  0  0  0  0  0  0
   12.1157   20.0196   13.5133 C   0  0  0  0  0  0  0  0  0  0  0  0
   11.1389   20.4781   14.1879 O   0  0  0  0  0  0  0  0  0  0  0  0
   13.0374   19.1961   14.0096 N   0  0  0  0  0  0  0  0  0  0  0  0
   12.8373   19.7629   11.6401 H   0  0  0  0  0  0  0  0  0  0  0  0
   13.7862   18.8827   13.4525 H   0  0  0  0  0  0  0  0  0  0  0  0
   12.9088   18.7657   15.4127 C   0  0  0  0  0  0  0  0  0  0  0  0
   13.4487   19.8727   16.3170 C   0  0  0  0  0  0  0  0  0  0  0  0
   14.7822   19.7991   16.4676 O   0  0  0  0  0  0  0  0  0  0  0  0
   12.7687   20.7536   16.7536 O   0  0  0  0  0  0  0  0  0  0  0  0
   11.8424   20.7444   16.6123 H   0  0  0  0  0  0  0  0  0  0  0  0
   13.7181   17.4232   15.5674 C   0  0  0  0  0  0  0  0  0  0  0  0
   14.4283   17.0399   14.2729 C   0  0  0  0  0  0  0  0  0  0  0  0
   13.9878   15.9628   13.4904 C   0  0  0  0  0  0  0  0  0  0  0  0
   14.6495   15.6210   12.2879 C   0  0  0  0  0  0  0  0  0  0  0  0
   15.7539   16.3628   11.8737 C   0  0  0  0  0  0  0  0  0  0  0  0
   16.2064   17.4394   12.6469 C   0  0  0  0  0  0  0  0  0  0  0  0
   15.5456   17.7775   13.8455 C   0  0  0  0  0  0  0  0  0  0  0  0
   11.1455   20.9613   10.2011 C   0  0  0  0  0  0  0  0  0  0  0  0
    9.9584   20.3466   10.0499 N   0  0  0  0  0  0  0  0  0  0  0  0
   12.0695   20.9329    9.3870 O   0  0  0  0  0  0  0  0  0  0  0  0
    9.2974   20.4399   10.7735 H   0  0  0  0  0  0  0  0  0  0  0  0
    9.5863   19.5534    8.8890 C   0  0  0  0  0  0  0  0  0  0  0  0
    9.2230   18.1172    9.3275 C   0  0  0  0  0  0  0  0  0  0  0  0
   10.3250   17.4617   10.2202 C   0  0  0  0  0  0  0  0  0  0  0  0
   11.5106   16.9653    9.3594 C   0  0  0  0  0  0  0  0  0  0  0  0
   12.8081   17.5597    9.8880 C   0  0  0  0  0  0  0  0  0  0  0  0
   12.3850   22.6370   11.6721 C   0  0  0  0  0  0  0  0  0  0  0  0
   16.0967   21.9880   13.7668 C   0  0  0  0  0  0  0  0  0  0  0  0
   15.9106   21.5639   12.4384 C   0  0  0  0  0  0  0  0  0  0  0  0
   14.7212   21.7670   11.7579 C   0  0  0  0  0  0  0  0  0  0  0  0
   13.6710   22.4320   12.4242 C   0  0  0  0  0  0  0  0  0  0  0  0
   13.8428   22.8789   13.7436 C   0  0  0  0  0  0  0  0  0  0  0  0
   15.0533   22.6578   14.4371 C   0  0  0  0  0  0  0  0  0  0  0  0
   17.3133   21.6978   14.3261 O   0  0  0  0  0  0  0  0  0  0  0  0
   18.1017   20.5835   13.8039 C   0  0  0  0  0  0  0  0  0  0  0  0
   19.5226   20.9729   13.3645 C   0  0  0  0  0  0  0  0  0  0  0  0
   20.4627   20.1993   13.4481 O   0  0  0  0  0  0  0  0  0  0  0  0
   19.6628   22.2281   12.9172 O   0  0  0  0  0  0  0  0  0  0  0  0
   20.3261   19.3285   13.7658 H   0  0  0  0  0  0  0  0  0  0  0  0
   18.2794   19.6510   15.0131 C   0  0  0  0  0  0  0  0  0  0  0  0
   17.8254   20.2025   16.1302 O   0  0  0  0  0  0  0  0  0  0  0  0
   18.7634   18.5612   14.8895 O   0  0  0  0  0  0  0  0  0  0  0  0
   17.4643   21.0670   16.1128 H   0  0  0  0  0  0  0  0  0  0  0  0
 42 43  1  0  0  0
 42 44  2  0  0  0
 42 37  1  0  0  0
 30 31  2  0  0  0
 30 35  1  0  0  0
 30 36  1  0  0  0
 31 32  1  0  0  0
 32 33  2  0  0  0
 33 34  1  0  0  0
 33 29  1  0  0  0
 34 35  2  0  0  0
 37 36  1  0  0  0
 37 38  1  0  0  0
 29  1  1  0  0  0
  1  2  1  0  0  0
  1 20  1  0  0  0
 38 39  1  0  0  0
 38 40  2  0  0  0
  2  3  1  0  0  0
 20 21  1  0  0  0
 20 22  2  0  0  0
  3  4  2  0  0  0
  3  5  1  0  0  0
 21 24  1  0  0  0
 24 25  1  0  0  0
 25 26  1  0  0  0
 26 27  1  0  0  0
 27 28  1  0  0  0
  5  8  1  0  0  0
  8 13  1  0  0  0
  8  9  1  0  0  0
 13 14  1  0  0  0
  9 10  2  0  0  0
  9 11  1  0  0  0
 14 15  2  0  0  0
 14 19  1  0  0  0
 15 16  1  0  0  0
 16 17  2  0  0  0
 17 18  1  0  0  0
 18 19  2  0  0  0
 43 45  1  0  0  0
 39 41  1  0  0  0
  2  6  1  0  0  0
 21 23  1  0  0  0
  5  7  1  0  0  0
 11 12  1  0  0  0
M  END
> <minimizedAffinity>
-6.51635

$$$$
1G7F_INZ_A_500


 45 46  0  0  0  0  0  0  0  0999 V2000
   11.2507   20.2551   12.8163 C   0  0  0  0  0  0  0  0  0  0  0  0
   11.9849   19.1744   13.4679 N   0  0  0  0  0  0  0  0  0  0  0  0
   13.0965   18.7262   12.8836 C   0  0  0  0  0  0  0  0  0  0  0  0
   13.6722   19.4028   11.9723 O   0  0  0  0  0  0  0  0  0  0  0  0
   13.5751   17.5835   13.3725 N   0  0  0  0  0  0  0  0  0  0  0  0
   11.6678   18.7870   14.3156 H   0  0  0  0  0  0  0  0  0  0  0  0
   13.0831   17.0858   14.0650 H   0  0  0  0  0  0  0  0  0  0  0  0
   14.8588   17.0825   12.8515 C   0  0  0  0  0  0  0  0  0  0  0  0
   14.6938   15.6117   12.4714 C   0  0  0  0  0  0  0  0  0  0  0  0
   14.0846   14.9036   13.4377 O   0  0  0  0  0  0  0  0  0  0  0  0
   14.9867   15.1743   11.3982 O   0  0  0  0  0  0  0  0  0  0  0  0
   15.4112   15.7232   10.7685 H   0  0  0  0  0  0  0  0  0  0  0  0
   15.9360   17.2876   13.9824 C   0  0  0  0  0  0  0  0  0  0  0  0
   16.8474   18.4742   13.6851 C   0  0  0  0  0  0  0  0  0  0  0  0
   17.7290   18.9775   14.6527 C   0  0  0  0  0  0  0  0  0  0  0  0
   18.5749   20.0736   14.3636 C   0  0  0  0  0  0  0  0  0  0  0  0
   18.5332   20.6627   13.1016 C   0  0  0  0  0  0  0  0  0  0  0  0
   17.6555   20.1721   12.1265 C   0  0  0  0  0  0  0  0  0  0  0  0
   16.8128   19.0800   12.4175 C   0  0  0  0  0  0  0  0  0  0  0  0
   11.6094   21.5229   13.6334 C   0  0  0  0  0  0  0  0  0  0  0  0
   12.7748   22.0881   13.2700 N   0  0  0  0  0  0  0  0  0  0  0  0
   11.0118   21.7414   14.6882 O   0  0  0  0  0  0  0  0  0  0  0  0
   13.1586   21.8310   12.4006 H   0  0  0  0  0  0  0  0  0  0  0  0
   13.5058   23.0535   14.0757 C   0  0  0  0  0  0  0  0  0  0  0  0
   14.9347   22.5344   14.3510 C   0  0  0  0  0  0  0  0  0  0  0  0
   15.0856   21.9082   15.7744 C   0  0  0  0  0  0  0  0  0  0  0  0
   14.6184   20.4335   15.7818 C   0  0  0  0  0  0  0  0  0  0  0  0
   13.4306   20.2799   16.7208 C   0  0  0  0  0  0  0  0  0  0  0  0
    9.7353   19.9127   12.9984 C   0  0  0  0  0  0  0  0  0  0  0  0
    7.4756   19.5959    9.3406 C   0  0  0  0  0  0  0  0  0  0  0  0
    6.9977   20.3208   10.4474 C   0  0  0  0  0  0  0  0  0  0  0  0
    7.7162   20.4271   11.6271 C   0  0  0  0  0  0  0  0  0  0  0  0
    8.9731   19.7926   11.7075 C   0  0  0  0  0  0  0  0  0  0  0  0
    9.4758   19.0794   10.6082 C   0  0  0  0  0  0  0  0  0  0  0  0
    8.7333   18.9636    9.4121 C   0  0  0  0  0  0  0  0  0  0  0  0
    6.6495   19.5512    8.2485 O   0  0  0  0  0  0  0  0  0  0  0  0
    5.2085   19.7199    8.4246 C   0  0  0  0  0  0  0  0  0  0  0  0
    4.5098   20.4125    7.2432 C   0  0  0  0  0  0  0  0  0  0  0  0
    5.0239   20.4886    6.1391 O   0  0  0  0  0  0  0  0  0  0  0  0
    3.3160   20.9551    7.5187 O   0  0  0  0  0  0  0  0  0  0  0  0
    5.8606   20.0964    5.9839 H   0  0  0  0  0  0  0  0  0  0  0  0
    4.6631   18.2829    8.4483 C   0  0  0  0  0  0  0  0  0  0  0  0
    4.2706   17.9259    9.6635 O   0  0  0  0  0  0  0  0  0  0  0  0
    4.6114   17.6231    7.4487 O   0  0  0  0  0  0  0  0  0  0  0  0
    4.3575   18.5249   10.3788 H   0  0  0  0  0  0  0  0  0  0  0  0
 42 43  1  0  0  0
 42 44  2  0  0  0
 42 37  1  0  0  0
 30 31  2  0  0  0
 30 35  1  0  0  0
 30 36  1  0  0  0
 31 32  1  0  0  0
 32 33  2  0  0  0
 33 34  1  0  0  0
 33 29  1  0  0  0
 34 35  2  0  0  0
 37 36  1  0  0  0
 37 38  1  0  0  0
 29  1  1  0  0  0
  1  2  1  0  0  0
  1 20  1  0  0  0
 38 39  1  0  0  0
 38 40  2  0  0  0
  2  3  1  0  0  0
 20 21  1  0  0  0
 20 22  2  0  0  0
  3  4  2  0  0  0
  3  5  1  0  0  0
 21 24  1  0  0  0
 24 25  1  0  0  0
 25 26  1  0  0  0
 26 27  1  0  0  0
 27 28  1  0  0  0
  5  8  1  0  0  0
  8 13  1  0  0  0
  8  9  1  0  0  0
 13 14  1  0  0  0
  9 10  2  0  0  0
  9 11  1  0  0  0
 14 15  2  0  0  0
 14 19  1  0  0  0
 15 16  1  0  0  0
 16 17  2  0  0  0
 17 18  1  0  0  0
 18 19  2  0  0  0
 43 45  1  0  0  0
 39 41  1  0  0  0
  2  6  1  0  0  0
 21 23  1  0  0  0
  5  7  1  0  0  0
 11 12  1  0  0  0
M  END
> <minimizedAffinity>
-6.38468

$$$$
1G7F_INZ_A_500


 45 46  0  0  0  0  0  0  0  0999 V2000
    9.3806   19.8219   12.1049 C   0  0  0  0  0  0  0  0  0  0  0  0
   10.6707   20.3310   12.5612 N   0  0  0  0  0  0  0  0  0  0  0  0
   11.3456   19.6184   13.4638 C   0  0  0  0  0  0  0  0  0  0  0  0
   11.0451   18.4030   13.6920 O   0  0  0  0  0  0  0  0  0  0  0  0
   12.3733   20.2469   14.0319 N   0  0  0  0  0  0  0  0  0  0  0  0
   11.0325   21.1774   12.2120 H   0  0  0  0  0  0  0  0  0  0  0  0
   12.5547   21.1948   13.8376 H   0  0  0  0  0  0  0  0  0  0  0  0
   13.2320   19.4887   14.9583 C   0  0  0  0  0  0  0  0  0  0  0  0
   13.1861   20.1595   16.3304 C   0  0  0  0  0  0  0  0  0  0  0  0
   12.4381   21.2761   16.3241 O   0  0  0  0  0  0  0  0  0  0  0  0
   13.6800   19.6846   17.3100 O   0  0  0  0  0  0  0  0  0  0  0  0
   14.1915   18.9023   17.2445 H   0  0  0  0  0  0  0  0  0  0  0  0
   14.6846   19.4785   14.3492 C   0  0  0  0  0  0  0  0  0  0  0  0
   15.0836   18.0881   13.8646 C   0  0  0  0  0  0  0  0  0  0  0  0
   14.3641   16.9473   14.2484 C   0  0  0  0  0  0  0  0  0  0  0  0
   14.7386   15.6638   13.7869 C   0  0  0  0  0  0  0  0  0  0  0  0
   15.8367   15.5289   12.9398 C   0  0  0  0  0  0  0  0  0  0  0  0
   16.5661   16.6595   12.5507 C   0  0  0  0  0  0  0  0  0  0  0  0
   16.1913   17.9376   13.0128 C   0  0  0  0  0  0  0  0  0  0  0  0
    9.5365   19.6749   10.5695 C   0  0  0  0  0  0  0  0  0  0  0  0
    9.6718   18.4008   10.1597 N   0  0  0  0  0  0  0  0  0  0  0  0
    9.8176   20.6704    9.9006 O   0  0  0  0  0  0  0  0  0  0  0  0
    9.4159   17.6868   10.7873 H   0  0  0  0  0  0  0  0  0  0  0  0
   10.1710   18.0074    8.8514 C   0  0  0  0  0  0  0  0  0  0  0  0
   11.7043   18.1888    8.7970 C   0  0  0  0  0  0  0  0  0  0  0  0
   12.4780   16.9684    9.3910 C   0  0  0  0  0  0  0  0  0  0  0  0
   13.2451   17.3710   10.6726 C   0  0  0  0  0  0  0  0  0  0  0  0
   13.4157   18.8829   10.7107 C   0  0  0  0  0  0  0  0  0  0  0  0
    8.3393   20.9425   12.4317 C   0  0  0  0  0  0  0  0  0  0  0  0
    5.0933   19.5853   14.9231 C   0  0  0  0  0  0  0  0  0  0  0  0
    6.4134   19.6650   15.4028 C   0  0  0  0  0  0  0  0  0  0  0  0
    7.4628   20.0987   14.6092 C   0  0  0  0  0  0  0  0  0  0  0  0
    7.1865   20.4814   13.2802 C   0  0  0  0  0  0  0  0  0  0  0  0
    5.8733   20.4263   12.7880 C   0  0  0  0  0  0  0  0  0  0  0  0
    4.8090   19.9711   13.5976 C   0  0  0  0  0  0  0  0  0  0  0  0
    4.1593   19.1136   15.8076 O   0  0  0  0  0  0  0  0  0  0  0  0
    4.5954   18.4287   17.0228 C   0  0  0  0  0  0  0  0  0  0  0  0
    4.0702   19.0618   18.3216 C   0  0  0  0  0  0  0  0  0  0  0  0
    4.8053   19.6412   19.1047 O   0  0  0  0  0  0  0  0  0  0  0  0
    2.7595   18.9035   18.5498 O   0  0  0  0  0  0  0  0  0  0  0  0
    5.7175   19.7326   18.9109 H   0  0  0  0  0  0  0  0  0  0  0  0
    3.9296   17.0460   16.9332 C   0  0  0  0  0  0  0  0  0  0  0  0
    4.1875   16.3059   18.0027 O   0  0  0  0  0  0  0  0  0  0  0  0
    3.2569   16.7421   15.9885 O   0  0  0  0  0  0  0  0  0  0  0  0
    4.7301   16.6449   18.6873 H   0  0  0  0  0  0  0  0  0  0  0  0
 42 43  1  0  0  0
 42 44  2  0  0  0
 42 37  1  0  0  0
 30 31  2  0  0  0
 30 35  1  0  0  0
 30 36  1  0  0  0
 31 32  1  0  0  0
 32 33  2  0  0  0
 33 34  1  0  0  0
 33 29  1  0  0  0
 34 35  2  0  0  0
 37 36  1  0  0  0
 37 38  1  0  0  0
 29  1  1  0  0  0
  1  2  1  0  0  0
  1 20  1  0  0  0
 38 39  1  0  0  0
 38 40  2  0  0  0
  2  3  1  0  0  0
 20 21  1  0  0  0
 20 22  2  0  0  0
  3  4  2  0  0  0
  3  5  1  0  0  0
 21 24  1  0  0  0
 24 25  1  0  0  0
 25 26  1  0  0  0
 26 27  1  0  0  0
 27 28  1  0  0  0
  5  8  1  0  0  0
  8 13  1  0  0  0
  8  9  1  0  0  0
 13 14  1  0  0  0
  9 10  2  0  0  0
  9 11  1  0  0  0
 14 15  2  0  0  0
 14 19  1  0  0  0
 15 16  1  0  0  0
 16 17  2  0  0  0
 17 18  1  0  0  0
 18 19  2  0  0  0
 43 45  1  0  0  0
 39 41  1  0  0  0
  2  6  1  0  0  0
 21 23  1  0  0  0
  5  7  1  0  0  0
 11 12  1  0  0  0
M  END
> <minimizedAffinity>
-6.26795

$$$$
