1BXO_PP7_A_324


 49 50  0  0  0  0  0  0  0  0999 V2000
   20.1879    8.3622   21.6198 C   0  0  0  0  0  0  0  0  0  0  0  0
   19.3620    8.0336   22.8511 C   0  0  0  0  0  0  0  0  0  0  0  0
   19.1154    9.1151   23.8704 C   0  0  0  0  0  0  0  0  0  0  0  0
   18.9109    8.7965   25.0692 O   0  0  0  0  0  0  0  0  0  0  0  0
   19.0282   10.3544   23.4872 N   0  0  0  0  0  0  0  0  0  0  0  0
   18.5597   11.4533   24.3431 C   0  0  0  0  0  0  0  0  0  0  0  0
   21.6091    8.7617   21.9613 C   0  0  0  0  0  0  0  0  0  0  0  0
   22.1670    8.3656   23.0085 O   0  0  0  0  0  0  0  0  0  0  0  0
   22.2534    9.5352   21.0644 N   0  0  0  0  0  0  0  0  0  0  0  0
   23.6666    9.8936   21.1268 C   0  0  0  0  0  0  0  0  0  0  0  0
   23.8237   11.6915   21.3416 P   0  0  0  0  0  0  0  0  0  0  0  0
   22.9202   12.3528   20.3277 O   0  0  0  0  0  0  0  0  0  0  0  0
   25.2783   12.0910   21.3084 O   0  0  0  0  0  0  0  0  0  0  0  0
   23.3577   11.9365   22.8411 O   0  0  0  0  0  0  0  0  0  0  0  0
   23.9172   12.9661   23.6832 C   0  0  0  0  0  0  0  0  0  0  0  0
   22.8398   14.0553   23.9460 C   0  0  0  0  0  0  0  0  0  0  0  0
   21.6938   13.6013   24.7659 C   0  0  0  0  0  0  0  0  0  0  0  0
   21.5103   14.0290   26.0992 C   0  0  0  0  0  0  0  0  0  0  0  0
   20.7147   12.7477   24.2461 C   0  0  0  0  0  0  0  0  0  0  0  0
   20.4272   13.5925   26.8464 C   0  0  0  0  0  0  0  0  0  0  0  0
   19.5086   12.6931   26.3195 C   0  0  0  0  0  0  0  0  0  0  0  0
   19.6398   12.2956   24.9735 C   0  0  0  0  0  0  0  0  0  0  0  0
   19.2931   10.5707   22.5640 H   0  0  0  0  0  0  0  0  0  0  0  0
   21.7294    9.8856   20.3082 H   0  0  0  0  0  0  0  0  0  0  0  0
   23.2501   12.1713   19.4337 H   0  0  0  0  0  0  0  0  0  0  0  0
   19.3620    7.0141   19.7291 C   0  0  0  0  0  0  0  0  0  0  0  0
   18.5206    7.8525   19.3888 O   0  0  0  0  0  0  0  0  0  0  0  0
   20.2396    7.1941   20.7163 N   0  0  0  0  0  0  0  0  0  0  0  0
   20.9485    6.5238   20.8482 H   0  0  0  0  0  0  0  0  0  0  0  0
   19.5285    5.6678   18.9814 C   0  0  0  0  0  0  0  0  0  0  0  0
   18.2825    5.3393   18.2927 N   0  0  0  0  0  0  0  0  0  0  0  0
   17.4132    4.4279   18.6838 C   0  0  0  0  0  0  0  0  0  0  0  0
   17.6243    3.7230   19.7185 O   0  0  0  0  0  0  0  0  0  0  0  0
   18.0750    5.8387   17.4700 H   0  0  0  0  0  0  0  0  0  0  0  0
   16.2091    4.1602   17.8140 C   0  0  0  0  0  0  0  0  0  0  0  0
   14.9111    4.4828   18.4993 C   0  0  0  0  0  0  0  0  0  0  0  0
   14.9875    5.6879   19.3019 C   0  0  0  0  0  0  0  0  0  0  0  0
   13.7696    4.5138   17.4306 C   0  0  0  0  0  0  0  0  0  0  0  0
   20.7419    5.6325   18.0602 C   0  0  0  0  0  0  0  0  0  0  0  0
   21.0241    4.2504   17.5497 C   0  0  0  0  0  0  0  0  0  0  0  0
   20.6312    6.6621   16.9508 C   0  0  0  0  0  0  0  0  0  0  0  0
   24.3908   12.3455   24.9898 C   0  0  0  0  0  0  0  0  0  0  0  0
   24.2200   11.2066   25.3007 O   0  0  0  0  0  0  0  0  0  0  0  0
   26.3760   13.5974   25.4544 C   0  0  0  0  0  0  0  0  0  0  0  0
   24.9885   13.2431   25.7251 O   0  0  0  0  0  0  0  0  0  0  0  0
   24.4295    9.3962   19.8828 C   0  0  0  0  0  0  0  0  0  0  0  0
   24.0317    8.0210   19.3419 C   0  0  0  0  0  0  0  0  0  0  0  0
   24.4734    7.8308   17.9104 C   0  0  0  0  0  0  0  0  0  0  0  0
   24.5570    6.8910   20.2465 C   0  0  0  0  0  0  0  0  0  0  0  0
 31 30  1  0  0  0
 31 32  1  0  0  0
 35 36  1  0  0  0
 35 32  1  0  0  0
 30 39  1  0  0  0
 30 26  1  0  0  0
 36 37  1  0  0  0
 36 38  1  0  0  0
 39 40  1  0  0  0
 39 41  1  0  0  0
 32 33  2  0  0  0
 26 27  2  0  0  0
 26 28  1  0  0  0
 28  1  1  0  0  0
  1  2  1  0  0  0
  1  7  1  0  0  0
  2  3  1  0  0  0
  3  4  2  0  0  0
  3  5  1  0  0  0
  5  6  1  0  0  0
  6 22  1  0  0  0
  7  8  2  0  0  0
  7  9  1  0  0  0
  9 10  1  0  0  0
 10 46  1  0  0  0
 10 11  1  0  0  0
 46 47  1  0  0  0
 47 48  1  0  0  0
 47 49  1  0  0  0
 11 12  1  0  0  0
 11 13  2  0  0  0
 11 14  1  0  0  0
 14 15  1  0  0  0
 15 16  1  0  0  0
 15 42  1  0  0  0
 16 17  1  0  0  0
 44 45  1  0  0  0
 17 18  2  0  0  0
 17 19  1  0  0  0
 18 20  1  0  0  0
 19 22  2  0  0  0
 20 21  2  0  0  0
 21 22  1  0  0  0
 42 45  1  0  0  0
 42 43  2  0  0  0
 31 34  1  0  0  0
 28 29  1  0  0  0
  5 23  1  0  0  0
  9 24  1  0  0  0
 12 25  1  0  0  0
M  END
> <minimizedAffinity>
-12.71493

$$$$
1BXO_PP7_A_324


 49 50  0  0  0  0  0  0  0  0999 V2000
   19.6601    8.3005   22.2144 C   0  0  0  0  0  0  0  0  0  0  0  0
   19.0028    8.1361   23.5736 C   0  0  0  0  0  0  0  0  0  0  0  0
   18.9567    9.3184   24.5061 C   0  0  0  0  0  0  0  0  0  0  0  0
   18.9097    9.1225   25.7470 O   0  0  0  0  0  0  0  0  0  0  0  0
   18.8763   10.5211   24.0188 N   0  0  0  0  0  0  0  0  0  0  0  0
   18.5885   11.7196   24.8190 C   0  0  0  0  0  0  0  0  0  0  0  0
   21.1332    8.6404   22.3170 C   0  0  0  0  0  0  0  0  0  0  0  0
   21.8145    8.3066   23.3116 O   0  0  0  0  0  0  0  0  0  0  0  0
   21.6801    9.2884   21.2688 N   0  0  0  0  0  0  0  0  0  0  0  0
   23.1036    9.5628   21.1015 C   0  0  0  0  0  0  0  0  0  0  0  0
   23.3770   11.3595   21.1155 P   0  0  0  0  0  0  0  0  0  0  0  0
   22.3716   11.9813   20.1751 O   0  0  0  0  0  0  0  0  0  0  0  0
   24.8297   11.6635   20.8442 O   0  0  0  0  0  0  0  0  0  0  0  0
   23.1416   11.7672   22.6334 O   0  0  0  0  0  0  0  0  0  0  0  0
   23.8647   12.8320   23.2858 C   0  0  0  0  0  0  0  0  0  0  0  0
   22.8901   14.0051   23.5858 C   0  0  0  0  0  0  0  0  0  0  0  0
   21.8517   13.6987   24.5956 C   0  0  0  0  0  0  0  0  0  0  0  0
   21.8809   14.2555   25.8931 C   0  0  0  0  0  0  0  0  0  0  0  0
   20.7682   12.8640   24.3011 C   0  0  0  0  0  0  0  0  0  0  0  0
   20.8952   13.9562   26.8209 C   0  0  0  0  0  0  0  0  0  0  0  0
   19.8682   13.0715   26.5156 C   0  0  0  0  0  0  0  0  0  0  0  0
   19.7871   12.5469   25.2097 C   0  0  0  0  0  0  0  0  0  0  0  0
   19.0174   10.6363   23.0513 H   0  0  0  0  0  0  0  0  0  0  0  0
   21.0715    9.6010   20.5609 H   0  0  0  0  0  0  0  0  0  0  0  0
   22.5617   11.6999   19.2665 H   0  0  0  0  0  0  0  0  0  0  0  0
   18.6399    6.9227   20.4438 C   0  0  0  0  0  0  0  0  0  0  0  0
   17.9528    7.8493   20.0012 O   0  0  0  0  0  0  0  0  0  0  0  0
   19.5257    7.0547   21.4312 N   0  0  0  0  0  0  0  0  0  0  0  0
   20.1122    6.2939   21.6467 H   0  0  0  0  0  0  0  0  0  0  0  0
   18.5876    5.4989   19.8361 C   0  0  0  0  0  0  0  0  0  0  0  0
   18.4778    4.5169   20.9124 N   0  0  0  0  0  0  0  0  0  0  0  0
   19.0231    3.3161   20.9067 C   0  0  0  0  0  0  0  0  0  0  0  0
   19.6882    2.9037   19.9069 O   0  0  0  0  0  0  0  0  0  0  0  0
   17.9544    4.7722   21.7062 H   0  0  0  0  0  0  0  0  0  0  0  0
   18.7490    2.3946   22.0702 C   0  0  0  0  0  0  0  0  0  0  0  0
   17.2824    2.1455   22.2842 C   0  0  0  0  0  0  0  0  0  0  0  0
   16.6624    1.4639   21.1647 C   0  0  0  0  0  0  0  0  0  0  0  0
   17.0892    1.4090   23.6503 C   0  0  0  0  0  0  0  0  0  0  0  0
   17.5100    5.3340   18.7713 C   0  0  0  0  0  0  0  0  0  0  0  0
   17.9383    4.4069   17.6724 C   0  0  0  0  0  0  0  0  0  0  0  0
   16.1748    4.9506   19.3824 C   0  0  0  0  0  0  0  0  0  0  0  0
   24.4887   12.3036   24.5697 C   0  0  0  0  0  0  0  0  0  0  0  0
   24.2814   11.2227   25.0295 O   0  0  0  0  0  0  0  0  0  0  0  0
   25.6118   13.1292   26.5141 C   0  0  0  0  0  0  0  0  0  0  0  0
   25.2624   13.2103   25.1016 O   0  0  0  0  0  0  0  0  0  0  0  0
   23.6565    8.9089   19.8195 C   0  0  0  0  0  0  0  0  0  0  0  0
   24.7568    7.8617   20.0064 C   0  0  0  0  0  0  0  0  0  0  0  0
   24.2177    6.5782   20.5916 C   0  0  0  0  0  0  0  0  0  0  0  0
   25.5133    7.6044   18.6901 C   0  0  0  0  0  0  0  0  0  0  0  0
 31 30  1  0  0  0
 31 32  1  0  0  0
 35 36  1  0  0  0
 35 32  1  0  0  0
 30 39  1  0  0  0
 30 26  1  0  0  0
 36 37  1  0  0  0
 36 38  1  0  0  0
 39 40  1  0  0  0
 39 41  1  0  0  0
 32 33  2  0  0  0
 26 27  2  0  0  0
 26 28  1  0  0  0
 28  1  1  0  0  0
  1  2  1  0  0  0
  1  7  1  0  0  0
  2  3  1  0  0  0
  3  4  2  0  0  0
  3  5  1  0  0  0
  5  6  1  0  0  0
  6 22  1  0  0  0
  7  8  2  0  0  0
  7  9  1  0  0  0
  9 10  1  0  0  0
 10 46  1  0  0  0
 10 11  1  0  0  0
 46 47  1  0  0  0
 47 48  1  0  0  0
 47 49  1  0  0  0
 11 12  1  0  0  0
 11 13  2  0  0  0
 11 14  1  0  0  0
 14 15  1  0  0  0
 15 16  1  0  0  0
 15 42  1  0  0  0
 16 17  1  0  0  0
 44 45  1  0  0  0
 17 18  2  0  0  0
 17 19  1  0  0  0
 18 20  1  0  0  0
 19 22  2  0  0  0
 20 21  2  0  0  0
 21 22  1  0  0  0
 42 45  1  0  0  0
 42 43  2  0  0  0
 31 34  1  0  0  0
 28 29  1  0  0  0
  5 23  1  0  0  0
  9 24  1  0  0  0
 12 25  1  0  0  0
M  END
> <minimizedAffinity>
-10.46956

$$$$
1BXO_PP7_A_324


 49 50  0  0  0  0  0  0  0  0999 V2000
   19.1330    7.8804   21.4341 C   0  0  0  0  0  0  0  0  0  0  0  0
   17.8743    8.6430   21.8091 C   0  0  0  0  0  0  0  0  0  0  0  0
   16.6042    7.8717   22.0571 C   0  0  0  0  0  0  0  0  0  0  0  0
   15.4957    8.4319   21.8630 O   0  0  0  0  0  0  0  0  0  0  0  0
   16.6654    6.6709   22.5518 N   0  0  0  0  0  0  0  0  0  0  0  0
   15.5037    5.9231   23.0527 C   0  0  0  0  0  0  0  0  0  0  0  0
   18.9925    7.1332   20.1234 C   0  0  0  0  0  0  0  0  0  0  0  0
   18.1952    7.5108   19.2365 O   0  0  0  0  0  0  0  0  0  0  0  0
   19.7939    6.0634   19.9467 N   0  0  0  0  0  0  0  0  0  0  0  0
   19.9274    5.3108   18.7036 C   0  0  0  0  0  0  0  0  0  0  0  0
   19.3369    3.6113   18.9615 P   0  0  0  0  0  0  0  0  0  0  0  0
   19.9736    3.0947   20.2301 O   0  0  0  0  0  0  0  0  0  0  0  0
   19.5601    2.7917   17.7145 O   0  0  0  0  0  0  0  0  0  0  0  0
   17.7601    3.7714   19.0792 O   0  0  0  0  0  0  0  0  0  0  0  0
   16.8284    2.7760   18.6066 C   0  0  0  0  0  0  0  0  0  0  0  0
   16.1152    2.1225   19.8232 C   0  0  0  0  0  0  0  0  0  0  0  0
   15.2152    3.0310   20.5691 C   0  0  0  0  0  0  0  0  0  0  0  0
   13.8097    2.9066   20.5118 C   0  0  0  0  0  0  0  0  0  0  0  0
   15.7171    4.0414   21.3966 C   0  0  0  0  0  0  0  0  0  0  0  0
   12.9871    3.7676   21.2220 C   0  0  0  0  0  0  0  0  0  0  0  0
   13.5182    4.8016   21.9830 C   0  0  0  0  0  0  0  0  0  0  0  0
   14.9187    4.9112   22.1000 C   0  0  0  0  0  0  0  0  0  0  0  0
   17.5468    6.2344   22.5936 H   0  0  0  0  0  0  0  0  0  0  0  0
   20.3311    5.7669   20.7166 H   0  0  0  0  0  0  0  0  0  0  0  0
   20.9319    3.0167   20.1024 H   0  0  0  0  0  0  0  0  0  0  0  0
   21.2117    8.9161   22.2590 C   0  0  0  0  0  0  0  0  0  0  0  0
   21.2960    8.1676   23.2384 O   0  0  0  0  0  0  0  0  0  0  0  0
   20.2747    8.8111   21.3166 N   0  0  0  0  0  0  0  0  0  0  0  0
   20.3460    9.3745   20.5125 H   0  0  0  0  0  0  0  0  0  0  0  0
   22.2496   10.0334   21.9878 C   0  0  0  0  0  0  0  0  0  0  0  0
   22.5363   10.7407   23.2337 N   0  0  0  0  0  0  0  0  0  0  0  0
   21.7623   11.6542   23.7866 C   0  0  0  0  0  0  0  0  0  0  0  0
   20.6788   12.0168   23.2329 O   0  0  0  0  0  0  0  0  0  0  0  0
   23.3752   10.5172   23.6981 H   0  0  0  0  0  0  0  0  0  0  0  0
   22.2436   12.3438   25.0399 C   0  0  0  0  0  0  0  0  0  0  0  0
   22.1086   13.8391   24.9716 C   0  0  0  0  0  0  0  0  0  0  0  0
   22.1858   14.4671   26.2761 C   0  0  0  0  0  0  0  0  0  0  0  0
   23.1516   14.3942   23.9469 C   0  0  0  0  0  0  0  0  0  0  0  0
   23.5074    9.5345   21.2866 C   0  0  0  0  0  0  0  0  0  0  0  0
   23.3261    8.1618   20.7094 C   0  0  0  0  0  0  0  0  0  0  0  0
   24.0175   10.5408   20.2716 C   0  0  0  0  0  0  0  0  0  0  0  0
   15.8194    3.4330   17.6753 C   0  0  0  0  0  0  0  0  0  0  0  0
   15.6157    4.6067   17.6157 O   0  0  0  0  0  0  0  0  0  0  0  0
   13.7441    2.5513   16.8756 C   0  0  0  0  0  0  0  0  0  0  0  0
   15.1981    2.5262   16.9715 O   0  0  0  0  0  0  0  0  0  0  0  0
   21.3771    5.3405   18.1799 C   0  0  0  0  0  0  0  0  0  0  0  0
   21.8613    6.6643   17.5839 C   0  0  0  0  0  0  0  0  0  0  0  0
   23.3183    6.6046   17.1916 C   0  0  0  0  0  0  0  0  0  0  0  0
   20.9785    7.1006   16.4000 C   0  0  0  0  0  0  0  0  0  0  0  0
 31 30  1  0  0  0
 31 32  1  0  0  0
 35 36  1  0  0  0
 35 32  1  0  0  0
 30 39  1  0  0  0
 30 26  1  0  0  0
 36 37  1  0  0  0
 36 38  1  0  0  0
 39 40  1  0  0  0
 39 41  1  0  0  0
 32 33  2  0  0  0
 26 27  2  0  0  0
 26 28  1  0  0  0
 28  1  1  0  0  0
  1  2  1  0  0  0
  1  7  1  0  0  0
  2  3  1  0  0  0
  3  4  2  0  0  0
  3  5  1  0  0  0
  5  6  1  0  0  0
  6 22  1  0  0  0
  7  8  2  0  0  0
  7  9  1  0  0  0
  9 10  1  0  0  0
 10 46  1  0  0  0
 10 11  1  0  0  0
 46 47  1  0  0  0
 47 48  1  0  0  0
 47 49  1  0  0  0
 11 12  1  0  0  0
 11 13  2  0  0  0
 11 14  1  0  0  0
 14 15  1  0  0  0
 15 16  1  0  0  0
 15 42  1  0  0  0
 16 17  1  0  0  0
 44 45  1  0  0  0
 17 18  2  0  0  0
 17 19  1  0  0  0
 18 20  1  0  0  0
 19 22  2  0  0  0
 20 21  2  0  0  0
 21 22  1  0  0  0
 42 45  1  0  0  0
 42 43  2  0  0  0
 31 34  1  0  0  0
 28 29  1  0  0  0
  5 23  1  0  0  0
  9 24  1  0  0  0
 12 25  1  0  0  0
M  END
> <minimizedAffinity>
-9.89905

$$$$
