3B7U_KEL_X_707


 25 25  0  0  0  0  0  0  0  0999 V2000
   34.5241    6.6409    1.5843 C   0  0  0  0  0  0  0  0  0  0  0  0
   34.0496    7.5850    0.5243 C   0  0  0  0  0  0  0  0  0  0  0  0
   34.4454    7.4437   -0.6277 O   0  0  0  0  0  0  0  0  0  0  0  0
   33.1876    8.5369    0.8933 N   0  0  0  0  0  0  0  0  0  0  0  0
   32.9351    8.6406    1.8392 H   0  0  0  0  0  0  0  0  0  0  0  0
   32.6343    9.4064   -0.1054 C   0  0  0  0  0  0  0  0  0  0  0  0
   31.4147   10.1597    0.4007 C   0  0  0  0  0  0  0  0  0  0  0  0
   33.7147   10.3324   -0.6273 C   0  0  0  0  0  0  0  0  0  0  0  0
   34.1977   11.1594    0.1409 O   0  0  0  0  0  0  0  0  0  0  0  0
   34.0482   10.2915   -1.8163 O   0  0  0  0  0  0  0  0  0  0  0  0
   33.6687    9.6532   -2.3876 H   0  0  0  0  0  0  0  0  0  0  0  0
   34.4168    5.2225    1.0146 C   0  0  0  0  0  0  0  0  0  0  0  0
   34.2314    4.2205    3.1584 O   0  0  0  0  0  0  0  0  0  0  0  0
   34.8609    4.2957    2.1161 C   0  0  0  0  0  0  0  0  0  0  0  0
   35.9952    3.6463    1.8991 N   0  0  0  0  0  0  0  0  0  0  0  0
   36.4477    2.9745    2.8215 O   0  0  0  0  0  0  0  0  0  0  0  0
   36.4574    3.7004    1.0315 H   0  0  0  0  0  0  0  0  0  0  0  0
   35.8597    3.0428    3.5899 H   0  0  0  0  0  0  0  0  0  0  0  0
   35.9913    6.9827    1.9555 C   0  0  0  0  0  0  0  0  0  0  0  0
   36.0891    7.9407    3.1471 C   0  0  0  0  0  0  0  0  0  0  0  0
   34.9967    8.0718    3.9909 C   0  0  0  0  0  0  0  0  0  0  0  0
   35.0782    8.9428    5.0916 C   0  0  0  0  0  0  0  0  0  0  0  0
   36.2030    9.7031    5.3641 C   0  0  0  0  0  0  0  0  0  0  0  0
   37.3216    9.5590    4.5255 C   0  0  0  0  0  0  0  0  0  0  0  0
   37.2623    8.6828    3.4300 C   0  0  0  0  0  0  0  0  0  0  0  0
  9  8  2  0  0  0
  8  6  1  0  0  0
  8 10  1  0  0  0
  3  2  2  0  0  0
  6  7  1  0  0  0
  6  4  1  0  0  0
  2  4  1  0  0  0
  2  1  1  0  0  0
 12  1  1  0  0  0
 12 14  1  0  0  0
  1 19  1  0  0  0
 25 24  2  0  0  0
 25 20  1  0  0  0
 19 20  1  0  0  0
 15 14  1  0  0  0
 15 16  1  0  0  0
 14 13  2  0  0  0
 24 23  1  0  0  0
 20 21  2  0  0  0
 23 22  2  0  0  0
 21 22  1  0  0  0
 15 17  1  0  0  0
 16 18  1  0  0  0
  4  5  1  0  0  0
 10 11  1  0  0  0
M  END
> <minimizedAffinity>
-8.95499

$$$$
3B7U_KEL_X_707


 25 25  0  0  0  0  0  0  0  0999 V2000
   33.7870    8.5525    0.3659 C   0  0  0  0  0  0  0  0  0  0  0  0
   34.5007    7.2372    0.3881 C   0  0  0  0  0  0  0  0  0  0  0  0
   35.6536    7.1715   -0.0247 O   0  0  0  0  0  0  0  0  0  0  0  0
   33.8376    6.1890    0.8850 N   0  0  0  0  0  0  0  0  0  0  0  0
   32.8969    6.2799    1.1607 H   0  0  0  0  0  0  0  0  0  0  0  0
   34.5129    4.9290    1.0119 C   0  0  0  0  0  0  0  0  0  0  0  0
   34.8339    4.5926    2.4593 C   0  0  0  0  0  0  0  0  0  0  0  0
   33.7005    3.8466    0.3296 C   0  0  0  0  0  0  0  0  0  0  0  0
   32.5280    3.6981    0.6618 O   0  0  0  0  0  0  0  0  0  0  0  0
   34.2330    3.0944   -0.4933 O   0  0  0  0  0  0  0  0  0  0  0  0
   35.1292    3.2234   -0.7346 H   0  0  0  0  0  0  0  0  0  0  0  0
   32.6135    8.4194   -0.6105 C   0  0  0  0  0  0  0  0  0  0  0  0
   33.9239    9.9855   -1.8205 O   0  0  0  0  0  0  0  0  0  0  0  0
   33.0168    9.1703   -1.8526 C   0  0  0  0  0  0  0  0  0  0  0  0
   32.2815    8.9374   -2.9299 N   0  0  0  0  0  0  0  0  0  0  0  0
   32.5063    9.6183   -3.9262 O   0  0  0  0  0  0  0  0  0  0  0  0
   31.5817    8.2449   -2.9313 H   0  0  0  0  0  0  0  0  0  0  0  0
   33.2244   10.2421   -3.7361 H   0  0  0  0  0  0  0  0  0  0  0  0
   33.2869    8.8885    1.7957 C   0  0  0  0  0  0  0  0  0  0  0  0
   34.4294    9.2575    2.7473 C   0  0  0  0  0  0  0  0  0  0  0  0
   35.2994   10.2745    2.3847 C   0  0  0  0  0  0  0  0  0  0  0  0
   36.3470   10.6262    3.2539 C   0  0  0  0  0  0  0  0  0  0  0  0
   36.5688    9.9823    4.4595 C   0  0  0  0  0  0  0  0  0  0  0  0
   35.6781    8.9651    4.8434 C   0  0  0  0  0  0  0  0  0  0  0  0
   34.6178    8.6110    3.9937 C   0  0  0  0  0  0  0  0  0  0  0  0
  9  8  2  0  0  0
  8  6  1  0  0  0
  8 10  1  0  0  0
  3  2  2  0  0  0
  6  7  1  0  0  0
  6  4  1  0  0  0
  2  4  1  0  0  0
  2  1  1  0  0  0
 12  1  1  0  0  0
 12 14  1  0  0  0
  1 19  1  0  0  0
 25 24  2  0  0  0
 25 20  1  0  0  0
 19 20  1  0  0  0
 15 14  1  0  0  0
 15 16  1  0  0  0
 14 13  2  0  0  0
 24 23  1  0  0  0
 20 21  2  0  0  0
 23 22  2  0  0  0
 21 22  1  0  0  0
 15 17  1  0  0  0
 16 18  1  0  0  0
  4  5  1  0  0  0
 10 11  1  0  0  0
M  END
> <minimizedAffinity>
-8.85255

$$$$
3B7U_KEL_X_707


 25 25  0  0  0  0  0  0  0  0999 V2000
   34.7462    7.2580    1.2187 C   0  0  0  0  0  0  0  0  0  0  0  0
   34.2077    8.4065    0.4245 C   0  0  0  0  0  0  0  0  0  0  0  0
   34.9416    9.3536    0.1632 O   0  0  0  0  0  0  0  0  0  0  0  0
   32.9375    8.3275    0.0175 N   0  0  0  0  0  0  0  0  0  0  0  0
   32.3729    7.5691    0.2919 H   0  0  0  0  0  0  0  0  0  0  0  0
   32.4060    9.3612   -0.8243 C   0  0  0  0  0  0  0  0  0  0  0  0
   32.5003    9.0058   -2.2994 C   0  0  0  0  0  0  0  0  0  0  0  0
   30.9900    9.6883   -0.3942 C   0  0  0  0  0  0  0  0  0  0  0  0
   30.2856   10.3478   -1.1533 O   0  0  0  0  0  0  0  0  0  0  0  0
   30.5854    9.3502    0.7232 O   0  0  0  0  0  0  0  0  0  0  0  0
   31.1374    8.8469    1.2888 H   0  0  0  0  0  0  0  0  0  0  0  0
   34.7602    6.0326    0.2987 C   0  0  0  0  0  0  0  0  0  0  0  0
   33.1559    4.3248    0.6782 O   0  0  0  0  0  0  0  0  0  0  0  0
   34.1443    4.9090    1.0909 C   0  0  0  0  0  0  0  0  0  0  0  0
   34.6987    4.6644    2.2692 N   0  0  0  0  0  0  0  0  0  0  0  0
   34.1506    3.8370    2.9914 O   0  0  0  0  0  0  0  0  0  0  0  0
   35.5188    5.1285    2.5544 H   0  0  0  0  0  0  0  0  0  0  0  0
   33.3630    3.4892    2.5446 H   0  0  0  0  0  0  0  0  0  0  0  0
   36.1770    7.6014    1.7111 C   0  0  0  0  0  0  0  0  0  0  0  0
   36.1769    8.3235    3.0623 C   0  0  0  0  0  0  0  0  0  0  0  0
   37.3157    9.0117    3.4526 C   0  0  0  0  0  0  0  0  0  0  0  0
   37.3238    9.6839    4.6874 C   0  0  0  0  0  0  0  0  0  0  0  0
   36.2440    9.6726    5.5541 C   0  0  0  0  0  0  0  0  0  0  0  0
   35.0789    8.9952    5.1554 C   0  0  0  0  0  0  0  0  0  0  0  0
   35.0486    8.3305    3.9190 C   0  0  0  0  0  0  0  0  0  0  0  0
  9  8  2  0  0  0
  8  6  1  0  0  0
  8 10  1  0  0  0
  3  2  2  0  0  0
  6  7  1  0  0  0
  6  4  1  0  0  0
  2  4  1  0  0  0
  2  1  1  0  0  0
 12  1  1  0  0  0
 12 14  1  0  0  0
  1 19  1  0  0  0
 25 24  2  0  0  0
 25 20  1  0  0  0
 19 20  1  0  0  0
 15 14  1  0  0  0
 15 16  1  0  0  0
 14 13  2  0  0  0
 24 23  1  0  0  0
 20 21  2  0  0  0
 23 22  2  0  0  0
 21 22  1  0  0  0
 15 17  1  0  0  0
 16 18  1  0  0  0
  4  5  1  0  0  0
 10 11  1  0  0  0
M  END
> <minimizedAffinity>
-8.52007

$$$$
3B7U_KEL_X_707


 25 25  0  0  0  0  0  0  0  0999 V2000
   34.4622    9.2085    1.1222 C   0  0  0  0  0  0  0  0  0  0  0  0
   35.4553    9.9278    1.9803 C   0  0  0  0  0  0  0  0  0  0  0  0
   36.4938   10.3441    1.4784 O   0  0  0  0  0  0  0  0  0  0  0  0
   35.1417   10.0989    3.2678 N   0  0  0  0  0  0  0  0  0  0  0  0
   34.3179    9.7055    3.6363 H   0  0  0  0  0  0  0  0  0  0  0  0
   36.0200   10.8628    4.1073 C   0  0  0  0  0  0  0  0  0  0  0  0
   35.3139   12.0441    4.7531 C   0  0  0  0  0  0  0  0  0  0  0  0
   36.6728    9.9483    5.1245 C   0  0  0  0  0  0  0  0  0  0  0  0
   37.8981    9.8729    5.1420 O   0  0  0  0  0  0  0  0  0  0  0  0
   35.9776    9.2505    5.8703 O   0  0  0  0  0  0  0  0  0  0  0  0
   35.0438    9.3220    5.8428 H   0  0  0  0  0  0  0  0  0  0  0  0
   34.1112    7.8961    1.8312 C   0  0  0  0  0  0  0  0  0  0  0  0
   35.3709    7.0120    0.0241 O   0  0  0  0  0  0  0  0  0  0  0  0
   34.5648    6.7914    0.9128 C   0  0  0  0  0  0  0  0  0  0  0  0
   33.9798    5.6164    1.0936 N   0  0  0  0  0  0  0  0  0  0  0  0
   34.2377    4.7264    0.2885 O   0  0  0  0  0  0  0  0  0  0  0  0
   33.3621    5.4630    1.8447 H   0  0  0  0  0  0  0  0  0  0  0  0
   34.8603    5.0616   -0.3756 H   0  0  0  0  0  0  0  0  0  0  0  0
   33.2035   10.0972    0.9400 C   0  0  0  0  0  0  0  0  0  0  0  0
   32.4326    9.7699   -0.3428 C   0  0  0  0  0  0  0  0  0  0  0  0
   31.0573    9.9458   -0.3597 C   0  0  0  0  0  0  0  0  0  0  0  0
   30.3410    9.6553   -1.5341 C   0  0  0  0  0  0  0  0  0  0  0  0
   30.9472    9.1738   -2.6822 C   0  0  0  0  0  0  0  0  0  0  0  0
   32.3435    9.0136   -2.6791 C   0  0  0  0  0  0  0  0  0  0  0  0
   33.0761    9.3126   -1.5193 C   0  0  0  0  0  0  0  0  0  0  0  0
  9  8  2  0  0  0
  8  6  1  0  0  0
  8 10  1  0  0  0
  3  2  2  0  0  0
  6  7  1  0  0  0
  6  4  1  0  0  0
  2  4  1  0  0  0
  2  1  1  0  0  0
 12  1  1  0  0  0
 12 14  1  0  0  0
  1 19  1  0  0  0
 25 24  2  0  0  0
 25 20  1  0  0  0
 19 20  1  0  0  0
 15 14  1  0  0  0
 15 16  1  0  0  0
 14 13  2  0  0  0
 24 23  1  0  0  0
 20 21  2  0  0  0
 23 22  2  0  0  0
 21 22  1  0  0  0
 15 17  1  0  0  0
 16 18  1  0  0  0
  4  5  1  0  0  0
 10 11  1  0  0  0
M  END
> <minimizedAffinity>
-8.49730

$$$$
3B7U_KEL_X_707


 25 25  0  0  0  0  0  0  0  0999 V2000
   33.5487    8.5296    0.9589 C   0  0  0  0  0  0  0  0  0  0  0  0
   34.3378    7.2811    0.7171 C   0  0  0  0  0  0  0  0  0  0  0  0
   35.4271    7.3568    0.1589 O   0  0  0  0  0  0  0  0  0  0  0  0
   33.8121    6.1311    1.1488 N   0  0  0  0  0  0  0  0  0  0  0  0
   32.9128    6.1138    1.5492 H   0  0  0  0  0  0  0  0  0  0  0  0
   34.5737    4.9213    1.0221 C   0  0  0  0  0  0  0  0  0  0  0  0
   35.1069    4.4354    2.3602 C   0  0  0  0  0  0  0  0  0  0  0  0
   33.7441    3.8712    0.3105 C   0  0  0  0  0  0  0  0  0  0  0  0
   32.5588    3.7603    0.6102 O   0  0  0  0  0  0  0  0  0  0  0  0
   34.2731    3.1068   -0.5033 O   0  0  0  0  0  0  0  0  0  0  0  0
   35.1793    3.2070   -0.7197 H   0  0  0  0  0  0  0  0  0  0  0  0
   34.1704    9.2363    2.1681 C   0  0  0  0  0  0  0  0  0  0  0  0
   33.1019   11.2201    2.9144 O   0  0  0  0  0  0  0  0  0  0  0  0
   33.0521   10.0046    2.8229 C   0  0  0  0  0  0  0  0  0  0  0  0
   32.0777    9.2720    3.3419 N   0  0  0  0  0  0  0  0  0  0  0  0
   31.2115    9.8572    3.9854 O   0  0  0  0  0  0  0  0  0  0  0  0
   32.0495    8.2960    3.2164 H   0  0  0  0  0  0  0  0  0  0  0  0
   31.4061   10.8074    4.0001 H   0  0  0  0  0  0  0  0  0  0  0  0
   33.6111    9.4282   -0.3044 C   0  0  0  0  0  0  0  0  0  0  0  0
   32.3007    9.4197   -1.0980 C   0  0  0  0  0  0  0  0  0  0  0  0
   31.2107   10.1144   -0.5961 C   0  0  0  0  0  0  0  0  0  0  0  0
   30.0054   10.1192   -1.3200 C   0  0  0  0  0  0  0  0  0  0  0  0
   29.8452    9.4360   -2.5137 C   0  0  0  0  0  0  0  0  0  0  0  0
   30.9522    8.7477   -3.0391 C   0  0  0  0  0  0  0  0  0  0  0  0
   32.1677    8.7444   -2.3363 C   0  0  0  0  0  0  0  0  0  0  0  0
  9  8  2  0  0  0
  8  6  1  0  0  0
  8 10  1  0  0  0
  3  2  2  0  0  0
  6  7  1  0  0  0
  6  4  1  0  0  0
  2  4  1  0  0  0
  2  1  1  0  0  0
 12  1  1  0  0  0
 12 14  1  0  0  0
  1 19  1  0  0  0
 25 24  2  0  0  0
 25 20  1  0  0  0
 19 20  1  0  0  0
 15 14  1  0  0  0
 15 16  1  0  0  0
 14 13  2  0  0  0
 24 23  1  0  0  0
 20 21  2  0  0  0
 23 22  2  0  0  0
 21 22  1  0  0  0
 15 17  1  0  0  0
 16 18  1  0  0  0
  4  5  1  0  0  0
 10 11  1  0  0  0
M  END
> <minimizedAffinity>
-8.17541

$$$$
3B7U_KEL_X_707


 25 25  0  0  0  0  0  0  0  0999 V2000
   32.4672    9.2424    0.8439 C   0  0  0  0  0  0  0  0  0  0  0  0
   33.7607    8.4907    0.8019 C   0  0  0  0  0  0  0  0  0  0  0  0
   34.6601    8.8820    0.0658 O   0  0  0  0  0  0  0  0  0  0  0  0
   33.8757    7.4248    1.5993 N   0  0  0  0  0  0  0  0  0  0  0  0
   33.1096    7.1208    2.1379 H   0  0  0  0  0  0  0  0  0  0  0  0
   35.1289    6.7282    1.6615 C   0  0  0  0  0  0  0  0  0  0  0  0
   35.9865    7.1918    2.8280 C   0  0  0  0  0  0  0  0  0  0  0  0
   34.8786    5.2335    1.6815 C   0  0  0  0  0  0  0  0  0  0  0  0
   33.7787    4.8198    1.3262 O   0  0  0  0  0  0  0  0  0  0  0  0
   35.7451    4.4633    2.1085 O   0  0  0  0  0  0  0  0  0  0  0  0
   36.5789    4.7975    2.3751 H   0  0  0  0  0  0  0  0  0  0  0  0
   32.4468   10.0445    2.1495 C   0  0  0  0  0  0  0  0  0  0  0  0
   30.5904   11.1306    3.1536 O   0  0  0  0  0  0  0  0  0  0  0  0
   30.9987   10.1517    2.5507 C   0  0  0  0  0  0  0  0  0  0  0  0
   30.2450    9.0982    2.2722 N   0  0  0  0  0  0  0  0  0  0  0  0
   29.0907    9.1023    2.6897 O   0  0  0  0  0  0  0  0  0  0  0  0
   30.5973    8.3412    1.7505 H   0  0  0  0  0  0  0  0  0  0  0  0
   28.9263    9.9243    3.1778 H   0  0  0  0  0  0  0  0  0  0  0  0
   32.3799   10.1814   -0.3882 C   0  0  0  0  0  0  0  0  0  0  0  0
   31.1946    9.8476   -1.2996 C   0  0  0  0  0  0  0  0  0  0  0  0
   31.3664    8.9047   -2.3017 C   0  0  0  0  0  0  0  0  0  0  0  0
   30.2831    8.5856   -3.1391 C   0  0  0  0  0  0  0  0  0  0  0  0
   29.0435    9.1919   -3.0251 C   0  0  0  0  0  0  0  0  0  0  0  0
   28.8559   10.1328   -1.9979 C   0  0  0  0  0  0  0  0  0  0  0  0
   29.9231   10.4528   -1.1435 C   0  0  0  0  0  0  0  0  0  0  0  0
  9  8  2  0  0  0
  8  6  1  0  0  0
  8 10  1  0  0  0
  3  2  2  0  0  0
  6  7  1  0  0  0
  6  4  1  0  0  0
  2  4  1  0  0  0
  2  1  1  0  0  0
 12  1  1  0  0  0
 12 14  1  0  0  0
  1 19  1  0  0  0
 25 24  2  0  0  0
 25 20  1  0  0  0
 19 20  1  0  0  0
 15 14  1  0  0  0
 15 16  1  0  0  0
 14 13  2  0  0  0
 24 23  1  0  0  0
 20 21  2  0  0  0
 23 22  2  0  0  0
 21 22  1  0  0  0
 15 17  1  0  0  0
 16 18  1  0  0  0
  4  5  1  0  0  0
 10 11  1  0  0  0
M  END
> <minimizedAffinity>
-8.11010

$$$$
3B7U_KEL_X_707


 25 25  0  0  0  0  0  0  0  0999 V2000
   34.2379    7.9853    2.3885 C   0  0  0  0  0  0  0  0  0  0  0  0
   33.0979    8.4304    1.5270 C   0  0  0  0  0  0  0  0  0  0  0  0
   31.9614    8.4335    1.9877 O   0  0  0  0  0  0  0  0  0  0  0  0
   33.3879    8.8276    0.2847 N   0  0  0  0  0  0  0  0  0  0  0  0
   34.3090    8.7628   -0.0567 H   0  0  0  0  0  0  0  0  0  0  0  0
   32.3408    9.3499   -0.5463 C   0  0  0  0  0  0  0  0  0  0  0  0
   31.8567   10.7110   -0.0729 C   0  0  0  0  0  0  0  0  0  0  0  0
   32.7991    9.3657   -1.9909 C   0  0  0  0  0  0  0  0  0  0  0  0
   33.8653    9.9113   -2.2603 O   0  0  0  0  0  0  0  0  0  0  0  0
   32.0786    8.8951   -2.8774 O   0  0  0  0  0  0  0  0  0  0  0  0
   31.2681    8.4822   -2.6524 H   0  0  0  0  0  0  0  0  0  0  0  0
   35.2170    7.2202    1.4918 C   0  0  0  0  0  0  0  0  0  0  0  0
   33.8328    5.2950    1.3823 O   0  0  0  0  0  0  0  0  0  0  0  0
   34.9164    5.7584    1.6977 C   0  0  0  0  0  0  0  0  0  0  0  0
   35.8648    5.0552    2.2990 N   0  0  0  0  0  0  0  0  0  0  0  0
   35.6075    3.8905    2.5890 O   0  0  0  0  0  0  0  0  0  0  0  0
   36.7421    5.4515    2.5052 H   0  0  0  0  0  0  0  0  0  0  0  0
   34.7026    3.6802    2.3100 H   0  0  0  0  0  0  0  0  0  0  0  0
   34.9173    9.2281    3.0220 C   0  0  0  0  0  0  0  0  0  0  0  0
   34.3047    9.6087    4.3737 C   0  0  0  0  0  0  0  0  0  0  0  0
   34.9974    9.2959    5.5335 C   0  0  0  0  0  0  0  0  0  0  0  0
   34.4477    9.6471    6.7789 C   0  0  0  0  0  0  0  0  0  0  0  0
   33.2216   10.2778    6.9061 C   0  0  0  0  0  0  0  0  0  0  0  0
   32.5241   10.6172    5.7340 C   0  0  0  0  0  0  0  0  0  0  0  0
   33.0653   10.2866    4.4814 C   0  0  0  0  0  0  0  0  0  0  0  0
  9  8  2  0  0  0
  8  6  1  0  0  0
  8 10  1  0  0  0
  3  2  2  0  0  0
  6  7  1  0  0  0
  6  4  1  0  0  0
  2  4  1  0  0  0
  2  1  1  0  0  0
 12  1  1  0  0  0
 12 14  1  0  0  0
  1 19  1  0  0  0
 25 24  2  0  0  0
 25 20  1  0  0  0
 19 20  1  0  0  0
 15 14  1  0  0  0
 15 16  1  0  0  0
 14 13  2  0  0  0
 24 23  1  0  0  0
 20 21  2  0  0  0
 23 22  2  0  0  0
 21 22  1  0  0  0
 15 17  1  0  0  0
 16 18  1  0  0  0
  4  5  1  0  0  0
 10 11  1  0  0  0
M  END
> <minimizedAffinity>
-7.97657

$$$$
3B7U_KEL_X_707


 25 25  0  0  0  0  0  0  0  0999 V2000
   34.4405    9.6316    4.7708 C   0  0  0  0  0  0  0  0  0  0  0  0
   35.3585    8.6470    4.1166 C   0  0  0  0  0  0  0  0  0  0  0  0
   36.5376    8.6098    4.4514 O   0  0  0  0  0  0  0  0  0  0  0  0
   34.8292    7.8319    3.1997 N   0  0  0  0  0  0  0  0  0  0  0  0
   33.8877    7.9308    2.9296 H   0  0  0  0  0  0  0  0  0  0  0  0
   35.6494    6.8106    2.6133 C   0  0  0  0  0  0  0  0  0  0  0  0
   34.9363    5.4697    2.5457 C   0  0  0  0  0  0  0  0  0  0  0  0
   36.1464    7.2741    1.2586 C   0  0  0  0  0  0  0  0  0  0  0  0
   36.9490    8.2021    1.2161 O   0  0  0  0  0  0  0  0  0  0  0  0
   35.6988    6.7668    0.2248 O   0  0  0  0  0  0  0  0  0  0  0  0
   35.0869    6.0591    0.2770 H   0  0  0  0  0  0  0  0  0  0  0  0
   35.1256   11.0012    4.7167 C   0  0  0  0  0  0  0  0  0  0  0  0
   35.7892   12.5238    6.4124 O   0  0  0  0  0  0  0  0  0  0  0  0
   35.2593   11.4577    6.1461 C   0  0  0  0  0  0  0  0  0  0  0  0
   34.8373   10.6018    7.0652 N   0  0  0  0  0  0  0  0  0  0  0  0
   35.0391   10.8897    8.2413 O   0  0  0  0  0  0  0  0  0  0  0  0
   34.3795    9.7670    6.8146 H   0  0  0  0  0  0  0  0  0  0  0  0
   35.4985   11.7426    8.2912 H   0  0  0  0  0  0  0  0  0  0  0  0
   33.0880    9.6546    4.0109 C   0  0  0  0  0  0  0  0  0  0  0  0
   32.2919   10.9386    4.2651 C   0  0  0  0  0  0  0  0  0  0  0  0
   32.2911   11.9282    3.2938 C   0  0  0  0  0  0  0  0  0  0  0  0
   31.5579   13.1074    3.5137 C   0  0  0  0  0  0  0  0  0  0  0  0
   30.8462   13.3414    4.6782 C   0  0  0  0  0  0  0  0  0  0  0  0
   30.8249   12.3338    5.6578 C   0  0  0  0  0  0  0  0  0  0  0  0
   31.5400   11.1438    5.4482 C   0  0  0  0  0  0  0  0  0  0  0  0
  9  8  2  0  0  0
  8  6  1  0  0  0
  8 10  1  0  0  0
  3  2  2  0  0  0
  6  7  1  0  0  0
  6  4  1  0  0  0
  2  4  1  0  0  0
  2  1  1  0  0  0
 12  1  1  0  0  0
 12 14  1  0  0  0
  1 19  1  0  0  0
 25 24  2  0  0  0
 25 20  1  0  0  0
 19 20  1  0  0  0
 15 14  1  0  0  0
 15 16  1  0  0  0
 14 13  2  0  0  0
 24 23  1  0  0  0
 20 21  2  0  0  0
 23 22  2  0  0  0
 21 22  1  0  0  0
 15 17  1  0  0  0
 16 18  1  0  0  0
  4  5  1  0  0  0
 10 11  1  0  0  0
M  END
> <minimizedAffinity>
-7.91357

$$$$
3B7U_KEL_X_707


 25 25  0  0  0  0  0  0  0  0999 V2000
   34.3707    8.9401    1.3218 C   0  0  0  0  0  0  0  0  0  0  0  0
   33.8083    9.5545    0.0784 C   0  0  0  0  0  0  0  0  0  0  0  0
   34.5281   10.2558   -0.6245 O   0  0  0  0  0  0  0  0  0  0  0  0
   32.5333    9.2841   -0.2156 N   0  0  0  0  0  0  0  0  0  0  0  0
   31.9810    8.7544    0.4036 H   0  0  0  0  0  0  0  0  0  0  0  0
   31.9784    9.7750   -1.4448 C   0  0  0  0  0  0  0  0  0  0  0  0
   32.3187    8.8808   -2.6262 C   0  0  0  0  0  0  0  0  0  0  0  0
   30.4857    9.9805   -1.2817 C   0  0  0  0  0  0  0  0  0  0  0  0
   30.0225   10.0286   -0.1458 O   0  0  0  0  0  0  0  0  0  0  0  0
   29.7526   10.0319   -2.2749 O   0  0  0  0  0  0  0  0  0  0  0  0
   30.1243    9.9937   -3.1341 H   0  0  0  0  0  0  0  0  0  0  0  0
   35.4370    7.9279    0.8897 C   0  0  0  0  0  0  0  0  0  0  0  0
   33.8498    6.4237    1.8130 O   0  0  0  0  0  0  0  0  0  0  0  0
   35.0006    6.5983    1.4476 C   0  0  0  0  0  0  0  0  0  0  0  0
   35.9542    5.6874    1.5760 N   0  0  0  0  0  0  0  0  0  0  0  0
   35.6598    4.6354    2.1358 O   0  0  0  0  0  0  0  0  0  0  0  0
   36.8638    5.8480    1.2354 H   0  0  0  0  0  0  0  0  0  0  0  0
   34.7268    4.6598    2.4000 H   0  0  0  0  0  0  0  0  0  0  0  0
   34.9867   10.0531    2.2101 C   0  0  0  0  0  0  0  0  0  0  0  0
   34.4911    9.9919    3.6585 C   0  0  0  0  0  0  0  0  0  0  0  0
   33.2634   10.5565    3.9695 C   0  0  0  0  0  0  0  0  0  0  0  0
   32.7959   10.4995    5.2941 C   0  0  0  0  0  0  0  0  0  0  0  0
   33.5217    9.9198    6.3210 C   0  0  0  0  0  0  0  0  0  0  0  0
   34.7571    9.3265    6.0089 C   0  0  0  0  0  0  0  0  0  0  0  0
   35.2325    9.3618    4.6883 C   0  0  0  0  0  0  0  0  0  0  0  0
  9  8  2  0  0  0
  8  6  1  0  0  0
  8 10  1  0  0  0
  3  2  2  0  0  0
  6  7  1  0  0  0
  6  4  1  0  0  0
  2  4  1  0  0  0
  2  1  1  0  0  0
 12  1  1  0  0  0
 12 14  1  0  0  0
  1 19  1  0  0  0
 25 24  2  0  0  0
 25 20  1  0  0  0
 19 20  1  0  0  0
 15 14  1  0  0  0
 15 16  1  0  0  0
 14 13  2  0  0  0
 24 23  1  0  0  0
 20 21  2  0  0  0
 23 22  2  0  0  0
 21 22  1  0  0  0
 15 17  1  0  0  0
 16 18  1  0  0  0
  4  5  1  0  0  0
 10 11  1  0  0  0
M  END
> <minimizedAffinity>
-7.90705

$$$$
3B7U_KEL_X_707


 25 25  0  0  0  0  0  0  0  0999 V2000
   33.5060    8.3864    1.0042 C   0  0  0  0  0  0  0  0  0  0  0  0
   34.2424    7.1251    0.6775 C   0  0  0  0  0  0  0  0  0  0  0  0
   35.1559    7.1565   -0.1400 O   0  0  0  0  0  0  0  0  0  0  0  0
   33.8712    6.0149    1.3218 N   0  0  0  0  0  0  0  0  0  0  0  0
   33.1009    6.0288    1.9346 H   0  0  0  0  0  0  0  0  0  0  0  0
   34.6087    4.8021    1.1098 C   0  0  0  0  0  0  0  0  0  0  0  0
   35.1416    4.2194    2.4088 C   0  0  0  0  0  0  0  0  0  0  0  0
   33.7544    3.8168    0.3376 C   0  0  0  0  0  0  0  0  0  0  0  0
   32.5701    3.7055    0.6416 O   0  0  0  0  0  0  0  0  0  0  0  0
   34.2623    3.1006   -0.5316 O   0  0  0  0  0  0  0  0  0  0  0  0
   35.1680    3.2000   -0.7502 H   0  0  0  0  0  0  0  0  0  0  0  0
   34.1655    8.9918    2.2479 C   0  0  0  0  0  0  0  0  0  0  0  0
   34.9138   11.1202    1.5103 O   0  0  0  0  0  0  0  0  0  0  0  0
   35.2042    9.9580    1.7409 C   0  0  0  0  0  0  0  0  0  0  0  0
   36.4011    9.4426    1.5014 N   0  0  0  0  0  0  0  0  0  0  0  0
   37.2367   10.1729    0.9768 O   0  0  0  0  0  0  0  0  0  0  0  0
   36.6121    8.5098    1.7351 H   0  0  0  0  0  0  0  0  0  0  0  0
   36.8492   11.0486    0.8221 H   0  0  0  0  0  0  0  0  0  0  0  0
   33.5941    9.3583   -0.2021 C   0  0  0  0  0  0  0  0  0  0  0  0
   32.2992    9.4004   -1.0198 C   0  0  0  0  0  0  0  0  0  0  0  0
   32.2692    8.7751   -2.2570 C   0  0  0  0  0  0  0  0  0  0  0  0
   31.0838    8.8014   -3.0125 C   0  0  0  0  0  0  0  0  0  0  0  0
   29.9371    9.4496   -2.5856 C   0  0  0  0  0  0  0  0  0  0  0  0
   29.9536   10.0670   -1.3231 C   0  0  0  0  0  0  0  0  0  0  0  0
   31.1248   10.0379   -0.5492 C   0  0  0  0  0  0  0  0  0  0  0  0
  9  8  2  0  0  0
  8  6  1  0  0  0
  8 10  1  0  0  0
  3  2  2  0  0  0
  6  7  1  0  0  0
  6  4  1  0  0  0
  2  4  1  0  0  0
  2  1  1  0  0  0
 12  1  1  0  0  0
 12 14  1  0  0  0
  1 19  1  0  0  0
 25 24  2  0  0  0
 25 20  1  0  0  0
 19 20  1  0  0  0
 15 14  1  0  0  0
 15 16  1  0  0  0
 14 13  2  0  0  0
 24 23  1  0  0  0
 20 21  2  0  0  0
 23 22  2  0  0  0
 21 22  1  0  0  0
 15 17  1  0  0  0
 16 18  1  0  0  0
  4  5  1  0  0  0
 10 11  1  0  0  0
M  END
> <minimizedAffinity>
-7.80242

$$$$
