4CGA_QLW_A_0


 24 26  0  0  0  0  0  0  0  0999 V2000
  -16.8519    9.1335    8.5495 C   0  0  0  0  0  0  0  0  0  0  0  0
  -17.0037    7.7567    8.3869 C   0  0  0  0  0  0  0  0  0  0  0  0
  -16.7726    7.1367    7.1478 C   0  0  0  0  0  0  0  0  0  0  0  0
  -16.4476    9.8845    7.4414 C   0  0  0  0  0  0  0  0  0  0  0  0
  -16.2006    9.2793    6.2015 C   0  0  0  0  0  0  0  0  0  0  0  0
  -16.3490    7.8976    6.0468 C   0  0  0  0  0  0  0  0  0  0  0  0
  -17.1016    9.7561    9.8113 C   0  0  0  0  0  0  0  0  0  0  0  0
  -20.1465   12.7075    9.2981 C   0  0  0  0  0  0  0  0  0  0  0  0
  -18.8506   13.0777    9.6861 C   0  0  0  0  0  0  0  0  0  0  0  0
  -17.8416   12.1415    9.8737 C   0  0  0  0  0  0  0  0  0  0  0  0
  -20.4238   11.3613    9.0892 C   0  0  0  0  0  0  0  0  0  0  0  0
  -19.4290   10.4043    9.2617 C   0  0  0  0  0  0  0  0  0  0  0  0
  -18.1352   10.7875    9.6552 N   0  0  0  0  0  0  0  0  0  0  0  0
  -22.4551   13.2110    8.7963 C   0  0  0  0  0  0  0  0  0  0  0  0
  -21.0846   13.6569    9.1092 N   0  0  0  0  0  0  0  0  0  0  0  0
  -20.7637   15.0912    9.3260 C   0  0  0  0  0  0  0  0  0  0  0  0
  -16.1304    7.2962    4.7863 C   0  0  0  0  0  0  0  0  0  0  0  0
  -17.3487    6.5740    4.1967 C   0  0  0  0  0  0  0  0  0  0  0  0
  -16.9853    5.8914    3.0163 C   0  0  0  0  0  0  0  0  0  0  0  0
  -17.9272    5.1522    2.2869 C   0  0  0  0  0  0  0  0  0  0  0  0
  -17.5565    4.4790    1.1188 C   0  0  0  0  0  0  0  0  0  0  0  0
  -16.2324    4.5360    0.6718 C   0  0  0  0  0  0  0  0  0  0  0  0
  -15.2911    5.2653    1.3986 C   0  0  0  0  0  0  0  0  0  0  0  0
  -15.6661    5.9398    2.5644 C   0  0  0  0  0  0  0  0  0  0  0  0
 14 15  1  0  0  0
 15 16  1  0  0  0
 15  8  1  0  0  0
  8  9  2  0  0  0
  8 11  1  0  0  0
  9 10  1  0  0  0
 10 13  2  0  0  0
 11 12  2  0  0  0
 12 13  1  0  0  0
 13  7  1  0  0  0
  7  1  1  0  0  0
  1  2  1  0  0  0
  1  4  2  0  0  0
  2  3  2  0  0  0
  3  6  1  0  0  0
  4  5  1  0  0  0
  5  6  2  0  0  0
  6 17  1  0  0  0
 17 18  1  0  0  0
 18 19  1  0  0  0
 19 20  1  0  0  0
 19 24  2  0  0  0
 20 21  2  0  0  0
 21 22  1  0  0  0
 22 23  2  0  0  0
 23 24  1  0  0  0
M  CHG 1  13   1
M  END
> <minimizedAffinity>
-9.67542

$$$$
4CGA_QLW_A_0


 24 26  0  0  0  0  0  0  0  0999 V2000
  -18.2498    6.8631    5.4256 C   0  0  0  0  0  0  0  0  0  0  0  0
  -18.2320    8.2573    5.3925 C   0  0  0  0  0  0  0  0  0  0  0  0
  -17.7194    9.0078    6.4635 C   0  0  0  0  0  0  0  0  0  0  0  0
  -17.7278    6.2269    6.5561 C   0  0  0  0  0  0  0  0  0  0  0  0
  -17.2010    6.9610    7.6276 C   0  0  0  0  0  0  0  0  0  0  0  0
  -17.1808    8.3585    7.5855 C   0  0  0  0  0  0  0  0  0  0  0  0
  -18.7850    6.1092    4.3359 C   0  0  0  0  0  0  0  0  0  0  0  0
  -15.7433    5.2791    1.4542 C   0  0  0  0  0  0  0  0  0  0  0  0
  -15.4876    6.1325    2.5374 C   0  0  0  0  0  0  0  0  0  0  0  0
  -16.4586    6.4326    3.4845 C   0  0  0  0  0  0  0  0  0  0  0  0
  -17.0070    4.7126    1.3321 C   0  0  0  0  0  0  0  0  0  0  0  0
  -17.9947    4.9897    2.2716 C   0  0  0  0  0  0  0  0  0  0  0  0
  -17.7276    5.8504    3.3504 N   0  0  0  0  0  0  0  0  0  0  0  0
  -14.2830    6.1036   -0.2843 C   0  0  0  0  0  0  0  0  0  0  0  0
  -14.7603    5.0034    0.5740 N   0  0  0  0  0  0  0  0  0  0  0  0
  -14.1100    3.6677    0.5600 C   0  0  0  0  0  0  0  0  0  0  0  0
  -16.6785    9.0953    8.6824 C   0  0  0  0  0  0  0  0  0  0  0  0
  -17.6705    9.2910    9.8360 C   0  0  0  0  0  0  0  0  0  0  0  0
  -18.3181   10.5388    9.7143 C   0  0  0  0  0  0  0  0  0  0  0  0
  -17.6496   11.7349   10.0108 C   0  0  0  0  0  0  0  0  0  0  0  0
  -18.3008   12.9660    9.8874 C   0  0  0  0  0  0  0  0  0  0  0  0
  -19.6348   13.0101    9.4693 C   0  0  0  0  0  0  0  0  0  0  0  0
  -20.3052   11.8214    9.1795 C   0  0  0  0  0  0  0  0  0  0  0  0
  -19.6498   10.5925    9.3009 C   0  0  0  0  0  0  0  0  0  0  0  0
 14 15  1  0  0  0
 15 16  1  0  0  0
 15  8  1  0  0  0
  8  9  2  0  0  0
  8 11  1  0  0  0
  9 10  1  0  0  0
 10 13  2  0  0  0
 11 12  2  0  0  0
 12 13  1  0  0  0
 13  7  1  0  0  0
  7  1  1  0  0  0
  1  2  1  0  0  0
  1  4  2  0  0  0
  2  3  2  0  0  0
  3  6  1  0  0  0
  4  5  1  0  0  0
  5  6  2  0  0  0
  6 17  1  0  0  0
 17 18  1  0  0  0
 18 19  1  0  0  0
 19 20  1  0  0  0
 19 24  2  0  0  0
 20 21  2  0  0  0
 21 22  1  0  0  0
 22 23  2  0  0  0
 23 24  1  0  0  0
M  CHG 1  13   1
M  END
> <minimizedAffinity>
-9.60698

$$$$
4CGA_QLW_A_0


 24 26  0  0  0  0  0  0  0  0999 V2000
  -16.7950    9.0877    8.4276 C   0  0  0  0  0  0  0  0  0  0  0  0
  -17.0058    7.7091    8.4244 C   0  0  0  0  0  0  0  0  0  0  0  0
  -16.9356    6.9612    7.2374 C   0  0  0  0  0  0  0  0  0  0  0  0
  -16.4965    9.7087    7.2108 C   0  0  0  0  0  0  0  0  0  0  0  0
  -16.4102    8.9748    6.0198 C   0  0  0  0  0  0  0  0  0  0  0  0
  -16.6169    7.5920    6.0245 C   0  0  0  0  0  0  0  0  0  0  0  0
  -16.8809    9.8412    9.6388 C   0  0  0  0  0  0  0  0  0  0  0  0
  -20.1046   12.6208    9.2823 C   0  0  0  0  0  0  0  0  0  0  0  0
  -18.8225   13.0565    9.6476 C   0  0  0  0  0  0  0  0  0  0  0  0
  -17.7562   12.1766    9.7845 C   0  0  0  0  0  0  0  0  0  0  0  0
  -20.3087   11.2665    9.0439 C   0  0  0  0  0  0  0  0  0  0  0  0
  -19.2558   10.3654    9.1654 C   0  0  0  0  0  0  0  0  0  0  0  0
  -17.9764   10.8137    9.5367 N   0  0  0  0  0  0  0  0  0  0  0  0
  -20.7585   14.9462    9.2786 C   0  0  0  0  0  0  0  0  0  0  0  0
  -21.1009   13.5181    9.1428 N   0  0  0  0  0  0  0  0  0  0  0  0
  -22.4650   13.0790    8.7513 C   0  0  0  0  0  0  0  0  0  0  0  0
  -16.5610    6.8610    4.8158 C   0  0  0  0  0  0  0  0  0  0  0  0
  -17.7382    5.9047    4.5859 C   0  0  0  0  0  0  0  0  0  0  0  0
  -18.7085    6.5163    3.7639 C   0  0  0  0  0  0  0  0  0  0  0  0
  -19.8701    7.0803    4.3097 C   0  0  0  0  0  0  0  0  0  0  0  0
  -20.8255    7.6835    3.4861 C   0  0  0  0  0  0  0  0  0  0  0  0
  -20.6278    7.7226    2.1021 C   0  0  0  0  0  0  0  0  0  0  0  0
  -19.4762    7.1566    1.5547 C   0  0  0  0  0  0  0  0  0  0  0  0
  -18.5215    6.5572    2.3817 C   0  0  0  0  0  0  0  0  0  0  0  0
 14 15  1  0  0  0
 15 16  1  0  0  0
 15  8  1  0  0  0
  8  9  2  0  0  0
  8 11  1  0  0  0
  9 10  1  0  0  0
 10 13  2  0  0  0
 11 12  2  0  0  0
 12 13  1  0  0  0
 13  7  1  0  0  0
  7  1  1  0  0  0
  1  2  1  0  0  0
  1  4  2  0  0  0
  2  3  2  0  0  0
  3  6  1  0  0  0
  4  5  1  0  0  0
  5  6  2  0  0  0
  6 17  1  0  0  0
 17 18  1  0  0  0
 18 19  1  0  0  0
 19 20  1  0  0  0
 19 24  2  0  0  0
 20 21  2  0  0  0
 21 22  1  0  0  0
 22 23  2  0  0  0
 23 24  1  0  0  0
M  CHG 1  13   1
M  END
> <minimizedAffinity>
-9.54742

$$$$
4CGA_QLW_A_0


 24 26  0  0  0  0  0  0  0  0999 V2000
  -17.6415    6.5571    3.2438 C   0  0  0  0  0  0  0  0  0  0  0  0
  -16.5291    7.2001    3.7862 C   0  0  0  0  0  0  0  0  0  0  0  0
  -16.3391    7.2859    5.1754 C   0  0  0  0  0  0  0  0  0  0  0  0
  -18.5631    5.9842    4.1258 C   0  0  0  0  0  0  0  0  0  0  0  0
  -18.3814    6.0500    5.5140 C   0  0  0  0  0  0  0  0  0  0  0  0
  -17.2609    6.6910    6.0512 C   0  0  0  0  0  0  0  0  0  0  0  0
  -17.8318    6.4861    1.8293 C   0  0  0  0  0  0  0  0  0  0  0  0
  -14.8738    3.9677    0.0537 C   0  0  0  0  0  0  0  0  0  0  0  0
  -15.9343    3.4166    0.7877 C   0  0  0  0  0  0  0  0  0  0  0  0
  -16.9051    4.2084    1.3880 C   0  0  0  0  0  0  0  0  0  0  0  0
  -14.7995    5.3494   -0.0806 C   0  0  0  0  0  0  0  0  0  0  0  0
  -15.7637    6.1647    0.5032 C   0  0  0  0  0  0  0  0  0  0  0  0
  -16.8192    5.6006    1.2404 N   0  0  0  0  0  0  0  0  0  0  0  0
  -14.4554    2.2121   -1.5519 C   0  0  0  0  0  0  0  0  0  0  0  0
  -13.9690    3.1543   -0.5268 N   0  0  0  0  0  0  0  0  0  0  0  0
  -12.5218    3.2925   -0.2213 C   0  0  0  0  0  0  0  0  0  0  0  0
  -17.0986    6.7834    7.4525 C   0  0  0  0  0  0  0  0  0  0  0  0
  -16.4447    8.0820    7.9415 C   0  0  0  0  0  0  0  0  0  0  0  0
  -17.4341    8.9990    8.3553 C   0  0  0  0  0  0  0  0  0  0  0  0
  -17.7358    9.1769    9.7128 C   0  0  0  0  0  0  0  0  0  0  0  0
  -18.7185   10.0879   10.1121 C   0  0  0  0  0  0  0  0  0  0  0  0
  -19.4145   10.8281    9.1510 C   0  0  0  0  0  0  0  0  0  0  0  0
  -19.1215   10.6491    7.7988 C   0  0  0  0  0  0  0  0  0  0  0  0
  -18.1360    9.7396    7.4035 C   0  0  0  0  0  0  0  0  0  0  0  0
 14 15  1  0  0  0
 15 16  1  0  0  0
 15  8  1  0  0  0
  8  9  2  0  0  0
  8 11  1  0  0  0
  9 10  1  0  0  0
 10 13  2  0  0  0
 11 12  2  0  0  0
 12 13  1  0  0  0
 13  7  1  0  0  0
  7  1  1  0  0  0
  1  2  1  0  0  0
  1  4  2  0  0  0
  2  3  2  0  0  0
  3  6  1  0  0  0
  4  5  1  0  0  0
  5  6  2  0  0  0
  6 17  1  0  0  0
 17 18  1  0  0  0
 18 19  1  0  0  0
 19 20  1  0  0  0
 19 24  2  0  0  0
 20 21  2  0  0  0
 21 22  1  0  0  0
 22 23  2  0  0  0
 23 24  1  0  0  0
M  CHG 1  13   1
M  END
> <minimizedAffinity>
-9.37733

$$$$
4CGA_QLW_A_0


 24 26  0  0  0  0  0  0  0  0999 V2000
  -16.6825    7.4897    5.9600 C   0  0  0  0  0  0  0  0  0  0  0  0
  -16.3465    8.8414    5.8883 C   0  0  0  0  0  0  0  0  0  0  0  0
  -16.3279    9.6523    7.0352 C   0  0  0  0  0  0  0  0  0  0  0  0
  -16.9900    6.9558    7.2153 C   0  0  0  0  0  0  0  0  0  0  0  0
  -16.9637    7.7484    8.3709 C   0  0  0  0  0  0  0  0  0  0  0  0
  -16.6202    9.1015    8.2928 C   0  0  0  0  0  0  0  0  0  0  0  0
  -16.7105    6.6764    4.7854 C   0  0  0  0  0  0  0  0  0  0  0  0
  -19.7235    8.1330    2.1311 C   0  0  0  0  0  0  0  0  0  0  0  0
  -20.0731    7.4120    3.2822 C   0  0  0  0  0  0  0  0  0  0  0  0
  -19.1172    6.9141    4.1587 C   0  0  0  0  0  0  0  0  0  0  0  0
  -18.3777    8.3600    1.8663 C   0  0  0  0  0  0  0  0  0  0  0  0
  -17.4008    7.8798    2.7325 C   0  0  0  0  0  0  0  0  0  0  0  0
  -17.7636    7.1545    3.8806 N   0  0  0  0  0  0  0  0  0  0  0  0
  -21.8315    9.2996    1.9571 C   0  0  0  0  0  0  0  0  0  0  0  0
  -20.6904    8.6128    1.3236 N   0  0  0  0  0  0  0  0  0  0  0  0
  -20.5433    8.5491   -0.1533 C   0  0  0  0  0  0  0  0  0  0  0  0
  -16.6267    9.9046    9.4562 C   0  0  0  0  0  0  0  0  0  0  0  0
  -17.9461    9.8951   10.2387 C   0  0  0  0  0  0  0  0  0  0  0  0
  -18.7417   10.9987    9.8643 C   0  0  0  0  0  0  0  0  0  0  0  0
  -18.2230   12.3012    9.8682 C   0  0  0  0  0  0  0  0  0  0  0  0
  -19.0202   13.3879    9.4959 C   0  0  0  0  0  0  0  0  0  0  0  0
  -20.3512   13.1796    9.1199 C   0  0  0  0  0  0  0  0  0  0  0  0
  -20.8726   11.8856    9.1211 C   0  0  0  0  0  0  0  0  0  0  0  0
  -20.0715   10.8011    9.4908 C   0  0  0  0  0  0  0  0  0  0  0  0
 14 15  1  0  0  0
 15 16  1  0  0  0
 15  8  1  0  0  0
  8  9  2  0  0  0
  8 11  1  0  0  0
  9 10  1  0  0  0
 10 13  2  0  0  0
 11 12  2  0  0  0
 12 13  1  0  0  0
 13  7  1  0  0  0
  7  1  1  0  0  0
  1  2  1  0  0  0
  1  4  2  0  0  0
  2  3  2  0  0  0
  3  6  1  0  0  0
  4  5  1  0  0  0
  5  6  2  0  0  0
  6 17  1  0  0  0
 17 18  1  0  0  0
 18 19  1  0  0  0
 19 20  1  0  0  0
 19 24  2  0  0  0
 20 21  2  0  0  0
 21 22  1  0  0  0
 22 23  2  0  0  0
 23 24  1  0  0  0
M  CHG 1  13   1
M  END
> <minimizedAffinity>
-9.15453

$$$$
4CGA_QLW_A_0


 24 26  0  0  0  0  0  0  0  0999 V2000
  -17.3689    6.2340    3.5201 C   0  0  0  0  0  0  0  0  0  0  0  0
  -18.4095    5.8607    4.3703 C   0  0  0  0  0  0  0  0  0  0  0  0
  -18.3373    6.0819    5.7556 C   0  0  0  0  0  0  0  0  0  0  0  0
  -16.2488    6.8511    4.0858 C   0  0  0  0  0  0  0  0  0  0  0  0
  -16.1668    7.0905    5.4643 C   0  0  0  0  0  0  0  0  0  0  0  0
  -17.2163    6.7190    6.3104 C   0  0  0  0  0  0  0  0  0  0  0  0
  -17.4469    5.9932    2.1137 C   0  0  0  0  0  0  0  0  0  0  0  0
  -19.4989    9.2008    0.1782 C   0  0  0  0  0  0  0  0  0  0  0  0
  -18.1211    9.2812    0.4277 C   0  0  0  0  0  0  0  0  0  0  0  0
  -17.4269    8.2612    1.0661 C   0  0  0  0  0  0  0  0  0  0  0  0
  -20.1861    8.0603    0.5777 C   0  0  0  0  0  0  0  0  0  0  0  0
  -19.5131    7.0205    1.2111 C   0  0  0  0  0  0  0  0  0  0  0  0
  -18.1329    7.1149    1.4597 N   0  0  0  0  0  0  0  0  0  0  0  0
  -21.4713    9.9489   -0.9986 C   0  0  0  0  0  0  0  0  0  0  0  0
  -20.1219   10.2094   -0.4635 N   0  0  0  0  0  0  0  0  0  0  0  0
  -19.5101   11.5619   -0.5208 C   0  0  0  0  0  0  0  0  0  0  0  0
  -17.1152    6.9328    7.7041 C   0  0  0  0  0  0  0  0  0  0  0  0
  -16.5294    8.2922    8.1069 C   0  0  0  0  0  0  0  0  0  0  0  0
  -17.5668    9.1916    8.4327 C   0  0  0  0  0  0  0  0  0  0  0  0
  -18.2566    9.8951    7.4353 C   0  0  0  0  0  0  0  0  0  0  0  0
  -19.2826   10.7844    7.7691 C   0  0  0  0  0  0  0  0  0  0  0  0
  -19.6247   10.9821    9.1108 C   0  0  0  0  0  0  0  0  0  0  0  0
  -18.9361   10.2887   10.1063 C   0  0  0  0  0  0  0  0  0  0  0  0
  -17.9129    9.3977    9.7686 C   0  0  0  0  0  0  0  0  0  0  0  0
 14 15  1  0  0  0
 15 16  1  0  0  0
 15  8  1  0  0  0
  8  9  2  0  0  0
  8 11  1  0  0  0
  9 10  1  0  0  0
 10 13  2  0  0  0
 11 12  2  0  0  0
 12 13  1  0  0  0
 13  7  1  0  0  0
  7  1  1  0  0  0
  1  2  1  0  0  0
  1  4  2  0  0  0
  2  3  2  0  0  0
  3  6  1  0  0  0
  4  5  1  0  0  0
  5  6  2  0  0  0
  6 17  1  0  0  0
 17 18  1  0  0  0
 18 19  1  0  0  0
 19 20  1  0  0  0
 19 24  2  0  0  0
 20 21  2  0  0  0
 21 22  1  0  0  0
 22 23  2  0  0  0
 23 24  1  0  0  0
M  CHG 1  13   1
M  END
> <minimizedAffinity>
-9.13196

$$$$
4CGA_QLW_A_0


 24 26  0  0  0  0  0  0  0  0999 V2000
  -17.4077    6.2707    3.6420 C   0  0  0  0  0  0  0  0  0  0  0  0
  -16.2766    6.8860    4.1778 C   0  0  0  0  0  0  0  0  0  0  0  0
  -16.1680    7.1456    5.5541 C   0  0  0  0  0  0  0  0  0  0  0  0
  -18.4331    5.9042    4.5194 C   0  0  0  0  0  0  0  0  0  0  0  0
  -18.3346    6.1446    5.8967 C   0  0  0  0  0  0  0  0  0  0  0  0
  -17.1952    6.7566    6.4282 C   0  0  0  0  0  0  0  0  0  0  0  0
  -17.5136    6.0222    2.2387 C   0  0  0  0  0  0  0  0  0  0  0  0
  -19.5405    9.3052    0.4060 C   0  0  0  0  0  0  0  0  0  0  0  0
  -20.2199    8.1095    0.6808 C   0  0  0  0  0  0  0  0  0  0  0  0
  -19.5868    7.0193    1.2644 C   0  0  0  0  0  0  0  0  0  0  0  0
  -18.1933    9.4007    0.7356 C   0  0  0  0  0  0  0  0  0  0  0  0
  -17.5376    8.3267    1.3288 C   0  0  0  0  0  0  0  0  0  0  0  0
  -18.2283    7.1318    1.5951 N   0  0  0  0  0  0  0  0  0  0  0  0
  -21.4688   10.0473   -0.8454 C   0  0  0  0  0  0  0  0  0  0  0  0
  -20.2061   10.3413   -0.1424 N   0  0  0  0  0  0  0  0  0  0  0  0
  -19.7356   11.7356    0.0613 C   0  0  0  0  0  0  0  0  0  0  0  0
  -17.1144    7.0267    7.8134 C   0  0  0  0  0  0  0  0  0  0  0  0
  -16.5667    8.4148    8.1687 C   0  0  0  0  0  0  0  0  0  0  0  0
  -17.6297    9.3032    8.4369 C   0  0  0  0  0  0  0  0  0  0  0  0
  -18.0478    9.5581    9.7505 C   0  0  0  0  0  0  0  0  0  0  0  0
  -19.1027   10.4398   10.0053 C   0  0  0  0  0  0  0  0  0  0  0  0
  -19.7545   11.0727    8.9418 C   0  0  0  0  0  0  0  0  0  0  0  0
  -19.3453   10.8164    7.6329 C   0  0  0  0  0  0  0  0  0  0  0  0
  -18.2880    9.9367    7.3822 C   0  0  0  0  0  0  0  0  0  0  0  0
 14 15  1  0  0  0
 15 16  1  0  0  0
 15  8  1  0  0  0
  8  9  2  0  0  0
  8 11  1  0  0  0
  9 10  1  0  0  0
 10 13  2  0  0  0
 11 12  2  0  0  0
 12 13  1  0  0  0
 13  7  1  0  0  0
  7  1  1  0  0  0
  1  2  1  0  0  0
  1  4  2  0  0  0
  2  3  2  0  0  0
  3  6  1  0  0  0
  4  5  1  0  0  0
  5  6  2  0  0  0
  6 17  1  0  0  0
 17 18  1  0  0  0
 18 19  1  0  0  0
 19 20  1  0  0  0
 19 24  2  0  0  0
 20 21  2  0  0  0
 21 22  1  0  0  0
 22 23  2  0  0  0
 23 24  1  0  0  0
M  CHG 1  13   1
M  END
> <minimizedAffinity>
-9.06150

$$$$
4CGA_QLW_A_0


 24 26  0  0  0  0  0  0  0  0999 V2000
  -17.2689    6.2952    3.4812 C   0  0  0  0  0  0  0  0  0  0  0  0
  -18.3162    5.8571    4.2913 C   0  0  0  0  0  0  0  0  0  0  0  0
  -18.2901    6.0411    5.6836 C   0  0  0  0  0  0  0  0  0  0  0  0
  -16.1900    6.9394    4.0948 C   0  0  0  0  0  0  0  0  0  0  0  0
  -16.1548    7.1422    5.4811 C   0  0  0  0  0  0  0  0  0  0  0  0
  -17.2108    6.7056    6.2869 C   0  0  0  0  0  0  0  0  0  0  0  0
  -17.2995    6.0920    2.0670 C   0  0  0  0  0  0  0  0  0  0  0  0
  -17.5153    9.8657    0.0776 C   0  0  0  0  0  0  0  0  0  0  0  0
  -18.4891    9.4963    1.0168 C   0  0  0  0  0  0  0  0  0  0  0  0
  -18.4546    8.2716    1.6716 C   0  0  0  0  0  0  0  0  0  0  0  0
  -16.4812    8.9785   -0.1987 C   0  0  0  0  0  0  0  0  0  0  0  0
  -16.4183    7.7493    0.4496 C   0  0  0  0  0  0  0  0  0  0  0  0
  -17.4030    7.3886    1.3856 N   0  0  0  0  0  0  0  0  0  0  0  0
  -16.3566   11.5946   -1.1484 C   0  0  0  0  0  0  0  0  0  0  0  0
  -17.5827   11.0746   -0.5150 N   0  0  0  0  0  0  0  0  0  0  0  0
  -18.8782   11.7939   -0.6211 C   0  0  0  0  0  0  0  0  0  0  0  0
  -17.1558    6.8832    7.6883 C   0  0  0  0  0  0  0  0  0  0  0  0
  -16.5433    8.2131    8.1460 C   0  0  0  0  0  0  0  0  0  0  0  0
  -17.5634    9.1372    8.4564 C   0  0  0  0  0  0  0  0  0  0  0  0
  -18.2233    9.8546    7.4487 C   0  0  0  0  0  0  0  0  0  0  0  0
  -19.2324   10.7685    7.7672 C   0  0  0  0  0  0  0  0  0  0  0  0
  -19.5876   10.9770    9.1038 C   0  0  0  0  0  0  0  0  0  0  0  0
  -18.9287   10.2696   10.1097 C   0  0  0  0  0  0  0  0  0  0  0  0
  -17.9223    9.3542    9.7873 C   0  0  0  0  0  0  0  0  0  0  0  0
 14 15  1  0  0  0
 15 16  1  0  0  0
 15  8  1  0  0  0
  8  9  2  0  0  0
  8 11  1  0  0  0
  9 10  1  0  0  0
 10 13  2  0  0  0
 11 12  2  0  0  0
 12 13  1  0  0  0
 13  7  1  0  0  0
  7  1  1  0  0  0
  1  2  1  0  0  0
  1  4  2  0  0  0
  2  3  2  0  0  0
  3  6  1  0  0  0
  4  5  1  0  0  0
  5  6  2  0  0  0
  6 17  1  0  0  0
 17 18  1  0  0  0
 18 19  1  0  0  0
 19 20  1  0  0  0
 19 24  2  0  0  0
 20 21  2  0  0  0
 21 22  1  0  0  0
 22 23  2  0  0  0
 23 24  1  0  0  0
M  CHG 1  13   1
M  END
> <minimizedAffinity>
-8.95526

$$$$
4CGA_QLW_A_0


 24 26  0  0  0  0  0  0  0  0999 V2000
  -17.2576    6.2415    3.6943 C   0  0  0  0  0  0  0  0  0  0  0  0
  -16.1736    6.9179    4.2534 C   0  0  0  0  0  0  0  0  0  0  0  0
  -16.1275    7.2186    5.6247 C   0  0  0  0  0  0  0  0  0  0  0  0
  -18.2993    5.8559    4.5438 C   0  0  0  0  0  0  0  0  0  0  0  0
  -18.2625    6.1370    5.9164 C   0  0  0  0  0  0  0  0  0  0  0  0
  -17.1700    6.8103    6.4715 C   0  0  0  0  0  0  0  0  0  0  0  0
  -17.3004    5.9514    2.2957 C   0  0  0  0  0  0  0  0  0  0  0  0
  -14.8508    8.7581    0.2059 C   0  0  0  0  0  0  0  0  0  0  0  0
  -16.1615    9.0912    0.5775 C   0  0  0  0  0  0  0  0  0  0  0  0
  -16.9878    8.1971    1.2465 C   0  0  0  0  0  0  0  0  0  0  0  0
  -14.3651    7.4951    0.5249 C   0  0  0  0  0  0  0  0  0  0  0  0
  -15.1689    6.5839    1.2022 C   0  0  0  0  0  0  0  0  0  0  0  0
  -16.4825    6.9281    1.5653 N   0  0  0  0  0  0  0  0  0  0  0  0
  -13.5619    9.3194   -1.7585 C   0  0  0  0  0  0  0  0  0  0  0  0
  -14.0824    9.6693   -0.4237 N   0  0  0  0  0  0  0  0  0  0  0  0
  -13.8718   11.0171    0.1645 C   0  0  0  0  0  0  0  0  0  0  0  0
  -17.1524    7.1205    7.8506 C   0  0  0  0  0  0  0  0  0  0  0  0
  -16.6316    8.5231    8.1893 C   0  0  0  0  0  0  0  0  0  0  0  0
  -17.7123    9.4024    8.4128 C   0  0  0  0  0  0  0  0  0  0  0  0
  -18.3437   10.0608    7.3482 C   0  0  0  0  0  0  0  0  0  0  0  0
  -19.4134   10.9307    7.5808 C   0  0  0  0  0  0  0  0  0  0  0  0
  -19.8588   11.1539    8.8877 C   0  0  0  0  0  0  0  0  0  0  0  0
  -19.2288   10.5055    9.9501 C   0  0  0  0  0  0  0  0  0  0  0  0
  -18.1615    9.6339    9.7135 C   0  0  0  0  0  0  0  0  0  0  0  0
 14 15  1  0  0  0
 15 16  1  0  0  0
 15  8  1  0  0  0
  8  9  2  0  0  0
  8 11  1  0  0  0
  9 10  1  0  0  0
 10 13  2  0  0  0
 11 12  2  0  0  0
 12 13  1  0  0  0
 13  7  1  0  0  0
  7  1  1  0  0  0
  1  2  1  0  0  0
  1  4  2  0  0  0
  2  3  2  0  0  0
  3  6  1  0  0  0
  4  5  1  0  0  0
  5  6  2  0  0  0
  6 17  1  0  0  0
 17 18  1  0  0  0
 18 19  1  0  0  0
 19 20  1  0  0  0
 19 24  2  0  0  0
 20 21  2  0  0  0
 21 22  1  0  0  0
 22 23  2  0  0  0
 23 24  1  0  0  0
M  CHG 1  13   1
M  END
> <minimizedAffinity>
-8.85938

$$$$
4CGA_QLW_A_0


 24 26  0  0  0  0  0  0  0  0999 V2000
  -16.7504    8.5628    7.2436 C   0  0  0  0  0  0  0  0  0  0  0  0
  -17.4262    7.3429    7.2257 C   0  0  0  0  0  0  0  0  0  0  0  0
  -17.5030    6.5664    6.0577 C   0  0  0  0  0  0  0  0  0  0  0  0
  -16.1353    8.9895    6.0625 C   0  0  0  0  0  0  0  0  0  0  0  0
  -16.1919    8.2204    4.8922 C   0  0  0  0  0  0  0  0  0  0  0  0
  -16.8660    6.9954    4.8827 C   0  0  0  0  0  0  0  0  0  0  0  0
  -16.6888    9.3511    8.4339 C   0  0  0  0  0  0  0  0  0  0  0  0
  -20.0112   12.0331    8.5493 C   0  0  0  0  0  0  0  0  0  0  0  0
  -19.0831   12.0901    7.4994 C   0  0  0  0  0  0  0  0  0  0  0  0
  -17.9854   11.2408    7.4392 C   0  0  0  0  0  0  0  0  0  0  0  0
  -19.8270   11.0915    9.5554 C   0  0  0  0  0  0  0  0  0  0  0  0
  -18.7409   10.2232    9.5144 C   0  0  0  0  0  0  0  0  0  0  0  0
  -17.8149   10.2932    8.4592 N   0  0  0  0  0  0  0  0  0  0  0  0
  -20.8426   14.2627    8.9650 C   0  0  0  0  0  0  0  0  0  0  0  0
  -21.0712   12.8660    8.5503 N   0  0  0  0  0  0  0  0  0  0  0  0
  -22.3902   12.4122    8.0392 C   0  0  0  0  0  0  0  0  0  0  0  0
  -16.9482    6.2387    3.6914 C   0  0  0  0  0  0  0  0  0  0  0  0
  -15.7452    6.3847    2.7508 C   0  0  0  0  0  0  0  0  0  0  0  0
  -15.7380    5.3382    1.8042 C   0  0  0  0  0  0  0  0  0  0  0  0
  -14.6201    4.5061    1.6515 C   0  0  0  0  0  0  0  0  0  0  0  0
  -14.6231    3.4724    0.7101 C   0  0  0  0  0  0  0  0  0  0  0  0
  -15.7486    3.2651   -0.0939 C   0  0  0  0  0  0  0  0  0  0  0  0
  -16.8605    4.0952    0.0508 C   0  0  0  0  0  0  0  0  0  0  0  0
  -16.8551    5.1259    0.9954 C   0  0  0  0  0  0  0  0  0  0  0  0
 14 15  1  0  0  0
 15 16  1  0  0  0
 15  8  1  0  0  0
  8  9  2  0  0  0
  8 11  1  0  0  0
  9 10  1  0  0  0
 10 13  2  0  0  0
 11 12  2  0  0  0
 12 13  1  0  0  0
 13  7  1  0  0  0
  7  1  1  0  0  0
  1  2  1  0  0  0
  1  4  2  0  0  0
  2  3  2  0  0  0
  3  6  1  0  0  0
  4  5  1  0  0  0
  5  6  2  0  0  0
  6 17  1  0  0  0
 17 18  1  0  0  0
 18 19  1  0  0  0
 19 20  1  0  0  0
 19 24  2  0  0  0
 20 21  2  0  0  0
 21 22  1  0  0  0
 22 23  2  0  0  0
 23 24  1  0  0  0
M  CHG 1  13   1
M  END
> <minimizedAffinity>
-8.77185

$$$$
