1O0H_ADP_A_1125
  RCSB PDB12061703293D
Coordinates from PDB:1O0H:A:1125 Model:1 without hydrogens
 27 29  0  0  0  0            999 V2000
   36.3960    3.6770   13.0870   P 0  0  0  0  0  0  0  0  0  0  0  0
   34.8920    3.6930   13.2380   O 0  0  0  0  0  0  0  0  0  0  0  0
   36.8630    2.8290   11.9540   O 0  0  0  0  0  0  0  0  0  0  0  0
   37.0960    3.4210   14.4010   O 0  0  0  0  0  0  0  0  0  0  0  0
   37.9000    6.2210   13.0920   P 0  0  0  0  0  0  0  0  0  0  0  0
   38.0310    7.1920   11.9400   O 0  0  0  0  0  0  0  0  0  0  0  0
   39.1520    5.4990   13.5040   O 0  0  0  0  0  0  0  0  0  0  0  0
   36.7340    5.1870   12.6700   O 0  0  0  0  0  0  0  0  0  0  0  0
   37.2930    7.0740   14.2970   O 0  0  0  0  0  0  0  0  0  0  0  0
   36.8400    6.4500   15.4990   C 0  0  0  0  0  0  0  0  0  0  0  0
   36.7120    7.5500   16.5400   C 0  0  0  0  0  0  0  0  0  0  0  0
   35.9760    7.0030   17.6310   O 0  0  0  0  0  0  0  0  0  0  0  0
   37.9990    8.0950   17.1610   C 0  0  0  0  0  0  0  0  0  0  0  0
   37.8500    9.4950   17.3490   O 0  0  0  0  0  0  0  0  0  0  0  0
   38.0980    7.4020   18.5040   C 0  0  0  0  0  0  0  0  0  0  0  0
   38.8770    8.0660   19.4910   O 0  0  0  0  0  0  0  0  0  0  0  0
   36.6210    7.3530   18.8410   C 0  0  0  0  0  0  0  0  0  0  0  0
   36.2750    6.3700   19.8890   N 0  0  0  0  0  0  0  0  0  0  0  0
   35.4190    6.6700   20.9000   C 0  0  0  0  0  0  0  0  0  0  0  0
   35.2130    5.6310   21.7470   N 0  0  0  0  0  0  0  0  0  0  0  0
   35.9970    4.6910   21.2370   C 0  0  0  0  0  0  0  0  0  0  0  0
   36.2450    3.3380   21.6560   C 0  0  0  0  0  0  0  0  0  0  0  0
   35.6560    2.8700   22.7770   N 0  0  0  0  0  0  0  0  0  0  0  0
   37.0910    2.6100   20.9220   N 0  0  0  0  0  0  0  0  0  0  0  0
   37.6800    3.1030   19.8200   C 0  0  0  0  0  0  0  0  0  0  0  0
   37.5120    4.3400   19.3410   N 0  0  0  0  0  0  0  0  0  0  0  0
   36.6900    5.1170   20.0300   C 0  0  0  0  0  0  0  0  0  0  0  0
  1  2  2  0  0  0  0
  1  3  1  0  0  0  0
  1  4  1  0  0  0  0
  1  8  1  0  0  0  0
  5  6  2  0  0  0  0
  5  7  1  0  0  0  0
  5  8  1  0  0  0  0
  5  9  1  0  0  0  0
  9 10  1  0  0  0  0
 10 11  1  0  0  0  0
 11 12  1  0  0  0  0
 11 13  1  0  0  0  0
 12 17  1  0  0  0  0
 13 14  1  0  0  0  0
 13 15  1  0  0  0  0
 15 16  1  0  0  0  0
 15 17  1  0  0  0  0
 17 18  1  0  0  0  0
 18 19  1  0  0  0  0
 18 27  1  0  0  0  0
 19 20  2  0  0  0  0
 20 21  1  0  0  0  0
 21 22  1  0  0  0  0
 21 27  2  0  0  0  0
 22 23  1  0  0  0  0
 22 24  2  0  0  0  0
 24 25  1  0  0  0  0
 25 26  2  0  0  0  0
 26 27  1  0  0  0  0
A    1
PB
A    2
O1B
A    3
O2B
A    4
O3B
A    5
PA
A    6
O1A
A    7
O2A
A    8
O3A
A    9
O5'
A   10
C5'
A   11
C4'
A   12
O4'
A   13
C3'
A   14
O3'
A   15
C2'
A   16
O2'
A   17
C1'
A   18
N9
A   19
C8
A   20
N7
A   21
C5
A   22
C6
A   23
N6
A   24
N1
A   25
C2
A   26
N3
A   27
C4
M  END
>  <InstanceId>
1O0H_ADP_A_1125

>  <ChemCompId>
ADP

>  <PdbId>
1O0H

>  <ChainId>
A

>  <ResidueNumber>
1125

>  <InsertionCode>


>  <Model>
1

>  <AltIds>


>  <MissingHeavyAtoms>
0

>  <ObservedFormula>
C10 N5 O10 P2

>  <Name>
ADENOSINE-5'-DIPHOSPHATE

>  <SystematicName>
[(2R,3S,4R,5R)-5-(6-aminopurin-9-yl)-3,4-dihydroxy-oxolan-2-yl]methyl phosphono hydrogen phosphate

>  <Synonyms>


>  <Type>
NON-POLYMER

>  <Formula>
C10 H15 N5 O10 P2

>  <MolecularWeight>
427.201

>  <ModifiedDate>
2011-06-04

>  <Parent>
A

>  <OneLetterCode>


>  <SubcomponentList>


>  <AmbiguousFlag>
N

>  <InChI>
InChI=1S/C10H15N5O10P2/c11-8-5-9(13-2-12-8)15(3-14-5)10-7(17)6(16)4(24-10)1-23-27(21,22)25-26(18,19)20/h2-4,6-7,10,16-17H,1H2,(H,21,22)(H2,11,12,13)(H2,18,19,20)/t4-,6-,7-,10-/m1/s1

>  <InChIKey>
XTWYTFMLZFPYCI-KQYNXXCUSA-N

>  <SMILES>
c1nc(c2c(n1)n(cn2)[C@H]3[C@@H]([C@@H]([C@H](O3)CO[P@](=O)(O)OP(=O)(O)O)O)O)N

$$$$
