4ZW6_4SY_A_1101


 28 29  0  0  0  0  0  0  0  0999 V2000
   88.4072  120.2626  131.2869 C   0  0  0  0  0  0  0  0  0  0  0  0
   88.1047  120.3952  132.7582 C   0  0  0  0  0  0  0  0  0  0  0  0
   88.3804  119.3454  133.6322 C   0  0  0  0  0  0  0  0  0  0  0  0
   88.0773  119.5023  134.9795 C   0  0  0  0  0  0  0  0  0  0  0  0
   87.5102  121.5741  133.1992 C   0  0  0  0  0  0  0  0  0  0  0  0
   87.2029  121.7280  134.5432 C   0  0  0  0  0  0  0  0  0  0  0  0
   87.5067  120.6907  135.4233 C   0  0  0  0  0  0  0  0  0  0  0  0
   87.1377  120.8265  136.9046 C   0  0  0  0  0  0  0  0  0  0  0  0
   87.6746  121.8217  137.7263 C   0  0  0  0  0  0  0  0  0  0  0  0
   86.2887  120.0326  137.6748 C   0  0  0  0  0  0  0  0  0  0  0  0
   86.2984  120.5581  138.9633 N   0  0  0  0  0  0  0  0  0  0  0  0
   87.1449  121.6527  138.9926 N   0  0  0  0  0  0  0  0  0  0  0  0
   87.4558  122.4995  140.1479 C   0  0  0  0  0  0  0  0  0  0  0  0
   87.4783  121.0820  130.4302 C   0  0  0  0  0  0  0  0  0  0  0  0
   87.8935  121.6614  129.4235 O   0  0  0  0  0  0  0  0  0  0  0  0
   86.1947  121.1974  130.7772 N   0  0  0  0  0  0  0  0  0  0  0  0
   85.3190  121.9950  129.9440 O   0  0  0  0  0  0  0  0  0  0  0  0
   85.8502  120.7493  131.5833 H   0  0  0  0  0  0  0  0  0  0  0  0
   85.8235  122.3583  129.1994 H   0  0  0  0  0  0  0  0  0  0  0  0
   90.6998  119.7719  130.6686 C   0  0  0  0  0  0  0  0  0  0  0  0
   91.8062  120.1710  130.2852 O   0  0  0  0  0  0  0  0  0  0  0  0
   89.7789  120.6591  131.0896 N   0  0  0  0  0  0  0  0  0  0  0  0
   90.0457  121.5904  131.2650 H   0  0  0  0  0  0  0  0  0  0  0  0
   90.2071  118.4911  130.2893 O   0  0  0  0  0  0  0  0  0  0  0  0
   91.0257  116.3097  129.6828 C   0  0  0  0  0  0  0  0  0  0  0  0
   90.7382  117.2605  130.8839 C   0  0  0  0  0  0  0  0  0  0  0  0
   92.0189  117.4940  131.6073 C   0  0  0  0  0  0  0  0  0  0  0  0
   89.6873  116.5826  131.8422 C   0  0  0  0  0  0  0  0  0  0  0  0
 27 26  1  0  0  0
 25 26  1  0  0  0
 26 28  1  0  0  0
 26 24  1  0  0  0
 17 16  1  0  0  0
 24 20  1  0  0  0
 16 14  1  0  0  0
 15 14  2  0  0  0
 21 20  2  0  0  0
 14  1  1  0  0  0
 20 22  1  0  0  0
 22  1  1  0  0  0
  1  2  1  0  0  0
  2  3  2  0  0  0
  2  5  1  0  0  0
  3  4  1  0  0  0
  5  6  2  0  0  0
  4  7  2  0  0  0
  6  7  1  0  0  0
  7  8  1  0  0  0
  8 10  1  0  0  0
  8  9  2  0  0  0
 10 11  2  0  0  0
  9 12  1  0  0  0
 11 12  1  0  0  0
 12 13  1  0  0  0
 22 23  1  0  0  0
 16 18  1  0  0  0
 17 19  1  0  0  0
M  END
> <minimizedAffinity>
-10.32512

$$$$
4ZW6_4SY_A_1101


 28 29  0  0  0  0  0  0  0  0999 V2000
   88.9489  120.0625  131.0075 C   0  0  0  0  0  0  0  0  0  0  0  0
   88.6127  120.3195  132.4548 C   0  0  0  0  0  0  0  0  0  0  0  0
   88.5210  119.2608  133.3562 C   0  0  0  0  0  0  0  0  0  0  0  0
   88.1985  119.5376  134.6795 C   0  0  0  0  0  0  0  0  0  0  0  0
   88.3606  121.6321  132.8437 C   0  0  0  0  0  0  0  0  0  0  0  0
   88.0333  121.9072  134.1634 C   0  0  0  0  0  0  0  0  0  0  0  0
   87.9719  120.8525  135.0726 C   0  0  0  0  0  0  0  0  0  0  0  0
   87.5723  121.1321  136.5256 C   0  0  0  0  0  0  0  0  0  0  0  0
   86.3825  120.6566  137.0842 C   0  0  0  0  0  0  0  0  0  0  0  0
   88.2424  121.8808  137.4924 C   0  0  0  0  0  0  0  0  0  0  0  0
   87.4642  121.8454  138.6455 N   0  0  0  0  0  0  0  0  0  0  0  0
   86.3285  121.0953  138.3947 N   0  0  0  0  0  0  0  0  0  0  0  0
   85.2359  120.8059  139.3280 C   0  0  0  0  0  0  0  0  0  0  0  0
   88.0705  120.8406  130.0635 C   0  0  0  0  0  0  0  0  0  0  0  0
   88.5277  121.3136  129.0201 O   0  0  0  0  0  0  0  0  0  0  0  0
   86.7866  121.0364  130.3712 N   0  0  0  0  0  0  0  0  0  0  0  0
   85.9600  121.7928  129.4537 O   0  0  0  0  0  0  0  0  0  0  0  0
   86.4092  120.6739  131.2051 H   0  0  0  0  0  0  0  0  0  0  0  0
   86.4927  122.0699  128.6919 H   0  0  0  0  0  0  0  0  0  0  0  0
   91.2187  119.4779  130.3866 C   0  0  0  0  0  0  0  0  0  0  0  0
   92.3432  119.8322  130.0120 O   0  0  0  0  0  0  0  0  0  0  0  0
   90.3377  120.3993  130.8194 N   0  0  0  0  0  0  0  0  0  0  0  0
   90.6460  121.3147  131.0098 H   0  0  0  0  0  0  0  0  0  0  0  0
   90.6696  118.2267  129.9864 O   0  0  0  0  0  0  0  0  0  0  0  0
   92.1752  117.3582  131.6523 C   0  0  0  0  0  0  0  0  0  0  0  0
   91.0172  116.9821  130.6792 C   0  0  0  0  0  0  0  0  0  0  0  0
   89.8837  116.4551  131.4890 C   0  0  0  0  0  0  0  0  0  0  0  0
   91.5234  115.8825  129.6709 C   0  0  0  0  0  0  0  0  0  0  0  0
 27 26  1  0  0  0
 25 26  1  0  0  0
 26 28  1  0  0  0
 26 24  1  0  0  0
 17 16  1  0  0  0
 24 20  1  0  0  0
 16 14  1  0  0  0
 15 14  2  0  0  0
 21 20  2  0  0  0
 14  1  1  0  0  0
 20 22  1  0  0  0
 22  1  1  0  0  0
  1  2  1  0  0  0
  2  3  2  0  0  0
  2  5  1  0  0  0
  3  4  1  0  0  0
  5  6  2  0  0  0
  4  7  2  0  0  0
  6  7  1  0  0  0
  7  8  1  0  0  0
  8 10  1  0  0  0
  8  9  2  0  0  0
 10 11  2  0  0  0
  9 12  1  0  0  0
 11 12  1  0  0  0
 12 13  1  0  0  0
 22 23  1  0  0  0
 16 18  1  0  0  0
 17 19  1  0  0  0
M  END
> <minimizedAffinity>
-9.84366

$$$$
4ZW6_4SY_A_1101


 28 29  0  0  0  0  0  0  0  0999 V2000
   89.3360  119.7720  130.3108 C   0  0  0  0  0  0  0  0  0  0  0  0
   89.5561  118.7313  131.3796 C   0  0  0  0  0  0  0  0  0  0  0  0
   88.9060  118.8336  132.6079 C   0  0  0  0  0  0  0  0  0  0  0  0
   89.1432  117.8601  133.5711 C   0  0  0  0  0  0  0  0  0  0  0  0
   90.4522  117.7000  131.1125 C   0  0  0  0  0  0  0  0  0  0  0  0
   90.6927  116.7317  132.0763 C   0  0  0  0  0  0  0  0  0  0  0  0
   90.0193  116.8158  133.2937 C   0  0  0  0  0  0  0  0  0  0  0  0
   90.3028  115.7780  134.3853 C   0  0  0  0  0  0  0  0  0  0  0  0
   89.9819  115.9915  135.7289 C   0  0  0  0  0  0  0  0  0  0  0  0
   90.9154  114.5304  134.2736 C   0  0  0  0  0  0  0  0  0  0  0  0
   90.9511  113.9791  135.5508 N   0  0  0  0  0  0  0  0  0  0  0  0
   90.3786  114.8729  136.4389 N   0  0  0  0  0  0  0  0  0  0  0  0
   90.2153  114.7003  137.8853 C   0  0  0  0  0  0  0  0  0  0  0  0
   88.2445  120.7459  130.6691 C   0  0  0  0  0  0  0  0  0  0  0  0
   88.4331  121.6226  131.5160 O   0  0  0  0  0  0  0  0  0  0  0  0
   87.0532  120.6451  130.0758 N   0  0  0  0  0  0  0  0  0  0  0  0
   86.0147  121.5870  130.4387 O   0  0  0  0  0  0  0  0  0  0  0  0
   86.8839  119.9445  129.4052 H   0  0  0  0  0  0  0  0  0  0  0  0
   86.3546  122.2011  131.1081 H   0  0  0  0  0  0  0  0  0  0  0  0
   91.3498  120.1858  129.0253 C   0  0  0  0  0  0  0  0  0  0  0  0
   92.2958  120.9309  128.7417 O   0  0  0  0  0  0  0  0  0  0  0  0
   90.5900  120.4521  130.1042 N   0  0  0  0  0  0  0  0  0  0  0  0
   90.8946  121.1198  130.7604 H   0  0  0  0  0  0  0  0  0  0  0  0
   90.7703  119.3273  128.0484 O   0  0  0  0  0  0  0  0  0  0  0  0
   90.5066  117.0666  127.2635 C   0  0  0  0  0  0  0  0  0  0  0  0
   91.5313  118.2262  127.4497 C   0  0  0  0  0  0  0  0  0  0  0  0
   92.0757  118.5835  126.1103 C   0  0  0  0  0  0  0  0  0  0  0  0
   92.6929  117.7447  128.3989 C   0  0  0  0  0  0  0  0  0  0  0  0
 27 26  1  0  0  0
 25 26  1  0  0  0
 26 28  1  0  0  0
 26 24  1  0  0  0
 17 16  1  0  0  0
 24 20  1  0  0  0
 16 14  1  0  0  0
 15 14  2  0  0  0
 21 20  2  0  0  0
 14  1  1  0  0  0
 20 22  1  0  0  0
 22  1  1  0  0  0
  1  2  1  0  0  0
  2  3  2  0  0  0
  2  5  1  0  0  0
  3  4  1  0  0  0
  5  6  2  0  0  0
  4  7  2  0  0  0
  6  7  1  0  0  0
  7  8  1  0  0  0
  8 10  1  0  0  0
  8  9  2  0  0  0
 10 11  2  0  0  0
  9 12  1  0  0  0
 11 12  1  0  0  0
 12 13  1  0  0  0
 22 23  1  0  0  0
 16 18  1  0  0  0
 17 19  1  0  0  0
M  END
> <minimizedAffinity>
-9.69370

$$$$
4ZW6_4SY_A_1101


 28 29  0  0  0  0  0  0  0  0999 V2000
   88.9712  119.9935  131.0999 C   0  0  0  0  0  0  0  0  0  0  0  0
   88.5133  120.2636  132.5110 C   0  0  0  0  0  0  0  0  0  0  0  0
   88.0557  121.5288  132.8739 C   0  0  0  0  0  0  0  0  0  0  0  0
   87.6524  121.7408  134.1869 C   0  0  0  0  0  0  0  0  0  0  0  0
   88.6015  119.2271  133.4360 C   0  0  0  0  0  0  0  0  0  0  0  0
   88.2039  119.4408  134.7477 C   0  0  0  0  0  0  0  0  0  0  0  0
   87.7168  120.6972  135.1043 C   0  0  0  0  0  0  0  0  0  0  0  0
   87.3110  120.9637  136.5580 C   0  0  0  0  0  0  0  0  0  0  0  0
   86.0743  120.5720  137.0785 C   0  0  0  0  0  0  0  0  0  0  0  0
   88.0200  121.6233  137.5613 C   0  0  0  0  0  0  0  0  0  0  0  0
   87.2173  121.6170  138.6979 N   0  0  0  0  0  0  0  0  0  0  0  0
   86.0289  120.9725  138.4015 N   0  0  0  0  0  0  0  0  0  0  0  0
   84.8964  120.7463  139.3042 C   0  0  0  0  0  0  0  0  0  0  0  0
   88.1528  120.7344  130.0754 C   0  0  0  0  0  0  0  0  0  0  0  0
   86.9640  120.4586  129.8968 O   0  0  0  0  0  0  0  0  0  0  0  0
   88.7283  121.6874  129.3391 N   0  0  0  0  0  0  0  0  0  0  0  0
   87.9262  122.3839  128.3547 O   0  0  0  0  0  0  0  0  0  0  0  0
   89.6787  121.9123  129.4627 H   0  0  0  0  0  0  0  0  0  0  0  0
   87.0211  122.0356  128.3701 H   0  0  0  0  0  0  0  0  0  0  0  0
   91.1713  119.8048  130.0984 C   0  0  0  0  0  0  0  0  0  0  0  0
   92.2888  120.2917  129.8877 O   0  0  0  0  0  0  0  0  0  0  0  0
   90.3620  120.3631  131.0180 N   0  0  0  0  0  0  0  0  0  0  0  0
   90.7246  121.0324  131.6423 H   0  0  0  0  0  0  0  0  0  0  0  0
   90.5402  118.9661  129.1363 O   0  0  0  0  0  0  0  0  0  0  0  0
   90.3421  117.1917  127.5212 C   0  0  0  0  0  0  0  0  0  0  0  0
   91.3163  118.2523  128.1175 C   0  0  0  0  0  0  0  0  0  0  0  0
   91.7549  119.1513  127.0141 C   0  0  0  0  0  0  0  0  0  0  0  0
   92.5593  117.5182  128.7484 C   0  0  0  0  0  0  0  0  0  0  0  0
 27 26  1  0  0  0
 25 26  1  0  0  0
 26 28  1  0  0  0
 26 24  1  0  0  0
 17 16  1  0  0  0
 24 20  1  0  0  0
 16 14  1  0  0  0
 15 14  2  0  0  0
 21 20  2  0  0  0
 14  1  1  0  0  0
 20 22  1  0  0  0
 22  1  1  0  0  0
  1  2  1  0  0  0
  2  3  2  0  0  0
  2  5  1  0  0  0
  3  4  1  0  0  0
  5  6  2  0  0  0
  4  7  2  0  0  0
  6  7  1  0  0  0
  7  8  1  0  0  0
  8 10  1  0  0  0
  8  9  2  0  0  0
 10 11  2  0  0  0
  9 12  1  0  0  0
 11 12  1  0  0  0
 12 13  1  0  0  0
 22 23  1  0  0  0
 16 18  1  0  0  0
 17 19  1  0  0  0
M  END
> <minimizedAffinity>
-9.52587

$$$$
4ZW6_4SY_A_1101


 28 29  0  0  0  0  0  0  0  0999 V2000
   90.9089  118.5177  129.5647 C   0  0  0  0  0  0  0  0  0  0  0  0
   90.0442  119.0244  130.6914 C   0  0  0  0  0  0  0  0  0  0  0  0
   89.3534  120.2279  130.5637 C   0  0  0  0  0  0  0  0  0  0  0  0
   88.5752  120.6663  131.6285 C   0  0  0  0  0  0  0  0  0  0  0  0
   89.9941  118.2757  131.8639 C   0  0  0  0  0  0  0  0  0  0  0  0
   89.2215  118.7166  132.9284 C   0  0  0  0  0  0  0  0  0  0  0  0
   88.5055  119.9045  132.7902 C   0  0  0  0  0  0  0  0  0  0  0  0
   87.6788  120.4279  133.9700 C   0  0  0  0  0  0  0  0  0  0  0  0
   87.6737  119.8047  135.2212 C   0  0  0  0  0  0  0  0  0  0  0  0
   86.8132  121.5199  134.0202 C   0  0  0  0  0  0  0  0  0  0  0  0
   86.2944  121.5683  135.3105 N   0  0  0  0  0  0  0  0  0  0  0  0
   86.8227  120.5202  136.0438 N   0  0  0  0  0  0  0  0  0  0  0  0
   86.5428  120.1913  137.4445 C   0  0  0  0  0  0  0  0  0  0  0  0
   91.4721  119.6322  128.7227 C   0  0  0  0  0  0  0  0  0  0  0  0
   92.0056  120.6128  129.2475 O   0  0  0  0  0  0  0  0  0  0  0  0
   91.3742  119.5653  127.3934 N   0  0  0  0  0  0  0  0  0  0  0  0
   91.9161  120.6500  126.6015 O   0  0  0  0  0  0  0  0  0  0  0  0
   90.9423  118.7941  126.9598 H   0  0  0  0  0  0  0  0  0  0  0  0
   92.3006  121.3189  127.1895 H   0  0  0  0  0  0  0  0  0  0  0  0
   92.5884  116.7737  129.4343 C   0  0  0  0  0  0  0  0  0  0  0  0
   93.6319  116.2682  129.8657 O   0  0  0  0  0  0  0  0  0  0  0  0
   91.9626  117.7271  130.1498 N   0  0  0  0  0  0  0  0  0  0  0  0
   92.2281  117.8863  131.0843 H   0  0  0  0  0  0  0  0  0  0  0  0
   92.2566  116.7104  128.0512 O   0  0  0  0  0  0  0  0  0  0  0  0
   90.4713  116.1182  126.5483 C   0  0  0  0  0  0  0  0  0  0  0  0
   91.5803  115.5417  127.4796 C   0  0  0  0  0  0  0  0  0  0  0  0
   92.4980  114.7126  126.6497 C   0  0  0  0  0  0  0  0  0  0  0  0
   90.9103  114.6581  128.5987 C   0  0  0  0  0  0  0  0  0  0  0  0
 27 26  1  0  0  0
 25 26  1  0  0  0
 26 28  1  0  0  0
 26 24  1  0  0  0
 17 16  1  0  0  0
 24 20  1  0  0  0
 16 14  1  0  0  0
 15 14  2  0  0  0
 21 20  2  0  0  0
 14  1  1  0  0  0
 20 22  1  0  0  0
 22  1  1  0  0  0
  1  2  1  0  0  0
  2  3  2  0  0  0
  2  5  1  0  0  0
  3  4  1  0  0  0
  5  6  2  0  0  0
  4  7  2  0  0  0
  6  7  1  0  0  0
  7  8  1  0  0  0
  8 10  1  0  0  0
  8  9  2  0  0  0
 10 11  2  0  0  0
  9 12  1  0  0  0
 11 12  1  0  0  0
 12 13  1  0  0  0
 22 23  1  0  0  0
 16 18  1  0  0  0
 17 19  1  0  0  0
M  END
> <minimizedAffinity>
-9.33679

$$$$
4ZW6_4SY_A_1101


 28 29  0  0  0  0  0  0  0  0999 V2000
   89.9923  119.2660  130.1079 C   0  0  0  0  0  0  0  0  0  0  0  0
   90.5138  118.4065  128.9840 C   0  0  0  0  0  0  0  0  0  0  0  0
   90.8600  118.9784  127.7613 C   0  0  0  0  0  0  0  0  0  0  0  0
   91.3269  118.1512  126.7466 C   0  0  0  0  0  0  0  0  0  0  0  0
   90.5974  117.0334  129.1965 C   0  0  0  0  0  0  0  0  0  0  0  0
   91.0583  116.2076  128.1816 C   0  0  0  0  0  0  0  0  0  0  0  0
   91.4342  116.7822  126.9686 C   0  0  0  0  0  0  0  0  0  0  0  0
   91.9074  115.8815  125.8223 C   0  0  0  0  0  0  0  0  0  0  0  0
   93.1542  115.2497  125.8266 C   0  0  0  0  0  0  0  0  0  0  0  0
   91.2585  115.5632  124.6299 C   0  0  0  0  0  0  0  0  0  0  0  0
   92.1077  114.7227  123.9166 N   0  0  0  0  0  0  0  0  0  0  0  0
   93.2655  114.5308  124.6504 N   0  0  0  0  0  0  0  0  0  0  0  0
   94.4284  113.7228  124.2721 C   0  0  0  0  0  0  0  0  0  0  0  0
   88.9209  120.2223  129.6542 C   0  0  0  0  0  0  0  0  0  0  0  0
   87.8171  119.8085  129.2911 O   0  0  0  0  0  0  0  0  0  0  0  0
   89.1777  121.5318  129.6270 N   0  0  0  0  0  0  0  0  0  0  0  0
   88.1366  122.4346  129.1815 O   0  0  0  0  0  0  0  0  0  0  0  0
   90.0570  121.8770  129.9041 H   0  0  0  0  0  0  0  0  0  0  0  0
   87.3444  121.9253  128.9495 H   0  0  0  0  0  0  0  0  0  0  0  0
   89.1388  118.8603  132.3409 C   0  0  0  0  0  0  0  0  0  0  0  0
   88.5068  118.1395  133.1228 O   0  0  0  0  0  0  0  0  0  0  0  0
   89.4977  118.3830  131.1343 N   0  0  0  0  0  0  0  0  0  0  0  0
   89.4215  117.4188  130.9507 H   0  0  0  0  0  0  0  0  0  0  0  0
   89.1307  120.2776  132.4759 O   0  0  0  0  0  0  0  0  0  0  0  0
   88.5702  122.4411  133.3712 C   0  0  0  0  0  0  0  0  0  0  0  0
   88.0803  120.9681  133.2308 C   0  0  0  0  0  0  0  0  0  0  0  0
   86.7810  120.9789  132.5029 C   0  0  0  0  0  0  0  0  0  0  0  0
   87.8955  120.3438  134.6654 C   0  0  0  0  0  0  0  0  0  0  0  0
 27 26  1  0  0  0
 25 26  1  0  0  0
 26 28  1  0  0  0
 26 24  1  0  0  0
 17 16  1  0  0  0
 24 20  1  0  0  0
 16 14  1  0  0  0
 15 14  2  0  0  0
 21 20  2  0  0  0
 14  1  1  0  0  0
 20 22  1  0  0  0
 22  1  1  0  0  0
  1  2  1  0  0  0
  2  3  2  0  0  0
  2  5  1  0  0  0
  3  4  1  0  0  0
  5  6  2  0  0  0
  4  7  2  0  0  0
  6  7  1  0  0  0
  7  8  1  0  0  0
  8 10  1  0  0  0
  8  9  2  0  0  0
 10 11  2  0  0  0
  9 12  1  0  0  0
 11 12  1  0  0  0
 12 13  1  0  0  0
 22 23  1  0  0  0
 16 18  1  0  0  0
 17 19  1  0  0  0
M  END
> <minimizedAffinity>
-9.27622

$$$$
4ZW6_4SY_A_1101


 28 29  0  0  0  0  0  0  0  0999 V2000
   91.1998  117.3967  130.3078 C   0  0  0  0  0  0  0  0  0  0  0  0
   90.2906  118.1479  131.2474 C   0  0  0  0  0  0  0  0  0  0  0  0
   90.0164  119.4975  131.0347 C   0  0  0  0  0  0  0  0  0  0  0  0
   89.1820  120.1575  131.9291 C   0  0  0  0  0  0  0  0  0  0  0  0
   89.7744  117.4629  132.3438 C   0  0  0  0  0  0  0  0  0  0  0  0
   88.9461  118.1236  133.2392 C   0  0  0  0  0  0  0  0  0  0  0  0
   88.6461  119.4654  133.0101 C   0  0  0  0  0  0  0  0  0  0  0  0
   87.7656  120.2224  134.0105 C   0  0  0  0  0  0  0  0  0  0  0  0
   87.6344  119.8300  135.3456 C   0  0  0  0  0  0  0  0  0  0  0  0
   86.9605  121.3414  133.8010 C   0  0  0  0  0  0  0  0  0  0  0  0
   86.3521  121.6379  135.0169 N   0  0  0  0  0  0  0  0  0  0  0  0
   86.7665  120.7140  135.9604 N   0  0  0  0  0  0  0  0  0  0  0  0
   86.3669  120.6488  137.3692 C   0  0  0  0  0  0  0  0  0  0  0  0
   92.6555  117.6999  130.5471 C   0  0  0  0  0  0  0  0  0  0  0  0
   93.3072  118.3544  129.7295 O   0  0  0  0  0  0  0  0  0  0  0  0
   93.2507  117.2372  131.6484 N   0  0  0  0  0  0  0  0  0  0  0  0
   94.6527  117.5340  131.8572 O   0  0  0  0  0  0  0  0  0  0  0  0
   92.7467  116.7049  132.3056 H   0  0  0  0  0  0  0  0  0  0  0  0
   94.9849  118.0640  131.1159 H   0  0  0  0  0  0  0  0  0  0  0  0
   91.2106  115.1124  129.4947 C   0  0  0  0  0  0  0  0  0  0  0  0
   91.1909  113.8988  129.7335 O   0  0  0  0  0  0  0  0  0  0  0  0
   90.9291  115.9909  130.4752 N   0  0  0  0  0  0  0  0  0  0  0  0
   90.5334  115.6690  131.3173 H   0  0  0  0  0  0  0  0  0  0  0  0
   91.9211  115.6310  128.3751 O   0  0  0  0  0  0  0  0  0  0  0  0
   90.5705  116.9067  126.8438 C   0  0  0  0  0  0  0  0  0  0  0  0
   91.3612  115.5752  127.0211 C   0  0  0  0  0  0  0  0  0  0  0  0
   92.4218  115.5232  125.9769 C   0  0  0  0  0  0  0  0  0  0  0  0
   90.3733  114.3592  126.8549 C   0  0  0  0  0  0  0  0  0  0  0  0
 27 26  1  0  0  0
 25 26  1  0  0  0
 26 28  1  0  0  0
 26 24  1  0  0  0
 17 16  1  0  0  0
 24 20  1  0  0  0
 16 14  1  0  0  0
 15 14  2  0  0  0
 21 20  2  0  0  0
 14  1  1  0  0  0
 20 22  1  0  0  0
 22  1  1  0  0  0
  1  2  1  0  0  0
  2  3  2  0  0  0
  2  5  1  0  0  0
  3  4  1  0  0  0
  5  6  2  0  0  0
  4  7  2  0  0  0
  6  7  1  0  0  0
  7  8  1  0  0  0
  8 10  1  0  0  0
  8  9  2  0  0  0
 10 11  2  0  0  0
  9 12  1  0  0  0
 11 12  1  0  0  0
 12 13  1  0  0  0
 22 23  1  0  0  0
 16 18  1  0  0  0
 17 19  1  0  0  0
M  END
> <minimizedAffinity>
-9.15862

$$$$
4ZW6_4SY_A_1101


 28 29  0  0  0  0  0  0  0  0999 V2000
   91.0269  117.8924  129.9560 C   0  0  0  0  0  0  0  0  0  0  0  0
   90.1493  118.5376  130.9987 C   0  0  0  0  0  0  0  0  0  0  0  0
   89.8224  119.8891  130.9070 C   0  0  0  0  0  0  0  0  0  0  0  0
   89.0197  120.4495  131.8936 C   0  0  0  0  0  0  0  0  0  0  0  0
   89.7166  117.7534  132.0643 C   0  0  0  0  0  0  0  0  0  0  0  0
   88.9199  118.3146  133.0517 C   0  0  0  0  0  0  0  0  0  0  0  0
   88.5667  119.6587  132.9445 C   0  0  0  0  0  0  0  0  0  0  0  0
   87.7210  120.3060  134.0466 C   0  0  0  0  0  0  0  0  0  0  0  0
   87.6949  119.8224  135.3578 C   0  0  0  0  0  0  0  0  0  0  0  0
   86.8551  121.3959  133.9638 C   0  0  0  0  0  0  0  0  0  0  0  0
   86.3152  121.5835  135.2325 N   0  0  0  0  0  0  0  0  0  0  0  0
   86.8308  120.6218  136.0838 N   0  0  0  0  0  0  0  0  0  0  0  0
   86.5276  120.4466  137.5072 C   0  0  0  0  0  0  0  0  0  0  0  0
   90.9585  118.5976  128.6269 C   0  0  0  0  0  0  0  0  0  0  0  0
   90.0510  118.3534  127.8281 O   0  0  0  0  0  0  0  0  0  0  0  0
   91.9035  119.4829  128.3034 N   0  0  0  0  0  0  0  0  0  0  0  0
   91.8237  120.1456  127.0182 O   0  0  0  0  0  0  0  0  0  0  0  0
   92.6399  119.6813  128.9260 H   0  0  0  0  0  0  0  0  0  0  0  0
   91.0405  119.8310  126.5403 H   0  0  0  0  0  0  0  0  0  0  0  0
   93.0386  116.7259  130.6427 C   0  0  0  0  0  0  0  0  0  0  0  0
   94.2563  116.7439  130.8599 O   0  0  0  0  0  0  0  0  0  0  0  0
   92.3738  117.8837  130.4691 N   0  0  0  0  0  0  0  0  0  0  0  0
   92.8132  118.7351  130.6955 H   0  0  0  0  0  0  0  0  0  0  0  0
   92.3960  115.5554  130.1484 O   0  0  0  0  0  0  0  0  0  0  0  0
   92.6718  113.2493  130.7826 C   0  0  0  0  0  0  0  0  0  0  0  0
   91.8469  114.5432  131.0560 C   0  0  0  0  0  0  0  0  0  0  0  0
   92.0280  114.9149  132.4868 C   0  0  0  0  0  0  0  0  0  0  0  0
   90.3262  114.2623  130.7547 C   0  0  0  0  0  0  0  0  0  0  0  0
 27 26  1  0  0  0
 25 26  1  0  0  0
 26 28  1  0  0  0
 26 24  1  0  0  0
 17 16  1  0  0  0
 24 20  1  0  0  0
 16 14  1  0  0  0
 15 14  2  0  0  0
 21 20  2  0  0  0
 14  1  1  0  0  0
 20 22  1  0  0  0
 22  1  1  0  0  0
  1  2  1  0  0  0
  2  3  2  0  0  0
  2  5  1  0  0  0
  3  4  1  0  0  0
  5  6  2  0  0  0
  4  7  2  0  0  0
  6  7  1  0  0  0
  7  8  1  0  0  0
  8 10  1  0  0  0
  8  9  2  0  0  0
 10 11  2  0  0  0
  9 12  1  0  0  0
 11 12  1  0  0  0
 12 13  1  0  0  0
 22 23  1  0  0  0
 16 18  1  0  0  0
 17 19  1  0  0  0
M  END
> <minimizedAffinity>
-9.11479

$$$$
4ZW6_4SY_A_1101


 28 29  0  0  0  0  0  0  0  0999 V2000
   87.8671  121.1249  132.9383 C   0  0  0  0  0  0  0  0  0  0  0  0
   88.5921  119.8364  132.6416 C   0  0  0  0  0  0  0  0  0  0  0  0
   89.3909  119.7223  131.5055 C   0  0  0  0  0  0  0  0  0  0  0  0
   90.0343  118.5148  131.2613 C   0  0  0  0  0  0  0  0  0  0  0  0
   88.4043  118.7660  133.5115 C   0  0  0  0  0  0  0  0  0  0  0  0
   89.0424  117.5593  133.2643 C   0  0  0  0  0  0  0  0  0  0  0  0
   89.8663  117.4538  132.1450 C   0  0  0  0  0  0  0  0  0  0  0  0
   90.5473  116.1164  131.8336 C   0  0  0  0  0  0  0  0  0  0  0  0
   91.2811  115.4051  132.7872 C   0  0  0  0  0  0  0  0  0  0  0  0
   90.5956  115.4145  130.6298 C   0  0  0  0  0  0  0  0  0  0  0  0
   91.3473  114.2660  130.8587 N   0  0  0  0  0  0  0  0  0  0  0  0
   91.7641  114.2610  132.1785 N   0  0  0  0  0  0  0  0  0  0  0  0
   92.5831  113.2433  132.8433 C   0  0  0  0  0  0  0  0  0  0  0  0
   87.2502  121.7369  131.7082 C   0  0  0  0  0  0  0  0  0  0  0  0
   87.7750  122.7056  131.1535 O   0  0  0  0  0  0  0  0  0  0  0  0
   86.1113  121.2358  131.2256 N   0  0  0  0  0  0  0  0  0  0  0  0
   85.5304  121.8423  130.0457 O   0  0  0  0  0  0  0  0  0  0  0  0
   85.6748  120.4693  131.6628 H   0  0  0  0  0  0  0  0  0  0  0  0
   86.0897  122.5784  129.7519 H   0  0  0  0  0  0  0  0  0  0  0  0
   86.9420  121.3730  135.1658 C   0  0  0  0  0  0  0  0  0  0  0  0
   85.9682  121.3078  135.9259 O   0  0  0  0  0  0  0  0  0  0  0  0
   86.8641  120.8380  133.9329 N   0  0  0  0  0  0  0  0  0  0  0  0
   86.1124  120.2434  133.7077 H   0  0  0  0  0  0  0  0  0  0  0  0
   87.9674  122.3406  135.3643 O   0  0  0  0  0  0  0  0  0  0  0  0
   89.3556  120.6461  136.3632 C   0  0  0  0  0  0  0  0  0  0  0  0
   88.9983  122.1630  136.3916 C   0  0  0  0  0  0  0  0  0  0  0  0
   90.2340  122.9363  136.0863 C   0  0  0  0  0  0  0  0  0  0  0  0
   88.4585  122.5421  137.8223 C   0  0  0  0  0  0  0  0  0  0  0  0
 27 26  1  0  0  0
 25 26  1  0  0  0
 26 28  1  0  0  0
 26 24  1  0  0  0
 17 16  1  0  0  0
 24 20  1  0  0  0
 16 14  1  0  0  0
 15 14  2  0  0  0
 21 20  2  0  0  0
 14  1  1  0  0  0
 20 22  1  0  0  0
 22  1  1  0  0  0
  1  2  1  0  0  0
  2  3  2  0  0  0
  2  5  1  0  0  0
  3  4  1  0  0  0
  5  6  2  0  0  0
  4  7  2  0  0  0
  6  7  1  0  0  0
  7  8  1  0  0  0
  8 10  1  0  0  0
  8  9  2  0  0  0
 10 11  2  0  0  0
  9 12  1  0  0  0
 11 12  1  0  0  0
 12 13  1  0  0  0
 22 23  1  0  0  0
 16 18  1  0  0  0
 17 19  1  0  0  0
M  END
> <minimizedAffinity>
-8.74033

$$$$
4ZW6_4SY_A_1101


 28 29  0  0  0  0  0  0  0  0999 V2000
   91.4965  116.5155  130.6446 C   0  0  0  0  0  0  0  0  0  0  0  0
   90.5745  117.4204  131.4223 C   0  0  0  0  0  0  0  0  0  0  0  0
   90.4890  118.7760  131.1107 C   0  0  0  0  0  0  0  0  0  0  0  0
   89.6355  119.5793  131.8576 C   0  0  0  0  0  0  0  0  0  0  0  0
   89.8518  116.8674  132.4756 C   0  0  0  0  0  0  0  0  0  0  0  0
   89.0042  117.6708  133.2242 C   0  0  0  0  0  0  0  0  0  0  0  0
   88.8944  119.0204  132.8935 C   0  0  0  0  0  0  0  0  0  0  0  0
   87.9939  119.9318  133.7347 C   0  0  0  0  0  0  0  0  0  0  0  0
   87.7607  119.7119  135.0953 C   0  0  0  0  0  0  0  0  0  0  0  0
   87.2617  121.0507  133.3394 C   0  0  0  0  0  0  0  0  0  0  0  0
   86.5956  121.5200  134.4674 N   0  0  0  0  0  0  0  0  0  0  0  0
   86.9031  120.7015  135.5403 N   0  0  0  0  0  0  0  0  0  0  0  0
   86.4147  120.8268  136.9166 C   0  0  0  0  0  0  0  0  0  0  0  0
   92.0863  115.4222  131.4962 C   0  0  0  0  0  0  0  0  0  0  0  0
   92.9839  115.6670  132.3061 O   0  0  0  0  0  0  0  0  0  0  0  0
   91.6445  114.1705  131.3573 N   0  0  0  0  0  0  0  0  0  0  0  0
   92.2288  113.1323  132.1807 O   0  0  0  0  0  0  0  0  0  0  0  0
   90.9356  113.9573  130.7082 H   0  0  0  0  0  0  0  0  0  0  0  0
   92.9060  113.5196  132.7572 H   0  0  0  0  0  0  0  0  0  0  0  0
   90.9900  116.3439  128.2796 C   0  0  0  0  0  0  0  0  0  0  0  0
   90.5011  115.7037  127.3408 O   0  0  0  0  0  0  0  0  0  0  0  0
   90.7400  115.9664  129.5474 N   0  0  0  0  0  0  0  0  0  0  0  0
   90.0315  115.3069  129.7274 H   0  0  0  0  0  0  0  0  0  0  0  0
   92.1273  117.1789  128.0882 O   0  0  0  0  0  0  0  0  0  0  0  0
   92.3286  118.5419  126.1139 C   0  0  0  0  0  0  0  0  0  0  0  0
   91.9899  118.5665  127.6351 C   0  0  0  0  0  0  0  0  0  0  0  0
   90.5981  119.0729  127.7921 C   0  0  0  0  0  0  0  0  0  0  0  0
   93.0026  119.5186  128.3767 C   0  0  0  0  0  0  0  0  0  0  0  0
 27 26  1  0  0  0
 25 26  1  0  0  0
 26 28  1  0  0  0
 26 24  1  0  0  0
 17 16  1  0  0  0
 24 20  1  0  0  0
 16 14  1  0  0  0
 15 14  2  0  0  0
 21 20  2  0  0  0
 14  1  1  0  0  0
 20 22  1  0  0  0
 22  1  1  0  0  0
  1  2  1  0  0  0
  2  3  2  0  0  0
  2  5  1  0  0  0
  3  4  1  0  0  0
  5  6  2  0  0  0
  4  7  2  0  0  0
  6  7  1  0  0  0
  7  8  1  0  0  0
  8 10  1  0  0  0
  8  9  2  0  0  0
 10 11  2  0  0  0
  9 12  1  0  0  0
 11 12  1  0  0  0
 12 13  1  0  0  0
 22 23  1  0  0  0
 16 18  1  0  0  0
 17 19  1  0  0  0
M  END
> <minimizedAffinity>
-8.70975

$$$$
