2ZX8_ZX8_A_901
  RCSB PDB12061707473D
Coordinates from PDB:2ZX8:A:901 Model:1 without hydrogens
 23 25  0  0  0  0            999 V2000
   -1.0110   27.0880   30.9920   C 0  0  0  0  0  0  0  0  0  0  0  0
   -0.2210   27.3300   32.0420   C 0  0  0  0  0  0  0  0  0  0  0  0
    0.1010   28.4980   32.7090   C 0  0  0  0  0  0  0  0  0  0  0  0
    1.0770   28.4830   33.7060   C 0  0  0  0  0  0  0  0  0  0  0  0
    1.7270   27.3020   34.0400   C 0  0  0  0  0  0  0  0  0  0  0  0
    1.4020   26.1220   33.3780   C 0  0  0  0  0  0  0  0  0  0  0  0
    0.4330   26.1440   32.3830   C 0  0  0  0  0  0  0  0  0  0  0  0
    0.0060   25.1920   31.5070   O 0  0  0  0  0  0  0  0  0  0  0  0
   -0.8630   25.8110   30.6530   C 0  0  0  0  0  0  0  0  0  0  0  0
   -1.1930   25.1980   29.2910   C 0  0  0  0  0  0  0  0  0  0  0  0
   -1.2210   23.9800   29.1710   O 0  0  0  0  0  0  0  0  0  0  0  0
   -1.3620   26.0660   28.2850   N 0  0  0  0  0  0  0  0  0  0  0  0
   -1.6510   25.6320   26.9130   C 0  0  0  0  0  0  0  0  0  0  0  0
   -1.4120   26.7710   25.9140   C 0  0  0  0  0  0  0  0  0  0  0  0
    0.0100   27.1510   25.8760   N 0  0  0  0  0  0  0  0  0  0  0  0
    0.2220   28.2920   24.9680   C 0  0  0  0  0  0  0  0  0  0  0  0
    1.7020   28.6690   24.9890   C 0  0  0  0  0  0  0  0  0  0  0  0
   -0.2500   28.0050   23.5350   C 0  0  0  0  0  0  0  0  0  0  0  0
    0.5010   26.9290   22.9610   O 0  0  0  0  0  0  0  0  0  0  0  0
   -1.7200   27.5870   23.5810   C 0  0  0  0  0  0  0  0  0  0  0  0
   -2.2080   27.2450   22.2820   O 0  0  0  0  0  0  0  0  0  0  0  0
   -1.8300   26.3670   24.4970   C 0  0  0  0  0  0  0  0  0  0  0  0
   -3.1770   25.8940   24.4780   O 0  0  0  0  0  0  0  0  0  0  0  0
  1  2  1  0  0  0  0
  1  9  2  0  0  0  0
  2  3  2  0  0  0  0
  2  7  1  0  0  0  0
  3  4  1  0  0  0  0
  4  5  2  0  0  0  0
  5  6  1  0  0  0  0
  6  7  2  0  0  0  0
  7  8  1  0  0  0  0
  8  9  1  0  0  0  0
  9 10  1  0  0  0  0
 10 11  2  0  0  0  0
 10 12  1  0  0  0  0
 12 13  1  0  0  0  0
 13 14  1  0  0  0  0
 14 15  1  0  0  0  0
 14 22  1  0  0  0  0
 15 16  1  0  0  0  0
 16 17  1  0  0  0  0
 16 18  1  0  0  0  0
 18 19  1  0  0  0  0
 18 20  1  0  0  0  0
 20 21  1  0  0  0  0
 20 22  1  0  0  0  0
 22 23  1  0  0  0  0
A    1
CAJ
A    2
CAQ
A    3
CAH
A    4
CAF
A    5
CAG
A    6
CAI
A    7
CAR
A    8
OAN
A    9
CAP
A   10
CAO
A   11
OAB
A   12
NAL
A   13
CAK
A   14
CAT
A   15
NAM
A   16
CAS
A   17
CAA
A   18
CAU
A   19
OAC
A   20
CAW
A   21
OAE
A   22
CAV
A   23
OAD
M  END
>  <InstanceId>
2ZX8_ZX8_A_901

>  <ChemCompId>
ZX8

>  <PdbId>
2ZX8

>  <ChainId>
A

>  <ResidueNumber>
901

>  <InsertionCode>


>  <Model>
1

>  <AltIds>


>  <MissingHeavyAtoms>
0

>  <ObservedFormula>
C16 N2 O5

>  <Name>
N-{[(2R,3R,4R,5R,6S)-3,4,5-trihydroxy-6-methylpiperidin-2-yl]methyl}-1-benzofuran-2-carboxamide

>  <SystematicName>
N-[[(2R,3R,4R,5R,6S)-3,4,5-trihydroxy-6-methyl-piperidin-2-yl]methyl]-1-benzofuran-2-carboxamide

>  <Synonyms>


>  <Type>
NON-POLYMER

>  <Formula>
C16 H20 N2 O5

>  <MolecularWeight>
320.34

>  <ModifiedDate>
2011-06-04

>  <Parent>


>  <OneLetterCode>


>  <SubcomponentList>


>  <AmbiguousFlag>
N

>  <InChI>
InChI=1S/C16H20N2O5/c1-8-13(19)15(21)14(20)10(18-8)7-17-16(22)12-6-9-4-2-3-5-11(9)23-12/h2-6,8,10,13-15,18-21H,7H2,1H3,(H,17,22)/t8-,10+,13+,14+,15+/m0/s1

>  <InChIKey>
WSXUKLGXIBOXHU-QFJYNZAASA-N

>  <SMILES>
C[C@H]1[C@H]([C@H]([C@@H]([C@H](N1)CNC(=O)c2cc3ccccc3o2)O)O)O

$$$$
