3RU1_3RU_A_398


 26 28  0  0  0  0  0  0  0  0999 V2000
   70.4034   45.9041   10.2587 C   0  0  0  0  0  0  0  0  0  0  0  0
   69.7978   50.7493   10.7735 C   0  0  0  0  0  0  0  0  0  0  0  0
   69.3129   49.4565   10.9449 C   0  0  0  0  0  0  0  0  0  0  0  0
   68.0697   49.2565   11.5286 C   0  0  0  0  0  0  0  0  0  0  0  0
   68.2910   46.9368   11.3087 C   0  0  0  0  0  0  0  0  0  0  0  0
   70.0624   48.3600   10.5373 C   0  0  0  0  0  0  0  0  0  0  0  0
   69.5484   47.0792   10.7169 C   0  0  0  0  0  0  0  0  0  0  0  0
   69.0367   51.8373   11.1865 C   0  0  0  0  0  0  0  0  0  0  0  0
   67.7927   51.6426   11.7698 C   0  0  0  0  0  0  0  0  0  0  0  0
   67.3144   50.3487   11.9390 C   0  0  0  0  0  0  0  0  0  0  0  0
   67.5911   48.0151   11.6932 N   0  0  0  0  0  0  0  0  0  0  0  0
   67.7722   45.7190   11.4878 N   0  0  0  0  0  0  0  0  0  0  0  0
   66.8861   45.6178   11.9048 H   0  0  0  0  0  0  0  0  0  0  0  0
   68.2759   44.9225   11.2029 H   0  0  0  0  0  0  0  0  0  0  0  0
   71.7532   45.9612   10.9715 C   0  0  0  0  0  0  0  0  0  0  0  0
   72.7040   46.7430    8.8718 N   0  0  0  0  0  0  0  0  0  0  0  0
   72.7479   46.8306   10.1949 C   0  0  0  0  0  0  0  0  0  0  0  0
   73.5316   47.5656   10.7868 O   0  0  0  0  0  0  0  0  0  0  0  0
   72.0773   46.1222    8.4348 H   0  0  0  0  0  0  0  0  0  0  0  0
   73.6009   47.5828    8.0658 C   0  0  0  0  0  0  0  0  0  0  0  0
   70.7036   49.2909    6.2259 C   0  0  0  0  0  0  0  0  0  0  0  0
   70.6645   50.6079    7.0024 C   0  0  0  0  0  0  0  0  0  0  0  0
   72.0651   51.0550    7.4052 C   0  0  0  0  0  0  0  0  0  0  0  0
   71.4378   48.2137    7.0207 C   0  0  0  0  0  0  0  0  0  0  0  0
   72.8128   49.9491    8.1606 C   0  0  0  0  0  0  0  0  0  0  0  0
   72.8597   48.6808    7.3183 C   0  0  0  0  0  0  0  0  0  0  0  0
  3  2  2  0  0  0
  2  8  1  0  0  0
  4  3  1  0  0  0
  6  3  1  0  0  0
 11  4  1  0  0  0
  4 10  2  0  0  0
 12  5  1  0  0  0
  5 11  2  0  0  0
  5  7  1  0  0  0
  7  6  2  0  0  0
 15 17  1  0  0  0
 15  1  1  0  0  0
 16 20  1  0  0  0
 26 20  1  0  0  0
 21 24  1  0  0  0
 21 22  1  0  0  0
 22 23  1  0  0  0
 23 25  1  0  0  0
 24 26  1  0  0  0
 26 25  1  0  0  0
 16 17  1  0  0  0
 17 18  2  0  0  0
  1  7  1  0  0  0
  9  8  2  0  0  0
 10  9  1  0  0  0
 16 19  1  0  0  0
 12 13  1  0  0  0
 12 14  1  0  0  0
M  END
> <minimizedAffinity>
-7.67004

$$$$
3RU1_3RU_A_398


 26 28  0  0  0  0  0  0  0  0999 V2000
   67.4774   46.1861    8.2694 C   0  0  0  0  0  0  0  0  0  0  0  0
   71.6870   48.5623    9.1302 C   0  0  0  0  0  0  0  0  0  0  0  0
   70.4479   48.5106    8.4997 C   0  0  0  0  0  0  0  0  0  0  0  0
   70.0469   49.5542    7.6772 C   0  0  0  0  0  0  0  0  0  0  0  0
   68.0218   48.4736    7.2196 C   0  0  0  0  0  0  0  0  0  0  0  0
   69.6045   47.4223    8.6853 C   0  0  0  0  0  0  0  0  0  0  0  0
   68.3733   47.3965    8.0368 C   0  0  0  0  0  0  0  0  0  0  0  0
   72.5207   49.6580    8.9353 C   0  0  0  0  0  0  0  0  0  0  0  0
   72.1247   50.7036    8.1132 C   0  0  0  0  0  0  0  0  0  0  0  0
   70.8854   50.6463    7.4870 C   0  0  0  0  0  0  0  0  0  0  0  0
   68.8573   49.5115    7.0608 N   0  0  0  0  0  0  0  0  0  0  0  0
   66.8483   48.4715    6.5814 N   0  0  0  0  0  0  0  0  0  0  0  0
   66.5999   49.2302    6.0054 H   0  0  0  0  0  0  0  0  0  0  0  0
   66.2319   47.7112    6.6871 H   0  0  0  0  0  0  0  0  0  0  0  0
   67.2423   46.0204    9.7696 C   0  0  0  0  0  0  0  0  0  0  0  0
   67.0836   47.8511   11.3656 N   0  0  0  0  0  0  0  0  0  0  0  0
   66.5021   47.2318   10.3466 C   0  0  0  0  0  0  0  0  0  0  0  0
   65.4310   47.5952    9.8716 O   0  0  0  0  0  0  0  0  0  0  0  0
   67.9316   47.5134   11.7347 H   0  0  0  0  0  0  0  0  0  0  0  0
   66.4484   49.0465   11.9374 C   0  0  0  0  0  0  0  0  0  0  0  0
   69.6215   51.0944   11.2778 C   0  0  0  0  0  0  0  0  0  0  0  0
   69.0222   52.1979   10.4047 C   0  0  0  0  0  0  0  0  0  0  0  0
   67.6120   52.5583   10.8580 C   0  0  0  0  0  0  0  0  0  0  0  0
   68.7060   49.8731   11.3134 C   0  0  0  0  0  0  0  0  0  0  0  0
   66.7129   51.3180   10.9377 C   0  0  0  0  0  0  0  0  0  0  0  0
   67.3387   50.2773   11.8571 C   0  0  0  0  0  0  0  0  0  0  0  0
  3  2  2  0  0  0
  2  8  1  0  0  0
  4  3  1  0  0  0
  6  3  1  0  0  0
 11  4  1  0  0  0
  4 10  2  0  0  0
 12  5  1  0  0  0
  5 11  2  0  0  0
  5  7  1  0  0  0
  7  6  2  0  0  0
 15 17  1  0  0  0
 15  1  1  0  0  0
 16 20  1  0  0  0
 26 20  1  0  0  0
 21 24  1  0  0  0
 21 22  1  0  0  0
 22 23  1  0  0  0
 23 25  1  0  0  0
 24 26  1  0  0  0
 26 25  1  0  0  0
 16 17  1  0  0  0
 17 18  2  0  0  0
  1  7  1  0  0  0
  9  8  2  0  0  0
 10  9  1  0  0  0
 16 19  1  0  0  0
 12 13  1  0  0  0
 12 14  1  0  0  0
M  END
> <minimizedAffinity>
-7.58806

$$$$
3RU1_3RU_A_398


 26 28  0  0  0  0  0  0  0  0999 V2000
   67.3589   47.6733    9.4543 C   0  0  0  0  0  0  0  0  0  0  0  0
   71.7812   49.7883    9.1745 C   0  0  0  0  0  0  0  0  0  0  0  0
   70.5692   49.4619    8.5742 C   0  0  0  0  0  0  0  0  0  0  0  0
   70.3242   49.8405    7.2615 C   0  0  0  0  0  0  0  0  0  0  0  0
   68.2057   48.8474    7.3245 C   0  0  0  0  0  0  0  0  0  0  0  0
   69.5983   48.7592    9.2768 C   0  0  0  0  0  0  0  0  0  0  0  0
   68.3980   48.4423    8.6476 C   0  0  0  0  0  0  0  0  0  0  0  0
   72.7437   50.4922    8.4592 C   0  0  0  0  0  0  0  0  0  0  0  0
   72.5038   50.8722    7.1462 C   0  0  0  0  0  0  0  0  0  0  0  0
   71.2909   50.5438    6.5526 C   0  0  0  0  0  0  0  0  0  0  0  0
   69.1619   49.5261    6.6722 N   0  0  0  0  0  0  0  0  0  0  0  0
   67.0650   48.5515    6.6955 N   0  0  0  0  0  0  0  0  0  0  0  0
   66.9287   48.8366    5.7631 H   0  0  0  0  0  0  0  0  0  0  0  0
   66.3605   48.0483    7.1644 H   0  0  0  0  0  0  0  0  0  0  0  0
   67.7041   47.7755   10.9388 C   0  0  0  0  0  0  0  0  0  0  0  0
   67.1407   50.0558   11.5767 N   0  0  0  0  0  0  0  0  0  0  0  0
   66.7880   48.7788   11.6478 C   0  0  0  0  0  0  0  0  0  0  0  0
   65.7832   48.3987   12.2399 O   0  0  0  0  0  0  0  0  0  0  0  0
   67.9686   50.3182   11.1130 H   0  0  0  0  0  0  0  0  0  0  0  0
   66.2824   51.0741   12.1976 C   0  0  0  0  0  0  0  0  0  0  0  0
   67.9944   53.9536   10.3335 C   0  0  0  0  0  0  0  0  0  0  0  0
   66.8706   54.9890   10.3996 C   0  0  0  0  0  0  0  0  0  0  0  0
   66.1064   54.8935   11.7152 C   0  0  0  0  0  0  0  0  0  0  0  0
   67.4516   52.5472   10.5752 C   0  0  0  0  0  0  0  0  0  0  0  0
   65.6069   53.4663   11.9730 C   0  0  0  0  0  0  0  0  0  0  0  0
   66.7758   52.4902   11.9421 C   0  0  0  0  0  0  0  0  0  0  0  0
  3  2  2  0  0  0
  2  8  1  0  0  0
  4  3  1  0  0  0
  6  3  1  0  0  0
 11  4  1  0  0  0
  4 10  2  0  0  0
 12  5  1  0  0  0
  5 11  2  0  0  0
  5  7  1  0  0  0
  7  6  2  0  0  0
 15 17  1  0  0  0
 15  1  1  0  0  0
 16 20  1  0  0  0
 26 20  1  0  0  0
 21 24  1  0  0  0
 21 22  1  0  0  0
 22 23  1  0  0  0
 23 25  1  0  0  0
 24 26  1  0  0  0
 26 25  1  0  0  0
 16 17  1  0  0  0
 17 18  2  0  0  0
  1  7  1  0  0  0
  9  8  2  0  0  0
 10  9  1  0  0  0
 16 19  1  0  0  0
 12 13  1  0  0  0
 12 14  1  0  0  0
M  END
> <minimizedAffinity>
-7.57324

$$$$
3RU1_3RU_A_398


 26 28  0  0  0  0  0  0  0  0999 V2000
   66.1136   46.7039    8.6976 C   0  0  0  0  0  0  0  0  0  0  0  0
   70.3564   48.6358   10.2384 C   0  0  0  0  0  0  0  0  0  0  0  0
   69.3711   48.5344    9.2613 C   0  0  0  0  0  0  0  0  0  0  0  0
   69.4842   49.2659    8.0873 C   0  0  0  0  0  0  0  0  0  0  0  0
   67.4705   48.3791    7.2892 C   0  0  0  0  0  0  0  0  0  0  0  0
   68.2715   47.7063    9.4489 C   0  0  0  0  0  0  0  0  0  0  0  0
   67.3049   47.6214    8.4510 C   0  0  0  0  0  0  0  0  0  0  0  0
   71.4514   49.4689   10.0371 C   0  0  0  0  0  0  0  0  0  0  0  0
   71.5695   50.2017    8.8645 C   0  0  0  0  0  0  0  0  0  0  0  0
   70.5815   50.0965    7.8928 C   0  0  0  0  0  0  0  0  0  0  0  0
   68.5431   49.1710    7.1373 N   0  0  0  0  0  0  0  0  0  0  0  0
   66.5604   48.3119    6.3137 N   0  0  0  0  0  0  0  0  0  0  0  0
   66.6764   48.8456    5.4946 H   0  0  0  0  0  0  0  0  0  0  0  0
   65.7736   47.7286    6.4139 H   0  0  0  0  0  0  0  0  0  0  0  0
   64.8382   47.5434    8.7424 C   0  0  0  0  0  0  0  0  0  0  0  0
   64.7843   49.7526    9.7624 N   0  0  0  0  0  0  0  0  0  0  0  0
   64.8173   48.4446    9.9817 C   0  0  0  0  0  0  0  0  0  0  0  0
   64.8260   47.9595   11.1084 O   0  0  0  0  0  0  0  0  0  0  0  0
   64.8037   50.1036    8.8428 H   0  0  0  0  0  0  0  0  0  0  0  0
   64.7185   50.6718   10.9070 C   0  0  0  0  0  0  0  0  0  0  0  0
   67.9478   51.8527   12.6023 C   0  0  0  0  0  0  0  0  0  0  0  0
   68.9118   51.6980   11.4250 C   0  0  0  0  0  0  0  0  0  0  0  0
   68.2313   52.0380   10.1039 C   0  0  0  0  0  0  0  0  0  0  0  0
   66.6853   51.0228   12.3828 C   0  0  0  0  0  0  0  0  0  0  0  0
   66.9382   51.2350    9.9145 C   0  0  0  0  0  0  0  0  0  0  0  0
   66.0016   51.4674   11.0931 C   0  0  0  0  0  0  0  0  0  0  0  0
  3  2  2  0  0  0
  2  8  1  0  0  0
  4  3  1  0  0  0
  6  3  1  0  0  0
 11  4  1  0  0  0
  4 10  2  0  0  0
 12  5  1  0  0  0
  5 11  2  0  0  0
  5  7  1  0  0  0
  7  6  2  0  0  0
 15 17  1  0  0  0
 15  1  1  0  0  0
 16 20  1  0  0  0
 26 20  1  0  0  0
 21 24  1  0  0  0
 21 22  1  0  0  0
 22 23  1  0  0  0
 23 25  1  0  0  0
 24 26  1  0  0  0
 26 25  1  0  0  0
 16 17  1  0  0  0
 17 18  2  0  0  0
  1  7  1  0  0  0
  9  8  2  0  0  0
 10  9  1  0  0  0
 16 19  1  0  0  0
 12 13  1  0  0  0
 12 14  1  0  0  0
M  END
> <minimizedAffinity>
-7.54440

$$$$
3RU1_3RU_A_398


 26 28  0  0  0  0  0  0  0  0999 V2000
   69.1340   45.6778   10.2405 C   0  0  0  0  0  0  0  0  0  0  0  0
   69.7521   50.5062   10.8823 C   0  0  0  0  0  0  0  0  0  0  0  0
   68.9582   49.3718   11.0174 C   0  0  0  0  0  0  0  0  0  0  0  0
   67.6984   49.4742   11.5909 C   0  0  0  0  0  0  0  0  0  0  0  0
   67.3357   47.1791   11.3100 C   0  0  0  0  0  0  0  0  0  0  0  0
   69.4142   48.1333   10.5833 C   0  0  0  0  0  0  0  0  0  0  0  0
   68.5948   47.0174   10.7268 C   0  0  0  0  0  0  0  0  0  0  0  0
   69.2827   51.7393   11.3215 C   0  0  0  0  0  0  0  0  0  0  0  0
   68.0235   51.8470   11.8948 C   0  0  0  0  0  0  0  0  0  0  0  0
   67.2357   50.7099   12.0276 C   0  0  0  0  0  0  0  0  0  0  0  0
   66.9234   48.3881   11.7206 N   0  0  0  0  0  0  0  0  0  0  0  0
   66.5275   46.1254   11.4546 N   0  0  0  0  0  0  0  0  0  0  0  0
   65.6400   46.2385   11.8655 H   0  0  0  0  0  0  0  0  0  0  0  0
   66.8193   45.2357   11.1503 H   0  0  0  0  0  0  0  0  0  0  0  0
   69.0724   45.6394    8.7147 C   0  0  0  0  0  0  0  0  0  0  0  0
   70.6319   46.8258    7.2709 N   0  0  0  0  0  0  0  0  0  0  0  0
   70.4682   45.8068    8.1044 C   0  0  0  0  0  0  0  0  0  0  0  0
   71.3734   45.0298    8.3902 O   0  0  0  0  0  0  0  0  0  0  0  0
   69.8736   47.4126    7.0473 H   0  0  0  0  0  0  0  0  0  0  0  0
   71.9573   47.0692    6.6848 C   0  0  0  0  0  0  0  0  0  0  0  0
   72.0975   50.8981    6.8168 C   0  0  0  0  0  0  0  0  0  0  0  0
   72.3373   51.0816    8.3162 C   0  0  0  0  0  0  0  0  0  0  0  0
   73.2260   49.9758    8.8742 C   0  0  0  0  0  0  0  0  0  0  0  0
   71.5312   49.5109    6.5235 C   0  0  0  0  0  0  0  0  0  0  0  0
   72.6750   48.5856    8.5327 C   0  0  0  0  0  0  0  0  0  0  0  0
   72.5036   48.4474    7.0254 C   0  0  0  0  0  0  0  0  0  0  0  0
  3  2  2  0  0  0
  2  8  1  0  0  0
  4  3  1  0  0  0
  6  3  1  0  0  0
 11  4  1  0  0  0
  4 10  2  0  0  0
 12  5  1  0  0  0
  5 11  2  0  0  0
  5  7  1  0  0  0
  7  6  2  0  0  0
 15 17  1  0  0  0
 15  1  1  0  0  0
 16 20  1  0  0  0
 26 20  1  0  0  0
 21 24  1  0  0  0
 21 22  1  0  0  0
 22 23  1  0  0  0
 23 25  1  0  0  0
 24 26  1  0  0  0
 26 25  1  0  0  0
 16 17  1  0  0  0
 17 18  2  0  0  0
  1  7  1  0  0  0
  9  8  2  0  0  0
 10  9  1  0  0  0
 16 19  1  0  0  0
 12 13  1  0  0  0
 12 14  1  0  0  0
M  END
> <minimizedAffinity>
-7.46567

$$$$
3RU1_3RU_A_398


 26 28  0  0  0  0  0  0  0  0999 V2000
   68.7780   50.3714   11.2823 C   0  0  0  0  0  0  0  0  0  0  0  0
   72.9141   49.2007    8.9095 C   0  0  0  0  0  0  0  0  0  0  0  0
   71.5597   49.5166    8.8716 C   0  0  0  0  0  0  0  0  0  0  0  0
   70.8966   49.5712    7.6535 C   0  0  0  0  0  0  0  0  0  0  0  0
   68.8893   50.1267    8.7213 C   0  0  0  0  0  0  0  0  0  0  0  0
   70.8615   49.7794   10.0436 C   0  0  0  0  0  0  0  0  0  0  0  0
   69.5059   50.0872    9.9742 C   0  0  0  0  0  0  0  0  0  0  0  0
   73.6002   48.9402    7.7284 C   0  0  0  0  0  0  0  0  0  0  0  0
   72.9416   48.9926    6.5081 C   0  0  0  0  0  0  0  0  0  0  0  0
   71.5888   49.3096    6.4769 C   0  0  0  0  0  0  0  0  0  0  0  0
   69.5905   49.8692    7.6066 N   0  0  0  0  0  0  0  0  0  0  0  0
   67.5882   50.4142    8.6270 N   0  0  0  0  0  0  0  0  0  0  0  0
   67.1530   50.4422    7.7444 H   0  0  0  0  0  0  0  0  0  0  0  0
   67.0646   50.5981    9.4402 H   0  0  0  0  0  0  0  0  0  0  0  0
   69.0032   51.8313   11.6716 C   0  0  0  0  0  0  0  0  0  0  0  0
   66.6734   52.3509   12.1468 N   0  0  0  0  0  0  0  0  0  0  0  0
   67.7417   52.6659   11.4259 C   0  0  0  0  0  0  0  0  0  0  0  0
   67.7441   53.5766   10.6040 O   0  0  0  0  0  0  0  0  0  0  0  0
   66.7042   51.5965   12.7786 H   0  0  0  0  0  0  0  0  0  0  0  0
   65.4436   53.1403   11.9919 C   0  0  0  0  0  0  0  0  0  0  0  0
   61.7803   52.1428   11.4601 C   0  0  0  0  0  0  0  0  0  0  0  0
   61.9881   50.7184   10.9432 C   0  0  0  0  0  0  0  0  0  0  0  0
   63.1728   50.0478   11.6294 C   0  0  0  0  0  0  0  0  0  0  0  0
   63.0595   52.9640   11.3177 C   0  0  0  0  0  0  0  0  0  0  0  0
   64.4418   50.9028   11.5232 C   0  0  0  0  0  0  0  0  0  0  0  0
   64.1861   52.2908   12.0963 C   0  0  0  0  0  0  0  0  0  0  0  0
  3  2  2  0  0  0
  2  8  1  0  0  0
  4  3  1  0  0  0
  6  3  1  0  0  0
 11  4  1  0  0  0
  4 10  2  0  0  0
 12  5  1  0  0  0
  5 11  2  0  0  0
  5  7  1  0  0  0
  7  6  2  0  0  0
 15 17  1  0  0  0
 15  1  1  0  0  0
 16 20  1  0  0  0
 26 20  1  0  0  0
 21 24  1  0  0  0
 21 22  1  0  0  0
 22 23  1  0  0  0
 23 25  1  0  0  0
 24 26  1  0  0  0
 26 25  1  0  0  0
 16 17  1  0  0  0
 17 18  2  0  0  0
  1  7  1  0  0  0
  9  8  2  0  0  0
 10  9  1  0  0  0
 16 19  1  0  0  0
 12 13  1  0  0  0
 12 14  1  0  0  0
M  END
> <minimizedAffinity>
-7.43846

$$$$
3RU1_3RU_A_398


 26 28  0  0  0  0  0  0  0  0999 V2000
   68.1628   48.7273   11.3741 C   0  0  0  0  0  0  0  0  0  0  0  0
   64.5873   52.0586   11.8502 C   0  0  0  0  0  0  0  0  0  0  0  0
   65.9363   51.7656   11.6768 C   0  0  0  0  0  0  0  0  0  0  0  0
   66.8589   52.7967   11.5671 C   0  0  0  0  0  0  0  0  0  0  0  0
   68.6120   51.2628   11.3399 C   0  0  0  0  0  0  0  0  0  0  0  0
   66.3713   50.4478   11.6117 C   0  0  0  0  0  0  0  0  0  0  0  0
   67.7279   50.1861   11.4433 C   0  0  0  0  0  0  0  0  0  0  0  0
   64.1662   53.3824   11.9134 C   0  0  0  0  0  0  0  0  0  0  0  0
   65.0849   54.4169   11.8050 C   0  0  0  0  0  0  0  0  0  0  0  0
   66.4308   54.1175   11.6312 C   0  0  0  0  0  0  0  0  0  0  0  0
   68.1615   52.5250   11.4053 N   0  0  0  0  0  0  0  0  0  0  0  0
   69.9196   51.0393   11.1832 N   0  0  0  0  0  0  0  0  0  0  0  0
   70.5433   51.7976   11.1103 H   0  0  0  0  0  0  0  0  0  0  0  0
   70.2596   50.1164   11.1406 H   0  0  0  0  0  0  0  0  0  0  0  0
   67.3289   48.0078   10.3157 C   0  0  0  0  0  0  0  0  0  0  0  0
   69.4857   47.6872    9.2343 N   0  0  0  0  0  0  0  0  0  0  0  0
   68.1690   47.6980    9.0720 C   0  0  0  0  0  0  0  0  0  0  0  0
   67.6303   47.4699    7.9938 O   0  0  0  0  0  0  0  0  0  0  0  0
   69.8808   47.9001   10.1105 H   0  0  0  0  0  0  0  0  0  0  0  0
   70.3479   47.3539    8.0919 C   0  0  0  0  0  0  0  0  0  0  0  0
   71.6501   50.6664    6.6673 C   0  0  0  0  0  0  0  0  0  0  0  0
   72.3329   51.2186    7.9196 C   0  0  0  0  0  0  0  0  0  0  0  0
   72.9696   50.1030    8.7406 C   0  0  0  0  0  0  0  0  0  0  0  0
   70.6397   49.5820    7.0335 C   0  0  0  0  0  0  0  0  0  0  0  0
   71.9592   48.9946    9.0621 C   0  0  0  0  0  0  0  0  0  0  0  0
   71.3503   48.4534    7.7750 C   0  0  0  0  0  0  0  0  0  0  0  0
  3  2  2  0  0  0
  2  8  1  0  0  0
  4  3  1  0  0  0
  6  3  1  0  0  0
 11  4  1  0  0  0
  4 10  2  0  0  0
 12  5  1  0  0  0
  5 11  2  0  0  0
  5  7  1  0  0  0
  7  6  2  0  0  0
 15 17  1  0  0  0
 15  1  1  0  0  0
 16 20  1  0  0  0
 26 20  1  0  0  0
 21 24  1  0  0  0
 21 22  1  0  0  0
 22 23  1  0  0  0
 23 25  1  0  0  0
 24 26  1  0  0  0
 26 25  1  0  0  0
 16 17  1  0  0  0
 17 18  2  0  0  0
  1  7  1  0  0  0
  9  8  2  0  0  0
 10  9  1  0  0  0
 16 19  1  0  0  0
 12 13  1  0  0  0
 12 14  1  0  0  0
M  END
> <minimizedAffinity>
-7.30948

$$$$
3RU1_3RU_A_398


 26 28  0  0  0  0  0  0  0  0999 V2000
   66.4572   46.3161    9.1533 C   0  0  0  0  0  0  0  0  0  0  0  0
   69.1072   49.8863   11.2362 C   0  0  0  0  0  0  0  0  0  0  0  0
   68.1602   49.4895   10.2974 C   0  0  0  0  0  0  0  0  0  0  0  0
   67.5808   50.4320    9.4593 C   0  0  0  0  0  0  0  0  0  0  0  0
   66.2915   48.7787    8.4189 C   0  0  0  0  0  0  0  0  0  0  0  0
   67.7867   48.1557   10.1895 C   0  0  0  0  0  0  0  0  0  0  0  0
   66.8408   47.7884    9.2368 C   0  0  0  0  0  0  0  0  0  0  0  0
   69.4711   51.2249   11.3331 C   0  0  0  0  0  0  0  0  0  0  0  0
   68.8954   52.1710   10.4968 C   0  0  0  0  0  0  0  0  0  0  0  0
   67.9496   51.7682    9.5617 C   0  0  0  0  0  0  0  0  0  0  0  0
   66.6715   50.0592    8.5476 N   0  0  0  0  0  0  0  0  0  0  0  0
   65.3857   48.4523    7.4930 N   0  0  0  0  0  0  0  0  0  0  0  0
   64.9981   49.1497    6.9162 H   0  0  0  0  0  0  0  0  0  0  0  0
   65.1058   47.5144    7.3873 H   0  0  0  0  0  0  0  0  0  0  0  0
   67.2894   45.6447    8.0624 C   0  0  0  0  0  0  0  0  0  0  0  0
   69.5464   46.4402    7.6184 N   0  0  0  0  0  0  0  0  0  0  0  0
   68.7827   45.6919    8.4037 C   0  0  0  0  0  0  0  0  0  0  0  0
   69.2258   45.0660    9.3612 O   0  0  0  0  0  0  0  0  0  0  0  0
   69.1569   46.9075    6.8443 H   0  0  0  0  0  0  0  0  0  0  0  0
   70.9800   46.5641    7.9165 C   0  0  0  0  0  0  0  0  0  0  0  0
   70.8815   50.2804    6.9803 C   0  0  0  0  0  0  0  0  0  0  0  0
   71.5228   50.8660    8.2393 C   0  0  0  0  0  0  0  0  0  0  0  0
   72.6089   49.9466    8.7862 C   0  0  0  0  0  0  0  0  0  0  0  0
   70.3546   48.8720    7.2443 C   0  0  0  0  0  0  0  0  0  0  0  0
   72.0832   48.5219    9.0023 C   0  0  0  0  0  0  0  0  0  0  0  0
   71.5018   47.9771    7.7041 C   0  0  0  0  0  0  0  0  0  0  0  0
  3  2  2  0  0  0
  2  8  1  0  0  0
  4  3  1  0  0  0
  6  3  1  0  0  0
 11  4  1  0  0  0
  4 10  2  0  0  0
 12  5  1  0  0  0
  5 11  2  0  0  0
  5  7  1  0  0  0
  7  6  2  0  0  0
 15 17  1  0  0  0
 15  1  1  0  0  0
 16 20  1  0  0  0
 26 20  1  0  0  0
 21 24  1  0  0  0
 21 22  1  0  0  0
 22 23  1  0  0  0
 23 25  1  0  0  0
 24 26  1  0  0  0
 26 25  1  0  0  0
 16 17  1  0  0  0
 17 18  2  0  0  0
  1  7  1  0  0  0
  9  8  2  0  0  0
 10  9  1  0  0  0
 16 19  1  0  0  0
 12 13  1  0  0  0
 12 14  1  0  0  0
M  END
> <minimizedAffinity>
-7.30878

$$$$
3RU1_3RU_A_398


 26 28  0  0  0  0  0  0  0  0999 V2000
   72.1118   50.3051    7.3090 C   0  0  0  0  0  0  0  0  0  0  0  0
   69.2787   51.3630   11.1771 C   0  0  0  0  0  0  0  0  0  0  0  0
   69.4018   50.8741    9.8804 C   0  0  0  0  0  0  0  0  0  0  0  0
   68.2774   50.4259    9.2012 C   0  0  0  0  0  0  0  0  0  0  0  0
   69.5682   49.9034    7.3200 C   0  0  0  0  0  0  0  0  0  0  0  0
   70.6420   50.8291    9.2560 C   0  0  0  0  0  0  0  0  0  0  0  0
   70.7327   50.3399    7.9562 C   0  0  0  0  0  0  0  0  0  0  0  0
   68.0309   51.4018   11.7896 C   0  0  0  0  0  0  0  0  0  0  0  0
   66.9035   50.9557   11.1143 C   0  0  0  0  0  0  0  0  0  0  0  0
   67.0333   50.4678    9.8196 C   0  0  0  0  0  0  0  0  0  0  0  0
   68.3845   49.9582    7.9494 N   0  0  0  0  0  0  0  0  0  0  0  0
   69.6266   49.4344    6.0706 N   0  0  0  0  0  0  0  0  0  0  0  0
   68.8063   49.1266    5.6215 H   0  0  0  0  0  0  0  0  0  0  0  0
   70.4898   49.3966    5.5988 H   0  0  0  0  0  0  0  0  0  0  0  0
   73.0778   49.5653    8.2324 C   0  0  0  0  0  0  0  0  0  0  0  0
   72.4204   47.6284    9.5516 N   0  0  0  0  0  0  0  0  0  0  0  0
   72.7085   48.0817    8.3385 C   0  0  0  0  0  0  0  0  0  0  0  0
   72.6823   47.3704    7.3395 O   0  0  0  0  0  0  0  0  0  0  0  0
   72.4772   48.2254   10.3324 H   0  0  0  0  0  0  0  0  0  0  0  0
   72.0155   46.2255    9.7172 C   0  0  0  0  0  0  0  0  0  0  0  0
   68.5765   47.2410   11.0735 C   0  0  0  0  0  0  0  0  0  0  0  0
   67.7139   46.8390    9.8762 C   0  0  0  0  0  0  0  0  0  0  0  0
   68.2508   45.5801    9.2048 C   0  0  0  0  0  0  0  0  0  0  0  0
   70.0385   47.3956   10.6617 C   0  0  0  0  0  0  0  0  0  0  0  0
   69.7331   45.7268    8.8387 C   0  0  0  0  0  0  0  0  0  0  0  0
   70.5450   46.0797   10.0783 C   0  0  0  0  0  0  0  0  0  0  0  0
  3  2  2  0  0  0
  2  8  1  0  0  0
  4  3  1  0  0  0
  6  3  1  0  0  0
 11  4  1  0  0  0
  4 10  2  0  0  0
 12  5  1  0  0  0
  5 11  2  0  0  0
  5  7  1  0  0  0
  7  6  2  0  0  0
 15 17  1  0  0  0
 15  1  1  0  0  0
 16 20  1  0  0  0
 26 20  1  0  0  0
 21 24  1  0  0  0
 21 22  1  0  0  0
 22 23  1  0  0  0
 23 25  1  0  0  0
 24 26  1  0  0  0
 26 25  1  0  0  0
 16 17  1  0  0  0
 17 18  2  0  0  0
  1  7  1  0  0  0
  9  8  2  0  0  0
 10  9  1  0  0  0
 16 19  1  0  0  0
 12 13  1  0  0  0
 12 14  1  0  0  0
M  END
> <minimizedAffinity>
-7.21326

$$$$
3RU1_3RU_A_398


 26 28  0  0  0  0  0  0  0  0999 V2000
   67.3152   48.7248   11.7956 C   0  0  0  0  0  0  0  0  0  0  0  0
   67.6910   53.4184   10.4040 C   0  0  0  0  0  0  0  0  0  0  0  0
   67.0239   52.4320   11.1235 C   0  0  0  0  0  0  0  0  0  0  0  0
   65.8961   52.7595   11.8633 C   0  0  0  0  0  0  0  0  0  0  0  0
   65.6549   50.5384   12.5609 C   0  0  0  0  0  0  0  0  0  0  0  0
   67.4761   51.1184   11.1098 C   0  0  0  0  0  0  0  0  0  0  0  0
   66.7845   50.1526   11.8351 C   0  0  0  0  0  0  0  0  0  0  0  0
   67.2271   54.7290   10.4271 C   0  0  0  0  0  0  0  0  0  0  0  0
   66.0994   55.0614   11.1645 C   0  0  0  0  0  0  0  0  0  0  0  0
   65.4381   54.0716   11.8817 C   0  0  0  0  0  0  0  0  0  0  0  0
   65.2431   51.8154   12.5555 N   0  0  0  0  0  0  0  0  0  0  0  0
   64.9698   49.6303   13.2611 N   0  0  0  0  0  0  0  0  0  0  0  0
   64.1737   49.9014   13.7728 H   0  0  0  0  0  0  0  0  0  0  0  0
   65.2611   48.6899   13.2655 H   0  0  0  0  0  0  0  0  0  0  0  0
   67.8864   48.4430   10.4073 C   0  0  0  0  0  0  0  0  0  0  0  0
   70.1582   49.3164   10.4046 N   0  0  0  0  0  0  0  0  0  0  0  0
   69.4024   48.2280   10.4705 C   0  0  0  0  0  0  0  0  0  0  0  0
   69.8704   47.0996   10.5814 O   0  0  0  0  0  0  0  0  0  0  0  0
   69.7452   50.2028   10.2905 H   0  0  0  0  0  0  0  0  0  0  0  0
   71.6183   49.1846   10.5039 C   0  0  0  0  0  0  0  0  0  0  0  0
   73.4174   48.7902    7.1416 C   0  0  0  0  0  0  0  0  0  0  0  0
   72.5959   49.7753    6.3086 C   0  0  0  0  0  0  0  0  0  0  0  0
   72.1682   50.9803    7.1387 C   0  0  0  0  0  0  0  0  0  0  0  0
   72.6556   48.3741    8.3975 C   0  0  0  0  0  0  0  0  0  0  0  0
   71.4467   50.5511    8.4224 C   0  0  0  0  0  0  0  0  0  0  0  0
   72.3323   49.6112    9.2303 C   0  0  0  0  0  0  0  0  0  0  0  0
  3  2  2  0  0  0
  2  8  1  0  0  0
  4  3  1  0  0  0
  6  3  1  0  0  0
 11  4  1  0  0  0
  4 10  2  0  0  0
 12  5  1  0  0  0
  5 11  2  0  0  0
  5  7  1  0  0  0
  7  6  2  0  0  0
 15 17  1  0  0  0
 15  1  1  0  0  0
 16 20  1  0  0  0
 26 20  1  0  0  0
 21 24  1  0  0  0
 21 22  1  0  0  0
 22 23  1  0  0  0
 23 25  1  0  0  0
 24 26  1  0  0  0
 26 25  1  0  0  0
 16 17  1  0  0  0
 17 18  2  0  0  0
  1  7  1  0  0  0
  9  8  2  0  0  0
 10  9  1  0  0  0
 16 19  1  0  0  0
 12 13  1  0  0  0
 12 14  1  0  0  0
M  END
> <minimizedAffinity>
-7.19072

$$$$
