3RU1_3RU_A_398
  RCSB PDB12061710373D
Coordinates from PDB:3RU1:A:398 Model:1 without hydrogens
 23 25  0  0  0  0            999 V2000
   68.3050   49.1390   11.2690   C 0  0  0  0  0  0  0  0  0  0  0  0
   67.6540   48.9940   10.0480   C 0  0  0  0  0  0  0  0  0  0  0  0
   67.8870   49.9060    9.0280   C 0  0  0  0  0  0  0  0  0  0  0  0
   66.4110   48.7670    7.6130   C 0  0  0  0  0  0  0  0  0  0  0  0
   66.7700   47.9430    9.8380   C 0  0  0  0  0  0  0  0  0  0  0  0
   63.7440   47.1920    8.3830   C 0  0  0  0  0  0  0  0  0  0  0  0
   62.4030   49.1250   11.3750   C 0  0  0  0  0  0  0  0  0  0  0  0
   65.1770   51.0190   13.2230   C 0  0  0  0  0  0  0  0  0  0  0  0
   65.4010   52.1570   12.2260   C 0  0  0  0  0  0  0  0  0  0  0  0
   64.0930   52.5830   11.5690   C 0  0  0  0  0  0  0  0  0  0  0  0
   64.4670   49.8440   12.5550   C 0  0  0  0  0  0  0  0  0  0  0  0
   63.3630   51.3880   10.9430   C 0  0  0  0  0  0  0  0  0  0  0  0
   63.1270   50.3110   11.9940   C 0  0  0  0  0  0  0  0  0  0  0  0
   62.9330   48.7670   10.0520   N 0  0  0  0  0  0  0  0  0  0  0  0
   63.2410   47.5020    9.7970   C 0  0  0  0  0  0  0  0  0  0  0  0
   63.1320   46.6100   10.6320   O 0  0  0  0  0  0  0  0  0  0  0  0
   65.1740   46.6560    8.4160   C 0  0  0  0  0  0  0  0  0  0  0  0
   66.1380   47.8210    8.6040   C 0  0  0  0  0  0  0  0  0  0  0  0
   69.1870   50.1960   11.4650   C 0  0  0  0  0  0  0  0  0  0  0  0
   69.4240   51.1100   10.4480   C 0  0  0  0  0  0  0  0  0  0  0  0
   68.7700   50.9600    9.2310   C 0  0  0  0  0  0  0  0  0  0  0  0
   67.2690   49.7720    7.8460   N 0  0  0  0  0  0  0  0  0  0  0  0
   65.8220   48.6700    6.4180   N 0  0  0  0  0  0  0  0  0  0  0  0
  2  1  2  0  0  0  0
  1 19  1  0  0  0  0
  3  2  1  0  0  0  0
  5  2  1  0  0  0  0
 22  3  1  0  0  0  0
  3 21  2  0  0  0  0
 23  4  1  0  0  0  0
  4 22  2  0  0  0  0
  4 18  1  0  0  0  0
 18  5  2  0  0  0  0
  6 15  1  0  0  0  0
  6 17  1  0  0  0  0
 14  7  1  0  0  0  0
 13  7  1  0  0  0  0
  8 11  1  0  0  0  0
  8  9  1  0  0  0  0
  9 10  1  0  0  0  0
 10 12  1  0  0  0  0
 11 13  1  0  0  0  0
 13 12  1  0  0  0  0
 14 15  1  0  0  0  0
 15 16  2  0  0  0  0
 17 18  1  0  0  0  0
 20 19  2  0  0  0  0
 21 20  1  0  0  0  0
A    1
C4
A    2
C5
A    3
C6
A    4
C8
A    5
C10
A    6
C13
A    7
C17
A    8
C20
A    9
C21
A   10
C22
A   11
C19
A   12
C23
A   13
C18
A   14
N15
A   15
C14
A   16
O16
A   17
C12
A   18
C9
A   19
C1
A   20
C2
A   21
C3
A   22
N7
A   23
N11
M  END
>  <InstanceId>
3RU1_3RU_A_398

>  <ChemCompId>
3RU

>  <PdbId>
3RU1

>  <ChainId>
A

>  <ResidueNumber>
398

>  <InsertionCode>


>  <Model>
1

>  <AltIds>


>  <MissingHeavyAtoms>
0

>  <ObservedFormula>
C19 N3 O

>  <Name>
3-(2-aminoquinolin-3-yl)-N-(cyclohexylmethyl)propanamide

>  <SystematicName>
3-(2-azanylquinolin-3-yl)-N-(cyclohexylmethyl)propanamide

>  <Synonyms>


>  <Type>
NON-POLYMER

>  <Formula>
C19 H25 N3 O

>  <MolecularWeight>
311.421

>  <ModifiedDate>
2011-08-26

>  <Parent>


>  <OneLetterCode>


>  <SubcomponentList>


>  <AmbiguousFlag>
N

>  <InChI>
InChI=1S/C19H25N3O/c20-19-16(12-15-8-4-5-9-17(15)22-19)10-11-18(23)21-13-14-6-2-1-3-7-14/h4-5,8-9,12,14H,1-3,6-7,10-11,13H2,(H2,20,22)(H,21,23)

>  <InChIKey>
YOUIXYWUUXULRM-UHFFFAOYSA-N

>  <SMILES>
c1ccc2c(c1)cc(c(n2)N)CCC(=O)NCC3CCCCC3

$$$$
