3SU2_TSV_A_100
  RCSB PDB12061710473D
Coordinates from PDB:3SU2:A:100 Model:1 without hydrogens
 51 56  0  0  0  0            999 V2000
  -12.5500   -6.1330   17.1140   C 0  0  0  0  0  0  0  0  0  0  0  0
  -15.0240  -15.0310   18.1300   F 0  0  0  0  0  0  0  0  0  0  0  0
  -18.1880   -9.2590   14.6250   N 0  0  0  0  0  0  0  0  0  0  0  0
  -19.4590  -10.7010   15.9150   O 0  0  0  0  0  0  0  0  0  0  0  0
   -8.9060   -6.0180   13.6980   S 0  0  0  0  0  0  0  0  0  0  0  0
  -12.1720   -6.5750   15.7020   C 0  0  0  0  0  0  0  0  0  0  0  0
  -12.4470   -7.9540   15.3840   N 0  0  0  0  0  0  0  0  0  0  0  0
  -18.0590  -11.4960   14.2330   O 0  0  0  0  0  0  0  0  0  0  0  0
  -13.4600   -5.7630   15.9590   C 0  0  0  0  0  0  0  0  0  0  0  0
  -10.1680   -6.6840   14.3740   N 0  0  0  0  0  0  0  0  0  0  0  0
  -15.5660   -8.3300   15.2530   O 0  0  0  0  0  0  0  0  0  0  0  0
  -10.9510   -5.9240   15.1340   C 0  0  0  0  0  0  0  0  0  0  0  0
  -13.1280  -14.4440   14.2970   N 0  0  0  0  0  0  0  0  0  0  0  0
   -7.9750   -5.5380   14.6780   O 0  0  0  0  0  0  0  0  0  0  0  0
  -13.5290   -4.3120   15.5760   C 0  0  0  0  0  0  0  0  0  0  0  0
  -14.9110   -9.7280   13.6550   N 0  0  0  0  0  0  0  0  0  0  0  0
  -12.3530  -13.7190   12.3320   O 0  0  0  0  0  0  0  0  0  0  0  0
  -18.9330  -12.9260   16.7200   C 0  0  0  0  0  0  0  0  0  0  0  0
   -9.3340   -4.9840   12.7750   O 0  0  0  0  0  0  0  0  0  0  0  0
  -20.9650  -11.6530   17.4680   C 0  0  0  0  0  0  0  0  0  0  0  0
  -13.1770   -7.4780   13.3050   O 0  0  0  0  0  0  0  0  0  0  0  0
  -20.8110  -12.5240   15.1210   C 0  0  0  0  0  0  0  0  0  0  0  0
  -13.9710  -12.4930   13.4610   O 0  0  0  0  0  0  0  0  0  0  0  0
  -20.0290  -11.9550   16.3010   C 0  0  0  0  0  0  0  0  0  0  0  0
  -10.7150   -4.7610   15.3620   O 0  0  0  0  0  0  0  0  0  0  0  0
  -14.4580   -3.8240   14.7360   C 0  0  0  0  0  0  0  0  0  0  0  0
  -13.0010   -8.2850   14.2250   C 0  0  0  0  0  0  0  0  0  0  0  0
  -12.4280  -15.7370   14.2690   C 0  0  0  0  0  0  0  0  0  0  0  0
  -15.5430   -4.6560   14.0820   C 0  0  0  0  0  0  0  0  0  0  0  0
  -13.0480  -17.9870   17.2480   C 0  0  0  0  0  0  0  0  0  0  0  0
  -13.5100   -9.6910   14.1120   C 0  0  0  0  0  0  0  0  0  0  0  0
  -12.5260  -17.6030   16.0300   C 0  0  0  0  0  0  0  0  0  0  0  0
  -13.8960  -17.1420   17.9680   C 0  0  0  0  0  0  0  0  0  0  0  0
  -15.4290   -4.6610   12.5670   C 0  0  0  0  0  0  0  0  0  0  0  0
  -16.5660   -5.4610   11.9050   C 0  0  0  0  0  0  0  0  0  0  0  0
  -18.5100  -10.5260   14.8460   C 0  0  0  0  0  0  0  0  0  0  0  0
  -14.2180  -15.8770   17.4560   C 0  0  0  0  0  0  0  0  0  0  0  0
  -16.4690   -6.9710   12.1440   C 0  0  0  0  0  0  0  0  0  0  0  0
   -8.2260   -7.2280   12.7730   C 0  0  0  0  0  0  0  0  0  0  0  0
  -12.8670  -16.3420   15.5480   C 0  0  0  0  0  0  0  0  0  0  0  0
  -17.4720   -7.4440   13.1990   C 0  0  0  0  0  0  0  0  0  0  0  0
  -13.6900  -15.5200   16.2470   C 0  0  0  0  0  0  0  0  0  0  0  0
  -12.7900  -10.4650   13.0260   C 0  0  0  0  0  0  0  0  0  0  0  0
  -17.2090   -8.8750   13.6440   C 0  0  0  0  0  0  0  0  0  0  0  0
   -6.7950   -6.9930   12.3000   C 0  0  0  0  0  0  0  0  0  0  0  0
  -13.8100  -11.4430   12.5210   C 0  0  0  0  0  0  0  0  0  0  0  0
  -13.9060  -14.2250   15.5170   C 0  0  0  0  0  0  0  0  0  0  0  0
   -7.0630   -8.0170   13.3810   C 0  0  0  0  0  0  0  0  0  0  0  0
  -15.8260   -8.9670   14.2490   C 0  0  0  0  0  0  0  0  0  0  0  0
  -15.0990  -10.6680   12.5280   C 0  0  0  0  0  0  0  0  0  0  0  0
  -13.0810  -13.6040   13.3130   C 0  0  0  0  0  0  0  0  0  0  0  0
  1  9  1  0  0  0  0
  1  6  1  0  0  0  0
  2 37  1  0  0  0  0
 36  3  1  0  0  0  0
  3 44  1  0  0  0  0
 24  4  1  0  0  0  0
  4 36  1  0  0  0  0
 14  5  2  0  0  0  0
 10  5  1  0  0  0  0
  5 39  1  0  0  0  0
  5 19  2  0  0  0  0
  9  6  1  0  0  0  0
  6  7  1  0  0  0  0
  6 12  1  0  0  0  0
  7 27  1  0  0  0  0
 36  8  2  0  0  0  0
  9 15  1  0  0  0  0
 12 10  1  0  0  0  0
 11 49  2  0  0  0  0
 25 12  2  0  0  0  0
 47 13  1  0  0  0  0
 28 13  1  0  0  0  0
 13 51  1  0  0  0  0
 15 26  2  0  0  0  0
 31 16  1  0  0  0  0
 49 16  1  0  0  0  0
 16 50  1  0  0  0  0
 51 17  2  0  0  0  0
 18 24  1  0  0  0  0
 20 24  1  0  0  0  0
 27 21  2  0  0  0  0
 24 22  1  0  0  0  0
 51 23  1  0  0  0  0
 23 46  1  0  0  0  0
 26 29  1  0  0  0  0
 31 27  1  0  0  0  0
 40 28  2  0  0  0  0
 29 34  1  0  0  0  0
 33 30  1  0  0  0  0
 30 32  2  0  0  0  0
 31 43  1  0  0  0  0
 32 40  1  0  0  0  0
 33 37  2  0  0  0  0
 34 35  1  0  0  0  0
 38 35  1  0  0  0  0
 37 42  1  0  0  0  0
 41 38  1  0  0  0  0
 48 39  1  0  0  0  0
 39 45  1  0  0  0  0
 42 40  1  0  0  0  0
 44 41  1  0  0  0  0
 42 47  2  0  0  0  0
 43 46  1  0  0  0  0
 49 44  1  0  0  0  0
 48 45  1  0  0  0  0
 46 50  1  0  0  0  0
A    1
C1
A    2
F1
A    3
N1
A    4
O1
A    5
S1
A    6
C2
A    7
N2
A    8
O2
A    9
C3
A   10
N3
A   11
O3
A   12
C4
A   13
N4
A   14
O4
A   15
C5
A   16
N5
A   17
O5
A   18
C6
A   19
O6
A   20
C7
A   21
O7
A   22
C8
A   23
O8
A   24
C9
A   25
O9
A   26
C10
A   27
C11
A   28
C12
A   29
C13
A   30
C14
A   31
C15
A   32
C16
A   33
C17
A   34
C18
A   35
C19
A   36
C20
A   37
C21
A   38
C22
A   39
C23
A   40
C24
A   41
C25
A   42
C26
A   43
C27
A   44
C28
A   45
C29
A   46
C30
A   47
C31
A   48
C32
A   49
C33
A   50
C34
A   51
C35
M  END
>  <InstanceId>
3SU2_TSV_A_100

>  <ChemCompId>
TSV

>  <PdbId>
3SU2

>  <ChainId>
A

>  <ResidueNumber>
100

>  <InsertionCode>


>  <Model>
1

>  <AltIds>


>  <MissingHeavyAtoms>
0

>  <ObservedFormula>
C35 N5 O9 S F

>  <Name>
(2R,6S,12Z,13aS,14aR,16aS)-6-[(tert-butoxycarbonyl)amino]-14a-[(cyclopropylsulfonyl)carbamoyl]-5,16-dioxo-1,2,3,5,6,7,8,9,10,11,13a,14,14a,15,16,16a-hexadecahydrocyclopropa[e]pyrrolo[1,2-a][1,4]diazacyclopentadecin-2-yl 4-fluoro-2H-isoindole-2-carboxylate

>  <SystematicName>


>  <Synonyms>
ITMN-191; danoprevir

>  <Type>
NON-POLYMER

>  <Formula>
C35 H44 F N5 O9 S

>  <MolecularWeight>
729.815

>  <ModifiedDate>
2011-07-21

>  <Parent>


>  <OneLetterCode>


>  <SubcomponentList>


>  <AmbiguousFlag>
N

>  <InChI>
InChI=1S/C35H44FN5O9S/c1-34(2,3)50-32(45)37-27-13-8-6-4-5-7-11-22-17-35(22,31(44)39-51(47,48)24-14-15-24)38-29(42)28-16-23(19-41(28)30(27)43)49-33(46)40-18-21-10-9-12-26(36)25(21)20-40/h7,9-12,18,20,22-24,27-28H,4-6,8,13-17,19H2,1-3H3,(H,37,45)(H,38,42)(H,39,44)/b11-7-/t22-,23-,27+,28+,35-/m1/s1

>  <InChIKey>
YUWURHBDLJOUAP-JSZLBQEHSA-N

>  <SMILES>
CC(C)(C)OC(=O)N[C@H]1CCCCC/C=C\[C@@H]2C[C@]2(NC(=O)[C@@H]3C[C@H](CN3C1=O)OC(=O)n4cc5cccc(c5c4)F)C(=O)NS(=O)(=O)C6CC6

$$$$
