3SU2_TSV_A_100


 54 59  0  0  0  0  0  0  0  0999 V2000
  -12.8099   -6.1840   17.1478 C   0  0  0  0  0  0  0  0  0  0  0  0
  -12.3597   -6.5647   15.7392 C   0  0  0  0  0  0  0  0  0  0  0  0
  -12.6377   -7.9217   15.3394 N   0  0  0  0  0  0  0  0  0  0  0  0
  -13.6473   -5.7426   15.9634 C   0  0  0  0  0  0  0  0  0  0  0  0
  -15.7498   -8.2339   15.0168 O   0  0  0  0  0  0  0  0  0  0  0  0
  -13.6720   -4.2739   15.6485 C   0  0  0  0  0  0  0  0  0  0  0  0
  -15.0274   -9.5655   13.3914 N   0  0  0  0  0  0  0  0  0  0  0  0
  -13.2417   -7.3334   13.2487 O   0  0  0  0  0  0  0  0  0  0  0  0
  -14.5444   -3.7293   14.7830 C   0  0  0  0  0  0  0  0  0  0  0  0
  -13.1305   -8.1866   14.1366 C   0  0  0  0  0  0  0  0  0  0  0  0
  -15.6036   -4.5091   14.0298 C   0  0  0  0  0  0  0  0  0  0  0  0
  -13.6541   -9.5760   13.9269 C   0  0  0  0  0  0  0  0  0  0  0  0
  -15.4043   -4.4436   12.5250 C   0  0  0  0  0  0  0  0  0  0  0  0
  -16.5144   -5.1901   11.7625 C   0  0  0  0  0  0  0  0  0  0  0  0
  -16.4546   -6.7113   11.9325 C   0  0  0  0  0  0  0  0  0  0  0  0
  -17.5228   -7.2159   12.9057 C   0  0  0  0  0  0  0  0  0  0  0  0
  -12.8860  -10.3102   12.8461 C   0  0  0  0  0  0  0  0  0  0  0  0
  -17.3076   -8.6711   13.2942 C   0  0  0  0  0  0  0  0  0  0  0  0
  -13.8910  -11.2441   12.2380 C   0  0  0  0  0  0  0  0  0  0  0  0
  -15.9626   -8.8172   13.9700 C   0  0  0  0  0  0  0  0  0  0  0  0
  -15.1661  -10.4469   12.2111 C   0  0  0  0  0  0  0  0  0  0  0  0
  -12.4599   -8.6599   15.9660 H   0  0  0  0  0  0  0  0  0  0  0  0
  -18.3463   -9.0837   14.1993 N   0  0  0  0  0  0  0  0  0  0  0  0
  -19.1906  -10.7234   12.8677 O   0  0  0  0  0  0  0  0  0  0  0  0
  -19.1768  -10.0782   13.9182 C   0  0  0  0  0  0  0  0  0  0  0  0
  -18.4440   -8.6113   15.0575 H   0  0  0  0  0  0  0  0  0  0  0  0
  -20.0981  -10.3778   14.9838 O   0  0  0  0  0  0  0  0  0  0  0  0
  -18.5866  -12.1241   15.7196 C   0  0  0  0  0  0  0  0  0  0  0  0
  -19.8570  -10.6610   17.3179 C   0  0  0  0  0  0  0  0  0  0  0  0
  -21.0650  -12.3656   15.9301 C   0  0  0  0  0  0  0  0  0  0  0  0
  -19.8948  -11.3877   15.9764 C   0  0  0  0  0  0  0  0  0  0  0  0
  -10.4405   -6.5148   14.2881 N   0  0  0  0  0  0  0  0  0  0  0  0
  -11.0986   -5.9097   15.2724 C   0  0  0  0  0  0  0  0  0  0  0  0
  -10.7226   -4.8772   15.7753 O   0  0  0  0  0  0  0  0  0  0  0  0
  -10.7551   -7.3737   13.9238 H   0  0  0  0  0  0  0  0  0  0  0  0
   -9.1417   -5.8209   13.7182 S   0  0  0  0  0  0  0  0  0  0  0  0
   -8.2732   -5.3819   14.7721 O   0  0  0  0  0  0  0  0  0  0  0  0
   -9.5158   -4.7495   12.8147 O   0  0  0  0  0  0  0  0  0  0  0  0
   -8.4034   -6.9911   12.7867 C   0  0  0  0  0  0  0  0  0  0  0  0
   -7.0316   -6.6378   12.2210 C   0  0  0  0  0  0  0  0  0  0  0  0
   -7.1365   -7.6463   13.3438 C   0  0  0  0  0  0  0  0  0  0  0  0
  -14.1211  -12.3348   13.1152 O   0  0  0  0  0  0  0  0  0  0  0  0
  -14.8404  -14.6709   17.9499 F   0  0  0  0  0  0  0  0  0  0  0  0
  -13.2414  -14.2651   13.9613 N   0  0  0  0  0  0  0  0  0  0  0  0
  -12.6124  -13.6301   11.9146 O   0  0  0  0  0  0  0  0  0  0  0  0
  -12.5628  -15.5694   13.9312 C   0  0  0  0  0  0  0  0  0  0  0  0
  -12.9784  -17.6909   17.0373 C   0  0  0  0  0  0  0  0  0  0  0  0
  -12.5479  -17.3633   15.7682 C   0  0  0  0  0  0  0  0  0  0  0  0
  -13.7565  -16.8047   17.7862 C   0  0  0  0  0  0  0  0  0  0  0  0
  -14.1007  -15.5556   17.2502 C   0  0  0  0  0  0  0  0  0  0  0  0
  -12.9088  -16.1168   15.2636 C   0  0  0  0  0  0  0  0  0  0  0  0
  -13.6638  -15.2548   15.9906 C   0  0  0  0  0  0  0  0  0  0  0  0
  -13.9190  -13.9859   15.2280 C   0  0  0  0  0  0  0  0  0  0  0  0
  -13.2601  -13.4651   12.9436 C   0  0  0  0  0  0  0  0  0  0  0  0
  1  4  1  0  0  0
  1  2  1  0  0  0
 43 50  1  0  0  0
 25 23  1  0  0  0
 23 18  1  0  0  0
 31 27  1  0  0  0
 27 25  1  0  0  0
 37 36  2  0  0  0
 32 36  1  0  0  0
 36 39  1  0  0  0
 36 38  2  0  0  0
  4  2  1  0  0  0
  2  3  1  0  0  0
  2 33  1  0  0  0
  3 10  1  0  0  0
 25 24  2  0  0  0
  4  6  1  0  0  0
 33 32  1  0  0  0
  5 20  2  0  0  0
 34 33  2  0  0  0
 53 44  1  0  0  0
 46 44  1  0  0  0
 44 54  1  0  0  0
  6  9  2  0  0  0
 12  7  1  0  0  0
 20  7  1  0  0  0
  7 21  1  0  0  0
 54 45  2  0  0  0
 28 31  1  0  0  0
 29 31  1  0  0  0
 10  8  2  0  0  0
 31 30  1  0  0  0
 54 42  1  0  0  0
 42 19  1  0  0  0
  9 11  1  0  0  0
 12 10  1  0  0  0
 51 46  2  0  0  0
 11 13  1  0  0  0
 49 47  1  0  0  0
 47 48  2  0  0  0
 12 17  1  0  0  0
 48 51  1  0  0  0
 49 50  2  0  0  0
 13 14  1  0  0  0
 15 14  1  0  0  0
 50 52  1  0  0  0
 16 15  1  0  0  0
 41 39  1  0  0  0
 39 40  1  0  0  0
 52 51  1  0  0  0
 18 16  1  0  0  0
 52 53  2  0  0  0
 17 19  1  0  0  0
 20 18  1  0  0  0
 41 40  1  0  0  0
 19 21  1  0  0  0
 23 26  1  0  0  0
  3 22  1  0  0  0
 32 35  1  0  0  0
M  END
> <minimizedAffinity>
-11.77412

$$$$
3SU2_TSV_A_100


 54 59  0  0  0  0  0  0  0  0999 V2000
  -12.9240   -5.9222   16.8164 C   0  0  0  0  0  0  0  0  0  0  0  0
  -12.4974   -6.5355   15.4845 C   0  0  0  0  0  0  0  0  0  0  0  0
  -12.8247   -7.9279   15.3041 N   0  0  0  0  0  0  0  0  0  0  0  0
  -13.7545   -5.6437   15.5788 C   0  0  0  0  0  0  0  0  0  0  0  0
  -15.9480   -8.1779   15.0405 O   0  0  0  0  0  0  0  0  0  0  0  0
  -13.7311   -4.2430   15.0364 C   0  0  0  0  0  0  0  0  0  0  0  0
  -15.2836   -9.7732   13.6439 N   0  0  0  0  0  0  0  0  0  0  0  0
  -13.4235   -7.6553   13.1479 O   0  0  0  0  0  0  0  0  0  0  0  0
  -14.5906   -3.8113   14.0974 C   0  0  0  0  0  0  0  0  0  0  0  0
  -13.3351   -8.3615   14.1590 C   0  0  0  0  0  0  0  0  0  0  0  0
  -15.6814   -4.6623   13.4784 C   0  0  0  0  0  0  0  0  0  0  0  0
  -13.9075   -9.7474   14.1718 C   0  0  0  0  0  0  0  0  0  0  0  0
  -15.4910   -4.8416   11.9818 C   0  0  0  0  0  0  0  0  0  0  0  0
  -16.6316   -5.6595   11.3485 C   0  0  0  0  0  0  0  0  0  0  0  0
  -16.6227   -7.1361   11.7560 C   0  0  0  0  0  0  0  0  0  0  0  0
  -17.7004   -7.4435   12.7985 C   0  0  0  0  0  0  0  0  0  0  0  0
  -13.1730  -10.6690   13.2189 C   0  0  0  0  0  0  0  0  0  0  0  0
  -17.5324   -8.8260   13.4111 C   0  0  0  0  0  0  0  0  0  0  0  0
  -14.2138  -11.6512   12.7674 C   0  0  0  0  0  0  0  0  0  0  0  0
  -16.1883   -8.9109   14.0990 C   0  0  0  0  0  0  0  0  0  0  0  0
  -15.4611  -10.8240   12.6175 C   0  0  0  0  0  0  0  0  0  0  0  0
  -12.6677   -8.5640   16.0389 H   0  0  0  0  0  0  0  0  0  0  0  0
  -18.5780   -9.0544   14.3718 N   0  0  0  0  0  0  0  0  0  0  0  0
  -19.8139  -10.4417   13.0594 O   0  0  0  0  0  0  0  0  0  0  0  0
  -19.6079   -9.8510   14.1218 C   0  0  0  0  0  0  0  0  0  0  0  0
  -18.5272   -8.6034   15.2455 H   0  0  0  0  0  0  0  0  0  0  0  0
  -20.5063   -9.9982   15.2377 O   0  0  0  0  0  0  0  0  0  0  0  0
  -21.1192  -10.8070   17.4390 C   0  0  0  0  0  0  0  0  0  0  0  0
  -21.5925  -12.0951   15.3352 C   0  0  0  0  0  0  0  0  0  0  0  0
  -19.2357  -11.8245   16.1497 C   0  0  0  0  0  0  0  0  0  0  0  0
  -20.6107  -11.1709   16.0502 C   0  0  0  0  0  0  0  0  0  0  0  0
  -10.8114   -6.5345   13.7674 N   0  0  0  0  0  0  0  0  0  0  0  0
  -11.2181   -6.0067   14.9181 C   0  0  0  0  0  0  0  0  0  0  0  0
  -10.6077   -5.1362   15.4926 O   0  0  0  0  0  0  0  0  0  0  0  0
  -11.3136   -7.2671   13.3426 H   0  0  0  0  0  0  0  0  0  0  0  0
   -9.5025   -5.9566   13.0995 S   0  0  0  0  0  0  0  0  0  0  0  0
   -8.3656   -6.0932   13.9635 O   0  0  0  0  0  0  0  0  0  0  0  0
   -9.7303   -4.5861   12.6824 O   0  0  0  0  0  0  0  0  0  0  0  0
   -9.3017   -6.8499   11.7053 C   0  0  0  0  0  0  0  0  0  0  0  0
  -10.4415   -7.7951   11.3390 C   0  0  0  0  0  0  0  0  0  0  0  0
  -10.2254   -6.5387   10.5243 C   0  0  0  0  0  0  0  0  0  0  0  0
  -14.4748  -12.5814   13.8059 O   0  0  0  0  0  0  0  0  0  0  0  0
  -10.3392  -16.0747   14.0142 F   0  0  0  0  0  0  0  0  0  0  0  0
  -14.4265  -14.8290   13.4033 N   0  0  0  0  0  0  0  0  0  0  0  0
  -16.3638  -13.7521   13.1300 O   0  0  0  0  0  0  0  0  0  0  0  0
  -14.9733  -16.1793   13.2024 C   0  0  0  0  0  0  0  0  0  0  0  0
  -12.4734  -19.0058   13.4902 C   0  0  0  0  0  0  0  0  0  0  0  0
  -13.7031  -18.4084   13.3047 C   0  0  0  0  0  0  0  0  0  0  0  0
  -11.3303  -18.2418   13.7377 C   0  0  0  0  0  0  0  0  0  0  0  0
  -11.4244  -16.8437   13.7892 C   0  0  0  0  0  0  0  0  0  0  0  0
  -13.7634  -17.0186   13.3645 C   0  0  0  0  0  0  0  0  0  0  0  0
  -12.6535  -16.2754   13.6040 C   0  0  0  0  0  0  0  0  0  0  0  0
  -12.9799  -14.8092   13.6235 C   0  0  0  0  0  0  0  0  0  0  0  0
  -15.1711  -13.7700   13.4176 C   0  0  0  0  0  0  0  0  0  0  0  0
  1  4  1  0  0  0
  1  2  1  0  0  0
 43 50  1  0  0  0
 25 23  1  0  0  0
 23 18  1  0  0  0
 31 27  1  0  0  0
 27 25  1  0  0  0
 37 36  2  0  0  0
 32 36  1  0  0  0
 36 39  1  0  0  0
 36 38  2  0  0  0
  4  2  1  0  0  0
  2  3  1  0  0  0
  2 33  1  0  0  0
  3 10  1  0  0  0
 25 24  2  0  0  0
  4  6  1  0  0  0
 33 32  1  0  0  0
  5 20  2  0  0  0
 34 33  2  0  0  0
 53 44  1  0  0  0
 46 44  1  0  0  0
 44 54  1  0  0  0
  6  9  2  0  0  0
 12  7  1  0  0  0
 20  7  1  0  0  0
  7 21  1  0  0  0
 54 45  2  0  0  0
 28 31  1  0  0  0
 29 31  1  0  0  0
 10  8  2  0  0  0
 31 30  1  0  0  0
 54 42  1  0  0  0
 42 19  1  0  0  0
  9 11  1  0  0  0
 12 10  1  0  0  0
 51 46  2  0  0  0
 11 13  1  0  0  0
 49 47  1  0  0  0
 47 48  2  0  0  0
 12 17  1  0  0  0
 48 51  1  0  0  0
 49 50  2  0  0  0
 13 14  1  0  0  0
 15 14  1  0  0  0
 50 52  1  0  0  0
 16 15  1  0  0  0
 41 39  1  0  0  0
 39 40  1  0  0  0
 52 51  1  0  0  0
 18 16  1  0  0  0
 52 53  2  0  0  0
 17 19  1  0  0  0
 20 18  1  0  0  0
 41 40  1  0  0  0
 19 21  1  0  0  0
 23 26  1  0  0  0
  3 22  1  0  0  0
 32 35  1  0  0  0
M  END
> <minimizedAffinity>
-9.70737

$$$$
3SU2_TSV_A_100


 54 59  0  0  0  0  0  0  0  0999 V2000
  -13.5994   -6.1213   16.1778 C   0  0  0  0  0  0  0  0  0  0  0  0
  -12.9847   -6.9441   15.0478 C   0  0  0  0  0  0  0  0  0  0  0  0
  -13.2562   -8.3595   15.0859 N   0  0  0  0  0  0  0  0  0  0  0  0
  -14.2609   -6.1070   14.8135 C   0  0  0  0  0  0  0  0  0  0  0  0
  -16.3096   -8.7921   14.4725 O   0  0  0  0  0  0  0  0  0  0  0  0
  -14.1931   -4.8268   14.0303 C   0  0  0  0  0  0  0  0  0  0  0  0
  -15.4305  -10.5811   13.4907 N   0  0  0  0  0  0  0  0  0  0  0  0
  -13.5640   -8.5057   12.8576 O   0  0  0  0  0  0  0  0  0  0  0  0
  -14.9267   -4.6097   12.9251 C   0  0  0  0  0  0  0  0  0  0  0  0
  -13.5985   -9.0141   13.9841 C   0  0  0  0  0  0  0  0  0  0  0  0
  -15.9065   -5.6060   12.3380 C   0  0  0  0  0  0  0  0  0  0  0  0
  -14.1390  -10.3993   14.1778 C   0  0  0  0  0  0  0  0  0  0  0  0
  -15.5123   -6.0425   10.9371 C   0  0  0  0  0  0  0  0  0  0  0  0
  -16.5402   -7.0109   10.3234 C   0  0  0  0  0  0  0  0  0  0  0  0
  -16.5562   -8.3885   10.9933 C   0  0  0  0  0  0  0  0  0  0  0  0
  -17.7582   -8.5514   11.9268 C   0  0  0  0  0  0  0  0  0  0  0  0
  -13.2641  -11.4433   13.5134 C   0  0  0  0  0  0  0  0  0  0  0  0
  -17.6462   -9.7925   12.7998 C   0  0  0  0  0  0  0  0  0  0  0  0
  -14.2142  -12.5362   13.1200 C   0  0  0  0  0  0  0  0  0  0  0  0
  -16.4057   -9.6923   13.6590 C   0  0  0  0  0  0  0  0  0  0  0  0
  -15.4464  -11.8060   12.6610 C   0  0  0  0  0  0  0  0  0  0  0  0
  -13.1868   -8.8456   15.9392 H   0  0  0  0  0  0  0  0  0  0  0  0
  -18.8069   -9.8910   13.6432 N   0  0  0  0  0  0  0  0  0  0  0  0
  -19.1104  -12.1297   13.3768 O   0  0  0  0  0  0  0  0  0  0  0  0
  -19.4202  -11.0440   13.8722 C   0  0  0  0  0  0  0  0  0  0  0  0
  -19.1584   -9.0739   14.0652 H   0  0  0  0  0  0  0  0  0  0  0  0
  -20.5188  -10.9382   14.7974 O   0  0  0  0  0  0  0  0  0  0  0  0
  -21.1030  -10.4713   17.1030 C   0  0  0  0  0  0  0  0  0  0  0  0
  -21.3880  -12.7380   16.0589 C   0  0  0  0  0  0  0  0  0  0  0  0
  -19.0929  -11.8342   16.5137 C   0  0  0  0  0  0  0  0  0  0  0  0
  -20.5243  -11.4812   16.1208 C   0  0  0  0  0  0  0  0  0  0  0  0
  -11.3375   -6.7554   13.3034 N   0  0  0  0  0  0  0  0  0  0  0  0
  -11.6516   -6.4690   14.5634 C   0  0  0  0  0  0  0  0  0  0  0  0
  -10.9186   -5.8497   15.2978 O   0  0  0  0  0  0  0  0  0  0  0  0
  -11.9424   -7.2921   12.7419 H   0  0  0  0  0  0  0  0  0  0  0  0
   -9.9698   -6.2126   12.7308 S   0  0  0  0  0  0  0  0  0  0  0  0
   -8.8580   -6.9909   13.1955 O   0  0  0  0  0  0  0  0  0  0  0  0
   -9.8361   -4.8014   13.0387 O   0  0  0  0  0  0  0  0  0  0  0  0
  -10.1238   -6.3244   11.0737 C   0  0  0  0  0  0  0  0  0  0  0  0
  -11.3140   -7.1274   10.5588 C   0  0  0  0  0  0  0  0  0  0  0  0
  -11.3180   -5.6205   10.4233 C   0  0  0  0  0  0  0  0  0  0  0  0
  -14.5939  -13.2755   14.2695 O   0  0  0  0  0  0  0  0  0  0  0  0
  -16.9062  -14.6409   18.9746 F   0  0  0  0  0  0  0  0  0  0  0  0
  -14.0298  -14.9049   15.7672 N   0  0  0  0  0  0  0  0  0  0  0  0
  -12.7407  -14.6419   13.9626 O   0  0  0  0  0  0  0  0  0  0  0  0
  -13.3611  -16.1199   16.2562 C   0  0  0  0  0  0  0  0  0  0  0  0
  -14.7926  -17.5979   19.4324 C   0  0  0  0  0  0  0  0  0  0  0  0
  -13.9541  -17.4956   18.3415 C   0  0  0  0  0  0  0  0  0  0  0  0
  -15.7969  -16.6542   19.6610 C   0  0  0  0  0  0  0  0  0  0  0  0
  -15.9548  -15.5767   18.7778 C   0  0  0  0  0  0  0  0  0  0  0  0
  -14.1385  -16.4157   17.4821 C   0  0  0  0  0  0  0  0  0  0  0  0
  -15.1133  -15.4980   17.7038 C   0  0  0  0  0  0  0  0  0  0  0  0
  -15.1094  -14.4389   16.6384 C   0  0  0  0  0  0  0  0  0  0  0  0
  -13.7079  -14.3326   14.6514 C   0  0  0  0  0  0  0  0  0  0  0  0
  1  4  1  0  0  0
  1  2  1  0  0  0
 43 50  1  0  0  0
 25 23  1  0  0  0
 23 18  1  0  0  0
 31 27  1  0  0  0
 27 25  1  0  0  0
 37 36  2  0  0  0
 32 36  1  0  0  0
 36 39  1  0  0  0
 36 38  2  0  0  0
  4  2  1  0  0  0
  2  3  1  0  0  0
  2 33  1  0  0  0
  3 10  1  0  0  0
 25 24  2  0  0  0
  4  6  1  0  0  0
 33 32  1  0  0  0
  5 20  2  0  0  0
 34 33  2  0  0  0
 53 44  1  0  0  0
 46 44  1  0  0  0
 44 54  1  0  0  0
  6  9  2  0  0  0
 12  7  1  0  0  0
 20  7  1  0  0  0
  7 21  1  0  0  0
 54 45  2  0  0  0
 28 31  1  0  0  0
 29 31  1  0  0  0
 10  8  2  0  0  0
 31 30  1  0  0  0
 54 42  1  0  0  0
 42 19  1  0  0  0
  9 11  1  0  0  0
 12 10  1  0  0  0
 51 46  2  0  0  0
 11 13  1  0  0  0
 49 47  1  0  0  0
 47 48  2  0  0  0
 12 17  1  0  0  0
 48 51  1  0  0  0
 49 50  2  0  0  0
 13 14  1  0  0  0
 15 14  1  0  0  0
 50 52  1  0  0  0
 16 15  1  0  0  0
 41 39  1  0  0  0
 39 40  1  0  0  0
 52 51  1  0  0  0
 18 16  1  0  0  0
 52 53  2  0  0  0
 17 19  1  0  0  0
 20 18  1  0  0  0
 41 40  1  0  0  0
 19 21  1  0  0  0
 23 26  1  0  0  0
  3 22  1  0  0  0
 32 35  1  0  0  0
M  END
> <minimizedAffinity>
-8.88270

$$$$
