4BI7_PGA_A_401


 12 11  0  0  0  0  0  0  0  0999 V2000
    3.4095  -17.8764  -24.3170 P   0  0  0  0  0  0  0  0  0  0  0  0
    3.7476  -18.5919  -25.6020 O   0  0  0  0  0  0  0  0  0  0  0  0
    3.5725  -16.3815  -24.5057 O   0  0  0  0  0  0  0  0  0  0  0  0
    4.3360  -18.3247  -23.2170 O   0  0  0  0  0  0  0  0  0  0  0  0
    2.9810  -16.0783  -25.2122 H   0  0  0  0  0  0  0  0  0  0  0  0
    4.2422  -19.2811  -23.0850 H   0  0  0  0  0  0  0  0  0  0  0  0
    1.8787  -18.2439  -23.9471 O   0  0  0  0  0  0  0  0  0  0  0  0
    1.3192  -19.4990  -24.2993 C   0  0  0  0  0  0  0  0  0  0  0  0
    1.4601  -20.4619  -23.1387 C   0  0  0  0  0  0  0  0  0  0  0  0
    2.5977  -20.8302  -22.7124 O   0  0  0  0  0  0  0  0  0  0  0  0
    0.4086  -20.8843  -22.5909 O   0  0  0  0  0  0  0  0  0  0  0  0
   -0.4286  -20.6094  -22.9094 H   0  0  0  0  0  0  0  0  0  0  0  0
  1  7  1  0  0  0
  1  2  2  0  0  0
  1  3  1  0  0  0
  1  4  1  0  0  0
  7  8  1  0  0  0
  8  9  1  0  0  0
  9 10  2  0  0  0
  9 11  1  0  0  0
  3  5  1  0  0  0
  4  6  1  0  0  0
 11 12  1  0  0  0
M  END
> <minimizedAffinity>
-5.69568

$$$$
4BI7_PGA_A_401


 12 11  0  0  0  0  0  0  0  0999 V2000
    1.0599  -19.2248  -24.0611 P   0  0  0  0  0  0  0  0  0  0  0  0
   -0.0991  -18.4388  -24.6237 O   0  0  0  0  0  0  0  0  0  0  0  0
    2.1606  -18.2761  -23.6308 O   0  0  0  0  0  0  0  0  0  0  0  0
    1.6113  -20.1545  -25.1104 O   0  0  0  0  0  0  0  0  0  0  0  0
    1.8193  -17.6705  -22.9542 H   0  0  0  0  0  0  0  0  0  0  0  0
    0.9166  -20.7684  -25.3957 H   0  0  0  0  0  0  0  0  0  0  0  0
    0.5044  -20.0688  -22.7985 O   0  0  0  0  0  0  0  0  0  0  0  0
    0.8759  -21.4234  -22.6000 C   0  0  0  0  0  0  0  0  0  0  0  0
    2.1405  -21.4870  -21.7688 C   0  0  0  0  0  0  0  0  0  0  0  0
    3.2910  -21.3959  -22.2973 O   0  0  0  0  0  0  0  0  0  0  0  0
    2.0220  -21.6213  -20.5229 O   0  0  0  0  0  0  0  0  0  0  0  0
    1.1704  -21.6881  -20.1378 H   0  0  0  0  0  0  0  0  0  0  0  0
  1  7  1  0  0  0
  1  2  2  0  0  0
  1  3  1  0  0  0
  1  4  1  0  0  0
  7  8  1  0  0  0
  8  9  1  0  0  0
  9 10  2  0  0  0
  9 11  1  0  0  0
  3  5  1  0  0  0
  4  6  1  0  0  0
 11 12  1  0  0  0
M  END
> <minimizedAffinity>
-5.47796

$$$$
4BI7_PGA_A_401


 12 11  0  0  0  0  0  0  0  0999 V2000
    3.5207  -18.0903  -24.1871 P   0  0  0  0  0  0  0  0  0  0  0  0
    3.8152  -16.6725  -23.7623 O   0  0  0  0  0  0  0  0  0  0  0  0
    4.3887  -19.0511  -23.3996 O   0  0  0  0  0  0  0  0  0  0  0  0
    3.8218  -18.2634  -25.6530 O   0  0  0  0  0  0  0  0  0  0  0  0
    4.2052  -18.9506  -22.4524 H   0  0  0  0  0  0  0  0  0  0  0  0
    3.2725  -17.6537  -26.1701 H   0  0  0  0  0  0  0  0  0  0  0  0
    1.9534  -18.3659  -23.8990 O   0  0  0  0  0  0  0  0  0  0  0  0
    1.3349  -19.5776  -24.3010 C   0  0  0  0  0  0  0  0  0  0  0  0
    1.2209  -20.5087  -23.1118 C   0  0  0  0  0  0  0  0  0  0  0  0
    2.2475  -20.9915  -22.5422 O   0  0  0  0  0  0  0  0  0  0  0  0
    0.0688  -20.7863  -22.6876 O   0  0  0  0  0  0  0  0  0  0  0  0
   -0.6857  -20.4272  -23.1115 H   0  0  0  0  0  0  0  0  0  0  0  0
  1  7  1  0  0  0
  1  2  2  0  0  0
  1  3  1  0  0  0
  1  4  1  0  0  0
  7  8  1  0  0  0
  8  9  1  0  0  0
  9 10  2  0  0  0
  9 11  1  0  0  0
  3  5  1  0  0  0
  4  6  1  0  0  0
 11 12  1  0  0  0
M  END
> <minimizedAffinity>
-5.44214

$$$$
4BI7_PGA_A_401


 12 11  0  0  0  0  0  0  0  0999 V2000
    0.8651  -20.4327  -23.4910 P   0  0  0  0  0  0  0  0  0  0  0  0
    1.5665  -20.8264  -22.2141 O   0  0  0  0  0  0  0  0  0  0  0  0
   -0.0211  -19.2296  -23.2380 O   0  0  0  0  0  0  0  0  0  0  0  0
    0.0040  -21.5686  -23.9786 O   0  0  0  0  0  0  0  0  0  0  0  0
    0.5208  -18.4894  -22.9230 H   0  0  0  0  0  0  0  0  0  0  0  0
    0.5589  -22.3466  -24.1449 H   0  0  0  0  0  0  0  0  0  0  0  0
    2.0067  -20.0844  -24.5823 O   0  0  0  0  0  0  0  0  0  0  0  0
    2.5336  -18.7727  -24.7006 C   0  0  0  0  0  0  0  0  0  0  0  0
    3.6958  -18.6037  -23.7441 C   0  0  0  0  0  0  0  0  0  0  0  0
    4.0813  -17.4571  -23.3593 O   0  0  0  0  0  0  0  0  0  0  0  0
    4.2704  -19.6418  -23.3239 O   0  0  0  0  0  0  0  0  0  0  0  0
    3.9820  -20.4858  -23.6111 H   0  0  0  0  0  0  0  0  0  0  0  0
  1  7  1  0  0  0
  1  2  2  0  0  0
  1  3  1  0  0  0
  1  4  1  0  0  0
  7  8  1  0  0  0
  8  9  1  0  0  0
  9 10  2  0  0  0
  9 11  1  0  0  0
  3  5  1  0  0  0
  4  6  1  0  0  0
 11 12  1  0  0  0
M  END
> <minimizedAffinity>
-5.40693

$$$$
4BI7_PGA_A_401


 12 11  0  0  0  0  0  0  0  0999 V2000
    0.7826  -20.1240  -23.4896 P   0  0  0  0  0  0  0  0  0  0  0  0
   -0.6025  -19.7966  -22.9878 O   0  0  0  0  0  0  0  0  0  0  0  0
    0.6937  -21.1381  -24.6122 O   0  0  0  0  0  0  0  0  0  0  0  0
    1.6097  -20.7123  -22.3763 O   0  0  0  0  0  0  0  0  0  0  0  0
    0.1631  -20.7723  -25.3372 H   0  0  0  0  0  0  0  0  0  0  0  0
    1.6752  -20.0731  -21.6497 H   0  0  0  0  0  0  0  0  0  0  0  0
    1.4456  -18.7452  -24.0138 O   0  0  0  0  0  0  0  0  0  0  0  0
    2.7048  -18.7377  -24.6671 C   0  0  0  0  0  0  0  0  0  0  0  0
    3.5091  -17.5398  -24.2065 C   0  0  0  0  0  0  0  0  0  0  0  0
    4.2572  -17.5929  -23.1824 O   0  0  0  0  0  0  0  0  0  0  0  0
    3.4270  -16.4794  -24.8796 O   0  0  0  0  0  0  0  0  0  0  0  0
    2.8733  -16.4454  -25.6347 H   0  0  0  0  0  0  0  0  0  0  0  0
  1  7  1  0  0  0
  1  2  2  0  0  0
  1  3  1  0  0  0
  1  4  1  0  0  0
  7  8  1  0  0  0
  8  9  1  0  0  0
  9 10  2  0  0  0
  9 11  1  0  0  0
  3  5  1  0  0  0
  4  6  1  0  0  0
 11 12  1  0  0  0
M  END
> <minimizedAffinity>
-5.37549

$$$$
4BI7_PGA_A_401


 12 11  0  0  0  0  0  0  0  0999 V2000
    1.8353  -19.7244  -23.8947 P   0  0  0  0  0  0  0  0  0  0  0  0
    3.2410  -20.0775  -23.4744 O   0  0  0  0  0  0  0  0  0  0  0  0
    1.5120  -20.3954  -25.2146 O   0  0  0  0  0  0  0  0  0  0  0  0
    1.7079  -18.2337  -24.0708 O   0  0  0  0  0  0  0  0  0  0  0  0
    1.5901  -21.3572  -25.1160 H   0  0  0  0  0  0  0  0  0  0  0  0
    1.9123  -17.7904  -23.2325 H   0  0  0  0  0  0  0  0  0  0  0  0
    0.8384  -20.2398  -22.7302 O   0  0  0  0  0  0  0  0  0  0  0  0
    0.3873  -21.5842  -22.6916 C   0  0  0  0  0  0  0  0  0  0  0  0
    1.0169  -22.2978  -21.5133 C   0  0  0  0  0  0  0  0  0  0  0  0
    0.7787  -23.5206  -21.2696 O   0  0  0  0  0  0  0  0  0  0  0  0
    1.8027  -21.6444  -20.7785 O   0  0  0  0  0  0  0  0  0  0  0  0
    1.9751  -20.7420  -20.9628 H   0  0  0  0  0  0  0  0  0  0  0  0
  1  7  1  0  0  0
  1  2  2  0  0  0
  1  3  1  0  0  0
  1  4  1  0  0  0
  7  8  1  0  0  0
  8  9  1  0  0  0
  9 10  2  0  0  0
  9 11  1  0  0  0
  3  5  1  0  0  0
  4  6  1  0  0  0
 11 12  1  0  0  0
M  END
> <minimizedAffinity>
-5.27367

$$$$
4BI7_PGA_A_401


 12 11  0  0  0  0  0  0  0  0999 V2000
    3.1333  -18.5948  -24.3700 P   0  0  0  0  0  0  0  0  0  0  0  0
    3.8902  -18.4916  -25.6714 O   0  0  0  0  0  0  0  0  0  0  0  0
    2.9933  -17.2195  -23.7490 O   0  0  0  0  0  0  0  0  0  0  0  0
    3.8792  -19.4818  -23.4075 O   0  0  0  0  0  0  0  0  0  0  0  0
    2.5141  -16.6367  -24.3586 H   0  0  0  0  0  0  0  0  0  0  0  0
    3.9764  -20.3668  -23.7924 H   0  0  0  0  0  0  0  0  0  0  0  0
    1.6811  -19.2237  -24.7035 O   0  0  0  0  0  0  0  0  0  0  0  0
    0.7494  -19.5077  -23.6722 C   0  0  0  0  0  0  0  0  0  0  0  0
   -0.3858  -18.5064  -23.7231 C   0  0  0  0  0  0  0  0  0  0  0  0
   -0.9005  -18.1374  -24.8233 O   0  0  0  0  0  0  0  0  0  0  0  0
   -0.8216  -18.0518  -22.6333 O   0  0  0  0  0  0  0  0  0  0  0  0
   -0.4382  -18.3274  -21.8240 H   0  0  0  0  0  0  0  0  0  0  0  0
  1  7  1  0  0  0
  1  2  2  0  0  0
  1  3  1  0  0  0
  1  4  1  0  0  0
  7  8  1  0  0  0
  8  9  1  0  0  0
  9 10  2  0  0  0
  9 11  1  0  0  0
  3  5  1  0  0  0
  4  6  1  0  0  0
 11 12  1  0  0  0
M  END
> <minimizedAffinity>
-4.67079

$$$$
4BI7_PGA_A_401


 12 11  0  0  0  0  0  0  0  0999 V2000
    0.6734  -22.5717  -21.4340 P   0  0  0  0  0  0  0  0  0  0  0  0
   -0.6920  -22.3697  -20.8237 O   0  0  0  0  0  0  0  0  0  0  0  0
    1.0739  -24.0290  -21.3209 O   0  0  0  0  0  0  0  0  0  0  0  0
    1.6935  -21.7362  -20.7054 O   0  0  0  0  0  0  0  0  0  0  0  0
    0.4249  -24.5797  -21.7862 H   0  0  0  0  0  0  0  0  0  0  0  0
    1.4496  -20.7996  -20.7695 H   0  0  0  0  0  0  0  0  0  0  0  0
    0.5817  -22.1210  -22.9844 O   0  0  0  0  0  0  0  0  0  0  0  0
    0.0674  -20.8507  -23.3507 C   0  0  0  0  0  0  0  0  0  0  0  0
    1.2075  -19.9365  -23.7488 C   0  0  0  0  0  0  0  0  0  0  0  0
    2.3892  -20.1203  -23.3231 O   0  0  0  0  0  0  0  0  0  0  0  0
    0.9549  -18.9845  -24.5325 O   0  0  0  0  0  0  0  0  0  0  0  0
    0.0809  -18.8533  -24.8438 H   0  0  0  0  0  0  0  0  0  0  0  0
  1  7  1  0  0  0
  1  2  2  0  0  0
  1  3  1  0  0  0
  1  4  1  0  0  0
  7  8  1  0  0  0
  8  9  1  0  0  0
  9 10  2  0  0  0
  9 11  1  0  0  0
  3  5  1  0  0  0
  4  6  1  0  0  0
 11 12  1  0  0  0
M  END
> <minimizedAffinity>
-4.66224

$$$$
4BI7_PGA_A_401


 12 11  0  0  0  0  0  0  0  0999 V2000
    0.0108  -20.9832  -23.0154 P   0  0  0  0  0  0  0  0  0  0  0  0
    0.0001  -21.9892  -21.8905 O   0  0  0  0  0  0  0  0  0  0  0  0
   -1.2904  -20.2063  -23.0194 O   0  0  0  0  0  0  0  0  0  0  0  0
    0.1518  -21.6894  -24.3386 O   0  0  0  0  0  0  0  0  0  0  0  0
   -1.3946  -19.7457  -22.1721 H   0  0  0  0  0  0  0  0  0  0  0  0
    0.9816  -22.1916  -24.3503 H   0  0  0  0  0  0  0  0  0  0  0  0
    1.2675  -19.9955  -22.7690 O   0  0  0  0  0  0  0  0  0  0  0  0
    2.4975  -20.1885  -23.4489 C   0  0  0  0  0  0  0  0  0  0  0  0
    3.4355  -21.0017  -22.5812 C   0  0  0  0  0  0  0  0  0  0  0  0
    4.6540  -21.1716  -22.8941 O   0  0  0  0  0  0  0  0  0  0  0  0
    2.9755  -21.5014  -21.5215 O   0  0  0  0  0  0  0  0  0  0  0  0
    2.0754  -21.3730  -21.2952 H   0  0  0  0  0  0  0  0  0  0  0  0
  1  7  1  0  0  0
  1  2  2  0  0  0
  1  3  1  0  0  0
  1  4  1  0  0  0
  7  8  1  0  0  0
  8  9  1  0  0  0
  9 10  2  0  0  0
  9 11  1  0  0  0
  3  5  1  0  0  0
  4  6  1  0  0  0
 11 12  1  0  0  0
M  END
> <minimizedAffinity>
-4.44790

$$$$
4BI7_PGA_A_401


 12 11  0  0  0  0  0  0  0  0999 V2000
   -1.1322  -22.1504  -22.7624 P   0  0  0  0  0  0  0  0  0  0  0  0
   -2.5540  -21.6475  -22.7072 O   0  0  0  0  0  0  0  0  0  0  0  0
   -0.8449  -22.7227  -24.1360 O   0  0  0  0  0  0  0  0  0  0  0  0
   -0.9283  -23.2363  -21.7383 O   0  0  0  0  0  0  0  0  0  0  0  0
   -0.9724  -22.0336  -24.8066 H   0  0  0  0  0  0  0  0  0  0  0  0
   -1.1090  -22.8837  -20.8529 H   0  0  0  0  0  0  0  0  0  0  0  0
   -0.1623  -20.8945  -22.4504 O   0  0  0  0  0  0  0  0  0  0  0  0
    1.1293  -20.8024  -23.0298 C   0  0  0  0  0  0  0  0  0  0  0  0
    2.1665  -21.2881  -22.0387 C   0  0  0  0  0  0  0  0  0  0  0  0
    3.4007  -21.3312  -22.3327 O   0  0  0  0  0  0  0  0  0  0  0  0
    1.7723  -21.6410  -20.8966 O   0  0  0  0  0  0  0  0  0  0  0  0
    0.8602  -21.6073  -20.6847 H   0  0  0  0  0  0  0  0  0  0  0  0
  1  7  1  0  0  0
  1  2  2  0  0  0
  1  3  1  0  0  0
  1  4  1  0  0  0
  7  8  1  0  0  0
  8  9  1  0  0  0
  9 10  2  0  0  0
  9 11  1  0  0  0
  3  5  1  0  0  0
  4  6  1  0  0  0
 11 12  1  0  0  0
M  END
> <minimizedAffinity>
-4.43775

$$$$
