1D4J_MSC_B_501


 52 56  0  0  0  0  0  0  0  0999 V2000
   13.6494   23.1238    5.0223 C   0  0  0  0  0  0  0  0  0  0  0  0
   13.9405   22.9161    3.6151 O   0  0  0  0  0  0  0  0  0  0  0  0
   14.6219   23.5447    3.3296 H   0  0  0  0  0  0  0  0  0  0  0  0
   13.1040   24.5310    5.2046 C   0  0  0  0  0  0  0  0  0  0  0  0
   14.0086   25.4362    4.5130 O   0  0  0  0  0  0  0  0  0  0  0  0
   14.0263   25.2165    3.5684 H   0  0  0  0  0  0  0  0  0  0  0  0
   11.6762   24.7177    4.6877 C   0  0  0  0  0  0  0  0  0  0  0  0
   10.7372   24.5921    5.8790 C   0  0  0  0  0  0  0  0  0  0  0  0
   10.8406   23.6575    6.6767 O   0  0  0  0  0  0  0  0  0  0  0  0
    9.7133   25.5096    6.0084 N   0  0  0  0  0  0  0  0  0  0  0  0
    9.6203   26.2178    5.3310 H   0  0  0  0  0  0  0  0  0  0  0  0
    8.7656   25.4640    7.1149 C   0  0  0  0  0  0  0  0  0  0  0  0
    8.7506   26.5557    8.0727 C   0  0  0  0  0  0  0  0  0  0  0  0
    9.8322   26.7204    9.0180 C   0  0  0  0  0  0  0  0  0  0  0  0
    9.7824   27.7942    9.9900 C   0  0  0  0  0  0  0  0  0  0  0  0
    8.6599   28.6961   10.0168 C   0  0  0  0  0  0  0  0  0  0  0  0
    7.5832   28.5380    9.0809 C   0  0  0  0  0  0  0  0  0  0  0  0
    7.6312   27.4645    8.1072 C   0  0  0  0  0  0  0  0  0  0  0  0
    6.1149   27.2332    6.7723 Cl  0  0  0  0  0  0  0  0  0  0  0  0
   10.8603   25.8775    9.0139 F   0  0  0  0  0  0  0  0  0  0  0  0
   11.3463   23.7163    3.6967 O   0  0  0  0  0  0  0  0  0  0  0  0
   10.7986   24.2752    2.4841 C   0  0  0  0  0  0  0  0  0  0  0  0
    9.2849   24.3423    2.4784 C   0  0  0  0  0  0  0  0  0  0  0  0
    8.5088   23.2482    3.0213 C   0  0  0  0  0  0  0  0  0  0  0  0
    7.0745   23.2726    2.9277 C   0  0  0  0  0  0  0  0  0  0  0  0
    6.4144   24.3864    2.3044 C   0  0  0  0  0  0  0  0  0  0  0  0
    7.1773   25.4834    1.7723 C   0  0  0  0  0  0  0  0  0  0  0  0
    8.6089   25.4695    1.8571 C   0  0  0  0  0  0  0  0  0  0  0  0
   14.8647   22.8323    5.8720 C   0  0  0  0  0  0  0  0  0  0  0  0
   15.0792   21.3488    5.7422 C   0  0  0  0  0  0  0  0  0  0  0  0
   14.1386   20.5669    5.9074 O   0  0  0  0  0  0  0  0  0  0  0  0
   16.3563   20.8922    5.4570 N   0  0  0  0  0  0  0  0  0  0  0  0
   17.0794   21.5498    5.3391 H   0  0  0  0  0  0  0  0  0  0  0  0
   16.6676   19.4797    5.3257 C   0  0  0  0  0  0  0  0  0  0  0  0
   16.5773   18.9701    3.9060 C   0  0  0  0  0  0  0  0  0  0  0  0
   15.6821   19.3527    2.8428 C   0  0  0  0  0  0  0  0  0  0  0  0
   15.7994   18.7121    1.5524 C   0  0  0  0  0  0  0  0  0  0  0  0
   16.8103   17.7073    1.3346 C   0  0  0  0  0  0  0  0  0  0  0  0
   17.7143   17.3273    2.3874 C   0  0  0  0  0  0  0  0  0  0  0  0
   17.5856   17.9685    3.6661 C   0  0  0  0  0  0  0  0  0  0  0  0
   18.4082   17.7586    4.8968 C   0  0  0  0  0  0  0  0  0  0  0  0
   18.1072   19.0550    5.6863 C   0  0  0  0  0  0  0  0  0  0  0  0
   18.9970   20.1015    5.2925 O   0  0  0  0  0  0  0  0  0  0  0  0
   18.8984   20.2692    4.3422 H   0  0  0  0  0  0  0  0  0  0  0  0
   14.6120   23.1611    7.2629 O   0  0  0  0  0  0  0  0  0  0  0  0
   15.8314   23.3328    8.0220 C   0  0  0  0  0  0  0  0  0  0  0  0
   16.2346   22.1090    8.8373 C   0  0  0  0  0  0  0  0  0  0  0  0
   15.2569   21.4400    9.6797 C   0  0  0  0  0  0  0  0  0  0  0  0
   15.6133   20.2221   10.3659 C   0  0  0  0  0  0  0  0  0  0  0  0
   16.9387   19.6771   10.2208 C   0  0  0  0  0  0  0  0  0  0  0  0
   17.9145   20.3452    9.3961 C   0  0  0  0  0  0  0  0  0  0  0  0
   17.5658   21.5570    8.7075 C   0  0  0  0  0  0  0  0  0  0  0  0
  1  2  1  0  0  0
  1 29  1  0  0  0
  1  4  1  0  0  0
 29 45  1  0  0  0
 29 30  1  0  0  0
 45 46  1  0  0  0
 46 47  1  0  0  0
 47 48  2  0  0  0
 47 52  1  0  0  0
 48 49  1  0  0  0
 49 50  2  0  0  0
 50 51  1  0  0  0
 51 52  2  0  0  0
 30 31  2  0  0  0
 30 32  1  0  0  0
 32 34  1  0  0  0
 34 35  1  0  0  0
 34 42  1  0  0  0
 35 36  2  0  0  0
 35 40  1  0  0  0
 36 37  1  0  0  0
 37 38  2  0  0  0
 38 39  1  0  0  0
 39 40  2  0  0  0
 40 41  1  0  0  0
 41 42  1  0  0  0
 42 43  1  0  0  0
  4  5  1  0  0  0
  4  7  1  0  0  0
  7 21  1  0  0  0
  7  8  1  0  0  0
 21 22  1  0  0  0
 22 23  1  0  0  0
 23 24  2  0  0  0
 23 28  1  0  0  0
 24 25  1  0  0  0
 25 26  2  0  0  0
 26 27  1  0  0  0
 27 28  2  0  0  0
  8  9  2  0  0  0
  8 10  1  0  0  0
 10 12  1  0  0  0
 12 13  1  0  0  0
 13 14  2  0  0  0
 13 18  1  0  0  0
 14 15  1  0  0  0
 14 20  1  0  0  0
 15 16  2  0  0  0
 16 17  1  0  0  0
 17 18  2  0  0  0
 18 19  1  0  0  0
  2  3  1  0  0  0
 32 33  1  0  0  0
 43 44  1  0  0  0
  5  6  1  0  0  0
 10 11  1  0  0  0
M  END
> <minimizedAffinity>
-12.88493

$$$$
1D4J_MSC_B_501


 52 56  0  0  0  0  0  0  0  0999 V2000
   12.8964   24.1678    5.7162 C   0  0  0  0  0  0  0  0  0  0  0  0
   13.2091   25.2012    6.6870 O   0  0  0  0  0  0  0  0  0  0  0  0
   13.6318   25.9497    6.2377 H   0  0  0  0  0  0  0  0  0  0  0  0
   14.1928   23.6769    5.0924 C   0  0  0  0  0  0  0  0  0  0  0  0
   14.9124   24.8483    4.6168 O   0  0  0  0  0  0  0  0  0  0  0  0
   15.1145   25.4300    5.3663 H   0  0  0  0  0  0  0  0  0  0  0  0
   15.0756   22.8682    6.0449 C   0  0  0  0  0  0  0  0  0  0  0  0
   14.8421   21.3941    5.7464 C   0  0  0  0  0  0  0  0  0  0  0  0
   13.7341   20.8781    5.9103 O   0  0  0  0  0  0  0  0  0  0  0  0
   15.9198   20.6234    5.3573 N   0  0  0  0  0  0  0  0  0  0  0  0
   16.8053   21.0470    5.2818 H   0  0  0  0  0  0  0  0  0  0  0  0
   15.7896   19.2036    5.0545 C   0  0  0  0  0  0  0  0  0  0  0  0
   16.1258   18.7356    3.7214 C   0  0  0  0  0  0  0  0  0  0  0  0
   15.4263   19.2466    2.5638 C   0  0  0  0  0  0  0  0  0  0  0  0
   15.7505   18.7413    1.2447 C   0  0  0  0  0  0  0  0  0  0  0  0
   16.7662   17.7329    1.0844 C   0  0  0  0  0  0  0  0  0  0  0  0
   17.4645   17.2219    2.2296 C   0  0  0  0  0  0  0  0  0  0  0  0
   17.1419   17.7264    3.5503 C   0  0  0  0  0  0  0  0  0  0  0  0
   18.1277   17.0146    5.1801 Cl  0  0  0  0  0  0  0  0  0  0  0  0
   14.4715   20.1607    2.7069 F   0  0  0  0  0  0  0  0  0  0  0  0
   14.7433   23.1467    7.4254 O   0  0  0  0  0  0  0  0  0  0  0  0
   15.9034   23.2931    8.2712 C   0  0  0  0  0  0  0  0  0  0  0  0
   16.3092   22.0108    8.9692 C   0  0  0  0  0  0  0  0  0  0  0  0
   17.6514   21.4934    8.8119 C   0  0  0  0  0  0  0  0  0  0  0  0
   18.0039   20.2285    9.3971 C   0  0  0  0  0  0  0  0  0  0  0  0
   17.0267   19.4857   10.1443 C   0  0  0  0  0  0  0  0  0  0  0  0
   15.6937   19.9980   10.3152 C   0  0  0  0  0  0  0  0  0  0  0  0
   15.3290   21.2572    9.7339 C   0  0  0  0  0  0  0  0  0  0  0  0
   11.8903   24.6662    4.7047 C   0  0  0  0  0  0  0  0  0  0  0  0
   10.6198   24.8588    5.4872 C   0  0  0  0  0  0  0  0  0  0  0  0
   10.1669   23.9396    6.1752 O   0  0  0  0  0  0  0  0  0  0  0  0
    9.9695   26.0792    5.3942 N   0  0  0  0  0  0  0  0  0  0  0  0
   10.3618   26.7833    4.8289 H   0  0  0  0  0  0  0  0  0  0  0  0
    8.7308   26.3579    6.0994 C   0  0  0  0  0  0  0  0  0  0  0  0
    8.9356   27.0172    7.4436 C   0  0  0  0  0  0  0  0  0  0  0  0
    9.9931   26.8402    8.4072 C   0  0  0  0  0  0  0  0  0  0  0  0
    9.9671   27.6013    9.6358 C   0  0  0  0  0  0  0  0  0  0  0  0
    8.8956   28.5336    9.8849 C   0  0  0  0  0  0  0  0  0  0  0  0
    7.8421   28.7235    8.9237 C   0  0  0  0  0  0  0  0  0  0  0  0
    7.8772   27.9591    7.7083 C   0  0  0  0  0  0  0  0  0  0  0  0
    6.9168   27.9920    6.5628 C   0  0  0  0  0  0  0  0  0  0  0  0
    7.7712   27.3674    5.4339 C   0  0  0  0  0  0  0  0  0  0  0  0
    8.5539   28.3699    4.7825 O   0  0  0  0  0  0  0  0  0  0  0  0
    9.1346   28.7985    5.4305 H   0  0  0  0  0  0  0  0  0  0  0  0
   11.6694   23.6764    3.6665 O   0  0  0  0  0  0  0  0  0  0  0  0
   11.1894   24.2633    2.4345 C   0  0  0  0  0  0  0  0  0  0  0  0
    9.6698   24.3169    2.3214 C   0  0  0  0  0  0  0  0  0  0  0  0
    8.8730   23.1444    2.6429 C   0  0  0  0  0  0  0  0  0  0  0  0
    7.4330   23.2306    2.6370 C   0  0  0  0  0  0  0  0  0  0  0  0
    6.7891   24.4754    2.3048 C   0  0  0  0  0  0  0  0  0  0  0  0
    7.5764   25.6368    1.9731 C   0  0  0  0  0  0  0  0  0  0  0  0
    9.0111   25.5591    1.9796 C   0  0  0  0  0  0  0  0  0  0  0  0
  1  2  1  0  0  0
  1 29  1  0  0  0
  1  4  1  0  0  0
 29 45  1  0  0  0
 29 30  1  0  0  0
 45 46  1  0  0  0
 46 47  1  0  0  0
 47 48  2  0  0  0
 47 52  1  0  0  0
 48 49  1  0  0  0
 49 50  2  0  0  0
 50 51  1  0  0  0
 51 52  2  0  0  0
 30 31  2  0  0  0
 30 32  1  0  0  0
 32 34  1  0  0  0
 34 35  1  0  0  0
 34 42  1  0  0  0
 35 36  2  0  0  0
 35 40  1  0  0  0
 36 37  1  0  0  0
 37 38  2  0  0  0
 38 39  1  0  0  0
 39 40  2  0  0  0
 40 41  1  0  0  0
 41 42  1  0  0  0
 42 43  1  0  0  0
  4  5  1  0  0  0
  4  7  1  0  0  0
  7 21  1  0  0  0
  7  8  1  0  0  0
 21 22  1  0  0  0
 22 23  1  0  0  0
 23 24  2  0  0  0
 23 28  1  0  0  0
 24 25  1  0  0  0
 25 26  2  0  0  0
 26 27  1  0  0  0
 27 28  2  0  0  0
  8  9  2  0  0  0
  8 10  1  0  0  0
 10 12  1  0  0  0
 12 13  1  0  0  0
 13 14  2  0  0  0
 13 18  1  0  0  0
 14 15  1  0  0  0
 14 20  1  0  0  0
 15 16  2  0  0  0
 16 17  1  0  0  0
 17 18  2  0  0  0
 18 19  1  0  0  0
  2  3  1  0  0  0
 32 33  1  0  0  0
 43 44  1  0  0  0
  5  6  1  0  0  0
 10 11  1  0  0  0
M  END
> <minimizedAffinity>
-12.61636

$$$$
1D4J_MSC_B_501


 52 56  0  0  0  0  0  0  0  0999 V2000
   13.2469   23.0976    4.9480 C   0  0  0  0  0  0  0  0  0  0  0  0
   13.4071   22.7714    3.5422 O   0  0  0  0  0  0  0  0  0  0  0  0
   14.0543   23.3732    3.1423 H   0  0  0  0  0  0  0  0  0  0  0  0
   12.7106   24.5154    5.0613 C   0  0  0  0  0  0  0  0  0  0  0  0
   12.5494   25.0241    3.7080 O   0  0  0  0  0  0  0  0  0  0  0  0
   11.9094   24.4739    3.2299 H   0  0  0  0  0  0  0  0  0  0  0  0
   11.3890   24.6226    5.8244 C   0  0  0  0  0  0  0  0  0  0  0  0
   10.2690   24.6836    4.7956 C   0  0  0  0  0  0  0  0  0  0  0  0
    9.8431   23.6602    4.2553 O   0  0  0  0  0  0  0  0  0  0  0  0
    9.7869   25.9222    4.4213 N   0  0  0  0  0  0  0  0  0  0  0  0
   10.1775   26.7283    4.8297 H   0  0  0  0  0  0  0  0  0  0  0  0
    8.7188   26.0757    3.4414 C   0  0  0  0  0  0  0  0  0  0  0  0
    7.3483   26.1906    3.9080 C   0  0  0  0  0  0  0  0  0  0  0  0
    6.9992   27.1414    4.9397 C   0  0  0  0  0  0  0  0  0  0  0  0
    5.6333   27.2166    5.4182 C   0  0  0  0  0  0  0  0  0  0  0  0
    4.6243   26.3477    4.8694 C   0  0  0  0  0  0  0  0  0  0  0  0
    4.9644   25.4019    3.8447 C   0  0  0  0  0  0  0  0  0  0  0  0
    6.3304   25.3253    3.3643 C   0  0  0  0  0  0  0  0  0  0  0  0
    6.8240   23.9935    1.9092 Cl  0  0  0  0  0  0  0  0  0  0  0  0
    7.9303   27.9304    5.4670 F   0  0  0  0  0  0  0  0  0  0  0  0
   11.3598   25.8101    6.6507 O   0  0  0  0  0  0  0  0  0  0  0  0
   10.9628   25.5456    8.0127 C   0  0  0  0  0  0  0  0  0  0  0  0
    9.9512   26.5368    8.5516 C   0  0  0  0  0  0  0  0  0  0  0  0
   10.3372   27.4803    9.5786 C   0  0  0  0  0  0  0  0  0  0  0  0
    9.3516   28.3540   10.1547 C   0  0  0  0  0  0  0  0  0  0  0  0
    7.9885   28.2953    9.7035 C   0  0  0  0  0  0  0  0  0  0  0  0
    7.5986   27.3685    8.6752 C   0  0  0  0  0  0  0  0  0  0  0  0
    8.5719   26.4898    8.0947 C   0  0  0  0  0  0  0  0  0  0  0  0
   14.5382   22.8782    5.7019 C   0  0  0  0  0  0  0  0  0  0  0  0
   14.7847   21.3962    5.6217 C   0  0  0  0  0  0  0  0  0  0  0  0
   13.8800   20.5994    5.8863 O   0  0  0  0  0  0  0  0  0  0  0  0
   16.0513   20.9591    5.2675 N   0  0  0  0  0  0  0  0  0  0  0  0
   16.7458   21.6285    5.0706 H   0  0  0  0  0  0  0  0  0  0  0  0
   16.3922   19.5503    5.1759 C   0  0  0  0  0  0  0  0  0  0  0  0
   16.3824   19.0165    3.7623 C   0  0  0  0  0  0  0  0  0  0  0  0
   15.5360   19.3664    2.6490 C   0  0  0  0  0  0  0  0  0  0  0  0
   15.7292   18.7073    1.3772 C   0  0  0  0  0  0  0  0  0  0  0  0
   16.7664   17.7168    1.2276 C   0  0  0  0  0  0  0  0  0  0  0  0
   17.6219   17.3695    2.3309 C   0  0  0  0  0  0  0  0  0  0  0  0
   17.4180   18.0288    3.5905 C   0  0  0  0  0  0  0  0  0  0  0  0
   18.1804   17.8530    4.8645 C   0  0  0  0  0  0  0  0  0  0  0  0
   17.8184   19.1565    5.6158 C   0  0  0  0  0  0  0  0  0  0  0  0
   18.7096   20.2118    5.2497 O   0  0  0  0  0  0  0  0  0  0  0  0
   18.6566   20.3625    4.2930 H   0  0  0  0  0  0  0  0  0  0  0  0
   14.3953   23.2667    7.0929 O   0  0  0  0  0  0  0  0  0  0  0  0
   15.6690   23.3894    7.7676 C   0  0  0  0  0  0  0  0  0  0  0  0
   16.0624   22.1621    8.5826 C   0  0  0  0  0  0  0  0  0  0  0  0
   17.4130   21.6318    8.4958 C   0  0  0  0  0  0  0  0  0  0  0  0
   17.8112   20.5371    9.3469 C   0  0  0  0  0  0  0  0  0  0  0  0
   16.8673   19.9678   10.2740 C   0  0  0  0  0  0  0  0  0  0  0  0
   15.5231   20.4833   10.3535 C   0  0  0  0  0  0  0  0  0  0  0  0
   15.1204   21.5751    9.5109 C   0  0  0  0  0  0  0  0  0  0  0  0
  1  2  1  0  0  0
  1 29  1  0  0  0
  1  4  1  0  0  0
 29 45  1  0  0  0
 29 30  1  0  0  0
 45 46  1  0  0  0
 46 47  1  0  0  0
 47 48  2  0  0  0
 47 52  1  0  0  0
 48 49  1  0  0  0
 49 50  2  0  0  0
 50 51  1  0  0  0
 51 52  2  0  0  0
 30 31  2  0  0  0
 30 32  1  0  0  0
 32 34  1  0  0  0
 34 35  1  0  0  0
 34 42  1  0  0  0
 35 36  2  0  0  0
 35 40  1  0  0  0
 36 37  1  0  0  0
 37 38  2  0  0  0
 38 39  1  0  0  0
 39 40  2  0  0  0
 40 41  1  0  0  0
 41 42  1  0  0  0
 42 43  1  0  0  0
  4  5  1  0  0  0
  4  7  1  0  0  0
  7 21  1  0  0  0
  7  8  1  0  0  0
 21 22  1  0  0  0
 22 23  1  0  0  0
 23 24  2  0  0  0
 23 28  1  0  0  0
 24 25  1  0  0  0
 25 26  2  0  0  0
 26 27  1  0  0  0
 27 28  2  0  0  0
  8  9  2  0  0  0
  8 10  1  0  0  0
 10 12  1  0  0  0
 12 13  1  0  0  0
 13 14  2  0  0  0
 13 18  1  0  0  0
 14 15  1  0  0  0
 14 20  1  0  0  0
 15 16  2  0  0  0
 16 17  1  0  0  0
 17 18  2  0  0  0
 18 19  1  0  0  0
  2  3  1  0  0  0
 32 33  1  0  0  0
 43 44  1  0  0  0
  5  6  1  0  0  0
 10 11  1  0  0  0
M  END
> <minimizedAffinity>
-12.08449

$$$$
1D4J_MSC_B_501


 52 56  0  0  0  0  0  0  0  0999 V2000
   13.4319   23.2414    5.2168 C   0  0  0  0  0  0  0  0  0  0  0  0
   13.5383   23.1103    3.7747 O   0  0  0  0  0  0  0  0  0  0  0  0
   14.1285   23.7987    3.4301 H   0  0  0  0  0  0  0  0  0  0  0  0
   12.8215   24.5957    5.5393 C   0  0  0  0  0  0  0  0  0  0  0  0
   12.6330   25.2944    4.2775 O   0  0  0  0  0  0  0  0  0  0  0  0
   12.0228   24.7904    3.7167 H   0  0  0  0  0  0  0  0  0  0  0  0
   11.4964   24.5167    6.2998 C   0  0  0  0  0  0  0  0  0  0  0  0
   10.4230   24.0912    5.3081 C   0  0  0  0  0  0  0  0  0  0  0  0
    9.2801   24.5500    5.3697 O   0  0  0  0  0  0  0  0  0  0  0  0
   10.7353   23.1191    4.3784 N   0  0  0  0  0  0  0  0  0  0  0  0
   11.6401   22.7312    4.3809 H   0  0  0  0  0  0  0  0  0  0  0  0
    9.7696   22.6485    3.3933 C   0  0  0  0  0  0  0  0  0  0  0  0
    8.8328   23.5978    2.8183 C   0  0  0  0  0  0  0  0  0  0  0  0
    7.4086   23.4294    3.0015 C   0  0  0  0  0  0  0  0  0  0  0  0
    6.4876   24.3665    2.3899 C   0  0  0  0  0  0  0  0  0  0  0  0
    6.9868   25.4633    1.6013 C   0  0  0  0  0  0  0  0  0  0  0  0
    8.3997   25.6361    1.4160 C   0  0  0  0  0  0  0  0  0  0  0  0
    9.3229   24.6999    2.0274 C   0  0  0  0  0  0  0  0  0  0  0  0
   11.3269   24.9368    1.7770 Cl  0  0  0  0  0  0  0  0  0  0  0  0
    6.9400   22.4060    3.7090 F   0  0  0  0  0  0  0  0  0  0  0  0
   11.1499   25.7980    6.8763 O   0  0  0  0  0  0  0  0  0  0  0  0
   10.8903   25.7319    8.2944 C   0  0  0  0  0  0  0  0  0  0  0  0
    9.7890   26.6665    8.7522 C   0  0  0  0  0  0  0  0  0  0  0  0
    8.5130   26.6724    8.0697 C   0  0  0  0  0  0  0  0  0  0  0  0
    7.5050   27.6262    8.4451 C   0  0  0  0  0  0  0  0  0  0  0  0
    7.7625   28.5645    9.5025 C   0  0  0  0  0  0  0  0  0  0  0  0
    9.0237   28.5582   10.1938 C   0  0  0  0  0  0  0  0  0  0  0  0
   10.0383   27.6136    9.8267 C   0  0  0  0  0  0  0  0  0  0  0  0
   14.7705   23.0092    5.8786 C   0  0  0  0  0  0  0  0  0  0  0  0
   14.9859   21.5221    5.8019 C   0  0  0  0  0  0  0  0  0  0  0  0
   14.0770   20.7448    6.1073 O   0  0  0  0  0  0  0  0  0  0  0  0
   16.2298   21.0581    5.4042 N   0  0  0  0  0  0  0  0  0  0  0  0
   16.9288   21.7126    5.1756 H   0  0  0  0  0  0  0  0  0  0  0  0
   16.5405   19.6424    5.3120 C   0  0  0  0  0  0  0  0  0  0  0  0
   16.4759   19.0997    3.9031 C   0  0  0  0  0  0  0  0  0  0  0  0
   15.6017   19.4588    2.8146 C   0  0  0  0  0  0  0  0  0  0  0  0
   15.7419   18.7878    1.5420 C   0  0  0  0  0  0  0  0  0  0  0  0
   16.7546   17.7764    1.3669 C   0  0  0  0  0  0  0  0  0  0  0  0
   17.6377   17.4197    2.4452 C   0  0  0  0  0  0  0  0  0  0  0  0
   17.4863   18.0910    3.7059 C   0  0  0  0  0  0  0  0  0  0  0  0
   18.2850   17.9087    4.9566 C   0  0  0  0  0  0  0  0  0  0  0  0
   17.9720   19.2238    5.7096 C   0  0  0  0  0  0  0  0  0  0  0  0
   18.8714   20.2592    5.3082 O   0  0  0  0  0  0  0  0  0  0  0  0
   18.7911   20.4047    4.3526 H   0  0  0  0  0  0  0  0  0  0  0  0
   14.7351   23.4181    7.2707 O   0  0  0  0  0  0  0  0  0  0  0  0
   16.0459   23.4153    7.8825 C   0  0  0  0  0  0  0  0  0  0  0  0
   16.3114   22.2115    8.7800 C   0  0  0  0  0  0  0  0  0  0  0  0
   15.2551   21.6904    9.6318 C   0  0  0  0  0  0  0  0  0  0  0  0
   15.4776   20.4890   10.3988 C   0  0  0  0  0  0  0  0  0  0  0  0
   16.7478   19.8140   10.3244 C   0  0  0  0  0  0  0  0  0  0  0  0
   17.8018   20.3354    9.4901 C   0  0  0  0  0  0  0  0  0  0  0  0
   17.5865   21.5300    8.7215 C   0  0  0  0  0  0  0  0  0  0  0  0
  1  2  1  0  0  0
  1 29  1  0  0  0
  1  4  1  0  0  0
 29 45  1  0  0  0
 29 30  1  0  0  0
 45 46  1  0  0  0
 46 47  1  0  0  0
 47 48  2  0  0  0
 47 52  1  0  0  0
 48 49  1  0  0  0
 49 50  2  0  0  0
 50 51  1  0  0  0
 51 52  2  0  0  0
 30 31  2  0  0  0
 30 32  1  0  0  0
 32 34  1  0  0  0
 34 35  1  0  0  0
 34 42  1  0  0  0
 35 36  2  0  0  0
 35 40  1  0  0  0
 36 37  1  0  0  0
 37 38  2  0  0  0
 38 39  1  0  0  0
 39 40  2  0  0  0
 40 41  1  0  0  0
 41 42  1  0  0  0
 42 43  1  0  0  0
  4  5  1  0  0  0
  4  7  1  0  0  0
  7 21  1  0  0  0
  7  8  1  0  0  0
 21 22  1  0  0  0
 22 23  1  0  0  0
 23 24  2  0  0  0
 23 28  1  0  0  0
 24 25  1  0  0  0
 25 26  2  0  0  0
 26 27  1  0  0  0
 27 28  2  0  0  0
  8  9  2  0  0  0
  8 10  1  0  0  0
 10 12  1  0  0  0
 12 13  1  0  0  0
 13 14  2  0  0  0
 13 18  1  0  0  0
 14 15  1  0  0  0
 14 20  1  0  0  0
 15 16  2  0  0  0
 16 17  1  0  0  0
 17 18  2  0  0  0
 18 19  1  0  0  0
  2  3  1  0  0  0
 32 33  1  0  0  0
 43 44  1  0  0  0
  5  6  1  0  0  0
 10 11  1  0  0  0
M  END
> <minimizedAffinity>
-11.59061

$$$$
1D4J_MSC_B_501


 52 56  0  0  0  0  0  0  0  0999 V2000
   13.3401   24.8760    6.4001 C   0  0  0  0  0  0  0  0  0  0  0  0
   13.0542   25.9196    5.4319 O   0  0  0  0  0  0  0  0  0  0  0  0
   12.3342   25.6316    4.8491 H   0  0  0  0  0  0  0  0  0  0  0  0
   13.8000   23.6331    5.6553 C   0  0  0  0  0  0  0  0  0  0  0  0
   13.9143   23.9910    4.2500 O   0  0  0  0  0  0  0  0  0  0  0  0
   14.5765   24.6924    4.1478 H   0  0  0  0  0  0  0  0  0  0  0  0
   15.1244   23.0580    6.1611 C   0  0  0  0  0  0  0  0  0  0  0  0
   15.0618   21.5465    5.9936 C   0  0  0  0  0  0  0  0  0  0  0  0
   14.1026   20.8973    6.4168 O   0  0  0  0  0  0  0  0  0  0  0  0
   16.1415   20.9032    5.4215 N   0  0  0  0  0  0  0  0  0  0  0  0
   16.9178   21.4376    5.1368 H   0  0  0  0  0  0  0  0  0  0  0  0
   16.1697   19.4592    5.2250 C   0  0  0  0  0  0  0  0  0  0  0  0
   16.3537   18.9361    3.8827 C   0  0  0  0  0  0  0  0  0  0  0  0
   15.4652   19.3285    2.8116 C   0  0  0  0  0  0  0  0  0  0  0  0
   15.6422   18.7683    1.4868 C   0  0  0  0  0  0  0  0  0  0  0  0
   16.6992   17.8230    1.2349 C   0  0  0  0  0  0  0  0  0  0  0  0
   17.5847   17.4297    2.2939 C   0  0  0  0  0  0  0  0  0  0  0  0
   17.4096   17.9894    3.6202 C   0  0  0  0  0  0  0  0  0  0  0  0
   18.6608   17.4446    5.1276 Cl  0  0  0  0  0  0  0  0  0  0  0  0
   14.4732   20.1829    3.0426 F   0  0  0  0  0  0  0  0  0  0  0  0
   15.3371   23.3878    7.5539 O   0  0  0  0  0  0  0  0  0  0  0  0
   16.6714   23.0849    8.0126 C   0  0  0  0  0  0  0  0  0  0  0  0
   16.7442   21.8525    8.8912 C   0  0  0  0  0  0  0  0  0  0  0  0
   17.9685   21.0842    8.9620 C   0  0  0  0  0  0  0  0  0  0  0  0
   18.0044   19.8636    9.7207 C   0  0  0  0  0  0  0  0  0  0  0  0
   16.8288   19.4143   10.4142 C   0  0  0  0  0  0  0  0  0  0  0  0
   15.6111   20.1776   10.3585 C   0  0  0  0  0  0  0  0  0  0  0  0
   15.5617   21.3954    9.6028 C   0  0  0  0  0  0  0  0  0  0  0  0
   12.1497   24.6353    7.2994 C   0  0  0  0  0  0  0  0  0  0  0  0
   11.2597   23.7053    6.5205 C   0  0  0  0  0  0  0  0  0  0  0  0
   11.0620   22.5538    6.9185 O   0  0  0  0  0  0  0  0  0  0  0  0
   10.6937   24.1698    5.3437 N   0  0  0  0  0  0  0  0  0  0  0  0
   10.8826   25.0932    5.0592 H   0  0  0  0  0  0  0  0  0  0  0  0
    9.8325   23.3451    4.5146 C   0  0  0  0  0  0  0  0  0  0  0  0
    8.6833   24.1049    3.8936 C   0  0  0  0  0  0  0  0  0  0  0  0
    7.9140   25.2058    4.4173 C   0  0  0  0  0  0  0  0  0  0  0  0
    6.8521   25.7725    3.6170 C   0  0  0  0  0  0  0  0  0  0  0  0
    6.5759   25.2429    2.3046 C   0  0  0  0  0  0  0  0  0  0  0  0
    7.3459   24.1512    1.7706 C   0  0  0  0  0  0  0  0  0  0  0  0
    8.3962   23.5943    2.5766 C   0  0  0  0  0  0  0  0  0  0  0  0
    9.3342   22.4803    2.2388 C   0  0  0  0  0  0  0  0  0  0  0  0
   10.4752   22.7272    3.2545 C   0  0  0  0  0  0  0  0  0  0  0  0
   11.4226   23.6593    2.7296 O   0  0  0  0  0  0  0  0  0  0  0  0
   10.9761   24.4975    2.5319 H   0  0  0  0  0  0  0  0  0  0  0  0
   11.4401   25.8746    7.5580 O   0  0  0  0  0  0  0  0  0  0  0  0
   10.8620   25.9159    8.8834 C   0  0  0  0  0  0  0  0  0  0  0  0
    9.6142   26.7857    8.9913 C   0  0  0  0  0  0  0  0  0  0  0  0
    9.5869   27.9100    9.9123 C   0  0  0  0  0  0  0  0  0  0  0  0
    8.4460   28.7927    9.9348 C   0  0  0  0  0  0  0  0  0  0  0  0
    7.3345   28.5529    9.0508 C   0  0  0  0  0  0  0  0  0  0  0  0
    7.3531   27.4312    8.1451 C   0  0  0  0  0  0  0  0  0  0  0  0
    8.4871   26.5495    8.1152 C   0  0  0  0  0  0  0  0  0  0  0  0
  1  2  1  0  0  0
  1 29  1  0  0  0
  1  4  1  0  0  0
 29 45  1  0  0  0
 29 30  1  0  0  0
 45 46  1  0  0  0
 46 47  1  0  0  0
 47 48  2  0  0  0
 47 52  1  0  0  0
 48 49  1  0  0  0
 49 50  2  0  0  0
 50 51  1  0  0  0
 51 52  2  0  0  0
 30 31  2  0  0  0
 30 32  1  0  0  0
 32 34  1  0  0  0
 34 35  1  0  0  0
 34 42  1  0  0  0
 35 36  2  0  0  0
 35 40  1  0  0  0
 36 37  1  0  0  0
 37 38  2  0  0  0
 38 39  1  0  0  0
 39 40  2  0  0  0
 40 41  1  0  0  0
 41 42  1  0  0  0
 42 43  1  0  0  0
  4  5  1  0  0  0
  4  7  1  0  0  0
  7 21  1  0  0  0
  7  8  1  0  0  0
 21 22  1  0  0  0
 22 23  1  0  0  0
 23 24  2  0  0  0
 23 28  1  0  0  0
 24 25  1  0  0  0
 25 26  2  0  0  0
 26 27  1  0  0  0
 27 28  2  0  0  0
  8  9  2  0  0  0
  8 10  1  0  0  0
 10 12  1  0  0  0
 12 13  1  0  0  0
 13 14  2  0  0  0
 13 18  1  0  0  0
 14 15  1  0  0  0
 14 20  1  0  0  0
 15 16  2  0  0  0
 16 17  1  0  0  0
 17 18  2  0  0  0
 18 19  1  0  0  0
  2  3  1  0  0  0
 32 33  1  0  0  0
 43 44  1  0  0  0
  5  6  1  0  0  0
 10 11  1  0  0  0
M  END
> <minimizedAffinity>
-11.58565

$$$$
1D4J_MSC_B_501


 52 56  0  0  0  0  0  0  0  0999 V2000
   12.8403   24.0494    5.5828 C   0  0  0  0  0  0  0  0  0  0  0  0
   13.4034   24.9976    6.5273 O   0  0  0  0  0  0  0  0  0  0  0  0
   13.9448   25.6461    6.0506 H   0  0  0  0  0  0  0  0  0  0  0  0
   13.9780   23.3080    4.8997 C   0  0  0  0  0  0  0  0  0  0  0  0
   15.2071   24.0177    5.2185 O   0  0  0  0  0  0  0  0  0  0  0  0
   15.3460   24.0087    6.1785 H   0  0  0  0  0  0  0  0  0  0  0  0
   14.0981   21.8385    5.3082 C   0  0  0  0  0  0  0  0  0  0  0  0
   14.5835   21.8015    6.7503 C   0  0  0  0  0  0  0  0  0  0  0  0
   13.8064   21.5674    7.6787 O   0  0  0  0  0  0  0  0  0  0  0  0
   15.9045   22.1108    7.0074 N   0  0  0  0  0  0  0  0  0  0  0  0
   16.4941   22.3436    6.2542 H   0  0  0  0  0  0  0  0  0  0  0  0
   16.4547   22.1039    8.3571 C   0  0  0  0  0  0  0  0  0  0  0  0
   16.8326   20.8356    8.9555 C   0  0  0  0  0  0  0  0  0  0  0  0
   17.8666   20.0195    8.3593 C   0  0  0  0  0  0  0  0  0  0  0  0
   18.2050   18.7402    8.9500 C   0  0  0  0  0  0  0  0  0  0  0  0
   17.5150   18.2802   10.1275 C   0  0  0  0  0  0  0  0  0  0  0  0
   16.4878   19.0859   10.7242 C   0  0  0  0  0  0  0  0  0  0  0  0
   16.1478   20.3665   10.1350 C   0  0  0  0  0  0  0  0  0  0  0  0
   14.6984   21.5197   10.9740 Cl  0  0  0  0  0  0  0  0  0  0  0  0
   18.4916   20.4274    7.2591 F   0  0  0  0  0  0  0  0  0  0  0  0
   15.0356   21.1369    4.4580 O   0  0  0  0  0  0  0  0  0  0  0  0
   15.1070   19.7226    4.7361 C   0  0  0  0  0  0  0  0  0  0  0  0
   15.7454   18.9181    3.6220 C   0  0  0  0  0  0  0  0  0  0  0  0
   16.8660   18.0480    3.9066 C   0  0  0  0  0  0  0  0  0  0  0  0
   17.5292   17.3604    2.8323 C   0  0  0  0  0  0  0  0  0  0  0  0
   17.0726   17.5309    1.4805 C   0  0  0  0  0  0  0  0  0  0  0  0
   15.9524   18.3850    1.1899 C   0  0  0  0  0  0  0  0  0  0  0  0
   15.2843   19.0784    2.2526 C   0  0  0  0  0  0  0  0  0  0  0  0
   11.9052   24.7415    4.6181 C   0  0  0  0  0  0  0  0  0  0  0  0
   10.6188   24.9079    5.3805 C   0  0  0  0  0  0  0  0  0  0  0  0
   10.1252   23.9518    5.9851 O   0  0  0  0  0  0  0  0  0  0  0  0
   10.0009   26.1484    5.3635 N   0  0  0  0  0  0  0  0  0  0  0  0
   10.4255   26.8825    4.8634 H   0  0  0  0  0  0  0  0  0  0  0  0
    8.7506   26.4058    6.0561 C   0  0  0  0  0  0  0  0  0  0  0  0
    8.9316   27.0457    7.4130 C   0  0  0  0  0  0  0  0  0  0  0  0
    9.9775   26.8626    8.3881 C   0  0  0  0  0  0  0  0  0  0  0  0
    9.9285   27.6041    9.6278 C   0  0  0  0  0  0  0  0  0  0  0  0
    8.8458   28.5234    9.8768 C   0  0  0  0  0  0  0  0  0  0  0  0
    7.8038   28.7195    8.9044 C   0  0  0  0  0  0  0  0  0  0  0  0
    7.8617   27.9745    7.6778 C   0  0  0  0  0  0  0  0  0  0  0  0
    6.9166   28.0173    6.5201 C   0  0  0  0  0  0  0  0  0  0  0  0
    7.7914   27.4175    5.3934 C   0  0  0  0  0  0  0  0  0  0  0  0
    8.5742   28.4365    4.7682 O   0  0  0  0  0  0  0  0  0  0  0  0
    9.1424   28.8598    5.4306 H   0  0  0  0  0  0  0  0  0  0  0  0
   11.6670   23.9153    3.4489 O   0  0  0  0  0  0  0  0  0  0  0  0
   11.0846   24.6597    2.3538 C   0  0  0  0  0  0  0  0  0  0  0  0
    9.5689   24.5297    2.2493 C   0  0  0  0  0  0  0  0  0  0  0  0
    8.9214   23.2695    2.5738 C   0  0  0  0  0  0  0  0  0  0  0  0
    7.4814   23.1812    2.5762 C   0  0  0  0  0  0  0  0  0  0  0  0
    6.6901   24.3395    2.2493 C   0  0  0  0  0  0  0  0  0  0  0  0
    7.3297   25.5876    1.9146 C   0  0  0  0  0  0  0  0  0  0  0  0
    8.7632   25.6836    1.9129 C   0  0  0  0  0  0  0  0  0  0  0  0
  1  2  1  0  0  0
  1 29  1  0  0  0
  1  4  1  0  0  0
 29 45  1  0  0  0
 29 30  1  0  0  0
 45 46  1  0  0  0
 46 47  1  0  0  0
 47 48  2  0  0  0
 47 52  1  0  0  0
 48 49  1  0  0  0
 49 50  2  0  0  0
 50 51  1  0  0  0
 51 52  2  0  0  0
 30 31  2  0  0  0
 30 32  1  0  0  0
 32 34  1  0  0  0
 34 35  1  0  0  0
 34 42  1  0  0  0
 35 36  2  0  0  0
 35 40  1  0  0  0
 36 37  1  0  0  0
 37 38  2  0  0  0
 38 39  1  0  0  0
 39 40  2  0  0  0
 40 41  1  0  0  0
 41 42  1  0  0  0
 42 43  1  0  0  0
  4  5  1  0  0  0
  4  7  1  0  0  0
  7 21  1  0  0  0
  7  8  1  0  0  0
 21 22  1  0  0  0
 22 23  1  0  0  0
 23 24  2  0  0  0
 23 28  1  0  0  0
 24 25  1  0  0  0
 25 26  2  0  0  0
 26 27  1  0  0  0
 27 28  2  0  0  0
  8  9  2  0  0  0
  8 10  1  0  0  0
 10 12  1  0  0  0
 12 13  1  0  0  0
 13 14  2  0  0  0
 13 18  1  0  0  0
 14 15  1  0  0  0
 14 20  1  0  0  0
 15 16  2  0  0  0
 16 17  1  0  0  0
 17 18  2  0  0  0
 18 19  1  0  0  0
  2  3  1  0  0  0
 32 33  1  0  0  0
 43 44  1  0  0  0
  5  6  1  0  0  0
 10 11  1  0  0  0
M  END
> <minimizedAffinity>
-11.49836

$$$$
1D4J_MSC_B_501


 52 56  0  0  0  0  0  0  0  0999 V2000
   12.0405   24.3147    6.0627 C   0  0  0  0  0  0  0  0  0  0  0  0
   12.3161   24.8733    4.7511 O   0  0  0  0  0  0  0  0  0  0  0  0
   12.2762   24.1693    4.0850 H   0  0  0  0  0  0  0  0  0  0  0  0
   13.1133   23.2889    6.3907 C   0  0  0  0  0  0  0  0  0  0  0  0
   12.5424   21.9743    6.1420 O   0  0  0  0  0  0  0  0  0  0  0  0
   12.2991   21.8993    5.2060 H   0  0  0  0  0  0  0  0  0  0  0  0
   14.4056   23.4611    5.5902 C   0  0  0  0  0  0  0  0  0  0  0  0
   14.4638   22.3368    4.5657 C   0  0  0  0  0  0  0  0  0  0  0  0
   13.7086   22.3228    3.5910 O   0  0  0  0  0  0  0  0  0  0  0  0
   15.3329   21.2875    4.7900 N   0  0  0  0  0  0  0  0  0  0  0  0
   15.8902   21.2961    5.6015 H   0  0  0  0  0  0  0  0  0  0  0  0
   15.4525   20.1675    3.8649 C   0  0  0  0  0  0  0  0  0  0  0  0
   16.5490   19.2302    4.0341 C   0  0  0  0  0  0  0  0  0  0  0  0
   17.2238   19.1090    5.3070 C   0  0  0  0  0  0  0  0  0  0  0  0
   18.3393   18.1945    5.4471 C   0  0  0  0  0  0  0  0  0  0  0  0
   18.7767   17.4074    4.3231 C   0  0  0  0  0  0  0  0  0  0  0  0
   18.1107   17.5229    3.0569 C   0  0  0  0  0  0  0  0  0  0  0  0
   16.9941   18.4371    2.9147 C   0  0  0  0  0  0  0  0  0  0  0  0
   16.0386   18.6060    1.1277 Cl  0  0  0  0  0  0  0  0  0  0  0  0
   16.8401   19.8494    6.3425 F   0  0  0  0  0  0  0  0  0  0  0  0
   15.5652   23.3971    6.4535 O   0  0  0  0  0  0  0  0  0  0  0  0
   15.2276   23.3253    7.8547 C   0  0  0  0  0  0  0  0  0  0  0  0
   15.9550   22.2225    8.5968 C   0  0  0  0  0  0  0  0  0  0  0  0
   17.3985   22.1390    8.5377 C   0  0  0  0  0  0  0  0  0  0  0  0
   18.0777   21.0372    9.1634 C   0  0  0  0  0  0  0  0  0  0  0  0
   17.3237   20.0273    9.8536 C   0  0  0  0  0  0  0  0  0  0  0  0
   15.8896   20.1085    9.9269 C   0  0  0  0  0  0  0  0  0  0  0  0
   15.2002   21.2011    9.3044 C   0  0  0  0  0  0  0  0  0  0  0  0
   10.6357   23.7613    6.1278 C   0  0  0  0  0  0  0  0  0  0  0  0
   10.1854   23.6830    4.6943 C   0  0  0  0  0  0  0  0  0  0  0  0
   10.5499   22.7467    3.9775 O   0  0  0  0  0  0  0  0  0  0  0  0
    9.3763   24.6957    4.2037 N   0  0  0  0  0  0  0  0  0  0  0  0
    9.1141   25.4274    4.8078 H   0  0  0  0  0  0  0  0  0  0  0  0
    8.9010   24.7176    2.8315 C   0  0  0  0  0  0  0  0  0  0  0  0
    7.4278   24.4093    2.6969 C   0  0  0  0  0  0  0  0  0  0  0  0
    6.5975   23.5160    3.4655 C   0  0  0  0  0  0  0  0  0  0  0  0
    5.1942   23.3967    3.1401 C   0  0  0  0  0  0  0  0  0  0  0  0
    4.6346   24.1734    2.0618 C   0  0  0  0  0  0  0  0  0  0  0  0
    5.4544   25.0748    1.2967 C   0  0  0  0  0  0  0  0  0  0  0  0
    6.8480   25.1821    1.6273 C   0  0  0  0  0  0  0  0  0  0  0  0
    7.8875   26.0519    0.9963 C   0  0  0  0  0  0  0  0  0  0  0  0
    8.9729   26.0744    2.0990 C   0  0  0  0  0  0  0  0  0  0  0  0
    8.7064   27.1113    3.0455 O   0  0  0  0  0  0  0  0  0  0  0  0
    7.8363   26.9654    3.4486 H   0  0  0  0  0  0  0  0  0  0  0  0
    9.7609   24.6604    6.8575 O   0  0  0  0  0  0  0  0  0  0  0  0
   10.4922   25.6644    7.5991 C   0  0  0  0  0  0  0  0  0  0  0  0
    9.6060   26.6451    8.3594 C   0  0  0  0  0  0  0  0  0  0  0  0
   10.0992   27.2890    9.5656 C   0  0  0  0  0  0  0  0  0  0  0  0
    9.2994   28.2944   10.2218 C   0  0  0  0  0  0  0  0  0  0  0  0
    8.0116   28.6515    9.6846 C   0  0  0  0  0  0  0  0  0  0  0  0
    7.5141   28.0055    8.4954 C   0  0  0  0  0  0  0  0  0  0  0  0
    8.3063   27.0052    7.8351 C   0  0  0  0  0  0  0  0  0  0  0  0
  1  2  1  0  0  0
  1 29  1  0  0  0
  1  4  1  0  0  0
 29 45  1  0  0  0
 29 30  1  0  0  0
 45 46  1  0  0  0
 46 47  1  0  0  0
 47 48  2  0  0  0
 47 52  1  0  0  0
 48 49  1  0  0  0
 49 50  2  0  0  0
 50 51  1  0  0  0
 51 52  2  0  0  0
 30 31  2  0  0  0
 30 32  1  0  0  0
 32 34  1  0  0  0
 34 35  1  0  0  0
 34 42  1  0  0  0
 35 36  2  0  0  0
 35 40  1  0  0  0
 36 37  1  0  0  0
 37 38  2  0  0  0
 38 39  1  0  0  0
 39 40  2  0  0  0
 40 41  1  0  0  0
 41 42  1  0  0  0
 42 43  1  0  0  0
  4  5  1  0  0  0
  4  7  1  0  0  0
  7 21  1  0  0  0
  7  8  1  0  0  0
 21 22  1  0  0  0
 22 23  1  0  0  0
 23 24  2  0  0  0
 23 28  1  0  0  0
 24 25  1  0  0  0
 25 26  2  0  0  0
 26 27  1  0  0  0
 27 28  2  0  0  0
  8  9  2  0  0  0
  8 10  1  0  0  0
 10 12  1  0  0  0
 12 13  1  0  0  0
 13 14  2  0  0  0
 13 18  1  0  0  0
 14 15  1  0  0  0
 14 20  1  0  0  0
 15 16  2  0  0  0
 16 17  1  0  0  0
 17 18  2  0  0  0
 18 19  1  0  0  0
  2  3  1  0  0  0
 32 33  1  0  0  0
 43 44  1  0  0  0
  5  6  1  0  0  0
 10 11  1  0  0  0
M  END
> <minimizedAffinity>
-11.20129

$$$$
1D4J_MSC_B_501


 52 56  0  0  0  0  0  0  0  0999 V2000
   13.7502   24.0155    5.1938 C   0  0  0  0  0  0  0  0  0  0  0  0
   14.7902   24.8359    4.5992 O   0  0  0  0  0  0  0  0  0  0  0  0
   14.8538   24.6405    3.6512 H   0  0  0  0  0  0  0  0  0  0  0  0
   14.1327   22.5529    5.0347 C   0  0  0  0  0  0  0  0  0  0  0  0
   14.4430   22.3394    3.6297 O   0  0  0  0  0  0  0  0  0  0  0  0
   15.1935   22.8991    3.3757 H   0  0  0  0  0  0  0  0  0  0  0  0
   15.3131   22.1193    5.9059 C   0  0  0  0  0  0  0  0  0  0  0  0
   15.6668   20.6899    5.5206 C   0  0  0  0  0  0  0  0  0  0  0  0
   16.8357   20.2971    5.5323 O   0  0  0  0  0  0  0  0  0  0  0  0
   14.6556   19.8577    5.0829 N   0  0  0  0  0  0  0  0  0  0  0  0
   13.7373   20.2093    5.0343 H   0  0  0  0  0  0  0  0  0  0  0  0
   14.9028   18.4758    4.6905 C   0  0  0  0  0  0  0  0  0  0  0  0
   15.6167   18.2137    3.4533 C   0  0  0  0  0  0  0  0  0  0  0  0
   15.0963   18.6846    2.1892 C   0  0  0  0  0  0  0  0  0  0  0  0
   15.8039   18.3823    0.9611 C   0  0  0  0  0  0  0  0  0  0  0  0
   17.0221   17.6150    0.9965 C   0  0  0  0  0  0  0  0  0  0  0  0
   17.5441   17.1450    2.2483 C   0  0  0  0  0  0  0  0  0  0  0  0
   16.8379   17.4467    3.4783 C   0  0  0  0  0  0  0  0  0  0  0  0
   17.5698   16.7912    5.2586 Cl  0  0  0  0  0  0  0  0  0  0  0  0
   13.9601   19.3736    2.1469 F   0  0  0  0  0  0  0  0  0  0  0  0
   14.9721   22.1773    7.3110 O   0  0  0  0  0  0  0  0  0  0  0  0
   16.1078   22.4417    8.1613 C   0  0  0  0  0  0  0  0  0  0  0  0
   16.5568   21.2370    8.9633 C   0  0  0  0  0  0  0  0  0  0  0  0
   15.5754   20.3634    9.5699 C   0  0  0  0  0  0  0  0  0  0  0  0
   16.0050   19.2777   10.4085 C   0  0  0  0  0  0  0  0  0  0  0  0
   17.4067   19.0564   10.6350 C   0  0  0  0  0  0  0  0  0  0  0  0
   18.3892   19.9129   10.0270 C   0  0  0  0  0  0  0  0  0  0  0  0
   17.9732   21.0011    9.1906 C   0  0  0  0  0  0  0  0  0  0  0  0
   12.3981   24.3533    4.6091 C   0  0  0  0  0  0  0  0  0  0  0  0
   11.8748   25.4717    5.4686 C   0  0  0  0  0  0  0  0  0  0  0  0
   12.6519   26.1592    6.1371 O   0  0  0  0  0  0  0  0  0  0  0  0
   10.5063   25.6884    5.5034 N   0  0  0  0  0  0  0  0  0  0  0  0
    9.9214   25.1127    4.9596 H   0  0  0  0  0  0  0  0  0  0  0  0
    9.9030   26.7330    6.3121 C   0  0  0  0  0  0  0  0  0  0  0  0
    8.4032   26.8296    6.1543 C   0  0  0  0  0  0  0  0  0  0  0  0
    7.5807   26.6036    4.9922 C   0  0  0  0  0  0  0  0  0  0  0  0
    6.1473   26.7574    5.0977 C   0  0  0  0  0  0  0  0  0  0  0  0
    5.5515   27.1248    6.3583 C   0  0  0  0  0  0  0  0  0  0  0  0
    6.3647   27.3420    7.5252 C   0  0  0  0  0  0  0  0  0  0  0  0
    7.7879   27.1894    7.4070 C   0  0  0  0  0  0  0  0  0  0  0  0
    8.8294   27.3434    8.4686 C   0  0  0  0  0  0  0  0  0  0  0  0
   10.0152   26.5707    7.8430 C   0  0  0  0  0  0  0  0  0  0  0  0
    9.9291   25.1789    8.1553 O   0  0  0  0  0  0  0  0  0  0  0  0
    9.0933   24.8224    7.8157 H   0  0  0  0  0  0  0  0  0  0  0  0
   11.4993   23.2173    4.6993 O   0  0  0  0  0  0  0  0  0  0  0  0
   10.9911   22.8090    3.4080 C   0  0  0  0  0  0  0  0  0  0  0  0
    9.7713   23.5963    2.9417 C   0  0  0  0  0  0  0  0  0  0  0  0
    9.9428   24.8520    2.2300 C   0  0  0  0  0  0  0  0  0  0  0  0
    8.7913   25.5396    1.6984 C   0  0  0  0  0  0  0  0  0  0  0  0
    7.4750   24.9841    1.8812 C   0  0  0  0  0  0  0  0  0  0  0  0
    7.3005   23.7452    2.5978 C   0  0  0  0  0  0  0  0  0  0  0  0
    8.4430   23.0535    3.1277 C   0  0  0  0  0  0  0  0  0  0  0  0
  1  2  1  0  0  0
  1 29  1  0  0  0
  1  4  1  0  0  0
 29 45  1  0  0  0
 29 30  1  0  0  0
 45 46  1  0  0  0
 46 47  1  0  0  0
 47 48  2  0  0  0
 47 52  1  0  0  0
 48 49  1  0  0  0
 49 50  2  0  0  0
 50 51  1  0  0  0
 51 52  2  0  0  0
 30 31  2  0  0  0
 30 32  1  0  0  0
 32 34  1  0  0  0
 34 35  1  0  0  0
 34 42  1  0  0  0
 35 36  2  0  0  0
 35 40  1  0  0  0
 36 37  1  0  0  0
 37 38  2  0  0  0
 38 39  1  0  0  0
 39 40  2  0  0  0
 40 41  1  0  0  0
 41 42  1  0  0  0
 42 43  1  0  0  0
  4  5  1  0  0  0
  4  7  1  0  0  0
  7 21  1  0  0  0
  7  8  1  0  0  0
 21 22  1  0  0  0
 22 23  1  0  0  0
 23 24  2  0  0  0
 23 28  1  0  0  0
 24 25  1  0  0  0
 25 26  2  0  0  0
 26 27  1  0  0  0
 27 28  2  0  0  0
  8  9  2  0  0  0
  8 10  1  0  0  0
 10 12  1  0  0  0
 12 13  1  0  0  0
 13 14  2  0  0  0
 13 18  1  0  0  0
 14 15  1  0  0  0
 14 20  1  0  0  0
 15 16  2  0  0  0
 16 17  1  0  0  0
 17 18  2  0  0  0
 18 19  1  0  0  0
  2  3  1  0  0  0
 32 33  1  0  0  0
 43 44  1  0  0  0
  5  6  1  0  0  0
 10 11  1  0  0  0
M  END
> <minimizedAffinity>
-11.03736

$$$$
1D4J_MSC_B_501


 52 56  0  0  0  0  0  0  0  0999 V2000
   15.1871   21.1948    6.4385 C   0  0  0  0  0  0  0  0  0  0  0  0
   15.8617   21.6779    5.2470 O   0  0  0  0  0  0  0  0  0  0  0  0
   16.2370   22.5552    5.4211 H   0  0  0  0  0  0  0  0  0  0  0  0
   14.0458   22.1424    6.7703 C   0  0  0  0  0  0  0  0  0  0  0  0
   14.5426   23.0844    7.7612 O   0  0  0  0  0  0  0  0  0  0  0  0
   15.2820   23.5880    7.3863 H   0  0  0  0  0  0  0  0  0  0  0  0
   13.4898   22.8959    5.5605 C   0  0  0  0  0  0  0  0  0  0  0  0
   13.0337   24.2655    6.0432 C   0  0  0  0  0  0  0  0  0  0  0  0
   13.4950   25.2997    5.5552 O   0  0  0  0  0  0  0  0  0  0  0  0
   12.1428   24.3281    7.0964 N   0  0  0  0  0  0  0  0  0  0  0  0
   11.8267   23.4891    7.5031 H   0  0  0  0  0  0  0  0  0  0  0  0
   11.6548   25.5954    7.6259 C   0  0  0  0  0  0  0  0  0  0  0  0
   10.2482   25.9245    7.4762 C   0  0  0  0  0  0  0  0  0  0  0  0
    9.6669   26.0913    6.1630 C   0  0  0  0  0  0  0  0  0  0  0  0
    8.2700   26.4552    6.0341 C   0  0  0  0  0  0  0  0  0  0  0  0
    7.4607   26.6509    7.2091 C   0  0  0  0  0  0  0  0  0  0  0  0
    8.0317   26.4865    8.5157 C   0  0  0  0  0  0  0  0  0  0  0  0
    9.4291   26.1221    8.6469 C   0  0  0  0  0  0  0  0  0  0  0  0
   10.2487   25.8809   10.4921 Cl  0  0  0  0  0  0  0  0  0  0  0  0
   10.4139   25.9347    5.0744 F   0  0  0  0  0  0  0  0  0  0  0  0
   12.3732   22.1869    4.9737 O   0  0  0  0  0  0  0  0  0  0  0  0
   12.2229   22.4333    3.5597 C   0  0  0  0  0  0  0  0  0  0  0  0
   10.9551   23.1847    3.2078 C   0  0  0  0  0  0  0  0  0  0  0  0
    9.6665   22.6560    3.6003 C   0  0  0  0  0  0  0  0  0  0  0  0
    8.4625   23.3212    3.1824 C   0  0  0  0  0  0  0  0  0  0  0  0
    8.5410   24.5138    2.3846 C   0  0  0  0  0  0  0  0  0  0  0  0
    9.8177   25.0525    1.9995 C   0  0  0  0  0  0  0  0  0  0  0  0
   11.0258   24.3966    2.4078 C   0  0  0  0  0  0  0  0  0  0  0  0
   16.1672   21.0088    7.5738 C   0  0  0  0  0  0  0  0  0  0  0  0
   17.3408   20.2973    6.9574 C   0  0  0  0  0  0  0  0  0  0  0  0
   18.4933   20.6287    7.2496 O   0  0  0  0  0  0  0  0  0  0  0  0
   17.0900   19.2851    6.0446 N   0  0  0  0  0  0  0  0  0  0  0  0
   16.1555   19.0567    5.8351 H   0  0  0  0  0  0  0  0  0  0  0  0
   18.1542   18.5487    5.3854 C   0  0  0  0  0  0  0  0  0  0  0  0
   18.5268   17.2645    6.0893 C   0  0  0  0  0  0  0  0  0  0  0  0
   18.5464   16.9555    7.4973 C   0  0  0  0  0  0  0  0  0  0  0  0
   18.9417   15.6333    7.9273 C   0  0  0  0  0  0  0  0  0  0  0  0
   19.3029   14.6349    6.9517 C   0  0  0  0  0  0  0  0  0  0  0  0
   19.2759   14.9323    5.5443 C   0  0  0  0  0  0  0  0  0  0  0  0
   18.8847   16.2505    5.1296 C   0  0  0  0  0  0  0  0  0  0  0  0
   18.7640   16.7890    3.7401 C   0  0  0  0  0  0  0  0  0  0  0  0
   17.8485   18.0154    3.9695 C   0  0  0  0  0  0  0  0  0  0  0  0
   16.4728   17.6319    3.9206 O   0  0  0  0  0  0  0  0  0  0  0  0
   16.2988   16.9641    4.6022 H   0  0  0  0  0  0  0  0  0  0  0  0
   15.5955   20.1774    8.6171 O   0  0  0  0  0  0  0  0  0  0  0  0
   16.1877   20.4291    9.9128 C   0  0  0  0  0  0  0  0  0  0  0  0
   16.9712   19.2497   10.4786 C   0  0  0  0  0  0  0  0  0  0  0  0
   16.3104   17.9739   10.6987 C   0  0  0  0  0  0  0  0  0  0  0  0
   17.0782   16.8326   11.1335 C   0  0  0  0  0  0  0  0  0  0  0  0
   18.4954   16.9625   11.3557 C   0  0  0  0  0  0  0  0  0  0  0  0
   19.1515   18.2298   11.1505 C   0  0  0  0  0  0  0  0  0  0  0  0
   18.3937   19.3701   10.7150 C   0  0  0  0  0  0  0  0  0  0  0  0
  1  2  1  0  0  0
  1 29  1  0  0  0
  1  4  1  0  0  0
 29 45  1  0  0  0
 29 30  1  0  0  0
 45 46  1  0  0  0
 46 47  1  0  0  0
 47 48  2  0  0  0
 47 52  1  0  0  0
 48 49  1  0  0  0
 49 50  2  0  0  0
 50 51  1  0  0  0
 51 52  2  0  0  0
 30 31  2  0  0  0
 30 32  1  0  0  0
 32 34  1  0  0  0
 34 35  1  0  0  0
 34 42  1  0  0  0
 35 36  2  0  0  0
 35 40  1  0  0  0
 36 37  1  0  0  0
 37 38  2  0  0  0
 38 39  1  0  0  0
 39 40  2  0  0  0
 40 41  1  0  0  0
 41 42  1  0  0  0
 42 43  1  0  0  0
  4  5  1  0  0  0
  4  7  1  0  0  0
  7 21  1  0  0  0
  7  8  1  0  0  0
 21 22  1  0  0  0
 22 23  1  0  0  0
 23 24  2  0  0  0
 23 28  1  0  0  0
 24 25  1  0  0  0
 25 26  2  0  0  0
 26 27  1  0  0  0
 27 28  2  0  0  0
  8  9  2  0  0  0
  8 10  1  0  0  0
 10 12  1  0  0  0
 12 13  1  0  0  0
 13 14  2  0  0  0
 13 18  1  0  0  0
 14 15  1  0  0  0
 14 20  1  0  0  0
 15 16  2  0  0  0
 16 17  1  0  0  0
 17 18  2  0  0  0
 18 19  1  0  0  0
  2  3  1  0  0  0
 32 33  1  0  0  0
 43 44  1  0  0  0
  5  6  1  0  0  0
 10 11  1  0  0  0
M  END
> <minimizedAffinity>
-10.79211

$$$$
1D4J_MSC_B_501


 52 56  0  0  0  0  0  0  0  0999 V2000
   13.1945   23.7960    6.3533 C   0  0  0  0  0  0  0  0  0  0  0  0
   13.5192   24.6932    7.4477 O   0  0  0  0  0  0  0  0  0  0  0  0
   14.0382   25.4400    7.1105 H   0  0  0  0  0  0  0  0  0  0  0  0
   14.4881   23.2507    5.7700 C   0  0  0  0  0  0  0  0  0  0  0  0
   15.5835   23.9470    6.4266 O   0  0  0  0  0  0  0  0  0  0  0  0
   15.5571   23.7659    7.3792 H   0  0  0  0  0  0  0  0  0  0  0  0
   14.6550   21.7384    5.9301 C   0  0  0  0  0  0  0  0  0  0  0  0
   15.3725   21.4933    7.2498 C   0  0  0  0  0  0  0  0  0  0  0  0
   14.7699   21.5534    8.3240 O   0  0  0  0  0  0  0  0  0  0  0  0
   16.7358   21.2746    7.2261 N   0  0  0  0  0  0  0  0  0  0  0  0
   17.2039   21.2810    6.3600 H   0  0  0  0  0  0  0  0  0  0  0  0
   17.5046   21.0345    8.4409 C   0  0  0  0  0  0  0  0  0  0  0  0
   17.6774   19.6691    8.9049 C   0  0  0  0  0  0  0  0  0  0  0  0
   17.3413   19.3052   10.2632 C   0  0  0  0  0  0  0  0  0  0  0  0
   17.5544   17.9461   10.7188 C   0  0  0  0  0  0  0  0  0  0  0  0
   18.0995   16.9585    9.8234 C   0  0  0  0  0  0  0  0  0  0  0  0
   18.4348   17.3135    8.4736 C   0  0  0  0  0  0  0  0  0  0  0  0
   18.2220   18.6727    8.0155 C   0  0  0  0  0  0  0  0  0  0  0  0
   18.6879   19.1869    6.1042 Cl  0  0  0  0  0  0  0  0  0  0  0  0
   16.8594   20.2173   11.1019 F   0  0  0  0  0  0  0  0  0  0  0  0
   15.4289   21.1820    4.8414 O   0  0  0  0  0  0  0  0  0  0  0  0
   14.6743   20.2710    4.0148 C   0  0  0  0  0  0  0  0  0  0  0  0
   15.5415   19.3242    3.2100 C   0  0  0  0  0  0  0  0  0  0  0  0
   15.3699   19.2254    1.7765 C   0  0  0  0  0  0  0  0  0  0  0  0
   16.1273   18.2581    1.0301 C   0  0  0  0  0  0  0  0  0  0  0  0
   17.0592   17.3986    1.7066 C   0  0  0  0  0  0  0  0  0  0  0  0
   17.2443   17.4977    3.1294 C   0  0  0  0  0  0  0  0  0  0  0  0
   16.4926   18.4567    3.8856 C   0  0  0  0  0  0  0  0  0  0  0  0
   12.3161   24.4852    5.3348 C   0  0  0  0  0  0  0  0  0  0  0  0
   10.9893   24.6569    6.0232 C   0  0  0  0  0  0  0  0  0  0  0  0
   10.5135   23.7381    6.6962 O   0  0  0  0  0  0  0  0  0  0  0  0
   10.3154   25.8570    5.8608 N   0  0  0  0  0  0  0  0  0  0  0  0
   10.7278   26.5614    5.3103 H   0  0  0  0  0  0  0  0  0  0  0  0
    9.0235   26.1144    6.4725 C   0  0  0  0  0  0  0  0  0  0  0  0
    9.1098   26.9039    7.7581 C   0  0  0  0  0  0  0  0  0  0  0  0
   10.1194   26.8856    8.7869 C   0  0  0  0  0  0  0  0  0  0  0  0
    9.9760   27.7505    9.9361 C   0  0  0  0  0  0  0  0  0  0  0  0
    8.8363   28.6274   10.0419 C   0  0  0  0  0  0  0  0  0  0  0  0
    7.8297   28.6591    9.0144 C   0  0  0  0  0  0  0  0  0  0  0  0
    7.9816   27.7927    7.8790 C   0  0  0  0  0  0  0  0  0  0  0  0
    7.0881   27.6582    6.6878 C   0  0  0  0  0  0  0  0  0  0  0  0
    8.0428   26.9933    5.6674 C   0  0  0  0  0  0  0  0  0  0  0  0
    8.7977   27.9834    4.9662 O   0  0  0  0  0  0  0  0  0  0  0  0
    9.3126   28.5065    5.6003 H   0  0  0  0  0  0  0  0  0  0  0  0
   12.1423   23.6543    4.1576 O   0  0  0  0  0  0  0  0  0  0  0  0
   11.6028   24.3900    3.0350 C   0  0  0  0  0  0  0  0  0  0  0  0
   10.1013   24.2117    2.8378 C   0  0  0  0  0  0  0  0  0  0  0  0
    9.2813   25.3390    2.4260 C   0  0  0  0  0  0  0  0  0  0  0  0
    7.8814   25.1421    2.1381 C   0  0  0  0  0  0  0  0  0  0  0  0
    7.2989   23.8311    2.2673 C   0  0  0  0  0  0  0  0  0  0  0  0
    8.1068   22.7134    2.6878 C   0  0  0  0  0  0  0  0  0  0  0  0
    9.5022   22.9016    2.9735 C   0  0  0  0  0  0  0  0  0  0  0  0
  1  2  1  0  0  0
  1 29  1  0  0  0
  1  4  1  0  0  0
 29 45  1  0  0  0
 29 30  1  0  0  0
 45 46  1  0  0  0
 46 47  1  0  0  0
 47 48  2  0  0  0
 47 52  1  0  0  0
 48 49  1  0  0  0
 49 50  2  0  0  0
 50 51  1  0  0  0
 51 52  2  0  0  0
 30 31  2  0  0  0
 30 32  1  0  0  0
 32 34  1  0  0  0
 34 35  1  0  0  0
 34 42  1  0  0  0
 35 36  2  0  0  0
 35 40  1  0  0  0
 36 37  1  0  0  0
 37 38  2  0  0  0
 38 39  1  0  0  0
 39 40  2  0  0  0
 40 41  1  0  0  0
 41 42  1  0  0  0
 42 43  1  0  0  0
  4  5  1  0  0  0
  4  7  1  0  0  0
  7 21  1  0  0  0
  7  8  1  0  0  0
 21 22  1  0  0  0
 22 23  1  0  0  0
 23 24  2  0  0  0
 23 28  1  0  0  0
 24 25  1  0  0  0
 25 26  2  0  0  0
 26 27  1  0  0  0
 27 28  2  0  0  0
  8  9  2  0  0  0
  8 10  1  0  0  0
 10 12  1  0  0  0
 12 13  1  0  0  0
 13 14  2  0  0  0
 13 18  1  0  0  0
 14 15  1  0  0  0
 14 20  1  0  0  0
 15 16  2  0  0  0
 16 17  1  0  0  0
 17 18  2  0  0  0
 18 19  1  0  0  0
  2  3  1  0  0  0
 32 33  1  0  0  0
 43 44  1  0  0  0
  5  6  1  0  0  0
 10 11  1  0  0  0
M  END
> <minimizedAffinity>
-10.79198

$$$$
