4OC1_2QS_A_818


 35 36  0  0  0  0  0  0  0  0999 V2000
   19.9884   45.2476   44.4102 C   0  0  0  0  0  0  0  0  0  0  0  0
   17.3059   45.4080   41.9979 N   0  0  0  0  0  0  0  0  0  0  0  0
   18.0420   44.8284   42.9377 C   0  0  0  0  0  0  0  0  0  0  0  0
   17.8394   43.6663   43.3212 O   0  0  0  0  0  0  0  0  0  0  0  0
   19.0151   45.6113   43.3796 N   0  0  0  0  0  0  0  0  0  0  0  0
   17.5178   46.3443   41.7796 H   0  0  0  0  0  0  0  0  0  0  0  0
   19.0893   46.5093   42.9831 H   0  0  0  0  0  0  0  0  0  0  0  0
   16.2030   44.7826   41.2517 C   0  0  0  0  0  0  0  0  0  0  0  0
   16.7507   44.6937   39.8164 C   0  0  0  0  0  0  0  0  0  0  0  0
   15.9260   44.8049   38.8857 O   0  0  0  0  0  0  0  0  0  0  0  0
   17.9996   44.6533   39.6415 O   0  0  0  0  0  0  0  0  0  0  0  0
   15.0084   44.8298   39.0734 H   0  0  0  0  0  0  0  0  0  0  0  0
   15.0570   45.8333   41.5464 C   0  0  0  0  0  0  0  0  0  0  0  0
   13.3898   47.4263   40.7554 C   0  0  0  0  0  0  0  0  0  0  0  0
   13.6248   46.8600   39.5211 O   0  0  0  0  0  0  0  0  0  0  0  0
   13.6923   46.0082   40.7448 C   0  0  0  0  0  0  0  0  0  0  0  0
   20.0227   46.3678   45.4491 C   0  0  0  0  0  0  0  0  0  0  0  0
   19.1683   47.2708   45.3156 O   0  0  0  0  0  0  0  0  0  0  0  0
   20.8851   46.3011   46.3668 O   0  0  0  0  0  0  0  0  0  0  0  0
   18.5631   47.2413   44.6008 H   0  0  0  0  0  0  0  0  0  0  0  0
   21.3800   45.1547   43.7614 C   0  0  0  0  0  0  0  0  0  0  0  0
   21.5821   46.3315   42.8152 C   0  0  0  0  0  0  0  0  0  0  0  0
   23.0567   46.4794   42.4003 C   0  0  0  0  0  0  0  0  0  0  0  0
   23.5073   47.9312   42.6438 C   0  0  0  0  0  0  0  0  0  0  0  0
   23.5660   48.2283   44.0946 N   0  0  0  0  0  0  0  0  0  0  0  0
   23.0819   49.3620   44.6068 C   0  0  0  0  0  0  0  0  0  0  0  0
   22.4632   50.2012   43.9603 O   0  0  0  0  0  0  0  0  0  0  0  0
   23.9750   47.5684   44.6999 H   0  0  0  0  0  0  0  0  0  0  0  0
   23.1767   49.5073   46.1243 C   0  0  0  0  0  0  0  0  0  0  0  0
   23.4013   48.4142   46.9568 C   0  0  0  0  0  0  0  0  0  0  0  0
   23.5076   48.5981   48.3356 C   0  0  0  0  0  0  0  0  0  0  0  0
   23.3983   49.8902   48.8304 C   0  0  0  0  0  0  0  0  0  0  0  0
   23.5676   50.3139   50.8442 I   0  0  0  0  0  0  0  0  0  0  0  0
   23.2007   50.9748   47.9937 C   0  0  0  0  0  0  0  0  0  0  0  0
   23.0858   50.7833   46.6383 C   0  0  0  0  0  0  0  0  0  0  0  0
 11  9  2  0  0  0
 15 16  1  0  0  0
 15 14  1  0  0  0
 10  9  1  0  0  0
  9  8  1  0  0  0
 16 14  1  0  0  0
 16 13  1  0  0  0
  8 13  1  0  0  0
  8  2  1  0  0  0
  4  3  2  0  0  0
  2  3  1  0  0  0
  3  5  1  0  0  0
 23 24  1  0  0  0
 23 22  1  0  0  0
 21 22  1  0  0  0
 21  1  1  0  0  0
 24 25  1  0  0  0
  5  1  1  0  0  0
  1 17  1  0  0  0
 27 26  2  0  0  0
 25 26  1  0  0  0
 26 29  1  0  0  0
 17 19  2  0  0  0
 17 18  1  0  0  0
 29 35  2  0  0  0
 29 30  1  0  0  0
 35 34  1  0  0  0
 30 31  2  0  0  0
 34 32  2  0  0  0
 31 32  1  0  0  0
 32 33  1  0  0  0
 10 12  1  0  0  0
  2  6  1  0  0  0
  5  7  1  0  0  0
 18 20  1  0  0  0
 25 28  1  0  0  0
M  END
> <minimizedAffinity>
-10.70646

$$$$
4OC1_2QS_A_818


 35 36  0  0  0  0  0  0  0  0999 V2000
   19.3029   45.0470   44.8001 C   0  0  0  0  0  0  0  0  0  0  0  0
   17.0234   45.0048   41.9996 N   0  0  0  0  0  0  0  0  0  0  0  0
   17.5226   44.5647   43.1477 C   0  0  0  0  0  0  0  0  0  0  0  0
   17.0792   43.5613   43.7265 O   0  0  0  0  0  0  0  0  0  0  0  0
   18.5474   45.2901   43.5705 N   0  0  0  0  0  0  0  0  0  0  0  0
   17.4163   45.8278   41.6286 H   0  0  0  0  0  0  0  0  0  0  0  0
   18.8227   46.0534   43.0131 H   0  0  0  0  0  0  0  0  0  0  0  0
   15.9379   44.3783   41.2292 C   0  0  0  0  0  0  0  0  0  0  0  0
   16.5426   44.2262   39.8224 C   0  0  0  0  0  0  0  0  0  0  0  0
   17.7658   44.4454   39.7032 O   0  0  0  0  0  0  0  0  0  0  0  0
   15.8230   43.7612   38.8962 O   0  0  0  0  0  0  0  0  0  0  0  0
   18.2523   44.7920   40.4251 H   0  0  0  0  0  0  0  0  0  0  0  0
   14.8060   45.4642   41.4385 C   0  0  0  0  0  0  0  0  0  0  0  0
   13.1978   47.0646   40.5465 C   0  0  0  0  0  0  0  0  0  0  0  0
   13.9363   47.9965   41.2435 O   0  0  0  0  0  0  0  0  0  0  0  0
   14.6254   46.8237   40.6294 C   0  0  0  0  0  0  0  0  0  0  0  0
   20.0027   46.3473   45.1937 C   0  0  0  0  0  0  0  0  0  0  0  0
   20.3471   46.4481   46.3915 O   0  0  0  0  0  0  0  0  0  0  0  0
   20.1983   47.2120   44.2969 O   0  0  0  0  0  0  0  0  0  0  0  0
   20.1607   45.7539   46.9926 H   0  0  0  0  0  0  0  0  0  0  0  0
   20.3835   43.9908   44.5126 C   0  0  0  0  0  0  0  0  0  0  0  0
   21.0481   43.5716   45.8179 C   0  0  0  0  0  0  0  0  0  0  0  0
   22.3583   42.8043   45.5668 C   0  0  0  0  0  0  0  0  0  0  0  0
   23.2902   43.6665   44.6959 C   0  0  0  0  0  0  0  0  0  0  0  0
   23.1311   45.1043   45.0178 N   0  0  0  0  0  0  0  0  0  0  0  0
   23.9631   46.0340   44.5430 C   0  0  0  0  0  0  0  0  0  0  0  0
   24.8549   45.8104   43.7306 O   0  0  0  0  0  0  0  0  0  0  0  0
   22.3881   45.3828   45.6006 H   0  0  0  0  0  0  0  0  0  0  0  0
   23.6465   47.4779   44.9279 C   0  0  0  0  0  0  0  0  0  0  0  0
   23.6150   47.8968   46.2552 C   0  0  0  0  0  0  0  0  0  0  0  0
   23.3479   49.2319   46.5588 C   0  0  0  0  0  0  0  0  0  0  0  0
   23.1352   50.1093   45.5045 C   0  0  0  0  0  0  0  0  0  0  0  0
   22.7617   52.1178   45.8045 I   0  0  0  0  0  0  0  0  0  0  0  0
   23.1936   49.6902   44.1868 C   0  0  0  0  0  0  0  0  0  0  0  0
   23.4459   48.3713   43.8973 C   0  0  0  0  0  0  0  0  0  0  0  0
 11  9  2  0  0  0
 15 16  1  0  0  0
 15 14  1  0  0  0
 10  9  1  0  0  0
  9  8  1  0  0  0
 16 14  1  0  0  0
 16 13  1  0  0  0
  8 13  1  0  0  0
  8  2  1  0  0  0
  4  3  2  0  0  0
  2  3  1  0  0  0
  3  5  1  0  0  0
 23 24  1  0  0  0
 23 22  1  0  0  0
 21 22  1  0  0  0
 21  1  1  0  0  0
 24 25  1  0  0  0
  5  1  1  0  0  0
  1 17  1  0  0  0
 27 26  2  0  0  0
 25 26  1  0  0  0
 26 29  1  0  0  0
 17 19  2  0  0  0
 17 18  1  0  0  0
 29 35  2  0  0  0
 29 30  1  0  0  0
 35 34  1  0  0  0
 30 31  2  0  0  0
 34 32  2  0  0  0
 31 32  1  0  0  0
 32 33  1  0  0  0
 10 12  1  0  0  0
  2  6  1  0  0  0
  5  7  1  0  0  0
 18 20  1  0  0  0
 25 28  1  0  0  0
M  END
> <minimizedAffinity>
-9.58647

$$$$
4OC1_2QS_A_818


 35 36  0  0  0  0  0  0  0  0999 V2000
   20.1346   45.4947   43.8684 C   0  0  0  0  0  0  0  0  0  0  0  0
   17.0093   45.3219   42.0676 N   0  0  0  0  0  0  0  0  0  0  0  0
   18.0570   44.8149   42.7048 C   0  0  0  0  0  0  0  0  0  0  0  0
   18.2278   43.5939   42.8409 O   0  0  0  0  0  0  0  0  0  0  0  0
   18.8929   45.7477   43.1364 N   0  0  0  0  0  0  0  0  0  0  0  0
   16.9384   46.3034   42.0362 H   0  0  0  0  0  0  0  0  0  0  0  0
   18.6601   46.6859   42.9499 H   0  0  0  0  0  0  0  0  0  0  0  0
   15.9437   44.5550   41.4036 C   0  0  0  0  0  0  0  0  0  0  0  0
   16.5268   44.2717   40.0081 C   0  0  0  0  0  0  0  0  0  0  0  0
   17.7387   44.5183   39.8379 O   0  0  0  0  0  0  0  0  0  0  0  0
   15.8071   43.6846   39.1541 O   0  0  0  0  0  0  0  0  0  0  0  0
   18.2258   44.9577   40.5070 H   0  0  0  0  0  0  0  0  0  0  0  0
   14.7592   45.5982   41.5168 C   0  0  0  0  0  0  0  0  0  0  0  0
   13.1272   47.0958   40.4985 C   0  0  0  0  0  0  0  0  0  0  0  0
   13.8040   48.0844   41.1798 O   0  0  0  0  0  0  0  0  0  0  0  0
   14.5586   46.9141   40.6428 C   0  0  0  0  0  0  0  0  0  0  0  0
   20.0220   46.1580   45.2405 C   0  0  0  0  0  0  0  0  0  0  0  0
   19.3228   47.1930   45.2975 O   0  0  0  0  0  0  0  0  0  0  0  0
   20.6181   45.6186   46.2121 O   0  0  0  0  0  0  0  0  0  0  0  0
   18.9144   47.5258   44.5226 H   0  0  0  0  0  0  0  0  0  0  0  0
   21.2964   46.1590   43.1102 C   0  0  0  0  0  0  0  0  0  0  0  0
   22.5253   45.2604   43.1695 C   0  0  0  0  0  0  0  0  0  0  0  0
   23.6113   45.7180   42.1798 C   0  0  0  0  0  0  0  0  0  0  0  0
   24.5722   46.6851   42.8952 C   0  0  0  0  0  0  0  0  0  0  0  0
   23.8395   47.8584   43.4271 N   0  0  0  0  0  0  0  0  0  0  0  0
   23.9185   48.2230   44.7087 C   0  0  0  0  0  0  0  0  0  0  0  0
   24.6669   47.7008   45.5288 O   0  0  0  0  0  0  0  0  0  0  0  0
   23.2765   48.3859   42.8155 H   0  0  0  0  0  0  0  0  0  0  0  0
   23.1402   49.4780   45.0990 C   0  0  0  0  0  0  0  0  0  0  0  0
   23.4726   50.2323   46.2209 C   0  0  0  0  0  0  0  0  0  0  0  0
   22.7505   51.3868   46.5238 C   0  0  0  0  0  0  0  0  0  0  0  0
   21.7195   51.7527   45.6697 C   0  0  0  0  0  0  0  0  0  0  0  0
   20.5890   53.4530   45.9768 I   0  0  0  0  0  0  0  0  0  0  0  0
   21.4119   51.0114   44.5422 C   0  0  0  0  0  0  0  0  0  0  0  0
   22.1206   49.8697   44.2577 C   0  0  0  0  0  0  0  0  0  0  0  0
 11  9  2  0  0  0
 15 16  1  0  0  0
 15 14  1  0  0  0
 10  9  1  0  0  0
  9  8  1  0  0  0
 16 14  1  0  0  0
 16 13  1  0  0  0
  8 13  1  0  0  0
  8  2  1  0  0  0
  4  3  2  0  0  0
  2  3  1  0  0  0
  3  5  1  0  0  0
 23 24  1  0  0  0
 23 22  1  0  0  0
 21 22  1  0  0  0
 21  1  1  0  0  0
 24 25  1  0  0  0
  5  1  1  0  0  0
  1 17  1  0  0  0
 27 26  2  0  0  0
 25 26  1  0  0  0
 26 29  1  0  0  0
 17 19  2  0  0  0
 17 18  1  0  0  0
 29 35  2  0  0  0
 29 30  1  0  0  0
 35 34  1  0  0  0
 30 31  2  0  0  0
 34 32  2  0  0  0
 31 32  1  0  0  0
 32 33  1  0  0  0
 10 12  1  0  0  0
  2  6  1  0  0  0
  5  7  1  0  0  0
 18 20  1  0  0  0
 25 28  1  0  0  0
M  END
> <minimizedAffinity>
-9.23771

$$$$
4OC1_2QS_A_818


 35 36  0  0  0  0  0  0  0  0999 V2000
   23.8445   45.2167   43.4623 C   0  0  0  0  0  0  0  0  0  0  0  0
   23.2642   47.8595   45.8538 N   0  0  0  0  0  0  0  0  0  0  0  0
   23.9662   47.1986   44.9421 C   0  0  0  0  0  0  0  0  0  0  0  0
   25.1106   47.5392   44.6059 O   0  0  0  0  0  0  0  0  0  0  0  0
   23.3245   46.1390   44.4726 N   0  0  0  0  0  0  0  0  0  0  0  0
   22.3517   47.5369   46.0342 H   0  0  0  0  0  0  0  0  0  0  0  0
   22.4261   45.9575   44.8320 H   0  0  0  0  0  0  0  0  0  0  0  0
   23.7216   49.0290   46.6202 C   0  0  0  0  0  0  0  0  0  0  0  0
   23.7084   48.5277   48.0750 C   0  0  0  0  0  0  0  0  0  0  0  0
   24.6877   47.8511   48.4516 O   0  0  0  0  0  0  0  0  0  0  0  0
   22.7974   48.9290   48.8502 O   0  0  0  0  0  0  0  0  0  0  0  0
   25.3357   47.5796   47.8317 H   0  0  0  0  0  0  0  0  0  0  0  0
   22.6183   50.0767   46.1848 C   0  0  0  0  0  0  0  0  0  0  0  0
   20.8987   49.4892   44.5598 C   0  0  0  0  0  0  0  0  0  0  0  0
   20.6896   50.8494   44.4848 O   0  0  0  0  0  0  0  0  0  0  0  0
   22.0703   50.3300   44.7114 C   0  0  0  0  0  0  0  0  0  0  0  0
   23.1729   45.5431   42.1290 C   0  0  0  0  0  0  0  0  0  0  0  0
   23.9368   45.7254   41.1561 O   0  0  0  0  0  0  0  0  0  0  0  0
   21.9132   45.5905   42.0940 O   0  0  0  0  0  0  0  0  0  0  0  0
   24.8649   45.6712   41.2726 H   0  0  0  0  0  0  0  0  0  0  0  0
   23.4519   43.7828   43.8568 C   0  0  0  0  0  0  0  0  0  0  0  0
   23.2144   43.7135   45.3601 C   0  0  0  0  0  0  0  0  0  0  0  0
   22.2246   42.5937   45.7273 C   0  0  0  0  0  0  0  0  0  0  0  0
   20.9433   43.2211   46.3059 C   0  0  0  0  0  0  0  0  0  0  0  0
   19.9524   43.4785   45.2343 N   0  0  0  0  0  0  0  0  0  0  0  0
   19.7325   44.7029   44.7504 C   0  0  0  0  0  0  0  0  0  0  0  0
   20.3849   45.6943   45.0616 O   0  0  0  0  0  0  0  0  0  0  0  0
   19.4399   42.7221   44.8676 H   0  0  0  0  0  0  0  0  0  0  0  0
   18.7114   44.8043   43.6190 C   0  0  0  0  0  0  0  0  0  0  0  0
   17.6672   43.8933   43.4848 C   0  0  0  0  0  0  0  0  0  0  0  0
   16.7418   44.0408   42.4514 C   0  0  0  0  0  0  0  0  0  0  0  0
   16.8932   45.1192   41.5908 C   0  0  0  0  0  0  0  0  0  0  0  0
   15.5805   45.4790   40.0382 I   0  0  0  0  0  0  0  0  0  0  0  0
   17.9191   46.0350   41.7465 C   0  0  0  0  0  0  0  0  0  0  0  0
   18.8326   45.8758   42.7599 C   0  0  0  0  0  0  0  0  0  0  0  0
 11  9  2  0  0  0
 15 16  1  0  0  0
 15 14  1  0  0  0
 10  9  1  0  0  0
  9  8  1  0  0  0
 16 14  1  0  0  0
 16 13  1  0  0  0
  8 13  1  0  0  0
  8  2  1  0  0  0
  4  3  2  0  0  0
  2  3  1  0  0  0
  3  5  1  0  0  0
 23 24  1  0  0  0
 23 22  1  0  0  0
 21 22  1  0  0  0
 21  1  1  0  0  0
 24 25  1  0  0  0
  5  1  1  0  0  0
  1 17  1  0  0  0
 27 26  2  0  0  0
 25 26  1  0  0  0
 26 29  1  0  0  0
 17 19  2  0  0  0
 17 18  1  0  0  0
 29 35  2  0  0  0
 29 30  1  0  0  0
 35 34  1  0  0  0
 30 31  2  0  0  0
 34 32  2  0  0  0
 31 32  1  0  0  0
 32 33  1  0  0  0
 10 12  1  0  0  0
  2  6  1  0  0  0
  5  7  1  0  0  0
 18 20  1  0  0  0
 25 28  1  0  0  0
M  END
> <minimizedAffinity>
-8.90988

$$$$
4OC1_2QS_A_818


 35 36  0  0  0  0  0  0  0  0999 V2000
   25.1108   46.0175   44.5634 C   0  0  0  0  0  0  0  0  0  0  0  0
   23.8374   49.1456   45.8417 N   0  0  0  0  0  0  0  0  0  0  0  0
   23.8309   47.8309   45.6618 C   0  0  0  0  0  0  0  0  0  0  0  0
   22.9359   47.1004   46.1132 O   0  0  0  0  0  0  0  0  0  0  0  0
   24.8530   47.4103   44.9313 N   0  0  0  0  0  0  0  0  0  0  0  0
   24.6047   49.6422   45.4758 H   0  0  0  0  0  0  0  0  0  0  0  0
   25.4900   48.0889   44.6103 H   0  0  0  0  0  0  0  0  0  0  0  0
   22.8053   49.9306   46.5367 C   0  0  0  0  0  0  0  0  0  0  0  0
   22.6701   51.1909   45.6642 C   0  0  0  0  0  0  0  0  0  0  0  0
   21.6058   51.3287   45.0263 O   0  0  0  0  0  0  0  0  0  0  0  0
   23.5610   52.0814   45.7365 O   0  0  0  0  0  0  0  0  0  0  0  0
   20.9780   50.6334   45.0065 H   0  0  0  0  0  0  0  0  0  0  0  0
   23.4958   50.0775   47.9530 C   0  0  0  0  0  0  0  0  0  0  0  0
   23.0655   49.6418   50.3126 C   0  0  0  0  0  0  0  0  0  0  0  0
   22.3038   48.5925   49.8454 O   0  0  0  0  0  0  0  0  0  0  0  0
   23.5421   48.9853   49.1108 C   0  0  0  0  0  0  0  0  0  0  0  0
   26.5745   45.8999   44.1402 C   0  0  0  0  0  0  0  0  0  0  0  0
   26.9340   46.6269   43.1886 O   0  0  0  0  0  0  0  0  0  0  0  0
   27.3153   45.1031   44.7778 O   0  0  0  0  0  0  0  0  0  0  0  0
   26.3144   47.1917   42.7704 H   0  0  0  0  0  0  0  0  0  0  0  0
   24.2328   45.6581   43.3526 C   0  0  0  0  0  0  0  0  0  0  0  0
   23.5133   44.3413   43.6162 C   0  0  0  0  0  0  0  0  0  0  0  0
   23.7764   43.8265   45.0425 C   0  0  0  0  0  0  0  0  0  0  0  0
   22.4336   43.4777   45.7098 C   0  0  0  0  0  0  0  0  0  0  0  0
   21.3046   43.7225   44.7815 N   0  0  0  0  0  0  0  0  0  0  0  0
   20.2281   44.4242   45.1430 C   0  0  0  0  0  0  0  0  0  0  0  0
   20.1152   45.0092   46.2155 O   0  0  0  0  0  0  0  0  0  0  0  0
   21.3500   43.3560   43.8689 H   0  0  0  0  0  0  0  0  0  0  0  0
   19.1661   44.6280   44.0642 C   0  0  0  0  0  0  0  0  0  0  0  0
   18.0061   43.8596   44.0175 C   0  0  0  0  0  0  0  0  0  0  0  0
   17.0505   44.0991   43.0299 C   0  0  0  0  0  0  0  0  0  0  0  0
   17.2920   45.1235   42.1250 C   0  0  0  0  0  0  0  0  0  0  0  0
   15.9511   45.6101   40.6322 I   0  0  0  0  0  0  0  0  0  0  0  0
   18.4358   45.8996   42.1939 C   0  0  0  0  0  0  0  0  0  0  0  0
   19.3769   45.6495   43.1627 C   0  0  0  0  0  0  0  0  0  0  0  0
 11  9  2  0  0  0
 15 16  1  0  0  0
 15 14  1  0  0  0
 10  9  1  0  0  0
  9  8  1  0  0  0
 16 14  1  0  0  0
 16 13  1  0  0  0
  8 13  1  0  0  0
  8  2  1  0  0  0
  4  3  2  0  0  0
  2  3  1  0  0  0
  3  5  1  0  0  0
 23 24  1  0  0  0
 23 22  1  0  0  0
 21 22  1  0  0  0
 21  1  1  0  0  0
 24 25  1  0  0  0
  5  1  1  0  0  0
  1 17  1  0  0  0
 27 26  2  0  0  0
 25 26  1  0  0  0
 26 29  1  0  0  0
 17 19  2  0  0  0
 17 18  1  0  0  0
 29 35  2  0  0  0
 29 30  1  0  0  0
 35 34  1  0  0  0
 30 31  2  0  0  0
 34 32  2  0  0  0
 31 32  1  0  0  0
 32 33  1  0  0  0
 10 12  1  0  0  0
  2  6  1  0  0  0
  5  7  1  0  0  0
 18 20  1  0  0  0
 25 28  1  0  0  0
M  END
> <minimizedAffinity>
-8.84787

$$$$
4OC1_2QS_A_818


 35 36  0  0  0  0  0  0  0  0999 V2000
   23.8455   45.8645   43.0225 C   0  0  0  0  0  0  0  0  0  0  0  0
   22.3963   48.3107   45.2487 N   0  0  0  0  0  0  0  0  0  0  0  0
   23.3941   47.7002   44.6222 C   0  0  0  0  0  0  0  0  0  0  0  0
   24.5816   48.0142   44.7950 O   0  0  0  0  0  0  0  0  0  0  0  0
   22.9788   46.7178   43.8364 N   0  0  0  0  0  0  0  0  0  0  0  0
   21.4834   48.0173   45.0257 H   0  0  0  0  0  0  0  0  0  0  0  0
   22.0098   46.5483   43.7968 H   0  0  0  0  0  0  0  0  0  0  0  0
   22.5264   49.3851   46.2454 C   0  0  0  0  0  0  0  0  0  0  0  0
   22.8689   50.6201   45.3938 C   0  0  0  0  0  0  0  0  0  0  0  0
   22.1191   50.8695   44.4273 O   0  0  0  0  0  0  0  0  0  0  0  0
   23.7891   51.3917   45.7808 O   0  0  0  0  0  0  0  0  0  0  0  0
   21.4510   50.2596   44.1832 H   0  0  0  0  0  0  0  0  0  0  0  0
   23.6673   48.7668   47.1511 C   0  0  0  0  0  0  0  0  0  0  0  0
   23.1642   50.0931   49.1337 C   0  0  0  0  0  0  0  0  0  0  0  0
   22.5434   48.9473   49.5824 O   0  0  0  0  0  0  0  0  0  0  0  0
   23.7694   48.8360   48.7387 C   0  0  0  0  0  0  0  0  0  0  0  0
   23.1860   45.6812   41.6562 C   0  0  0  0  0  0  0  0  0  0  0  0
   23.9598   45.5570   40.6820 O   0  0  0  0  0  0  0  0  0  0  0  0
   21.9263   45.6515   41.6035 O   0  0  0  0  0  0  0  0  0  0  0  0
   24.8870   45.5918   40.8127 H   0  0  0  0  0  0  0  0  0  0  0  0
   23.9467   44.4840   43.6934 C   0  0  0  0  0  0  0  0  0  0  0  0
   23.1072   44.4711   44.9647 C   0  0  0  0  0  0  0  0  0  0  0  0
   23.1300   43.0913   45.6459 C   0  0  0  0  0  0  0  0  0  0  0  0
   21.7001   42.7157   46.0754 C   0  0  0  0  0  0  0  0  0  0  0  0
   20.7146   43.1389   45.0527 N   0  0  0  0  0  0  0  0  0  0  0  0
   19.8240   44.1061   45.2830 C   0  0  0  0  0  0  0  0  0  0  0  0
   19.8012   44.7944   46.2984 O   0  0  0  0  0  0  0  0  0  0  0  0
   20.7168   42.6923   44.1753 H   0  0  0  0  0  0  0  0  0  0  0  0
   18.9011   44.4602   44.1184 C   0  0  0  0  0  0  0  0  0  0  0  0
   17.7190   43.7654   43.8773 C   0  0  0  0  0  0  0  0  0  0  0  0
   16.8931   44.1412   42.8177 C   0  0  0  0  0  0  0  0  0  0  0  0
   17.2829   45.2232   42.0406 C   0  0  0  0  0  0  0  0  0  0  0  0
   16.1431   45.9094   40.4615 I   0  0  0  0  0  0  0  0  0  0  0  0
   18.4467   45.9247   42.3026 C   0  0  0  0  0  0  0  0  0  0  0  0
   19.2598   45.5408   43.3410 C   0  0  0  0  0  0  0  0  0  0  0  0
 11  9  2  0  0  0
 15 16  1  0  0  0
 15 14  1  0  0  0
 10  9  1  0  0  0
  9  8  1  0  0  0
 16 14  1  0  0  0
 16 13  1  0  0  0
  8 13  1  0  0  0
  8  2  1  0  0  0
  4  3  2  0  0  0
  2  3  1  0  0  0
  3  5  1  0  0  0
 23 24  1  0  0  0
 23 22  1  0  0  0
 21 22  1  0  0  0
 21  1  1  0  0  0
 24 25  1  0  0  0
  5  1  1  0  0  0
  1 17  1  0  0  0
 27 26  2  0  0  0
 25 26  1  0  0  0
 26 29  1  0  0  0
 17 19  2  0  0  0
 17 18  1  0  0  0
 29 35  2  0  0  0
 29 30  1  0  0  0
 35 34  1  0  0  0
 30 31  2  0  0  0
 34 32  2  0  0  0
 31 32  1  0  0  0
 32 33  1  0  0  0
 10 12  1  0  0  0
  2  6  1  0  0  0
  5  7  1  0  0  0
 18 20  1  0  0  0
 25 28  1  0  0  0
M  END
> <minimizedAffinity>
-8.34209

$$$$
4OC1_2QS_A_818


 35 36  0  0  0  0  0  0  0  0999 V2000
   23.2878   46.6598   44.4462 C   0  0  0  0  0  0  0  0  0  0  0  0
   23.3981   49.6263   46.5026 N   0  0  0  0  0  0  0  0  0  0  0  0
   22.7964   48.6398   45.8502 C   0  0  0  0  0  0  0  0  0  0  0  0
   21.5621   48.5267   45.8032 O   0  0  0  0  0  0  0  0  0  0  0  0
   23.6530   47.8316   45.2433 N   0  0  0  0  0  0  0  0  0  0  0  0
   24.3825   49.6184   46.5139 H   0  0  0  0  0  0  0  0  0  0  0  0
   24.6117   48.0356   45.3359 H   0  0  0  0  0  0  0  0  0  0  0  0
   22.7321   50.7306   47.2106 C   0  0  0  0  0  0  0  0  0  0  0  0
   23.1191   51.9683   46.3823 C   0  0  0  0  0  0  0  0  0  0  0  0
   22.2375   52.4578   45.6463 O   0  0  0  0  0  0  0  0  0  0  0  0
   24.2415   52.5090   46.5817 O   0  0  0  0  0  0  0  0  0  0  0  0
   21.4207   52.0126   45.5340 H   0  0  0  0  0  0  0  0  0  0  0  0
   23.3867   50.5587   48.6410 C   0  0  0  0  0  0  0  0  0  0  0  0
   23.2884   49.6371   50.8958 C   0  0  0  0  0  0  0  0  0  0  0  0
   22.2937   48.8328   50.3827 O   0  0  0  0  0  0  0  0  0  0  0  0
   23.4406   49.2275   49.5131 C   0  0  0  0  0  0  0  0  0  0  0  0
   24.5710   45.9165   44.0771 C   0  0  0  0  0  0  0  0  0  0  0  0
   24.8488   44.9156   44.7731 O   0  0  0  0  0  0  0  0  0  0  0  0
   25.2457   46.3440   43.1012 O   0  0  0  0  0  0  0  0  0  0  0  0
   24.2889   44.6683   45.4826 H   0  0  0  0  0  0  0  0  0  0  0  0
   22.6215   47.1384   43.1451 C   0  0  0  0  0  0  0  0  0  0  0  0
   21.3998   46.2773   42.8501 C   0  0  0  0  0  0  0  0  0  0  0  0
   21.2940   45.0899   43.8234 C   0  0  0  0  0  0  0  0  0  0  0  0
   19.9720   45.1934   44.6055 C   0  0  0  0  0  0  0  0  0  0  0  0
   18.8480   45.5257   43.6986 N   0  0  0  0  0  0  0  0  0  0  0  0
   18.2429   44.6008   42.9501 C   0  0  0  0  0  0  0  0  0  0  0  0
   18.4806   43.3988   43.0144 O   0  0  0  0  0  0  0  0  0  0  0  0
   18.5376   46.4586   43.6465 H   0  0  0  0  0  0  0  0  0  0  0  0
   17.0732   45.0874   42.0969 C   0  0  0  0  0  0  0  0  0  0  0  0
   15.8723   44.3867   42.0242 C   0  0  0  0  0  0  0  0  0  0  0  0
   14.8210   44.8831   41.2533 C   0  0  0  0  0  0  0  0  0  0  0  0
   15.0126   46.0866   40.5888 C   0  0  0  0  0  0  0  0  0  0  0  0
   13.5336   46.9549   39.4391 I   0  0  0  0  0  0  0  0  0  0  0  0
   16.2005   46.7900   40.6869 C   0  0  0  0  0  0  0  0  0  0  0  0
   17.2346   46.2882   41.4391 C   0  0  0  0  0  0  0  0  0  0  0  0
 11  9  2  0  0  0
 15 16  1  0  0  0
 15 14  1  0  0  0
 10  9  1  0  0  0
  9  8  1  0  0  0
 16 14  1  0  0  0
 16 13  1  0  0  0
  8 13  1  0  0  0
  8  2  1  0  0  0
  4  3  2  0  0  0
  2  3  1  0  0  0
  3  5  1  0  0  0
 23 24  1  0  0  0
 23 22  1  0  0  0
 21 22  1  0  0  0
 21  1  1  0  0  0
 24 25  1  0  0  0
  5  1  1  0  0  0
  1 17  1  0  0  0
 27 26  2  0  0  0
 25 26  1  0  0  0
 26 29  1  0  0  0
 17 19  2  0  0  0
 17 18  1  0  0  0
 29 35  2  0  0  0
 29 30  1  0  0  0
 35 34  1  0  0  0
 30 31  2  0  0  0
 34 32  2  0  0  0
 31 32  1  0  0  0
 32 33  1  0  0  0
 10 12  1  0  0  0
  2  6  1  0  0  0
  5  7  1  0  0  0
 18 20  1  0  0  0
 25 28  1  0  0  0
M  END
> <minimizedAffinity>
-8.13279

$$$$
