2PCP_1PC_B_227
  RCSB PDB12061706373D
Coordinates from PDB:2PCP:B:227 Model:1 without hydrogens
 18 20  0  0  0  0            999 V2000
   -7.3300  -31.7920  -15.3690   C 0  0  0  0  0  0  0  0  0  0  0  0
   -9.1620  -27.2400  -14.5290   C 0  0  0  0  0  0  0  0  0  0  0  0
   -9.4430  -27.0060  -15.9010   C 0  0  0  0  0  0  0  0  0  0  0  0
  -10.7910  -26.7340  -16.3260   C 0  0  0  0  0  0  0  0  0  0  0  0
  -11.8960  -26.6870  -15.3840   C 0  0  0  0  0  0  0  0  0  0  0  0
  -11.6170  -26.9260  -14.0510   C 0  0  0  0  0  0  0  0  0  0  0  0
  -10.2900  -27.1930  -13.6110   C 0  0  0  0  0  0  0  0  0  0  0  0
   -7.6760  -27.5180  -13.9960   C 0  0  0  0  0  0  0  0  0  0  0  0
   -6.5630  -26.5590  -14.6380   C 0  0  0  0  0  0  0  0  0  0  0  0
   -6.9940  -25.1210  -14.3940   C 0  0  0  0  0  0  0  0  0  0  0  0
   -6.9050  -24.7740  -12.8920   C 0  0  0  0  0  0  0  0  0  0  0  0
   -7.7300  -25.7770  -12.0620   C 0  0  0  0  0  0  0  0  0  0  0  0
   -7.4210  -27.2270  -12.4630   C 0  0  0  0  0  0  0  0  0  0  0  0
   -7.2300  -29.0100  -14.1940   N 0  0  0  0  0  0  0  0  0  0  0  0
   -8.2710  -30.0700  -13.7270   C 0  0  0  0  0  0  0  0  0  0  0  0
   -7.7730  -31.5110  -13.9330   C 0  0  0  0  0  0  0  0  0  0  0  0
   -6.2590  -30.7550  -15.7650   C 0  0  0  0  0  0  0  0  0  0  0  0
   -6.7380  -29.3290  -15.6150   C 0  0  0  0  0  0  0  0  0  0  0  0
  1 16  1  0  0  0  0
  1 17  1  0  0  0  0
  2  3  2  0  0  0  0
  2  7  1  0  0  0  0
  2  8  1  0  0  0  0
  3  4  1  0  0  0  0
  4  5  2  0  0  0  0
  5  6  1  0  0  0  0
  6  7  2  0  0  0  0
  8  9  1  0  0  0  0
  8 13  1  0  0  0  0
  8 14  1  0  0  0  0
  9 10  1  0  0  0  0
 10 11  1  0  0  0  0
 11 12  1  0  0  0  0
 12 13  1  0  0  0  0
 14 15  1  0  0  0  0
 14 18  1  0  0  0  0
 15 16  1  0  0  0  0
 17 18  1  0  0  0  0
A    1
CP
A    2
CA
A    3
CB
A    4
CC
A    5
CD
A    6
CE
A    7
CF
A    8
CG
A    9
CH
A   10
CI
A   11
CJ
A   12
CK
A   13
CL
A   14
NM
A   15
CN
A   16
CO
A   17
CQ
A   18
CR
M  END
>  <InstanceId>
2PCP_1PC_B_227

>  <ChemCompId>
1PC

>  <PdbId>
2PCP

>  <ChainId>
B

>  <ResidueNumber>
227

>  <InsertionCode>


>  <Model>
1

>  <AltIds>


>  <MissingHeavyAtoms>
0

>  <ObservedFormula>
C17 N

>  <Name>
1-(PHENYL-1-CYCLOHEXYL)PIPERIDINE

>  <SystematicName>
1-(1-phenylcyclohexyl)piperidine

>  <Synonyms>
PHENCYCLIDINE

>  <Type>
NON-POLYMER

>  <Formula>
C17 H25 N

>  <MolecularWeight>
243.387

>  <ModifiedDate>
2011-06-04

>  <Parent>


>  <OneLetterCode>


>  <SubcomponentList>


>  <AmbiguousFlag>
N

>  <InChI>
InChI=1S/C17H25N/c1-4-10-16(11-5-1)17(12-6-2-7-13-17)18-14-8-3-9-15-18/h1,4-5,10-11H,2-3,6-9,12-15H2

>  <InChIKey>
JTJMJGYZQZDUJJ-UHFFFAOYSA-N

>  <SMILES>
c1ccc(cc1)C2(CCCCC2)N3CCCCC3

$$$$
