2PCP_1PC_B_227


 18 20  0  0  0  0  0  0  0  0999 V2000
   -7.9552  -27.5166  -14.0153 C   0  0  0  0  0  0  0  0  0  0  0  0
   -6.7920  -26.6605  -14.7115 C   0  0  0  0  0  0  0  0  0  0  0  0
   -7.1116  -25.1883  -14.5019 C   0  0  0  0  0  0  0  0  0  0  0  0
   -6.9603  -24.8055  -13.0137 C   0  0  0  0  0  0  0  0  0  0  0  0
   -7.8348  -25.7211  -12.1348 C   0  0  0  0  0  0  0  0  0  0  0  0
   -7.6417  -27.2008  -12.4981 C   0  0  0  0  0  0  0  0  0  0  0  0
   -7.2296  -31.6421  -15.6662 C   0  0  0  0  0  0  0  0  0  0  0  0
   -7.6235  -29.0423  -14.1775 N   0  0  0  0  0  0  0  0  0  0  0  0
   -8.8220  -29.9260  -14.6335 C   0  0  0  0  0  0  0  0  0  0  0  0
   -8.4401  -31.4109  -14.7614 C   0  0  0  0  0  0  0  0  0  0  0  0
   -6.0539  -30.7927  -15.1412 C   0  0  0  0  0  0  0  0  0  0  0  0
   -6.3877  -29.3211  -15.0483 C   0  0  0  0  0  0  0  0  0  0  0  0
   -9.4300  -27.1462  -14.5226 C   0  0  0  0  0  0  0  0  0  0  0  0
   -9.6865  -26.7054  -15.8477 C   0  0  0  0  0  0  0  0  0  0  0  0
  -11.0252  -26.3587  -16.2471 C   0  0  0  0  0  0  0  0  0  0  0  0
  -12.1451  -26.4426  -15.3255 C   0  0  0  0  0  0  0  0  0  0  0  0
  -11.8899  -26.8824  -14.0397 C   0  0  0  0  0  0  0  0  0  0  0  0
  -10.5725  -27.2263  -13.6251 C   0  0  0  0  0  0  0  0  0  0  0  0
  7 10  1  0  0  0
  7 11  1  0  0  0
 13 14  2  0  0  0
 13 18  1  0  0  0
 13  1  1  0  0  0
 14 15  1  0  0  0
 15 16  2  0  0  0
 16 17  1  0  0  0
 17 18  2  0  0  0
  1  2  1  0  0  0
  1  6  1  0  0  0
  1  8  1  0  0  0
  2  3  1  0  0  0
  3  4  1  0  0  0
  4  5  1  0  0  0
  5  6  1  0  0  0
  8  9  1  0  0  0
  8 12  1  0  0  0
  9 10  1  0  0  0
 11 12  1  0  0  0
M  END
> <minimizedAffinity>
-10.13883

$$$$
2PCP_1PC_B_227


 18 20  0  0  0  0  0  0  0  0999 V2000
   -7.9205  -27.6578  -13.9662 C   0  0  0  0  0  0  0  0  0  0  0  0
   -6.7524  -26.8541  -14.7145 C   0  0  0  0  0  0  0  0  0  0  0  0
   -7.0265  -25.3684  -14.5393 C   0  0  0  0  0  0  0  0  0  0  0  0
   -6.8277  -24.9487  -13.0667 C   0  0  0  0  0  0  0  0  0  0  0  0
   -7.7045  -25.8148  -12.1411 C   0  0  0  0  0  0  0  0  0  0  0  0
   -7.5607  -27.3088  -12.4667 C   0  0  0  0  0  0  0  0  0  0  0  0
   -7.5327  -31.8843  -15.4689 C   0  0  0  0  0  0  0  0  0  0  0  0
   -7.6345  -29.1961  -14.0930 N   0  0  0  0  0  0  0  0  0  0  0  0
   -8.9017  -30.0830  -14.2739 C   0  0  0  0  0  0  0  0  0  0  0  0
   -8.5599  -31.5794  -14.3783 C   0  0  0  0  0  0  0  0  0  0  0  0
   -6.2758  -31.0273  -15.2140 C   0  0  0  0  0  0  0  0  0  0  0  0
   -6.5767  -29.5471  -15.1517 C   0  0  0  0  0  0  0  0  0  0  0  0
   -9.3970  -27.2608  -14.4480 C   0  0  0  0  0  0  0  0  0  0  0  0
  -10.4904  -27.1752  -13.5462 C   0  0  0  0  0  0  0  0  0  0  0  0
  -11.8033  -26.8412  -14.0325 C   0  0  0  0  0  0  0  0  0  0  0  0
  -12.0562  -26.5856  -15.4401 C   0  0  0  0  0  0  0  0  0  0  0  0
  -10.9850  -26.6605  -16.3112 C   0  0  0  0  0  0  0  0  0  0  0  0
   -9.6803  -26.9930  -15.8499 C   0  0  0  0  0  0  0  0  0  0  0  0
  7 10  1  0  0  0
  7 11  1  0  0  0
 13 14  2  0  0  0
 13 18  1  0  0  0
 13  1  1  0  0  0
 14 15  1  0  0  0
 15 16  2  0  0  0
 16 17  1  0  0  0
 17 18  2  0  0  0
  1  2  1  0  0  0
  1  6  1  0  0  0
  1  8  1  0  0  0
  2  3  1  0  0  0
  3  4  1  0  0  0
  4  5  1  0  0  0
  5  6  1  0  0  0
  8  9  1  0  0  0
  8 12  1  0  0  0
  9 10  1  0  0  0
 11 12  1  0  0  0
M  END
> <minimizedAffinity>
-9.87891

$$$$
2PCP_1PC_B_227


 18 20  0  0  0  0  0  0  0  0999 V2000
   -9.4835  -28.1292  -14.8248 C   0  0  0  0  0  0  0  0  0  0  0  0
  -10.8152  -28.4011  -13.9745 C   0  0  0  0  0  0  0  0  0  0  0  0
  -11.5075  -27.0643  -13.7578 C   0  0  0  0  0  0  0  0  0  0  0  0
  -12.0690  -26.5205  -15.0895 C   0  0  0  0  0  0  0  0  0  0  0  0
  -10.9493  -26.4311  -16.1448 C   0  0  0  0  0  0  0  0  0  0  0  0
  -10.1331  -27.7304  -16.2101 C   0  0  0  0  0  0  0  0  0  0  0  0
   -7.2005  -31.9882  -14.4155 C   0  0  0  0  0  0  0  0  0  0  0  0
   -8.7741  -29.5018  -15.1022 N   0  0  0  0  0  0  0  0  0  0  0  0
   -7.2261  -29.4825  -14.9330 C   0  0  0  0  0  0  0  0  0  0  0  0
   -6.5868  -30.8498  -15.2309 C   0  0  0  0  0  0  0  0  0  0  0  0
   -8.7232  -32.0035  -14.6610 C   0  0  0  0  0  0  0  0  0  0  0  0
   -9.3846  -30.6843  -14.3327 C   0  0  0  0  0  0  0  0  0  0  0  0
   -8.5009  -27.0458  -14.1687 C   0  0  0  0  0  0  0  0  0  0  0  0
   -7.8958  -26.0123  -14.9314 C   0  0  0  0  0  0  0  0  0  0  0  0
   -6.9989  -25.0797  -14.3007 C   0  0  0  0  0  0  0  0  0  0  0  0
   -6.6822  -25.1600  -12.8852 C   0  0  0  0  0  0  0  0  0  0  0  0
   -7.2829  -26.1625  -12.1463 C   0  0  0  0  0  0  0  0  0  0  0  0
   -8.1696  -27.0963  -12.7528 C   0  0  0  0  0  0  0  0  0  0  0  0
  7 10  1  0  0  0
  7 11  1  0  0  0
 13 14  2  0  0  0
 13 18  1  0  0  0
 13  1  1  0  0  0
 14 15  1  0  0  0
 15 16  2  0  0  0
 16 17  1  0  0  0
 17 18  2  0  0  0
  1  2  1  0  0  0
  1  6  1  0  0  0
  1  8  1  0  0  0
  2  3  1  0  0  0
  3  4  1  0  0  0
  4  5  1  0  0  0
  5  6  1  0  0  0
  8  9  1  0  0  0
  8 12  1  0  0  0
  9 10  1  0  0  0
 11 12  1  0  0  0
M  END
> <minimizedAffinity>
-9.64825

$$$$
2PCP_1PC_B_227


 18 20  0  0  0  0  0  0  0  0999 V2000
   -9.7175  -27.2680  -14.5009 C   0  0  0  0  0  0  0  0  0  0  0  0
  -10.1073  -26.6203  -15.9148 C   0  0  0  0  0  0  0  0  0  0  0  0
  -11.1739  -27.4997  -16.5489 C   0  0  0  0  0  0  0  0  0  0  0  0
  -12.4987  -27.4009  -15.7619 C   0  0  0  0  0  0  0  0  0  0  0  0
  -12.2660  -27.7475  -14.2782 C   0  0  0  0  0  0  0  0  0  0  0  0
  -11.0568  -26.9920  -13.7073 C   0  0  0  0  0  0  0  0  0  0  0  0
   -5.8803  -25.4721  -12.9769 C   0  0  0  0  0  0  0  0  0  0  0  0
   -8.6501  -26.3516  -13.8044 N   0  0  0  0  0  0  0  0  0  0  0  0
   -7.8864  -27.0205  -12.6235 C   0  0  0  0  0  0  0  0  0  0  0  0
   -6.8655  -26.0710  -11.9729 C   0  0  0  0  0  0  0  0  0  0  0  0
   -6.6812  -24.7719  -14.0938 C   0  0  0  0  0  0  0  0  0  0  0  0
   -7.6613  -25.6950  -14.7813 C   0  0  0  0  0  0  0  0  0  0  0  0
   -9.2541  -28.7998  -14.5913 C   0  0  0  0  0  0  0  0  0  0  0  0
  -10.1183  -29.8738  -14.2509 C   0  0  0  0  0  0  0  0  0  0  0  0
   -9.6460  -31.2315  -14.3227 C   0  0  0  0  0  0  0  0  0  0  0  0
   -8.2902  -31.5496  -14.7365 C   0  0  0  0  0  0  0  0  0  0  0  0
   -7.4571  -30.4997  -15.0765 C   0  0  0  0  0  0  0  0  0  0  0  0
   -7.9048  -29.1504  -15.0083 C   0  0  0  0  0  0  0  0  0  0  0  0
  7 10  1  0  0  0
  7 11  1  0  0  0
 13 14  2  0  0  0
 13 18  1  0  0  0
 13  1  1  0  0  0
 14 15  1  0  0  0
 15 16  2  0  0  0
 16 17  1  0  0  0
 17 18  2  0  0  0
  1  2  1  0  0  0
  1  6  1  0  0  0
  1  8  1  0  0  0
  2  3  1  0  0  0
  3  4  1  0  0  0
  4  5  1  0  0  0
  5  6  1  0  0  0
  8  9  1  0  0  0
  8 12  1  0  0  0
  9 10  1  0  0  0
 11 12  1  0  0  0
M  END
> <minimizedAffinity>
-9.03152

$$$$
2PCP_1PC_B_227


 18 20  0  0  0  0  0  0  0  0999 V2000
   -8.1516  -26.8097  -13.9449 C   0  0  0  0  0  0  0  0  0  0  0  0
   -7.9536  -26.3851  -12.4115 C   0  0  0  0  0  0  0  0  0  0  0  0
   -6.4926  -26.6100  -12.0536 C   0  0  0  0  0  0  0  0  0  0  0  0
   -5.5892  -25.6020  -12.7966 C   0  0  0  0  0  0  0  0  0  0  0  0
   -5.8347  -25.6834  -14.3160 C   0  0  0  0  0  0  0  0  0  0  0  0
   -7.3344  -25.6518  -14.6458 C   0  0  0  0  0  0  0  0  0  0  0  0
  -12.3855  -27.2373  -15.4157 C   0  0  0  0  0  0  0  0  0  0  0  0
   -9.6437  -26.5424  -14.3527 N   0  0  0  0  0  0  0  0  0  0  0  0
   -9.9352  -26.6630  -15.8778 C   0  0  0  0  0  0  0  0  0  0  0  0
  -11.4083  -26.3772  -16.2173 C   0  0  0  0  0  0  0  0  0  0  0  0
  -12.0964  -27.0396  -13.9135 C   0  0  0  0  0  0  0  0  0  0  0  0
  -10.6655  -27.3576  -13.5437 C   0  0  0  0  0  0  0  0  0  0  0  0
   -7.6784  -28.3056  -14.2733 C   0  0  0  0  0  0  0  0  0  0  0  0
   -6.3949  -28.5937  -14.8080 C   0  0  0  0  0  0  0  0  0  0  0  0
   -6.0271  -29.9517  -15.1115 C   0  0  0  0  0  0  0  0  0  0  0  0
   -6.9396  -31.0601  -14.8887 C   0  0  0  0  0  0  0  0  0  0  0  0
   -8.1839  -30.7737  -14.3583 C   0  0  0  0  0  0  0  0  0  0  0  0
   -8.5672  -29.4369  -14.0551 C   0  0  0  0  0  0  0  0  0  0  0  0
  7 10  1  0  0  0
  7 11  1  0  0  0
 13 14  2  0  0  0
 13 18  1  0  0  0
 13  1  1  0  0  0
 14 15  1  0  0  0
 15 16  2  0  0  0
 16 17  1  0  0  0
 17 18  2  0  0  0
  1  2  1  0  0  0
  1  6  1  0  0  0
  1  8  1  0  0  0
  2  3  1  0  0  0
  3  4  1  0  0  0
  4  5  1  0  0  0
  5  6  1  0  0  0
  8  9  1  0  0  0
  8 12  1  0  0  0
  9 10  1  0  0  0
 11 12  1  0  0  0
M  END
> <minimizedAffinity>
-8.48133

$$$$
2PCP_1PC_B_227


 18 20  0  0  0  0  0  0  0  0999 V2000
   -8.7334  -29.5358  -14.7254 C   0  0  0  0  0  0  0  0  0  0  0  0
   -7.9959  -30.4217  -15.8399 C   0  0  0  0  0  0  0  0  0  0  0  0
   -6.7981  -31.0898  -15.1826 C   0  0  0  0  0  0  0  0  0  0  0  0
   -7.2603  -32.1545  -14.1643 C   0  0  0  0  0  0  0  0  0  0  0  0
   -8.2153  -31.5263  -13.1305 C   0  0  0  0  0  0  0  0  0  0  0  0
   -9.3091  -30.6899  -13.8109 C   0  0  0  0  0  0  0  0  0  0  0  0
  -12.3529  -26.9796  -15.5237 C   0  0  0  0  0  0  0  0  0  0  0  0
  -10.0022  -28.8718  -15.3684 N   0  0  0  0  0  0  0  0  0  0  0  0
  -11.3356  -29.1426  -14.6108 C   0  0  0  0  0  0  0  0  0  0  0  0
  -12.5435  -28.4791  -15.2946 C   0  0  0  0  0  0  0  0  0  0  0  0
  -11.0532  -26.7662  -16.3265 C   0  0  0  0  0  0  0  0  0  0  0  0
   -9.8413  -27.3699  -15.6540 C   0  0  0  0  0  0  0  0  0  0  0  0
   -7.7778  -28.4721  -14.0009 C   0  0  0  0  0  0  0  0  0  0  0  0
   -6.4464  -28.2330  -14.4325 C   0  0  0  0  0  0  0  0  0  0  0  0
   -5.6188  -27.2869  -13.7313 C   0  0  0  0  0  0  0  0  0  0  0  0
   -6.1044  -26.5548  -12.5742 C   0  0  0  0  0  0  0  0  0  0  0  0
   -7.4052  -26.7848  -12.1656 C   0  0  0  0  0  0  0  0  0  0  0  0
   -8.2376  -27.7192  -12.8437 C   0  0  0  0  0  0  0  0  0  0  0  0
  7 10  1  0  0  0
  7 11  1  0  0  0
 13 14  2  0  0  0
 13 18  1  0  0  0
 13  1  1  0  0  0
 14 15  1  0  0  0
 15 16  2  0  0  0
 16 17  1  0  0  0
 17 18  2  0  0  0
  1  2  1  0  0  0
  1  6  1  0  0  0
  1  8  1  0  0  0
  2  3  1  0  0  0
  3  4  1  0  0  0
  4  5  1  0  0  0
  5  6  1  0  0  0
  8  9  1  0  0  0
  8 12  1  0  0  0
  9 10  1  0  0  0
 11 12  1  0  0  0
M  END
> <minimizedAffinity>
-7.54246

$$$$
2PCP_1PC_B_227


 18 20  0  0  0  0  0  0  0  0999 V2000
   -8.2868  -29.0627  -14.0836 C   0  0  0  0  0  0  0  0  0  0  0  0
   -8.4432  -30.3397  -13.1268 C   0  0  0  0  0  0  0  0  0  0  0  0
   -9.0530  -31.4637  -13.9503 C   0  0  0  0  0  0  0  0  0  0  0  0
   -8.0506  -31.9652  -15.0124 C   0  0  0  0  0  0  0  0  0  0  0  0
   -7.5729  -30.7932  -15.8920 C   0  0  0  0  0  0  0  0  0  0  0  0
   -7.1434  -29.5895  -15.0401 C   0  0  0  0  0  0  0  0  0  0  0  0
   -6.6253  -25.0918  -12.7634 C   0  0  0  0  0  0  0  0  0  0  0  0
   -7.6153  -27.9017  -13.2680 N   0  0  0  0  0  0  0  0  0  0  0  0
   -6.2760  -27.3754  -13.8635 C   0  0  0  0  0  0  0  0  0  0  0  0
   -5.6595  -26.2499  -13.0150 C   0  0  0  0  0  0  0  0  0  0  0  0
   -7.9101  -25.6538  -12.1208 C   0  0  0  0  0  0  0  0  0  0  0  0
   -8.5623  -26.7314  -12.9568 C   0  0  0  0  0  0  0  0  0  0  0  0
   -9.6500  -28.6111  -14.7960 C   0  0  0  0  0  0  0  0  0  0  0  0
   -9.6700  -27.6961  -15.8815 C   0  0  0  0  0  0  0  0  0  0  0  0
  -10.9227  -27.3007  -16.4699 C   0  0  0  0  0  0  0  0  0  0  0  0
  -12.1924  -27.8119  -15.9829 C   0  0  0  0  0  0  0  0  0  0  0  0
  -12.1651  -28.7105  -14.9324 C   0  0  0  0  0  0  0  0  0  0  0  0
  -10.9366  -29.1106  -14.3351 C   0  0  0  0  0  0  0  0  0  0  0  0
  7 10  1  0  0  0
  7 11  1  0  0  0
 13 14  2  0  0  0
 13 18  1  0  0  0
 13  1  1  0  0  0
 14 15  1  0  0  0
 15 16  2  0  0  0
 16 17  1  0  0  0
 17 18  2  0  0  0
  1  2  1  0  0  0
  1  6  1  0  0  0
  1  8  1  0  0  0
  2  3  1  0  0  0
  3  4  1  0  0  0
  4  5  1  0  0  0
  5  6  1  0  0  0
  8  9  1  0  0  0
  8 12  1  0  0  0
  9 10  1  0  0  0
 11 12  1  0  0  0
M  END
> <minimizedAffinity>
-7.41193

$$$$
