1E4H_PBR_A_998


 13 13  0  0  0  0  0  0  0  0999 V2000
   45.2044    1.7731    4.1385 Br  0  0  0  0  0  0  0  0  0  0  0  0
   45.1838    1.7670    7.4647 Br  0  0  0  0  0  0  0  0  0  0  0  0
   42.8951   -0.0564    9.0856 Br  0  0  0  0  0  0  0  0  0  0  0  0
   40.6655   -1.8483    7.3511 Br  0  0  0  0  0  0  0  0  0  0  0  0
   40.7622   -1.7919    4.0267 Br  0  0  0  0  0  0  0  0  0  0  0  0
   43.0017    0.0005    3.0348 O   0  0  0  0  0  0  0  0  0  0  0  0
   43.9314    0.7457    5.0866 C   0  0  0  0  0  0  0  0  0  0  0  0
   43.9187    0.7390    6.4996 C   0  0  0  0  0  0  0  0  0  0  0  0
   42.9285   -0.0386    7.1899 C   0  0  0  0  0  0  0  0  0  0  0  0
   41.9635   -0.8028    6.4506 C   0  0  0  0  0  0  0  0  0  0  0  0
   41.9976   -0.7833    5.0381 C   0  0  0  0  0  0  0  0  0  0  0  0
   42.9782   -0.0121    4.3695 C   0  0  0  0  0  0  0  0  0  0  0  0
   43.6467    0.5076    2.5823 H   0  0  0  0  0  0  0  0  0  0  0  0
  1  7  1  0  0  0
  2  8  1  0  0  0
  3  9  1  0  0  0
  4 10  1  0  0  0
  5 11  1  0  0  0
  6 12  1  0  0  0
  7  8  2  0  0  0
  7 12  1  0  0  0
  8  9  1  0  0  0
  9 10  2  0  0  0
 10 11  1  0  0  0
 11 12  2  0  0  0
  6 13  1  0  0  0
M  END
> <minimizedAffinity>
-4.66554

$$$$
1E4H_PBR_A_998


 13 13  0  0  0  0  0  0  0  0999 V2000
   40.7955   -1.7747    4.1424 Br  0  0  0  0  0  0  0  0  0  0  0  0
   40.8256   -1.7396    7.4684 Br  0  0  0  0  0  0  0  0  0  0  0  0
   43.1187    0.0982    9.0667 Br  0  0  0  0  0  0  0  0  0  0  0  0
   45.3429    1.8752    7.3103 Br  0  0  0  0  0  0  0  0  0  0  0  0
   45.2367    1.7898    3.9868 Br  0  0  0  0  0  0  0  0  0  0  0  0
   42.9946   -0.0114    3.0170 O   0  0  0  0  0  0  0  0  0  0  0  0
   42.0710   -0.7388    5.0779 C   0  0  0  0  0  0  0  0  0  0  0  0
   42.0877   -0.7199    6.4907 C   0  0  0  0  0  0  0  0  0  0  0  0
   43.0798    0.0639    7.1715 C   0  0  0  0  0  0  0  0  0  0  0  0
   44.0426    0.8217    6.4227 C   0  0  0  0  0  0  0  0  0  0  0  0
   44.0044    0.7899    5.0106 C   0  0  0  0  0  0  0  0  0  0  0  0
   43.0220    0.0128    4.3515 C   0  0  0  0  0  0  0  0  0  0  0  0
   42.3484   -0.5226    2.5708 H   0  0  0  0  0  0  0  0  0  0  0  0
  1  7  1  0  0  0
  2  8  1  0  0  0
  3  9  1  0  0  0
  4 10  1  0  0  0
  5 11  1  0  0  0
  6 12  1  0  0  0
  7  8  2  0  0  0
  7 12  1  0  0  0
  8  9  1  0  0  0
  9 10  2  0  0  0
 10 11  1  0  0  0
 11 12  2  0  0  0
  6 13  1  0  0  0
M  END
> <minimizedAffinity>
-4.65809

$$$$
1E4H_PBR_A_998


 13 13  0  0  0  0  0  0  0  0999 V2000
   43.2015    0.5419   10.0855 Br  0  0  0  0  0  0  0  0  0  0  0  0
   45.0617    1.7440    7.6038 Br  0  0  0  0  0  0  0  0  0  0  0  0
   44.3744    0.8430    4.4564 Br  0  0  0  0  0  0  0  0  0  0  0  0
   41.8332   -1.2440    3.8425 Br  0  0  0  0  0  0  0  0  0  0  0  0
   40.0186   -2.3928    6.3826 Br  0  0  0  0  0  0  0  0  0  0  0  0
   41.0311   -1.2958    9.0252 O   0  0  0  0  0  0  0  0  0  0  0  0
   42.8344    0.0617    8.2940 C   0  0  0  0  0  0  0  0  0  0  0  0
   43.6211    0.5700    7.2359 C   0  0  0  0  0  0  0  0  0  0  0  0
   43.3270    0.1729    5.8877 C   0  0  0  0  0  0  0  0  0  0  0  0
   42.2429   -0.7295    5.6190 C   0  0  0  0  0  0  0  0  0  0  0  0
   41.4680   -1.2224    6.6929 C   0  0  0  0  0  0  0  0  0  0  0  0
   41.7686   -0.8240    8.0174 C   0  0  0  0  0  0  0  0  0  0  0  0
   41.2217   -1.0384    9.9058 H   0  0  0  0  0  0  0  0  0  0  0  0
  1  7  1  0  0  0
  2  8  1  0  0  0
  3  9  1  0  0  0
  4 10  1  0  0  0
  5 11  1  0  0  0
  6 12  1  0  0  0
  7  8  2  0  0  0
  7 12  1  0  0  0
  8  9  1  0  0  0
  9 10  2  0  0  0
 10 11  1  0  0  0
 11 12  2  0  0  0
  6 13  1  0  0  0
M  END
> <minimizedAffinity>
-3.92297

$$$$
1E4H_PBR_A_998


 13 13  0  0  0  0  0  0  0  0999 V2000
   45.9775    2.3666    6.3846 Br  0  0  0  0  0  0  0  0  0  0  0  0
   44.1618    1.2289    3.8402 Br  0  0  0  0  0  0  0  0  0  0  0  0
   41.6116   -0.8491    4.4474 Br  0  0  0  0  0  0  0  0  0  0  0  0
   40.9166   -1.7523    7.5925 Br  0  0  0  0  0  0  0  0  0  0  0  0
   42.7781   -0.5614   10.0786 Br  0  0  0  0  0  0  0  0  0  0  0  0
   44.9571    1.2694    9.0241 O   0  0  0  0  0  0  0  0  0  0  0  0
   44.5226    1.1989    6.6926 C   0  0  0  0  0  0  0  0  0  0  0  0
   43.7477    0.7133    5.6154 C   0  0  0  0  0  0  0  0  0  0  0  0
   42.6597   -0.1854    5.8812 C   0  0  0  0  0  0  0  0  0  0  0  0
   42.3622   -0.5834    7.2284 C   0  0  0  0  0  0  0  0  0  0  0  0
   43.1490   -0.0823    8.2898 C   0  0  0  0  0  0  0  0  0  0  0  0
   44.2192    0.8021    8.0145 C   0  0  0  0  0  0  0  0  0  0  0  0
   45.6679    1.8555    8.8528 H   0  0  0  0  0  0  0  0  0  0  0  0
  1  7  1  0  0  0
  2  8  1  0  0  0
  3  9  1  0  0  0
  4 10  1  0  0  0
  5 11  1  0  0  0
  6 12  1  0  0  0
  7  8  2  0  0  0
  7 12  1  0  0  0
  8  9  1  0  0  0
  9 10  2  0  0  0
 10 11  1  0  0  0
 11 12  2  0  0  0
  6 13  1  0  0  0
M  END
> <minimizedAffinity>
-3.91098

$$$$
1E4H_PBR_A_998


 13 13  0  0  0  0  0  0  0  0999 V2000
   42.7644   -0.4009   10.0884 Br  0  0  0  0  0  0  0  0  0  0  0  0
   40.9506   -1.6767    7.6091 Br  0  0  0  0  0  0  0  0  0  0  0  0
   41.6830   -0.8520    4.4509 Br  0  0  0  0  0  0  0  0  0  0  0  0
   44.2222    1.2336    3.8242 Br  0  0  0  0  0  0  0  0  0  0  0  0
   45.9898    2.4573    6.3624 Br  0  0  0  0  0  0  0  0  0  0  0  0
   44.9413    1.4220    9.0159 O   0  0  0  0  0  0  0  0  0  0  0  0
   43.1573    0.0357    8.2911 C   0  0  0  0  0  0  0  0  0  0  0  0
   42.3904   -0.5040    7.2342 C   0  0  0  0  0  0  0  0  0  0  0  0
   42.7037   -0.1396    5.8810 C   0  0  0  0  0  0  0  0  0  0  0  0
   43.7870    0.7621    5.6066 C   0  0  0  0  0  0  0  0  0  0  0  0
   44.5420    1.2867    6.6796 C   0  0  0  0  0  0  0  0  0  0  0  0
   44.2225    0.9203    8.0089 C   0  0  0  0  0  0  0  0  0  0  0  0
   44.7381    1.1859    9.8996 H   0  0  0  0  0  0  0  0  0  0  0  0
  1  7  1  0  0  0
  2  8  1  0  0  0
  3  9  1  0  0  0
  4 10  1  0  0  0
  5 11  1  0  0  0
  6 12  1  0  0  0
  7  8  2  0  0  0
  7 12  1  0  0  0
  8  9  1  0  0  0
  9 10  2  0  0  0
 10 11  1  0  0  0
 11 12  2  0  0  0
  6 13  1  0  0  0
M  END
> <minimizedAffinity>
-3.90588

$$$$
1E4H_PBR_A_998


 13 13  0  0  0  0  0  0  0  0999 V2000
   40.0133   -2.3561    6.4104 Br  0  0  0  0  0  0  0  0  0  0  0  0
   41.8264   -1.2310    3.8587 Br  0  0  0  0  0  0  0  0  0  0  0  0
   44.3843    0.8409    4.4542 Br  0  0  0  0  0  0  0  0  0  0  0  0
   45.0894    1.7508    7.5951 Br  0  0  0  0  0  0  0  0  0  0  0  0
   43.2301    0.5725   10.0888 Br  0  0  0  0  0  0  0  0  0  0  0  0
   41.0431   -1.2547    9.0445 O   0  0  0  0  0  0  0  0  0  0  0  0
   41.4724   -1.1919    6.7119 C   0  0  0  0  0  0  0  0  0  0  0  0
   42.2462   -0.7116    5.6315 C   0  0  0  0  0  0  0  0  0  0  0  0
   43.3376    0.1844    5.8922 C   0  0  0  0  0  0  0  0  0  0  0  0
   43.6394    0.5853    7.2376 C   0  0  0  0  0  0  0  0  0  0  0  0
   42.8536    0.0896    8.3023 C   0  0  0  0  0  0  0  0  0  0  0  0
   41.7801   -0.7924    8.0319 C   0  0  0  0  0  0  0  0  0  0  0  0
   40.3302   -1.8391    8.8765 H   0  0  0  0  0  0  0  0  0  0  0  0
  1  7  1  0  0  0
  2  8  1  0  0  0
  3  9  1  0  0  0
  4 10  1  0  0  0
  5 11  1  0  0  0
  6 12  1  0  0  0
  7  8  2  0  0  0
  7 12  1  0  0  0
  8  9  1  0  0  0
  9 10  2  0  0  0
 10 11  1  0  0  0
 11 12  2  0  0  0
  6 13  1  0  0  0
M  END
> <minimizedAffinity>
-3.90359

$$$$
1E4H_PBR_A_998


 13 13  0  0  0  0  0  0  0  0999 V2000
   45.0315    1.5103    4.1196 Br  0  0  0  0  0  0  0  0  0  0  0  0
   42.6251   -0.6466    3.3311 Br  0  0  0  0  0  0  0  0  0  0  0  0
   40.7418   -1.9611    5.7633 Br  0  0  0  0  0  0  0  0  0  0  0  0
   41.2944   -1.0926    8.9462 Br  0  0  0  0  0  0  0  0  0  0  0  0
   43.7163    1.0775    9.6457 Br  0  0  0  0  0  0  0  0  0  0  0  0
   45.1346    1.9756    7.1170 O   0  0  0  0  0  0  0  0  0  0  0  0
   43.9416    0.7562    5.4681 C   0  0  0  0  0  0  0  0  0  0  0  0
   42.9175   -0.1601    5.1385 C   0  0  0  0  0  0  0  0  0  0  0  0
   42.1180   -0.7278    6.1874 C   0  0  0  0  0  0  0  0  0  0  0  0
   42.3564   -0.3654    7.5563 C   0  0  0  0  0  0  0  0  0  0  0  0
   43.3840    0.5553    7.8614 C   0  0  0  0  0  0  0  0  0  0  0  0
   44.1656    1.1072    6.8184 C   0  0  0  0  0  0  0  0  0  0  0  0
   45.6578    2.3468    6.4341 H   0  0  0  0  0  0  0  0  0  0  0  0
  1  7  1  0  0  0
  2  8  1  0  0  0
  3  9  1  0  0  0
  4 10  1  0  0  0
  5 11  1  0  0  0
  6 12  1  0  0  0
  7  8  2  0  0  0
  7 12  1  0  0  0
  8  9  1  0  0  0
  9 10  2  0  0  0
 10 11  1  0  0  0
 11 12  2  0  0  0
  6 13  1  0  0  0
M  END
> <minimizedAffinity>
-2.61973

$$$$
1E4H_PBR_A_998


 13 13  0  0  0  0  0  0  0  0999 V2000
   40.9659   -1.5109    4.1277 Br  0  0  0  0  0  0  0  0  0  0  0  0
   43.3731    0.6432    3.3342 Br  0  0  0  0  0  0  0  0  0  0  0  0
   45.2580    1.9614    5.7631 Br  0  0  0  0  0  0  0  0  0  0  0  0
   44.7062    1.0993    8.9478 Br  0  0  0  0  0  0  0  0  0  0  0  0
   42.2834   -1.0682    9.6524 Br  0  0  0  0  0  0  0  0  0  0  0  0
   40.8637   -1.9704    7.1261 O   0  0  0  0  0  0  0  0  0  0  0  0
   42.0567   -0.7548    5.4743 C   0  0  0  0  0  0  0  0  0  0  0  0
   43.0811    0.1603    5.1425 C   0  0  0  0  0  0  0  0  0  0  0  0
   43.8813    0.7296    6.1901 C   0  0  0  0  0  0  0  0  0  0  0  0
   43.6433    0.3699    7.5597 C   0  0  0  0  0  0  0  0  0  0  0  0
   42.6153   -0.5496    7.8670 C   0  0  0  0  0  0  0  0  0  0  0  0
   41.8330   -1.1031    6.8254 C   0  0  0  0  0  0  0  0  0  0  0  0
   40.3400   -2.3427    6.4441 H   0  0  0  0  0  0  0  0  0  0  0  0
  1  7  1  0  0  0
  2  8  1  0  0  0
  3  9  1  0  0  0
  4 10  1  0  0  0
  5 11  1  0  0  0
  6 12  1  0  0  0
  7  8  2  0  0  0
  7 12  1  0  0  0
  8  9  1  0  0  0
  9 10  2  0  0  0
 10 11  1  0  0  0
 11 12  2  0  0  0
  6 13  1  0  0  0
M  END
> <minimizedAffinity>
-2.60619

$$$$
1E4H_PBR_A_998


 13 13  0  0  0  0  0  0  0  0999 V2000
   45.1016    1.3829    8.5891 Br  0  0  0  0  0  0  0  0  0  0  0  0
   42.7204   -0.6975    9.6217 Br  0  0  0  0  0  0  0  0  0  0  0  0
   40.6656   -2.0810    7.3736 Br  0  0  0  0  0  0  0  0  0  0  0  0
   41.0295   -1.3632    4.1267 Br  0  0  0  0  0  0  0  0  0  0  0  0
   43.4423    0.7212    3.1794 Br  0  0  0  0  0  0  0  0  0  0  0  0
   45.0273    1.7083    5.5723 O   0  0  0  0  0  0  0  0  0  0  0  0
   43.9295    0.5752    7.3445 C   0  0  0  0  0  0  0  0  0  0  0  0
   42.9167   -0.3098    7.7779 C   0  0  0  0  0  0  0  0  0  0  0  0
   42.0321   -0.8939    6.8093 C   0  0  0  0  0  0  0  0  0  0  0  0
   42.1780   -0.5826    5.4151 C   0  0  0  0  0  0  0  0  0  0  0  0
   43.2001    0.3027    5.0051 C   0  0  0  0  0  0  0  0  0  0  0  0
   44.0651    0.8724    5.9697 C   0  0  0  0  0  0  0  0  0  0  0  0
   45.6053    2.0909    6.2028 H   0  0  0  0  0  0  0  0  0  0  0  0
  1  7  1  0  0  0
  2  8  1  0  0  0
  3  9  1  0  0  0
  4 10  1  0  0  0
  5 11  1  0  0  0
  6 12  1  0  0  0
  7  8  2  0  0  0
  7 12  1  0  0  0
  8  9  1  0  0  0
  9 10  2  0  0  0
 10 11  1  0  0  0
 11 12  2  0  0  0
  6 13  1  0  0  0
M  END
> <minimizedAffinity>
-2.41397

$$$$
1E4H_PBR_A_998


 13 13  0  0  0  0  0  0  0  0999 V2000
   44.6834   -2.8495    5.3780 Br  0  0  0  0  0  0  0  0  0  0  0  0
   43.2596   -0.4471    3.5710 Br  0  0  0  0  0  0  0  0  0  0  0  0
   41.7687    2.1100    5.1295 Br  0  0  0  0  0  0  0  0  0  0  0  0
   41.7302    2.2239    8.4725 Br  0  0  0  0  0  0  0  0  0  0  0  0
   43.1851   -0.2163   10.2026 Br  0  0  0  0  0  0  0  0  0  0  0  0
   44.3878   -2.2958    8.3476 O   0  0  0  0  0  0  0  0  0  0  0  0
   43.8411   -1.3845    6.2262 C   0  0  0  0  0  0  0  0  0  0  0  0
   43.2353   -0.3610    5.4632 C   0  0  0  0  0  0  0  0  0  0  0  0
   42.5892    0.7297    6.1377 C   0  0  0  0  0  0  0  0  0  0  0  0
   42.5619    0.7793    7.5725 C   0  0  0  0  0  0  0  0  0  0  0  0
   43.1772   -0.2540    8.3144 C   0  0  0  0  0  0  0  0  0  0  0  0
   43.8101   -1.3240    7.6377 C   0  0  0  0  0  0  0  0  0  0  0  0
   44.8095   -3.0087    7.9094 H   0  0  0  0  0  0  0  0  0  0  0  0
  1  7  1  0  0  0
  2  8  1  0  0  0
  3  9  1  0  0  0
  4 10  1  0  0  0
  5 11  1  0  0  0
  6 12  1  0  0  0
  7  8  2  0  0  0
  7 12  1  0  0  0
  8  9  1  0  0  0
  9 10  2  0  0  0
 10 11  1  0  0  0
 11 12  2  0  0  0
  6 13  1  0  0  0
M  END
> <minimizedAffinity>
-1.89012

$$$$
