2GSU_AMP_A_1004


 29 31  0  0  0  0  0  0  0  0999 V2000
   26.8872   43.4741   18.8666 C   0  0  0  0  0  0  0  0  0  0  0  0
   26.4551   42.5236   17.8807 O   0  0  0  0  0  0  0  0  0  0  0  0
   25.7396   44.4531   19.0541 C   0  0  0  0  0  0  0  0  0  0  0  0
   26.2126   45.8089   18.9663 O   0  0  0  0  0  0  0  0  0  0  0  0
   24.7096   44.1325   17.9783 C   0  0  0  0  0  0  0  0  0  0  0  0
   24.5805   45.2235   17.0571 O   0  0  0  0  0  0  0  0  0  0  0  0
   25.1810   42.8415   17.2954 C   0  0  0  0  0  0  0  0  0  0  0  0
   26.6270   45.9514   18.1010 H   0  0  0  0  0  0  0  0  0  0  0  0
   25.4399   45.4013   16.6439 H   0  0  0  0  0  0  0  0  0  0  0  0
   24.2465   41.6787   17.4626 N   0  0  0  0  0  0  0  0  0  0  0  0
   23.2163   41.6188   18.3256 C   0  0  0  0  0  0  0  0  0  0  0  0
   22.5512   40.4438   18.2550 N   0  0  0  0  0  0  0  0  0  0  0  0
   23.1513   39.7024   17.3302 C   0  0  0  0  0  0  0  0  0  0  0  0
   22.9246   38.3510   16.7842 C   0  0  0  0  0  0  0  0  0  0  0  0
   21.9011   37.5935   17.2532 N   0  0  0  0  0  0  0  0  0  0  0  0
   23.7665   37.9206   15.8149 N   0  0  0  0  0  0  0  0  0  0  0  0
   24.7710   38.6946   15.3571 C   0  0  0  0  0  0  0  0  0  0  0  0
   25.0214   39.9375   15.8274 N   0  0  0  0  0  0  0  0  0  0  0  0
   24.2669   40.5051   16.8046 C   0  0  0  0  0  0  0  0  0  0  0  0
   21.3119   37.9449   17.9593 H   0  0  0  0  0  0  0  0  0  0  0  0
   21.7478   36.6924   16.8874 H   0  0  0  0  0  0  0  0  0  0  0  0
   27.2975   42.7551   20.1612 C   0  0  0  0  0  0  0  0  0  0  0  0
   27.5414   43.6763   21.2428 O   0  0  0  0  0  0  0  0  0  0  0  0
   28.9051   44.5332   21.3871 P   0  0  0  0  0  0  0  0  0  0  0  0
   29.3553   44.1973   22.7804 O   0  0  0  0  0  0  0  0  0  0  0  0
   29.8263   44.0499   20.2755 O   0  0  0  0  0  0  0  0  0  0  0  0
   28.4000   45.9336   21.2289 O   0  0  0  0  0  0  0  0  0  0  0  0
   30.6652   44.5352   20.3168 H   0  0  0  0  0  0  0  0  0  0  0  0
   29.1419   46.5547   21.2979 H   0  0  0  0  0  0  0  0  0  0  0  0
 24 25  2  0  0  0
 24 26  1  0  0  0
 24 27  1  0  0  0
 24 23  1  0  0  0
 23 22  1  0  0  0
 22  1  1  0  0  0
  1  2  1  0  0  0
  1  3  1  0  0  0
  2  7  1  0  0  0
  3  4  1  0  0  0
  3  5  1  0  0  0
  5  6  1  0  0  0
  5  7  1  0  0  0
  7 10  1  0  0  0
 10 11  1  0  0  0
 10 19  1  0  0  0
 11 12  2  0  0  0
 12 13  1  0  0  0
 13 14  1  0  0  0
 13 19  2  0  0  0
 14 15  1  0  0  0
 14 16  2  0  0  0
 16 17  1  0  0  0
 17 18  2  0  0  0
 18 19  1  0  0  0
 26 28  1  0  0  0
 27 29  1  0  0  0
  4  8  1  0  0  0
  6  9  1  0  0  0
 15 20  1  0  0  0
 15 21  1  0  0  0
M  END
> <minimizedAffinity>
-8.82280

$$$$
2GSU_AMP_A_1004


 29 31  0  0  0  0  0  0  0  0999 V2000
   28.8467   44.9324   20.0588 C   0  0  0  0  0  0  0  0  0  0  0  0
   27.9120   44.9664   18.9691 O   0  0  0  0  0  0  0  0  0  0  0  0
   28.2176   44.0686   21.1399 C   0  0  0  0  0  0  0  0  0  0  0  0
   28.2635   44.7384   22.4123 O   0  0  0  0  0  0  0  0  0  0  0  0
   26.7901   43.7785   20.6939 C   0  0  0  0  0  0  0  0  0  0  0  0
   25.8456   44.3794   21.5897 O   0  0  0  0  0  0  0  0  0  0  0  0
   26.6637   44.3161   19.2620 C   0  0  0  0  0  0  0  0  0  0  0  0
   27.7901   45.5828   22.3504 H   0  0  0  0  0  0  0  0  0  0  0  0
   25.9908   45.3381   21.6173 H   0  0  0  0  0  0  0  0  0  0  0  0
   26.3914   43.2615   18.2290 N   0  0  0  0  0  0  0  0  0  0  0  0
   27.0996   43.0667   17.1021 C   0  0  0  0  0  0  0  0  0  0  0  0
   26.6195   42.0429   16.3610 N   0  0  0  0  0  0  0  0  0  0  0  0
   25.5674   41.5468   17.0029 C   0  0  0  0  0  0  0  0  0  0  0  0
   24.6198   40.4483   16.7362 C   0  0  0  0  0  0  0  0  0  0  0  0
   24.7472   39.7016   15.6104 N   0  0  0  0  0  0  0  0  0  0  0  0
   23.6456   40.2292   17.6509 N   0  0  0  0  0  0  0  0  0  0  0  0
   23.5440   40.9777   18.7676 C   0  0  0  0  0  0  0  0  0  0  0  0
   24.3853   41.9967   19.0550 N   0  0  0  0  0  0  0  0  0  0  0  0
   25.4092   42.3416   18.2309 C   0  0  0  0  0  0  0  0  0  0  0  0
   25.4704   39.8947   14.9709 H   0  0  0  0  0  0  0  0  0  0  0  0
   24.1165   38.9667   15.4331 H   0  0  0  0  0  0  0  0  0  0  0  0
   30.2119   44.4159   19.5785 C   0  0  0  0  0  0  0  0  0  0  0  0
   30.9317   43.7273   20.6203 O   0  0  0  0  0  0  0  0  0  0  0  0
   32.0386   44.4442   21.5562 P   0  0  0  0  0  0  0  0  0  0  0  0
   31.2396   44.8315   22.7679 O   0  0  0  0  0  0  0  0  0  0  0  0
   33.1217   43.4028   21.8014 O   0  0  0  0  0  0  0  0  0  0  0  0
   32.4527   45.6016   20.7016 O   0  0  0  0  0  0  0  0  0  0  0  0
   33.8157   43.7838   22.3618 H   0  0  0  0  0  0  0  0  0  0  0  0
   33.1292   46.1199   21.1649 H   0  0  0  0  0  0  0  0  0  0  0  0
 24 25  2  0  0  0
 24 26  1  0  0  0
 24 27  1  0  0  0
 24 23  1  0  0  0
 23 22  1  0  0  0
 22  1  1  0  0  0
  1  2  1  0  0  0
  1  3  1  0  0  0
  2  7  1  0  0  0
  3  4  1  0  0  0
  3  5  1  0  0  0
  5  6  1  0  0  0
  5  7  1  0  0  0
  7 10  1  0  0  0
 10 11  1  0  0  0
 10 19  1  0  0  0
 11 12  2  0  0  0
 12 13  1  0  0  0
 13 14  1  0  0  0
 13 19  2  0  0  0
 14 15  1  0  0  0
 14 16  2  0  0  0
 16 17  1  0  0  0
 17 18  2  0  0  0
 18 19  1  0  0  0
 26 28  1  0  0  0
 27 29  1  0  0  0
  4  8  1  0  0  0
  6  9  1  0  0  0
 15 20  1  0  0  0
 15 21  1  0  0  0
M  END
> <minimizedAffinity>
-8.18894

$$$$
2GSU_AMP_A_1004


 29 31  0  0  0  0  0  0  0  0999 V2000
   27.4192   44.1626   19.5789 C   0  0  0  0  0  0  0  0  0  0  0  0
   27.4149   43.6204   18.2491 O   0  0  0  0  0  0  0  0  0  0  0  0
   25.9828   44.5494   19.8917 C   0  0  0  0  0  0  0  0  0  0  0  0
   25.9211   45.8931   20.4019 O   0  0  0  0  0  0  0  0  0  0  0  0
   25.1939   44.3884   18.5984 C   0  0  0  0  0  0  0  0  0  0  0  0
   24.7085   45.6565   18.1379 O   0  0  0  0  0  0  0  0  0  0  0  0
   26.1407   43.7223   17.5910 C   0  0  0  0  0  0  0  0  0  0  0  0
   26.2901   46.5052   19.7461 H   0  0  0  0  0  0  0  0  0  0  0  0
   25.4573   46.2554   17.9914 H   0  0  0  0  0  0  0  0  0  0  0  0
   25.6993   42.3615   17.1363 N   0  0  0  0  0  0  0  0  0  0  0  0
   26.3755   41.5583   16.2953 C   0  0  0  0  0  0  0  0  0  0  0  0
   25.7313   40.3921   16.0652 N   0  0  0  0  0  0  0  0  0  0  0  0
   24.6007   40.4183   16.7623 C   0  0  0  0  0  0  0  0  0  0  0  0
   23.4776   39.4792   16.9423 C   0  0  0  0  0  0  0  0  0  0  0  0
   23.4849   38.2831   16.3016 N   0  0  0  0  0  0  0  0  0  0  0  0
   22.4692   39.8625   17.7608 N   0  0  0  0  0  0  0  0  0  0  0  0
   22.4877   41.0520   18.3950 C   0  0  0  0  0  0  0  0  0  0  0  0
   23.4918   41.9476   18.2599 N   0  0  0  0  0  0  0  0  0  0  0  0
   24.5703   41.7087   17.4685 C   0  0  0  0  0  0  0  0  0  0  0  0
   24.2383   38.0435   15.7149 H   0  0  0  0  0  0  0  0  0  0  0  0
   22.7367   37.6548   16.4233 H   0  0  0  0  0  0  0  0  0  0  0  0
   28.0106   43.1479   20.5699 C   0  0  0  0  0  0  0  0  0  0  0  0
   28.5171   43.7812   21.7616 O   0  0  0  0  0  0  0  0  0  0  0  0
   30.0634   43.6892   22.2258 P   0  0  0  0  0  0  0  0  0  0  0  0
   30.7369   43.1271   21.0064 O   0  0  0  0  0  0  0  0  0  0  0  0
   30.4769   45.1064   22.5977 O   0  0  0  0  0  0  0  0  0  0  0  0
   29.9777   42.7313   23.3731 O   0  0  0  0  0  0  0  0  0  0  0  0
   31.4032   45.1079   22.8855 H   0  0  0  0  0  0  0  0  0  0  0  0
   30.8628   42.5918   23.7446 H   0  0  0  0  0  0  0  0  0  0  0  0
 24 25  2  0  0  0
 24 26  1  0  0  0
 24 27  1  0  0  0
 24 23  1  0  0  0
 23 22  1  0  0  0
 22  1  1  0  0  0
  1  2  1  0  0  0
  1  3  1  0  0  0
  2  7  1  0  0  0
  3  4  1  0  0  0
  3  5  1  0  0  0
  5  6  1  0  0  0
  5  7  1  0  0  0
  7 10  1  0  0  0
 10 11  1  0  0  0
 10 19  1  0  0  0
 11 12  2  0  0  0
 12 13  1  0  0  0
 13 14  1  0  0  0
 13 19  2  0  0  0
 14 15  1  0  0  0
 14 16  2  0  0  0
 16 17  1  0  0  0
 17 18  2  0  0  0
 18 19  1  0  0  0
 26 28  1  0  0  0
 27 29  1  0  0  0
  4  8  1  0  0  0
  6  9  1  0  0  0
 15 20  1  0  0  0
 15 21  1  0  0  0
M  END
> <minimizedAffinity>
-8.07460

$$$$
2GSU_AMP_A_1004


 29 31  0  0  0  0  0  0  0  0999 V2000
   26.4522   43.9616   20.5180 C   0  0  0  0  0  0  0  0  0  0  0  0
   27.6245   43.9066   21.3458 O   0  0  0  0  0  0  0  0  0  0  0  0
   26.6192   45.1720   19.6137 C   0  0  0  0  0  0  0  0  0  0  0  0
   25.4372   45.9915   19.6429 O   0  0  0  0  0  0  0  0  0  0  0  0
   27.8507   45.9212   20.1069 C   0  0  0  0  0  0  0  0  0  0  0  0
   27.4904   47.2126   20.6148 O   0  0  0  0  0  0  0  0  0  0  0  0
   28.5023   45.0322   21.1748 C   0  0  0  0  0  0  0  0  0  0  0  0
   25.2680   46.2827   20.5526 H   0  0  0  0  0  0  0  0  0  0  0  0
   26.8579   47.1088   21.3429 H   0  0  0  0  0  0  0  0  0  0  0  0
   29.8778   44.5478   20.8187 N   0  0  0  0  0  0  0  0  0  0  0  0
   30.2576   44.0820   19.6152 C   0  0  0  0  0  0  0  0  0  0  0  0
   31.5587   43.7152   19.5908 N   0  0  0  0  0  0  0  0  0  0  0  0
   32.0567   43.9359   20.8025 C   0  0  0  0  0  0  0  0  0  0  0  0
   33.3828   43.7529   21.4221 C   0  0  0  0  0  0  0  0  0  0  0  0
   34.4096   43.2517   20.6900 N   0  0  0  0  0  0  0  0  0  0  0  0
   33.5175   44.1050   22.7226 N   0  0  0  0  0  0  0  0  0  0  0  0
   32.4856   44.6104   23.4280 C   0  0  0  0  0  0  0  0  0  0  0  0
   31.2516   44.7938   22.9064 N   0  0  0  0  0  0  0  0  0  0  0  0
   30.9595   44.4821   21.6165 C   0  0  0  0  0  0  0  0  0  0  0  0
   34.2686   43.0081   19.7466 H   0  0  0  0  0  0  0  0  0  0  0  0
   35.2955   43.1316   21.1024 H   0  0  0  0  0  0  0  0  0  0  0  0
   26.2753   42.6424   19.7502 C   0  0  0  0  0  0  0  0  0  0  0  0
   24.8910   42.3582   19.4662 O   0  0  0  0  0  0  0  0  0  0  0  0
   24.2036   42.6440   18.0306 P   0  0  0  0  0  0  0  0  0  0  0  0
   23.5936   44.0028   18.2260 O   0  0  0  0  0  0  0  0  0  0  0  0
   25.3272   42.5808   17.0052 O   0  0  0  0  0  0  0  0  0  0  0  0
   23.2049   41.5318   17.9472 O   0  0  0  0  0  0  0  0  0  0  0  0
   24.9668   42.7466   16.1201 H   0  0  0  0  0  0  0  0  0  0  0  0
   22.7180   41.5965   17.1108 H   0  0  0  0  0  0  0  0  0  0  0  0
 24 25  2  0  0  0
 24 26  1  0  0  0
 24 27  1  0  0  0
 24 23  1  0  0  0
 23 22  1  0  0  0
 22  1  1  0  0  0
  1  2  1  0  0  0
  1  3  1  0  0  0
  2  7  1  0  0  0
  3  4  1  0  0  0
  3  5  1  0  0  0
  5  6  1  0  0  0
  5  7  1  0  0  0
  7 10  1  0  0  0
 10 11  1  0  0  0
 10 19  1  0  0  0
 11 12  2  0  0  0
 12 13  1  0  0  0
 13 14  1  0  0  0
 13 19  2  0  0  0
 14 15  1  0  0  0
 14 16  2  0  0  0
 16 17  1  0  0  0
 17 18  2  0  0  0
 18 19  1  0  0  0
 26 28  1  0  0  0
 27 29  1  0  0  0
  4  8  1  0  0  0
  6  9  1  0  0  0
 15 20  1  0  0  0
 15 21  1  0  0  0
M  END
> <minimizedAffinity>
-7.70699

$$$$
2GSU_AMP_A_1004


 29 31  0  0  0  0  0  0  0  0999 V2000
   29.5779   46.3255   19.1473 C   0  0  0  0  0  0  0  0  0  0  0  0
   29.0321   45.1180   18.5937 O   0  0  0  0  0  0  0  0  0  0  0  0
   28.4880   47.3797   19.0414 C   0  0  0  0  0  0  0  0  0  0  0  0
   29.0052   48.5834   18.4470 O   0  0  0  0  0  0  0  0  0  0  0  0
   27.3643   46.7671   18.2150 C   0  0  0  0  0  0  0  0  0  0  0  0
   27.2054   47.4681   16.9744 O   0  0  0  0  0  0  0  0  0  0  0  0
   27.7291   45.2904   18.0111 C   0  0  0  0  0  0  0  0  0  0  0  0
   29.3551   48.3837   17.5646 H   0  0  0  0  0  0  0  0  0  0  0  0
   28.0357   47.4324   16.4742 H   0  0  0  0  0  0  0  0  0  0  0  0
   26.7660   44.3249   18.6385 N   0  0  0  0  0  0  0  0  0  0  0  0
   26.3479   44.3537   19.9167 C   0  0  0  0  0  0  0  0  0  0  0  0
   25.4811   43.3552   20.1991 N   0  0  0  0  0  0  0  0  0  0  0  0
   25.3203   42.6428   19.0893 C   0  0  0  0  0  0  0  0  0  0  0  0
   24.5271   41.4510   18.7342 C   0  0  0  0  0  0  0  0  0  0  0  0
   23.7437   40.8552   19.6683 N   0  0  0  0  0  0  0  0  0  0  0  0
   24.6175   40.9983   17.4612 N   0  0  0  0  0  0  0  0  0  0  0  0
   25.3950   41.6122   16.5468 C   0  0  0  0  0  0  0  0  0  0  0  0
   26.1425   42.7044   16.8241 N   0  0  0  0  0  0  0  0  0  0  0  0
   26.1613   43.2717   18.0587 C   0  0  0  0  0  0  0  0  0  0  0  0
   23.7069   41.2169   20.5832 H   0  0  0  0  0  0  0  0  0  0  0  0
   23.2122   40.0611   19.4312 H   0  0  0  0  0  0  0  0  0  0  0  0
   30.0610   46.0854   20.5861 C   0  0  0  0  0  0  0  0  0  0  0  0
   30.4265   44.7101   20.8163 O   0  0  0  0  0  0  0  0  0  0  0  0
   29.8442   43.8312   22.0424 P   0  0  0  0  0  0  0  0  0  0  0  0
   31.0167   43.7609   22.9788 O   0  0  0  0  0  0  0  0  0  0  0  0
   28.6380   44.5941   22.5724 O   0  0  0  0  0  0  0  0  0  0  0  0
   29.5271   42.5361   21.3616 O   0  0  0  0  0  0  0  0  0  0  0  0
   28.2479   44.1068   23.3148 H   0  0  0  0  0  0  0  0  0  0  0  0
   29.1622   41.9118   22.0082 H   0  0  0  0  0  0  0  0  0  0  0  0
 24 25  2  0  0  0
 24 26  1  0  0  0
 24 27  1  0  0  0
 24 23  1  0  0  0
 23 22  1  0  0  0
 22  1  1  0  0  0
  1  2  1  0  0  0
  1  3  1  0  0  0
  2  7  1  0  0  0
  3  4  1  0  0  0
  3  5  1  0  0  0
  5  6  1  0  0  0
  5  7  1  0  0  0
  7 10  1  0  0  0
 10 11  1  0  0  0
 10 19  1  0  0  0
 11 12  2  0  0  0
 12 13  1  0  0  0
 13 14  1  0  0  0
 13 19  2  0  0  0
 14 15  1  0  0  0
 14 16  2  0  0  0
 16 17  1  0  0  0
 17 18  2  0  0  0
 18 19  1  0  0  0
 26 28  1  0  0  0
 27 29  1  0  0  0
  4  8  1  0  0  0
  6  9  1  0  0  0
 15 20  1  0  0  0
 15 21  1  0  0  0
M  END
> <minimizedAffinity>
-7.63514

$$$$
2GSU_AMP_A_1004


 29 31  0  0  0  0  0  0  0  0999 V2000
   24.8591   44.1969   18.6998 C   0  0  0  0  0  0  0  0  0  0  0  0
   25.4431   44.6970   19.9127 O   0  0  0  0  0  0  0  0  0  0  0  0
   25.7554   44.6643   17.5646 C   0  0  0  0  0  0  0  0  0  0  0  0
   24.9749   45.2822   16.5260 O   0  0  0  0  0  0  0  0  0  0  0  0
   26.7676   45.6268   18.1732 C   0  0  0  0  0  0  0  0  0  0  0  0
   26.5849   46.9511   17.6549 O   0  0  0  0  0  0  0  0  0  0  0  0
   26.5717   45.5603   19.6938 C   0  0  0  0  0  0  0  0  0  0  0  0
   24.4892   46.0376   16.8926 H   0  0  0  0  0  0  0  0  0  0  0  0
   25.6853   47.2546   17.8532 H   0  0  0  0  0  0  0  0  0  0  0  0
   27.7598   45.0355   20.4463 N   0  0  0  0  0  0  0  0  0  0  0  0
   27.7843   43.9147   21.1898 C   0  0  0  0  0  0  0  0  0  0  0  0
   28.9938   43.6947   21.7526 N   0  0  0  0  0  0  0  0  0  0  0  0
   29.7917   44.6901   21.3818 C   0  0  0  0  0  0  0  0  0  0  0  0
   31.2011   45.0358   21.6458 C   0  0  0  0  0  0  0  0  0  0  0  0
   31.9600   44.2322   22.4331 N   0  0  0  0  0  0  0  0  0  0  0  0
   31.6842   46.1641   21.0739 N   0  0  0  0  0  0  0  0  0  0  0  0
   30.9145   46.9424   20.2870 C   0  0  0  0  0  0  0  0  0  0  0  0
   29.6175   46.6702   20.0179 N   0  0  0  0  0  0  0  0  0  0  0  0
   28.9895   45.5766   20.5241 C   0  0  0  0  0  0  0  0  0  0  0  0
   31.5691   43.4203   22.8297 H   0  0  0  0  0  0  0  0  0  0  0  0
   32.9015   44.4611   22.6076 H   0  0  0  0  0  0  0  0  0  0  0  0
   24.7037   42.6697   18.7692 C   0  0  0  0  0  0  0  0  0  0  0  0
   23.4054   42.2327   18.3206 O   0  0  0  0  0  0  0  0  0  0  0  0
   22.8982   40.7012   18.4312 P   0  0  0  0  0  0  0  0  0  0  0  0
   23.4073   40.2858   19.7821 O   0  0  0  0  0  0  0  0  0  0  0  0
   21.3824   40.7484   18.2978 O   0  0  0  0  0  0  0  0  0  0  0  0
   23.6167   40.0617   17.2839 O   0  0  0  0  0  0  0  0  0  0  0  0
   21.0243   39.8489   18.3576 H   0  0  0  0  0  0  0  0  0  0  0  0
   23.3887   39.1197   17.2443 H   0  0  0  0  0  0  0  0  0  0  0  0
 24 25  2  0  0  0
 24 26  1  0  0  0
 24 27  1  0  0  0
 24 23  1  0  0  0
 23 22  1  0  0  0
 22  1  1  0  0  0
  1  2  1  0  0  0
  1  3  1  0  0  0
  2  7  1  0  0  0
  3  4  1  0  0  0
  3  5  1  0  0  0
  5  6  1  0  0  0
  5  7  1  0  0  0
  7 10  1  0  0  0
 10 11  1  0  0  0
 10 19  1  0  0  0
 11 12  2  0  0  0
 12 13  1  0  0  0
 13 14  1  0  0  0
 13 19  2  0  0  0
 14 15  1  0  0  0
 14 16  2  0  0  0
 16 17  1  0  0  0
 17 18  2  0  0  0
 18 19  1  0  0  0
 26 28  1  0  0  0
 27 29  1  0  0  0
  4  8  1  0  0  0
  6  9  1  0  0  0
 15 20  1  0  0  0
 15 21  1  0  0  0
M  END
> <minimizedAffinity>
-7.52200

$$$$
2GSU_AMP_A_1004


 29 31  0  0  0  0  0  0  0  0999 V2000
   26.9812   46.7622   18.3114 C   0  0  0  0  0  0  0  0  0  0  0  0
   25.9580   46.0018   17.6501 O   0  0  0  0  0  0  0  0  0  0  0  0
   27.2450   46.0683   19.6379 C   0  0  0  0  0  0  0  0  0  0  0  0
   27.2160   47.0170   20.7190 O   0  0  0  0  0  0  0  0  0  0  0  0
   26.1780   44.9913   19.7890 C   0  0  0  0  0  0  0  0  0  0  0  0
   25.3172   45.2808   20.8984 O   0  0  0  0  0  0  0  0  0  0  0  0
   25.4192   44.9402   18.4561 C   0  0  0  0  0  0  0  0  0  0  0  0
   26.3498   47.4528   20.7435 H   0  0  0  0  0  0  0  0  0  0  0  0
   24.8941   46.1431   20.7629 H   0  0  0  0  0  0  0  0  0  0  0  0
   25.5480   43.6368   17.7226 N   0  0  0  0  0  0  0  0  0  0  0  0
   26.5705   43.2855   16.9222 C   0  0  0  0  0  0  0  0  0  0  0  0
   26.4127   42.0505   16.3950 N   0  0  0  0  0  0  0  0  0  0  0  0
   25.2604   41.5691   16.8483 C   0  0  0  0  0  0  0  0  0  0  0  0
   24.5234   40.3058   16.6570 C   0  0  0  0  0  0  0  0  0  0  0  0
   25.0360   39.3364   15.8577 N   0  0  0  0  0  0  0  0  0  0  0  0
   23.3430   40.1680   17.3060 N   0  0  0  0  0  0  0  0  0  0  0  0
   22.8575   41.1409   18.1032 C   0  0  0  0  0  0  0  0  0  0  0  0
   23.4935   42.3166   18.3077 N   0  0  0  0  0  0  0  0  0  0  0  0
   24.6846   42.6046   17.7207 C   0  0  0  0  0  0  0  0  0  0  0  0
   25.8982   39.4774   15.4039 H   0  0  0  0  0  0  0  0  0  0  0  0
   24.5457   38.4921   15.7316 H   0  0  0  0  0  0  0  0  0  0  0  0
   28.2275   46.8739   17.4194 C   0  0  0  0  0  0  0  0  0  0  0  0
   28.7192   48.2263   17.3365 O   0  0  0  0  0  0  0  0  0  0  0  0
   29.6577   48.8995   18.4684 P   0  0  0  0  0  0  0  0  0  0  0  0
   30.5152   49.8362   17.6661 O   0  0  0  0  0  0  0  0  0  0  0  0
   28.7125   49.5720   19.4544 O   0  0  0  0  0  0  0  0  0  0  0  0
   30.3889   47.7073   19.0026 O   0  0  0  0  0  0  0  0  0  0  0  0
   29.2277   49.9946   20.1593 H   0  0  0  0  0  0  0  0  0  0  0  0
   30.9967   47.9884   19.7043 H   0  0  0  0  0  0  0  0  0  0  0  0
 24 25  2  0  0  0
 24 26  1  0  0  0
 24 27  1  0  0  0
 24 23  1  0  0  0
 23 22  1  0  0  0
 22  1  1  0  0  0
  1  2  1  0  0  0
  1  3  1  0  0  0
  2  7  1  0  0  0
  3  4  1  0  0  0
  3  5  1  0  0  0
  5  6  1  0  0  0
  5  7  1  0  0  0
  7 10  1  0  0  0
 10 11  1  0  0  0
 10 19  1  0  0  0
 11 12  2  0  0  0
 12 13  1  0  0  0
 13 14  1  0  0  0
 13 19  2  0  0  0
 14 15  1  0  0  0
 14 16  2  0  0  0
 16 17  1  0  0  0
 17 18  2  0  0  0
 18 19  1  0  0  0
 26 28  1  0  0  0
 27 29  1  0  0  0
  4  8  1  0  0  0
  6  9  1  0  0  0
 15 20  1  0  0  0
 15 21  1  0  0  0
M  END
> <minimizedAffinity>
-7.42640

$$$$
2GSU_AMP_A_1004


 29 31  0  0  0  0  0  0  0  0999 V2000
   25.2465   40.1131   16.8407 C   0  0  0  0  0  0  0  0  0  0  0  0
   26.0757   41.1001   17.4735 O   0  0  0  0  0  0  0  0  0  0  0  0
   23.8170   40.4192   17.2574 C   0  0  0  0  0  0  0  0  0  0  0  0
   23.1662   39.2309   17.7410 O   0  0  0  0  0  0  0  0  0  0  0  0
   23.8940   41.5065   18.3218 C   0  0  0  0  0  0  0  0  0  0  0  0
   23.4269   41.0150   19.5851 O   0  0  0  0  0  0  0  0  0  0  0  0
   25.3590   41.9607   18.3750 C   0  0  0  0  0  0  0  0  0  0  0  0
   23.6596   38.8771   18.4974 H   0  0  0  0  0  0  0  0  0  0  0  0
   23.9652   40.2546   19.8553 H   0  0  0  0  0  0  0  0  0  0  0  0
   25.5752   43.3931   17.9816 N   0  0  0  0  0  0  0  0  0  0  0  0
   24.6080   44.2766   17.6757 C   0  0  0  0  0  0  0  0  0  0  0  0
   25.1027   45.4939   17.3569 N   0  0  0  0  0  0  0  0  0  0  0  0
   26.4262   45.4211   17.4472 C   0  0  0  0  0  0  0  0  0  0  0  0
   27.5289   46.3774   17.2345 C   0  0  0  0  0  0  0  0  0  0  0  0
   27.2572   47.6525   16.8580 N   0  0  0  0  0  0  0  0  0  0  0  0
   28.7909   45.9282   17.4327 N   0  0  0  0  0  0  0  0  0  0  0  0
   29.0368   44.6594   17.8162 C   0  0  0  0  0  0  0  0  0  0  0  0
   28.0614   43.7454   18.0206 N   0  0  0  0  0  0  0  0  0  0  0  0
   26.7461   44.0444   17.8561 C   0  0  0  0  0  0  0  0  0  0  0  0
   26.3246   47.9382   16.7246 H   0  0  0  0  0  0  0  0  0  0  0  0
   27.9927   48.2918   16.7183 H   0  0  0  0  0  0  0  0  0  0  0  0
   25.4585   40.1303   15.3188 C   0  0  0  0  0  0  0  0  0  0  0  0
   24.5887   39.2053   14.6366 O   0  0  0  0  0  0  0  0  0  0  0  0
   24.7607   37.5996   14.7212 P   0  0  0  0  0  0  0  0  0  0  0  0
   24.5480   37.1734   13.2965 O   0  0  0  0  0  0  0  0  0  0  0  0
   26.1602   37.3537   15.2678 O   0  0  0  0  0  0  0  0  0  0  0  0
   23.6436   37.2245   15.6447 O   0  0  0  0  0  0  0  0  0  0  0  0
   26.3164   36.3991   15.3390 H   0  0  0  0  0  0  0  0  0  0  0  0
   23.6422   36.2635   15.7769 H   0  0  0  0  0  0  0  0  0  0  0  0
 24 25  2  0  0  0
 24 26  1  0  0  0
 24 27  1  0  0  0
 24 23  1  0  0  0
 23 22  1  0  0  0
 22  1  1  0  0  0
  1  2  1  0  0  0
  1  3  1  0  0  0
  2  7  1  0  0  0
  3  4  1  0  0  0
  3  5  1  0  0  0
  5  6  1  0  0  0
  5  7  1  0  0  0
  7 10  1  0  0  0
 10 11  1  0  0  0
 10 19  1  0  0  0
 11 12  2  0  0  0
 12 13  1  0  0  0
 13 14  1  0  0  0
 13 19  2  0  0  0
 14 15  1  0  0  0
 14 16  2  0  0  0
 16 17  1  0  0  0
 17 18  2  0  0  0
 18 19  1  0  0  0
 26 28  1  0  0  0
 27 29  1  0  0  0
  4  8  1  0  0  0
  6  9  1  0  0  0
 15 20  1  0  0  0
 15 21  1  0  0  0
M  END
> <minimizedAffinity>
-7.24681

$$$$
2GSU_AMP_A_1004


 29 31  0  0  0  0  0  0  0  0999 V2000
   26.6937   46.4022   18.7887 C   0  0  0  0  0  0  0  0  0  0  0  0
   25.5071   45.6781   18.4281 O   0  0  0  0  0  0  0  0  0  0  0  0
   27.4463   45.5305   19.7808 C   0  0  0  0  0  0  0  0  0  0  0  0
   27.8134   46.2915   20.9452 O   0  0  0  0  0  0  0  0  0  0  0  0
   26.5289   44.3631   20.1226 C   0  0  0  0  0  0  0  0  0  0  0  0
   26.1448   44.4058   21.5032 O   0  0  0  0  0  0  0  0  0  0  0  0
   25.3252   44.4638   19.1759 C   0  0  0  0  0  0  0  0  0  0  0  0
   27.0144   46.6490   21.3630 H   0  0  0  0  0  0  0  0  0  0  0  0
   25.6904   45.2429   21.6867 H   0  0  0  0  0  0  0  0  0  0  0  0
   25.1859   43.3066   18.2300 N   0  0  0  0  0  0  0  0  0  0  0  0
   24.1610   42.4358   18.2022 C   0  0  0  0  0  0  0  0  0  0  0  0
   24.3088   41.4949   17.2426 N   0  0  0  0  0  0  0  0  0  0  0  0
   25.4569   41.7389   16.6201 C   0  0  0  0  0  0  0  0  0  0  0  0
   26.1836   41.0990   15.5075 C   0  0  0  0  0  0  0  0  0  0  0  0
   25.6634   40.0030   14.8995 N   0  0  0  0  0  0  0  0  0  0  0  0
   27.3625   41.6503   15.1336 N   0  0  0  0  0  0  0  0  0  0  0  0
   27.8556   42.7456   15.7457 C   0  0  0  0  0  0  0  0  0  0  0  0
   27.2293   43.3658   16.7713 N   0  0  0  0  0  0  0  0  0  0  0  0
   26.0408   42.9269   17.2626 C   0  0  0  0  0  0  0  0  0  0  0  0
   24.8026   39.6339   15.2028 H   0  0  0  0  0  0  0  0  0  0  0  0
   26.1468   39.5769   14.1552 H   0  0  0  0  0  0  0  0  0  0  0  0
   27.5114   46.7504   17.5350 C   0  0  0  0  0  0  0  0  0  0  0  0
   27.8142   48.1573   17.4550 O   0  0  0  0  0  0  0  0  0  0  0  0
   29.1327   48.8196   18.1169 P   0  0  0  0  0  0  0  0  0  0  0  0
   29.6527   49.6890   17.0077 O   0  0  0  0  0  0  0  0  0  0  0  0
   28.6534   49.5667   19.3538 O   0  0  0  0  0  0  0  0  0  0  0  0
   29.9725   47.6109   18.3911 O   0  0  0  0  0  0  0  0  0  0  0  0
   29.4106   49.9858   19.7920 H   0  0  0  0  0  0  0  0  0  0  0  0
   30.8095   47.8843   18.7980 H   0  0  0  0  0  0  0  0  0  0  0  0
 24 25  2  0  0  0
 24 26  1  0  0  0
 24 27  1  0  0  0
 24 23  1  0  0  0
 23 22  1  0  0  0
 22  1  1  0  0  0
  1  2  1  0  0  0
  1  3  1  0  0  0
  2  7  1  0  0  0
  3  4  1  0  0  0
  3  5  1  0  0  0
  5  6  1  0  0  0
  5  7  1  0  0  0
  7 10  1  0  0  0
 10 11  1  0  0  0
 10 19  1  0  0  0
 11 12  2  0  0  0
 12 13  1  0  0  0
 13 14  1  0  0  0
 13 19  2  0  0  0
 14 15  1  0  0  0
 14 16  2  0  0  0
 16 17  1  0  0  0
 17 18  2  0  0  0
 18 19  1  0  0  0
 26 28  1  0  0  0
 27 29  1  0  0  0
  4  8  1  0  0  0
  6  9  1  0  0  0
 15 20  1  0  0  0
 15 21  1  0  0  0
M  END
> <minimizedAffinity>
-6.96593

$$$$
2GSU_AMP_A_1004


 29 31  0  0  0  0  0  0  0  0999 V2000
   25.0440   39.5129   16.1374 C   0  0  0  0  0  0  0  0  0  0  0  0
   26.1556   40.1965   16.7371 O   0  0  0  0  0  0  0  0  0  0  0  0
   23.7876   40.1279   16.7323 C   0  0  0  0  0  0  0  0  0  0  0  0
   22.8980   39.1013   17.2059 O   0  0  0  0  0  0  0  0  0  0  0  0
   24.2416   41.0567   17.8514 C   0  0  0  0  0  0  0  0  0  0  0  0
   23.7813   40.5824   19.1237 O   0  0  0  0  0  0  0  0  0  0  0  0
   25.7727   41.1214   17.7690 C   0  0  0  0  0  0  0  0  0  0  0  0
   23.3501   38.5658   17.8766 H   0  0  0  0  0  0  0  0  0  0  0  0
   24.1263   39.6895   19.2800 H   0  0  0  0  0  0  0  0  0  0  0  0
   26.3162   42.4839   17.4502 N   0  0  0  0  0  0  0  0  0  0  0  0
   27.2160   42.7640   16.4903 C   0  0  0  0  0  0  0  0  0  0  0  0
   27.5204   44.0803   16.4362 N   0  0  0  0  0  0  0  0  0  0  0  0
   26.8137   44.6908   17.3811 C   0  0  0  0  0  0  0  0  0  0  0  0
   26.6893   46.0885   17.8356 C   0  0  0  0  0  0  0  0  0  0  0  0
   27.4108   47.0651   17.2296 N   0  0  0  0  0  0  0  0  0  0  0  0
   25.8380   46.3383   18.8586 N   0  0  0  0  0  0  0  0  0  0  0  0
   25.1236   45.3534   19.4394 C   0  0  0  0  0  0  0  0  0  0  0  0
   25.2052   44.0577   19.0613 N   0  0  0  0  0  0  0  0  0  0  0  0
   26.0202   43.6499   18.0533 C   0  0  0  0  0  0  0  0  0  0  0  0
   28.0188   46.8401   16.4887 H   0  0  0  0  0  0  0  0  0  0  0  0
   27.3263   47.9985   17.5309 H   0  0  0  0  0  0  0  0  0  0  0  0
   25.1124   39.6184   14.6059 C   0  0  0  0  0  0  0  0  0  0  0  0
   24.4985   38.4890   13.9537 O   0  0  0  0  0  0  0  0  0  0  0  0
   24.7656   38.1065   12.4053 P   0  0  0  0  0  0  0  0  0  0  0  0
   25.3083   39.3888   11.8416 O   0  0  0  0  0  0  0  0  0  0  0  0
   25.7454   36.9414   12.4219 O   0  0  0  0  0  0  0  0  0  0  0  0
   23.3850   37.7681   11.9354 O   0  0  0  0  0  0  0  0  0  0  0  0
   25.9411   36.6705   11.5112 H   0  0  0  0  0  0  0  0  0  0  0  0
   23.4146   37.5167   10.9991 H   0  0  0  0  0  0  0  0  0  0  0  0
 24 25  2  0  0  0
 24 26  1  0  0  0
 24 27  1  0  0  0
 24 23  1  0  0  0
 23 22  1  0  0  0
 22  1  1  0  0  0
  1  2  1  0  0  0
  1  3  1  0  0  0
  2  7  1  0  0  0
  3  4  1  0  0  0
  3  5  1  0  0  0
  5  6  1  0  0  0
  5  7  1  0  0  0
  7 10  1  0  0  0
 10 11  1  0  0  0
 10 19  1  0  0  0
 11 12  2  0  0  0
 12 13  1  0  0  0
 13 14  1  0  0  0
 13 19  2  0  0  0
 14 15  1  0  0  0
 14 16  2  0  0  0
 16 17  1  0  0  0
 17 18  2  0  0  0
 18 19  1  0  0  0
 26 28  1  0  0  0
 27 29  1  0  0  0
  4  8  1  0  0  0
  6  9  1  0  0  0
 15 20  1  0  0  0
 15 21  1  0  0  0
M  END
> <minimizedAffinity>
-6.90433

$$$$
