6CSQ_F9P_A_804


 12 12  0  0  0  0  0  0  0  0999 V2000
  -27.5182   -3.5644    6.9518 C   0  0  0  0  0  0  0  0  0  0  0  0
  -26.9836   -4.8453    6.5536 N   0  0  0  0  0  0  0  0  0  0  0  0
  -27.2394   -2.5985    6.2698 O   0  0  0  0  0  0  0  0  0  0  0  0
  -26.2293   -4.7750    5.4306 O   0  0  0  0  0  0  0  0  0  0  0  0
  -27.1497   -5.6814    7.0462 H   0  0  0  0  0  0  0  0  0  0  0  0
  -26.2020   -3.8576    5.1164 H   0  0  0  0  0  0  0  0  0  0  0  0
  -29.7868   -3.0416    7.8592 C   0  0  0  0  0  0  0  0  0  0  0  0
  -28.3861   -3.5482    8.2004 C   0  0  0  0  0  0  0  0  0  0  0  0
  -28.4470   -4.9044    8.9041 C   0  0  0  0  0  0  0  0  0  0  0  0
  -29.3867   -4.9239   10.0986 C   0  0  0  0  0  0  0  0  0  0  0  0
  -30.7777   -4.4618    9.6794 C   0  0  0  0  0  0  0  0  0  0  0  0
  -30.7157   -3.0699    9.0762 C   0  0  0  0  0  0  0  0  0  0  0  0
  3  1  2  0  0  0
  4  2  1  0  0  0
  1  2  1  0  0  0
  1  8  1  0  0  0
  8  9  1  0  0  0
  8  7  1  0  0  0
  9 10  1  0  0  0
  7 12  1  0  0  0
 10 11  1  0  0  0
 12 11  1  0  0  0
  2  5  1  0  0  0
  4  6  1  0  0  0
M  END
> <minimizedAffinity>
-6.99629

$$$$
6CSQ_F9P_A_804


 12 12  0  0  0  0  0  0  0  0999 V2000
  -27.1063   -3.7104    6.9025 C   0  0  0  0  0  0  0  0  0  0  0  0
  -26.4389   -4.6989    6.0886 N   0  0  0  0  0  0  0  0  0  0  0  0
  -26.6314   -2.5928    6.9378 O   0  0  0  0  0  0  0  0  0  0  0  0
  -25.3460   -4.2090    5.4556 O   0  0  0  0  0  0  0  0  0  0  0  0
  -26.7457   -5.6305    6.0028 H   0  0  0  0  0  0  0  0  0  0  0  0
  -25.2327   -3.2731    5.6838 H   0  0  0  0  0  0  0  0  0  0  0  0
  -27.9628   -4.7838    8.9900 C   0  0  0  0  0  0  0  0  0  0  0  0
  -28.3510   -4.1694    7.6458 C   0  0  0  0  0  0  0  0  0  0  0  0
  -29.3842   -3.0567    7.8265 C   0  0  0  0  0  0  0  0  0  0  0  0
  -30.5896   -3.4792    8.6503 C   0  0  0  0  0  0  0  0  0  0  0  0
  -30.1372   -4.0300    9.9979 C   0  0  0  0  0  0  0  0  0  0  0  0
  -29.1917   -5.2017    9.8023 C   0  0  0  0  0  0  0  0  0  0  0  0
  3  1  2  0  0  0
  4  2  1  0  0  0
  1  2  1  0  0  0
  1  8  1  0  0  0
  8  9  1  0  0  0
  8  7  1  0  0  0
  9 10  1  0  0  0
  7 12  1  0  0  0
 10 11  1  0  0  0
 12 11  1  0  0  0
  2  5  1  0  0  0
  4  6  1  0  0  0
M  END
> <minimizedAffinity>
-6.80856

$$$$
6CSQ_F9P_A_804


 12 12  0  0  0  0  0  0  0  0999 V2000
  -28.5271   -3.8953    8.2609 C   0  0  0  0  0  0  0  0  0  0  0  0
  -28.5999   -3.0293    7.1077 N   0  0  0  0  0  0  0  0  0  0  0  0
  -27.4807   -4.4774    8.4658 O   0  0  0  0  0  0  0  0  0  0  0  0
  -27.4419   -2.9886    6.4059 O   0  0  0  0  0  0  0  0  0  0  0  0
  -29.4059   -2.5221    6.8579 H   0  0  0  0  0  0  0  0  0  0  0  0
  -26.7857   -3.5625    6.8312 H   0  0  0  0  0  0  0  0  0  0  0  0
  -29.6912   -5.2132   10.0361 C   0  0  0  0  0  0  0  0  0  0  0  0
  -29.7810   -3.9972    9.1151 C   0  0  0  0  0  0  0  0  0  0  0  0
  -30.0677   -2.7233    9.9110 C   0  0  0  0  0  0  0  0  0  0  0  0
  -31.2643   -2.8475   10.8399 C   0  0  0  0  0  0  0  0  0  0  0  0
  -31.0865   -4.0440   11.7676 C   0  0  0  0  0  0  0  0  0  0  0  0
  -30.9062   -5.3183   10.9621 C   0  0  0  0  0  0  0  0  0  0  0  0
  3  1  2  0  0  0
  4  2  1  0  0  0
  1  2  1  0  0  0
  1  8  1  0  0  0
  8  9  1  0  0  0
  8  7  1  0  0  0
  9 10  1  0  0  0
  7 12  1  0  0  0
 10 11  1  0  0  0
 12 11  1  0  0  0
  2  5  1  0  0  0
  4  6  1  0  0  0
M  END
> <minimizedAffinity>
-6.16971

$$$$
6CSQ_F9P_A_804


 12 12  0  0  0  0  0  0  0  0999 V2000
  -28.2830   -3.8334    8.2112 C   0  0  0  0  0  0  0  0  0  0  0  0
  -28.3992   -2.8636    7.1477 N   0  0  0  0  0  0  0  0  0  0  0  0
  -27.3390   -4.5974    8.1792 O   0  0  0  0  0  0  0  0  0  0  0  0
  -27.3936   -2.9500    6.2441 O   0  0  0  0  0  0  0  0  0  0  0  0
  -29.1318   -2.2088    7.0858 H   0  0  0  0  0  0  0  0  0  0  0  0
  -26.7873   -3.6618    6.5022 H   0  0  0  0  0  0  0  0  0  0  0  0
  -30.7024   -3.3990    8.6592 C   0  0  0  0  0  0  0  0  0  0  0  0
  -29.3659   -3.8053    9.2784 C   0  0  0  0  0  0  0  0  0  0  0  0
  -29.4900   -5.1259   10.0394 C   0  0  0  0  0  0  0  0  0  0  0  0
  -30.6317   -5.1403   11.0426 C   0  0  0  0  0  0  0  0  0  0  0  0
  -31.9423   -4.7818   10.3512 C   0  0  0  0  0  0  0  0  0  0  0  0
  -31.8373   -3.4205    9.6871 C   0  0  0  0  0  0  0  0  0  0  0  0
  3  1  2  0  0  0
  4  2  1  0  0  0
  1  2  1  0  0  0
  1  8  1  0  0  0
  8  9  1  0  0  0
  8  7  1  0  0  0
  9 10  1  0  0  0
  7 12  1  0  0  0
 10 11  1  0  0  0
 12 11  1  0  0  0
  2  5  1  0  0  0
  4  6  1  0  0  0
M  END
> <minimizedAffinity>
-5.81499

$$$$
6CSQ_F9P_A_804


 12 12  0  0  0  0  0  0  0  0999 V2000
  -31.4559   -2.0007   10.2402 C   0  0  0  0  0  0  0  0  0  0  0  0
  -31.2069   -0.6507   10.6878 N   0  0  0  0  0  0  0  0  0  0  0  0
  -32.5818   -2.2778    9.8777 O   0  0  0  0  0  0  0  0  0  0  0  0
  -32.3078    0.1363   10.6251 O   0  0  0  0  0  0  0  0  0  0  0  0
  -30.3299   -0.3354   11.0051 H   0  0  0  0  0  0  0  0  0  0  0  0
  -33.0552   -0.3798   10.2846 H   0  0  0  0  0  0  0  0  0  0  0  0
  -30.7501   -4.3740   10.5759 C   0  0  0  0  0  0  0  0  0  0  0  0
  -30.2726   -2.9555   10.2681 C   0  0  0  0  0  0  0  0  0  0  0  0
  -29.4447   -2.9196    8.9829 C   0  0  0  0  0  0  0  0  0  0  0  0
  -28.3163   -3.9376    8.9623 C   0  0  0  0  0  0  0  0  0  0  0  0
  -28.8663   -5.3359    9.2201 C   0  0  0  0  0  0  0  0  0  0  0  0
  -29.5977   -5.3820   10.5498 C   0  0  0  0  0  0  0  0  0  0  0  0
  3  1  2  0  0  0
  4  2  1  0  0  0
  1  2  1  0  0  0
  1  8  1  0  0  0
  8  9  1  0  0  0
  8  7  1  0  0  0
  9 10  1  0  0  0
  7 12  1  0  0  0
 10 11  1  0  0  0
 12 11  1  0  0  0
  2  5  1  0  0  0
  4  6  1  0  0  0
M  END
> <minimizedAffinity>
-5.52296

$$$$
6CSQ_F9P_A_804


 12 12  0  0  0  0  0  0  0  0999 V2000
  -31.3706   -2.9028   11.5055 C   0  0  0  0  0  0  0  0  0  0  0  0
  -31.6995   -1.5230   11.2351 N   0  0  0  0  0  0  0  0  0  0  0  0
  -31.6387   -3.3429   12.6056 O   0  0  0  0  0  0  0  0  0  0  0  0
  -32.2885   -0.9061   12.2875 O   0  0  0  0  0  0  0  0  0  0  0  0
  -31.5153   -1.0778   10.3766 H   0  0  0  0  0  0  0  0  0  0  0  0
  -32.3707   -1.5316   13.0243 H   0  0  0  0  0  0  0  0  0  0  0  0
  -29.7821   -2.7622    9.5819 C   0  0  0  0  0  0  0  0  0  0  0  0
  -30.7119   -3.6789   10.3758 C   0  0  0  0  0  0  0  0  0  0  0  0
  -29.9734   -4.9276   10.8592 C   0  0  0  0  0  0  0  0  0  0  0  0
  -29.2322   -5.6582    9.7514 C   0  0  0  0  0  0  0  0  0  0  0  0
  -28.2827   -4.7031    9.0369 C   0  0  0  0  0  0  0  0  0  0  0  0
  -29.0464   -3.5186    8.4722 C   0  0  0  0  0  0  0  0  0  0  0  0
  3  1  2  0  0  0
  4  2  1  0  0  0
  1  2  1  0  0  0
  1  8  1  0  0  0
  8  9  1  0  0  0
  8  7  1  0  0  0
  9 10  1  0  0  0
  7 12  1  0  0  0
 10 11  1  0  0  0
 12 11  1  0  0  0
  2  5  1  0  0  0
  4  6  1  0  0  0
M  END
> <minimizedAffinity>
-5.47352

$$$$
6CSQ_F9P_A_804


 12 12  0  0  0  0  0  0  0  0999 V2000
  -31.6876   -5.4319   11.0661 C   0  0  0  0  0  0  0  0  0  0  0  0
  -31.1593   -5.2442   12.3967 N   0  0  0  0  0  0  0  0  0  0  0  0
  -32.7869   -5.9381   10.9603 O   0  0  0  0  0  0  0  0  0  0  0  0
  -32.0063   -5.6696   13.3645 O   0  0  0  0  0  0  0  0  0  0  0  0
  -30.2767   -4.8488   12.5812 H   0  0  0  0  0  0  0  0  0  0  0  0
  -32.8130   -6.0214   12.9563 H   0  0  0  0  0  0  0  0  0  0  0  0
  -30.9173   -3.4608    9.7376 C   0  0  0  0  0  0  0  0  0  0  0  0
  -30.8068   -4.9747    9.9139 C   0  0  0  0  0  0  0  0  0  0  0  0
  -29.3480   -5.4062   10.0685 C   0  0  0  0  0  0  0  0  0  0  0  0
  -28.4407   -4.8740    8.9714 C   0  0  0  0  0  0  0  0  0  0  0  0
  -28.5562   -3.3563    8.8852 C   0  0  0  0  0  0  0  0  0  0  0  0
  -29.9955   -2.9470    8.6281 C   0  0  0  0  0  0  0  0  0  0  0  0
  3  1  2  0  0  0
  4  2  1  0  0  0
  1  2  1  0  0  0
  1  8  1  0  0  0
  8  9  1  0  0  0
  8  7  1  0  0  0
  9 10  1  0  0  0
  7 12  1  0  0  0
 10 11  1  0  0  0
 12 11  1  0  0  0
  2  5  1  0  0  0
  4  6  1  0  0  0
M  END
> <minimizedAffinity>
-5.41336

$$$$
6CSQ_F9P_A_804


 12 12  0  0  0  0  0  0  0  0999 V2000
  -31.6078   -4.9206   11.9369 C   0  0  0  0  0  0  0  0  0  0  0  0
  -32.2460   -3.9116   12.7491 N   0  0  0  0  0  0  0  0  0  0  0  0
  -32.0895   -6.0358   11.9384 O   0  0  0  0  0  0  0  0  0  0  0  0
  -33.3334   -4.3774   13.4092 O   0  0  0  0  0  0  0  0  0  0  0  0
  -31.9249   -2.9834   12.8160 H   0  0  0  0  0  0  0  0  0  0  0  0
  -33.4639   -5.3147   13.1964 H   0  0  0  0  0  0  0  0  0  0  0  0
  -29.9273   -5.6092   10.2207 C   0  0  0  0  0  0  0  0  0  0  0  0
  -30.3805   -4.4853   11.1515 C   0  0  0  0  0  0  0  0  0  0  0  0
  -30.5957   -3.1833   10.3790 C   0  0  0  0  0  0  0  0  0  0  0  0
  -29.4083   -2.7894    9.5158 C   0  0  0  0  0  0  0  0  0  0  0  0
  -29.0430   -3.9309    8.5736 C   0  0  0  0  0  0  0  0  0  0  0  0
  -28.7310   -5.1907    9.3614 C   0  0  0  0  0  0  0  0  0  0  0  0
  3  1  2  0  0  0
  4  2  1  0  0  0
  1  2  1  0  0  0
  1  8  1  0  0  0
  8  9  1  0  0  0
  8  7  1  0  0  0
  9 10  1  0  0  0
  7 12  1  0  0  0
 10 11  1  0  0  0
 12 11  1  0  0  0
  2  5  1  0  0  0
  4  6  1  0  0  0
M  END
> <minimizedAffinity>
-5.15273

$$$$
6CSQ_F9P_A_804


 12 12  0  0  0  0  0  0  0  0999 V2000
  -29.3138   -4.2511    9.3744 C   0  0  0  0  0  0  0  0  0  0  0  0
  -28.7384   -2.9384    9.1983 N   0  0  0  0  0  0  0  0  0  0  0  0
  -28.6664   -5.2075    8.9978 O   0  0  0  0  0  0  0  0  0  0  0  0
  -27.5115   -2.9739    8.6251 O   0  0  0  0  0  0  0  0  0  0  0  0
  -29.1900   -2.1057    9.4665 H   0  0  0  0  0  0  0  0  0  0  0  0
  -27.2648   -3.8948    8.4461 H   0  0  0  0  0  0  0  0  0  0  0  0
  -30.7606   -3.3343   11.1937 C   0  0  0  0  0  0  0  0  0  0  0  0
  -30.6897   -4.3095   10.0194 C   0  0  0  0  0  0  0  0  0  0  0  0
  -31.8263   -4.0606    9.0272 C   0  0  0  0  0  0  0  0  0  0  0  0
  -33.1993   -4.0225    9.6782 C   0  0  0  0  0  0  0  0  0  0  0  0
  -33.2187   -2.9927   10.8022 C   0  0  0  0  0  0  0  0  0  0  0  0
  -32.1515   -3.3124   11.8337 C   0  0  0  0  0  0  0  0  0  0  0  0
  3  1  2  0  0  0
  4  2  1  0  0  0
  1  2  1  0  0  0
  1  8  1  0  0  0
  8  9  1  0  0  0
  8  7  1  0  0  0
  9 10  1  0  0  0
  7 12  1  0  0  0
 10 11  1  0  0  0
 12 11  1  0  0  0
  2  5  1  0  0  0
  4  6  1  0  0  0
M  END
> <minimizedAffinity>
-4.81694

$$$$
6CSQ_F9P_A_804


 12 12  0  0  0  0  0  0  0  0999 V2000
  -31.9458   -0.9916   10.9139 C   0  0  0  0  0  0  0  0  0  0  0  0
  -33.1088   -0.4116   10.2844 N   0  0  0  0  0  0  0  0  0  0  0  0
  -31.2515   -0.2658   11.5971 O   0  0  0  0  0  0  0  0  0  0  0  0
  -33.2605    0.9041   10.5693 O   0  0  0  0  0  0  0  0  0  0  0  0
  -33.7261   -0.9186    9.7091 H   0  0  0  0  0  0  0  0  0  0  0  0
  -32.5406    1.1941   11.1511 H   0  0  0  0  0  0  0  0  0  0  0  0
  -30.5131   -2.6468    9.7094 C   0  0  0  0  0  0  0  0  0  0  0  0
  -31.6993   -2.4699   10.6563 C   0  0  0  0  0  0  0  0  0  0  0  0
  -31.5041   -3.2764   11.9407 C   0  0  0  0  0  0  0  0  0  0  0  0
  -31.1630   -4.7365   11.6916 C   0  0  0  0  0  0  0  0  0  0  0  0
  -29.9401   -4.8427   10.7874 C   0  0  0  0  0  0  0  0  0  0  0  0
  -30.1876   -4.1243    9.4729 C   0  0  0  0  0  0  0  0  0  0  0  0
  3  1  2  0  0  0
  4  2  1  0  0  0
  1  2  1  0  0  0
  1  8  1  0  0  0
  8  9  1  0  0  0
  8  7  1  0  0  0
  9 10  1  0  0  0
  7 12  1  0  0  0
 10 11  1  0  0  0
 12 11  1  0  0  0
  2  5  1  0  0  0
  4  6  1  0  0  0
M  END
> <minimizedAffinity>
-4.78652

$$$$
