1MSN_JE2_B_1001


 45 48  0  0  0  0  0  0  0  0999 V2000
   14.6855   23.7504   18.2415 C   0  0  0  0  0  0  0  0  0  0  0  0
   13.6653   24.7187   18.1825 O   0  0  0  0  0  0  0  0  0  0  0  0
   13.7633   25.2427   17.3721 H   0  0  0  0  0  0  0  0  0  0  0  0
   16.0618   24.4668   18.2694 C   0  0  0  0  0  0  0  0  0  0  0  0
   16.1069   25.6726   18.0367 O   0  0  0  0  0  0  0  0  0  0  0  0
   17.1713   23.7097   18.5499 N   0  0  0  0  0  0  0  0  0  0  0  0
   18.4744   24.4211   18.5983 C   0  0  0  0  0  0  0  0  0  0  0  0
   19.3069   23.8885   19.8173 C   0  0  0  0  0  0  0  0  0  0  0  0
   17.0924   22.7199   19.6756 C   0  0  0  0  0  0  0  0  0  0  0  0
   18.9724   24.6316   21.1338 C   0  0  0  0  0  0  0  0  0  0  0  0
   20.8320   23.9158   19.5875 C   0  0  0  0  0  0  0  0  0  0  0  0
   18.7739   22.1893   19.9450 S   0  0  0  0  0  0  0  0  0  0  0  0
   19.0997   24.1641   17.2056 C   0  0  0  0  0  0  0  0  0  0  0  0
   18.9328   23.0856   16.6328 O   0  0  0  0  0  0  0  0  0  0  0  0
   19.8124   25.2008   16.7254 N   0  0  0  0  0  0  0  0  0  0  0  0
   19.8896   26.0254   17.2576 H   0  0  0  0  0  0  0  0  0  0  0  0
   20.4696   25.1179   15.4302 C   0  0  0  0  0  0  0  0  0  0  0  0
   20.8783   26.4772   14.9469 C   0  0  0  0  0  0  0  0  0  0  0  0
   20.0075   27.3037   14.1608 C   0  0  0  0  0  0  0  0  0  0  0  0
   20.4664   28.5821   13.7368 C   0  0  0  0  0  0  0  0  0  0  0  0
   21.7459   29.0484   14.1043 C   0  0  0  0  0  0  0  0  0  0  0  0
   22.5987   28.2377   14.8806 C   0  0  0  0  0  0  0  0  0  0  0  0
   22.1609   26.9646   15.3080 C   0  0  0  0  0  0  0  0  0  0  0  0
   18.6263   26.8546   13.7417 C   0  0  0  0  0  0  0  0  0  0  0  0
   14.5614   22.8124   17.0242 C   0  0  0  0  0  0  0  0  0  0  0  0
   13.9626   20.5068   17.7599 C   0  0  0  0  0  0  0  0  0  0  0  0
   15.1442   20.1524   17.7401 O   0  0  0  0  0  0  0  0  0  0  0  0
   13.5976   21.7828   17.4356 N   0  0  0  0  0  0  0  0  0  0  0  0
   12.6441   22.0236   17.4797 H   0  0  0  0  0  0  0  0  0  0  0  0
   10.6258   17.9166   18.7420 C   0  0  0  0  0  0  0  0  0  0  0  0
   10.5792   18.7403   17.6011 C   0  0  0  0  0  0  0  0  0  0  0  0
   11.6738   19.5829   17.2988 C   0  0  0  0  0  0  0  0  0  0  0  0
   12.8380   19.6013   18.1262 C   0  0  0  0  0  0  0  0  0  0  0  0
   12.8783   18.7589   19.3013 C   0  0  0  0  0  0  0  0  0  0  0  0
   11.7632   17.9169   19.5743 C   0  0  0  0  0  0  0  0  0  0  0  0
   14.0733   18.7103   20.2466 C   0  0  0  0  0  0  0  0  0  0  0  0
   11.7830   17.1041   20.6841 O   0  0  0  0  0  0  0  0  0  0  0  0
   11.0527   16.5473   20.8701 H   0  0  0  0  0  0  0  0  0  0  0  0
   14.0695   23.4525   15.6935 C   0  0  0  0  0  0  0  0  0  0  0  0
   13.7814   22.3964   14.6501 C   0  0  0  0  0  0  0  0  0  0  0  0
   13.2550   20.3934   12.7009 C   0  0  0  0  0  0  0  0  0  0  0  0
   14.7964   21.9819   13.7537 C   0  0  0  0  0  0  0  0  0  0  0  0
   12.4956   21.7955   14.5573 C   0  0  0  0  0  0  0  0  0  0  0  0
   14.5367   20.9837   12.7807 C   0  0  0  0  0  0  0  0  0  0  0  0
   12.2335   20.7989   13.5904 C   0  0  0  0  0  0  0  0  0  0  0  0
 35 37  1  0  0  0
 35 30  2  0  0  0
 35 34  1  0  0  0
 30 31  1  0  0  0
 31 32  2  0  0  0
 32 33  1  0  0  0
 33 34  2  0  0  0
 33 26  1  0  0  0
 34 36  1  0  0  0
 26 27  2  0  0  0
 26 28  1  0  0  0
 28 25  1  0  0  0
 25 39  1  0  0  0
 25  1  1  0  0  0
 39 40  1  0  0  0
 40 42  2  0  0  0
 40 43  1  0  0  0
 42 44  1  0  0  0
 44 41  2  0  0  0
 41 45  1  0  0  0
 45 43  2  0  0  0
  1  2  1  0  0  0
  1  4  1  0  0  0
  4  5  2  0  0  0
  4  6  1  0  0  0
  6  9  1  0  0  0
  6  7  1  0  0  0
  9 12  1  0  0  0
 12  8  1  0  0  0
  8 10  1  0  0  0
  8 11  1  0  0  0
  8  7  1  0  0  0
  7 13  1  0  0  0
 13 14  2  0  0  0
 13 15  1  0  0  0
 15 17  1  0  0  0
 17 18  1  0  0  0
 18 19  2  0  0  0
 18 23  1  0  0  0
 19 20  1  0  0  0
 19 24  1  0  0  0
 20 21  2  0  0  0
 21 22  1  0  0  0
 22 23  2  0  0  0
 37 38  1  0  0  0
 28 29  1  0  0  0
  2  3  1  0  0  0
 15 16  1  0  0  0
M  END
> <minimizedAffinity>
-12.58808

$$$$
1MSN_JE2_B_1001


 45 48  0  0  0  0  0  0  0  0999 V2000
   14.4893   23.6342   18.2380 C   0  0  0  0  0  0  0  0  0  0  0  0
   13.4695   24.5895   18.4097 O   0  0  0  0  0  0  0  0  0  0  0  0
   13.5006   25.2300   17.6819 H   0  0  0  0  0  0  0  0  0  0  0  0
   15.8645   24.3529   18.2593 C   0  0  0  0  0  0  0  0  0  0  0  0
   15.9056   25.5601   18.0331 O   0  0  0  0  0  0  0  0  0  0  0  0
   16.9775   23.5963   18.5268 N   0  0  0  0  0  0  0  0  0  0  0  0
   18.2796   24.3097   18.5691 C   0  0  0  0  0  0  0  0  0  0  0  0
   19.1226   23.7717   19.7785 C   0  0  0  0  0  0  0  0  0  0  0  0
   16.9091   22.5999   19.6474 C   0  0  0  0  0  0  0  0  0  0  0  0
   18.7971   24.5067   21.1018 C   0  0  0  0  0  0  0  0  0  0  0  0
   20.6458   23.8031   19.5369 C   0  0  0  0  0  0  0  0  0  0  0  0
   18.5937   22.0708   19.9006 S   0  0  0  0  0  0  0  0  0  0  0  0
   18.8945   24.0619   17.1701 C   0  0  0  0  0  0  0  0  0  0  0  0
   18.6393   23.0295   16.5471 O   0  0  0  0  0  0  0  0  0  0  0  0
   19.7007   25.0521   16.7428 N   0  0  0  0  0  0  0  0  0  0  0  0
   19.8447   25.8417   17.3130 H   0  0  0  0  0  0  0  0  0  0  0  0
   20.3617   24.9702   15.4495 C   0  0  0  0  0  0  0  0  0  0  0  0
   20.7460   26.3326   14.9551 C   0  0  0  0  0  0  0  0  0  0  0  0
   19.8524   27.1463   14.1814 C   0  0  0  0  0  0  0  0  0  0  0  0
   20.2889   28.4286   13.7457 C   0  0  0  0  0  0  0  0  0  0  0  0
   21.5689   28.9110   14.0898 C   0  0  0  0  0  0  0  0  0  0  0  0
   22.4442   28.1129   14.8540 C   0  0  0  0  0  0  0  0  0  0  0  0
   22.0288   26.8362   15.2927 C   0  0  0  0  0  0  0  0  0  0  0  0
   18.4696   26.6797   13.7873 C   0  0  0  0  0  0  0  0  0  0  0  0
   14.2624   22.8878   16.9081 C   0  0  0  0  0  0  0  0  0  0  0  0
   13.5952   20.5132   17.2710 C   0  0  0  0  0  0  0  0  0  0  0  0
   14.7459   20.1186   17.0653 O   0  0  0  0  0  0  0  0  0  0  0  0
   13.2802   21.8418   17.2232 N   0  0  0  0  0  0  0  0  0  0  0  0
   12.3515   22.1107   17.4086 H   0  0  0  0  0  0  0  0  0  0  0  0
   10.3318   17.8384   18.2724 C   0  0  0  0  0  0  0  0  0  0  0  0
   11.3571   18.0942   19.2028 C   0  0  0  0  0  0  0  0  0  0  0  0
   12.4166   18.9646   18.8577 C   0  0  0  0  0  0  0  0  0  0  0  0
   12.4567   19.6042   17.5812 C   0  0  0  0  0  0  0  0  0  0  0  0
   11.4051   19.3327   16.6258 C   0  0  0  0  0  0  0  0  0  0  0  0
   10.3489   18.4571   17.0062 C   0  0  0  0  0  0  0  0  0  0  0  0
   11.3611   19.9639   15.2389 C   0  0  0  0  0  0  0  0  0  0  0  0
    9.3361   18.1891   16.1145 O   0  0  0  0  0  0  0  0  0  0  0  0
    8.6376   17.6138   16.3578 H   0  0  0  0  0  0  0  0  0  0  0  0
   13.7273   23.7307   15.7140 C   0  0  0  0  0  0  0  0  0  0  0  0
   14.3106   23.2558   14.4021 C   0  0  0  0  0  0  0  0  0  0  0  0
   15.3852   22.3695   11.9225 C   0  0  0  0  0  0  0  0  0  0  0  0
   13.8113   22.0857   13.7799 C   0  0  0  0  0  0  0  0  0  0  0  0
   15.3586   23.9778   13.7668 C   0  0  0  0  0  0  0  0  0  0  0  0
   14.3454   21.6413   12.5438 C   0  0  0  0  0  0  0  0  0  0  0  0
   15.8920   23.5392   12.5340 C   0  0  0  0  0  0  0  0  0  0  0  0
 35 37  1  0  0  0
 35 30  2  0  0  0
 35 34  1  0  0  0
 30 31  1  0  0  0
 31 32  2  0  0  0
 32 33  1  0  0  0
 33 34  2  0  0  0
 33 26  1  0  0  0
 34 36  1  0  0  0
 26 27  2  0  0  0
 26 28  1  0  0  0
 28 25  1  0  0  0
 25 39  1  0  0  0
 25  1  1  0  0  0
 39 40  1  0  0  0
 40 42  2  0  0  0
 40 43  1  0  0  0
 42 44  1  0  0  0
 44 41  2  0  0  0
 41 45  1  0  0  0
 45 43  2  0  0  0
  1  2  1  0  0  0
  1  4  1  0  0  0
  4  5  2  0  0  0
  4  6  1  0  0  0
  6  9  1  0  0  0
  6  7  1  0  0  0
  9 12  1  0  0  0
 12  8  1  0  0  0
  8 10  1  0  0  0
  8 11  1  0  0  0
  8  7  1  0  0  0
  7 13  1  0  0  0
 13 14  2  0  0  0
 13 15  1  0  0  0
 15 17  1  0  0  0
 17 18  1  0  0  0
 18 19  2  0  0  0
 18 23  1  0  0  0
 19 20  1  0  0  0
 19 24  1  0  0  0
 20 21  2  0  0  0
 21 22  1  0  0  0
 22 23  2  0  0  0
 37 38  1  0  0  0
 28 29  1  0  0  0
  2  3  1  0  0  0
 15 16  1  0  0  0
M  END
> <minimizedAffinity>
-12.28555

$$$$
1MSN_JE2_B_1001


 45 48  0  0  0  0  0  0  0  0999 V2000
   15.8805   21.5648   19.4351 C   0  0  0  0  0  0  0  0  0  0  0  0
   15.2538   21.7311   20.6847 O   0  0  0  0  0  0  0  0  0  0  0  0
   14.5597   22.4046   20.6112 H   0  0  0  0  0  0  0  0  0  0  0  0
   16.5279   22.9099   19.0109 C   0  0  0  0  0  0  0  0  0  0  0  0
   15.7983   23.8317   18.6530 O   0  0  0  0  0  0  0  0  0  0  0  0
   17.8963   23.0020   19.0516 N   0  0  0  0  0  0  0  0  0  0  0  0
   18.4929   24.3069   18.6676 C   0  0  0  0  0  0  0  0  0  0  0  0
   19.6596   24.6515   19.6588 C   0  0  0  0  0  0  0  0  0  0  0  0
   18.6121   22.4510   20.2505 C   0  0  0  0  0  0  0  0  0  0  0  0
   19.1605   25.3747   20.9336 C   0  0  0  0  0  0  0  0  0  0  0  0
   20.7978   25.4717   19.0175 C   0  0  0  0  0  0  0  0  0  0  0  0
   20.2890   23.0402   20.1004 S   0  0  0  0  0  0  0  0  0  0  0  0
   18.9136   24.1126   17.1904 C   0  0  0  0  0  0  0  0  0  0  0  0
   18.7213   23.0370   16.6201 O   0  0  0  0  0  0  0  0  0  0  0  0
   19.4876   25.1977   16.6370 N   0  0  0  0  0  0  0  0  0  0  0  0
   19.5992   26.0155   17.1737 H   0  0  0  0  0  0  0  0  0  0  0  0
   19.9450   25.1772   15.2562 C   0  0  0  0  0  0  0  0  0  0  0  0
   20.5873   26.4798   14.8833 C   0  0  0  0  0  0  0  0  0  0  0  0
   19.9010   27.4797   14.1164 C   0  0  0  0  0  0  0  0  0  0  0  0
   20.5769   28.6910   13.7995 C   0  0  0  0  0  0  0  0  0  0  0  0
   21.8918   28.9243   14.2536 C   0  0  0  0  0  0  0  0  0  0  0  0
   22.5635   27.9434   15.0112 C   0  0  0  0  0  0  0  0  0  0  0  0
   21.9089   26.7337   15.3327 C   0  0  0  0  0  0  0  0  0  0  0  0
   18.4913   27.2826   13.6073 C   0  0  0  0  0  0  0  0  0  0  0  0
   14.8348   21.0916   18.4056 C   0  0  0  0  0  0  0  0  0  0  0  0
   14.2989   22.1204   16.1987 C   0  0  0  0  0  0  0  0  0  0  0  0
   13.0920   21.9176   16.3543 O   0  0  0  0  0  0  0  0  0  0  0  0
   15.2091   21.7584   17.1512 N   0  0  0  0  0  0  0  0  0  0  0  0
   16.1604   21.9535   16.9893 H   0  0  0  0  0  0  0  0  0  0  0  0
   16.0278   24.0655   12.7295 C   0  0  0  0  0  0  0  0  0  0  0  0
   16.3677   24.4878   14.0289 C   0  0  0  0  0  0  0  0  0  0  0  0
   15.7903   23.8462   15.1489 C   0  0  0  0  0  0  0  0  0  0  0  0
   14.8758   22.7613   14.9842 C   0  0  0  0  0  0  0  0  0  0  0  0
   14.5239   22.3357   13.6473 C   0  0  0  0  0  0  0  0  0  0  0  0
   15.1277   22.9975   12.5408 C   0  0  0  0  0  0  0  0  0  0  0  0
   13.5565   21.1909   13.3689 C   0  0  0  0  0  0  0  0  0  0  0  0
   14.8107   22.6051   11.2609 O   0  0  0  0  0  0  0  0  0  0  0  0
   15.2042   23.0360   10.5277 H   0  0  0  0  0  0  0  0  0  0  0  0
   14.7480   19.5589   18.1488 C   0  0  0  0  0  0  0  0  0  0  0  0
   13.4882   18.9730   18.7460 C   0  0  0  0  0  0  0  0  0  0  0  0
   11.1200   17.8889   19.8884 C   0  0  0  0  0  0  0  0  0  0  0  0
   13.5417   18.2590   19.9678 C   0  0  0  0  0  0  0  0  0  0  0  0
   12.2314   19.1365   18.1004 C   0  0  0  0  0  0  0  0  0  0  0  0
   12.3626   17.7171   20.5395 C   0  0  0  0  0  0  0  0  0  0  0  0
   11.0539   18.5998   18.6680 C   0  0  0  0  0  0  0  0  0  0  0  0
 35 37  1  0  0  0
 35 30  2  0  0  0
 35 34  1  0  0  0
 30 31  1  0  0  0
 31 32  2  0  0  0
 32 33  1  0  0  0
 33 34  2  0  0  0
 33 26  1  0  0  0
 34 36  1  0  0  0
 26 27  2  0  0  0
 26 28  1  0  0  0
 28 25  1  0  0  0
 25 39  1  0  0  0
 25  1  1  0  0  0
 39 40  1  0  0  0
 40 42  2  0  0  0
 40 43  1  0  0  0
 42 44  1  0  0  0
 44 41  2  0  0  0
 41 45  1  0  0  0
 45 43  2  0  0  0
  1  2  1  0  0  0
  1  4  1  0  0  0
  4  5  2  0  0  0
  4  6  1  0  0  0
  6  9  1  0  0  0
  6  7  1  0  0  0
  9 12  1  0  0  0
 12  8  1  0  0  0
  8 10  1  0  0  0
  8 11  1  0  0  0
  8  7  1  0  0  0
  7 13  1  0  0  0
 13 14  2  0  0  0
 13 15  1  0  0  0
 15 17  1  0  0  0
 17 18  1  0  0  0
 18 19  2  0  0  0
 18 23  1  0  0  0
 19 20  1  0  0  0
 19 24  1  0  0  0
 20 21  2  0  0  0
 21 22  1  0  0  0
 22 23  2  0  0  0
 37 38  1  0  0  0
 28 29  1  0  0  0
  2  3  1  0  0  0
 15 16  1  0  0  0
M  END
> <minimizedAffinity>
-12.21701

$$$$
1MSN_JE2_B_1001


 45 48  0  0  0  0  0  0  0  0999 V2000
   17.3473   24.8318   14.5841 C   0  0  0  0  0  0  0  0  0  0  0  0
   16.8835   26.0287   14.0060 O   0  0  0  0  0  0  0  0  0  0  0  0
   16.5557   26.6185   14.7028 H   0  0  0  0  0  0  0  0  0  0  0  0
   16.1711   24.1361   15.3193 C   0  0  0  0  0  0  0  0  0  0  0  0
   15.7253   24.6500   16.3428 O   0  0  0  0  0  0  0  0  0  0  0  0
   15.6862   22.9676   14.7880 N   0  0  0  0  0  0  0  0  0  0  0  0
   14.5427   22.3336   15.4927 C   0  0  0  0  0  0  0  0  0  0  0  0
   13.5070   21.8171   14.4329 C   0  0  0  0  0  0  0  0  0  0  0  0
   15.4700   22.8953   13.3043 C   0  0  0  0  0  0  0  0  0  0  0  0
   12.4995   22.9125   14.0056 C   0  0  0  0  0  0  0  0  0  0  0  0
   12.7354   20.5585   14.8804 C   0  0  0  0  0  0  0  0  0  0  0  0
   14.5448   21.3929   13.0435 S   0  0  0  0  0  0  0  0  0  0  0  0
   15.1966   21.2378   16.3694 C   0  0  0  0  0  0  0  0  0  0  0  0
   16.3766   20.9232   16.2029 O   0  0  0  0  0  0  0  0  0  0  0  0
   14.3656   20.6967   17.2804 N   0  0  0  0  0  0  0  0  0  0  0  0
   13.4356   21.0143   17.3389 H   0  0  0  0  0  0  0  0  0  0  0  0
   14.8246   19.6489   18.1791 C   0  0  0  0  0  0  0  0  0  0  0  0
   13.6724   19.0190   18.9029 C   0  0  0  0  0  0  0  0  0  0  0  0
   13.5584   19.0489   20.3330 C   0  0  0  0  0  0  0  0  0  0  0  0
   12.4365   18.4274   20.9492 C   0  0  0  0  0  0  0  0  0  0  0  0
   11.4328   17.8142   20.1705 C   0  0  0  0  0  0  0  0  0  0  0  0
   11.5432   17.7895   18.7654 C   0  0  0  0  0  0  0  0  0  0  0  0
   12.6516   18.3991   18.1369 C   0  0  0  0  0  0  0  0  0  0  0  0
   14.6031   19.6946   21.2146 C   0  0  0  0  0  0  0  0  0  0  0  0
   18.5057   25.1538   15.5494 C   0  0  0  0  0  0  0  0  0  0  0  0
   18.7303   24.6077   17.9716 C   0  0  0  0  0  0  0  0  0  0  0  0
   19.3647   25.6440   18.1855 O   0  0  0  0  0  0  0  0  0  0  0  0
   18.2697   24.3013   16.7223 N   0  0  0  0  0  0  0  0  0  0  0  0
   17.7556   23.4703   16.6026 H   0  0  0  0  0  0  0  0  0  0  0  0
   17.6962   21.6827   21.0019 C   0  0  0  0  0  0  0  0  0  0  0  0
   16.7822   22.0083   19.9817 C   0  0  0  0  0  0  0  0  0  0  0  0
   17.1335   22.9684   19.0049 C   0  0  0  0  0  0  0  0  0  0  0  0
   18.4119   23.6052   19.0262 C   0  0  0  0  0  0  0  0  0  0  0  0
   19.3449   23.2730   20.0805 C   0  0  0  0  0  0  0  0  0  0  0  0
   18.9638   22.2974   21.0448 C   0  0  0  0  0  0  0  0  0  0  0  0
   20.7302   23.8998   20.1901 C   0  0  0  0  0  0  0  0  0  0  0  0
   19.8381   21.9631   22.0530 O   0  0  0  0  0  0  0  0  0  0  0  0
   19.5942   21.3219   22.6912 H   0  0  0  0  0  0  0  0  0  0  0  0
   19.9478   24.8927   15.0253 C   0  0  0  0  0  0  0  0  0  0  0  0
   20.6903   26.1894   14.7927 C   0  0  0  0  0  0  0  0  0  0  0  0
   22.0679   28.6411   14.3683 C   0  0  0  0  0  0  0  0  0  0  0  0
   20.1690   27.1621   13.9052 C   0  0  0  0  0  0  0  0  0  0  0  0
   21.9140   26.4591   15.4656 C   0  0  0  0  0  0  0  0  0  0  0  0
   20.8539   28.3852   13.6914 C   0  0  0  0  0  0  0  0  0  0  0  0
   22.5983   27.6777   15.2568 C   0  0  0  0  0  0  0  0  0  0  0  0
 35 37  1  0  0  0
 35 30  2  0  0  0
 35 34  1  0  0  0
 30 31  1  0  0  0
 31 32  2  0  0  0
 32 33  1  0  0  0
 33 34  2  0  0  0
 33 26  1  0  0  0
 34 36  1  0  0  0
 26 27  2  0  0  0
 26 28  1  0  0  0
 28 25  1  0  0  0
 25 39  1  0  0  0
 25  1  1  0  0  0
 39 40  1  0  0  0
 40 42  2  0  0  0
 40 43  1  0  0  0
 42 44  1  0  0  0
 44 41  2  0  0  0
 41 45  1  0  0  0
 45 43  2  0  0  0
  1  2  1  0  0  0
  1  4  1  0  0  0
  4  5  2  0  0  0
  4  6  1  0  0  0
  6  9  1  0  0  0
  6  7  1  0  0  0
  9 12  1  0  0  0
 12  8  1  0  0  0
  8 10  1  0  0  0
  8 11  1  0  0  0
  8  7  1  0  0  0
  7 13  1  0  0  0
 13 14  2  0  0  0
 13 15  1  0  0  0
 15 17  1  0  0  0
 17 18  1  0  0  0
 18 19  2  0  0  0
 18 23  1  0  0  0
 19 20  1  0  0  0
 19 24  1  0  0  0
 20 21  2  0  0  0
 21 22  1  0  0  0
 22 23  2  0  0  0
 37 38  1  0  0  0
 28 29  1  0  0  0
  2  3  1  0  0  0
 15 16  1  0  0  0
M  END
> <minimizedAffinity>
-11.51833

$$$$
1MSN_JE2_B_1001


 45 48  0  0  0  0  0  0  0  0999 V2000
   17.0913   24.9546   15.4104 C   0  0  0  0  0  0  0  0  0  0  0  0
   16.6133   26.2598   15.1872 O   0  0  0  0  0  0  0  0  0  0  0  0
   16.2849   26.6309   16.0211 H   0  0  0  0  0  0  0  0  0  0  0  0
   15.9260   24.0710   15.9295 C   0  0  0  0  0  0  0  0  0  0  0  0
   15.3626   24.3876   16.9748 O   0  0  0  0  0  0  0  0  0  0  0  0
   15.5830   22.9664   15.1913 N   0  0  0  0  0  0  0  0  0  0  0  0
   14.4472   22.1506   15.6922 C   0  0  0  0  0  0  0  0  0  0  0  0
   13.5417   21.7303   14.4814 C   0  0  0  0  0  0  0  0  0  0  0  0
   15.4860   23.1081   13.7000 C   0  0  0  0  0  0  0  0  0  0  0  0
   12.4804   22.8029   14.1343 C   0  0  0  0  0  0  0  0  0  0  0  0
   12.8476   20.3655   14.6692 C   0  0  0  0  0  0  0  0  0  0  0  0
   14.7132   21.6010   13.1405 S   0  0  0  0  0  0  0  0  0  0  0  0
   15.1235   20.9829   16.4511 C   0  0  0  0  0  0  0  0  0  0  0  0
   16.3233   20.7466   16.2972 O   0  0  0  0  0  0  0  0  0  0  0  0
   14.2882   20.2922   17.2502 N   0  0  0  0  0  0  0  0  0  0  0  0
   13.3417   20.5567   17.3083 H   0  0  0  0  0  0  0  0  0  0  0  0
   14.7666   19.1603   18.0287 C   0  0  0  0  0  0  0  0  0  0  0  0
   13.7254   18.7011   19.0051 C   0  0  0  0  0  0  0  0  0  0  0  0
   13.7367   19.1045   20.3821 C   0  0  0  0  0  0  0  0  0  0  0  0
   12.7155   18.6261   21.2499 C   0  0  0  0  0  0  0  0  0  0  0  0
   11.6880   17.7906   20.7641 C   0  0  0  0  0  0  0  0  0  0  0  0
   11.6751   17.3988   19.4100 C   0  0  0  0  0  0  0  0  0  0  0  0
   12.6825   17.8619   18.5349 C   0  0  0  0  0  0  0  0  0  0  0  0
   14.8119   20.0000   20.9541 C   0  0  0  0  0  0  0  0  0  0  0  0
   18.2531   25.0093   16.4226 C   0  0  0  0  0  0  0  0  0  0  0  0
   20.2914   25.8857   15.2856 C   0  0  0  0  0  0  0  0  0  0  0  0
   20.6852   24.7450   15.0290 O   0  0  0  0  0  0  0  0  0  0  0  0
   19.1168   26.0995   15.9498 N   0  0  0  0  0  0  0  0  0  0  0  0
   18.8361   27.0277   16.1196 H   0  0  0  0  0  0  0  0  0  0  0  0
   22.4110   29.4775   14.0963 C   0  0  0  0  0  0  0  0  0  0  0  0
   21.3463   28.9852   13.3176 C   0  0  0  0  0  0  0  0  0  0  0  0
   20.6697   27.8096   13.7170 C   0  0  0  0  0  0  0  0  0  0  0  0
   21.0393   27.1182   14.9111 C   0  0  0  0  0  0  0  0  0  0  0  0
   22.1386   27.6234   15.7040 C   0  0  0  0  0  0  0  0  0  0  0  0
   22.7948   28.8131   15.2785 C   0  0  0  0  0  0  0  0  0  0  0  0
   22.6088   26.9554   16.9910 C   0  0  0  0  0  0  0  0  0  0  0  0
   23.8395   29.3136   16.0207 O   0  0  0  0  0  0  0  0  0  0  0  0
   24.2761   30.0961   15.7469 H   0  0  0  0  0  0  0  0  0  0  0  0
   17.8761   25.2804   17.9082 C   0  0  0  0  0  0  0  0  0  0  0  0
   18.3799   24.1778   18.8123 C   0  0  0  0  0  0  0  0  0  0  0  0
   19.3241   22.1201   20.5336 C   0  0  0  0  0  0  0  0  0  0  0  0
   19.6413   24.2934   19.4454 C   0  0  0  0  0  0  0  0  0  0  0  0
   17.5955   23.0155   19.0507 C   0  0  0  0  0  0  0  0  0  0  0  0
   20.1148   23.2689   20.3039 C   0  0  0  0  0  0  0  0  0  0  0  0
   18.0630   21.9933   19.9071 C   0  0  0  0  0  0  0  0  0  0  0  0
 35 37  1  0  0  0
 35 30  2  0  0  0
 35 34  1  0  0  0
 30 31  1  0  0  0
 31 32  2  0  0  0
 32 33  1  0  0  0
 33 34  2  0  0  0
 33 26  1  0  0  0
 34 36  1  0  0  0
 26 27  2  0  0  0
 26 28  1  0  0  0
 28 25  1  0  0  0
 25 39  1  0  0  0
 25  1  1  0  0  0
 39 40  1  0  0  0
 40 42  2  0  0  0
 40 43  1  0  0  0
 42 44  1  0  0  0
 44 41  2  0  0  0
 41 45  1  0  0  0
 45 43  2  0  0  0
  1  2  1  0  0  0
  1  4  1  0  0  0
  4  5  2  0  0  0
  4  6  1  0  0  0
  6  9  1  0  0  0
  6  7  1  0  0  0
  9 12  1  0  0  0
 12  8  1  0  0  0
  8 10  1  0  0  0
  8 11  1  0  0  0
  8  7  1  0  0  0
  7 13  1  0  0  0
 13 14  2  0  0  0
 13 15  1  0  0  0
 15 17  1  0  0  0
 17 18  1  0  0  0
 18 19  2  0  0  0
 18 23  1  0  0  0
 19 20  1  0  0  0
 19 24  1  0  0  0
 20 21  2  0  0  0
 21 22  1  0  0  0
 22 23  2  0  0  0
 37 38  1  0  0  0
 28 29  1  0  0  0
  2  3  1  0  0  0
 15 16  1  0  0  0
M  END
> <minimizedAffinity>
-11.44575

$$$$
1MSN_JE2_B_1001


 45 48  0  0  0  0  0  0  0  0999 V2000
   18.8917   24.5616   16.2137 C   0  0  0  0  0  0  0  0  0  0  0  0
   20.2700   24.3474   16.0232 O   0  0  0  0  0  0  0  0  0  0  0  0
   20.4006   23.5952   15.4248 H   0  0  0  0  0  0  0  0  0  0  0  0
   18.2667   23.2943   16.8553 C   0  0  0  0  0  0  0  0  0  0  0  0
   18.3081   22.2344   16.2349 O   0  0  0  0  0  0  0  0  0  0  0  0
   17.6886   23.4229   18.0931 N   0  0  0  0  0  0  0  0  0  0  0  0
   17.1211   22.1916   18.6998 C   0  0  0  0  0  0  0  0  0  0  0  0
   17.4901   22.1516   20.2246 C   0  0  0  0  0  0  0  0  0  0  0  0
   18.4160   24.2148   19.1404 C   0  0  0  0  0  0  0  0  0  0  0  0
   18.8766   21.5126   20.4825 C   0  0  0  0  0  0  0  0  0  0  0  0
   16.4323   21.4506   21.1016 C   0  0  0  0  0  0  0  0  0  0  0  0
   17.5454   23.8819   20.6612 S   0  0  0  0  0  0  0  0  0  0  0  0
   15.6074   22.2761   18.3861 C   0  0  0  0  0  0  0  0  0  0  0  0
   15.0202   23.3593   18.4171 O   0  0  0  0  0  0  0  0  0  0  0  0
   15.0407   21.0892   18.0971 N   0  0  0  0  0  0  0  0  0  0  0  0
   15.5930   20.2742   18.0971 H   0  0  0  0  0  0  0  0  0  0  0  0
   13.6230   20.9959   17.7847 C   0  0  0  0  0  0  0  0  0  0  0  0
   12.9827   19.8611   18.5268 C   0  0  0  0  0  0  0  0  0  0  0  0
   11.6760   19.3700   18.1947 C   0  0  0  0  0  0  0  0  0  0  0  0
   11.1331   18.2902   18.9458 C   0  0  0  0  0  0  0  0  0  0  0  0
   11.8743   17.6880   19.9838 C   0  0  0  0  0  0  0  0  0  0  0  0
   13.1599   18.1681   20.3061 C   0  0  0  0  0  0  0  0  0  0  0  0
   13.7135   19.2410   19.5730 C   0  0  0  0  0  0  0  0  0  0  0  0
   10.8402   19.9764   17.0907 C   0  0  0  0  0  0  0  0  0  0  0  0
   18.2394   24.8873   14.8551 C   0  0  0  0  0  0  0  0  0  0  0  0
   16.1161   24.1085   13.8060 C   0  0  0  0  0  0  0  0  0  0  0  0
   16.4661   24.5243   12.6985 O   0  0  0  0  0  0  0  0  0  0  0  0
   16.9229   24.2370   14.9011 N   0  0  0  0  0  0  0  0  0  0  0  0
   16.6073   23.8769   15.7613 H   0  0  0  0  0  0  0  0  0  0  0  0
   12.2901   22.2414   14.6329 C   0  0  0  0  0  0  0  0  0  0  0  0
   12.6979   23.3829   15.3493 C   0  0  0  0  0  0  0  0  0  0  0  0
   13.9510   23.9757   15.0707 C   0  0  0  0  0  0  0  0  0  0  0  0
   14.8077   23.4432   14.0593 C   0  0  0  0  0  0  0  0  0  0  0  0
   14.3880   22.2660   13.3311 C   0  0  0  0  0  0  0  0  0  0  0  0
   13.1177   21.6970   13.6304 C   0  0  0  0  0  0  0  0  0  0  0  0
   15.2321   21.6227   12.2368 C   0  0  0  0  0  0  0  0  0  0  0  0
   12.6969   20.5802   12.9460 O   0  0  0  0  0  0  0  0  0  0  0  0
   11.8621   20.2002   13.1376 H   0  0  0  0  0  0  0  0  0  0  0  0
   18.0400   26.3933   14.5166 C   0  0  0  0  0  0  0  0  0  0  0  0
   19.3419   27.1559   14.6188 C   0  0  0  0  0  0  0  0  0  0  0  0
   21.7782   28.6117   14.8022 C   0  0  0  0  0  0  0  0  0  0  0  0
   20.0243   27.5649   13.4473 C   0  0  0  0  0  0  0  0  0  0  0  0
   19.8965   27.4840   15.8868 C   0  0  0  0  0  0  0  0  0  0  0  0
   21.2393   28.2906   13.5357 C   0  0  0  0  0  0  0  0  0  0  0  0
   21.1060   28.2088   15.9790 C   0  0  0  0  0  0  0  0  0  0  0  0
 35 37  1  0  0  0
 35 30  2  0  0  0
 35 34  1  0  0  0
 30 31  1  0  0  0
 31 32  2  0  0  0
 32 33  1  0  0  0
 33 34  2  0  0  0
 33 26  1  0  0  0
 34 36  1  0  0  0
 26 27  2  0  0  0
 26 28  1  0  0  0
 28 25  1  0  0  0
 25 39  1  0  0  0
 25  1  1  0  0  0
 39 40  1  0  0  0
 40 42  2  0  0  0
 40 43  1  0  0  0
 42 44  1  0  0  0
 44 41  2  0  0  0
 41 45  1  0  0  0
 45 43  2  0  0  0
  1  2  1  0  0  0
  1  4  1  0  0  0
  4  5  2  0  0  0
  4  6  1  0  0  0
  6  9  1  0  0  0
  6  7  1  0  0  0
  9 12  1  0  0  0
 12  8  1  0  0  0
  8 10  1  0  0  0
  8 11  1  0  0  0
  8  7  1  0  0  0
  7 13  1  0  0  0
 13 14  2  0  0  0
 13 15  1  0  0  0
 15 17  1  0  0  0
 17 18  1  0  0  0
 18 19  2  0  0  0
 18 23  1  0  0  0
 19 20  1  0  0  0
 19 24  1  0  0  0
 20 21  2  0  0  0
 21 22  1  0  0  0
 22 23  2  0  0  0
 37 38  1  0  0  0
 28 29  1  0  0  0
  2  3  1  0  0  0
 15 16  1  0  0  0
M  END
> <minimizedAffinity>
-11.05233

$$$$
1MSN_JE2_B_1001


 45 48  0  0  0  0  0  0  0  0999 V2000
   15.4897   21.5358   18.8239 C   0  0  0  0  0  0  0  0  0  0  0  0
   15.2279   21.1386   20.1489 O   0  0  0  0  0  0  0  0  0  0  0  0
   14.5979   21.7556   20.5529 H   0  0  0  0  0  0  0  0  0  0  0  0
   16.1144   22.9563   18.8357 C   0  0  0  0  0  0  0  0  0  0  0  0
   15.3779   23.9286   18.6866 O   0  0  0  0  0  0  0  0  0  0  0  0
   17.4720   23.0565   19.0081 N   0  0  0  0  0  0  0  0  0  0  0  0
   18.0446   24.4266   19.0435 C   0  0  0  0  0  0  0  0  0  0  0  0
   19.1237   24.5046   20.1802 C   0  0  0  0  0  0  0  0  0  0  0  0
   18.1205   22.2090   20.0637 C   0  0  0  0  0  0  0  0  0  0  0  0
   18.5077   24.8406   21.5604 C   0  0  0  0  0  0  0  0  0  0  0  0
   20.2730   25.4886   19.8794 C   0  0  0  0  0  0  0  0  0  0  0  0
   19.7804   22.8447   20.2134 S   0  0  0  0  0  0  0  0  0  0  0  0
   18.5769   24.6533   17.6075 C   0  0  0  0  0  0  0  0  0  0  0  0
   18.9625   23.7026   16.9244 O   0  0  0  0  0  0  0  0  0  0  0  0
   18.5729   25.9426   17.2190 N   0  0  0  0  0  0  0  0  0  0  0  0
   18.2446   26.6353   17.8368 H   0  0  0  0  0  0  0  0  0  0  0  0
   19.0476   26.3251   15.8981 C   0  0  0  0  0  0  0  0  0  0  0  0
   20.3942   26.9797   15.9797 C   0  0  0  0  0  0  0  0  0  0  0  0
   20.8020   28.0078   15.0655 C   0  0  0  0  0  0  0  0  0  0  0  0
   22.0969   28.5811   15.2045 C   0  0  0  0  0  0  0  0  0  0  0  0
   22.9611   28.1700   16.2408 C   0  0  0  0  0  0  0  0  0  0  0  0
   22.5576   27.1633   17.1413 C   0  0  0  0  0  0  0  0  0  0  0  0
   21.2768   26.5811   17.0166 C   0  0  0  0  0  0  0  0  0  0  0  0
   19.9149   28.4875   13.9393 C   0  0  0  0  0  0  0  0  0  0  0  0
   14.1752   21.5034   18.0187 C   0  0  0  0  0  0  0  0  0  0  0  0
   15.5175   21.8362   15.9443 C   0  0  0  0  0  0  0  0  0  0  0  0
   16.2476   20.8800   16.2176 O   0  0  0  0  0  0  0  0  0  0  0  0
   14.4837   22.1974   16.7612 N   0  0  0  0  0  0  0  0  0  0  0  0
   13.9189   22.9585   16.4946 H   0  0  0  0  0  0  0  0  0  0  0  0
   16.0530   24.3712   12.4666 C   0  0  0  0  0  0  0  0  0  0  0  0
   16.5687   24.7574   13.7184 C   0  0  0  0  0  0  0  0  0  0  0  0
   16.3802   23.9215   14.8432 C   0  0  0  0  0  0  0  0  0  0  0  0
   15.6858   22.6786   14.7274 C   0  0  0  0  0  0  0  0  0  0  0  0
   15.1512   22.2894   13.4409 C   0  0  0  0  0  0  0  0  0  0  0  0
   15.3639   23.1497   12.3266 C   0  0  0  0  0  0  0  0  0  0  0  0
   14.3941   20.9854   13.2173 C   0  0  0  0  0  0  0  0  0  0  0  0
   14.8682   22.7962   11.0929 O   0  0  0  0  0  0  0  0  0  0  0  0
   15.0043   23.3574   10.3550 H   0  0  0  0  0  0  0  0  0  0  0  0
   13.5932   20.0993   17.6834 C   0  0  0  0  0  0  0  0  0  0  0  0
   12.2889   20.2122   16.9266 C   0  0  0  0  0  0  0  0  0  0  0  0
    9.8288   20.4450   15.5187 C   0  0  0  0  0  0  0  0  0  0  0  0
   11.0684   19.8532   17.5487 C   0  0  0  0  0  0  0  0  0  0  0  0
   12.2628   20.6889   15.5868 C   0  0  0  0  0  0  0  0  0  0  0  0
    9.8404   19.9678   16.8490 C   0  0  0  0  0  0  0  0  0  0  0  0
   11.0408   20.8066   14.8869 C   0  0  0  0  0  0  0  0  0  0  0  0
 35 37  1  0  0  0
 35 30  2  0  0  0
 35 34  1  0  0  0
 30 31  1  0  0  0
 31 32  2  0  0  0
 32 33  1  0  0  0
 33 34  2  0  0  0
 33 26  1  0  0  0
 34 36  1  0  0  0
 26 27  2  0  0  0
 26 28  1  0  0  0
 28 25  1  0  0  0
 25 39  1  0  0  0
 25  1  1  0  0  0
 39 40  1  0  0  0
 40 42  2  0  0  0
 40 43  1  0  0  0
 42 44  1  0  0  0
 44 41  2  0  0  0
 41 45  1  0  0  0
 45 43  2  0  0  0
  1  2  1  0  0  0
  1  4  1  0  0  0
  4  5  2  0  0  0
  4  6  1  0  0  0
  6  9  1  0  0  0
  6  7  1  0  0  0
  9 12  1  0  0  0
 12  8  1  0  0  0
  8 10  1  0  0  0
  8 11  1  0  0  0
  8  7  1  0  0  0
  7 13  1  0  0  0
 13 14  2  0  0  0
 13 15  1  0  0  0
 15 17  1  0  0  0
 17 18  1  0  0  0
 18 19  2  0  0  0
 18 23  1  0  0  0
 19 20  1  0  0  0
 19 24  1  0  0  0
 20 21  2  0  0  0
 21 22  1  0  0  0
 22 23  2  0  0  0
 37 38  1  0  0  0
 28 29  1  0  0  0
  2  3  1  0  0  0
 15 16  1  0  0  0
M  END
> <minimizedAffinity>
-11.00875

$$$$
1MSN_JE2_B_1001


 45 48  0  0  0  0  0  0  0  0999 V2000
   16.4848   24.3343   15.5977 C   0  0  0  0  0  0  0  0  0  0  0  0
   16.2737   25.6665   15.1947 O   0  0  0  0  0  0  0  0  0  0  0  0
   15.8895   26.1696   15.9297 H   0  0  0  0  0  0  0  0  0  0  0  0
   15.1217   23.7002   15.9827 C   0  0  0  0  0  0  0  0  0  0  0  0
   14.5480   24.0977   16.9941 O   0  0  0  0  0  0  0  0  0  0  0  0
   14.6228   22.7138   15.1697 N   0  0  0  0  0  0  0  0  0  0  0  0
   13.3042   22.1403   15.5420 C   0  0  0  0  0  0  0  0  0  0  0  0
   12.4391   21.9542   14.2460 C   0  0  0  0  0  0  0  0  0  0  0  0
   14.6861   22.9155   13.6836 C   0  0  0  0  0  0  0  0  0  0  0  0
   11.6563   23.2351   13.8667 C   0  0  0  0  0  0  0  0  0  0  0  0
   11.4645   20.7605   14.3158 C   0  0  0  0  0  0  0  0  0  0  0  0
   13.6698   21.6208   12.9964 S   0  0  0  0  0  0  0  0  0  0  0  0
   13.6566   20.8354   16.2969 C   0  0  0  0  0  0  0  0  0  0  0  0
   14.6587   20.1859   15.9920 O   0  0  0  0  0  0  0  0  0  0  0  0
   12.7822   20.5113   17.2683 N   0  0  0  0  0  0  0  0  0  0  0  0
   12.0078   21.0945   17.4395 H   0  0  0  0  0  0  0  0  0  0  0  0
   12.9673   19.3103   18.0681 C   0  0  0  0  0  0  0  0  0  0  0  0
   13.6946   19.6199   19.3423 C   0  0  0  0  0  0  0  0  0  0  0  0
   13.4443   18.9030   20.5599 C   0  0  0  0  0  0  0  0  0  0  0  0
   14.1728   19.2551   21.7303 C   0  0  0  0  0  0  0  0  0  0  0  0
   15.1486   20.2732   21.6945 C   0  0  0  0  0  0  0  0  0  0  0  0
   15.3971   20.9735   20.4967 C   0  0  0  0  0  0  0  0  0  0  0  0
   14.6812   20.6393   19.3258 C   0  0  0  0  0  0  0  0  0  0  0  0
   12.4126   17.8021   20.6532 C   0  0  0  0  0  0  0  0  0  0  0  0
   17.4711   24.3161   16.7826 C   0  0  0  0  0  0  0  0  0  0  0  0
   19.6658   25.1391   15.9330 C   0  0  0  0  0  0  0  0  0  0  0  0
   20.0215   23.9964   15.6333 O   0  0  0  0  0  0  0  0  0  0  0  0
   18.4399   25.3799   16.4858 N   0  0  0  0  0  0  0  0  0  0  0  0
   18.1941   26.3100   16.6951 H   0  0  0  0  0  0  0  0  0  0  0  0
   22.1982   28.6260   15.4467 C   0  0  0  0  0  0  0  0  0  0  0  0
   22.4380   27.7082   16.4871 C   0  0  0  0  0  0  0  0  0  0  0  0
   21.5991   26.5796   16.6346 C   0  0  0  0  0  0  0  0  0  0  0  0
   20.5168   26.3450   15.7324 C   0  0  0  0  0  0  0  0  0  0  0  0
   20.2696   27.2944   14.6695 C   0  0  0  0  0  0  0  0  0  0  0  0
   21.1365   28.4168   14.5437 C   0  0  0  0  0  0  0  0  0  0  0  0
   19.1393   27.1332   13.6595 C   0  0  0  0  0  0  0  0  0  0  0  0
   20.9222   29.3294   13.5368 O   0  0  0  0  0  0  0  0  0  0  0  0
   21.4885   30.0705   13.4478 H   0  0  0  0  0  0  0  0  0  0  0  0
   16.8721   24.5678   18.1970 C   0  0  0  0  0  0  0  0  0  0  0  0
   17.7230   23.9335   19.2742 C   0  0  0  0  0  0  0  0  0  0  0  0
   19.3443   22.7416   21.2840 C   0  0  0  0  0  0  0  0  0  0  0  0
   18.1968   22.6076   19.1223 C   0  0  0  0  0  0  0  0  0  0  0  0
   18.0703   24.6567   20.4486 C   0  0  0  0  0  0  0  0  0  0  0  0
   19.0050   22.0107   20.1229 C   0  0  0  0  0  0  0  0  0  0  0  0
   18.8772   24.0661   21.4470 C   0  0  0  0  0  0  0  0  0  0  0  0
 35 37  1  0  0  0
 35 30  2  0  0  0
 35 34  1  0  0  0
 30 31  1  0  0  0
 31 32  2  0  0  0
 32 33  1  0  0  0
 33 34  2  0  0  0
 33 26  1  0  0  0
 34 36  1  0  0  0
 26 27  2  0  0  0
 26 28  1  0  0  0
 28 25  1  0  0  0
 25 39  1  0  0  0
 25  1  1  0  0  0
 39 40  1  0  0  0
 40 42  2  0  0  0
 40 43  1  0  0  0
 42 44  1  0  0  0
 44 41  2  0  0  0
 41 45  1  0  0  0
 45 43  2  0  0  0
  1  2  1  0  0  0
  1  4  1  0  0  0
  4  5  2  0  0  0
  4  6  1  0  0  0
  6  9  1  0  0  0
  6  7  1  0  0  0
  9 12  1  0  0  0
 12  8  1  0  0  0
  8 10  1  0  0  0
  8 11  1  0  0  0
  8  7  1  0  0  0
  7 13  1  0  0  0
 13 14  2  0  0  0
 13 15  1  0  0  0
 15 17  1  0  0  0
 17 18  1  0  0  0
 18 19  2  0  0  0
 18 23  1  0  0  0
 19 20  1  0  0  0
 19 24  1  0  0  0
 20 21  2  0  0  0
 21 22  1  0  0  0
 22 23  2  0  0  0
 37 38  1  0  0  0
 28 29  1  0  0  0
  2  3  1  0  0  0
 15 16  1  0  0  0
M  END
> <minimizedAffinity>
-10.74311

$$$$
1MSN_JE2_B_1001


 45 48  0  0  0  0  0  0  0  0999 V2000
   16.4881   22.2657   18.9359 C   0  0  0  0  0  0  0  0  0  0  0  0
   15.2701   22.3236   19.6395 O   0  0  0  0  0  0  0  0  0  0  0  0
   14.6233   22.8315   19.1250 H   0  0  0  0  0  0  0  0  0  0  0  0
   17.0256   23.7077   18.7358 C   0  0  0  0  0  0  0  0  0  0  0  0
   16.2215   24.6327   18.6465 O   0  0  0  0  0  0  0  0  0  0  0  0
   18.3851   23.8790   18.6624 N   0  0  0  0  0  0  0  0  0  0  0  0
   18.8782   25.2704   18.4982 C   0  0  0  0  0  0  0  0  0  0  0  0
   20.1285   25.4861   19.4218 C   0  0  0  0  0  0  0  0  0  0  0  0
   19.2495   23.1482   19.6483 C   0  0  0  0  0  0  0  0  0  0  0  0
   19.7379   25.9068   20.8598 C   0  0  0  0  0  0  0  0  0  0  0  0
   21.1534   26.4902   18.8554 C   0  0  0  0  0  0  0  0  0  0  0  0
   20.8727   23.8637   19.4611 S   0  0  0  0  0  0  0  0  0  0  0  0
   19.1457   25.4022   16.9790 C   0  0  0  0  0  0  0  0  0  0  0  0
   18.2378   25.7187   16.2078 O   0  0  0  0  0  0  0  0  0  0  0  0
   20.4169   25.1384   16.6216 N   0  0  0  0  0  0  0  0  0  0  0  0
   21.0746   24.8926   17.3117 H   0  0  0  0  0  0  0  0  0  0  0  0
   20.8307   25.2122   15.2290 C   0  0  0  0  0  0  0  0  0  0  0  0
   21.2026   26.6152   14.8524 C   0  0  0  0  0  0  0  0  0  0  0  0
   22.4452   27.2111   15.2521 C   0  0  0  0  0  0  0  0  0  0  0  0
   22.7275   28.5489   14.8580 C   0  0  0  0  0  0  0  0  0  0  0  0
   21.8167   29.2745   14.0619 C   0  0  0  0  0  0  0  0  0  0  0  0
   20.5983   28.6865   13.6657 C   0  0  0  0  0  0  0  0  0  0  0  0
   20.3003   27.3604   14.0503 C   0  0  0  0  0  0  0  0  0  0  0  0
   23.4577   26.4779   16.1022 C   0  0  0  0  0  0  0  0  0  0  0  0
   16.2577   21.5563   17.5865 C   0  0  0  0  0  0  0  0  0  0  0  0
   14.4453   19.8538   17.7668 C   0  0  0  0  0  0  0  0  0  0  0  0
   15.2636   18.9434   17.9208 O   0  0  0  0  0  0  0  0  0  0  0  0
   14.8460   21.1503   17.6078 N   0  0  0  0  0  0  0  0  0  0  0  0
   14.1564   21.8449   17.5026 H   0  0  0  0  0  0  0  0  0  0  0  0
   10.1491   19.2930   17.5779 C   0  0  0  0  0  0  0  0  0  0  0  0
   10.8303   19.9510   16.5361 C   0  0  0  0  0  0  0  0  0  0  0  0
   12.2306   20.1303   16.6165 C   0  0  0  0  0  0  0  0  0  0  0  0
   12.9717   19.6391   17.7344 C   0  0  0  0  0  0  0  0  0  0  0  0
   12.2667   18.9703   18.8058 C   0  0  0  0  0  0  0  0  0  0  0  0
   10.8579   18.7995   18.6916 C   0  0  0  0  0  0  0  0  0  0  0  0
   12.9678   18.4142   20.0400 C   0  0  0  0  0  0  0  0  0  0  0  0
   10.1686   18.1618   19.6971 O   0  0  0  0  0  0  0  0  0  0  0  0
    9.2413   18.0458   19.6288 H   0  0  0  0  0  0  0  0  0  0  0  0
   16.5160   22.3948   16.3009 C   0  0  0  0  0  0  0  0  0  0  0  0
   15.2430   22.5907   15.5085 C   0  0  0  0  0  0  0  0  0  0  0  0
   12.8396   22.9362   14.0277 C   0  0  0  0  0  0  0  0  0  0  0  0
   14.9641   21.7686   14.3897 C   0  0  0  0  0  0  0  0  0  0  0  0
   14.3022   23.5918   15.8769 C   0  0  0  0  0  0  0  0  0  0  0  0
   13.7668   21.9389   13.6493 C   0  0  0  0  0  0  0  0  0  0  0  0
   13.1070   23.7632   15.1429 C   0  0  0  0  0  0  0  0  0  0  0  0
 35 37  1  0  0  0
 35 30  2  0  0  0
 35 34  1  0  0  0
 30 31  1  0  0  0
 31 32  2  0  0  0
 32 33  1  0  0  0
 33 34  2  0  0  0
 33 26  1  0  0  0
 34 36  1  0  0  0
 26 27  2  0  0  0
 26 28  1  0  0  0
 28 25  1  0  0  0
 25 39  1  0  0  0
 25  1  1  0  0  0
 39 40  1  0  0  0
 40 42  2  0  0  0
 40 43  1  0  0  0
 42 44  1  0  0  0
 44 41  2  0  0  0
 41 45  1  0  0  0
 45 43  2  0  0  0
  1  2  1  0  0  0
  1  4  1  0  0  0
  4  5  2  0  0  0
  4  6  1  0  0  0
  6  9  1  0  0  0
  6  7  1  0  0  0
  9 12  1  0  0  0
 12  8  1  0  0  0
  8 10  1  0  0  0
  8 11  1  0  0  0
  8  7  1  0  0  0
  7 13  1  0  0  0
 13 14  2  0  0  0
 13 15  1  0  0  0
 15 17  1  0  0  0
 17 18  1  0  0  0
 18 19  2  0  0  0
 18 23  1  0  0  0
 19 20  1  0  0  0
 19 24  1  0  0  0
 20 21  2  0  0  0
 21 22  1  0  0  0
 22 23  2  0  0  0
 37 38  1  0  0  0
 28 29  1  0  0  0
  2  3  1  0  0  0
 15 16  1  0  0  0
M  END
> <minimizedAffinity>
-10.61697

$$$$
1MSN_JE2_B_1001


 45 48  0  0  0  0  0  0  0  0999 V2000
   17.4857   25.3512   16.6169 C   0  0  0  0  0  0  0  0  0  0  0  0
   16.4983   25.9272   17.4386 O   0  0  0  0  0  0  0  0  0  0  0  0
   16.4003   25.3981   18.2457 H   0  0  0  0  0  0  0  0  0  0  0  0
   17.0444   23.9156   16.2264 C   0  0  0  0  0  0  0  0  0  0  0  0
   17.7694   23.2533   15.4875 O   0  0  0  0  0  0  0  0  0  0  0  0
   15.8524   23.4547   16.7260 N   0  0  0  0  0  0  0  0  0  0  0  0
   15.4631   22.0684   16.3614 C   0  0  0  0  0  0  0  0  0  0  0  0
   14.8700   21.3509   17.6248 C   0  0  0  0  0  0  0  0  0  0  0  0
   15.5426   23.7038   18.1734 C   0  0  0  0  0  0  0  0  0  0  0  0
   15.9645   20.6992   18.5051 C   0  0  0  0  0  0  0  0  0  0  0  0
   13.7883   20.3023   17.2932 C   0  0  0  0  0  0  0  0  0  0  0  0
   14.1125   22.6962   18.5215 S   0  0  0  0  0  0  0  0  0  0  0  0
   14.4805   22.2480   15.1787 C   0  0  0  0  0  0  0  0  0  0  0  0
   13.8303   23.2879   15.0562 O   0  0  0  0  0  0  0  0  0  0  0  0
   14.4212   21.1883   14.3499 N   0  0  0  0  0  0  0  0  0  0  0  0
   14.9807   20.3986   14.5301 H   0  0  0  0  0  0  0  0  0  0  0  0
   13.5409   21.1955   13.1918 C   0  0  0  0  0  0  0  0  0  0  0  0
   12.6414   19.9958   13.1930 C   0  0  0  0  0  0  0  0  0  0  0  0
   11.4372   19.9429   13.9717 C   0  0  0  0  0  0  0  0  0  0  0  0
   10.6349   18.7688   13.9231 C   0  0  0  0  0  0  0  0  0  0  0  0
   10.9966   17.6805   13.1017 C   0  0  0  0  0  0  0  0  0  0  0  0
   12.1773   17.7354   12.3335 C   0  0  0  0  0  0  0  0  0  0  0  0
   12.9873   18.8919   12.3717 C   0  0  0  0  0  0  0  0  0  0  0  0
   11.0013   21.0811   14.8660 C   0  0  0  0  0  0  0  0  0  0  0  0
   18.8293   25.3432   17.3731 C   0  0  0  0  0  0  0  0  0  0  0  0
   20.5049   26.1085   15.6931 C   0  0  0  0  0  0  0  0  0  0  0  0
   20.6384   24.9652   15.2490 O   0  0  0  0  0  0  0  0  0  0  0  0
   19.6402   26.3772   16.7162 N   0  0  0  0  0  0  0  0  0  0  0  0
   19.5566   27.3073   17.0277 H   0  0  0  0  0  0  0  0  0  0  0  0
   22.6302   29.5333   14.0928 C   0  0  0  0  0  0  0  0  0  0  0  0
   21.4930   29.0269   13.4350 C   0  0  0  0  0  0  0  0  0  0  0  0
   20.8153   27.9060   13.9676 C   0  0  0  0  0  0  0  0  0  0  0  0
   21.2574   27.2853   15.1758 C   0  0  0  0  0  0  0  0  0  0  0  0
   22.4305   27.8043   15.8440 C   0  0  0  0  0  0  0  0  0  0  0  0
   23.0863   28.9382   15.2861 C   0  0  0  0  0  0  0  0  0  0  0  0
   22.9809   27.2096   17.1352 C   0  0  0  0  0  0  0  0  0  0  0  0
   24.2010   29.4509   15.9085 O   0  0  0  0  0  0  0  0  0  0  0  0
   24.6378   30.1970   15.5471 H   0  0  0  0  0  0  0  0  0  0  0  0
   18.7765   25.6457   18.8990 C   0  0  0  0  0  0  0  0  0  0  0  0
   18.9354   24.3824   19.7148 C   0  0  0  0  0  0  0  0  0  0  0  0
   19.2104   22.0103   21.2595 C   0  0  0  0  0  0  0  0  0  0  0  0
   19.1019   24.4549   21.1192 C   0  0  0  0  0  0  0  0  0  0  0  0
   18.9100   23.1043   19.0912 C   0  0  0  0  0  0  0  0  0  0  0  0
   19.2396   23.2739   21.8919 C   0  0  0  0  0  0  0  0  0  0  0  0
   19.0448   21.9250   19.8579 C   0  0  0  0  0  0  0  0  0  0  0  0
 35 37  1  0  0  0
 35 30  2  0  0  0
 35 34  1  0  0  0
 30 31  1  0  0  0
 31 32  2  0  0  0
 32 33  1  0  0  0
 33 34  2  0  0  0
 33 26  1  0  0  0
 34 36  1  0  0  0
 26 27  2  0  0  0
 26 28  1  0  0  0
 28 25  1  0  0  0
 25 39  1  0  0  0
 25  1  1  0  0  0
 39 40  1  0  0  0
 40 42  2  0  0  0
 40 43  1  0  0  0
 42 44  1  0  0  0
 44 41  2  0  0  0
 41 45  1  0  0  0
 45 43  2  0  0  0
  1  2  1  0  0  0
  1  4  1  0  0  0
  4  5  2  0  0  0
  4  6  1  0  0  0
  6  9  1  0  0  0
  6  7  1  0  0  0
  9 12  1  0  0  0
 12  8  1  0  0  0
  8 10  1  0  0  0
  8 11  1  0  0  0
  8  7  1  0  0  0
  7 13  1  0  0  0
 13 14  2  0  0  0
 13 15  1  0  0  0
 15 17  1  0  0  0
 17 18  1  0  0  0
 18 19  2  0  0  0
 18 23  1  0  0  0
 19 20  1  0  0  0
 19 24  1  0  0  0
 20 21  2  0  0  0
 21 22  1  0  0  0
 22 23  2  0  0  0
 37 38  1  0  0  0
 28 29  1  0  0  0
  2  3  1  0  0  0
 15 16  1  0  0  0
M  END
> <minimizedAffinity>
-10.60641

$$$$
