6FGG_D9B_A_1901
  RCSB PDB05261800313D
Coordinates from PDB:6FGG:A:1901 Model:1 without hydrogens
 26 28  0  0  0  0            999 V2000
  -30.2250   -2.9190  -14.7410   C 0  0  0  0  0  0  0  0  0  0  0  0
  -28.5420   -2.7340  -13.0950   C 0  0  0  0  0  0  0  0  0  0  0  0
  -28.9100   -4.8420  -14.1650   C 0  0  0  0  0  0  0  0  0  0  0  0
  -29.1310   -5.5930  -15.4760   C 0  0  0  0  0  0  0  0  0  0  0  0
  -29.7870   -8.0320  -15.0280   C 0  0  0  0  0  0  0  0  0  0  0  0
  -27.7010   -8.9840  -15.1100   C 0  0  0  0  0  0  0  0  0  0  0  0
  -27.5480   -7.6210  -15.3430   C 0  0  0  0  0  0  0  0  0  0  0  0
  -26.2680   -7.1070  -15.5740   C 0  0  0  0  0  0  0  0  0  0  0  0
  -25.1980   -7.9940  -15.5950   C 0  0  0  0  0  0  0  0  0  0  0  0
  -23.5480   -6.1890  -16.0830   C 0  0  0  0  0  0  0  0  0  0  0  0
  -22.1290   -5.8010  -15.9400   C 0  0  0  0  0  0  0  0  0  0  0  0
  -21.2390   -6.6400  -15.0620   C 0  0  0  0  0  0  0  0  0  0  0  0
  -18.9980   -6.9440  -14.0000   C 0  0  0  0  0  0  0  0  0  0  0  0
  -19.4210   -4.9240  -15.3880   C 0  0  0  0  0  0  0  0  0  0  0  0
  -20.3350   -4.0650  -16.2330   C 0  0  0  0  0  0  0  0  0  0  0  0
  -21.7060   -4.5170  -16.4900   C 0  0  0  0  0  0  0  0  0  0  0  0
  -25.3570   -9.3560  -15.3120   C 0  0  0  0  0  0  0  0  0  0  0  0
  -26.6180   -9.8680  -15.0870   C 0  0  0  0  0  0  0  0  0  0  0  0
  -28.9060   -3.3920  -14.3410   N 0  0  0  0  0  0  0  0  0  0  0  0
  -28.8450   -7.0010  -15.2970   N 0  0  0  0  0  0  0  0  0  0  0  0
  -23.8620   -7.5300  -15.7170   N 0  0  0  0  0  0  0  0  0  0  0  0
  -19.8910   -6.1880  -14.8320   N 0  0  0  0  0  0  0  0  0  0  0  0
  -30.9620   -7.9070  -14.9170   O 0  0  0  0  0  0  0  0  0  0  0  0
  -29.0920   -9.2500  -14.9130   O 0  0  0  0  0  0  0  0  0  0  0  0
  -24.3400   -5.3350  -16.3050   O 0  0  0  0  0  0  0  0  0  0  0  0
  -18.3320   -4.5640  -15.1210   O 0  0  0  0  0  0  0  0  0  0  0  0
 16 15  2  0  0  0  0
 16 11  1  0  0  0  0
 25 10  2  0  0  0  0
 15 14  1  0  0  0  0
 10 11  1  0  0  0  0
 10 21  1  0  0  0  0
 11 12  2  0  0  0  0
 21  9  1  0  0  0  0
  9  8  2  0  0  0  0
  9 17  1  0  0  0  0
  8  7  1  0  0  0  0
  4 20  1  0  0  0  0
  4  3  1  0  0  0  0
 14 26  2  0  0  0  0
 14 22  1  0  0  0  0
  7 20  1  0  0  0  0
  7  6  2  0  0  0  0
 17 18  2  0  0  0  0
 20  5  1  0  0  0  0
  6 18  1  0  0  0  0
  6 24  1  0  0  0  0
 12 22  1  0  0  0  0
  5 23  2  0  0  0  0
  5 24  1  0  0  0  0
 22 13  1  0  0  0  0
  1 19  1  0  0  0  0
 19  3  1  0  0  0  0
 19  2  1  0  0  0  0
A    1
C01
A    2
C03
A    3
C04
A    4
C05
A    5
C07
A    6
C10
A    7
C11
A    8
C12
A    9
C13
A   10
C15
A   11
C17
A   12
C18
A   13
C20
A   14
C21
A   15
C23
A   16
C24
A   17
C25
A   18
C26
A   19
N02
A   20
N06
A   21
N14
A   22
N19
A   23
O08
A   24
O09
A   25
O16
A   26
O22
M  END
>  <InstanceId>
6FGG_D9B_A_1901

>  <ChemCompId>
D9B

>  <PdbId>
6FGG

>  <ChainId>
A

>  <ResidueNumber>
1901

>  <InsertionCode>


>  <Model>
1

>  <AltIds>


>  <MissingHeavyAtoms>
0

>  <ObservedFormula>
C18 N4 O4

>  <Name>
~{N}-[3-[2-(dimethylamino)ethyl]-2-oxidanylidene-1,3-benzoxazol-5-yl]-1-methyl-6-oxidanylidene-pyridine-3-carboxamide

>  <SystematicName>
~{N}-[3-[2-(dimethylamino)ethyl]-2-oxidanylidene-1,3-benzoxazol-5-yl]-1-methyl-6-oxidanylidene-pyridine-3-carboxamide

>  <Synonyms>


>  <Type>
NON-POLYMER

>  <Formula>
C18 H20 N4 O4

>  <MolecularWeight>
356.376

>  <ModifiedDate>
2018-05-25

>  <Parent>


>  <OneLetterCode>


>  <SubcomponentList>


>  <AmbiguousFlag>
N

>  <InChI>
InChI=1S/C18H20N4O4/c1-20(2)8-9-22-14-10-13(5-6-15(14)26-18(22)25)19-17(24)12-4-7-16(23)21(3)11-12/h4-7,10-11H,8-9H2,1-3H3,(H,19,24)

>  <InChIKey>
RMQWPQCQFPMELT-UHFFFAOYSA-N

>  <SMILES>
CN1C=C(C=CC1=O)C(=O)Nc2ccc3c(c2)N(C(=O)O3)CCN(C)C

$$$$
