3PGL_RZX_A_257


 26 28  0  0  0  0  0  0  0  0999 V2000
    4.2185   13.1260   -5.0924 C   0  0  0  0  0  0  0  0  0  0  0  0
    5.4866   13.9475   -5.1991 C   0  0  0  0  0  0  0  0  0  0  0  0
    6.5260   13.2079   -5.6115 N   0  0  0  0  0  0  0  0  0  0  0  0
    7.7478   13.7265   -5.7786 C   0  0  0  0  0  0  0  0  0  0  0  0
    8.0223   15.0610   -5.4997 C   0  0  0  0  0  0  0  0  0  0  0  0
    6.9849   15.8682   -5.0439 C   0  0  0  0  0  0  0  0  0  0  0  0
    5.6937   15.3153   -4.8818 C   0  0  0  0  0  0  0  0  0  0  0  0
    4.5870   16.2304   -4.3874 C   0  0  0  0  0  0  0  0  0  0  0  0
    7.2572   17.2000   -4.7677 O   0  0  0  0  0  0  0  0  0  0  0  0
    8.4161   17.5867   -4.0193 C   0  0  0  0  0  0  0  0  0  0  0  0
    8.0855   17.4232   -2.5407 C   0  0  0  0  0  0  0  0  0  0  0  0
    8.9540   16.3756   -1.8685 C   0  0  0  0  0  0  0  0  0  0  0  0
    8.1981   15.1588   -1.9029 O   0  0  0  0  0  0  0  0  0  0  0  0
    6.8997   15.3016   -1.3211 C   0  0  0  0  0  0  0  0  0  0  0  0
    4.1298   11.4158   -5.3086 S   0  0  0  0  0  0  0  0  0  0  0  0
    3.8536   10.9383   -3.9004 O   0  0  0  0  0  0  0  0  0  0  0  0
    0.5393   10.4419   -8.8425 C   0  0  0  0  0  0  0  0  0  0  0  0
    1.4759   10.4123   -7.8243 C   0  0  0  0  0  0  0  0  0  0  0  0
    1.7061    9.1450   -7.0851 C   0  0  0  0  0  0  0  0  0  0  0  0
    0.9811    8.0173   -7.4405 C   0  0  0  0  0  0  0  0  0  0  0  0
    0.0513    8.0850   -8.4736 C   0  0  0  0  0  0  0  0  0  0  0  0
   -0.1611    9.2787   -9.1500 C   0  0  0  0  0  0  0  0  0  0  0  0
    2.6533    9.3882   -6.1554 N   0  0  0  0  0  0  0  0  0  0  0  0
    2.9761   10.6902   -6.3297 C   0  0  0  0  0  0  0  0  0  0  0  0
    2.3019   11.3443   -7.2947 N   0  0  0  0  0  0  0  0  0  0  0  0
    3.0263    8.7585   -5.4970 H   0  0  0  0  0  0  0  0  0  0  0  0
 17 18  2  0  0  0
 17 22  1  0  0  0
 18 19  1  0  0  0
 18 25  1  0  0  0
 19 20  2  0  0  0
 19 23  1  0  0  0
 20 21  1  0  0  0
 21 22  2  0  0  0
 23 24  1  0  0  0
 24 25  2  0  0  0
 24 15  1  0  0  0
 15  1  1  0  0  0
 15 16  2  0  0  0
  1  2  1  0  0  0
  2  3  2  0  0  0
  2  7  1  0  0  0
  3  4  1  0  0  0
  4  5  2  0  0  0
  5  6  1  0  0  0
  6  7  2  0  0  0
  6  9  1  0  0  0
  7  8  1  0  0  0
  9 10  1  0  0  0
 10 11  1  0  0  0
 11 12  1  0  0  0
 12 13  1  0  0  0
 13 14  1  0  0  0
 23 26  1  0  0  0
M  END
> <minimizedAffinity>
-7.30965

$$$$
3PGL_RZX_A_257


 26 28  0  0  0  0  0  0  0  0999 V2000
    4.1801   13.1204   -5.0924 C   0  0  0  0  0  0  0  0  0  0  0  0
    5.4360   13.9624   -5.1829 C   0  0  0  0  0  0  0  0  0  0  0  0
    6.4849   13.2473   -5.6138 N   0  0  0  0  0  0  0  0  0  0  0  0
    7.6989   13.7871   -5.7715 C   0  0  0  0  0  0  0  0  0  0  0  0
    7.9547   15.1188   -5.4632 C   0  0  0  0  0  0  0  0  0  0  0  0
    6.9068   15.9005   -4.9873 C   0  0  0  0  0  0  0  0  0  0  0  0
    5.6240   15.3256   -4.8353 C   0  0  0  0  0  0  0  0  0  0  0  0
    4.5055   16.2132   -4.3183 C   0  0  0  0  0  0  0  0  0  0  0  0
    7.1606   17.2295   -4.6817 O   0  0  0  0  0  0  0  0  0  0  0  0
    8.4136   17.6422   -4.1228 C   0  0  0  0  0  0  0  0  0  0  0  0
    8.3105   17.5046   -2.6086 C   0  0  0  0  0  0  0  0  0  0  0  0
    9.1799   16.3824   -2.0716 C   0  0  0  0  0  0  0  0  0  0  0  0
    8.2796   15.3287   -1.7079 O   0  0  0  0  0  0  0  0  0  0  0  0
    7.0276   15.8188   -1.2210 C   0  0  0  0  0  0  0  0  0  0  0  0
    4.1307   11.4022   -5.2497 S   0  0  0  0  0  0  0  0  0  0  0  0
    3.9266   10.9645   -3.8165 O   0  0  0  0  0  0  0  0  0  0  0  0
    0.9570    7.9919   -7.4005 C   0  0  0  0  0  0  0  0  0  0  0  0
    1.6928    9.1008   -7.0217 C   0  0  0  0  0  0  0  0  0  0  0  0
    1.5141   10.3780   -7.7580 C   0  0  0  0  0  0  0  0  0  0  0  0
    0.6049   10.4302   -8.8041 C   0  0  0  0  0  0  0  0  0  0  0  0
   -0.1206    9.2951   -9.1526 C   0  0  0  0  0  0  0  0  0  0  0  0
    0.0634    8.1047   -8.4621 C   0  0  0  0  0  0  0  0  0  0  0  0
    2.3411   11.2847   -7.1970 N   0  0  0  0  0  0  0  0  0  0  0  0
    2.9565   10.6126   -6.1973 C   0  0  0  0  0  0  0  0  0  0  0  0
    2.6182    9.3165   -6.0579 N   0  0  0  0  0  0  0  0  0  0  0  0
    2.4683   12.2256   -7.4573 H   0  0  0  0  0  0  0  0  0  0  0  0
 17 18  2  0  0  0
 17 22  1  0  0  0
 18 19  1  0  0  0
 18 25  1  0  0  0
 19 20  2  0  0  0
 19 23  1  0  0  0
 20 21  1  0  0  0
 21 22  2  0  0  0
 23 24  1  0  0  0
 24 25  2  0  0  0
 24 15  1  0  0  0
 15  1  1  0  0  0
 15 16  2  0  0  0
  1  2  1  0  0  0
  2  3  2  0  0  0
  2  7  1  0  0  0
  3  4  1  0  0  0
  4  5  2  0  0  0
  5  6  1  0  0  0
  6  7  2  0  0  0
  6  9  1  0  0  0
  7  8  1  0  0  0
  9 10  1  0  0  0
 10 11  1  0  0  0
 11 12  1  0  0  0
 12 13  1  0  0  0
 13 14  1  0  0  0
 23 26  1  0  0  0
M  END
> <minimizedAffinity>
-7.21074

$$$$
3PGL_RZX_A_257


 26 28  0  0  0  0  0  0  0  0999 V2000
    2.4901   12.7866   -7.6882 C   0  0  0  0  0  0  0  0  0  0  0  0
    2.4895   11.3244   -7.2929 C   0  0  0  0  0  0  0  0  0  0  0  0
    3.4525   11.0491   -6.4017 N   0  0  0  0  0  0  0  0  0  0  0  0
    3.6375    9.8188   -5.9097 C   0  0  0  0  0  0  0  0  0  0  0  0
    2.8619    8.7404   -6.3213 C   0  0  0  0  0  0  0  0  0  0  0  0
    1.8641    8.9651   -7.2644 C   0  0  0  0  0  0  0  0  0  0  0  0
    1.6670   10.2708   -7.7701 C   0  0  0  0  0  0  0  0  0  0  0  0
    0.5642   10.4760   -8.7939 C   0  0  0  0  0  0  0  0  0  0  0  0
    1.0885    7.8905   -7.6737 O   0  0  0  0  0  0  0  0  0  0  0  0
    1.3699    6.5555   -7.2362 C   0  0  0  0  0  0  0  0  0  0  0  0
    0.1148    6.0184   -6.5589 C   0  0  0  0  0  0  0  0  0  0  0  0
   -0.1258    6.6558   -5.2027 C   0  0  0  0  0  0  0  0  0  0  0  0
   -0.8260    5.6753   -4.4273 O   0  0  0  0  0  0  0  0  0  0  0  0
   -0.3774    4.3433   -4.6906 C   0  0  0  0  0  0  0  0  0  0  0  0
    2.7414   14.1028   -6.6001 S   0  0  0  0  0  0  0  0  0  0  0  0
    1.8538   13.7188   -5.4374 O   0  0  0  0  0  0  0  0  0  0  0  0
    6.8416   16.4027   -4.5439 C   0  0  0  0  0  0  0  0  0  0  0  0
    5.9194   15.5444   -5.1163 C   0  0  0  0  0  0  0  0  0  0  0  0
    6.3348   14.1639   -5.4728 C   0  0  0  0  0  0  0  0  0  0  0  0
    7.6379   13.7652   -5.2142 C   0  0  0  0  0  0  0  0  0  0  0  0
    8.5353   14.6555   -4.6326 C   0  0  0  0  0  0  0  0  0  0  0  0
    8.1365   15.9465   -4.3133 C   0  0  0  0  0  0  0  0  0  0  0  0
    5.2618   13.5473   -6.0105 N   0  0  0  0  0  0  0  0  0  0  0  0
    4.2784   14.4753   -5.9685 C   0  0  0  0  0  0  0  0  0  0  0  0
    4.6171   15.6756   -5.4603 N   0  0  0  0  0  0  0  0  0  0  0  0
    5.2068   12.6272   -6.3562 H   0  0  0  0  0  0  0  0  0  0  0  0
 17 18  2  0  0  0
 17 22  1  0  0  0
 18 19  1  0  0  0
 18 25  1  0  0  0
 19 20  2  0  0  0
 19 23  1  0  0  0
 20 21  1  0  0  0
 21 22  2  0  0  0
 23 24  1  0  0  0
 24 25  2  0  0  0
 24 15  1  0  0  0
 15  1  1  0  0  0
 15 16  2  0  0  0
  1  2  1  0  0  0
  2  3  2  0  0  0
  2  7  1  0  0  0
  3  4  1  0  0  0
  4  5  2  0  0  0
  5  6  1  0  0  0
  6  7  2  0  0  0
  6  9  1  0  0  0
  7  8  1  0  0  0
  9 10  1  0  0  0
 10 11  1  0  0  0
 11 12  1  0  0  0
 12 13  1  0  0  0
 13 14  1  0  0  0
 23 26  1  0  0  0
M  END
> <minimizedAffinity>
-7.01626

$$$$
3PGL_RZX_A_257


 26 28  0  0  0  0  0  0  0  0999 V2000
    5.6307   12.4624   -5.0192 C   0  0  0  0  0  0  0  0  0  0  0  0
    6.8157   13.3909   -4.8515 C   0  0  0  0  0  0  0  0  0  0  0  0
    7.5155   13.5155   -5.9882 N   0  0  0  0  0  0  0  0  0  0  0  0
    8.6043   14.2883   -6.0737 C   0  0  0  0  0  0  0  0  0  0  0  0
    9.0976   14.9838   -4.9751 C   0  0  0  0  0  0  0  0  0  0  0  0
    8.4240   14.8697   -3.7632 C   0  0  0  0  0  0  0  0  0  0  0  0
    7.2670   14.0607   -3.6845 C   0  0  0  0  0  0  0  0  0  0  0  0
    6.5571   13.9664   -2.3452 C   0  0  0  0  0  0  0  0  0  0  0  0
    8.9141   15.5650   -2.6675 O   0  0  0  0  0  0  0  0  0  0  0  0
    8.7788   16.9874   -2.5630 C   0  0  0  0  0  0  0  0  0  0  0  0
    7.9498   17.2813   -1.3186 C   0  0  0  0  0  0  0  0  0  0  0  0
    6.5239   17.6767   -1.6563 C   0  0  0  0  0  0  0  0  0  0  0  0
    6.4431   17.6684   -3.0868 O   0  0  0  0  0  0  0  0  0  0  0  0
    5.1846   17.1851   -3.5636 C   0  0  0  0  0  0  0  0  0  0  0  0
    4.0491   12.9583   -5.5011 S   0  0  0  0  0  0  0  0  0  0  0  0
    4.3477   14.1876   -6.3298 O   0  0  0  0  0  0  0  0  0  0  0  0
    0.6762   11.0599   -8.8698 C   0  0  0  0  0  0  0  0  0  0  0  0
    1.5984   11.2873   -7.8635 C   0  0  0  0  0  0  0  0  0  0  0  0
    2.0124   10.1609   -6.9888 C   0  0  0  0  0  0  0  0  0  0  0  0
    1.4698    8.9035   -7.2086 C   0  0  0  0  0  0  0  0  0  0  0  0
    0.5487    8.7128   -8.2340 C   0  0  0  0  0  0  0  0  0  0  0  0
    0.1629    9.7768   -9.0382 C   0  0  0  0  0  0  0  0  0  0  0  0
    2.9043   10.6480   -6.1011 N   0  0  0  0  0  0  0  0  0  0  0  0
    3.0271   11.9559   -6.4235 C   0  0  0  0  0  0  0  0  0  0  0  0
    2.2691   12.3875   -7.4496 N   0  0  0  0  0  0  0  0  0  0  0  0
    3.3633   10.1601   -5.3796 H   0  0  0  0  0  0  0  0  0  0  0  0
 17 18  2  0  0  0
 17 22  1  0  0  0
 18 19  1  0  0  0
 18 25  1  0  0  0
 19 20  2  0  0  0
 19 23  1  0  0  0
 20 21  1  0  0  0
 21 22  2  0  0  0
 23 24  1  0  0  0
 24 25  2  0  0  0
 24 15  1  0  0  0
 15  1  1  0  0  0
 15 16  2  0  0  0
  1  2  1  0  0  0
  2  3  2  0  0  0
  2  7  1  0  0  0
  3  4  1  0  0  0
  4  5  2  0  0  0
  5  6  1  0  0  0
  6  7  2  0  0  0
  6  9  1  0  0  0
  7  8  1  0  0  0
  9 10  1  0  0  0
 10 11  1  0  0  0
 11 12  1  0  0  0
 12 13  1  0  0  0
 13 14  1  0  0  0
 23 26  1  0  0  0
M  END
> <minimizedAffinity>
-6.92598

$$$$
3PGL_RZX_A_257


 26 28  0  0  0  0  0  0  0  0999 V2000
    3.3629   12.1845   -7.5112 C   0  0  0  0  0  0  0  0  0  0  0  0
    2.2727   11.1839   -7.8344 C   0  0  0  0  0  0  0  0  0  0  0  0
    1.3076   11.7258   -8.5908 N   0  0  0  0  0  0  0  0  0  0  0  0
    0.2437   11.0246   -8.9987 C   0  0  0  0  0  0  0  0  0  0  0  0
    0.0567    9.6963   -8.6320 C   0  0  0  0  0  0  0  0  0  0  0  0
    1.0158    9.0915   -7.8259 C   0  0  0  0  0  0  0  0  0  0  0  0
    2.1434    9.8359   -7.4093 C   0  0  0  0  0  0  0  0  0  0  0  0
    3.1705    9.1382   -6.5348 C   0  0  0  0  0  0  0  0  0  0  0  0
    0.8312    7.7659   -7.4615 O   0  0  0  0  0  0  0  0  0  0  0  0
   -0.3142    7.3501   -6.7079 C   0  0  0  0  0  0  0  0  0  0  0  0
   -0.0227    7.6245   -5.2375 C   0  0  0  0  0  0  0  0  0  0  0  0
   -0.4346    6.4695   -4.3432 C   0  0  0  0  0  0  0  0  0  0  0  0
   -0.2398    5.2822   -5.1214 O   0  0  0  0  0  0  0  0  0  0  0  0
   -0.5314    4.0900   -4.3878 C   0  0  0  0  0  0  0  0  0  0  0  0
    3.4325   13.1380   -6.0740 S   0  0  0  0  0  0  0  0  0  0  0  0
    3.1350   12.1107   -5.0047 O   0  0  0  0  0  0  0  0  0  0  0  0
    6.8272   16.5565   -4.3082 C   0  0  0  0  0  0  0  0  0  0  0  0
    6.1577   15.4750   -4.8530 C   0  0  0  0  0  0  0  0  0  0  0  0
    6.9393   14.3451   -5.4166 C   0  0  0  0  0  0  0  0  0  0  0  0
    8.3246   14.3979   -5.3747 C   0  0  0  0  0  0  0  0  0  0  0  0
    8.9621   15.5004   -4.8140 C   0  0  0  0  0  0  0  0  0  0  0  0
    8.2193   16.5545   -4.2995 C   0  0  0  0  0  0  0  0  0  0  0  0
    6.0557   13.4366   -5.8799 N   0  0  0  0  0  0  0  0  0  0  0  0
    4.8430   13.9694   -5.6056 C   0  0  0  0  0  0  0  0  0  0  0  0
    4.8468   15.1772   -5.0099 N   0  0  0  0  0  0  0  0  0  0  0  0
    6.2503   12.5775   -6.3196 H   0  0  0  0  0  0  0  0  0  0  0  0
 17 18  2  0  0  0
 17 22  1  0  0  0
 18 19  1  0  0  0
 18 25  1  0  0  0
 19 20  2  0  0  0
 19 23  1  0  0  0
 20 21  1  0  0  0
 21 22  2  0  0  0
 23 24  1  0  0  0
 24 25  2  0  0  0
 24 15  1  0  0  0
 15  1  1  0  0  0
 15 16  2  0  0  0
  1  2  1  0  0  0
  2  3  2  0  0  0
  2  7  1  0  0  0
  3  4  1  0  0  0
  4  5  2  0  0  0
  5  6  1  0  0  0
  6  7  2  0  0  0
  6  9  1  0  0  0
  7  8  1  0  0  0
  9 10  1  0  0  0
 10 11  1  0  0  0
 11 12  1  0  0  0
 12 13  1  0  0  0
 13 14  1  0  0  0
 23 26  1  0  0  0
M  END
> <minimizedAffinity>
-6.59811

$$$$
3PGL_RZX_A_257


 26 28  0  0  0  0  0  0  0  0999 V2000
    2.9628   14.0405   -5.0110 C   0  0  0  0  0  0  0  0  0  0  0  0
    3.9321   14.1383   -3.8512 C   0  0  0  0  0  0  0  0  0  0  0  0
    3.6278   13.2730   -2.8735 N   0  0  0  0  0  0  0  0  0  0  0  0
    4.3502   13.1832   -1.7510 C   0  0  0  0  0  0  0  0  0  0  0  0
    5.4434   14.0097   -1.5146 C   0  0  0  0  0  0  0  0  0  0  0  0
    5.7881   14.9442   -2.4859 C   0  0  0  0  0  0  0  0  0  0  0  0
    5.0269   15.0242   -3.6748 C   0  0  0  0  0  0  0  0  0  0  0  0
    5.4385   16.0535   -4.7128 C   0  0  0  0  0  0  0  0  0  0  0  0
    6.8798   15.7674   -2.2520 O   0  0  0  0  0  0  0  0  0  0  0  0
    8.2147   15.2482   -2.2214 C   0  0  0  0  0  0  0  0  0  0  0  0
    9.1298   16.2925   -2.8494 C   0  0  0  0  0  0  0  0  0  0  0  0
    9.1797   16.1798   -4.3621 C   0  0  0  0  0  0  0  0  0  0  0  0
    9.0432   14.7840   -4.6560 O   0  0  0  0  0  0  0  0  0  0  0  0
    8.5435   14.5461   -5.9745 C   0  0  0  0  0  0  0  0  0  0  0  0
    3.2905   13.2424   -6.5061 S   0  0  0  0  0  0  0  0  0  0  0  0
    4.7401   12.8463   -6.3359 O   0  0  0  0  0  0  0  0  0  0  0  0
    1.4611    8.4845   -7.0927 C   0  0  0  0  0  0  0  0  0  0  0  0
    1.7645    9.8329   -7.1589 C   0  0  0  0  0  0  0  0  0  0  0  0
    1.1008   10.6779   -8.1840 C   0  0  0  0  0  0  0  0  0  0  0  0
    0.1841   10.0948   -9.0462 C   0  0  0  0  0  0  0  0  0  0  0  0
   -0.0988    8.7360   -8.9455 C   0  0  0  0  0  0  0  0  0  0  0  0
    0.5363    7.9556   -7.9888 C   0  0  0  0  0  0  0  0  0  0  0  0
    1.5711   11.9339   -8.0357 N   0  0  0  0  0  0  0  0  0  0  0  0
    2.4358   11.8542   -6.9985 C   0  0  0  0  0  0  0  0  0  0  0  0
    2.5955   10.6338   -6.4520 N   0  0  0  0  0  0  0  0  0  0  0  0
    1.3371   12.7307   -8.5644 H   0  0  0  0  0  0  0  0  0  0  0  0
 17 18  2  0  0  0
 17 22  1  0  0  0
 18 19  1  0  0  0
 18 25  1  0  0  0
 19 20  2  0  0  0
 19 23  1  0  0  0
 20 21  1  0  0  0
 21 22  2  0  0  0
 23 24  1  0  0  0
 24 25  2  0  0  0
 24 15  1  0  0  0
 15  1  1  0  0  0
 15 16  2  0  0  0
  1  2  1  0  0  0
  2  3  2  0  0  0
  2  7  1  0  0  0
  3  4  1  0  0  0
  4  5  2  0  0  0
  5  6  1  0  0  0
  6  7  2  0  0  0
  6  9  1  0  0  0
  7  8  1  0  0  0
  9 10  1  0  0  0
 10 11  1  0  0  0
 11 12  1  0  0  0
 12 13  1  0  0  0
 13 14  1  0  0  0
 23 26  1  0  0  0
M  END
> <minimizedAffinity>
-6.47426

$$$$
3PGL_RZX_A_257


 26 28  0  0  0  0  0  0  0  0999 V2000
    1.9715   12.9913   -5.6154 C   0  0  0  0  0  0  0  0  0  0  0  0
    1.5011   12.0414   -6.6974 C   0  0  0  0  0  0  0  0  0  0  0  0
    0.8787   12.6891   -7.6927 N   0  0  0  0  0  0  0  0  0  0  0  0
    0.3807   12.0498   -8.7572 C   0  0  0  0  0  0  0  0  0  0  0  0
    0.4479   10.6662   -8.8791 C   0  0  0  0  0  0  0  0  0  0  0  0
    1.0610    9.9417   -7.8618 C   0  0  0  0  0  0  0  0  0  0  0  0
    1.5957   10.6261   -6.7460 C   0  0  0  0  0  0  0  0  0  0  0  0
    2.2618    9.8000   -5.6595 C   0  0  0  0  0  0  0  0  0  0  0  0
    1.1305    8.5617   -7.9837 O   0  0  0  0  0  0  0  0  0  0  0  0
    0.0010    7.7280   -7.6976 C   0  0  0  0  0  0  0  0  0  0  0  0
    0.4516    6.6682   -6.6994 C   0  0  0  0  0  0  0  0  0  0  0  0
   -0.2388    6.8119   -5.3555 C   0  0  0  0  0  0  0  0  0  0  0  0
   -0.8191    8.1220   -5.3510 O   0  0  0  0  0  0  0  0  0  0  0  0
   -1.6735    8.3409   -4.2254 C   0  0  0  0  0  0  0  0  0  0  0  0
    2.7880   14.4851   -5.9006 S   0  0  0  0  0  0  0  0  0  0  0  0
    2.1101   15.4042   -4.9091 O   0  0  0  0  0  0  0  0  0  0  0  0
    7.8515   13.7286   -5.5587 C   0  0  0  0  0  0  0  0  0  0  0  0
    6.5553   14.2127   -5.5647 C   0  0  0  0  0  0  0  0  0  0  0  0
    6.3022   15.6177   -5.1560 C   0  0  0  0  0  0  0  0  0  0  0  0
    7.3753   16.4148   -4.7859 C   0  0  0  0  0  0  0  0  0  0  0  0
    8.6655   15.8936   -4.7973 C   0  0  0  0  0  0  0  0  0  0  0  0
    8.8869   14.5752   -5.1723 C   0  0  0  0  0  0  0  0  0  0  0  0
    4.9727   15.8297   -5.2470 N   0  0  0  0  0  0  0  0  0  0  0  0
    4.4691   14.6539   -5.6871 C   0  0  0  0  0  0  0  0  0  0  0  0
    5.3597   13.6623   -5.8797 N   0  0  0  0  0  0  0  0  0  0  0  0
    4.4792   16.6559   -5.0394 H   0  0  0  0  0  0  0  0  0  0  0  0
 17 18  2  0  0  0
 17 22  1  0  0  0
 18 19  1  0  0  0
 18 25  1  0  0  0
 19 20  2  0  0  0
 19 23  1  0  0  0
 20 21  1  0  0  0
 21 22  2  0  0  0
 23 24  1  0  0  0
 24 25  2  0  0  0
 24 15  1  0  0  0
 15  1  1  0  0  0
 15 16  2  0  0  0
  1  2  1  0  0  0
  2  3  2  0  0  0
  2  7  1  0  0  0
  3  4  1  0  0  0
  4  5  2  0  0  0
  5  6  1  0  0  0
  6  7  2  0  0  0
  6  9  1  0  0  0
  7  8  1  0  0  0
  9 10  1  0  0  0
 10 11  1  0  0  0
 11 12  1  0  0  0
 12 13  1  0  0  0
 13 14  1  0  0  0
 23 26  1  0  0  0
M  END
> <minimizedAffinity>
-6.32069

$$$$
3PGL_RZX_A_257


 26 28  0  0  0  0  0  0  0  0999 V2000
    3.3957   11.7433   -7.1721 C   0  0  0  0  0  0  0  0  0  0  0  0
    2.4020   10.6339   -7.4481 C   0  0  0  0  0  0  0  0  0  0  0  0
    1.4207   11.0369   -8.2679 N   0  0  0  0  0  0  0  0  0  0  0  0
    0.4314   10.2213   -8.6499 C   0  0  0  0  0  0  0  0  0  0  0  0
    0.3418    8.9120   -8.1900 C   0  0  0  0  0  0  0  0  0  0  0  0
    1.3207    8.4496   -7.3161 C   0  0  0  0  0  0  0  0  0  0  0  0
    2.3697    9.3142   -6.9270 C   0  0  0  0  0  0  0  0  0  0  0  0
    3.4215    8.7702   -5.9761 C   0  0  0  0  0  0  0  0  0  0  0  0
    1.2333    7.1430   -6.8587 O   0  0  0  0  0  0  0  0  0  0  0  0
    0.3992    6.7940   -5.7474 C   0  0  0  0  0  0  0  0  0  0  0  0
   -0.0255    5.3416   -5.9282 C   0  0  0  0  0  0  0  0  0  0  0  0
   -0.5559    4.7322   -4.6434 C   0  0  0  0  0  0  0  0  0  0  0  0
   -0.1364    3.3622   -4.6569 O   0  0  0  0  0  0  0  0  0  0  0  0
    0.3668    2.9287   -3.3906 C   0  0  0  0  0  0  0  0  0  0  0  0
    3.3647   12.7738   -5.7877 S   0  0  0  0  0  0  0  0  0  0  0  0
    2.7498   11.8709   -4.7417 O   0  0  0  0  0  0  0  0  0  0  0  0
    8.0862   14.6166   -4.9875 C   0  0  0  0  0  0  0  0  0  0  0  0
    6.7789   14.1701   -4.9084 C   0  0  0  0  0  0  0  0  0  0  0  0
    6.0919   14.1623   -3.5919 C   0  0  0  0  0  0  0  0  0  0  0  0
    6.7765   14.6123   -2.4727 C   0  0  0  0  0  0  0  0  0  0  0  0
    8.0891   15.0585   -2.5929 C   0  0  0  0  0  0  0  0  0  0  0  0
    8.7228   15.0513   -3.8282 C   0  0  0  0  0  0  0  0  0  0  0  0
    4.8461   13.6837   -3.7912 N   0  0  0  0  0  0  0  0  0  0  0  0
    4.7840   13.4369   -5.1198 C   0  0  0  0  0  0  0  0  0  0  0  0
    5.9023   13.6960   -5.8240 N   0  0  0  0  0  0  0  0  0  0  0  0
    4.1398   13.5451   -3.1195 H   0  0  0  0  0  0  0  0  0  0  0  0
 17 18  2  0  0  0
 17 22  1  0  0  0
 18 19  1  0  0  0
 18 25  1  0  0  0
 19 20  2  0  0  0
 19 23  1  0  0  0
 20 21  1  0  0  0
 21 22  2  0  0  0
 23 24  1  0  0  0
 24 25  2  0  0  0
 24 15  1  0  0  0
 15  1  1  0  0  0
 15 16  2  0  0  0
  1  2  1  0  0  0
  2  3  2  0  0  0
  2  7  1  0  0  0
  3  4  1  0  0  0
  4  5  2  0  0  0
  5  6  1  0  0  0
  6  7  2  0  0  0
  6  9  1  0  0  0
  7  8  1  0  0  0
  9 10  1  0  0  0
 10 11  1  0  0  0
 11 12  1  0  0  0
 12 13  1  0  0  0
 13 14  1  0  0  0
 23 26  1  0  0  0
M  END
> <minimizedAffinity>
-6.27517

$$$$
3PGL_RZX_A_257


 26 28  0  0  0  0  0  0  0  0999 V2000
    2.8021   12.9220   -7.8415 C   0  0  0  0  0  0  0  0  0  0  0  0
    3.5437   13.1682   -6.5439 C   0  0  0  0  0  0  0  0  0  0  0  0
    4.0006   12.0277   -6.0072 N   0  0  0  0  0  0  0  0  0  0  0  0
    4.6874   12.0053   -4.8593 C   0  0  0  0  0  0  0  0  0  0  0  0
    4.9391   13.1642   -4.1329 C   0  0  0  0  0  0  0  0  0  0  0  0
    4.4649   14.3733   -4.6315 C   0  0  0  0  0  0  0  0  0  0  0  0
    3.7507   14.3899   -5.8517 C   0  0  0  0  0  0  0  0  0  0  0  0
    3.2545   15.7302   -6.3652 C   0  0  0  0  0  0  0  0  0  0  0  0
    4.7176   15.5300   -3.9088 O   0  0  0  0  0  0  0  0  0  0  0  0
    6.0161   15.8066   -3.3702 C   0  0  0  0  0  0  0  0  0  0  0  0
    6.8539   16.4258   -4.4825 C   0  0  0  0  0  0  0  0  0  0  0  0
    8.2657   15.8698   -4.5180 C   0  0  0  0  0  0  0  0  0  0  0  0
    8.1245   14.4456   -4.5885 O   0  0  0  0  0  0  0  0  0  0  0  0
    8.0999   13.9615   -5.9338 C   0  0  0  0  0  0  0  0  0  0  0  0
    1.2543   12.1682   -7.9656 S   0  0  0  0  0  0  0  0  0  0  0  0
    1.0348   12.1532   -9.4619 O   0  0  0  0  0  0  0  0  0  0  0  0
    0.0400    7.2075   -7.4706 C   0  0  0  0  0  0  0  0  0  0  0  0
    0.4193    8.5282   -7.3080 C   0  0  0  0  0  0  0  0  0  0  0  0
    0.7657    9.0232   -5.9513 C   0  0  0  0  0  0  0  0  0  0  0  0
    0.7088    8.1448   -4.8795 C   0  0  0  0  0  0  0  0  0  0  0  0
    0.3275    6.8221   -5.0835 C   0  0  0  0  0  0  0  0  0  0  0  0
   -0.0032    6.3749   -6.3556 C   0  0  0  0  0  0  0  0  0  0  0  0
    1.0920   10.3271   -6.0703 N   0  0  0  0  0  0  0  0  0  0  0  0
    0.9657   10.5913   -7.3909 C   0  0  0  0  0  0  0  0  0  0  0  0
    0.5600    9.5664   -8.1646 N   0  0  0  0  0  0  0  0  0  0  0  0
    1.3618   10.9478   -5.3553 H   0  0  0  0  0  0  0  0  0  0  0  0
 17 18  2  0  0  0
 17 22  1  0  0  0
 18 19  1  0  0  0
 18 25  1  0  0  0
 19 20  2  0  0  0
 19 23  1  0  0  0
 20 21  1  0  0  0
 21 22  2  0  0  0
 23 24  1  0  0  0
 24 25  2  0  0  0
 24 15  1  0  0  0
 15  1  1  0  0  0
 15 16  2  0  0  0
  1  2  1  0  0  0
  2  3  2  0  0  0
  2  7  1  0  0  0
  3  4  1  0  0  0
  4  5  2  0  0  0
  5  6  1  0  0  0
  6  7  2  0  0  0
  6  9  1  0  0  0
  7  8  1  0  0  0
  9 10  1  0  0  0
 10 11  1  0  0  0
 11 12  1  0  0  0
 12 13  1  0  0  0
 13 14  1  0  0  0
 23 26  1  0  0  0
M  END
> <minimizedAffinity>
-6.12771

$$$$
3PGL_RZX_A_257


 26 28  0  0  0  0  0  0  0  0999 V2000
    1.5298    8.3185   -6.7037 C   0  0  0  0  0  0  0  0  0  0  0  0
    1.3773    9.6094   -7.4814 C   0  0  0  0  0  0  0  0  0  0  0  0
    0.4081    9.5237   -8.4037 N   0  0  0  0  0  0  0  0  0  0  0  0
    0.0968   10.5469   -9.2075 C   0  0  0  0  0  0  0  0  0  0  0  0
    0.7860   11.7537   -9.1583 C   0  0  0  0  0  0  0  0  0  0  0  0
    1.8192   11.8882   -8.2363 C   0  0  0  0  0  0  0  0  0  0  0  0
    2.1337   10.8063   -7.3821 C   0  0  0  0  0  0  0  0  0  0  0  0
    3.2644   10.9944   -6.3858 C   0  0  0  0  0  0  0  0  0  0  0  0
    2.5056   13.0924   -8.1851 O   0  0  0  0  0  0  0  0  0  0  0  0
    1.8662   14.3322   -8.5119 C   0  0  0  0  0  0  0  0  0  0  0  0
    2.3424   15.3750   -7.5078 C   0  0  0  0  0  0  0  0  0  0  0  0
    3.2565   14.7823   -6.4513 C   0  0  0  0  0  0  0  0  0  0  0  0
    4.2251   15.7964   -6.1571 O   0  0  0  0  0  0  0  0  0  0  0  0
    5.1711   15.3828   -5.1678 C   0  0  0  0  0  0  0  0  0  0  0  0
    0.5592    6.9093   -6.9309 S   0  0  0  0  0  0  0  0  0  0  0  0
    1.4576    6.0483   -7.7905 O   0  0  0  0  0  0  0  0  0  0  0  0
   -0.7724    3.0529   -3.8191 C   0  0  0  0  0  0  0  0  0  0  0  0
   -0.5028    4.2656   -4.4285 C   0  0  0  0  0  0  0  0  0  0  0  0
   -0.8131    5.5263   -3.7074 C   0  0  0  0  0  0  0  0  0  0  0  0
   -1.3586    5.4566   -2.4342 C   0  0  0  0  0  0  0  0  0  0  0  0
   -1.6111    4.2181   -1.8523 C   0  0  0  0  0  0  0  0  0  0  0  0
   -1.3253    3.0471   -2.5414 C   0  0  0  0  0  0  0  0  0  0  0  0
   -0.4618    6.5484   -4.5153 N   0  0  0  0  0  0  0  0  0  0  0  0
    0.0316    5.9523   -5.6248 C   0  0  0  0  0  0  0  0  0  0  0  0
    0.0197    4.6057   -5.6297 N   0  0  0  0  0  0  0  0  0  0  0  0
   -0.5459    7.5129   -4.3369 H   0  0  0  0  0  0  0  0  0  0  0  0
 17 18  2  0  0  0
 17 22  1  0  0  0
 18 19  1  0  0  0
 18 25  1  0  0  0
 19 20  2  0  0  0
 19 23  1  0  0  0
 20 21  1  0  0  0
 21 22  2  0  0  0
 23 24  1  0  0  0
 24 25  2  0  0  0
 24 15  1  0  0  0
 15  1  1  0  0  0
 15 16  2  0  0  0
  1  2  1  0  0  0
  2  3  2  0  0  0
  2  7  1  0  0  0
  3  4  1  0  0  0
  4  5  2  0  0  0
  5  6  1  0  0  0
  6  7  2  0  0  0
  6  9  1  0  0  0
  7  8  1  0  0  0
  9 10  1  0  0  0
 10 11  1  0  0  0
 11 12  1  0  0  0
 12 13  1  0  0  0
 13 14  1  0  0  0
 23 26  1  0  0  0
M  END
> <minimizedAffinity>
-6.10193

$$$$
