4EJL_IOP_A_106


 16 17  0  0  0  0  0  0  0  0999 V2000
  -12.3563   22.7671  -23.2251 N   0  0  0  0  0  0  0  0  0  0  0  0
  -11.3081   21.9122  -23.2796 C   0  0  0  0  0  0  0  0  0  0  0  0
  -11.7490   20.6396  -22.9330 C   0  0  0  0  0  0  0  0  0  0  0  0
  -13.1025   20.7564  -22.6723 C   0  0  0  0  0  0  0  0  0  0  0  0
  -14.0286   19.7925  -22.2897 C   0  0  0  0  0  0  0  0  0  0  0  0
  -15.3503   20.1918  -22.0815 C   0  0  0  0  0  0  0  0  0  0  0  0
  -15.7384   21.5219  -22.2628 C   0  0  0  0  0  0  0  0  0  0  0  0
  -14.7937   22.4757  -22.6451 C   0  0  0  0  0  0  0  0  0  0  0  0
  -13.4665   22.0884  -22.8532 C   0  0  0  0  0  0  0  0  0  0  0  0
  -12.3171   23.7304  -23.4245 H   0  0  0  0  0  0  0  0  0  0  0  0
  -10.9386   19.3697  -22.8547 C   0  0  0  0  0  0  0  0  0  0  0  0
   -9.7377   19.5152  -21.9232 C   0  0  0  0  0  0  0  0  0  0  0  0
   -8.7844   18.3672  -22.1505 C   0  0  0  0  0  0  0  0  0  0  0  0
   -7.7314   18.6090  -22.7660 O   0  0  0  0  0  0  0  0  0  0  0  0
   -9.0621   17.2248  -21.7276 O   0  0  0  0  0  0  0  0  0  0  0  0
   -9.8650   17.0780  -21.2674 H   0  0  0  0  0  0  0  0  0  0  0  0
 13 14  2  0  0  0
 13 15  1  0  0  0
 13 12  1  0  0  0
 12 11  1  0  0  0
 11  3  1  0  0  0
  1  2  1  0  0  0
  1  9  1  0  0  0
  2  3  2  0  0  0
  3  4  1  0  0  0
  4  5  2  0  0  0
  4  9  1  0  0  0
  5  6  1  0  0  0
  6  7  2  0  0  0
  7  8  1  0  0  0
  8  9  2  0  0  0
 15 16  1  0  0  0
  1 10  1  0  0  0
M  END
> <minimizedAffinity>
-5.38535

$$$$
4EJL_IOP_A_106


 16 17  0  0  0  0  0  0  0  0999 V2000
   -9.1878   21.4276  -20.9272 N   0  0  0  0  0  0  0  0  0  0  0  0
  -10.3104   21.2874  -21.6706 C   0  0  0  0  0  0  0  0  0  0  0  0
  -10.3309   20.0077  -22.2147 C   0  0  0  0  0  0  0  0  0  0  0  0
   -9.1825   19.3788  -21.7685 C   0  0  0  0  0  0  0  0  0  0  0  0
   -8.7134   18.0922  -22.0088 C   0  0  0  0  0  0  0  0  0  0  0  0
   -7.4999   17.7126  -21.4316 C   0  0  0  0  0  0  0  0  0  0  0  0
   -6.7786   18.5958  -20.6240 C   0  0  0  0  0  0  0  0  0  0  0  0
   -7.2648   19.8842  -20.3960 C   0  0  0  0  0  0  0  0  0  0  0  0
   -8.4770   20.2768  -20.9714 C   0  0  0  0  0  0  0  0  0  0  0  0
   -8.9293   22.2386  -20.4325 H   0  0  0  0  0  0  0  0  0  0  0  0
  -11.3829   19.3999  -23.1088 C   0  0  0  0  0  0  0  0  0  0  0  0
  -12.4964   20.3917  -23.4363 C   0  0  0  0  0  0  0  0  0  0  0  0
  -13.7175   20.0656  -22.6112 C   0  0  0  0  0  0  0  0  0  0  0  0
  -14.4701   21.0063  -22.3033 O   0  0  0  0  0  0  0  0  0  0  0  0
  -13.9451   18.8879  -22.2615 O   0  0  0  0  0  0  0  0  0  0  0  0
  -13.3565   18.2029  -22.5112 H   0  0  0  0  0  0  0  0  0  0  0  0
 13 14  2  0  0  0
 13 15  1  0  0  0
 13 12  1  0  0  0
 12 11  1  0  0  0
 11  3  1  0  0  0
  1  2  1  0  0  0
  1  9  1  0  0  0
  2  3  2  0  0  0
  3  4  1  0  0  0
  4  5  2  0  0  0
  4  9  1  0  0  0
  5  6  1  0  0  0
  6  7  2  0  0  0
  7  8  1  0  0  0
  8  9  2  0  0  0
 15 16  1  0  0  0
  1 10  1  0  0  0
M  END
> <minimizedAffinity>
-5.23914

$$$$
4EJL_IOP_A_106


 16 17  0  0  0  0  0  0  0  0999 V2000
   -9.3307   18.5526  -21.9084 N   0  0  0  0  0  0  0  0  0  0  0  0
  -10.3934   19.0338  -22.5952 C   0  0  0  0  0  0  0  0  0  0  0  0
  -10.6315   20.3436  -22.1929 C   0  0  0  0  0  0  0  0  0  0  0  0
   -9.6706   20.6373  -21.2420 C   0  0  0  0  0  0  0  0  0  0  0  0
   -9.4497   21.8055  -20.5213 C   0  0  0  0  0  0  0  0  0  0  0  0
   -8.3971   21.8271  -19.6040 C   0  0  0  0  0  0  0  0  0  0  0  0
   -7.5780   20.7099  -19.4206 C   0  0  0  0  0  0  0  0  0  0  0  0
   -7.8168   19.5453  -20.1520 C   0  0  0  0  0  0  0  0  0  0  0  0
   -8.8700   19.5106  -21.0709 C   0  0  0  0  0  0  0  0  0  0  0  0
   -8.9527   17.6485  -22.0032 H   0  0  0  0  0  0  0  0  0  0  0  0
  -11.7084   21.2799  -22.6818 C   0  0  0  0  0  0  0  0  0  0  0  0
  -12.7719   20.5499  -23.4987 C   0  0  0  0  0  0  0  0  0  0  0  0
  -13.8889   20.1062  -22.5856 C   0  0  0  0  0  0  0  0  0  0  0  0
  -14.6888   20.9740  -22.1940 O   0  0  0  0  0  0  0  0  0  0  0  0
  -13.9881   18.9073  -22.2484 O   0  0  0  0  0  0  0  0  0  0  0  0
  -13.3674   18.2794  -22.5623 H   0  0  0  0  0  0  0  0  0  0  0  0
 13 14  2  0  0  0
 13 15  1  0  0  0
 13 12  1  0  0  0
 12 11  1  0  0  0
 11  3  1  0  0  0
  1  2  1  0  0  0
  1  9  1  0  0  0
  2  3  2  0  0  0
  3  4  1  0  0  0
  4  5  2  0  0  0
  4  9  1  0  0  0
  5  6  1  0  0  0
  6  7  2  0  0  0
  7  8  1  0  0  0
  8  9  2  0  0  0
 15 16  1  0  0  0
  1 10  1  0  0  0
M  END
> <minimizedAffinity>
-5.10571

$$$$
4EJL_IOP_A_106


 16 17  0  0  0  0  0  0  0  0999 V2000
  -10.6745   22.9503  -23.3847 N   0  0  0  0  0  0  0  0  0  0  0  0
   -9.4754   22.3362  -23.5175 C   0  0  0  0  0  0  0  0  0  0  0  0
   -9.6568   20.9641  -23.3811 C   0  0  0  0  0  0  0  0  0  0  0  0
  -11.0098   20.7720  -23.1663 C   0  0  0  0  0  0  0  0  0  0  0  0
  -11.7289   19.5982  -22.9706 C   0  0  0  0  0  0  0  0  0  0  0  0
  -13.1068   19.6939  -22.7648 C   0  0  0  0  0  0  0  0  0  0  0  0
  -13.7512   20.9338  -22.7662 C   0  0  0  0  0  0  0  0  0  0  0  0
  -13.0118   22.1013  -22.9623 C   0  0  0  0  0  0  0  0  0  0  0  0
  -11.6311   22.0183  -23.1659 C   0  0  0  0  0  0  0  0  0  0  0  0
  -10.8267   23.9215  -23.4388 H   0  0  0  0  0  0  0  0  0  0  0  0
   -8.6093   19.8812  -23.4540 C   0  0  0  0  0  0  0  0  0  0  0  0
   -8.1093   19.4762  -22.0694 C   0  0  0  0  0  0  0  0  0  0  0  0
   -8.1117   17.9711  -21.9555 C   0  0  0  0  0  0  0  0  0  0  0  0
   -7.0184   17.3866  -22.0516 O   0  0  0  0  0  0  0  0  0  0  0  0
   -9.1831   17.3551  -21.7715 O   0  0  0  0  0  0  0  0  0  0  0  0
   -9.9894   17.8276  -21.7038 H   0  0  0  0  0  0  0  0  0  0  0  0
 13 14  2  0  0  0
 13 15  1  0  0  0
 13 12  1  0  0  0
 12 11  1  0  0  0
 11  3  1  0  0  0
  1  2  1  0  0  0
  1  9  1  0  0  0
  2  3  2  0  0  0
  3  4  1  0  0  0
  4  5  2  0  0  0
  4  9  1  0  0  0
  5  6  1  0  0  0
  6  7  2  0  0  0
  7  8  1  0  0  0
  8  9  2  0  0  0
 15 16  1  0  0  0
  1 10  1  0  0  0
M  END
> <minimizedAffinity>
-5.10402

$$$$
4EJL_IOP_A_106


 16 17  0  0  0  0  0  0  0  0999 V2000
   -9.2616   21.7617  -24.6882 N   0  0  0  0  0  0  0  0  0  0  0  0
  -10.5884   21.8762  -24.9311 C   0  0  0  0  0  0  0  0  0  0  0  0
  -11.2628   20.9000  -24.2056 C   0  0  0  0  0  0  0  0  0  0  0  0
  -10.2953   20.1954  -23.5120 C   0  0  0  0  0  0  0  0  0  0  0  0
  -10.4217   19.1221  -22.6373 C   0  0  0  0  0  0  0  0  0  0  0  0
   -9.2607   18.5878  -22.0746 C   0  0  0  0  0  0  0  0  0  0  0  0
   -8.0042   19.1223  -22.3715 C   0  0  0  0  0  0  0  0  0  0  0  0
   -7.8974   20.1986  -23.2538 C   0  0  0  0  0  0  0  0  0  0  0  0
   -9.0525   20.7397  -23.8261 C   0  0  0  0  0  0  0  0  0  0  0  0
   -8.5596   22.3319  -25.0774 H   0  0  0  0  0  0  0  0  0  0  0  0
  -12.7485   20.6425  -24.1606 C   0  0  0  0  0  0  0  0  0  0  0  0
  -13.3668   21.0961  -22.8404 C   0  0  0  0  0  0  0  0  0  0  0  0
  -14.3174   20.0353  -22.3409 C   0  0  0  0  0  0  0  0  0  0  0  0
  -15.4778   20.3879  -22.0665 O   0  0  0  0  0  0  0  0  0  0  0  0
  -13.9324   18.8533  -22.2155 O   0  0  0  0  0  0  0  0  0  0  0  0
  -13.0504   18.6224  -22.4316 H   0  0  0  0  0  0  0  0  0  0  0  0
 13 14  2  0  0  0
 13 15  1  0  0  0
 13 12  1  0  0  0
 12 11  1  0  0  0
 11  3  1  0  0  0
  1  2  1  0  0  0
  1  9  1  0  0  0
  2  3  2  0  0  0
  3  4  1  0  0  0
  4  5  2  0  0  0
  4  9  1  0  0  0
  5  6  1  0  0  0
  6  7  2  0  0  0
  7  8  1  0  0  0
  8  9  2  0  0  0
 15 16  1  0  0  0
  1 10  1  0  0  0
M  END
> <minimizedAffinity>
-5.05405

$$$$
4EJL_IOP_A_106


 16 17  0  0  0  0  0  0  0  0999 V2000
  -12.5946   19.4707  -22.9178 N   0  0  0  0  0  0  0  0  0  0  0  0
  -11.2897   19.1524  -22.7495 C   0  0  0  0  0  0  0  0  0  0  0  0
  -10.5599   20.3247  -22.5844 C   0  0  0  0  0  0  0  0  0  0  0  0
  -11.4725   21.3619  -22.6539 C   0  0  0  0  0  0  0  0  0  0  0  0
  -11.2796   22.7348  -22.5480 C   0  0  0  0  0  0  0  0  0  0  0  0
  -12.3927   23.5696  -22.6666 C   0  0  0  0  0  0  0  0  0  0  0  0
  -13.6699   23.0424  -22.8749 C   0  0  0  0  0  0  0  0  0  0  0  0
  -13.8432   21.6614  -22.9806 C   0  0  0  0  0  0  0  0  0  0  0  0
  -12.7358   20.8157  -22.8670 C   0  0  0  0  0  0  0  0  0  0  0  0
  -13.3256   18.8257  -23.0553 H   0  0  0  0  0  0  0  0  0  0  0  0
   -9.0740   20.4658  -22.3659 C   0  0  0  0  0  0  0  0  0  0  0  0
   -8.5373   19.4164  -21.3955 C   0  0  0  0  0  0  0  0  0  0  0  0
   -7.6142   18.4768  -22.1327 C   0  0  0  0  0  0  0  0  0  0  0  0
   -6.5944   18.9639  -22.6513 O   0  0  0  0  0  0  0  0  0  0  0  0
   -7.8832   17.2590  -22.2069 O   0  0  0  0  0  0  0  0  0  0  0  0
   -8.6608   16.9255  -21.8041 H   0  0  0  0  0  0  0  0  0  0  0  0
 13 14  2  0  0  0
 13 15  1  0  0  0
 13 12  1  0  0  0
 12 11  1  0  0  0
 11  3  1  0  0  0
  1  2  1  0  0  0
  1  9  1  0  0  0
  2  3  2  0  0  0
  3  4  1  0  0  0
  4  5  2  0  0  0
  4  9  1  0  0  0
  5  6  1  0  0  0
  6  7  2  0  0  0
  7  8  1  0  0  0
  8  9  2  0  0  0
 15 16  1  0  0  0
  1 10  1  0  0  0
M  END
> <minimizedAffinity>
-5.02513

$$$$
4EJL_IOP_A_106


 16 17  0  0  0  0  0  0  0  0999 V2000
   -9.7864   18.8104  -21.9615 N   0  0  0  0  0  0  0  0  0  0  0  0
   -8.5163   19.0697  -22.3515 C   0  0  0  0  0  0  0  0  0  0  0  0
   -8.5493   19.9368  -23.4384 C   0  0  0  0  0  0  0  0  0  0  0  0
   -9.8853   20.1955  -23.6869 C   0  0  0  0  0  0  0  0  0  0  0  0
  -10.4784   20.9984  -24.6547 C   0  0  0  0  0  0  0  0  0  0  0  0
  -11.8724   21.0744  -24.6869 C   0  0  0  0  0  0  0  0  0  0  0  0
  -12.6537   20.3725  -23.7652 C   0  0  0  0  0  0  0  0  0  0  0  0
  -12.0400   19.5698  -22.8022 C   0  0  0  0  0  0  0  0  0  0  0  0
  -10.6452   19.4831  -22.7624 C   0  0  0  0  0  0  0  0  0  0  0  0
  -10.0446   18.2248  -21.2133 H   0  0  0  0  0  0  0  0  0  0  0  0
   -7.3803   20.5018  -24.2063 C   0  0  0  0  0  0  0  0  0  0  0  0
   -6.2974   21.0469  -23.2784 C   0  0  0  0  0  0  0  0  0  0  0  0
   -5.0537   20.2015  -23.4076 C   0  0  0  0  0  0  0  0  0  0  0  0
   -4.2840   20.1602  -22.4319 O   0  0  0  0  0  0  0  0  0  0  0  0
   -4.8253   19.5746  -24.4639 O   0  0  0  0  0  0  0  0  0  0  0  0
   -5.4272   19.6283  -25.1801 H   0  0  0  0  0  0  0  0  0  0  0  0
 13 14  2  0  0  0
 13 15  1  0  0  0
 13 12  1  0  0  0
 12 11  1  0  0  0
 11  3  1  0  0  0
  1  2  1  0  0  0
  1  9  1  0  0  0
  2  3  2  0  0  0
  3  4  1  0  0  0
  4  5  2  0  0  0
  4  9  1  0  0  0
  5  6  1  0  0  0
  6  7  2  0  0  0
  7  8  1  0  0  0
  8  9  2  0  0  0
 15 16  1  0  0  0
  1 10  1  0  0  0
M  END
> <minimizedAffinity>
-4.66131

$$$$
4EJL_IOP_A_106


 16 17  0  0  0  0  0  0  0  0999 V2000
  -13.6866   19.1660  -22.4520 N   0  0  0  0  0  0  0  0  0  0  0  0
  -12.5170   19.5407  -23.0213 C   0  0  0  0  0  0  0  0  0  0  0  0
  -12.5568   20.9087  -23.2688 C   0  0  0  0  0  0  0  0  0  0  0  0
  -13.7909   21.3469  -22.8233 C   0  0  0  0  0  0  0  0  0  0  0  0
  -14.3448   22.6222  -22.8276 C   0  0  0  0  0  0  0  0  0  0  0  0
  -15.6341   22.7845  -22.3164 C   0  0  0  0  0  0  0  0  0  0  0  0
  -16.3476   21.6983  -21.8028 C   0  0  0  0  0  0  0  0  0  0  0  0
  -15.7755   20.4251  -21.8091 C   0  0  0  0  0  0  0  0  0  0  0  0
  -14.4866   20.2497  -22.3216 C   0  0  0  0  0  0  0  0  0  0  0  0
  -13.9186   18.2498  -22.1764 H   0  0  0  0  0  0  0  0  0  0  0  0
  -11.4836   21.7675  -23.8902 C   0  0  0  0  0  0  0  0  0  0  0  0
  -10.4158   20.9299  -24.5898 C   0  0  0  0  0  0  0  0  0  0  0  0
   -9.1400   20.9691  -23.7842 C   0  0  0  0  0  0  0  0  0  0  0  0
   -8.5970   19.8830  -23.5162 O   0  0  0  0  0  0  0  0  0  0  0  0
   -8.6642   22.0624  -23.4108 O   0  0  0  0  0  0  0  0  0  0  0  0
   -9.0997   22.8624  -23.6306 H   0  0  0  0  0  0  0  0  0  0  0  0
 13 14  2  0  0  0
 13 15  1  0  0  0
 13 12  1  0  0  0
 12 11  1  0  0  0
 11  3  1  0  0  0
  1  2  1  0  0  0
  1  9  1  0  0  0
  2  3  2  0  0  0
  3  4  1  0  0  0
  4  5  2  0  0  0
  4  9  1  0  0  0
  5  6  1  0  0  0
  6  7  2  0  0  0
  7  8  1  0  0  0
  8  9  2  0  0  0
 15 16  1  0  0  0
  1 10  1  0  0  0
M  END
> <minimizedAffinity>
-4.65670

$$$$
4EJL_IOP_A_106


 16 17  0  0  0  0  0  0  0  0999 V2000
   -6.8037   17.9771  -21.3032 N   0  0  0  0  0  0  0  0  0  0  0  0
   -7.9046   17.8276  -22.0767 C   0  0  0  0  0  0  0  0  0  0  0  0
   -8.8398   18.7919  -21.7167 C   0  0  0  0  0  0  0  0  0  0  0  0
   -8.2615   19.5321  -20.7013 C   0  0  0  0  0  0  0  0  0  0  0  0
   -8.7587   20.6162  -19.9866 C   0  0  0  0  0  0  0  0  0  0  0  0
   -7.9542   21.1776  -18.9928 C   0  0  0  0  0  0  0  0  0  0  0  0
   -6.6781   20.6734  -18.7284 C   0  0  0  0  0  0  0  0  0  0  0  0
   -6.1972   19.5830  -19.4551 C   0  0  0  0  0  0  0  0  0  0  0  0
   -6.9949   19.0103  -20.4502 C   0  0  0  0  0  0  0  0  0  0  0  0
   -5.9923   17.4219  -21.3532 H   0  0  0  0  0  0  0  0  0  0  0  0
  -10.2124   19.0128  -22.3021 C   0  0  0  0  0  0  0  0  0  0  0  0
  -10.2059   20.0932  -23.3808 C   0  0  0  0  0  0  0  0  0  0  0  0
  -11.4969   20.0315  -24.1605 C   0  0  0  0  0  0  0  0  0  0  0  0
  -11.7992   21.0217  -24.8493 O   0  0  0  0  0  0  0  0  0  0  0  0
  -12.2198   19.0142  -24.1022 O   0  0  0  0  0  0  0  0  0  0  0  0
  -11.9614   18.2855  -23.5728 H   0  0  0  0  0  0  0  0  0  0  0  0
 13 14  2  0  0  0
 13 15  1  0  0  0
 13 12  1  0  0  0
 12 11  1  0  0  0
 11  3  1  0  0  0
  1  2  1  0  0  0
  1  9  1  0  0  0
  2  3  2  0  0  0
  3  4  1  0  0  0
  4  5  2  0  0  0
  4  9  1  0  0  0
  5  6  1  0  0  0
  6  7  2  0  0  0
  7  8  1  0  0  0
  8  9  2  0  0  0
 15 16  1  0  0  0
  1 10  1  0  0  0
M  END
> <minimizedAffinity>
-4.60436

$$$$
4EJL_IOP_A_106


 16 17  0  0  0  0  0  0  0  0999 V2000
  -10.3063   21.5379  -25.1291 N   0  0  0  0  0  0  0  0  0  0  0  0
   -9.5611   20.5966  -24.5036 C   0  0  0  0  0  0  0  0  0  0  0  0
  -10.3022   20.0616  -23.4554 C   0  0  0  0  0  0  0  0  0  0  0  0
  -11.5238   20.7105  -23.4743 C   0  0  0  0  0  0  0  0  0  0  0  0
  -12.6334   20.5573  -22.6507 C   0  0  0  0  0  0  0  0  0  0  0  0
  -13.7504   21.3603  -22.8905 C   0  0  0  0  0  0  0  0  0  0  0  0
  -13.7607   22.2865  -23.9368 C   0  0  0  0  0  0  0  0  0  0  0  0
  -12.6362   22.4274  -24.7516 C   0  0  0  0  0  0  0  0  0  0  0  0
  -11.5107   21.6313  -24.5190 C   0  0  0  0  0  0  0  0  0  0  0  0
  -10.0177   22.0704  -25.9052 H   0  0  0  0  0  0  0  0  0  0  0  0
   -9.8857   18.9863  -22.4829 C   0  0  0  0  0  0  0  0  0  0  0  0
   -8.6358   19.3787  -21.6988 C   0  0  0  0  0  0  0  0  0  0  0  0
   -7.4407   18.6483  -22.2614 C   0  0  0  0  0  0  0  0  0  0  0  0
   -7.3662   17.4245  -22.0538 O   0  0  0  0  0  0  0  0  0  0  0  0
   -6.5707   19.2689  -22.9087 O   0  0  0  0  0  0  0  0  0  0  0  0
   -6.6585   20.1916  -23.0464 H   0  0  0  0  0  0  0  0  0  0  0  0
 13 14  2  0  0  0
 13 15  1  0  0  0
 13 12  1  0  0  0
 12 11  1  0  0  0
 11  3  1  0  0  0
  1  2  1  0  0  0
  1  9  1  0  0  0
  2  3  2  0  0  0
  3  4  1  0  0  0
  4  5  2  0  0  0
  4  9  1  0  0  0
  5  6  1  0  0  0
  6  7  2  0  0  0
  7  8  1  0  0  0
  8  9  2  0  0  0
 15 16  1  0  0  0
  1 10  1  0  0  0
M  END
> <minimizedAffinity>
-4.51163

$$$$
