4J22_AJ7_A_1204


 32 35  0  0  0  0  0  0  0  0999 V2000
    4.8707    9.9834   -6.4342 C   0  0  0  0  0  0  0  0  0  0  0  0
    7.2757   10.2397   -6.4433 C   0  0  0  0  0  0  0  0  0  0  0  0
    6.0142   10.4240   -8.5324 C   0  0  0  0  0  0  0  0  0  0  0  0
    4.8433   10.1716   -7.8049 C   0  0  0  0  0  0  0  0  0  0  0  0
    6.0792    9.9831   -5.7473 C   0  0  0  0  0  0  0  0  0  0  0  0
    7.2664   10.4500   -7.8142 C   0  0  0  0  0  0  0  0  0  0  0  0
    8.8026   10.7581   -8.5622 Cl  0  0  0  0  0  0  0  0  0  0  0  0
    7.2105   10.0837  -14.5667 C   0  0  0  0  0  0  0  0  0  0  0  0
    6.5220   10.4174  -12.3020 C   0  0  0  0  0  0  0  0  0  0  0  0
    5.9279   10.7361   -9.9893 C   0  0  0  0  0  0  0  0  0  0  0  0
    4.8761   13.1800  -14.5216 C   0  0  0  0  0  0  0  0  0  0  0  0
    5.6887   11.9445  -14.1282 C   0  0  0  0  0  0  0  0  0  0  0  0
    6.4435   11.2206  -15.0620 C   0  0  0  0  0  0  0  0  0  0  0  0
    7.8850    9.4003  -15.2732 O   0  0  0  0  0  0  0  0  0  0  0  0
    7.2294    9.7151  -13.2771 N   0  0  0  0  0  0  0  0  0  0  0  0
    6.6554   10.0493  -10.9664 C   0  0  0  0  0  0  0  0  0  0  0  0
    5.1600   11.8654  -10.3547 C   0  0  0  0  0  0  0  0  0  0  0  0
    5.0287   12.2815  -11.6616 C   0  0  0  0  0  0  0  0  0  0  0  0
    5.7298   11.5545  -12.6910 C   0  0  0  0  0  0  0  0  0  0  0  0
    7.7569    8.9273  -13.0118 H   0  0  0  0  0  0  0  0  0  0  0  0
    6.0882    9.8053   -4.2677 C   0  0  0  0  0  0  0  0  0  0  0  0
    6.8177   10.5286   -3.6154 O   0  0  0  0  0  0  0  0  0  0  0  0
    5.2252    8.9903   -3.6388 N   0  0  0  0  0  0  0  0  0  0  0  0
    4.6047    8.4492   -4.1787 H   0  0  0  0  0  0  0  0  0  0  0  0
    5.1727    8.8755   -2.1599 C   0  0  0  0  0  0  0  0  0  0  0  0
    3.6798    8.8537   -1.7438 C   0  0  0  0  0  0  0  0  0  0  0  0
    3.0629    6.8389   -0.3706 C   0  0  0  0  0  0  0  0  0  0  0  0
    2.3081    5.4852   -0.2950 C   0  0  0  0  0  0  0  0  0  0  0  0
    0.6323    6.7444   -1.6237 C   0  0  0  0  0  0  0  0  0  0  0  0
    3.0143    7.5161   -1.7156 N   0  0  0  0  0  0  0  0  0  0  0  0
    1.0810    5.4829   -1.0656 O   0  0  0  0  0  0  0  0  0  0  0  0
    1.7451    7.3691   -2.5024 C   0  0  0  0  0  0  0  0  0  0  0  0
 14  8  2  0  0  0
 13  8  1  0  0  0
 13 12  2  0  0  0
 11 12  1  0  0  0
  8 15  1  0  0  0
 12 19  1  0  0  0
 15  9  1  0  0  0
 19  9  2  0  0  0
 19 18  1  0  0  0
  9 16  1  0  0  0
 18 17  2  0  0  0
 16 10  2  0  0  0
 17 10  1  0  0  0
 10  3  1  0  0  0
  7  6  1  0  0  0
  3  6  2  0  0  0
  3  4  1  0  0  0
  6  2  1  0  0  0
  4  1  2  0  0  0
  2  5  2  0  0  0
  1  5  1  0  0  0
  5 21  1  0  0  0
 21 22  2  0  0  0
 21 23  1  0  0  0
 23 25  1  0  0  0
 25 26  1  0  0  0
 26 30  1  0  0  0
 30 32  1  0  0  0
 30 27  1  0  0  0
 32 29  1  0  0  0
 27 28  1  0  0  0
 29 31  1  0  0  0
 28 31  1  0  0  0
 15 20  1  0  0  0
 23 24  1  0  0  0
M  END
> <minimizedAffinity>
-12.38545

$$$$
4J22_AJ7_A_1204


 32 35  0  0  0  0  0  0  0  0999 V2000
    4.8448    9.9781   -6.4500 C   0  0  0  0  0  0  0  0  0  0  0  0
    7.2461   10.2671   -6.4371 C   0  0  0  0  0  0  0  0  0  0  0  0
    6.0019   10.4294   -8.5384 C   0  0  0  0  0  0  0  0  0  0  0  0
    4.8278   10.1627   -7.8214 C   0  0  0  0  0  0  0  0  0  0  0  0
    6.0466    9.9959   -5.7518 C   0  0  0  0  0  0  0  0  0  0  0  0
    7.2469   10.4741   -7.8085 C   0  0  0  0  0  0  0  0  0  0  0  0
    8.7857   10.8014   -8.5427 Cl  0  0  0  0  0  0  0  0  0  0  0  0
    7.2494   10.0812  -14.5619 C   0  0  0  0  0  0  0  0  0  0  0  0
    6.5402   10.4161  -12.3037 C   0  0  0  0  0  0  0  0  0  0  0  0
    5.9252   10.7369   -9.9968 C   0  0  0  0  0  0  0  0  0  0  0  0
    4.8926   13.1608  -14.5442 C   0  0  0  0  0  0  0  0  0  0  0  0
    5.7109   11.9322  -14.1409 C   0  0  0  0  0  0  0  0  0  0  0  0
    6.4782   11.2112  -15.0666 C   0  0  0  0  0  0  0  0  0  0  0  0
    7.9344    9.4006  -15.2610 O   0  0  0  0  0  0  0  0  0  0  0  0
    7.2604    9.7162  -13.2711 N   0  0  0  0  0  0  0  0  0  0  0  0
    6.6654   10.0526  -10.9661 C   0  0  0  0  0  0  0  0  0  0  0  0
    5.1523   11.8596  -10.3715 C   0  0  0  0  0  0  0  0  0  0  0  0
    5.0286   12.2713  -11.6806 C   0  0  0  0  0  0  0  0  0  0  0  0
    5.7432   11.5465  -12.7023 C   0  0  0  0  0  0  0  0  0  0  0  0
    7.7913    8.9329  -12.9994 H   0  0  0  0  0  0  0  0  0  0  0  0
    6.0441    9.8216   -4.2717 C   0  0  0  0  0  0  0  0  0  0  0  0
    6.7631   10.5513   -3.6149 O   0  0  0  0  0  0  0  0  0  0  0  0
    5.1810    9.0025   -3.6482 N   0  0  0  0  0  0  0  0  0  0  0  0
    4.5687    8.4561   -4.1921 H   0  0  0  0  0  0  0  0  0  0  0  0
    5.1166    8.8909   -2.1695 C   0  0  0  0  0  0  0  0  0  0  0  0
    3.6922    9.3145   -1.7288 C   0  0  0  0  0  0  0  0  0  0  0  0
    4.3929   11.7078   -1.4017 C   0  0  0  0  0  0  0  0  0  0  0  0
    4.0864   13.2089   -1.6485 C   0  0  0  0  0  0  0  0  0  0  0  0
    3.3462   12.3360   -3.8506 C   0  0  0  0  0  0  0  0  0  0  0  0
    3.3397   10.7558   -1.9062 N   0  0  0  0  0  0  0  0  0  0  0  0
    3.4419   13.4479   -2.9241 O   0  0  0  0  0  0  0  0  0  0  0  0
    2.6369   11.1347   -3.1766 C   0  0  0  0  0  0  0  0  0  0  0  0
 14  8  2  0  0  0
 13  8  1  0  0  0
 13 12  2  0  0  0
 11 12  1  0  0  0
  8 15  1  0  0  0
 12 19  1  0  0  0
 15  9  1  0  0  0
 19  9  2  0  0  0
 19 18  1  0  0  0
  9 16  1  0  0  0
 18 17  2  0  0  0
 16 10  2  0  0  0
 17 10  1  0  0  0
 10  3  1  0  0  0
  7  6  1  0  0  0
  3  6  2  0  0  0
  3  4  1  0  0  0
  6  2  1  0  0  0
  4  1  2  0  0  0
  2  5  2  0  0  0
  1  5  1  0  0  0
  5 21  1  0  0  0
 21 22  2  0  0  0
 21 23  1  0  0  0
 23 25  1  0  0  0
 25 26  1  0  0  0
 26 30  1  0  0  0
 30 32  1  0  0  0
 30 27  1  0  0  0
 32 29  1  0  0  0
 27 28  1  0  0  0
 29 31  1  0  0  0
 28 31  1  0  0  0
 15 20  1  0  0  0
 23 24  1  0  0  0
M  END
> <minimizedAffinity>
-12.28232

$$$$
4J22_AJ7_A_1204


 32 35  0  0  0  0  0  0  0  0999 V2000
    4.8502    9.8970   -6.4872 C   0  0  0  0  0  0  0  0  0  0  0  0
    7.2167   10.3937   -6.4299 C   0  0  0  0  0  0  0  0  0  0  0  0
    6.0031   10.4451   -8.5547 C   0  0  0  0  0  0  0  0  0  0  0  0
    4.8433   10.0781   -7.8591 C   0  0  0  0  0  0  0  0  0  0  0  0
    6.0325   10.0199   -5.7666 C   0  0  0  0  0  0  0  0  0  0  0  0
    7.2254   10.5986   -7.8016 C   0  0  0  0  0  0  0  0  0  0  0  0
    8.7437   11.0577   -8.5077 Cl  0  0  0  0  0  0  0  0  0  0  0  0
    7.2653   10.0685  -14.5734 C   0  0  0  0  0  0  0  0  0  0  0  0
    6.5494   10.4126  -12.3187 C   0  0  0  0  0  0  0  0  0  0  0  0
    5.9276   10.7434  -10.0151 C   0  0  0  0  0  0  0  0  0  0  0  0
    4.8896   13.1336  -14.5791 C   0  0  0  0  0  0  0  0  0  0  0  0
    5.7146   11.9125  -14.1666 C   0  0  0  0  0  0  0  0  0  0  0  0
    6.4883   11.1907  -15.0864 C   0  0  0  0  0  0  0  0  0  0  0  0
    7.9560    9.3881  -15.2670 O   0  0  0  0  0  0  0  0  0  0  0  0
    7.2759    9.7113  -13.2804 N   0  0  0  0  0  0  0  0  0  0  0  0
    6.6741   10.0580  -10.9787 C   0  0  0  0  0  0  0  0  0  0  0  0
    5.1485   11.8591  -10.3981 C   0  0  0  0  0  0  0  0  0  0  0  0
    5.0250   12.2621  -11.7099 C   0  0  0  0  0  0  0  0  0  0  0  0
    5.7462   11.5356  -12.7257 C   0  0  0  0  0  0  0  0  0  0  0  0
    7.8111    8.9330  -13.0029 H   0  0  0  0  0  0  0  0  0  0  0  0
    6.0172    9.8475   -4.2863 C   0  0  0  0  0  0  0  0  0  0  0  0
    5.3283    8.9554   -3.8278 O   0  0  0  0  0  0  0  0  0  0  0  0
    6.8374   10.5371   -3.4762 N   0  0  0  0  0  0  0  0  0  0  0  0
    7.4274   11.2203   -3.8689 H   0  0  0  0  0  0  0  0  0  0  0  0
    6.8868   10.3067   -2.0107 C   0  0  0  0  0  0  0  0  0  0  0  0
    8.0764   11.1250   -1.4471 C   0  0  0  0  0  0  0  0  0  0  0  0
    8.3032   13.5703   -1.9902 C   0  0  0  0  0  0  0  0  0  0  0  0
    8.9708   14.6617   -2.8684 C   0  0  0  0  0  0  0  0  0  0  0  0
   10.9416   13.1776   -2.5996 C   0  0  0  0  0  0  0  0  0  0  0  0
    8.6676   12.1546   -2.3546 N   0  0  0  0  0  0  0  0  0  0  0  0
   10.3344   14.3331   -3.2321 O   0  0  0  0  0  0  0  0  0  0  0  0
   10.0702   11.9179   -2.8324 C   0  0  0  0  0  0  0  0  0  0  0  0
 14  8  2  0  0  0
 13  8  1  0  0  0
 13 12  2  0  0  0
 11 12  1  0  0  0
  8 15  1  0  0  0
 12 19  1  0  0  0
 15  9  1  0  0  0
 19  9  2  0  0  0
 19 18  1  0  0  0
  9 16  1  0  0  0
 18 17  2  0  0  0
 16 10  2  0  0  0
 17 10  1  0  0  0
 10  3  1  0  0  0
  7  6  1  0  0  0
  3  6  2  0  0  0
  3  4  1  0  0  0
  6  2  1  0  0  0
  4  1  2  0  0  0
  2  5  2  0  0  0
  1  5  1  0  0  0
  5 21  1  0  0  0
 21 22  2  0  0  0
 21 23  1  0  0  0
 23 25  1  0  0  0
 25 26  1  0  0  0
 26 30  1  0  0  0
 30 32  1  0  0  0
 30 27  1  0  0  0
 32 29  1  0  0  0
 27 28  1  0  0  0
 29 31  1  0  0  0
 28 31  1  0  0  0
 15 20  1  0  0  0
 23 24  1  0  0  0
M  END
> <minimizedAffinity>
-12.16317

$$$$
4J22_AJ7_A_1204


 32 35  0  0  0  0  0  0  0  0999 V2000
    4.8583    9.8981   -6.4285 C   0  0  0  0  0  0  0  0  0  0  0  0
    7.2486   10.2663   -6.4086 C   0  0  0  0  0  0  0  0  0  0  0  0
    6.0031   10.4054   -8.5108 C   0  0  0  0  0  0  0  0  0  0  0  0
    4.8374   10.0938   -7.7983 C   0  0  0  0  0  0  0  0  0  0  0  0
    6.0577    9.9496   -5.7279 C   0  0  0  0  0  0  0  0  0  0  0  0
    7.2448   10.4850   -7.7782 C   0  0  0  0  0  0  0  0  0  0  0  0
    8.7731   10.8694   -8.5067 Cl  0  0  0  0  0  0  0  0  0  0  0  0
    7.2370   10.1164  -14.5402 C   0  0  0  0  0  0  0  0  0  0  0  0
    6.5306   10.4263  -12.2776 C   0  0  0  0  0  0  0  0  0  0  0  0
    5.9186   10.7227   -9.9667 C   0  0  0  0  0  0  0  0  0  0  0  0
    4.8445   13.1680  -14.4930 C   0  0  0  0  0  0  0  0  0  0  0  0
    5.6782   11.9461  -14.1011 C   0  0  0  0  0  0  0  0  0  0  0  0
    6.4513   11.2410  -15.0343 C   0  0  0  0  0  0  0  0  0  0  0  0
    7.9279    9.4491  -15.2463 O   0  0  0  0  0  0  0  0  0  0  0  0
    7.2561    9.7420  -13.2522 N   0  0  0  0  0  0  0  0  0  0  0  0
    6.6640   10.0544  -10.9430 C   0  0  0  0  0  0  0  0  0  0  0  0
    5.1315   11.8391  -10.3308 C   0  0  0  0  0  0  0  0  0  0  0  0
    4.9992   12.2589  -11.6365 C   0  0  0  0  0  0  0  0  0  0  0  0
    5.7192   11.5501  -12.6655 C   0  0  0  0  0  0  0  0  0  0  0  0
    7.7969    8.9630  -12.9878 H   0  0  0  0  0  0  0  0  0  0  0  0
    6.0586    9.7626   -4.2493 C   0  0  0  0  0  0  0  0  0  0  0  0
    6.8665   10.3992   -3.5990 O   0  0  0  0  0  0  0  0  0  0  0  0
    5.1177    9.0412   -3.6179 N   0  0  0  0  0  0  0  0  0  0  0  0
    4.4386    8.5733   -4.1556 H   0  0  0  0  0  0  0  0  0  0  0  0
    5.0642    8.9235   -2.1392 C   0  0  0  0  0  0  0  0  0  0  0  0
    4.0557    7.7982   -1.7944 C   0  0  0  0  0  0  0  0  0  0  0  0
    6.0238    6.5768   -0.8142 C   0  0  0  0  0  0  0  0  0  0  0  0
    6.5433    5.5500    0.2267 C   0  0  0  0  0  0  0  0  0  0  0  0
    4.8250    6.6438    1.6445 C   0  0  0  0  0  0  0  0  0  0  0  0
    4.5272    6.7485   -0.8410 N   0  0  0  0  0  0  0  0  0  0  0  0
    5.7929    5.5783    1.4660 O   0  0  0  0  0  0  0  0  0  0  0  0
    3.8105    6.6496    0.4735 C   0  0  0  0  0  0  0  0  0  0  0  0
 14  8  2  0  0  0
 13  8  1  0  0  0
 13 12  2  0  0  0
 11 12  1  0  0  0
  8 15  1  0  0  0
 12 19  1  0  0  0
 15  9  1  0  0  0
 19  9  2  0  0  0
 19 18  1  0  0  0
  9 16  1  0  0  0
 18 17  2  0  0  0
 16 10  2  0  0  0
 17 10  1  0  0  0
 10  3  1  0  0  0
  7  6  1  0  0  0
  3  6  2  0  0  0
  3  4  1  0  0  0
  6  2  1  0  0  0
  4  1  2  0  0  0
  2  5  2  0  0  0
  1  5  1  0  0  0
  5 21  1  0  0  0
 21 22  2  0  0  0
 21 23  1  0  0  0
 23 25  1  0  0  0
 25 26  1  0  0  0
 26 30  1  0  0  0
 30 32  1  0  0  0
 30 27  1  0  0  0
 32 29  1  0  0  0
 27 28  1  0  0  0
 29 31  1  0  0  0
 28 31  1  0  0  0
 15 20  1  0  0  0
 23 24  1  0  0  0
M  END
> <minimizedAffinity>
-11.99371

$$$$
4J22_AJ7_A_1204


 32 35  0  0  0  0  0  0  0  0999 V2000
    4.7301   10.3491   -6.3783 C   0  0  0  0  0  0  0  0  0  0  0  0
    7.1382   10.1246   -6.4060 C   0  0  0  0  0  0  0  0  0  0  0  0
    5.9170   10.5037   -8.4929 C   0  0  0  0  0  0  0  0  0  0  0  0
    4.7267   10.5054   -7.7533 C   0  0  0  0  0  0  0  0  0  0  0  0
    5.9216   10.1267   -5.6977 C   0  0  0  0  0  0  0  0  0  0  0  0
    7.1569   10.2991   -7.7818 C   0  0  0  0  0  0  0  0  0  0  0  0
    8.7161   10.2792   -8.5453 Cl  0  0  0  0  0  0  0  0  0  0  0  0
    7.3901   10.1385  -14.4642 C   0  0  0  0  0  0  0  0  0  0  0  0
    6.5884   10.4697  -12.2366 C   0  0  0  0  0  0  0  0  0  0  0  0
    5.8794   10.7911   -9.9569 C   0  0  0  0  0  0  0  0  0  0  0  0
    4.9102   13.1181  -14.5684 C   0  0  0  0  0  0  0  0  0  0  0  0
    5.7632   11.9291  -14.1210 C   0  0  0  0  0  0  0  0  0  0  0  0
    6.5918   11.2299  -15.0099 C   0  0  0  0  0  0  0  0  0  0  0  0
    8.1268    9.4790  -15.1301 O   0  0  0  0  0  0  0  0  0  0  0  0
    7.3704    9.7891  -13.1692 N   0  0  0  0  0  0  0  0  0  0  0  0
    6.6809   10.1270  -10.8908 C   0  0  0  0  0  0  0  0  0  0  0  0
    5.0750   11.8765  -10.3728 C   0  0  0  0  0  0  0  0  0  0  0  0
    4.9810   12.2677  -11.6906 C   0  0  0  0  0  0  0  0  0  0  0  0
    5.7603   11.5615  -12.6773 C   0  0  0  0  0  0  0  0  0  0  0  0
    7.9230    9.0316  -12.8691 H   0  0  0  0  0  0  0  0  0  0  0  0
    5.9102    9.9867   -4.2140 C   0  0  0  0  0  0  0  0  0  0  0  0
    5.7185    8.8774   -3.7519 O   0  0  0  0  0  0  0  0  0  0  0  0
    6.2447   10.9986   -3.3963 N   0  0  0  0  0  0  0  0  0  0  0  0
    6.4481   11.8782   -3.7891 H   0  0  0  0  0  0  0  0  0  0  0  0
    6.3187   10.8395   -1.9224 C   0  0  0  0  0  0  0  0  0  0  0  0
    4.9611   11.2988   -1.3322 C   0  0  0  0  0  0  0  0  0  0  0  0
    2.9210    9.9345   -1.8823 C   0  0  0  0  0  0  0  0  0  0  0  0
    1.9826    8.7627   -1.4895 C   0  0  0  0  0  0  0  0  0  0  0  0
    4.1367    7.7176   -0.8362 C   0  0  0  0  0  0  0  0  0  0  0  0
    4.0237   10.2199   -0.8961 N   0  0  0  0  0  0  0  0  0  0  0  0
    2.6870    7.6693   -0.8509 O   0  0  0  0  0  0  0  0  0  0  0  0
    4.6237    9.0392   -0.1907 C   0  0  0  0  0  0  0  0  0  0  0  0
 14  8  2  0  0  0
 13  8  1  0  0  0
 13 12  2  0  0  0
 11 12  1  0  0  0
  8 15  1  0  0  0
 12 19  1  0  0  0
 15  9  1  0  0  0
 19  9  2  0  0  0
 19 18  1  0  0  0
  9 16  1  0  0  0
 18 17  2  0  0  0
 16 10  2  0  0  0
 17 10  1  0  0  0
 10  3  1  0  0  0
  7  6  1  0  0  0
  3  6  2  0  0  0
  3  4  1  0  0  0
  6  2  1  0  0  0
  4  1  2  0  0  0
  2  5  2  0  0  0
  1  5  1  0  0  0
  5 21  1  0  0  0
 21 22  2  0  0  0
 21 23  1  0  0  0
 23 25  1  0  0  0
 25 26  1  0  0  0
 26 30  1  0  0  0
 30 32  1  0  0  0
 30 27  1  0  0  0
 32 29  1  0  0  0
 27 28  1  0  0  0
 29 31  1  0  0  0
 28 31  1  0  0  0
 15 20  1  0  0  0
 23 24  1  0  0  0
M  END
> <minimizedAffinity>
-11.67009

$$$$
4J22_AJ7_A_1204


 32 35  0  0  0  0  0  0  0  0999 V2000
    4.6985   10.0782   -6.6399 C   0  0  0  0  0  0  0  0  0  0  0  0
    7.1157   10.0815   -6.5556 C   0  0  0  0  0  0  0  0  0  0  0  0
    5.9613   10.4796   -8.6767 C   0  0  0  0  0  0  0  0  0  0  0  0
    4.7435   10.3224   -8.0013 C   0  0  0  0  0  0  0  0  0  0  0  0
    5.8731    9.9242   -5.9128 C   0  0  0  0  0  0  0  0  0  0  0  0
    7.1810   10.3459   -7.9156 C   0  0  0  0  0  0  0  0  0  0  0  0
    8.7684   10.5209   -8.5965 Cl  0  0  0  0  0  0  0  0  0  0  0  0
    4.4422   13.4798  -13.8392 C   0  0  0  0  0  0  0  0  0  0  0  0
    5.2488   12.1728  -12.0073 C   0  0  0  0  0  0  0  0  0  0  0  0
    5.9639   10.8566  -10.1207 C   0  0  0  0  0  0  0  0  0  0  0  0
    6.7348   10.7235  -15.3177 C   0  0  0  0  0  0  0  0  0  0  0  0
    5.9611   11.6400  -14.3673 C   0  0  0  0  0  0  0  0  0  0  0  0
    5.1661   12.6966  -14.8336 C   0  0  0  0  0  0  0  0  0  0  0  0
    3.7393   14.3991  -14.1252 O   0  0  0  0  0  0  0  0  0  0  0  0
    4.4986   13.2293  -12.5225 N   0  0  0  0  0  0  0  0  0  0  0  0
    5.1933   11.8998  -10.6436 C   0  0  0  0  0  0  0  0  0  0  0  0
    6.6958   10.0218  -10.9959 C   0  0  0  0  0  0  0  0  0  0  0  0
    6.7501   10.2390  -12.3554 C   0  0  0  0  0  0  0  0  0  0  0  0
    6.0035   11.3420  -12.9084 C   0  0  0  0  0  0  0  0  0  0  0  0
    3.9968   13.8071  -11.9032 H   0  0  0  0  0  0  0  0  0  0  0  0
    5.8068    9.6878   -4.4428 C   0  0  0  0  0  0  0  0  0  0  0  0
    5.3628    8.6212   -4.0608 O   0  0  0  0  0  0  0  0  0  0  0  0
    6.3476   10.5388   -3.5552 N   0  0  0  0  0  0  0  0  0  0  0  0
    6.7502   11.3747   -3.8844 H   0  0  0  0  0  0  0  0  0  0  0  0
    6.3604   10.2652   -2.0964 C   0  0  0  0  0  0  0  0  0  0  0  0
    5.7340   11.4909   -1.3838 C   0  0  0  0  0  0  0  0  0  0  0  0
    4.3318   12.9778   -2.8497 C   0  0  0  0  0  0  0  0  0  0  0  0
    2.9183   13.3456   -3.3735 C   0  0  0  0  0  0  0  0  0  0  0  0
    2.6488   10.8787   -3.3477 C   0  0  0  0  0  0  0  0  0  0  0  0
    4.3580   11.8826   -1.8154 N   0  0  0  0  0  0  0  0  0  0  0  0
    2.0543   12.1911   -3.5158 O   0  0  0  0  0  0  0  0  0  0  0  0
    3.3523   10.7800   -1.9708 C   0  0  0  0  0  0  0  0  0  0  0  0
 14  8  2  0  0  0
 13  8  1  0  0  0
 13 12  2  0  0  0
 11 12  1  0  0  0
  8 15  1  0  0  0
 12 19  1  0  0  0
 15  9  1  0  0  0
 19  9  2  0  0  0
 19 18  1  0  0  0
  9 16  1  0  0  0
 18 17  2  0  0  0
 16 10  2  0  0  0
 17 10  1  0  0  0
 10  3  1  0  0  0
  7  6  1  0  0  0
  3  6  2  0  0  0
  3  4  1  0  0  0
  6  2  1  0  0  0
  4  1  2  0  0  0
  2  5  2  0  0  0
  1  5  1  0  0  0
  5 21  1  0  0  0
 21 22  2  0  0  0
 21 23  1  0  0  0
 23 25  1  0  0  0
 25 26  1  0  0  0
 26 30  1  0  0  0
 30 32  1  0  0  0
 30 27  1  0  0  0
 32 29  1  0  0  0
 27 28  1  0  0  0
 29 31  1  0  0  0
 28 31  1  0  0  0
 15 20  1  0  0  0
 23 24  1  0  0  0
M  END
> <minimizedAffinity>
-11.26297

$$$$
4J22_AJ7_A_1204


 32 35  0  0  0  0  0  0  0  0999 V2000
    4.7720    9.9878   -6.6225 C   0  0  0  0  0  0  0  0  0  0  0  0
    7.1731   10.2538   -6.5038 C   0  0  0  0  0  0  0  0  0  0  0  0
    6.0134   10.5183   -8.6428 C   0  0  0  0  0  0  0  0  0  0  0  0
    4.8102   10.2317   -7.9841 C   0  0  0  0  0  0  0  0  0  0  0  0
    5.9457    9.9642   -5.8780 C   0  0  0  0  0  0  0  0  0  0  0  0
    7.2292   10.5199   -7.8638 C   0  0  0  0  0  0  0  0  0  0  0  0
    8.7980   10.8645   -8.5229 Cl  0  0  0  0  0  0  0  0  0  0  0  0
    4.4018   13.4770  -13.8012 C   0  0  0  0  0  0  0  0  0  0  0  0
    5.2444   12.1883  -11.9725 C   0  0  0  0  0  0  0  0  0  0  0  0
    5.9962   10.8894  -10.0883 C   0  0  0  0  0  0  0  0  0  0  0  0
    6.7152   10.7451  -15.2924 C   0  0  0  0  0  0  0  0  0  0  0  0
    5.9393   11.6553  -14.3377 C   0  0  0  0  0  0  0  0  0  0  0  0
    5.1257   12.6994  -14.7999 C   0  0  0  0  0  0  0  0  0  0  0  0
    3.6839   14.3859  -14.0835 O   0  0  0  0  0  0  0  0  0  0  0  0
    4.4751   13.2328  -12.4841 N   0  0  0  0  0  0  0  0  0  0  0  0
    5.2065   11.9202  -10.6073 C   0  0  0  0  0  0  0  0  0  0  0  0
    6.7300   10.0607  -10.9676 C   0  0  0  0  0  0  0  0  0  0  0  0
    6.7674   10.2730  -12.3285 C   0  0  0  0  0  0  0  0  0  0  0  0
    6.0007   11.3638  -12.8781 C   0  0  0  0  0  0  0  0  0  0  0  0
    3.9721   13.8065  -11.8619 H   0  0  0  0  0  0  0  0  0  0  0  0
    5.8840    9.7261   -4.4081 C   0  0  0  0  0  0  0  0  0  0  0  0
    5.2129    8.7905   -4.0143 O   0  0  0  0  0  0  0  0  0  0  0  0
    6.6485   10.4080   -3.5392 N   0  0  0  0  0  0  0  0  0  0  0  0
    7.2263   11.1286   -3.8800 H   0  0  0  0  0  0  0  0  0  0  0  0
    6.6541   10.1149   -2.0841 C   0  0  0  0  0  0  0  0  0  0  0  0
    7.7130   11.0348   -1.4245 C   0  0  0  0  0  0  0  0  0  0  0  0
    9.9046   11.7637   -2.4200 C   0  0  0  0  0  0  0  0  0  0  0  0
   11.4140   11.4680   -2.6254 C   0  0  0  0  0  0  0  0  0  0  0  0
   11.2221   10.6852   -0.2781 C   0  0  0  0  0  0  0  0  0  0  0  0
    9.1452   10.6937   -1.6796 N   0  0  0  0  0  0  0  0  0  0  0  0
   12.0165   10.8061   -1.4858 O   0  0  0  0  0  0  0  0  0  0  0  0
    9.8802    9.9748   -0.5867 C   0  0  0  0  0  0  0  0  0  0  0  0
 14  8  2  0  0  0
 13  8  1  0  0  0
 13 12  2  0  0  0
 11 12  1  0  0  0
  8 15  1  0  0  0
 12 19  1  0  0  0
 15  9  1  0  0  0
 19  9  2  0  0  0
 19 18  1  0  0  0
  9 16  1  0  0  0
 18 17  2  0  0  0
 16 10  2  0  0  0
 17 10  1  0  0  0
 10  3  1  0  0  0
  7  6  1  0  0  0
  3  6  2  0  0  0
  3  4  1  0  0  0
  6  2  1  0  0  0
  4  1  2  0  0  0
  2  5  2  0  0  0
  1  5  1  0  0  0
  5 21  1  0  0  0
 21 22  2  0  0  0
 21 23  1  0  0  0
 23 25  1  0  0  0
 25 26  1  0  0  0
 26 30  1  0  0  0
 30 32  1  0  0  0
 30 27  1  0  0  0
 32 29  1  0  0  0
 27 28  1  0  0  0
 29 31  1  0  0  0
 28 31  1  0  0  0
 15 20  1  0  0  0
 23 24  1  0  0  0
M  END
> <minimizedAffinity>
-10.95317

$$$$
4J22_AJ7_A_1204


 32 35  0  0  0  0  0  0  0  0999 V2000
    4.7429    9.6965   -6.7406 C   0  0  0  0  0  0  0  0  0  0  0  0
    7.1045   10.1765   -6.5348 C   0  0  0  0  0  0  0  0  0  0  0  0
    5.9892   10.4093   -8.7008 C   0  0  0  0  0  0  0  0  0  0  0  0
    4.7987    9.9908   -8.0916 C   0  0  0  0  0  0  0  0  0  0  0  0
    5.8912    9.7540   -5.9592 C   0  0  0  0  0  0  0  0  0  0  0  0
    7.1760   10.4945   -7.8829 C   0  0  0  0  0  0  0  0  0  0  0  0
    8.7251   11.0041   -8.4786 Cl  0  0  0  0  0  0  0  0  0  0  0  0
    4.3885   13.5187  -13.7732 C   0  0  0  0  0  0  0  0  0  0  0  0
    5.2301   12.1800  -11.9804 C   0  0  0  0  0  0  0  0  0  0  0  0
    5.9806   10.8281  -10.1333 C   0  0  0  0  0  0  0  0  0  0  0  0
    6.7486   10.8658  -15.3323 C   0  0  0  0  0  0  0  0  0  0  0  0
    5.9530   11.7343  -14.3553 C   0  0  0  0  0  0  0  0  0  0  0  0
    5.1309   12.7835  -14.7903 C   0  0  0  0  0  0  0  0  0  0  0  0
    3.6621   14.4278  -14.0321 O   0  0  0  0  0  0  0  0  0  0  0  0
    4.4528   13.2317  -12.4644 N   0  0  0  0  0  0  0  0  0  0  0  0
    5.1831   11.8661  -10.6253 C   0  0  0  0  0  0  0  0  0  0  0  0
    6.7324   10.0380  -11.0327 C   0  0  0  0  0  0  0  0  0  0  0  0
    6.7797   10.2959  -12.3854 C   0  0  0  0  0  0  0  0  0  0  0  0
    6.0047   11.3952  -12.9057 C   0  0  0  0  0  0  0  0  0  0  0  0
    3.9371   13.7783  -11.8283 H   0  0  0  0  0  0  0  0  0  0  0  0
    5.8082    9.4594   -4.5007 C   0  0  0  0  0  0  0  0  0  0  0  0
    6.3859   10.2112   -3.7379 O   0  0  0  0  0  0  0  0  0  0  0  0
    5.0108    8.4970   -4.0084 N   0  0  0  0  0  0  0  0  0  0  0  0
    4.5086    7.9297   -4.6371 H   0  0  0  0  0  0  0  0  0  0  0  0
    4.8589    8.2573   -2.5515 C   0  0  0  0  0  0  0  0  0  0  0  0
    3.4956    8.8537   -2.1177 C   0  0  0  0  0  0  0  0  0  0  0  0
    1.7960    8.9522   -0.2663 C   0  0  0  0  0  0  0  0  0  0  0  0
    1.5212    8.9851    1.2605 C   0  0  0  0  0  0  0  0  0  0  0  0
    3.4082    7.3732    1.2810 C   0  0  0  0  0  0  0  0  0  0  0  0
    3.2536    8.9654   -0.6473 N   0  0  0  0  0  0  0  0  0  0  0  0
    2.4777    8.2053    2.0199 O   0  0  0  0  0  0  0  0  0  0  0  0
    4.1967    8.2278    0.2571 C   0  0  0  0  0  0  0  0  0  0  0  0
 14  8  2  0  0  0
 13  8  1  0  0  0
 13 12  2  0  0  0
 11 12  1  0  0  0
  8 15  1  0  0  0
 12 19  1  0  0  0
 15  9  1  0  0  0
 19  9  2  0  0  0
 19 18  1  0  0  0
  9 16  1  0  0  0
 18 17  2  0  0  0
 16 10  2  0  0  0
 17 10  1  0  0  0
 10  3  1  0  0  0
  7  6  1  0  0  0
  3  6  2  0  0  0
  3  4  1  0  0  0
  6  2  1  0  0  0
  4  1  2  0  0  0
  2  5  2  0  0  0
  1  5  1  0  0  0
  5 21  1  0  0  0
 21 22  2  0  0  0
 21 23  1  0  0  0
 23 25  1  0  0  0
 25 26  1  0  0  0
 26 30  1  0  0  0
 30 32  1  0  0  0
 30 27  1  0  0  0
 32 29  1  0  0  0
 27 28  1  0  0  0
 29 31  1  0  0  0
 28 31  1  0  0  0
 15 20  1  0  0  0
 23 24  1  0  0  0
M  END
> <minimizedAffinity>
-10.83362

$$$$
