1K22_MEL_H_999
  RCSB PDB12061703023D
Coordinates from PDB:1K22:H:999 Model:1 without hydrogens
 31 33  0  0  0  0            999 V2000
   18.7400  -14.4090   24.4190   C 0  0  0  0  0  0  0  0  0  0  0  0
   18.9060  -15.7460   25.2000   C 0  0  0  0  0  0  0  0  0  0  0  0
   19.4890  -15.5290   26.6320   C 0  0  0  0  0  0  0  0  0  0  0  0
   20.8110  -14.7180   26.5380   C 0  0  0  0  0  0  0  0  0  0  0  0
   20.5890  -13.3450   25.8180   C 0  0  0  0  0  0  0  0  0  0  0  0
   20.0880  -13.6120   24.3660   C 0  0  0  0  0  0  0  0  0  0  0  0
   17.0410  -15.5660   22.9810   N 0  0  0  0  0  0  0  0  0  0  0  0
   18.2480  -14.6920   22.9380   C 0  0  0  0  0  0  0  0  0  0  0  0
   17.8690  -13.4020   22.2810   C 0  0  0  0  0  0  0  0  0  0  0  0
   16.8270  -12.7900   22.6660   O 0  0  0  0  0  0  0  0  0  0  0  0
   18.6150  -12.9120   21.2930   N 0  0  0  0  0  0  0  0  0  0  0  0
   18.4550  -11.6940   20.4810   C 0  0  0  0  0  0  0  0  0  0  0  0
   17.0860  -11.8150   19.8150   C 0  0  0  0  0  0  0  0  0  0  0  0
   16.8180  -12.8260   19.1830   O 0  0  0  0  0  0  0  0  0  0  0  0
   16.1420  -10.7990   19.9520   N 0  0  0  0  0  0  0  0  0  0  0  0
   14.7890  -11.0010   19.4880   C 0  0  0  0  0  0  0  0  0  0  0  0
   13.8470  -10.9690   20.6190   C 0  0  0  0  0  0  0  0  0  0  0  0
   13.2900   -9.7430   21.0060   C 0  0  0  0  0  0  0  0  0  0  0  0
   12.3680   -9.6780   22.1010   C 0  0  0  0  0  0  0  0  0  0  0  0
   12.0130  -10.8460   22.8000   C 0  0  0  0  0  0  0  0  0  0  0  0
   12.5810  -12.1100   22.4090   C 0  0  0  0  0  0  0  0  0  0  0  0
   13.5050  -12.1640   21.3070   C 0  0  0  0  0  0  0  0  0  0  0  0
   11.1080  -10.7790   23.8690   C 0  0  0  0  0  0  0  0  0  0  0  0
   10.9490   -9.6150   24.5710   N 0  0  0  0  0  0  0  0  0  0  0  0
   10.3630  -11.8800   24.2150   N 0  0  0  0  0  0  0  0  0  0  0  0
   19.7830  -11.9190   19.8420   C 0  0  0  0  0  0  0  0  0  0  0  0
   19.8320  -13.2830   20.5760   C 0  0  0  0  0  0  0  0  0  0  0  0
   16.4900  -16.1470   21.7190   C 0  0  0  0  0  0  0  0  0  0  0  0
   14.9780  -16.4710   21.8140   C 0  0  0  0  0  0  0  0  0  0  0  0
   14.3890  -16.5990   23.0010   O 0  0  0  0  0  0  0  0  0  0  0  0
   14.2770  -16.6270   20.7220   O 0  0  0  0  0  0  0  0  0  0  0  0
  1  2  1  0  0  0  0
  1  6  1  0  0  0  0
  1  8  1  0  0  0  0
  2  3  1  0  0  0  0
  3  4  1  0  0  0  0
  4  5  1  0  0  0  0
  5  6  1  0  0  0  0
  7  8  1  0  0  0  0
  7 28  1  0  0  0  0
  8  9  1  0  0  0  0
  9 10  2  0  0  0  0
  9 11  1  0  0  0  0
 11 12  1  0  0  0  0
 11 27  1  0  0  0  0
 12 13  1  0  0  0  0
 12 26  1  0  0  0  0
 13 14  2  0  0  0  0
 13 15  1  0  0  0  0
 15 16  1  0  0  0  0
 16 17  1  0  0  0  0
 17 18  2  0  0  0  0
 17 22  1  0  0  0  0
 18 19  1  0  0  0  0
 19 20  2  0  0  0  0
 20 21  1  0  0  0  0
 20 23  1  0  0  0  0
 21 22  2  0  0  0  0
 23 24  2  0  0  0  0
 23 25  1  0  0  0  0
 26 27  1  0  0  0  0
 28 29  1  0  0  0  0
 29 30  1  0  0  0  0
 29 31  2  0  0  0  0
A    1
C1
A    2
C2
A    3
C3
A    4
C4
A    5
C5
A    6
C6
A    7
N7
A    8
C8
A    9
C9
A   10
O0
A   11
N11
A   12
C12
A   13
C13
A   14
O14
A   15
N15
A   16
C16
A   17
C17
A   18
C18
A   19
C19
A   20
C20
A   21
C21
A   22
C22
A   23
C23
A   24
N24
A   25
N25
A   26
C26
A   27
C27
A   28
C28
A   29
C29
A   30
O30
A   31
O31
M  END
>  <InstanceId>
1K22_MEL_H_999

>  <ChemCompId>
MEL

>  <PdbId>
1K22

>  <ChainId>
H

>  <ResidueNumber>
999

>  <InsertionCode>


>  <Model>
1

>  <AltIds>


>  <MissingHeavyAtoms>
0

>  <ObservedFormula>
C22 N5 O4

>  <Name>
[((1R)-2-{(2S)-2-[({4-[AMINO(IMINO)METHYL]BENZYL}AMINO)CARBONYL]AZETIDINYL}-1-CYCLOHEXYL-2-OXOETHYL)AMINO]ACETIC ACID

>  <SystematicName>
2-[[(1R)-2-[(2S)-2-[(4-carbamimidoylphenyl)methylcarbamoyl]azetidin-1-yl]-1-cyclohexyl-2-oxo-ethyl]amino]ethanoic acid

>  <Synonyms>
MELAGATRAN (ASTRA-ZENECA)

>  <Type>
NON-POLYMER

>  <Formula>
C22 H31 N5 O4

>  <MolecularWeight>
429.513

>  <ModifiedDate>
2011-06-04

>  <Parent>


>  <OneLetterCode>


>  <SubcomponentList>


>  <AmbiguousFlag>
N

>  <InChI>
InChI=1S/C22H31N5O4/c23-20(24)16-8-6-14(7-9-16)12-26-21(30)17-10-11-27(17)22(31)19(25-13-18(28)29)15-4-2-1-3-5-15/h6-9,15,17,19,25H,1-5,10-13H2,(H3,23,24)(H,26,30)(H,28,29)/t17-,19+/m0/s1

>  <InChIKey>
DKWNMCUOEDMMIN-PKOBYXMFSA-N

>  <SMILES>
c1cc(ccc1CNC(=O)[C@@H]2CCN2C(=O)[C@@H](C3CCCCC3)NCC(=O)O)C(=N)N

$$$$
