4XTZ_594_A_301
  RCSB PDB12061716173D
Coordinates from PDB:4XTZ:A:301 Model:1 without hydrogens
 38 42  0  0  0  0            999 V2000
   -2.2120  -10.0304   13.8167   C 0  0  0  0  0  0  0  0  0  0  0  0
   -0.9929   -9.2980   13.5276   N 0  0  0  0  0  0  0  0  0  0  0  0
   -0.0609   -9.5086   14.4541   C 0  0  0  0  0  0  0  0  0  0  0  0
    1.0296   -8.9577   14.4967   O 0  0  0  0  0  0  0  0  0  0  0  0
   -0.4861  -10.3921   15.3457   N 0  0  0  0  0  0  0  0  0  0  0  0
   -1.8876  -10.6902   15.1586   C 0  0  0  0  0  0  0  0  0  0  0  0
   -2.6459  -10.0481   16.3097   C 0  0  0  0  0  0  0  0  0  0  0  0
   -3.4361   -8.6368   15.6290   S 0  0  0  0  0  0  0  0  0  0  0  0
   -3.4106   -9.0950   13.9320   C 0  0  0  0  0  0  0  0  0  0  0  0
   -3.3005   -7.8958   12.9992   C 0  0  0  0  0  0  0  0  0  0  0  0
   -3.5849   -8.3520   11.5718   C 0  0  0  0  0  0  0  0  0  0  0  0
   -3.9011   -7.1861   10.6426   C 0  0  0  0  0  0  0  0  0  0  0  0
   -4.1891   -7.6799    9.2281   C 0  0  0  0  0  0  0  0  0  0  0  0
   -4.5931   -6.5120    8.3599   C 0  0  0  0  0  0  0  0  0  0  0  0
   -5.6948   -6.0010    8.4821   O 0  0  0  0  0  0  0  0  0  0  0  0
   -3.6867   -6.0752    7.4904   N 0  0  0  0  0  0  0  0  0  0  0  0
   -4.0826   -4.9680    6.4031   S 0  0  0  0  0  0  0  0  0  0  0  0
   -5.2662   -5.3799    5.7003   O 0  0  0  0  0  0  0  0  0  0  0  0
   -3.0048   -4.7911    5.4708   O 0  0  0  0  0  0  0  0  0  0  0  0
   -4.3598   -3.6521    7.1452   O 0  0  0  0  0  0  0  0  0  0  0  0
   -3.2961   -2.8762    7.6952   C 0  0  0  0  0  0  0  0  0  0  0  0
   -3.7294   -1.4158    7.7380   C 0  0  0  0  0  0  0  0  0  0  0  0
   -4.8716   -1.2114    8.5823   O 0  0  0  0  0  0  0  0  0  0  0  0
   -2.6538   -0.4785    8.2601   C 0  0  0  0  0  0  0  0  0  0  0  0
   -1.7840   -0.0730    7.2016   O 0  0  0  0  0  0  0  0  0  0  0  0
   -3.4749    0.6848    8.7802   C 0  0  0  0  0  0  0  0  0  0  0  0
   -2.8143    1.4346    9.7182   F 0  0  0  0  0  0  0  0  0  0  0  0
   -4.7594    0.0334    9.2903   C 0  0  0  0  0  0  0  0  0  0  0  0
   -4.7869   -0.2344   10.7560   N 0  0  0  0  0  0  0  0  0  0  0  0
   -3.7519   -0.3341   11.6075   C 0  0  0  0  0  0  0  0  0  0  0  0
   -4.2164   -0.5956   12.8507   N 0  0  0  0  0  0  0  0  0  0  0  0
   -5.5610   -0.6695   12.7674   C 0  0  0  0  0  0  0  0  0  0  0  0
   -5.9082   -0.4456   11.4478   C 0  0  0  0  0  0  0  0  0  0  0  0
   -7.2118   -0.4640   11.0838   N 0  0  0  0  0  0  0  0  0  0  0  0
   -8.1604   -0.7045   11.9967   C 0  0  0  0  0  0  0  0  0  0  0  0
   -7.8519   -0.9221   13.2818   N 0  0  0  0  0  0  0  0  0  0  0  0
   -6.5649   -0.9128   13.6938   C 0  0  0  0  0  0  0  0  0  0  0  0
   -6.2618   -1.1382   14.9954   N 0  0  0  0  0  0  0  0  0  0  0  0
 19 17  2  0  0  0  0
 18 17  2  0  0  0  0
 17 20  1  0  0  0  0
 17 16  1  0  0  0  0
 20 21  1  0  0  0  0
 25 24  1  0  0  0  0
 16 14  1  0  0  0  0
 21 22  1  0  0  0  0
 22 24  1  0  0  0  0
 22 23  1  0  0  0  0
 24 26  1  0  0  0  0
 14 15  2  0  0  0  0
 14 13  1  0  0  0  0
 23 28  1  0  0  0  0
 26 28  1  0  0  0  0
 26 27  1  0  0  0  0
 13 12  1  0  0  0  0
 28 29  1  0  0  0  0
 12 11  1  0  0  0  0
 29 33  1  0  0  0  0
 29 30  1  0  0  0  0
 34 33  2  0  0  0  0
 34 35  1  0  0  0  0
 33 32  1  0  0  0  0
 11 10  1  0  0  0  0
 30 31  2  0  0  0  0
 35 36  2  0  0  0  0
 32 31  1  0  0  0  0
 32 37  2  0  0  0  0
 10  9  1  0  0  0  0
 36 37  1  0  0  0  0
  2  1  1  0  0  0  0
  2  3  1  0  0  0  0
 37 38  1  0  0  0  0
  1  9  1  0  0  0  0
  1  6  1  0  0  0  0
  9  8  1  0  0  0  0
  3  4  2  0  0  0  0
  3  5  1  0  0  0  0
  6  5  1  0  0  0  0
  6  7  1  0  0  0  0
  8  7  1  0  0  0  0
A    1
CBI
A    2
NAU
A    3
CBA
A    4
OAC
A    5
NAT
A    6
CBF
A    7
CAO
A    8
SAY
A    9
CBH
A   10
CAK
A   11
CAI
A   12
CAH
A   13
CAJ
A   14
CAZ
A   15
OAB
A   16
NAV
A   17
SBK
A   18
OAD
A   19
OAE
A   20
OAW
A   21
CAN
A   22
CBE
A   23
OAX
A   24
CAL
A   25
OAL
A   26
CAM
A   27
F8Q
A   28
CBG
A   29
N9
A   30
C8
A   31
N7
A   32
C5
A   33
C4
A   34
N3
A   35
C2
A   36
N1
A   37
C6
A   38
N6
M  END
>  <InstanceId>
4XTZ_594_A_301

>  <ChemCompId>
594

>  <PdbId>
4XTZ

>  <ChainId>
A

>  <ResidueNumber>
301

>  <InsertionCode>


>  <Model>
1

>  <AltIds>


>  <MissingHeavyAtoms>
0

>  <ObservedFormula>
C20 N8 O7 S2 F

>  <Name>
9-[2-deoxy-2-fluoro-5-O-({5-[(3aS,4S,6aR)-2-oxohexahydro-1H-thieno[3,4-d]imidazol-4-yl]pentanoyl}sulfamoyl)-beta-D-arabinofuranosyl]-9H-purin-6-amine

>  <SystematicName>
[(2R,3R,4S,5R)-5-(6-aminopurin-9-yl)-4-fluoranyl-3-oxidanyl-oxolan-2-yl]methyl N-[5-[(3aS,4S,6aR)-2-oxidanylidene-1,3,3a,4,6,6a-hexahydrothieno[3,4-d]imidazol-4-yl]pentanoyl]sulfamate

>  <Synonyms>


>  <Type>
NON-POLYMER

>  <Formula>
C20 H27 F N8 O7 S2

>  <MolecularWeight>
574.606

>  <ModifiedDate>
2015-08-28

>  <Parent>


>  <OneLetterCode>


>  <SubcomponentList>


>  <AmbiguousFlag>
N

>  <InChI>
InChI=1S/C20H27FN8O7S2/c21-13-16(31)10(36-19(13)29-8-25-15-17(22)23-7-24-18(15)29)5-35-38(33,34)28-12(30)4-2-1-3-11-14-9(6-37-11)26-20(32)27-14/h7-11,13-14,16,19,31H,1-6H2,(H,28,30)(H2,22,23,24)(H2,26,27,32)/t9-,10+,11-,13-,14-,16+,19+/m0/s1

>  <InChIKey>
XTTQQKAKULCXCM-ROPJLRCXSA-N

>  <SMILES>
c1nc(c2c(n1)n(cn2)[C@H]3[C@H]([C@@H]([C@H](O3)COS(=O)(=O)NC(=O)CCCC[C@H]4[C@@H]5[C@H](CS4)NC(=O)N5)O)F)N

$$$$
