6H2Z_FKE_A_302


 26 28  0  0  0  0  0  0  0  0999 V2000
   -4.5178    5.5299   13.0440 C   0  0  0  0  0  0  0  0  0  0  0  0
   -2.6270    6.4415   11.8059 C   0  0  0  0  0  0  0  0  0  0  0  0
   -2.4330    7.9122   12.1354 C   0  0  0  0  0  0  0  0  0  0  0  0
   -1.5383    8.0908   13.3620 C   0  0  0  0  0  0  0  0  0  0  0  0
   -2.1637    7.3101   14.5163 C   0  0  0  0  0  0  0  0  0  0  0  0
   -2.3588    5.8498   14.1479 C   0  0  0  0  0  0  0  0  0  0  0  0
   -5.3035    6.1338   12.3344 O   0  0  0  0  0  0  0  0  0  0  0  0
   -3.1897    5.6993   12.9448 N   0  0  0  0  0  0  0  0  0  0  0  0
   -5.9196    2.6732   15.8953 C   0  0  0  0  0  0  0  0  0  0  0  0
   -4.9731    2.2968   14.9556 C   0  0  0  0  0  0  0  0  0  0  0  0
   -4.5327    3.2220   14.0258 C   0  0  0  0  0  0  0  0  0  0  0  0
   -5.0265    4.5216   14.0248 C   0  0  0  0  0  0  0  0  0  0  0  0
   -5.9801    4.8793   14.9705 C   0  0  0  0  0  0  0  0  0  0  0  0
   -6.4287    3.9617   15.9027 C   0  0  0  0  0  0  0  0  0  0  0  0
   -6.4277    1.5249   17.1378 S   0  0  0  0  0  0  0  0  0  0  0  0
   -6.1692    2.1350   18.4079 O   0  0  0  0  0  0  0  0  0  0  0  0
   -7.7696    1.1280   16.8338 O   0  0  0  0  0  0  0  0  0  0  0  0
   -5.5040    0.2203   17.0342 N   0  0  0  0  0  0  0  0  0  0  0  0
   -5.6643   -0.2395   16.1380 H   0  0  0  0  0  0  0  0  0  0  0  0
   -5.7361   -0.4216   17.7921 H   0  0  0  0  0  0  0  0  0  0  0  0
   -1.3661    9.5643   13.7183 C   0  0  0  0  0  0  0  0  0  0  0  0
   -2.1804   10.5386   13.1520 C   0  0  0  0  0  0  0  0  0  0  0  0
   -1.9875   11.8802   13.4356 C   0  0  0  0  0  0  0  0  0  0  0  0
   -0.9799   12.2705   14.2915 C   0  0  0  0  0  0  0  0  0  0  0  0
   -0.1665   11.3173   14.8678 C   0  0  0  0  0  0  0  0  0  0  0  0
   -0.3594    9.9747   14.5832 C   0  0  0  0  0  0  0  0  0  0  0  0
  2  3  1  0  0  0
  2  8  1  0  0  0
  7  1  2  0  0  0
  3  4  1  0  0  0
  1  8  1  0  0  0
  1 12  1  0  0  0
  8  6  1  0  0  0
 22 23  2  0  0  0
 22 21  1  0  0  0
  4 21  1  0  0  0
  4  5  1  0  0  0
 23 24  1  0  0  0
 21 26  2  0  0  0
 12 13  2  0  0  0
 12 11  1  0  0  0
  6  5  1  0  0  0
 13 14  1  0  0  0
 11 10  2  0  0  0
 24 25  2  0  0  0
 26 25  1  0  0  0
 14  9  2  0  0  0
 10  9  1  0  0  0
  9 15  1  0  0  0
 18 15  1  0  0  0
 17 15  2  0  0  0
 15 16  2  0  0  0
 18 19  1  0  0  0
 18 20  1  0  0  0
M  END
> <minimizedAffinity>
-8.53788

$$$$
6H2Z_FKE_A_302


 26 28  0  0  0  0  0  0  0  0999 V2000
   -4.2534    4.9974   12.8202 C   0  0  0  0  0  0  0  0  0  0  0  0
   -2.3491    5.9661   11.6480 C   0  0  0  0  0  0  0  0  0  0  0  0
   -2.4535    7.4818   11.6223 C   0  0  0  0  0  0  0  0  0  0  0  0
   -1.8238    8.1008   12.8703 C   0  0  0  0  0  0  0  0  0  0  0  0
   -2.5049    7.4879   14.0924 C   0  0  0  0  0  0  0  0  0  0  0  0
   -2.3965    5.9732   14.0780 C   0  0  0  0  0  0  0  0  0  0  0  0
   -4.9919    5.2619   11.8873 O   0  0  0  0  0  0  0  0  0  0  0  0
   -2.9728    5.3990   12.8537 N   0  0  0  0  0  0  0  0  0  0  0  0
   -5.7284    2.5438   15.9920 C   0  0  0  0  0  0  0  0  0  0  0  0
   -6.3390    3.7586   15.7238 C   0  0  0  0  0  0  0  0  0  0  0  0
   -5.8487    4.5556   14.7044 C   0  0  0  0  0  0  0  0  0  0  0  0
   -4.7547    4.1518   13.9476 C   0  0  0  0  0  0  0  0  0  0  0  0
   -4.1510    2.9333   14.2353 C   0  0  0  0  0  0  0  0  0  0  0  0
   -4.6317    2.1303   15.2533 C   0  0  0  0  0  0  0  0  0  0  0  0
   -6.3961    1.4816   17.2356 S   0  0  0  0  0  0  0  0  0  0  0  0
   -6.1998    2.1322   18.4967 O   0  0  0  0  0  0  0  0  0  0  0  0
   -7.7319    1.1464   16.8432 O   0  0  0  0  0  0  0  0  0  0  0  0
   -5.5452    0.1246   17.2571 N   0  0  0  0  0  0  0  0  0  0  0  0
   -5.6635   -0.3649   16.3701 H   0  0  0  0  0  0  0  0  0  0  0  0
   -5.8716   -0.4693   18.0194 H   0  0  0  0  0  0  0  0  0  0  0  0
   -1.9544    9.6209   12.8668 C   0  0  0  0  0  0  0  0  0  0  0  0
   -1.5797   10.3752   13.9730 C   0  0  0  0  0  0  0  0  0  0  0  0
   -1.7491   11.7494   13.9879 C   0  0  0  0  0  0  0  0  0  0  0  0
   -2.2932   12.3932   12.8972 C   0  0  0  0  0  0  0  0  0  0  0  0
   -2.6648   11.6620   11.7884 C   0  0  0  0  0  0  0  0  0  0  0  0
   -2.4956   10.2865   11.7741 C   0  0  0  0  0  0  0  0  0  0  0  0
  2  3  1  0  0  0
  2  8  1  0  0  0
  7  1  2  0  0  0
  3  4  1  0  0  0
  1  8  1  0  0  0
  1 12  1  0  0  0
  8  6  1  0  0  0
 22 23  2  0  0  0
 22 21  1  0  0  0
  4 21  1  0  0  0
  4  5  1  0  0  0
 23 24  1  0  0  0
 21 26  2  0  0  0
 12 13  2  0  0  0
 12 11  1  0  0  0
  6  5  1  0  0  0
 13 14  1  0  0  0
 11 10  2  0  0  0
 24 25  2  0  0  0
 26 25  1  0  0  0
 14  9  2  0  0  0
 10  9  1  0  0  0
  9 15  1  0  0  0
 18 15  1  0  0  0
 17 15  2  0  0  0
 15 16  2  0  0  0
 18 19  1  0  0  0
 18 20  1  0  0  0
M  END
> <minimizedAffinity>
-8.39773

$$$$
6H2Z_FKE_A_302


 26 28  0  0  0  0  0  0  0  0999 V2000
   -3.4861    5.2252   13.6045 C   0  0  0  0  0  0  0  0  0  0  0  0
   -3.0568    6.0584   11.3550 C   0  0  0  0  0  0  0  0  0  0  0  0
   -1.5821    5.9306   11.0115 C   0  0  0  0  0  0  0  0  0  0  0  0
   -1.2704    4.5586   10.4135 C   0  0  0  0  0  0  0  0  0  0  0  0
   -1.7334    3.4970   11.4093 C   0  0  0  0  0  0  0  0  0  0  0  0
   -3.2055    3.6638   11.7431 C   0  0  0  0  0  0  0  0  0  0  0  0
   -2.9469    6.2024   14.0946 O   0  0  0  0  0  0  0  0  0  0  0  0
   -3.4924    5.0013   12.2809 N   0  0  0  0  0  0  0  0  0  0  0  0
   -5.5645    2.5185   16.1755 C   0  0  0  0  0  0  0  0  0  0  0  0
   -4.2158    2.3250   15.9221 C   0  0  0  0  0  0  0  0  0  0  0  0
   -3.5508    3.1965   15.0778 C   0  0  0  0  0  0  0  0  0  0  0  0
   -4.2181    4.2618   14.4840 C   0  0  0  0  0  0  0  0  0  0  0  0
   -5.5721    4.4363   14.7446 C   0  0  0  0  0  0  0  0  0  0  0  0
   -6.2467    3.5698   15.5849 C   0  0  0  0  0  0  0  0  0  0  0  0
   -6.4037    1.4617   17.3155 S   0  0  0  0  0  0  0  0  0  0  0  0
   -6.3104    2.0748   18.6070 O   0  0  0  0  0  0  0  0  0  0  0  0
   -7.7052    1.1981   16.7796 O   0  0  0  0  0  0  0  0  0  0  0  0
   -5.6205    0.0664   17.3880 N   0  0  0  0  0  0  0  0  0  0  0  0
   -5.6679   -0.3976   16.4809 H   0  0  0  0  0  0  0  0  0  0  0  0
   -6.0500   -0.5282   18.0968 H   0  0  0  0  0  0  0  0  0  0  0  0
    0.2148    4.4114   10.0968 C   0  0  0  0  0  0  0  0  0  0  0  0
    1.1818    4.6498   11.0669 C   0  0  0  0  0  0  0  0  0  0  0  0
    2.5302    4.5678   10.7629 C   0  0  0  0  0  0  0  0  0  0  0  0
    2.9350    4.2439    9.4857 C   0  0  0  0  0  0  0  0  0  0  0  0
    1.9898    3.9976    8.5119 C   0  0  0  0  0  0  0  0  0  0  0  0
    0.6403    4.0803    8.8164 C   0  0  0  0  0  0  0  0  0  0  0  0
  2  3  1  0  0  0
  2  8  1  0  0  0
  7  1  2  0  0  0
  3  4  1  0  0  0
  1  8  1  0  0  0
  1 12  1  0  0  0
  8  6  1  0  0  0
 22 23  2  0  0  0
 22 21  1  0  0  0
  4 21  1  0  0  0
  4  5  1  0  0  0
 23 24  1  0  0  0
 21 26  2  0  0  0
 12 13  2  0  0  0
 12 11  1  0  0  0
  6  5  1  0  0  0
 13 14  1  0  0  0
 11 10  2  0  0  0
 24 25  2  0  0  0
 26 25  1  0  0  0
 14  9  2  0  0  0
 10  9  1  0  0  0
  9 15  1  0  0  0
 18 15  1  0  0  0
 17 15  2  0  0  0
 15 16  2  0  0  0
 18 19  1  0  0  0
 18 20  1  0  0  0
M  END
> <minimizedAffinity>
-8.24731

$$$$
6H2Z_FKE_A_302


 26 28  0  0  0  0  0  0  0  0999 V2000
   -2.9774    4.8586   11.4231 C   0  0  0  0  0  0  0  0  0  0  0  0
   -4.6589    5.7323   12.9554 C   0  0  0  0  0  0  0  0  0  0  0  0
   -5.3592    4.5966   13.6827 C   0  0  0  0  0  0  0  0  0  0  0  0
   -4.6046    4.2050   14.9532 C   0  0  0  0  0  0  0  0  0  0  0  0
   -3.1722    3.8515   14.5577 C   0  0  0  0  0  0  0  0  0  0  0  0
   -2.5083    5.0005   13.8193 C   0  0  0  0  0  0  0  0  0  0  0  0
   -3.8432    4.4630   10.6617 O   0  0  0  0  0  0  0  0  0  0  0  0
   -3.2680    5.3880   12.6221 N   0  0  0  0  0  0  0  0  0  0  0  0
    1.1423    4.7285   10.2975 C   0  0  0  0  0  0  0  0  0  0  0  0
    0.4956    5.9505   10.3933 C   0  0  0  0  0  0  0  0  0  0  0  0
   -0.8422    5.9861   10.7449 C   0  0  0  0  0  0  0  0  0  0  0  0
   -1.5423    4.8133   11.0037 C   0  0  0  0  0  0  0  0  0  0  0  0
   -0.8791    3.5966   10.8962 C   0  0  0  0  0  0  0  0  0  0  0  0
    0.4571    3.5497   10.5434 C   0  0  0  0  0  0  0  0  0  0  0  0
    2.8694    4.6760    9.9304 S   0  0  0  0  0  0  0  0  0  0  0  0
    3.1441    5.7602    9.0352 O   0  0  0  0  0  0  0  0  0  0  0  0
    3.5729    4.6274   11.1767 O   0  0  0  0  0  0  0  0  0  0  0  0
    3.1825    3.3145    9.1468 N   0  0  0  0  0  0  0  0  0  0  0  0
    2.9965    2.5197    9.7584 H   0  0  0  0  0  0  0  0  0  0  0  0
    4.1622    3.3031    8.8629 H   0  0  0  0  0  0  0  0  0  0  0  0
   -5.2843    3.0429   15.6711 C   0  0  0  0  0  0  0  0  0  0  0  0
   -6.5708    3.1703   16.1828 C   0  0  0  0  0  0  0  0  0  0  0  0
   -7.1652    2.1324   16.8806 C   0  0  0  0  0  0  0  0  0  0  0  0
   -6.4854    0.9493   17.0766 C   0  0  0  0  0  0  0  0  0  0  0  0
   -5.2108    0.8025   16.5705 C   0  0  0  0  0  0  0  0  0  0  0  0
   -4.6160    1.8417   15.8726 C   0  0  0  0  0  0  0  0  0  0  0  0
  2  3  1  0  0  0
  2  8  1  0  0  0
  7  1  2  0  0  0
  3  4  1  0  0  0
  1  8  1  0  0  0
  1 12  1  0  0  0
  8  6  1  0  0  0
 22 23  2  0  0  0
 22 21  1  0  0  0
  4 21  1  0  0  0
  4  5  1  0  0  0
 23 24  1  0  0  0
 21 26  2  0  0  0
 12 13  2  0  0  0
 12 11  1  0  0  0
  6  5  1  0  0  0
 13 14  1  0  0  0
 11 10  2  0  0  0
 24 25  2  0  0  0
 26 25  1  0  0  0
 14  9  2  0  0  0
 10  9  1  0  0  0
  9 15  1  0  0  0
 18 15  1  0  0  0
 17 15  2  0  0  0
 15 16  2  0  0  0
 18 19  1  0  0  0
 18 20  1  0  0  0
M  END
> <minimizedAffinity>
-8.08480

$$$$
6H2Z_FKE_A_302


 26 28  0  0  0  0  0  0  0  0999 V2000
   -2.0857    2.2946   10.8572 C   0  0  0  0  0  0  0  0  0  0  0  0
   -4.5123    2.3061   11.0816 C   0  0  0  0  0  0  0  0  0  0  0  0
   -4.9186    1.9336   12.4977 C   0  0  0  0  0  0  0  0  0  0  0  0
   -4.9676    3.1658   13.4012 C   0  0  0  0  0  0  0  0  0  0  0  0
   -3.6001    3.8438   13.3441 C   0  0  0  0  0  0  0  0  0  0  0  0
   -3.2180    4.1869   11.9149 C   0  0  0  0  0  0  0  0  0  0  0  0
   -2.0645    1.0765   10.8973 O   0  0  0  0  0  0  0  0  0  0  0  0
   -3.2133    2.9963   11.0530 N   0  0  0  0  0  0  0  0  0  0  0  0
    1.5159    4.3829    9.8961 C   0  0  0  0  0  0  0  0  0  0  0  0
    1.2293    4.0821   11.2182 C   0  0  0  0  0  0  0  0  0  0  0  0
    0.0549    3.4178   11.5253 C   0  0  0  0  0  0  0  0  0  0  0  0
   -0.8372    3.0485   10.5251 C   0  0  0  0  0  0  0  0  0  0  0  0
   -0.5363    3.3645    9.2054 C   0  0  0  0  0  0  0  0  0  0  0  0
    0.6334    4.0301    8.8880 C   0  0  0  0  0  0  0  0  0  0  0  0
    3.0496    5.1568    9.4847 S   0  0  0  0  0  0  0  0  0  0  0  0
    2.8584    6.5704    9.6172 O   0  0  0  0  0  0  0  0  0  0  0  0
    4.0711    4.5315   10.2697 O   0  0  0  0  0  0  0  0  0  0  0  0
    3.3742    4.8578    7.9449 N   0  0  0  0  0  0  0  0  0  0  0  0
    3.5163    3.8561    7.8156 H   0  0  0  0  0  0  0  0  0  0  0  0
    4.2195    5.3592    7.6720 H   0  0  0  0  0  0  0  0  0  0  0  0
   -5.3428    2.7945   14.8327 C   0  0  0  0  0  0  0  0  0  0  0  0
   -4.7247    1.7327   15.4834 C   0  0  0  0  0  0  0  0  0  0  0  0
   -5.1044    1.3638   16.7629 C   0  0  0  0  0  0  0  0  0  0  0  0
   -6.1061    2.0510   17.4145 C   0  0  0  0  0  0  0  0  0  0  0  0
   -6.7261    3.1113   16.7871 C   0  0  0  0  0  0  0  0  0  0  0  0
   -6.3462    3.4798   15.5063 C   0  0  0  0  0  0  0  0  0  0  0  0
  2  3  1  0  0  0
  2  8  1  0  0  0
  7  1  2  0  0  0
  3  4  1  0  0  0
  1  8  1  0  0  0
  1 12  1  0  0  0
  8  6  1  0  0  0
 22 23  2  0  0  0
 22 21  1  0  0  0
  4 21  1  0  0  0
  4  5  1  0  0  0
 23 24  1  0  0  0
 21 26  2  0  0  0
 12 13  2  0  0  0
 12 11  1  0  0  0
  6  5  1  0  0  0
 13 14  1  0  0  0
 11 10  2  0  0  0
 24 25  2  0  0  0
 26 25  1  0  0  0
 14  9  2  0  0  0
 10  9  1  0  0  0
  9 15  1  0  0  0
 18 15  1  0  0  0
 17 15  2  0  0  0
 15 16  2  0  0  0
 18 19  1  0  0  0
 18 20  1  0  0  0
M  END
> <minimizedAffinity>
-7.90179

$$$$
6H2Z_FKE_A_302


 26 28  0  0  0  0  0  0  0  0999 V2000
   -1.9686    6.0193   13.3165 C   0  0  0  0  0  0  0  0  0  0  0  0
   -3.0137    3.9602   12.5376 C   0  0  0  0  0  0  0  0  0  0  0  0
   -3.5636    3.1648   13.7098 C   0  0  0  0  0  0  0  0  0  0  0  0
   -4.9899    3.5967   14.0506 C   0  0  0  0  0  0  0  0  0  0  0  0
   -4.9729    5.1000   14.3201 C   0  0  0  0  0  0  0  0  0  0  0  0
   -4.4028    5.8624   13.1369 C   0  0  0  0  0  0  0  0  0  0  0  0
   -1.0222    5.3965   13.7661 O   0  0  0  0  0  0  0  0  0  0  0  0
   -3.0462    5.4074   12.8002 N   0  0  0  0  0  0  0  0  0  0  0  0
   -1.7647   10.2855   13.1967 C   0  0  0  0  0  0  0  0  0  0  0  0
   -1.7041    9.6298   14.4162 C   0  0  0  0  0  0  0  0  0  0  0  0
   -1.7844    8.2489   14.4504 C   0  0  0  0  0  0  0  0  0  0  0  0
   -1.9233    7.5140   13.2785 C   0  0  0  0  0  0  0  0  0  0  0  0
   -1.9890    8.1890   12.0653 C   0  0  0  0  0  0  0  0  0  0  0  0
   -1.9119    9.5689   12.0202 C   0  0  0  0  0  0  0  0  0  0  0  0
   -1.5805   12.0413   13.1342 S   0  0  0  0  0  0  0  0  0  0  0  0
   -2.7575   12.5675   12.5097 O   0  0  0  0  0  0  0  0  0  0  0  0
   -1.2538   12.4868   14.4553 O   0  0  0  0  0  0  0  0  0  0  0  0
   -0.3368   12.3896   12.1867 N   0  0  0  0  0  0  0  0  0  0  0  0
    0.5205   12.0274   12.6041 H   0  0  0  0  0  0  0  0  0  0  0  0
   -0.2626   13.4014   12.0813 H   0  0  0  0  0  0  0  0  0  0  0  0
   -5.5364    2.8249   15.2479 C   0  0  0  0  0  0  0  0  0  0  0  0
   -6.5206    3.3709   16.0642 C   0  0  0  0  0  0  0  0  0  0  0  0
   -6.9767    2.6913   17.1811 C   0  0  0  0  0  0  0  0  0  0  0  0
   -6.4593    1.4540   17.4996 C   0  0  0  0  0  0  0  0  0  0  0  0
   -5.4870    0.8937   16.6976 C   0  0  0  0  0  0  0  0  0  0  0  0
   -5.0303    1.5745   15.5802 C   0  0  0  0  0  0  0  0  0  0  0  0
  2  3  1  0  0  0
  2  8  1  0  0  0
  7  1  2  0  0  0
  3  4  1  0  0  0
  1  8  1  0  0  0
  1 12  1  0  0  0
  8  6  1  0  0  0
 22 23  2  0  0  0
 22 21  1  0  0  0
  4 21  1  0  0  0
  4  5  1  0  0  0
 23 24  1  0  0  0
 21 26  2  0  0  0
 12 13  2  0  0  0
 12 11  1  0  0  0
  6  5  1  0  0  0
 13 14  1  0  0  0
 11 10  2  0  0  0
 24 25  2  0  0  0
 26 25  1  0  0  0
 14  9  2  0  0  0
 10  9  1  0  0  0
  9 15  1  0  0  0
 18 15  1  0  0  0
 17 15  2  0  0  0
 15 16  2  0  0  0
 18 19  1  0  0  0
 18 20  1  0  0  0
M  END
> <minimizedAffinity>
-7.54630

$$$$
6H2Z_FKE_A_302


 26 28  0  0  0  0  0  0  0  0999 V2000
   -3.2317    5.6608   13.8441 C   0  0  0  0  0  0  0  0  0  0  0  0
   -2.8930    6.7216   11.6764 C   0  0  0  0  0  0  0  0  0  0  0  0
   -1.4586    6.5362   11.2104 C   0  0  0  0  0  0  0  0  0  0  0  0
   -1.2922    5.2261   10.4403 C   0  0  0  0  0  0  0  0  0  0  0  0
   -1.7659    4.0884   11.3427 C   0  0  0  0  0  0  0  0  0  0  0  0
   -3.1955    4.3134   11.8033 C   0  0  0  0  0  0  0  0  0  0  0  0
   -2.5886    6.5353   14.3986 O   0  0  0  0  0  0  0  0  0  0  0  0
   -3.3439    5.5948   12.5079 N   0  0  0  0  0  0  0  0  0  0  0  0
   -5.3607    2.7380   16.1202 C   0  0  0  0  0  0  0  0  0  0  0  0
   -6.0368    3.8334   15.6067 C   0  0  0  0  0  0  0  0  0  0  0  0
   -5.3399    4.7840   14.8819 C   0  0  0  0  0  0  0  0  0  0  0  0
   -3.9735    4.6522   14.6626 C   0  0  0  0  0  0  0  0  0  0  0  0
   -3.3109    3.5505   15.1909 C   0  0  0  0  0  0  0  0  0  0  0  0
   -3.9974    2.5959   15.9185 C   0  0  0  0  0  0  0  0  0  0  0  0
   -6.2544    1.4772   16.9758 S   0  0  0  0  0  0  0  0  0  0  0  0
   -6.2471    1.8235   18.3659 O   0  0  0  0  0  0  0  0  0  0  0  0
   -7.5177    1.3242   16.3191 O   0  0  0  0  0  0  0  0  0  0  0  0
   -5.4599    0.0950   16.8206 N   0  0  0  0  0  0  0  0  0  0  0  0
   -5.4465   -0.1811   15.8388 H   0  0  0  0  0  0  0  0  0  0  0  0
   -5.9242   -0.6277   17.3707 H   0  0  0  0  0  0  0  0  0  0  0  0
    0.1530    5.0176    9.9978 C   0  0  0  0  0  0  0  0  0  0  0  0
    0.5216    3.9010    9.2560 C   0  0  0  0  0  0  0  0  0  0  0  0
    1.8429    3.6865    8.9014 C   0  0  0  0  0  0  0  0  0  0  0  0
    2.8173    4.5852    9.2796 C   0  0  0  0  0  0  0  0  0  0  0  0
    2.4692    5.7021   10.0102 C   0  0  0  0  0  0  0  0  0  0  0  0
    1.1468    5.9161   10.3654 C   0  0  0  0  0  0  0  0  0  0  0  0
  2  3  1  0  0  0
  2  8  1  0  0  0
  7  1  2  0  0  0
  3  4  1  0  0  0
  1  8  1  0  0  0
  1 12  1  0  0  0
  8  6  1  0  0  0
 22 23  2  0  0  0
 22 21  1  0  0  0
  4 21  1  0  0  0
  4  5  1  0  0  0
 23 24  1  0  0  0
 21 26  2  0  0  0
 12 13  2  0  0  0
 12 11  1  0  0  0
  6  5  1  0  0  0
 13 14  1  0  0  0
 11 10  2  0  0  0
 24 25  2  0  0  0
 26 25  1  0  0  0
 14  9  2  0  0  0
 10  9  1  0  0  0
  9 15  1  0  0  0
 18 15  1  0  0  0
 17 15  2  0  0  0
 15 16  2  0  0  0
 18 19  1  0  0  0
 18 20  1  0  0  0
M  END
> <minimizedAffinity>
-7.19696

$$$$
6H2Z_FKE_A_302


 26 28  0  0  0  0  0  0  0  0999 V2000
   -3.0495    6.9935   13.2237 C   0  0  0  0  0  0  0  0  0  0  0  0
   -4.7017    5.3019   13.8134 C   0  0  0  0  0  0  0  0  0  0  0  0
   -4.5884    4.1009   12.8895 C   0  0  0  0  0  0  0  0  0  0  0  0
   -3.5694    3.0911   13.4175 C   0  0  0  0  0  0  0  0  0  0  0  0
   -2.2384    3.8185   13.5974 C   0  0  0  0  0  0  0  0  0  0  0  0
   -2.3907    5.0215   14.5117 C   0  0  0  0  0  0  0  0  0  0  0  0
   -3.6755    7.2885   12.2202 O   0  0  0  0  0  0  0  0  0  0  0  0
   -3.4015    5.9622   14.0078 N   0  0  0  0  0  0  0  0  0  0  0  0
    0.2513    9.4409   14.3944 C   0  0  0  0  0  0  0  0  0  0  0  0
    0.2722    8.8038   13.1638 C   0  0  0  0  0  0  0  0  0  0  0  0
   -0.7932    8.0014   12.7954 C   0  0  0  0  0  0  0  0  0  0  0  0
   -1.8817    7.8289   13.6428 C   0  0  0  0  0  0  0  0  0  0  0  0
   -1.8822    8.4703   14.8759 C   0  0  0  0  0  0  0  0  0  0  0  0
   -0.8216    9.2726   15.2547 C   0  0  0  0  0  0  0  0  0  0  0  0
    1.5669   10.5323   14.8401 S   0  0  0  0  0  0  0  0  0  0  0  0
    1.2062   11.1422   16.0852 O   0  0  0  0  0  0  0  0  0  0  0  0
    2.7864    9.7845   14.7765 O   0  0  0  0  0  0  0  0  0  0  0  0
    1.6572   11.6960   13.7431 N   0  0  0  0  0  0  0  0  0  0  0  0
    1.9131   11.2940   12.8413 H   0  0  0  0  0  0  0  0  0  0  0  0
    2.3638   12.3753   14.0254 H   0  0  0  0  0  0  0  0  0  0  0  0
   -3.4264    1.8979   12.4775 C   0  0  0  0  0  0  0  0  0  0  0  0
   -4.2258    0.7698   12.6242 C   0  0  0  0  0  0  0  0  0  0  0  0
   -4.0578   -0.3331   11.8039 C   0  0  0  0  0  0  0  0  0  0  0  0
   -3.0904   -0.3264   10.8219 C   0  0  0  0  0  0  0  0  0  0  0  0
   -2.2925    0.7865   10.6574 C   0  0  0  0  0  0  0  0  0  0  0  0
   -2.4605    1.8898   11.4789 C   0  0  0  0  0  0  0  0  0  0  0  0
  2  3  1  0  0  0
  2  8  1  0  0  0
  7  1  2  0  0  0
  3  4  1  0  0  0
  1  8  1  0  0  0
  1 12  1  0  0  0
  8  6  1  0  0  0
 22 23  2  0  0  0
 22 21  1  0  0  0
  4 21  1  0  0  0
  4  5  1  0  0  0
 23 24  1  0  0  0
 21 26  2  0  0  0
 12 13  2  0  0  0
 12 11  1  0  0  0
  6  5  1  0  0  0
 13 14  1  0  0  0
 11 10  2  0  0  0
 24 25  2  0  0  0
 26 25  1  0  0  0
 14  9  2  0  0  0
 10  9  1  0  0  0
  9 15  1  0  0  0
 18 15  1  0  0  0
 17 15  2  0  0  0
 15 16  2  0  0  0
 18 19  1  0  0  0
 18 20  1  0  0  0
M  END
> <minimizedAffinity>
-6.94739

$$$$
6H2Z_FKE_A_302


 26 28  0  0  0  0  0  0  0  0999 V2000
   -0.4235    5.5873   11.0295 C   0  0  0  0  0  0  0  0  0  0  0  0
    1.2778    6.8079   12.2764 C   0  0  0  0  0  0  0  0  0  0  0  0
    0.8709    8.2616   12.4506 C   0  0  0  0  0  0  0  0  0  0  0  0
    0.0151    8.4501   13.7031 C   0  0  0  0  0  0  0  0  0  0  0  0
   -1.1877    7.5149   13.5943 C   0  0  0  0  0  0  0  0  0  0  0  0
   -0.7461    6.0743   13.4045 C   0  0  0  0  0  0  0  0  0  0  0  0
   -0.1006    6.1468    9.9958 O   0  0  0  0  0  0  0  0  0  0  0  0
    0.1066    5.9195   12.2173 N   0  0  0  0  0  0  0  0  0  0  0  0
   -3.2245    2.3612   10.9810 C   0  0  0  0  0  0  0  0  0  0  0  0
   -1.8831    2.1016   11.2135 C   0  0  0  0  0  0  0  0  0  0  0  0
   -0.9782    3.1484   11.2144 C   0  0  0  0  0  0  0  0  0  0  0  0
   -1.3986    4.4539   10.9870 C   0  0  0  0  0  0  0  0  0  0  0  0
   -2.7467    4.6943   10.7491 C   0  0  0  0  0  0  0  0  0  0  0  0
   -3.6589    3.6552   10.7437 C   0  0  0  0  0  0  0  0  0  0  0  0
   -4.3996    1.0445   11.0591 S   0  0  0  0  0  0  0  0  0  0  0  0
   -4.1704    0.2058    9.9205 O   0  0  0  0  0  0  0  0  0  0  0  0
   -4.3064    0.4616   12.3637 O   0  0  0  0  0  0  0  0  0  0  0  0
   -5.8693    1.6640   10.9118 N   0  0  0  0  0  0  0  0  0  0  0  0
   -6.0650    2.2687   11.7096 H   0  0  0  0  0  0  0  0  0  0  0  0
   -6.5549    0.9094   10.8810 H   0  0  0  0  0  0  0  0  0  0  0  0
   -0.4246    9.9020   13.8663 C   0  0  0  0  0  0  0  0  0  0  0  0
    0.4104   10.8414   14.4609 C   0  0  0  0  0  0  0  0  0  0  0  0
   -0.0112   12.1457   14.6564 C   0  0  0  0  0  0  0  0  0  0  0  0
   -1.2727   12.5340   14.2588 C   0  0  0  0  0  0  0  0  0  0  0  0
   -2.1124   11.6174   13.6612 C   0  0  0  0  0  0  0  0  0  0  0  0
   -1.6903   10.3119   13.4663 C   0  0  0  0  0  0  0  0  0  0  0  0
  2  3  1  0  0  0
  2  8  1  0  0  0
  7  1  2  0  0  0
  3  4  1  0  0  0
  1  8  1  0  0  0
  1 12  1  0  0  0
  8  6  1  0  0  0
 22 23  2  0  0  0
 22 21  1  0  0  0
  4 21  1  0  0  0
  4  5  1  0  0  0
 23 24  1  0  0  0
 21 26  2  0  0  0
 12 13  2  0  0  0
 12 11  1  0  0  0
  6  5  1  0  0  0
 13 14  1  0  0  0
 11 10  2  0  0  0
 24 25  2  0  0  0
 26 25  1  0  0  0
 14  9  2  0  0  0
 10  9  1  0  0  0
  9 15  1  0  0  0
 18 15  1  0  0  0
 17 15  2  0  0  0
 15 16  2  0  0  0
 18 19  1  0  0  0
 18 20  1  0  0  0
M  END
> <minimizedAffinity>
-6.86095

$$$$
6H2Z_FKE_A_302


 26 28  0  0  0  0  0  0  0  0999 V2000
   -2.4470    4.6980   14.2365 C   0  0  0  0  0  0  0  0  0  0  0  0
   -3.0103    6.8632   15.2027 C   0  0  0  0  0  0  0  0  0  0  0  0
   -1.9599    7.8991   14.8385 C   0  0  0  0  0  0  0  0  0  0  0  0
   -2.2820    8.5670   13.5017 C   0  0  0  0  0  0  0  0  0  0  0  0
   -2.4108    7.4688   12.4479 C   0  0  0  0  0  0  0  0  0  0  0  0
   -3.4554    6.4428   12.8507 C   0  0  0  0  0  0  0  0  0  0  0  0
   -1.5430    4.5483   15.0403 O   0  0  0  0  0  0  0  0  0  0  0  0
   -3.1493    5.8392   14.1555 N   0  0  0  0  0  0  0  0  0  0  0  0
   -3.5250    1.4182   11.7192 C   0  0  0  0  0  0  0  0  0  0  0  0
   -2.4584    2.2305   11.3684 C   0  0  0  0  0  0  0  0  0  0  0  0
   -2.1222    3.2996   12.1800 C   0  0  0  0  0  0  0  0  0  0  0  0
   -2.8393    3.5660   13.3408 C   0  0  0  0  0  0  0  0  0  0  0  0
   -3.9100    2.7445   13.6732 C   0  0  0  0  0  0  0  0  0  0  0  0
   -4.2557    1.6750   12.8679 C   0  0  0  0  0  0  0  0  0  0  0  0
   -3.9112    0.0030   10.7349 S   0  0  0  0  0  0  0  0  0  0  0  0
   -2.8657   -0.1352    9.7653 O   0  0  0  0  0  0  0  0  0  0  0  0
   -4.1592   -1.0879   11.6287 O   0  0  0  0  0  0  0  0  0  0  0  0
   -5.2705    0.2921    9.9384 N   0  0  0  0  0  0  0  0  0  0  0  0
   -6.0380    0.3961   10.6021 H   0  0  0  0  0  0  0  0  0  0  0  0
   -5.4681   -0.4862    9.3094 H   0  0  0  0  0  0  0  0  0  0  0  0
   -1.2137    9.5849   13.1138 C   0  0  0  0  0  0  0  0  0  0  0  0
   -0.8072   10.5722   14.0044 C   0  0  0  0  0  0  0  0  0  0  0  0
    0.1233   11.5275   13.6318 C   0  0  0  0  0  0  0  0  0  0  0  0
    0.6651   11.5110   12.3644 C   0  0  0  0  0  0  0  0  0  0  0  0
    0.2787   10.5351   11.4696 C   0  0  0  0  0  0  0  0  0  0  0  0
   -0.6531    9.5795   11.8427 C   0  0  0  0  0  0  0  0  0  0  0  0
  2  3  1  0  0  0
  2  8  1  0  0  0
  7  1  2  0  0  0
  3  4  1  0  0  0
  1  8  1  0  0  0
  1 12  1  0  0  0
  8  6  1  0  0  0
 22 23  2  0  0  0
 22 21  1  0  0  0
  4 21  1  0  0  0
  4  5  1  0  0  0
 23 24  1  0  0  0
 21 26  2  0  0  0
 12 13  2  0  0  0
 12 11  1  0  0  0
  6  5  1  0  0  0
 13 14  1  0  0  0
 11 10  2  0  0  0
 24 25  2  0  0  0
 26 25  1  0  0  0
 14  9  2  0  0  0
 10  9  1  0  0  0
  9 15  1  0  0  0
 18 15  1  0  0  0
 17 15  2  0  0  0
 15 16  2  0  0  0
 18 19  1  0  0  0
 18 20  1  0  0  0
M  END
> <minimizedAffinity>
-6.67953

$$$$
