6B59_CQS_A_302
  RCSB PDB09151803283D
Coordinates from PDB:6B59:A:302 Model:1 without hydrogens
 26 28  0  0  0  0            999 V2000
   -1.4820    8.4730   14.0990   C 0  0  0  0  0  0  0  0  0  0  0  0
   -1.0110    9.2830   12.9390   C 0  0  0  0  0  0  0  0  0  0  0  0
   -2.0320   11.4480   13.1060   C 0  0  0  0  0  0  0  0  0  0  0  0
   -0.6020   12.2780   14.4730   C 0  0  0  0  0  0  0  0  0  0  0  0
   -0.2680   11.0200   14.1880   C 0  0  0  0  0  0  0  0  0  0  0  0
    0.2470   12.9460   15.3410   C 0  0  0  0  0  0  0  0  0  0  0  0
   -6.0760    3.5380   15.6450   C 0  0  0  0  0  0  0  0  0  0  0  0
   -5.5530    4.5690   14.9240   C 0  0  0  0  0  0  0  0  0  0  0  0
   -4.2590    4.5210   14.5650   C 0  0  0  0  0  0  0  0  0  0  0  0
   -3.4620    3.4770   14.8870   C 0  0  0  0  0  0  0  0  0  0  0  0
   -3.9930    2.4650   15.6020   C 0  0  0  0  0  0  0  0  0  0  0  0
   -5.2820    2.5060   15.9840   C 0  0  0  0  0  0  0  0  0  0  0  0
   -3.7070    5.6610   13.7310   C 0  0  0  0  0  0  0  0  0  0  0  0
   -2.9870    6.6800   14.5580   C 0  0  0  0  0  0  0  0  0  0  0  0
    1.5470   11.1340   15.4920   C 0  0  0  0  0  0  0  0  0  0  0  0
   -2.4210    7.5900   13.6400   N 0  0  0  0  0  0  0  0  0  0  0  0
   -1.1560   10.5720   13.3880   N 0  0  0  0  0  0  0  0  0  0  0  0
   -1.7150   12.5340   13.7440   N 0  0  0  0  0  0  0  0  0  0  0  0
    1.2880   12.3620   15.8100   N 0  0  0  0  0  0  0  0  0  0  0  0
    0.8280   10.4630   14.7030   N 0  0  0  0  0  0  0  0  0  0  0  0
    0.0360   14.2950   15.7630   N 0  0  0  0  0  0  0  0  0  0  0  0
   -5.1690   -0.2550   16.3590   N 0  0  0  0  0  0  0  0  0  0  0  0
   -1.1490    8.6340   15.1780   O 0  0  0  0  0  0  0  0  0  0  0  0
   -5.4480    1.2760   18.1840   O 0  0  0  0  0  0  0  0  0  0  0  0
   -7.2100    1.1260   16.8780   O 0  0  0  0  0  0  0  0  0  0  0  0
   -5.9250    1.0860   16.9440   S 0  0  0  0  0  0  0  0  0  0  0  0
 21  6  1  0  0  0  0
  6 19  2  0  0  0  0
  6  4  1  0  0  0  0
 19 15  1  0  0  0  0
 18  4  1  0  0  0  0
 18  3  2  0  0  0  0
  4  5  2  0  0  0  0
 15 20  2  0  0  0  0
  3 17  1  0  0  0  0
  5 20  1  0  0  0  0
  5 17  1  0  0  0  0
 17  2  1  0  0  0  0
  2  1  1  0  0  0  0
 23  1  2  0  0  0  0
  1 16  1  0  0  0  0
 16 14  1  0  0  0  0
 13 14  1  0  0  0  0
 13  9  1  0  0  0  0
  9 10  2  0  0  0  0
  9  8  1  0  0  0  0
 10 11  1  0  0  0  0
  8  7  2  0  0  0  0
 11 12  2  0  0  0  0
  7 12  1  0  0  0  0
 12 26  1  0  0  0  0
 22 26  1  0  0  0  0
 25 26  2  0  0  0  0
 26 24  2  0  0  0  0
A    1
C10
A    2
C11
A    3
C14
A    4
C16
A    5
C17
A    6
C18
A    7
C01
A    8
C02
A    9
C03
A   10
C04
A   11
C05
A   12
C06
A   13
C07
A   14
C08
A   15
C20
A   16
N09
A   17
N12
A   18
N15
A   19
N19
A   20
N21
A   21
N22
A   22
N26
A   23
O13
A   24
O24
A   25
O25
A   26
S23
M  END
>  <InstanceId>
6B59_CQS_A_302

>  <ChemCompId>
CQS

>  <PdbId>
6B59

>  <ChainId>
A

>  <ResidueNumber>
302

>  <InsertionCode>


>  <Model>
1

>  <AltIds>


>  <MissingHeavyAtoms>
0

>  <ObservedFormula>
C15 N7 O3 S

>  <Name>
2-(6-amino-9H-purin-9-yl)-N-[2-(4-sulfamoylphenyl)ethyl]acetamide

>  <SystematicName>
2-(6-aminopurin-9-yl)-~{N}-[2-(4-sulfamoylphenyl)ethyl]ethanamide

>  <Synonyms>


>  <Type>
NON-POLYMER

>  <Formula>
C15 H17 N7 O3 S

>  <MolecularWeight>
375.406

>  <ModifiedDate>
2018-08-31

>  <Parent>


>  <OneLetterCode>


>  <SubcomponentList>


>  <AmbiguousFlag>
N

>  <InChI>
InChI=1S/C15H17N7O3S/c16-14-13-15(20-8-19-14)22(9-21-13)7-12(23)18-6-5-10-1-3-11(4-2-10)26(17,24)25/h1-4,8-9H,5-7H2,(H,18,23)(H2,16,19,20)(H2,17,24,25)

>  <InChIKey>
PUMWMJFQZZVYPO-UHFFFAOYSA-N

>  <SMILES>
c1cc(ccc1CCNC(=O)Cn2cnc3c2ncnc3N)S(=O)(=O)N

$$$$
