5EQP_5R9_A_501


 19 21  0  0  0  0  0  0  0  0999 V2000
   17.5274   76.7901   59.4404 C   0  0  0  0  0  0  0  0  0  0  0  0
   18.5164   77.0933   58.5137 C   0  0  0  0  0  0  0  0  0  0  0  0
   18.1810   77.4273   57.2119 C   0  0  0  0  0  0  0  0  0  0  0  0
   16.8533   77.4788   56.8020 C   0  0  0  0  0  0  0  0  0  0  0  0
   15.8669   77.1604   57.7391 C   0  0  0  0  0  0  0  0  0  0  0  0
   16.2067   76.8297   59.0414 C   0  0  0  0  0  0  0  0  0  0  0  0
   16.5558   77.7941   55.5316 N   0  0  0  0  0  0  0  0  0  0  0  0
   15.2563   77.8229   55.1973 C   0  0  0  0  0  0  0  0  0  0  0  0
   14.2253   77.5304   56.0672 C   0  0  0  0  0  0  0  0  0  0  0  0
   14.5375   77.2032   57.3727 C   0  0  0  0  0  0  0  0  0  0  0  0
   17.8947   76.4313   60.8479 C   0  0  0  0  0  0  0  0  0  0  0  0
   17.9915   71.8132   60.4092 N   0  0  0  0  0  0  0  0  0  0  0  0
   18.0983   74.2540   59.8803 C   0  0  0  0  0  0  0  0  0  0  0  0
   17.3143   72.9405   59.7679 C   0  0  0  0  0  0  0  0  0  0  0  0
   19.2898   73.2453   62.0105 C   0  0  0  0  0  0  0  0  0  0  0  0
   18.2934   72.0973   61.8177 C   0  0  0  0  0  0  0  0  0  0  0  0
   18.6036   74.5980   62.2226 C   0  0  0  0  0  0  0  0  0  0  0  0
   17.7663   75.0056   61.0918 N   0  0  0  0  0  0  0  0  0  0  0  0
   19.1933   71.4327   59.6751 C   0  0  0  0  0  0  0  0  0  0  0  0
 15 17  1  0  0  0
 15 16  1  0  0  0
 17 18  1  0  0  0
 16 12  1  0  0  0
 11 18  1  0  0  0
 11  1  1  0  0  0
 18 13  1  0  0  0
 19 12  1  0  0  0
 13 14  1  0  0  0
 12 14  1  0  0  0
  1  6  2  0  0  0
  1  2  1  0  0  0
  6  5  1  0  0  0
  2  3  2  0  0  0
  5 10  2  0  0  0
  5  4  1  0  0  0
 10  9  1  0  0  0
  3  4  1  0  0  0
  4  7  2  0  0  0
  9  8  2  0  0  0
  7  8  1  0  0  0
M  END
> <minimizedAffinity>
-8.77492

$$$$
5EQP_5R9_A_501


 19 21  0  0  0  0  0  0  0  0999 V2000
   17.2728   76.6925   59.1543 C   0  0  0  0  0  0  0  0  0  0  0  0
   15.9030   76.4638   59.1374 C   0  0  0  0  0  0  0  0  0  0  0  0
   15.1568   76.7498   58.0060 C   0  0  0  0  0  0  0  0  0  0  0  0
   15.7556   77.2601   56.8596 C   0  0  0  0  0  0  0  0  0  0  0  0
   17.1322   77.4975   56.8913 C   0  0  0  0  0  0  0  0  0  0  0  0
   17.8757   77.2071   58.0243 C   0  0  0  0  0  0  0  0  0  0  0  0
   15.0077   77.5394   55.7803 N   0  0  0  0  0  0  0  0  0  0  0  0
   15.6442   78.0332   54.7070 C   0  0  0  0  0  0  0  0  0  0  0  0
   17.0003   78.2861   54.6580 C   0  0  0  0  0  0  0  0  0  0  0  0
   17.7646   77.9999   55.7727 C   0  0  0  0  0  0  0  0  0  0  0  0
   18.0765   76.3798   60.3794 C   0  0  0  0  0  0  0  0  0  0  0  0
   18.0998   71.7501   60.6858 N   0  0  0  0  0  0  0  0  0  0  0  0
   18.3501   74.0753   59.8028 C   0  0  0  0  0  0  0  0  0  0  0  0
   17.5518   72.7657   59.7864 C   0  0  0  0  0  0  0  0  0  0  0  0
   19.2026   73.4098   62.2122 C   0  0  0  0  0  0  0  0  0  0  0  0
   18.2101   72.2522   62.0611 C   0  0  0  0  0  0  0  0  0  0  0  0
   18.5330   74.7834   62.1105 C   0  0  0  0  0  0  0  0  0  0  0  0
   17.8740   75.0117   60.8222 N   0  0  0  0  0  0  0  0  0  0  0  0
   19.3809   71.2501   60.1990 C   0  0  0  0  0  0  0  0  0  0  0  0
 15 17  1  0  0  0
 15 16  1  0  0  0
 17 18  1  0  0  0
 16 12  1  0  0  0
 11 18  1  0  0  0
 11  1  1  0  0  0
 18 13  1  0  0  0
 19 12  1  0  0  0
 13 14  1  0  0  0
 12 14  1  0  0  0
  1  6  2  0  0  0
  1  2  1  0  0  0
  6  5  1  0  0  0
  2  3  2  0  0  0
  5 10  2  0  0  0
  5  4  1  0  0  0
 10  9  1  0  0  0
  3  4  1  0  0  0
  4  7  2  0  0  0
  9  8  2  0  0  0
  7  8  1  0  0  0
M  END
> <minimizedAffinity>
-8.67927

$$$$
5EQP_5R9_A_501


 19 21  0  0  0  0  0  0  0  0999 V2000
   16.5025   76.2166   59.5099 C   0  0  0  0  0  0  0  0  0  0  0  0
   17.5423   76.8793   60.1492 C   0  0  0  0  0  0  0  0  0  0  0  0
   18.2045   76.2875   61.2122 C   0  0  0  0  0  0  0  0  0  0  0  0
   17.8566   75.0175   61.6590 C   0  0  0  0  0  0  0  0  0  0  0  0
   16.8014   74.3646   61.0165 C   0  0  0  0  0  0  0  0  0  0  0  0
   16.1435   74.9591   59.9513 C   0  0  0  0  0  0  0  0  0  0  0  0
   18.5068   74.4713   62.6986 N   0  0  0  0  0  0  0  0  0  0  0  0
   18.1215   73.2451   63.0844 C   0  0  0  0  0  0  0  0  0  0  0  0
   17.0961   72.5334   62.4951 C   0  0  0  0  0  0  0  0  0  0  0  0
   16.4281   73.1017   61.4277 C   0  0  0  0  0  0  0  0  0  0  0  0
   15.7904   76.8596   58.3592 C   0  0  0  0  0  0  0  0  0  0  0  0
   16.6916   76.2400   53.8501 N   0  0  0  0  0  0  0  0  0  0  0  0
   15.4725   76.5812   56.0056 C   0  0  0  0  0  0  0  0  0  0  0  0
   15.8531   75.6174   54.8747 C   0  0  0  0  0  0  0  0  0  0  0  0
   17.6164   77.9947   55.3884 C   0  0  0  0  0  0  0  0  0  0  0  0
   17.9025   76.8320   54.4323 C   0  0  0  0  0  0  0  0  0  0  0  0
   17.5228   77.5514   56.8514 C   0  0  0  0  0  0  0  0  0  0  0  0
   16.4500   76.5841   57.0952 N   0  0  0  0  0  0  0  0  0  0  0  0
   15.9391   77.2224   53.0778 C   0  0  0  0  0  0  0  0  0  0  0  0
 15 17  1  0  0  0
 15 16  1  0  0  0
 17 18  1  0  0  0
 16 12  1  0  0  0
 11 18  1  0  0  0
 11  1  1  0  0  0
 18 13  1  0  0  0
 19 12  1  0  0  0
 13 14  1  0  0  0
 12 14  1  0  0  0
  1  6  2  0  0  0
  1  2  1  0  0  0
  6  5  1  0  0  0
  2  3  2  0  0  0
  5 10  2  0  0  0
  5  4  1  0  0  0
 10  9  1  0  0  0
  3  4  1  0  0  0
  4  7  2  0  0  0
  9  8  2  0  0  0
  7  8  1  0  0  0
M  END
> <minimizedAffinity>
-8.03872

$$$$
5EQP_5R9_A_501


 19 21  0  0  0  0  0  0  0  0999 V2000
   17.0785   76.8358   59.2120 C   0  0  0  0  0  0  0  0  0  0  0  0
   15.7065   76.7321   59.0230 C   0  0  0  0  0  0  0  0  0  0  0  0
   15.1455   77.0003   57.7852 C   0  0  0  0  0  0  0  0  0  0  0  0
   15.9358   77.3675   56.7018 C   0  0  0  0  0  0  0  0  0  0  0  0
   17.3136   77.4804   56.9059 C   0  0  0  0  0  0  0  0  0  0  0  0
   17.8711   77.2082   58.1452 C   0  0  0  0  0  0  0  0  0  0  0  0
   15.3659   77.6331   55.5158 N   0  0  0  0  0  0  0  0  0  0  0  0
   16.1822   77.9861   54.5108 C   0  0  0  0  0  0  0  0  0  0  0  0
   17.5516   78.1102   54.6314 C   0  0  0  0  0  0  0  0  0  0  0  0
   18.1326   77.8389   55.8552 C   0  0  0  0  0  0  0  0  0  0  0  0
   17.6812   76.5428   60.5520 C   0  0  0  0  0  0  0  0  0  0  0  0
   18.8404   72.3438   62.1499 N   0  0  0  0  0  0  0  0  0  0  0  0
   18.2016   74.7588   62.0568 C   0  0  0  0  0  0  0  0  0  0  0  0
   19.3025   73.7222   62.3140 C   0  0  0  0  0  0  0  0  0  0  0  0
   16.9757   72.9442   60.5805 C   0  0  0  0  0  0  0  0  0  0  0  0
   18.2499   72.1285   60.8230 C   0  0  0  0  0  0  0  0  0  0  0  0
   17.2492   74.2801   59.8834 C   0  0  0  0  0  0  0  0  0  0  0  0
   18.1279   75.1647   60.6524 N   0  0  0  0  0  0  0  0  0  0  0  0
   17.9124   71.9685   63.2110 C   0  0  0  0  0  0  0  0  0  0  0  0
 15 17  1  0  0  0
 15 16  1  0  0  0
 17 18  1  0  0  0
 16 12  1  0  0  0
 11 18  1  0  0  0
 11  1  1  0  0  0
 18 13  1  0  0  0
 19 12  1  0  0  0
 13 14  1  0  0  0
 12 14  1  0  0  0
  1  6  2  0  0  0
  1  2  1  0  0  0
  6  5  1  0  0  0
  2  3  2  0  0  0
  5 10  2  0  0  0
  5  4  1  0  0  0
 10  9  1  0  0  0
  3  4  1  0  0  0
  4  7  2  0  0  0
  9  8  2  0  0  0
  7  8  1  0  0  0
M  END
> <minimizedAffinity>
-7.86579

$$$$
5EQP_5R9_A_501


 19 21  0  0  0  0  0  0  0  0999 V2000
   15.6430   76.1321   58.7197 C   0  0  0  0  0  0  0  0  0  0  0  0
   16.7506   76.9481   58.9097 C   0  0  0  0  0  0  0  0  0  0  0  0
   17.6850   76.6481   59.8873 C   0  0  0  0  0  0  0  0  0  0  0  0
   17.5470   75.5232   60.6929 C   0  0  0  0  0  0  0  0  0  0  0  0
   16.4229   74.7157   60.5013 C   0  0  0  0  0  0  0  0  0  0  0  0
   15.4920   75.0178   59.5200 C   0  0  0  0  0  0  0  0  0  0  0  0
   18.4609   75.2614   61.6407 N   0  0  0  0  0  0  0  0  0  0  0  0
   18.2691   74.1632   62.3878 C   0  0  0  0  0  0  0  0  0  0  0  0
   17.1906   73.3123   62.2529 C   0  0  0  0  0  0  0  0  0  0  0  0
   16.2513   73.5884   61.2781 C   0  0  0  0  0  0  0  0  0  0  0  0
   14.6359   76.4593   57.6598 C   0  0  0  0  0  0  0  0  0  0  0  0
   15.9559   79.1880   54.1468 N   0  0  0  0  0  0  0  0  0  0  0  0
   15.3935   77.1658   55.5045 C   0  0  0  0  0  0  0  0  0  0  0  0
   16.4881   78.0329   54.8701 C   0  0  0  0  0  0  0  0  0  0  0  0
   13.8302   79.2943   55.4775 C   0  0  0  0  0  0  0  0  0  0  0  0
   15.0988   80.0134   55.0070 C   0  0  0  0  0  0  0  0  0  0  0  0
   13.9998   78.6233   56.8437 C   0  0  0  0  0  0  0  0  0  0  0  0
   15.0469   77.5990   56.8591 N   0  0  0  0  0  0  0  0  0  0  0  0
   15.2532   78.7749   52.9370 C   0  0  0  0  0  0  0  0  0  0  0  0
 15 17  1  0  0  0
 15 16  1  0  0  0
 17 18  1  0  0  0
 16 12  1  0  0  0
 11 18  1  0  0  0
 11  1  1  0  0  0
 18 13  1  0  0  0
 19 12  1  0  0  0
 13 14  1  0  0  0
 12 14  1  0  0  0
  1  6  2  0  0  0
  1  2  1  0  0  0
  6  5  1  0  0  0
  2  3  2  0  0  0
  5 10  2  0  0  0
  5  4  1  0  0  0
 10  9  1  0  0  0
  3  4  1  0  0  0
  4  7  2  0  0  0
  9  8  2  0  0  0
  7  8  1  0  0  0
M  END
> <minimizedAffinity>
-7.84958

$$$$
5EQP_5R9_A_501


 19 21  0  0  0  0  0  0  0  0999 V2000
   17.7181   75.4585   58.9031 C   0  0  0  0  0  0  0  0  0  0  0  0
   17.4452   76.3949   59.8919 C   0  0  0  0  0  0  0  0  0  0  0  0
   17.5057   76.0417   61.2300 C   0  0  0  0  0  0  0  0  0  0  0  0
   17.8496   74.7517   61.6184 C   0  0  0  0  0  0  0  0  0  0  0  0
   18.1106   73.8144   60.6154 C   0  0  0  0  0  0  0  0  0  0  0  0
   18.0519   74.1728   59.2778 C   0  0  0  0  0  0  0  0  0  0  0  0
   17.8898   74.4323   62.9216 N   0  0  0  0  0  0  0  0  0  0  0  0
   18.2245   73.1702   63.2315 C   0  0  0  0  0  0  0  0  0  0  0  0
   18.5048   72.1913   62.2996 C   0  0  0  0  0  0  0  0  0  0  0  0
   18.4587   72.5246   60.9597 C   0  0  0  0  0  0  0  0  0  0  0  0
   17.6535   75.8454   57.4571 C   0  0  0  0  0  0  0  0  0  0  0  0
   13.7783   77.7303   55.7370 N   0  0  0  0  0  0  0  0  0  0  0  0
   16.1056   77.4581   56.6077 C   0  0  0  0  0  0  0  0  0  0  0  0
   14.6817   77.9678   56.8630 C   0  0  0  0  0  0  0  0  0  0  0  0
   15.0824   75.7807   54.8430 C   0  0  0  0  0  0  0  0  0  0  0  0
   13.7429   76.3102   55.3658 C   0  0  0  0  0  0  0  0  0  0  0  0
   15.9356   75.1375   55.9401 C   0  0  0  0  0  0  0  0  0  0  0  0
   16.2867   76.0649   57.0184 N   0  0  0  0  0  0  0  0  0  0  0  0
   14.1264   78.5688   54.5952 C   0  0  0  0  0  0  0  0  0  0  0  0
 15 17  1  0  0  0
 15 16  1  0  0  0
 17 18  1  0  0  0
 16 12  1  0  0  0
 11 18  1  0  0  0
 11  1  1  0  0  0
 18 13  1  0  0  0
 19 12  1  0  0  0
 13 14  1  0  0  0
 12 14  1  0  0  0
  1  6  2  0  0  0
  1  2  1  0  0  0
  6  5  1  0  0  0
  2  3  2  0  0  0
  5 10  2  0  0  0
  5  4  1  0  0  0
 10  9  1  0  0  0
  3  4  1  0  0  0
  4  7  2  0  0  0
  9  8  2  0  0  0
  7  8  1  0  0  0
M  END
> <minimizedAffinity>
-7.59128

$$$$
5EQP_5R9_A_501


 19 21  0  0  0  0  0  0  0  0999 V2000
   17.7990   75.2585   58.9386 C   0  0  0  0  0  0  0  0  0  0  0  0
   17.4341   76.2217   59.8703 C   0  0  0  0  0  0  0  0  0  0  0  0
   17.4213   75.9220   61.2226 C   0  0  0  0  0  0  0  0  0  0  0  0
   17.7816   74.6604   61.6830 C   0  0  0  0  0  0  0  0  0  0  0  0
   18.1356   73.6954   60.7365 C   0  0  0  0  0  0  0  0  0  0  0  0
   18.1500   74.0003   59.3846 C   0  0  0  0  0  0  0  0  0  0  0  0
   17.7497   74.3925   62.9980 N   0  0  0  0  0  0  0  0  0  0  0  0
   18.1049   73.1555   63.3785 C   0  0  0  0  0  0  0  0  0  0  0  0
   18.4750   72.1522   62.5057 C   0  0  0  0  0  0  0  0  0  0  0  0
   18.5028   72.4325   61.1532 C   0  0  0  0  0  0  0  0  0  0  0  0
   17.8134   75.5876   57.4771 C   0  0  0  0  0  0  0  0  0  0  0  0
   17.5181   72.0646   54.4721 N   0  0  0  0  0  0  0  0  0  0  0  0
   16.9070   73.9843   55.9520 C   0  0  0  0  0  0  0  0  0  0  0  0
   16.8753   72.4680   55.7229 C   0  0  0  0  0  0  0  0  0  0  0  0
   19.0070   74.0820   54.3535 C   0  0  0  0  0  0  0  0  0  0  0  0
   18.9003   72.5540   54.3951 C   0  0  0  0  0  0  0  0  0  0  0  0
   19.2093   74.7012   55.7395 C   0  0  0  0  0  0  0  0  0  0  0  0
   18.1087   74.4207   56.6647 N   0  0  0  0  0  0  0  0  0  0  0  0
   16.7383   72.4928   53.3160 C   0  0  0  0  0  0  0  0  0  0  0  0
 15 17  1  0  0  0
 15 16  1  0  0  0
 17 18  1  0  0  0
 16 12  1  0  0  0
 11 18  1  0  0  0
 11  1  1  0  0  0
 18 13  1  0  0  0
 19 12  1  0  0  0
 13 14  1  0  0  0
 12 14  1  0  0  0
  1  6  2  0  0  0
  1  2  1  0  0  0
  6  5  1  0  0  0
  2  3  2  0  0  0
  5 10  2  0  0  0
  5  4  1  0  0  0
 10  9  1  0  0  0
  3  4  1  0  0  0
  4  7  2  0  0  0
  9  8  2  0  0  0
  7  8  1  0  0  0
M  END
> <minimizedAffinity>
-7.55508

$$$$
5EQP_5R9_A_501


 19 21  0  0  0  0  0  0  0  0999 V2000
   17.2968   75.7980   58.8017 C   0  0  0  0  0  0  0  0  0  0  0  0
   17.2748   76.6711   59.8815 C   0  0  0  0  0  0  0  0  0  0  0  0
   17.6463   76.2374   61.1436 C   0  0  0  0  0  0  0  0  0  0  0  0
   18.0593   74.9277   61.3612 C   0  0  0  0  0  0  0  0  0  0  0  0
   18.0663   74.0544   60.2703 C   0  0  0  0  0  0  0  0  0  0  0  0
   17.6968   74.4932   59.0087 C   0  0  0  0  0  0  0  0  0  0  0  0
   18.4031   74.5298   62.5963 N   0  0  0  0  0  0  0  0  0  0  0  0
   18.7889   73.2526   62.7416 C   0  0  0  0  0  0  0  0  0  0  0  0
   18.8312   72.3336   61.7127 C   0  0  0  0  0  0  0  0  0  0  0  0
   18.4730   72.7476   60.4442 C   0  0  0  0  0  0  0  0  0  0  0  0
   16.8962   76.2719   57.4380 C   0  0  0  0  0  0  0  0  0  0  0  0
   12.5258   75.0344   56.4908 N   0  0  0  0  0  0  0  0  0  0  0  0
   14.5065   76.1947   57.4803 C   0  0  0  0  0  0  0  0  0  0  0  0
   13.3670   75.1873   57.6780 C   0  0  0  0  0  0  0  0  0  0  0  0
   14.3169   75.7492   54.8841 C   0  0  0  0  0  0  0  0  0  0  0  0
   13.3203   74.6669   55.3120 C   0  0  0  0  0  0  0  0  0  0  0  0
   15.7110   75.5436   55.4839 C   0  0  0  0  0  0  0  0  0  0  0  0
   15.7207   75.5737   56.9486 N   0  0  0  0  0  0  0  0  0  0  0  0
   11.7364   76.2362   56.2451 C   0  0  0  0  0  0  0  0  0  0  0  0
 15 17  1  0  0  0
 15 16  1  0  0  0
 17 18  1  0  0  0
 16 12  1  0  0  0
 11 18  1  0  0  0
 11  1  1  0  0  0
 18 13  1  0  0  0
 19 12  1  0  0  0
 13 14  1  0  0  0
 12 14  1  0  0  0
  1  6  2  0  0  0
  1  2  1  0  0  0
  6  5  1  0  0  0
  2  3  2  0  0  0
  5 10  2  0  0  0
  5  4  1  0  0  0
 10  9  1  0  0  0
  3  4  1  0  0  0
  4  7  2  0  0  0
  9  8  2  0  0  0
  7  8  1  0  0  0
M  END
> <minimizedAffinity>
-7.44352

$$$$
5EQP_5R9_A_501


 19 21  0  0  0  0  0  0  0  0999 V2000
   18.5610   72.0712   57.9681 C   0  0  0  0  0  0  0  0  0  0  0  0
   17.9791   73.3147   57.7586 C   0  0  0  0  0  0  0  0  0  0  0  0
   17.7780   74.1839   58.8182 C   0  0  0  0  0  0  0  0  0  0  0  0
   18.1605   73.8427   60.1107 C   0  0  0  0  0  0  0  0  0  0  0  0
   18.7342   72.5846   60.3123 C   0  0  0  0  0  0  0  0  0  0  0  0
   18.9364   71.7192   59.2488 C   0  0  0  0  0  0  0  0  0  0  0  0
   17.9440   74.6988   61.1218 N   0  0  0  0  0  0  0  0  0  0  0  0
   18.3321   74.3093   62.3461 C   0  0  0  0  0  0  0  0  0  0  0  0
   18.9131   73.0884   62.6233 C   0  0  0  0  0  0  0  0  0  0  0  0
   19.1306   72.2098   61.5795 C   0  0  0  0  0  0  0  0  0  0  0  0
   18.7785   71.1350   56.8188 C   0  0  0  0  0  0  0  0  0  0  0  0
   15.8214   70.2291   53.3599 N   0  0  0  0  0  0  0  0  0  0  0  0
   17.9309   70.6207   54.6427 C   0  0  0  0  0  0  0  0  0  0  0  0
   16.9235   71.1563   53.6176 C   0  0  0  0  0  0  0  0  0  0  0  0
   16.0035   69.0800   55.5841 C   0  0  0  0  0  0  0  0  0  0  0  0
   15.1266   69.8611   54.5999 C   0  0  0  0  0  0  0  0  0  0  0  0
   16.6849   69.9818   56.6174 C   0  0  0  0  0  0  0  0  0  0  0  0
   17.5776   70.9767   56.0179 N   0  0  0  0  0  0  0  0  0  0  0  0
   16.2834   69.0476   52.6397 C   0  0  0  0  0  0  0  0  0  0  0  0
 15 17  1  0  0  0
 15 16  1  0  0  0
 17 18  1  0  0  0
 16 12  1  0  0  0
 11 18  1  0  0  0
 11  1  1  0  0  0
 18 13  1  0  0  0
 19 12  1  0  0  0
 13 14  1  0  0  0
 12 14  1  0  0  0
  1  6  2  0  0  0
  1  2  1  0  0  0
  6  5  1  0  0  0
  2  3  2  0  0  0
  5 10  2  0  0  0
  5  4  1  0  0  0
 10  9  1  0  0  0
  3  4  1  0  0  0
  4  7  2  0  0  0
  9  8  2  0  0  0
  7  8  1  0  0  0
M  END
> <minimizedAffinity>
-7.35058

$$$$
5EQP_5R9_A_501


 19 21  0  0  0  0  0  0  0  0999 V2000
   18.5720   72.7825   58.1987 C   0  0  0  0  0  0  0  0  0  0  0  0
   19.1776   71.6033   58.6128 C   0  0  0  0  0  0  0  0  0  0  0  0
   19.2207   71.2698   59.9566 C   0  0  0  0  0  0  0  0  0  0  0  0
   18.6530   72.0952   60.9209 C   0  0  0  0  0  0  0  0  0  0  0  0
   18.0568   73.2848   60.4946 C   0  0  0  0  0  0  0  0  0  0  0  0
   18.0132   73.6132   59.1488 C   0  0  0  0  0  0  0  0  0  0  0  0
   18.7186   71.7543   62.2177 N   0  0  0  0  0  0  0  0  0  0  0  0
   18.1555   72.5947   63.0996 C   0  0  0  0  0  0  0  0  0  0  0  0
   17.5409   73.7818   62.7559 C   0  0  0  0  0  0  0  0  0  0  0  0
   17.4792   74.1293   61.4202 C   0  0  0  0  0  0  0  0  0  0  0  0
   18.5258   73.1383   56.7440 C   0  0  0  0  0  0  0  0  0  0  0  0
   17.9158   69.5665   53.8460 N   0  0  0  0  0  0  0  0  0  0  0  0
   17.4618   71.4711   55.4000 C   0  0  0  0  0  0  0  0  0  0  0  0
   17.4721   69.9524   55.1856 C   0  0  0  0  0  0  0  0  0  0  0  0
   19.2551   71.6559   53.4700 C   0  0  0  0  0  0  0  0  0  0  0  0
   19.2376   70.1251   53.5351 C   0  0  0  0  0  0  0  0  0  0  0  0
   19.6546   72.3024   54.7996 C   0  0  0  0  0  0  0  0  0  0  0  0
   18.7415   71.9777   55.8982 N   0  0  0  0  0  0  0  0  0  0  0  0
   16.9313   69.9393   52.8362 C   0  0  0  0  0  0  0  0  0  0  0  0
 15 17  1  0  0  0
 15 16  1  0  0  0
 17 18  1  0  0  0
 16 12  1  0  0  0
 11 18  1  0  0  0
 11  1  1  0  0  0
 18 13  1  0  0  0
 19 12  1  0  0  0
 13 14  1  0  0  0
 12 14  1  0  0  0
  1  6  2  0  0  0
  1  2  1  0  0  0
  6  5  1  0  0  0
  2  3  2  0  0  0
  5 10  2  0  0  0
  5  4  1  0  0  0
 10  9  1  0  0  0
  3  4  1  0  0  0
  4  7  2  0  0  0
  9  8  2  0  0  0
  7  8  1  0  0  0
M  END
> <minimizedAffinity>
-7.32406

$$$$
