5U4B_XOS_A_200


 20 21  0  0  0  0  0  0  0  0999 V2000
  -21.4085    0.1757  -21.2529 C   0  0  0  0  0  0  0  0  0  0  0  0
  -21.2459    1.1911  -22.1838 C   0  0  0  0  0  0  0  0  0  0  0  0
  -21.4645    0.9399  -23.5316 C   0  0  0  0  0  0  0  0  0  0  0  0
  -21.8448   -0.3300  -23.9447 C   0  0  0  0  0  0  0  0  0  0  0  0
  -22.0048   -1.3405  -23.0103 C   0  0  0  0  0  0  0  0  0  0  0  0
  -21.7865   -1.0912  -21.6662 C   0  0  0  0  0  0  0  0  0  0  0  0
  -20.8315    2.5693  -21.7134 C   0  0  0  0  0  0  0  0  0  0  0  0
  -19.9099    2.6866  -20.8636 O   0  0  0  0  0  0  0  0  0  0  0  0
  -21.4016    3.5962  -22.1693 O   0  0  0  0  0  0  0  0  0  0  0  0
  -22.0875    3.5095  -22.8018 H   0  0  0  0  0  0  0  0  0  0  0  0
  -22.0948   -0.6518  -25.4045 C   0  0  0  0  0  0  0  0  0  0  0  0
  -21.6728    0.0316  -26.4780 C   0  0  0  0  0  0  0  0  0  0  0  0
  -21.9755   -0.3750  -27.9062 C   0  0  0  0  0  0  0  0  0  0  0  0
  -21.3640    0.2933  -28.9555 C   0  0  0  0  0  0  0  0  0  0  0  0
  -21.6434   -0.0649  -30.2648 C   0  0  0  0  0  0  0  0  0  0  0  0
  -22.5364   -1.0895  -30.5282 C   0  0  0  0  0  0  0  0  0  0  0  0
  -23.1526   -1.7555  -29.4808 C   0  0  0  0  0  0  0  0  0  0  0  0
  -22.8771   -1.3968  -28.1697 C   0  0  0  0  0  0  0  0  0  0  0  0
  -22.8161   -1.4514  -31.8589 O   0  0  0  0  0  0  0  0  0  0  0  0
  -23.4203   -2.1446  -32.0387 H   0  0  0  0  0  0  0  0  0  0  0  0
 19 16  1  0  0  0
 17 16  2  0  0  0
 17 18  1  0  0  0
 16 15  1  0  0  0
 15 14  2  0  0  0
 18 13  2  0  0  0
 14 13  1  0  0  0
 13 12  1  0  0  0
 12 11  2  0  0  0
 11  4  1  0  0  0
  4  5  2  0  0  0
  4  3  1  0  0  0
  5  6  1  0  0  0
  3  2  2  0  0  0
  6  1  2  0  0  0
  2  1  1  0  0  0
  2  7  1  0  0  0
  8  7  2  0  0  0
  7  9  1  0  0  0
 19 20  1  0  0  0
  9 10  1  0  0  0
M  END
> <minimizedAffinity>
-8.66054

$$$$
5U4B_XOS_A_200


 20 21  0  0  0  0  0  0  0  0999 V2000
  -21.7588   -0.2108  -21.2133 C   0  0  0  0  0  0  0  0  0  0  0  0
  -21.9687   -1.2231  -22.1380 C   0  0  0  0  0  0  0  0  0  0  0  0
  -21.7367   -0.9912  -23.4870 C   0  0  0  0  0  0  0  0  0  0  0  0
  -21.2956    0.2563  -23.9075 C   0  0  0  0  0  0  0  0  0  0  0  0
  -21.0885    1.2639  -22.9793 C   0  0  0  0  0  0  0  0  0  0  0  0
  -21.3201    1.0339  -21.6339 C   0  0  0  0  0  0  0  0  0  0  0  0
  -22.4491   -2.5769  -21.6597 C   0  0  0  0  0  0  0  0  0  0  0  0
  -23.2719   -2.6458  -20.7090 O   0  0  0  0  0  0  0  0  0  0  0  0
  -22.0323   -3.6314  -22.2088 O   0  0  0  0  0  0  0  0  0  0  0  0
  -21.4200   -3.5807  -22.9163 H   0  0  0  0  0  0  0  0  0  0  0  0
  -21.0287    0.5566  -25.3689 C   0  0  0  0  0  0  0  0  0  0  0  0
  -21.4988   -0.0999  -26.4393 C   0  0  0  0  0  0  0  0  0  0  0  0
  -21.1736    0.2814  -27.8695 C   0  0  0  0  0  0  0  0  0  0  0  0
  -20.2606    1.2940  -28.1204 C   0  0  0  0  0  0  0  0  0  0  0  0
  -19.9655    1.6563  -29.4251 C   0  0  0  0  0  0  0  0  0  0  0  0
  -20.5841    1.0096  -30.4815 C   0  0  0  0  0  0  0  0  0  0  0  0
  -21.5007    0.0006  -30.2327 C   0  0  0  0  0  0  0  0  0  0  0  0
  -21.8002   -0.3616  -28.9279 C   0  0  0  0  0  0  0  0  0  0  0  0
  -20.2804    1.3792  -31.8047 O   0  0  0  0  0  0  0  0  0  0  0  0
  -20.6982    0.9424  -32.5207 H   0  0  0  0  0  0  0  0  0  0  0  0
 19 16  1  0  0  0
 17 16  2  0  0  0
 17 18  1  0  0  0
 16 15  1  0  0  0
 15 14  2  0  0  0
 18 13  2  0  0  0
 14 13  1  0  0  0
 13 12  1  0  0  0
 12 11  2  0  0  0
 11  4  1  0  0  0
  4  5  2  0  0  0
  4  3  1  0  0  0
  5  6  1  0  0  0
  3  2  2  0  0  0
  6  1  2  0  0  0
  2  1  1  0  0  0
  2  7  1  0  0  0
  8  7  2  0  0  0
  7  9  1  0  0  0
 19 20  1  0  0  0
  9 10  1  0  0  0
M  END
> <minimizedAffinity>
-8.52449

$$$$
5U4B_XOS_A_200


 20 21  0  0  0  0  0  0  0  0999 V2000
  -21.3431    1.9322  -21.4167 C   0  0  0  0  0  0  0  0  0  0  0  0
  -21.5528    0.6055  -21.7629 C   0  0  0  0  0  0  0  0  0  0  0  0
  -21.7636    0.2587  -23.0905 C   0  0  0  0  0  0  0  0  0  0  0  0
  -21.7652    1.2431  -24.0697 C   0  0  0  0  0  0  0  0  0  0  0  0
  -21.5559    2.5667  -23.7178 C   0  0  0  0  0  0  0  0  0  0  0  0
  -21.3462    2.9137  -22.3941 C   0  0  0  0  0  0  0  0  0  0  0  0
  -21.5468   -0.4534  -20.6808 C   0  0  0  0  0  0  0  0  0  0  0  0
  -21.4221   -0.1117  -19.4753 O   0  0  0  0  0  0  0  0  0  0  0  0
  -21.6681   -1.6711  -20.9803 O   0  0  0  0  0  0  0  0  0  0  0  0
  -21.7609   -1.9260  -21.8771 H   0  0  0  0  0  0  0  0  0  0  0  0
  -21.9907    0.9129  -25.5316 C   0  0  0  0  0  0  0  0  0  0  0  0
  -21.5357   -0.1495  -26.2112 C   0  0  0  0  0  0  0  0  0  0  0  0
  -21.8190   -0.3928  -27.6800 C   0  0  0  0  0  0  0  0  0  0  0  0
  -22.7316   -1.3677  -28.0518 C   0  0  0  0  0  0  0  0  0  0  0  0
  -22.9886   -1.6040  -29.3930 C   0  0  0  0  0  0  0  0  0  0  0  0
  -22.3322   -0.8687  -30.3652 C   0  0  0  0  0  0  0  0  0  0  0  0
  -21.4158    0.1029  -29.9957 C   0  0  0  0  0  0  0  0  0  0  0  0
  -21.1545    0.3391  -28.6542 C   0  0  0  0  0  0  0  0  0  0  0  0
  -22.5972   -1.1104  -31.7258 O   0  0  0  0  0  0  0  0  0  0  0  0
  -22.1537   -0.6135  -32.3849 H   0  0  0  0  0  0  0  0  0  0  0  0
 19 16  1  0  0  0
 17 16  2  0  0  0
 17 18  1  0  0  0
 16 15  1  0  0  0
 15 14  2  0  0  0
 18 13  2  0  0  0
 14 13  1  0  0  0
 13 12  1  0  0  0
 12 11  2  0  0  0
 11  4  1  0  0  0
  4  5  2  0  0  0
  4  3  1  0  0  0
  5  6  1  0  0  0
  3  2  2  0  0  0
  6  1  2  0  0  0
  2  1  1  0  0  0
  2  7  1  0  0  0
  8  7  2  0  0  0
  7  9  1  0  0  0
 19 20  1  0  0  0
  9 10  1  0  0  0
M  END
> <minimizedAffinity>
-8.04400

$$$$
5U4B_XOS_A_200


 20 21  0  0  0  0  0  0  0  0999 V2000
  -21.7661   -1.9206  -21.4225 C   0  0  0  0  0  0  0  0  0  0  0  0
  -21.5372   -0.5899  -21.7400 C   0  0  0  0  0  0  0  0  0  0  0  0
  -21.3051   -0.2199  -23.0579 C   0  0  0  0  0  0  0  0  0  0  0  0
  -21.3017   -1.1852  -24.0559 C   0  0  0  0  0  0  0  0  0  0  0  0
  -21.5302   -2.5129  -23.7325 C   0  0  0  0  0  0  0  0  0  0  0  0
  -21.7611   -2.8830  -22.4186 C   0  0  0  0  0  0  0  0  0  0  0  0
  -21.5456    0.4479  -20.6377 C   0  0  0  0  0  0  0  0  0  0  0  0
  -21.4637    1.6696  -20.9314 O   0  0  0  0  0  0  0  0  0  0  0  0
  -21.6366    0.0955  -19.4315 O   0  0  0  0  0  0  0  0  0  0  0  0
  -21.6976   -0.8135  -19.2123 H   0  0  0  0  0  0  0  0  0  0  0  0
  -21.0534   -0.8294  -25.5081 C   0  0  0  0  0  0  0  0  0  0  0  0
  -21.7976   -0.0416  -26.2974 C   0  0  0  0  0  0  0  0  0  0  0  0
  -21.4624    0.2561  -27.7451 C   0  0  0  0  0  0  0  0  0  0  0  0
  -22.0914   -0.4535  -28.7563 C   0  0  0  0  0  0  0  0  0  0  0  0
  -21.7828   -0.1951  -30.0825 C   0  0  0  0  0  0  0  0  0  0  0  0
  -20.8432    0.7706  -30.4006 C   0  0  0  0  0  0  0  0  0  0  0  0
  -20.2097    1.4775  -29.3911 C   0  0  0  0  0  0  0  0  0  0  0  0
  -20.5144    1.2186  -28.0630 C   0  0  0  0  0  0  0  0  0  0  0  0
  -20.5340    1.0312  -31.7483 O   0  0  0  0  0  0  0  0  0  0  0  0
  -19.8983    1.6845  -31.9652 H   0  0  0  0  0  0  0  0  0  0  0  0
 19 16  1  0  0  0
 17 16  2  0  0  0
 17 18  1  0  0  0
 16 15  1  0  0  0
 15 14  2  0  0  0
 18 13  2  0  0  0
 14 13  1  0  0  0
 13 12  1  0  0  0
 12 11  2  0  0  0
 11  4  1  0  0  0
  4  5  2  0  0  0
  4  3  1  0  0  0
  5  6  1  0  0  0
  3  2  2  0  0  0
  6  1  2  0  0  0
  2  1  1  0  0  0
  2  7  1  0  0  0
  8  7  2  0  0  0
  7  9  1  0  0  0
 19 20  1  0  0  0
  9 10  1  0  0  0
M  END
> <minimizedAffinity>
-8.03321

$$$$
5U4B_XOS_A_200


 20 21  0  0  0  0  0  0  0  0999 V2000
  -21.8028   -0.2053  -30.2599 C   0  0  0  0  0  0  0  0  0  0  0  0
  -22.7875   -0.9066  -29.5797 C   0  0  0  0  0  0  0  0  0  0  0  0
  -22.7535   -0.9849  -28.1940 C   0  0  0  0  0  0  0  0  0  0  0  0
  -21.7311   -0.3609  -27.4918 C   0  0  0  0  0  0  0  0  0  0  0  0
  -20.7499    0.3375  -28.1767 C   0  0  0  0  0  0  0  0  0  0  0  0
  -20.7825    0.4157  -29.5586 C   0  0  0  0  0  0  0  0  0  0  0  0
  -23.8945   -1.5796  -30.3633 C   0  0  0  0  0  0  0  0  0  0  0  0
  -23.8210   -1.6403  -31.6188 O   0  0  0  0  0  0  0  0  0  0  0  0
  -24.8845   -2.0799  -29.7659 O   0  0  0  0  0  0  0  0  0  0  0  0
  -24.9397   -2.0351  -28.8316 H   0  0  0  0  0  0  0  0  0  0  0  0
  -21.6521   -0.4185  -25.9794 C   0  0  0  0  0  0  0  0  0  0  0  0
  -21.8104    0.5913  -25.1116 C   0  0  0  0  0  0  0  0  0  0  0  0
  -21.7136    0.4309  -23.6077 C   0  0  0  0  0  0  0  0  0  0  0  0
  -21.9791   -0.8006  -23.0293 C   0  0  0  0  0  0  0  0  0  0  0  0
  -21.9034   -0.9533  -21.6539 C   0  0  0  0  0  0  0  0  0  0  0  0
  -21.5653    0.1247  -20.8538 C   0  0  0  0  0  0  0  0  0  0  0  0
  -21.3044    1.3578  -21.4297 C   0  0  0  0  0  0  0  0  0  0  0  0
  -21.3826    1.5140  -22.8056 C   0  0  0  0  0  0  0  0  0  0  0  0
  -21.4878   -0.0348  -19.4580 O   0  0  0  0  0  0  0  0  0  0  0  0
  -21.2591    0.6939  -18.9151 H   0  0  0  0  0  0  0  0  0  0  0  0
 19 16  1  0  0  0
 17 16  2  0  0  0
 17 18  1  0  0  0
 16 15  1  0  0  0
 15 14  2  0  0  0
 18 13  2  0  0  0
 14 13  1  0  0  0
 13 12  1  0  0  0
 12 11  2  0  0  0
 11  4  1  0  0  0
  4  5  2  0  0  0
  4  3  1  0  0  0
  5  6  1  0  0  0
  3  2  2  0  0  0
  6  1  2  0  0  0
  2  1  1  0  0  0
  2  7  1  0  0  0
  8  7  2  0  0  0
  7  9  1  0  0  0
 19 20  1  0  0  0
  9 10  1  0  0  0
M  END
> <minimizedAffinity>
-7.89756

$$$$
5U4B_XOS_A_200


 20 21  0  0  0  0  0  0  0  0999 V2000
  -21.4525    0.0855  -30.3066 C   0  0  0  0  0  0  0  0  0  0  0  0
  -20.5269    0.9077  -29.6812 C   0  0  0  0  0  0  0  0  0  0  0  0
  -20.5090    1.0065  -28.2965 C   0  0  0  0  0  0  0  0  0  0  0  0
  -21.4202    0.2815  -27.5404 C   0  0  0  0  0  0  0  0  0  0  0  0
  -22.3430   -0.5375  -28.1708 C   0  0  0  0  0  0  0  0  0  0  0  0
  -22.3621   -0.6364  -29.5515 C   0  0  0  0  0  0  0  0  0  0  0  0
  -19.5410    1.6897  -30.5230 C   0  0  0  0  0  0  0  0  0  0  0  0
  -19.8996    2.7711  -31.0591 O   0  0  0  0  0  0  0  0  0  0  0  0
  -18.3660    1.2655  -30.6869 O   0  0  0  0  0  0  0  0  0  0  0  0
  -18.0986    0.4608  -30.2882 H   0  0  0  0  0  0  0  0  0  0  0  0
  -21.4389    0.3569  -26.0268 C   0  0  0  0  0  0  0  0  0  0  0  0
  -21.3788   -0.6600  -25.1551 C   0  0  0  0  0  0  0  0  0  0  0  0
  -21.4025   -0.4805  -23.6504 C   0  0  0  0  0  0  0  0  0  0  0  0
  -21.8167   -1.5260  -22.8398 C   0  0  0  0  0  0  0  0  0  0  0  0
  -21.8517   -1.3667  -21.4635 C   0  0  0  0  0  0  0  0  0  0  0  0
  -21.4756   -0.1618  -20.8948 C   0  0  0  0  0  0  0  0  0  0  0  0
  -21.0660    0.8861  -21.7037 C   0  0  0  0  0  0  0  0  0  0  0  0
  -21.0332    0.7303  -23.0814 C   0  0  0  0  0  0  0  0  0  0  0  0
  -21.5108   -0.0047  -19.4970 O   0  0  0  0  0  0  0  0  0  0  0  0
  -21.2565    0.8102  -19.1106 H   0  0  0  0  0  0  0  0  0  0  0  0
 19 16  1  0  0  0
 17 16  2  0  0  0
 17 18  1  0  0  0
 16 15  1  0  0  0
 15 14  2  0  0  0
 18 13  2  0  0  0
 14 13  1  0  0  0
 13 12  1  0  0  0
 12 11  2  0  0  0
 11  4  1  0  0  0
  4  5  2  0  0  0
  4  3  1  0  0  0
  5  6  1  0  0  0
  3  2  2  0  0  0
  6  1  2  0  0  0
  2  1  1  0  0  0
  2  7  1  0  0  0
  8  7  2  0  0  0
  7  9  1  0  0  0
 19 20  1  0  0  0
  9 10  1  0  0  0
M  END
> <minimizedAffinity>
-7.89388

$$$$
5U4B_XOS_A_200


 20 21  0  0  0  0  0  0  0  0999 V2000
  -22.0704    0.0816  -22.2384 C   0  0  0  0  0  0  0  0  0  0  0  0
  -21.5383    1.2456  -22.7730 C   0  0  0  0  0  0  0  0  0  0  0  0
  -21.4235    1.3892  -24.1491 C   0  0  0  0  0  0  0  0  0  0  0  0
  -21.8413    0.3645  -24.9877 C   0  0  0  0  0  0  0  0  0  0  0  0
  -22.3713   -0.7962  -24.4478 C   0  0  0  0  0  0  0  0  0  0  0  0
  -22.4857   -0.9406  -23.0757 C   0  0  0  0  0  0  0  0  0  0  0  0
  -21.0890    2.3518  -21.8420 C   0  0  0  0  0  0  0  0  0  0  0  0
  -20.4015    2.0699  -20.8255 O   0  0  0  0  0  0  0  0  0  0  0  0
  -21.3971    3.5499  -22.0808 O   0  0  0  0  0  0  0  0  0  0  0  0
  -21.9087    3.7603  -22.8371 H   0  0  0  0  0  0  0  0  0  0  0  0
  -21.7361    0.4755  -26.4956 C   0  0  0  0  0  0  0  0  0  0  0  0
  -20.7290    0.9975  -27.2103 C   0  0  0  0  0  0  0  0  0  0  0  0
  -20.7167    1.0610  -28.7245 C   0  0  0  0  0  0  0  0  0  0  0  0
  -21.4416    0.1340  -29.4572 C   0  0  0  0  0  0  0  0  0  0  0  0
  -21.4272    0.1783  -30.8424 C   0  0  0  0  0  0  0  0  0  0  0  0
  -20.6864    1.1469  -31.4979 C   0  0  0  0  0  0  0  0  0  0  0  0
  -19.9572    2.0714  -30.7672 C   0  0  0  0  0  0  0  0  0  0  0  0
  -19.9673    2.0272  -29.3810 C   0  0  0  0  0  0  0  0  0  0  0  0
  -20.6759    1.1896  -32.9042 O   0  0  0  0  0  0  0  0  0  0  0  0
  -20.1750    1.8446  -33.3493 H   0  0  0  0  0  0  0  0  0  0  0  0
 19 16  1  0  0  0
 17 16  2  0  0  0
 17 18  1  0  0  0
 16 15  1  0  0  0
 15 14  2  0  0  0
 18 13  2  0  0  0
 14 13  1  0  0  0
 13 12  1  0  0  0
 12 11  2  0  0  0
 11  4  1  0  0  0
  4  5  2  0  0  0
  4  3  1  0  0  0
  5  6  1  0  0  0
  3  2  2  0  0  0
  6  1  2  0  0  0
  2  1  1  0  0  0
  2  7  1  0  0  0
  8  7  2  0  0  0
  7  9  1  0  0  0
 19 20  1  0  0  0
  9 10  1  0  0  0
M  END
> <minimizedAffinity>
-7.81708

$$$$
5U4B_XOS_A_200


 20 21  0  0  0  0  0  0  0  0999 V2000
  -20.5792   -0.0532  -22.9493 C   0  0  0  0  0  0  0  0  0  0  0  0
  -21.4104   -1.1376  -23.1883 C   0  0  0  0  0  0  0  0  0  0  0  0
  -21.9712   -1.3196  -24.4452 C   0  0  0  0  0  0  0  0  0  0  0  0
  -21.6988   -0.4130  -25.4609 C   0  0  0  0  0  0  0  0  0  0  0  0
  -20.8683    0.6686  -25.2160 C   0  0  0  0  0  0  0  0  0  0  0  0
  -20.3091    0.8514  -23.9628 C   0  0  0  0  0  0  0  0  0  0  0  0
  -21.6949   -2.1155  -22.0680 C   0  0  0  0  0  0  0  0  0  0  0  0
  -22.1976   -1.7000  -20.9909 O   0  0  0  0  0  0  0  0  0  0  0  0
  -21.4337   -3.3399  -22.2094 O   0  0  0  0  0  0  0  0  0  0  0  0
  -21.0596   -3.6496  -23.0107 H   0  0  0  0  0  0  0  0  0  0  0  0
  -22.2875   -0.5701  -26.8487 C   0  0  0  0  0  0  0  0  0  0  0  0
  -22.8738   -1.6564  -27.3718 C   0  0  0  0  0  0  0  0  0  0  0  0
  -23.4363   -1.7138  -28.7779 C   0  0  0  0  0  0  0  0  0  0  0  0
  -24.8090   -1.6975  -28.9703 C   0  0  0  0  0  0  0  0  0  0  0  0
  -25.3320   -1.7606  -30.2522 C   0  0  0  0  0  0  0  0  0  0  0  0
  -24.4846   -1.8429  -31.3439 C   0  0  0  0  0  0  0  0  0  0  0  0
  -23.1122   -1.8644  -31.1533 C   0  0  0  0  0  0  0  0  0  0  0  0
  -22.5864   -1.8046  -29.8713 C   0  0  0  0  0  0  0  0  0  0  0  0
  -25.0195   -1.9049  -32.6438 O   0  0  0  0  0  0  0  0  0  0  0  0
  -24.4473   -1.9607  -33.3837 H   0  0  0  0  0  0  0  0  0  0  0  0
 19 16  1  0  0  0
 17 16  2  0  0  0
 17 18  1  0  0  0
 16 15  1  0  0  0
 15 14  2  0  0  0
 18 13  2  0  0  0
 14 13  1  0  0  0
 13 12  1  0  0  0
 12 11  2  0  0  0
 11  4  1  0  0  0
  4  5  2  0  0  0
  4  3  1  0  0  0
  5  6  1  0  0  0
  3  2  2  0  0  0
  6  1  2  0  0  0
  2  1  1  0  0  0
  2  7  1  0  0  0
  8  7  2  0  0  0
  7  9  1  0  0  0
 19 20  1  0  0  0
  9 10  1  0  0  0
M  END
> <minimizedAffinity>
-7.41454

$$$$
5U4B_XOS_A_200


 20 21  0  0  0  0  0  0  0  0999 V2000
  -23.0145   -1.9043  -30.5696 C   0  0  0  0  0  0  0  0  0  0  0  0
  -22.2408   -0.7537  -30.6086 C   0  0  0  0  0  0  0  0  0  0  0  0
  -21.9693   -0.0588  -29.4378 C   0  0  0  0  0  0  0  0  0  0  0  0
  -22.4752   -0.5178  -28.2291 C   0  0  0  0  0  0  0  0  0  0  0  0
  -23.2481   -1.6672  -28.1964 C   0  0  0  0  0  0  0  0  0  0  0  0
  -23.5199   -2.3607  -29.3634 C   0  0  0  0  0  0  0  0  0  0  0  0
  -21.6976   -0.2697  -31.9364 C   0  0  0  0  0  0  0  0  0  0  0  0
  -21.0502    0.8090  -31.9888 O   0  0  0  0  0  0  0  0  0  0  0  0
  -21.8879   -0.9410  -32.9855 O   0  0  0  0  0  0  0  0  0  0  0  0
  -22.3695   -1.7438  -32.9471 H   0  0  0  0  0  0  0  0  0  0  0  0
  -22.2057    0.2068  -26.9255 C   0  0  0  0  0  0  0  0  0  0  0  0
  -21.5487   -0.2553  -25.8520 C   0  0  0  0  0  0  0  0  0  0  0  0
  -21.3285    0.5523  -24.5886 C   0  0  0  0  0  0  0  0  0  0  0  0
  -20.4115    0.1161  -23.6450 C   0  0  0  0  0  0  0  0  0  0  0  0
  -20.2118    0.8428  -22.4819 C   0  0  0  0  0  0  0  0  0  0  0  0
  -20.9300    2.0051  -22.2582 C   0  0  0  0  0  0  0  0  0  0  0  0
  -21.8508    2.4402  -23.1980 C   0  0  0  0  0  0  0  0  0  0  0  0
  -22.0548    1.7129  -24.3612 C   0  0  0  0  0  0  0  0  0  0  0  0
  -20.7232    2.7411  -21.0770 O   0  0  0  0  0  0  0  0  0  0  0  0
  -21.2085    3.5279  -20.9242 H   0  0  0  0  0  0  0  0  0  0  0  0
 19 16  1  0  0  0
 17 16  2  0  0  0
 17 18  1  0  0  0
 16 15  1  0  0  0
 15 14  2  0  0  0
 18 13  2  0  0  0
 14 13  1  0  0  0
 13 12  1  0  0  0
 12 11  2  0  0  0
 11  4  1  0  0  0
  4  5  2  0  0  0
  4  3  1  0  0  0
  5  6  1  0  0  0
  3  2  2  0  0  0
  6  1  2  0  0  0
  2  1  1  0  0  0
  2  7  1  0  0  0
  8  7  2  0  0  0
  7  9  1  0  0  0
 19 20  1  0  0  0
  9 10  1  0  0  0
M  END
> <minimizedAffinity>
-7.22849

$$$$
5U4B_XOS_A_200


 20 21  0  0  0  0  0  0  0  0999 V2000
  -20.9396    0.7695  -30.5855 C   0  0  0  0  0  0  0  0  0  0  0  0
  -21.8435   -0.1738  -30.1196 C   0  0  0  0  0  0  0  0  0  0  0  0
  -22.0856   -0.2910  -28.7576 C   0  0  0  0  0  0  0  0  0  0  0  0
  -21.4199    0.5372  -27.8639 C   0  0  0  0  0  0  0  0  0  0  0  0
  -20.5175    1.4771  -28.3351 C   0  0  0  0  0  0  0  0  0  0  0  0
  -20.2749    1.5944  -29.6930 C   0  0  0  0  0  0  0  0  0  0  0  0
  -22.5599   -1.0672  -31.1100 C   0  0  0  0  0  0  0  0  0  0  0  0
  -23.7215   -1.4785  -30.8512 O   0  0  0  0  0  0  0  0  0  0  0  0
  -22.0014   -1.3978  -32.1898 O   0  0  0  0  0  0  0  0  0  0  0  0
  -21.1370   -1.0921  -32.3829 H   0  0  0  0  0  0  0  0  0  0  0  0
  -21.6514    0.4465  -26.3688 C   0  0  0  0  0  0  0  0  0  0  0  0
  -20.7788    0.0613  -25.4266 C   0  0  0  0  0  0  0  0  0  0  0  0
  -21.1075    0.0057  -23.9482 C   0  0  0  0  0  0  0  0  0  0  0  0
  -20.4708    0.8684  -23.0695 C   0  0  0  0  0  0  0  0  0  0  0  0
  -20.7575    0.8168  -21.7146 C   0  0  0  0  0  0  0  0  0  0  0  0
  -21.6787   -0.0985  -21.2347 C   0  0  0  0  0  0  0  0  0  0  0  0
  -22.3125   -0.9651  -22.1108 C   0  0  0  0  0  0  0  0  0  0  0  0
  -22.0250   -0.9177  -23.4668 C   0  0  0  0  0  0  0  0  0  0  0  0
  -21.9683   -0.1465  -19.8586 O   0  0  0  0  0  0  0  0  0  0  0  0
  -22.5915   -0.7654  -19.5323 H   0  0  0  0  0  0  0  0  0  0  0  0
 19 16  1  0  0  0
 17 16  2  0  0  0
 17 18  1  0  0  0
 16 15  1  0  0  0
 15 14  2  0  0  0
 18 13  2  0  0  0
 14 13  1  0  0  0
 13 12  1  0  0  0
 12 11  2  0  0  0
 11  4  1  0  0  0
  4  5  2  0  0  0
  4  3  1  0  0  0
  5  6  1  0  0  0
  3  2  2  0  0  0
  6  1  2  0  0  0
  2  1  1  0  0  0
  2  7  1  0  0  0
  8  7  2  0  0  0
  7  9  1  0  0  0
 19 20  1  0  0  0
  9 10  1  0  0  0
M  END
> <minimizedAffinity>
-7.14818

$$$$
