5VM0_9EG_A_202
  RCSB PDB05121802203D
Coordinates from PDB:5VM0:A:202 Model:1 without hydrogens
 19 20  0  0  0  0            999 V2000
    4.7250   15.3420  -19.8550   C 0  0  0  0  0  0  0  0  0  0  0  0
    4.5100   14.7750  -18.5980   C 0  0  0  0  0  0  0  0  0  0  0  0
    6.3510   16.2290  -21.9100  Cl 0  0  0  0  0  0  0  0  0  0  0  0
   -2.2690   11.3450  -13.4230  Cl 0  0  0  0  0  0  0  0  0  0  0  0
    2.7610   13.8520  -17.2380   C 0  0  0  0  0  0  0  0  0  0  0  0
    3.2360   14.6370  -18.1980   N 0  0  0  0  0  0  0  0  0  0  0  0
    0.5990   13.3130  -16.2950   C 0  0  0  0  0  0  0  0  0  0  0  0
   -0.5020   14.0330  -15.8360   C 0  0  0  0  0  0  0  0  0  0  0  0
   -1.3880   13.4110  -14.9630   C 0  0  0  0  0  0  0  0  0  0  0  0
   -1.1160   12.1230  -14.5100   C 0  0  0  0  0  0  0  0  0  0  0  0
   -0.0290   11.3930  -14.9690   C 0  0  0  0  0  0  0  0  0  0  0  0
    0.8470   12.0170  -15.8340   C 0  0  0  0  0  0  0  0  0  0  0  0
    1.4570   13.9250  -17.1650   N 0  0  0  0  0  0  0  0  0  0  0  0
    3.4810   13.1330  -16.5430   O 0  0  0  0  0  0  0  0  0  0  0  0
    6.0330   15.5180  -20.2900   C 0  0  0  0  0  0  0  0  0  0  0  0
    7.1310   15.1350  -19.5030   C 0  0  0  0  0  0  0  0  0  0  0  0
    6.9270   14.5840  -18.2390   C 0  0  0  0  0  0  0  0  0  0  0  0
    5.6190   14.4060  -17.8130   C 0  0  0  0  0  0  0  0  0  0  0  0
    8.8000   15.4080  -20.1080  Cl 0  0  0  0  0  0  0  0  0  0  0  0
  9  8  2  0  0  0  0
  9 10  1  0  0  0  0
  4 10  1  0  0  0  0
  8  7  1  0  0  0  0
 10 11  2  0  0  0  0
 14  5  2  0  0  0  0
  7 13  1  0  0  0  0
  7 12  2  0  0  0  0
 17 18  2  0  0  0  0
 17 16  1  0  0  0  0
  5 13  1  0  0  0  0
  5  6  1  0  0  0  0
 18  2  1  0  0  0  0
 11 12  1  0  0  0  0
 19 16  1  0  0  0  0
 16 15  2  0  0  0  0
  2  6  1  0  0  0  0
  2  1  2  0  0  0  0
 15  1  1  0  0  0  0
 15  3  1  0  0  0  0
A    1
C12
A    2
C11
A    3
CL2
A    4
CL1
A    5
C8
A    6
N1
A    7
C4
A    8
C5
A    9
C6
A   10
C1
A   11
C2
A   12
C3
A   13
N7
A   14
O9
A   15
C13
A   16
C14
A   17
C15
A   18
C16
A   19
CL3
M  END
>  <InstanceId>
5VM0_9EG_A_202

>  <ChemCompId>
9EG

>  <PdbId>
5VM0

>  <ChainId>
A

>  <ResidueNumber>
202

>  <InsertionCode>


>  <Model>
1

>  <AltIds>


>  <MissingHeavyAtoms>
0

>  <ObservedFormula>
C13 N2 O Cl3

>  <Name>
N-(4-chlorophenyl)-N'-(3,4-dichlorophenyl)urea

>  <SystematicName>
1-(4-chlorophenyl)-3-(3,4-dichlorophenyl)urea

>  <Synonyms>


>  <Type>
NON-POLYMER

>  <Formula>
C13 H9 Cl3 N2 O

>  <MolecularWeight>
315.582

>  <ModifiedDate>
2018-04-20

>  <Parent>


>  <OneLetterCode>


>  <SubcomponentList>


>  <AmbiguousFlag>
N

>  <InChI>
InChI=1S/C13H9Cl3N2O/c14-8-1-3-9(4-2-8)17-13(19)18-10-5-6-11(15)12(16)7-10/h1-7H,(H2,17,18,19)

>  <InChIKey>
ICUTUKXCWQYESQ-UHFFFAOYSA-N

>  <SMILES>
c1cc(ccc1NC(=O)Nc2ccc(c(c2)Cl)Cl)Cl

$$$$
