1Z4O_GL1_A_1220
  RCSB PDB12061704503D
Coordinates from PDB:1Z4O:A:1220 Model:1 without hydrogens
 16 16  0  0  0  0            999 V2000
    4.8630   -3.8340   13.1020   C 0  0  0  0  0  0  0  0  0  0  0  0
    3.7100   -2.8250   13.0430   C 0  0  0  0  0  0  0  0  0  0  0  0
    3.9590   -1.7790   11.9650   C 0  0  0  0  0  0  0  0  0  0  0  0
    5.3550   -1.0560   12.2000   C 0  0  0  0  0  0  0  0  0  0  0  0
    6.4450   -2.1610   12.2920   C 0  0  0  0  0  0  0  0  0  0  0  0
    7.8260   -1.5370   12.6670   C 0  0  0  0  0  0  0  0  0  0  0  0
    5.0270   -4.4990   11.8610   O 0  0  0  0  0  0  0  0  0  0  0  0
    2.4500   -3.5190   12.8000   O 0  0  0  0  0  0  0  0  0  0  0  0
    2.8970   -0.8310   11.9480   O 0  0  0  0  0  0  0  0  0  0  0  0
    5.2700   -0.2130   13.3760   O 0  0  0  0  0  0  0  0  0  0  0  0
    6.1030   -3.1090   13.3260   O 0  0  0  0  0  0  0  0  0  0  0  0
    8.1120   -0.6170   11.6800   O 0  0  0  0  0  0  0  0  0  0  0  0
    4.3670   -5.9670   11.5460   P 0  0  0  0  0  0  0  0  0  0  0  0
    4.8140   -6.4880   10.1390   O 0  0  0  0  0  0  0  0  0  0  0  0
    4.9190   -6.8730   12.6790   O 0  0  0  0  0  0  0  0  0  0  0  0
    2.8020   -5.9120   11.6510   O 0  0  0  0  0  0  0  0  0  0  0  0
  1  2  1  0  0  0  0
  1  7  1  0  0  0  0
  1 11  1  0  0  0  0
  2  3  1  0  0  0  0
  2  8  1  0  0  0  0
  3  4  1  0  0  0  0
  3  9  1  0  0  0  0
  4  5  1  0  0  0  0
  4 10  1  0  0  0  0
  5  6  1  0  0  0  0
  5 11  1  0  0  0  0
  6 12  1  0  0  0  0
  7 13  1  0  0  0  0
 13 14  1  0  0  0  0
 13 15  1  0  0  0  0
 13 16  2  0  0  0  0
A    1
C1
A    2
C2
A    3
C3
A    4
C4
A    5
C5
A    6
C6
A    7
O1
A    8
O2
A    9
O3
A   10
O4
A   11
O5
A   12
O6
A   13
P
A   14
O1P
A   15
O2P
A   16
O3P
M  END
>  <InstanceId>
1Z4O_GL1_A_1220

>  <ChemCompId>
GL1

>  <PdbId>
1Z4O

>  <ChainId>
A

>  <ResidueNumber>
1220

>  <InsertionCode>


>  <Model>
1

>  <AltIds>


>  <MissingHeavyAtoms>
0

>  <ObservedFormula>
C6 O9 P

>  <Name>
1-O-phosphono-alpha-D-galactopyranose

>  <SystematicName>
[(2R,3R,4S,5R,6R)-3,4,5-trihydroxy-6-(hydroxymethyl)oxan-2-yl] dihydrogen phosphate

>  <Synonyms>
ALPHA-D-GALACTOSE-1-PHOSPHATE

>  <Type>
NON-POLYMER

>  <Formula>
C6 H13 O9 P

>  <MolecularWeight>
260.136

>  <ModifiedDate>
2011-06-04

>  <Parent>


>  <OneLetterCode>


>  <SubcomponentList>


>  <AmbiguousFlag>
N

>  <InChI>
InChI=1S/C6H13O9P/c7-1-2-3(8)4(9)5(10)6(14-2)15-16(11,12)13/h2-10H,1H2,(H2,11,12,13)/t2-,3+,4+,5-,6-/m1/s1

>  <InChIKey>
HXXFSFRBOHSIMQ-FPRJBGLDSA-N

>  <SMILES>
C([C@@H]1[C@@H]([C@@H]([C@H]([C@H](O1)OP(=O)(O)O)O)O)O)O

$$$$
