1Z4O_GL1_A_1220


 22 22  0  0  0  0  0  0  0  0999 V2000
    4.8547   -3.8816   13.2616 C   0  0  0  0  0  0  0  0  0  0  0  0
    3.8378   -2.7508   13.0657 C   0  0  0  0  0  0  0  0  0  0  0  0
    4.2799   -1.8102   11.9531 C   0  0  0  0  0  0  0  0  0  0  0  0
    5.7347   -1.2414   12.2476 C   0  0  0  0  0  0  0  0  0  0  0  0
    6.6755   -2.4579   12.4771 C   0  0  0  0  0  0  0  0  0  0  0  0
    2.5217   -3.3072   12.7714 O   0  0  0  0  0  0  0  0  0  0  0  0
    3.3431   -0.7480   11.8088 O   0  0  0  0  0  0  0  0  0  0  0  0
    5.6762   -0.3226   13.3670 O   0  0  0  0  0  0  0  0  0  0  0  0
    6.1559   -3.2933   13.5339 O   0  0  0  0  0  0  0  0  0  0  0  0
    2.5644   -3.8214   11.9500 H   0  0  0  0  0  0  0  0  0  0  0  0
    3.2986   -0.2417   12.6350 H   0  0  0  0  0  0  0  0  0  0  0  0
    5.3261   -0.7833   14.1455 H   0  0  0  0  0  0  0  0  0  0  0  0
    8.0945   -1.9767   12.9153 C   0  0  0  0  0  0  0  0  0  0  0  0
    8.9926   -2.8364   12.3179 O   0  0  0  0  0  0  0  0  0  0  0  0
    8.8081   -3.7453   12.6020 H   0  0  0  0  0  0  0  0  0  0  0  0
    5.0171   -4.6372   12.0734 O   0  0  0  0  0  0  0  0  0  0  0  0
    4.3203   -6.1053   11.8524 P   0  0  0  0  0  0  0  0  0  0  0  0
    4.3551   -6.9429   13.1746 O   0  0  0  0  0  0  0  0  0  0  0  0
    2.8618   -5.7662   11.4436 O   0  0  0  0  0  0  0  0  0  0  0  0
    5.0132   -6.8836   10.6787 O   0  0  0  0  0  0  0  0  0  0  0  0
    3.9224   -6.4438   13.8849 H   0  0  0  0  0  0  0  0  0  0  0  0
    2.4274   -5.2848   12.1650 H   0  0  0  0  0  0  0  0  0  0  0  0
  1  2  1  0  0  0
  1 16  1  0  0  0
  1  9  1  0  0  0
  2  3  1  0  0  0
  2  6  1  0  0  0
  3  4  1  0  0  0
  3  7  1  0  0  0
  4  5  1  0  0  0
  4  8  1  0  0  0
  5 13  1  0  0  0
  5  9  1  0  0  0
 13 14  1  0  0  0
 16 17  1  0  0  0
 17 18  1  0  0  0
 17 19  1  0  0  0
 17 20  2  0  0  0
  6 10  1  0  0  0
  7 11  1  0  0  0
  8 12  1  0  0  0
 14 15  1  0  0  0
 18 21  1  0  0  0
 19 22  1  0  0  0
M  END
> <minimizedAffinity>
-9.45425

$$$$
1Z4O_GL1_A_1220


 22 22  0  0  0  0  0  0  0  0999 V2000
    7.0124   -0.8999   11.4211 C   0  0  0  0  0  0  0  0  0  0  0  0
    5.9795    0.2311   11.4901 C   0  0  0  0  0  0  0  0  0  0  0  0
    5.1156    0.1017   12.7371 C   0  0  0  0  0  0  0  0  0  0  0  0
    4.4203   -1.3268   12.7892 C   0  0  0  0  0  0  0  0  0  0  0  0
    5.5407   -2.3977   12.6655 C   0  0  0  0  0  0  0  0  0  0  0  0
    6.6525    1.5252   11.4670 O   0  0  0  0  0  0  0  0  0  0  0  0
    4.1402    1.1383   12.7668 O   0  0  0  0  0  0  0  0  0  0  0  0
    3.4093   -1.4096   11.7538 O   0  0  0  0  0  0  0  0  0  0  0  0
    6.3107   -2.1724   11.4651 O   0  0  0  0  0  0  0  0  0  0  0  0
    7.2354    1.6004   12.2387 H   0  0  0  0  0  0  0  0  0  0  0  0
    3.5649    1.0634   11.9894 H   0  0  0  0  0  0  0  0  0  0  0  0
    3.8206   -1.2618   10.8878 H   0  0  0  0  0  0  0  0  0  0  0  0
    4.9219   -3.8273   12.5635 C   0  0  0  0  0  0  0  0  0  0  0  0
    3.7355   -3.7828   13.2654 O   0  0  0  0  0  0  0  0  0  0  0  0
    3.9123   -3.5229   14.1831 H   0  0  0  0  0  0  0  0  0  0  0  0
    7.8601   -0.8906   12.5571 O   0  0  0  0  0  0  0  0  0  0  0  0
    9.4263   -1.3741   12.5005 P   0  0  0  0  0  0  0  0  0  0  0  0
   10.2349   -0.5222   11.4655 O   0  0  0  0  0  0  0  0  0  0  0  0
    9.9411   -1.1350   13.9452 O   0  0  0  0  0  0  0  0  0  0  0  0
    9.5287   -2.9044   12.1672 O   0  0  0  0  0  0  0  0  0  0  0  0
   10.1578    0.4182   11.6903 H   0  0  0  0  0  0  0  0  0  0  0  0
    9.8805   -0.1906   14.1578 H   0  0  0  0  0  0  0  0  0  0  0  0
  1  2  1  0  0  0
  1 16  1  0  0  0
  1  9  1  0  0  0
  2  3  1  0  0  0
  2  6  1  0  0  0
  3  4  1  0  0  0
  3  7  1  0  0  0
  4  5  1  0  0  0
  4  8  1  0  0  0
  5 13  1  0  0  0
  5  9  1  0  0  0
 13 14  1  0  0  0
 16 17  1  0  0  0
 17 18  1  0  0  0
 17 19  1  0  0  0
 17 20  2  0  0  0
  6 10  1  0  0  0
  7 11  1  0  0  0
  8 12  1  0  0  0
 14 15  1  0  0  0
 18 21  1  0  0  0
 19 22  1  0  0  0
M  END
> <minimizedAffinity>
-7.77072

$$$$
1Z4O_GL1_A_1220


 22 22  0  0  0  0  0  0  0  0999 V2000
    6.9681   -0.8002   11.4539 C   0  0  0  0  0  0  0  0  0  0  0  0
    5.8937    0.2924   11.5073 C   0  0  0  0  0  0  0  0  0  0  0  0
    5.0225    0.1366   12.7463 C   0  0  0  0  0  0  0  0  0  0  0  0
    4.3796   -1.3162   12.7979 C   0  0  0  0  0  0  0  0  0  0  0  0
    5.5398   -2.3458   12.6904 C   0  0  0  0  0  0  0  0  0  0  0  0
    6.5191    1.6103   11.4851 O   0  0  0  0  0  0  0  0  0  0  0  0
    4.0095    1.1368   12.7615 O   0  0  0  0  0  0  0  0  0  0  0  0
    3.3829   -1.4404   11.7529 O   0  0  0  0  0  0  0  0  0  0  0  0
    6.3131   -2.0974   11.4966 O   0  0  0  0  0  0  0  0  0  0  0  0
    7.0909    1.7100   12.2623 H   0  0  0  0  0  0  0  0  0  0  0  0
    3.4453    1.0375   11.9787 H   0  0  0  0  0  0  0  0  0  0  0  0
    3.7973   -1.2813   10.8904 H   0  0  0  0  0  0  0  0  0  0  0  0
    4.9749   -3.7976   12.5886 C   0  0  0  0  0  0  0  0  0  0  0  0
    3.7947   -3.8010   13.3025 O   0  0  0  0  0  0  0  0  0  0  0  0
    3.9707   -3.5378   14.2194 H   0  0  0  0  0  0  0  0  0  0  0  0
    7.8033   -0.7550   12.5982 O   0  0  0  0  0  0  0  0  0  0  0  0
    9.3447   -1.3155   12.5954 P   0  0  0  0  0  0  0  0  0  0  0  0
   10.0263   -1.0768   13.9844 O   0  0  0  0  0  0  0  0  0  0  0  0
    9.1877   -2.8318   12.3028 O   0  0  0  0  0  0  0  0  0  0  0  0
   10.1790   -0.6551   11.4418 O   0  0  0  0  0  0  0  0  0  0  0  0
    9.4948   -1.4926   14.6811 H   0  0  0  0  0  0  0  0  0  0  0  0
    8.6726   -3.2464   13.0125 H   0  0  0  0  0  0  0  0  0  0  0  0
  1  2  1  0  0  0
  1 16  1  0  0  0
  1  9  1  0  0  0
  2  3  1  0  0  0
  2  6  1  0  0  0
  3  4  1  0  0  0
  3  7  1  0  0  0
  4  5  1  0  0  0
  4  8  1  0  0  0
  5 13  1  0  0  0
  5  9  1  0  0  0
 13 14  1  0  0  0
 16 17  1  0  0  0
 17 18  1  0  0  0
 17 19  1  0  0  0
 17 20  2  0  0  0
  6 10  1  0  0  0
  7 11  1  0  0  0
  8 12  1  0  0  0
 14 15  1  0  0  0
 18 21  1  0  0  0
 19 22  1  0  0  0
M  END
> <minimizedAffinity>
-7.64466

$$$$
1Z4O_GL1_A_1220


 22 22  0  0  0  0  0  0  0  0999 V2000
    7.1860   -1.8031   13.5072 C   0  0  0  0  0  0  0  0  0  0  0  0
    6.0683   -2.8515   13.5570 C   0  0  0  0  0  0  0  0  0  0  0  0
    5.3329   -2.9241   12.2258 C   0  0  0  0  0  0  0  0  0  0  0  0
    4.7725   -1.4934   11.8184 C   0  0  0  0  0  0  0  0  0  0  0  0
    5.9670   -0.4983   11.8431 C   0  0  0  0  0  0  0  0  0  0  0  0
    6.6209   -4.1555   13.9070 O   0  0  0  0  0  0  0  0  0  0  0  0
    4.2770   -3.8762   12.3010 O   0  0  0  0  0  0  0  0  0  0  0  0
    3.6851   -1.1306   12.7053 O   0  0  0  0  0  0  0  0  0  0  0  0
    6.6050   -0.5226   13.1381 O   0  0  0  0  0  0  0  0  0  0  0  0
    7.2610   -4.4275   13.2308 H   0  0  0  0  0  0  0  0  0  0  0  0
    3.6440   -3.6037   12.9835 H   0  0  0  0  0  0  0  0  0  0  0  0
    4.0035   -1.1239   13.6215 H   0  0  0  0  0  0  0  0  0  0  0  0
    5.4690    0.9601   11.5937 C   0  0  0  0  0  0  0  0  0  0  0  0
    4.8587    1.3623   12.7634 O   0  0  0  0  0  0  0  0  0  0  0  0
    4.1314    0.7559   12.9737 H   0  0  0  0  0  0  0  0  0  0  0  0
    8.1270   -2.1039   12.4906 O   0  0  0  0  0  0  0  0  0  0  0  0
    9.6232   -1.4343   12.4390 P   0  0  0  0  0  0  0  0  0  0  0  0
   10.5144   -2.1449   11.3658 O   0  0  0  0  0  0  0  0  0  0  0  0
    9.3548    0.0448   12.0525 O   0  0  0  0  0  0  0  0  0  0  0  0
   10.3060   -1.4786   13.8515 O   0  0  0  0  0  0  0  0  0  0  0  0
   10.0740   -2.1056   10.5024 H   0  0  0  0  0  0  0  0  0  0  0  0
    8.9326    0.0794   11.1799 H   0  0  0  0  0  0  0  0  0  0  0  0
  1  2  1  0  0  0
  1 16  1  0  0  0
  1  9  1  0  0  0
  2  3  1  0  0  0
  2  6  1  0  0  0
  3  4  1  0  0  0
  3  7  1  0  0  0
  4  5  1  0  0  0
  4  8  1  0  0  0
  5 13  1  0  0  0
  5  9  1  0  0  0
 13 14  1  0  0  0
 16 17  1  0  0  0
 17 18  1  0  0  0
 17 19  1  0  0  0
 17 20  2  0  0  0
  6 10  1  0  0  0
  7 11  1  0  0  0
  8 12  1  0  0  0
 14 15  1  0  0  0
 18 21  1  0  0  0
 19 22  1  0  0  0
M  END
> <minimizedAffinity>
-7.44788

$$$$
1Z4O_GL1_A_1220


 22 22  0  0  0  0  0  0  0  0999 V2000
    4.2288    0.4042   12.8599 C   0  0  0  0  0  0  0  0  0  0  0  0
    3.9981    1.7263   12.1185 C   0  0  0  0  0  0  0  0  0  0  0  0
    4.5645    1.6627   10.7066 C   0  0  0  0  0  0  0  0  0  0  0  0
    6.1055    1.2742   10.7399 C   0  0  0  0  0  0  0  0  0  0  0  0
    6.2380   -0.0468   11.5493 C   0  0  0  0  0  0  0  0  0  0  0  0
    2.5734    2.0382   12.0837 O   0  0  0  0  0  0  0  0  0  0  0  0
    4.3731    2.9090   10.0456 O   0  0  0  0  0  0  0  0  0  0  0  0
    6.8699    2.3783   11.2852 O   0  0  0  0  0  0  0  0  0  0  0  0
    5.6535    0.1146   12.8596 O   0  0  0  0  0  0  0  0  0  0  0  0
    2.1006    1.3378   11.6075 H   0  0  0  0  0  0  0  0  0  0  0  0
    4.8414    3.6070   10.5298 H   0  0  0  0  0  0  0  0  0  0  0  0
    6.5505    2.5831   12.1779 H   0  0  0  0  0  0  0  0  0  0  0  0
    7.7413   -0.4170   11.7495 C   0  0  0  0  0  0  0  0  0  0  0  0
    7.7539   -1.6025   12.4544 O   0  0  0  0  0  0  0  0  0  0  0  0
    7.2889   -1.4824   13.2972 H   0  0  0  0  0  0  0  0  0  0  0  0
    3.6178   -0.6790   12.1798 O   0  0  0  0  0  0  0  0  0  0  0  0
    3.5611   -2.1972   12.7976 P   0  0  0  0  0  0  0  0  0  0  0  0
    4.9929   -2.6904   13.1945 O   0  0  0  0  0  0  0  0  0  0  0  0
    2.6520   -2.0556   14.0476 O   0  0  0  0  0  0  0  0  0  0  0  0
    2.8883   -3.1896   11.7848 O   0  0  0  0  0  0  0  0  0  0  0  0
    5.3891   -2.0634   13.8196 H   0  0  0  0  0  0  0  0  0  0  0  0
    3.0622   -1.4431   14.6781 H   0  0  0  0  0  0  0  0  0  0  0  0
  1  2  1  0  0  0
  1 16  1  0  0  0
  1  9  1  0  0  0
  2  3  1  0  0  0
  2  6  1  0  0  0
  3  4  1  0  0  0
  3  7  1  0  0  0
  4  5  1  0  0  0
  4  8  1  0  0  0
  5 13  1  0  0  0
  5  9  1  0  0  0
 13 14  1  0  0  0
 16 17  1  0  0  0
 17 18  1  0  0  0
 17 19  1  0  0  0
 17 20  2  0  0  0
  6 10  1  0  0  0
  7 11  1  0  0  0
  8 12  1  0  0  0
 14 15  1  0  0  0
 18 21  1  0  0  0
 19 22  1  0  0  0
M  END
> <minimizedAffinity>
-7.32340

$$$$
1Z4O_GL1_A_1220


 22 22  0  0  0  0  0  0  0  0999 V2000
    5.8916   -0.9585   11.5127 C   0  0  0  0  0  0  0  0  0  0  0  0
    5.8703   -2.3907   12.0598 C   0  0  0  0  0  0  0  0  0  0  0  0
    6.6756   -2.4915   13.3480 C   0  0  0  0  0  0  0  0  0  0  0  0
    8.1621   -1.9768   13.1192 C   0  0  0  0  0  0  0  0  0  0  0  0
    8.0748   -0.5437   12.5224 C   0  0  0  0  0  0  0  0  0  0  0  0
    4.4941   -2.8205   12.2828 O   0  0  0  0  0  0  0  0  0  0  0  0
    6.6744   -3.8338   13.8224 O   0  0  0  0  0  0  0  0  0  0  0  0
    8.8763   -2.9208   12.2828 O   0  0  0  0  0  0  0  0  0  0  0  0
    7.2752   -0.5559   11.3202 O   0  0  0  0  0  0  0  0  0  0  0  0
    4.0763   -2.2401   12.9381 H   0  0  0  0  0  0  0  0  0  0  0  0
    7.0863   -4.4110   13.1605 H   0  0  0  0  0  0  0  0  0  0  0  0
    8.4141   -3.0161   11.4353 H   0  0  0  0  0  0  0  0  0  0  0  0
    9.4954   -0.0254   12.1346 C   0  0  0  0  0  0  0  0  0  0  0  0
   10.3742   -0.6186   13.0167 O   0  0  0  0  0  0  0  0  0  0  0  0
   10.1307   -0.3805   13.9250 H   0  0  0  0  0  0  0  0  0  0  0  0
    5.3533   -0.0426   12.4512 O   0  0  0  0  0  0  0  0  0  0  0  0
    3.7824    0.4283   12.4320 P   0  0  0  0  0  0  0  0  0  0  0  0
    2.8916   -0.6342   11.7050 O   0  0  0  0  0  0  0  0  0  0  0  0
    3.4091    0.5371   13.9347 O   0  0  0  0  0  0  0  0  0  0  0  0
    3.6286    1.8396   11.7628 O   0  0  0  0  0  0  0  0  0  0  0  0
    3.0021   -1.4970   12.1343 H   0  0  0  0  0  0  0  0  0  0  0  0
    3.5021   -0.3323   14.3547 H   0  0  0  0  0  0  0  0  0  0  0  0
  1  2  1  0  0  0
  1 16  1  0  0  0
  1  9  1  0  0  0
  2  3  1  0  0  0
  2  6  1  0  0  0
  3  4  1  0  0  0
  3  7  1  0  0  0
  4  5  1  0  0  0
  4  8  1  0  0  0
  5 13  1  0  0  0
  5  9  1  0  0  0
 13 14  1  0  0  0
 16 17  1  0  0  0
 17 18  1  0  0  0
 17 19  1  0  0  0
 17 20  2  0  0  0
  6 10  1  0  0  0
  7 11  1  0  0  0
  8 12  1  0  0  0
 14 15  1  0  0  0
 18 21  1  0  0  0
 19 22  1  0  0  0
M  END
> <minimizedAffinity>
-7.03317

$$$$
1Z4O_GL1_A_1220


 22 22  0  0  0  0  0  0  0  0999 V2000
    5.4219   -0.6390   12.9323 C   0  0  0  0  0  0  0  0  0  0  0  0
    4.1078    0.1480   13.0007 C   0  0  0  0  0  0  0  0  0  0  0  0
    3.7461    0.7197   11.6367 C   0  0  0  0  0  0  0  0  0  0  0  0
    4.9330    1.6147   11.0735 C   0  0  0  0  0  0  0  0  0  0  0  0
    6.2223    0.7458   11.0885 C   0  0  0  0  0  0  0  0  0  0  0  0
    3.0364   -0.7096   13.4955 O   0  0  0  0  0  0  0  0  0  0  0  0
    2.5432    1.4761   11.7261 O   0  0  0  0  0  0  0  0  0  0  0  0
    5.0331    2.8311   11.8553 O   0  0  0  0  0  0  0  0  0  0  0  0
    6.4616    0.2378   12.4187 O   0  0  0  0  0  0  0  0  0  0  0  0
    2.9115   -1.4546   12.8870 H   0  0  0  0  0  0  0  0  0  0  0  0
    2.6710    2.2151   12.3413 H   0  0  0  0  0  0  0  0  0  0  0  0
    5.1880    2.6055   12.7859 H   0  0  0  0  0  0  0  0  0  0  0  0
    7.4635    1.6021   10.6840 C   0  0  0  0  0  0  0  0  0  0  0  0
    8.5140    1.1402   11.4491 O   0  0  0  0  0  0  0  0  0  0  0  0
    8.2941    1.2319   12.3894 H   0  0  0  0  0  0  0  0  0  0  0  0
    5.3317   -1.7090   12.0069 O   0  0  0  0  0  0  0  0  0  0  0  0
    5.3188   -3.2829   12.4677 P   0  0  0  0  0  0  0  0  0  0  0  0
    5.3652   -4.2284   11.2208 O   0  0  0  0  0  0  0  0  0  0  0  0
    6.6026   -3.4284   13.3279 O   0  0  0  0  0  0  0  0  0  0  0  0
    4.0662   -3.5952   13.3604 O   0  0  0  0  0  0  0  0  0  0  0  0
    6.1456   -4.0182   10.6845 H   0  0  0  0  0  0  0  0  0  0  0  0
    7.3810   -3.2367   12.7819 H   0  0  0  0  0  0  0  0  0  0  0  0
  1  2  1  0  0  0
  1 16  1  0  0  0
  1  9  1  0  0  0
  2  3  1  0  0  0
  2  6  1  0  0  0
  3  4  1  0  0  0
  3  7  1  0  0  0
  4  5  1  0  0  0
  4  8  1  0  0  0
  5 13  1  0  0  0
  5  9  1  0  0  0
 13 14  1  0  0  0
 16 17  1  0  0  0
 17 18  1  0  0  0
 17 19  1  0  0  0
 17 20  2  0  0  0
  6 10  1  0  0  0
  7 11  1  0  0  0
  8 12  1  0  0  0
 14 15  1  0  0  0
 18 21  1  0  0  0
 19 22  1  0  0  0
M  END
> <minimizedAffinity>
-6.51750

$$$$
1Z4O_GL1_A_1220


 22 22  0  0  0  0  0  0  0  0999 V2000
    5.7779   -0.9598   11.5039 C   0  0  0  0  0  0  0  0  0  0  0  0
    5.8257   -2.3824   12.0739 C   0  0  0  0  0  0  0  0  0  0  0  0
    6.6764   -2.4331   13.3356 C   0  0  0  0  0  0  0  0  0  0  0  0
    8.1352   -1.8706   13.0488 C   0  0  0  0  0  0  0  0  0  0  0  0
    7.9772   -0.4518   12.4327 C   0  0  0  0  0  0  0  0  0  0  0  0
    4.4739   -2.8564   12.3499 O   0  0  0  0  0  0  0  0  0  0  0  0
    6.7387   -3.7663   13.8310 O   0  0  0  0  0  0  0  0  0  0  0  0
    8.8545   -2.8030   12.2038 O   0  0  0  0  0  0  0  0  0  0  0  0
    7.1391   -0.5123   11.2585 O   0  0  0  0  0  0  0  0  0  0  0  0
    4.0576   -2.2799   13.0097 H   0  0  0  0  0  0  0  0  0  0  0  0
    7.1487   -4.3399   13.1648 H   0  0  0  0  0  0  0  0  0  0  0  0
    8.3681   -2.9288   11.3740 H   0  0  0  0  0  0  0  0  0  0  0  0
    9.3648    0.1094   11.9891 C   0  0  0  0  0  0  0  0  0  0  0  0
    9.1181    1.3473   11.4333 O   0  0  0  0  0  0  0  0  0  0  0  0
    8.5048    1.2507   10.6880 H   0  0  0  0  0  0  0  0  0  0  0  0
    5.2387   -0.0476   12.4454 O   0  0  0  0  0  0  0  0  0  0  0  0
    3.7134    0.5449   12.3349 P   0  0  0  0  0  0  0  0  0  0  0  0
    3.7040    1.9231   11.5922 O   0  0  0  0  0  0  0  0  0  0  0  0
    2.9538   -0.5351   11.5189 O   0  0  0  0  0  0  0  0  0  0  0  0
    3.0566    0.6700   13.7548 O   0  0  0  0  0  0  0  0  0  0  0  0
    4.1138    1.8225   10.7188 H   0  0  0  0  0  0  0  0  0  0  0  0
    3.3550   -0.6176   10.6396 H   0  0  0  0  0  0  0  0  0  0  0  0
  1  2  1  0  0  0
  1 16  1  0  0  0
  1  9  1  0  0  0
  2  3  1  0  0  0
  2  6  1  0  0  0
  3  4  1  0  0  0
  3  7  1  0  0  0
  4  5  1  0  0  0
  4  8  1  0  0  0
  5 13  1  0  0  0
  5  9  1  0  0  0
 13 14  1  0  0  0
 16 17  1  0  0  0
 17 18  1  0  0  0
 17 19  1  0  0  0
 17 20  2  0  0  0
  6 10  1  0  0  0
  7 11  1  0  0  0
  8 12  1  0  0  0
 14 15  1  0  0  0
 18 21  1  0  0  0
 19 22  1  0  0  0
M  END
> <minimizedAffinity>
-6.46462

$$$$
