4DKP_0LL_A_513
  RCSB PDB12061712133D
Coordinates from PDB:4DKP:A:513 Model:1 without hydrogens
 24 26  0  0  0  0            999 V2000
   27.1830  -14.8660   38.9990   C 0  0  0  0  0  0  0  0  0  0  0  0
   26.8590  -15.0220   41.5330   C 0  0  0  0  0  0  0  0  0  0  0  0
   25.4430  -14.5530   43.9530   C 0  0  0  0  0  0  0  0  0  0  0  0
   24.7850  -14.5850   42.7360   C 0  0  0  0  0  0  0  0  0  0  0  0
   25.4700  -14.8040   41.5340   C 0  0  0  0  0  0  0  0  0  0  0  0
   25.9120  -14.3330   32.0590   C 0  0  0  0  0  0  0  0  0  0  0  0
   26.4890  -14.9600   33.1720   C 0  0  0  0  0  0  0  0  0  0  0  0
   27.4570  -14.3210   33.9320   C 0  0  0  0  0  0  0  0  0  0  0  0
   27.8400  -13.0140   33.5570   C 0  0  0  0  0  0  0  0  0  0  0  0
   27.2720  -12.3800   32.4500   C 0  0  0  0  0  0  0  0  0  0  0  0
   26.2970  -13.0460   31.6920   C 0  0  0  0  0  0  0  0  0  0  0  0
   28.2110  -14.8030   35.1750   C 0  0  0  0  0  0  0  0  0  0  0  0
   29.4170  -13.7810   35.2310   C 0  0  0  0  0  0  0  0  0  0  0  0
   28.8880  -12.5100   34.4980   C 0  0  0  0  0  0  0  0  0  0  0  0
   30.5980  -14.3520   34.5740   N 0  0  0  0  0  0  0  0  0  0  0  0
   27.5180  -14.7010   36.4720   N 0  0  0  0  0  0  0  0  0  0  0  0
   28.0340  -15.0650   37.7020   C 0  0  0  0  0  0  0  0  0  0  0  0
   27.5970  -15.2220   40.3030   N 0  0  0  0  0  0  0  0  0  0  0  0
   26.0670  -14.3700   38.8060   O 0  0  0  0  0  0  0  0  0  0  0  0
   29.1620  -15.5640   37.8220   O 0  0  0  0  0  0  0  0  0  0  0  0
   27.5160  -14.9700   42.7930   C 0  0  0  0  0  0  0  0  0  0  0  0
   26.8140  -14.7470   43.9720   C 0  0  0  0  0  0  0  0  0  0  0  0
   24.5550  -14.2660   45.3710  Cl 0  0  0  0  0  0  0  0  0  0  0  0
   23.4710  -14.4040   42.7100   F 0  0  0  0  0  0  0  0  0  0  0  0
 15 13  1  0  0  0  0
 13 14  1  0  0  0  0
 13 12  1  0  0  0  0
 14  9  1  0  0  0  0
  9 10  2  0  0  0  0
  9  8  1  0  0  0  0
 10 11  1  0  0  0  0
 12  8  1  0  0  0  0
 12 16  1  0  0  0  0
 20 17  2  0  0  0  0
  8  7  2  0  0  0  0
 11  6  2  0  0  0  0
 17 16  1  0  0  0  0
 17  1  1  0  0  0  0
  7  6  1  0  0  0  0
  1 18  1  0  0  0  0
  1 19  2  0  0  0  0
 18  2  1  0  0  0  0
 21  2  2  0  0  0  0
 21 22  1  0  0  0  0
  2  5  1  0  0  0  0
 22  3  2  0  0  0  0
  5  4  2  0  0  0  0
  3  4  1  0  0  0  0
  3 23  1  0  0  0  0
  4 24  1  0  0  0  0
A    1
C13
A    2
C15
A    3
C20
A    4
C21
A    5
C22
A    6
C01
A    7
C02
A    8
C03
A    9
C04
A   10
C05
A   11
C06
A   12
C07
A   13
C08
A   14
C09
A   15
N10
A   16
N11
A   17
C12
A   18
N14
A   19
O16
A   20
O17
A   21
C18
A   22
C19
A   23
CL
A   24
F24
M  END
>  <InstanceId>
4DKP_0LL_A_513

>  <ChemCompId>
0LL

>  <PdbId>
4DKP

>  <ChainId>
A

>  <ResidueNumber>
513

>  <InsertionCode>


>  <Model>
1

>  <AltIds>


>  <MissingHeavyAtoms>
0

>  <ObservedFormula>
C17 N3 O2 F Cl

>  <Name>
N-[(1S,2S)-2-amino-2,3-dihydro-1H-inden-1-yl]-N'-(4-chloro-3-fluorophenyl)ethanediamide

>  <SystematicName>
N'-[(1S,2S)-2-azanyl-2,3-dihydro-1H-inden-1-yl]-N-(4-chloranyl-3-fluoranyl-phenyl)ethanediamide

>  <Synonyms>


>  <Type>
NON-POLYMER

>  <Formula>
C17 H15 Cl F N3 O2

>  <MolecularWeight>
347.771

>  <ModifiedDate>
2012-04-27

>  <Parent>


>  <OneLetterCode>


>  <SubcomponentList>


>  <AmbiguousFlag>
N

>  <InChI>
InChI=1S/C17H15ClFN3O2/c18-12-6-5-10(8-13(12)19)21-16(23)17(24)22-15-11-4-2-1-3-9(11)7-14(15)20/h1-6,8,14-15H,7,20H2,(H,21,23)(H,22,24)/t14-,15-/m0/s1

>  <InChIKey>
SCJMJOCYIDGAMT-GJZGRUSLSA-N

>  <SMILES>
c1ccc2c(c1)C[C@@H]([C@H]2NC(=O)C(=O)Nc3ccc(c(c3)F)Cl)N

$$$$
