4LLX_5ZE_A_900


 11 11  0  0  0  0  0  0  0  0999 V2000
    5.7025   11.3611   45.1898 C   0  0  0  0  0  0  0  0  0  0  0  0
    4.8694   12.3951   44.4567 C   0  0  0  0  0  0  0  0  0  0  0  0
    4.8355   12.4535   43.0469 C   0  0  0  0  0  0  0  0  0  0  0  0
    4.0327   13.4315   42.4346 C   0  0  0  0  0  0  0  0  0  0  0  0
    3.9278   13.5655   40.9278 C   0  0  0  0  0  0  0  0  0  0  0  0
    3.3326   14.3010   43.2084 N   0  0  0  0  0  0  0  0  0  0  0  0
    3.3844   14.2298   44.5616 C   0  0  0  0  0  0  0  0  0  0  0  0
    2.6652   15.0965   45.2843 N   0  0  0  0  0  0  0  0  0  0  0  0
    4.1318   13.2779   45.1835 N   0  0  0  0  0  0  0  0  0  0  0  0
    2.1250   15.7846   44.8329 H   0  0  0  0  0  0  0  0  0  0  0  0
    2.6763   15.0460   46.2675 H   0  0  0  0  0  0  0  0  0  0  0  0
  5  4  1  0  0  0
  4  3  2  0  0  0
  4  6  1  0  0  0
  3  2  1  0  0  0
  6  7  2  0  0  0
  2  1  1  0  0  0
  2  9  2  0  0  0
  7  9  1  0  0  0
  7  8  1  0  0  0
  8 10  1  0  0  0
  8 11  1  0  0  0
M  END
> <minimizedAffinity>
-5.28792

$$$$
4LLX_5ZE_A_900


 11 11  0  0  0  0  0  0  0  0999 V2000
    4.0515   13.4165   40.9135 C   0  0  0  0  0  0  0  0  0  0  0  0
    4.0896   13.3327   42.4275 C   0  0  0  0  0  0  0  0  0  0  0  0
    4.8390   12.3402   43.0949 C   0  0  0  0  0  0  0  0  0  0  0  0
    4.8369   12.3292   44.5005 C   0  0  0  0  0  0  0  0  0  0  0  0
    5.6173   11.3065   45.3032 C   0  0  0  0  0  0  0  0  0  0  0  0
    4.1035   13.2527   45.1745 N   0  0  0  0  0  0  0  0  0  0  0  0
    3.3864   14.1941   44.5121 C   0  0  0  0  0  0  0  0  0  0  0  0
    2.6916   15.0946   45.2172 N   0  0  0  0  0  0  0  0  0  0  0  0
    3.3892   14.2467   43.1525 N   0  0  0  0  0  0  0  0  0  0  0  0
    2.6907   15.0551   46.2009 H   0  0  0  0  0  0  0  0  0  0  0  0
    2.1815   15.7966   44.7521 H   0  0  0  0  0  0  0  0  0  0  0  0
  5  4  1  0  0  0
  4  3  2  0  0  0
  4  6  1  0  0  0
  3  2  1  0  0  0
  6  7  2  0  0  0
  2  1  1  0  0  0
  2  9  2  0  0  0
  7  9  1  0  0  0
  7  8  1  0  0  0
  8 10  1  0  0  0
  8 11  1  0  0  0
M  END
> <minimizedAffinity>
-5.26551

$$$$
4LLX_5ZE_A_900


 11 11  0  0  0  0  0  0  0  0999 V2000
    2.8241   14.5288   45.0131 C   0  0  0  0  0  0  0  0  0  0  0  0
    3.8318   13.4624   45.3973 C   0  0  0  0  0  0  0  0  0  0  0  0
    4.6903   12.8773   44.4420 C   0  0  0  0  0  0  0  0  0  0  0  0
    5.6072   11.9022   44.8713 C   0  0  0  0  0  0  0  0  0  0  0  0
    6.5732   11.2243   43.9191 C   0  0  0  0  0  0  0  0  0  0  0  0
    5.6292   11.5361   46.1792 N   0  0  0  0  0  0  0  0  0  0  0  0
    4.7910   12.1080   47.0789 C   0  0  0  0  0  0  0  0  0  0  0  0
    4.8589   11.7284   48.3603 N   0  0  0  0  0  0  0  0  0  0  0  0
    3.9104   13.0731   46.6988 N   0  0  0  0  0  0  0  0  0  0  0  0
    5.4966   11.0300   48.6337 H   0  0  0  0  0  0  0  0  0  0  0  0
    4.2711   12.1476   49.0297 H   0  0  0  0  0  0  0  0  0  0  0  0
  5  4  1  0  0  0
  4  3  2  0  0  0
  4  6  1  0  0  0
  3  2  1  0  0  0
  6  7  2  0  0  0
  2  1  1  0  0  0
  2  9  2  0  0  0
  7  9  1  0  0  0
  7  8  1  0  0  0
  8 10  1  0  0  0
  8 11  1  0  0  0
M  END
> <minimizedAffinity>
-5.22459

$$$$
4LLX_5ZE_A_900


 11 11  0  0  0  0  0  0  0  0999 V2000
    7.5988   10.9879   43.8878 C   0  0  0  0  0  0  0  0  0  0  0  0
    6.3808   11.6812   44.4676 C   0  0  0  0  0  0  0  0  0  0  0  0
    5.5536   12.5075   43.6771 C   0  0  0  0  0  0  0  0  0  0  0  0
    4.4349   13.1097   44.2786 C   0  0  0  0  0  0  0  0  0  0  0  0
    3.4860   14.0067   43.5076 C   0  0  0  0  0  0  0  0  0  0  0  0
    4.1925   12.8998   45.5985 N   0  0  0  0  0  0  0  0  0  0  0  0
    5.0041   12.1060   46.3402 C   0  0  0  0  0  0  0  0  0  0  0  0
    4.7177   11.9139   47.6332 N   0  0  0  0  0  0  0  0  0  0  0  0
    6.0797   11.4884   45.7806 N   0  0  0  0  0  0  0  0  0  0  0  0
    3.9391   12.3615   48.0367 H   0  0  0  0  0  0  0  0  0  0  0  0
    5.2855   11.3251   48.1810 H   0  0  0  0  0  0  0  0  0  0  0  0
  5  4  1  0  0  0
  4  3  2  0  0  0
  4  6  1  0  0  0
  3  2  1  0  0  0
  6  7  2  0  0  0
  2  1  1  0  0  0
  2  9  2  0  0  0
  7  9  1  0  0  0
  7  8  1  0  0  0
  8 10  1  0  0  0
  8 11  1  0  0  0
M  END
> <minimizedAffinity>
-5.12579

$$$$
4LLX_5ZE_A_900


 11 11  0  0  0  0  0  0  0  0999 V2000
    3.1947   14.6597   45.4108 C   0  0  0  0  0  0  0  0  0  0  0  0
    3.6806   13.8233   44.2425 C   0  0  0  0  0  0  0  0  0  0  0  0
    4.3515   12.5972   44.4389 C   0  0  0  0  0  0  0  0  0  0  0  0
    4.7643   11.8695   43.3094 C   0  0  0  0  0  0  0  0  0  0  0  0
    5.4848   10.5400   43.4219 C   0  0  0  0  0  0  0  0  0  0  0  0
    4.5277   12.3703   42.0691 N   0  0  0  0  0  0  0  0  0  0  0  0
    3.8859   13.5535   41.9043 C   0  0  0  0  0  0  0  0  0  0  0  0
    3.6593   14.0007   40.6636 N   0  0  0  0  0  0  0  0  0  0  0  0
    3.4511   14.2685   42.9773 N   0  0  0  0  0  0  0  0  0  0  0  0
    3.9745   13.4822   39.8883 H   0  0  0  0  0  0  0  0  0  0  0  0
    3.1775   14.8481   40.5260 H   0  0  0  0  0  0  0  0  0  0  0  0
  5  4  1  0  0  0
  4  3  2  0  0  0
  4  6  1  0  0  0
  3  2  1  0  0  0
  6  7  2  0  0  0
  2  1  1  0  0  0
  2  9  2  0  0  0
  7  9  1  0  0  0
  7  8  1  0  0  0
  8 10  1  0  0  0
  8 11  1  0  0  0
M  END
> <minimizedAffinity>
-4.81560

$$$$
4LLX_5ZE_A_900


 11 11  0  0  0  0  0  0  0  0999 V2000
    4.3504   12.7828   45.3811 C   0  0  0  0  0  0  0  0  0  0  0  0
    5.4290   11.7387   45.1643 C   0  0  0  0  0  0  0  0  0  0  0  0
    6.2047   11.7102   43.9855 C   0  0  0  0  0  0  0  0  0  0  0  0
    7.1945   10.7204   43.8570 C   0  0  0  0  0  0  0  0  0  0  0  0
    8.0805   10.6161   42.6309 C   0  0  0  0  0  0  0  0  0  0  0  0
    7.3636    9.8119   44.8525 N   0  0  0  0  0  0  0  0  0  0  0  0
    6.6029    9.8551   45.9743 C   0  0  0  0  0  0  0  0  0  0  0  0
    6.8154    8.9500   46.9368 N   0  0  0  0  0  0  0  0  0  0  0  0
    5.6546   10.8168   46.1394 N   0  0  0  0  0  0  0  0  0  0  0  0
    7.5019    8.2548   46.8158 H   0  0  0  0  0  0  0  0  0  0  0  0
    6.2853    8.9793   47.7658 H   0  0  0  0  0  0  0  0  0  0  0  0
  5  4  1  0  0  0
  4  3  2  0  0  0
  4  6  1  0  0  0
  3  2  1  0  0  0
  6  7  2  0  0  0
  2  1  1  0  0  0
  2  9  2  0  0  0
  7  9  1  0  0  0
  7  8  1  0  0  0
  8 10  1  0  0  0
  8 11  1  0  0  0
M  END
> <minimizedAffinity>
-4.73272

$$$$
4LLX_5ZE_A_900


 11 11  0  0  0  0  0  0  0  0999 V2000
    4.3951   13.2803   42.2424 C   0  0  0  0  0  0  0  0  0  0  0  0
    5.0402   12.5829   43.4248 C   0  0  0  0  0  0  0  0  0  0  0  0
    4.4578   12.6144   44.7101 C   0  0  0  0  0  0  0  0  0  0  0  0
    5.1056   11.9366   45.7574 C   0  0  0  0  0  0  0  0  0  0  0  0
    4.5516   11.9089   47.1686 C   0  0  0  0  0  0  0  0  0  0  0  0
    6.2759   11.2919   45.5126 N   0  0  0  0  0  0  0  0  0  0  0  0
    6.8201   11.2794   44.2705 C   0  0  0  0  0  0  0  0  0  0  0  0
    7.9660   10.6176   44.0716 N   0  0  0  0  0  0  0  0  0  0  0  0
    6.2036   11.9042   43.2308 N   0  0  0  0  0  0  0  0  0  0  0  0
    8.4108   10.1661   44.8249 H   0  0  0  0  0  0  0  0  0  0  0  0
    8.3642   10.5823   43.1719 H   0  0  0  0  0  0  0  0  0  0  0  0
  5  4  1  0  0  0
  4  3  2  0  0  0
  4  6  1  0  0  0
  3  2  1  0  0  0
  6  7  2  0  0  0
  2  1  1  0  0  0
  2  9  2  0  0  0
  7  9  1  0  0  0
  7  8  1  0  0  0
  8 10  1  0  0  0
  8 11  1  0  0  0
M  END
> <minimizedAffinity>
-4.66110

$$$$
4LLX_5ZE_A_900


 11 11  0  0  0  0  0  0  0  0999 V2000
    8.1868    9.9052   42.3072 C   0  0  0  0  0  0  0  0  0  0  0  0
    7.3506   10.2377   43.5282 C   0  0  0  0  0  0  0  0  0  0  0  0
    6.4130   11.2925   43.5177 C   0  0  0  0  0  0  0  0  0  0  0  0
    5.6647   11.5372   44.6823 C   0  0  0  0  0  0  0  0  0  0  0  0
    4.6302   12.6429   44.7624 C   0  0  0  0  0  0  0  0  0  0  0  0
    5.8761   10.7725   45.7848 N   0  0  0  0  0  0  0  0  0  0  0  0
    6.7865    9.7674   45.7738 C   0  0  0  0  0  0  0  0  0  0  0  0
    6.9499    9.0288   46.8777 N   0  0  0  0  0  0  0  0  0  0  0  0
    7.5074    9.4894   44.6539 N   0  0  0  0  0  0  0  0  0  0  0  0
    6.4275    9.2313   47.6872 H   0  0  0  0  0  0  0  0  0  0  0  0
    7.5925    8.2830   46.8802 H   0  0  0  0  0  0  0  0  0  0  0  0
  5  4  1  0  0  0
  4  3  2  0  0  0
  4  6  1  0  0  0
  3  2  1  0  0  0
  6  7  2  0  0  0
  2  1  1  0  0  0
  2  9  2  0  0  0
  7  9  1  0  0  0
  7  8  1  0  0  0
  8 10  1  0  0  0
  8 11  1  0  0  0
M  END
> <minimizedAffinity>
-4.65764

$$$$
4LLX_5ZE_A_900


 11 11  0  0  0  0  0  0  0  0999 V2000
    8.0445   11.3796   43.5184 C   0  0  0  0  0  0  0  0  0  0  0  0
    6.6674   11.8263   43.9705 C   0  0  0  0  0  0  0  0  0  0  0  0
    6.2354   11.6574   45.3034 C   0  0  0  0  0  0  0  0  0  0  0  0
    4.9499   12.1049   45.6544 C   0  0  0  0  0  0  0  0  0  0  0  0
    4.4030   11.9725   47.0625 C   0  0  0  0  0  0  0  0  0  0  0  0
    4.1555   12.6646   44.7054 N   0  0  0  0  0  0  0  0  0  0  0  0
    4.5895   12.8120   43.4291 C   0  0  0  0  0  0  0  0  0  0  0  0
    3.7791   13.3840   42.5309 N   0  0  0  0  0  0  0  0  0  0  0  0
    5.8381   12.4125   43.0647 N   0  0  0  0  0  0  0  0  0  0  0  0
    2.8760   13.6725   42.7961 H   0  0  0  0  0  0  0  0  0  0  0  0
    4.0860   13.5163   41.6048 H   0  0  0  0  0  0  0  0  0  0  0  0
  5  4  1  0  0  0
  4  3  2  0  0  0
  4  6  1  0  0  0
  3  2  1  0  0  0
  6  7  2  0  0  0
  2  1  1  0  0  0
  2  9  2  0  0  0
  7  9  1  0  0  0
  7  8  1  0  0  0
  8 10  1  0  0  0
  8 11  1  0  0  0
M  END
> <minimizedAffinity>
-4.64987

$$$$
4LLX_5ZE_A_900


 11 11  0  0  0  0  0  0  0  0999 V2000
    3.8876   12.2243   46.8421 C   0  0  0  0  0  0  0  0  0  0  0  0
    4.5628   12.3380   45.4887 C   0  0  0  0  0  0  0  0  0  0  0  0
    5.8695   11.8510   45.2707 C   0  0  0  0  0  0  0  0  0  0  0  0
    6.4288   11.9807   43.9876 C   0  0  0  0  0  0  0  0  0  0  0  0
    7.8219   11.4812   43.6576 C   0  0  0  0  0  0  0  0  0  0  0  0
    5.7119   12.5846   43.0045 N   0  0  0  0  0  0  0  0  0  0  0  0
    4.4598   13.0500   43.2383 C   0  0  0  0  0  0  0  0  0  0  0  0
    3.7837   13.6232   42.2357 N   0  0  0  0  0  0  0  0  0  0  0  0
    3.8813   12.9160   44.4625 N   0  0  0  0  0  0  0  0  0  0  0  0
    4.2037   13.7194   41.3505 H   0  0  0  0  0  0  0  0  0  0  0  0
    2.8664   13.9488   42.3834 H   0  0  0  0  0  0  0  0  0  0  0  0
  5  4  1  0  0  0
  4  3  2  0  0  0
  4  6  1  0  0  0
  3  2  1  0  0  0
  6  7  2  0  0  0
  2  1  1  0  0  0
  2  9  2  0  0  0
  7  9  1  0  0  0
  7  8  1  0  0  0
  8 10  1  0  0  0
  8 11  1  0  0  0
M  END
> <minimizedAffinity>
-4.64963

$$$$
