1QB1_974_A_300


 47 51  0  0  0  0  0  0  0  0999 V2000
   10.4480   38.4544   12.9403 C   0  0  0  0  0  0  0  0  0  0  0  0
    9.3687   37.7136   12.8878 F   0  0  0  0  0  0  0  0  0  0  0  0
   10.3641   39.8107   13.3695 C   0  0  0  0  0  0  0  0  0  0  0  0
   11.5449   40.5754   13.3961 C   0  0  0  0  0  0  0  0  0  0  0  0
   11.5036   41.8171   13.8006 F   0  0  0  0  0  0  0  0  0  0  0  0
   12.7520   39.9850   13.0001 C   0  0  0  0  0  0  0  0  0  0  0  0
   12.8067   38.6988   12.5957 N   0  0  0  0  0  0  0  0  0  0  0  0
   11.6844   37.9421   12.5659 C   0  0  0  0  0  0  0  0  0  0  0  0
   13.6677   38.3085   12.3207 H   0  0  0  0  0  0  0  0  0  0  0  0
    9.1773   40.3624   13.7406 N   0  0  0  0  0  0  0  0  0  0  0  0
    8.4479   41.1683   12.7712 C   0  0  0  0  0  0  0  0  0  0  0  0
    6.9325   40.7950   12.8381 C   0  0  0  0  0  0  0  0  0  0  0  0
    6.4114   41.0431   14.3037 C   0  0  0  0  0  0  0  0  0  0  0  0
    7.2376   40.1343   15.2838 C   0  0  0  0  0  0  0  0  0  0  0  0
    8.7573   40.3980   15.1221 C   0  0  0  0  0  0  0  0  0  0  0  0
    6.0702   41.4646   11.8351 C   0  0  0  0  0  0  0  0  0  0  0  0
    5.3079   40.7318   11.1441 O   0  0  0  0  0  0  0  0  0  0  0  0
    6.3997   42.5669   11.3157 O   0  0  0  0  0  0  0  0  0  0  0  0
    5.0287   39.9014   11.4763 H   0  0  0  0  0  0  0  0  0  0  0  0
   11.8981   36.7513   12.1390 O   0  0  0  0  0  0  0  0  0  0  0  0
   12.6798   36.1631   11.1963 C   0  0  0  0  0  0  0  0  0  0  0  0
   12.1960   36.0304    9.8750 C   0  0  0  0  0  0  0  0  0  0  0  0
   12.9696   35.4756    8.8484 C   0  0  0  0  0  0  0  0  0  0  0  0
   14.2514   34.9919    9.1351 C   0  0  0  0  0  0  0  0  0  0  0  0
   14.7749   35.0919   10.4253 C   0  0  0  0  0  0  0  0  0  0  0  0
   14.0097   35.6840   11.4595 C   0  0  0  0  0  0  0  0  0  0  0  0
   14.5799   35.7659   12.6975 O   0  0  0  0  0  0  0  0  0  0  0  0
   14.1050   36.1511   13.4075 H   0  0  0  0  0  0  0  0  0  0  0  0
   12.3400   35.3781    7.5937 C   0  0  0  0  0  0  0  0  0  0  0  0
   11.0585   35.6937    7.3801 N   0  0  0  0  0  0  0  0  0  0  0  0
   12.9329   34.9323    6.4958 N   0  0  0  0  0  0  0  0  0  0  0  0
   10.5065   36.0378    8.1191 H   0  0  0  0  0  0  0  0  0  0  0  0
   13.8803   34.6658    6.5215 H   0  0  0  0  0  0  0  0  0  0  0  0
   12.4260   34.8675    5.6543 H   0  0  0  0  0  0  0  0  0  0  0  0
   13.9350   40.5852   12.9975 O   0  0  0  0  0  0  0  0  0  0  0  0
   14.3107   41.8457   13.2172 C   0  0  0  0  0  0  0  0  0  0  0  0
   14.8824   42.1851   14.4427 C   0  0  0  0  0  0  0  0  0  0  0  0
   15.2765   43.5162   14.6743 C   0  0  0  0  0  0  0  0  0  0  0  0
   15.0809   44.4752   13.6627 C   0  0  0  0  0  0  0  0  0  0  0  0
   14.4997   44.1250   12.4273 C   0  0  0  0  0  0  0  0  0  0  0  0
   14.1270   42.7945   12.1962 C   0  0  0  0  0  0  0  0  0  0  0  0
   14.3569   45.0869   11.4086 C   0  0  0  0  0  0  0  0  0  0  0  0
   13.5970   46.2109   11.3899 N   0  0  0  0  0  0  0  0  0  0  0  0
   12.7109   46.7239   12.4066 C   0  0  0  0  0  0  0  0  0  0  0  0
   15.0514   44.9712   10.2549 N   0  0  0  0  0  0  0  0  0  0  0  0
   13.7955   46.9004   10.1641 C   0  0  0  0  0  0  0  0  0  0  0  0
   14.8096   46.0413    9.3798 C   0  0  0  0  0  0  0  0  0  0  0  0
 20 21  1  0  0  0
 20  8  1  0  0  0
 21 22  2  0  0  0
 21 26  1  0  0  0
 22 23  1  0  0  0
 23 24  2  0  0  0
 23 29  1  0  0  0
 24 25  1  0  0  0
 25 26  2  0  0  0
 26 27  1  0  0  0
 29 30  2  0  0  0
 29 31  1  0  0  0
  1  2  1  0  0  0
  1  3  2  0  0  0
  1  8  1  0  0  0
  3  4  1  0  0  0
  3 10  1  0  0  0
  4  5  1  0  0  0
  4  6  2  0  0  0
  6  7  1  0  0  0
  6 35  1  0  0  0
  7  8  2  0  0  0
 10 11  1  0  0  0
 10 15  1  0  0  0
 11 12  1  0  0  0
 12 13  1  0  0  0
 12 16  1  0  0  0
 13 14  1  0  0  0
 14 15  1  0  0  0
 16 17  1  0  0  0
 16 18  2  0  0  0
 35 36  1  0  0  0
 36 37  2  0  0  0
 36 41  1  0  0  0
 37 38  1  0  0  0
 38 39  2  0  0  0
 39 40  1  0  0  0
 40 41  2  0  0  0
 40 42  1  0  0  0
 42 43  1  0  0  0
 42 45  2  0  0  0
 43 44  1  0  0  0
 43 46  1  0  0  0
 45 47  1  0  0  0
 46 47  2  0  0  0
 27 28  1  0  0  0
 30 32  1  0  0  0
 31 33  1  0  0  0
 31 34  1  0  0  0
  7  9  1  0  0  0
 17 19  1  0  0  0
M  CHG 1   7   1
M  END
> <minimizedAffinity>
-9.85620

$$$$
1QB1_974_A_300


 47 51  0  0  0  0  0  0  0  0999 V2000
   10.1373   37.2167   12.7920 C   0  0  0  0  0  0  0  0  0  0  0  0
    9.6322   36.7256   11.6874 F   0  0  0  0  0  0  0  0  0  0  0  0
    9.3487   37.2680   13.9779 C   0  0  0  0  0  0  0  0  0  0  0  0
    9.9248   37.8176   15.1379 C   0  0  0  0  0  0  0  0  0  0  0  0
    9.2332   37.8635   16.2454 F   0  0  0  0  0  0  0  0  0  0  0  0
   11.2408   38.2951   15.0886 C   0  0  0  0  0  0  0  0  0  0  0  0
   11.9680   38.2376   13.9533 N   0  0  0  0  0  0  0  0  0  0  0  0
   11.4365   37.7091   12.8258 C   0  0  0  0  0  0  0  0  0  0  0  0
   12.8903   38.5819   13.9448 H   0  0  0  0  0  0  0  0  0  0  0  0
    8.0696   36.8051   13.9965 N   0  0  0  0  0  0  0  0  0  0  0  0
    7.8357   35.3883   13.7536 C   0  0  0  0  0  0  0  0  0  0  0  0
    6.7749   34.8664   14.7748 C   0  0  0  0  0  0  0  0  0  0  0  0
    5.4528   35.7064   14.6092 C   0  0  0  0  0  0  0  0  0  0  0  0
    5.7852   37.2151   14.8959 C   0  0  0  0  0  0  0  0  0  0  0  0
    6.9385   37.7032   13.9812 C   0  0  0  0  0  0  0  0  0  0  0  0
    6.5032   33.4101   14.7174 C   0  0  0  0  0  0  0  0  0  0  0  0
    6.8736   32.7118   15.7026 O   0  0  0  0  0  0  0  0  0  0  0  0
    6.4007   32.8032   13.6153 O   0  0  0  0  0  0  0  0  0  0  0  0
    6.9680   33.1062   16.5473 H   0  0  0  0  0  0  0  0  0  0  0  0
   12.2441   37.7465   11.8297 O   0  0  0  0  0  0  0  0  0  0  0  0
   12.8911   36.8453   11.0455 C   0  0  0  0  0  0  0  0  0  0  0  0
   12.3438   36.4957    9.7902 C   0  0  0  0  0  0  0  0  0  0  0  0
   12.9847   35.6089    8.9166 C   0  0  0  0  0  0  0  0  0  0  0  0
   14.1874   35.0070    9.3046 C   0  0  0  0  0  0  0  0  0  0  0  0
   14.7677   35.3118   10.5370 C   0  0  0  0  0  0  0  0  0  0  0  0
   14.1410   36.2348   11.4094 C   0  0  0  0  0  0  0  0  0  0  0  0
   14.7628   36.5033   12.5951 O   0  0  0  0  0  0  0  0  0  0  0  0
   14.3791   37.1085   13.1988 H   0  0  0  0  0  0  0  0  0  0  0  0
   12.3013   35.3311    7.7183 C   0  0  0  0  0  0  0  0  0  0  0  0
   10.9712   35.3834    7.5935 N   0  0  0  0  0  0  0  0  0  0  0  0
   12.8927   34.9549    6.5938 N   0  0  0  0  0  0  0  0  0  0  0  0
   10.4149   35.6503    8.3606 H   0  0  0  0  0  0  0  0  0  0  0  0
   13.8734   34.8774    6.5556 H   0  0  0  0  0  0  0  0  0  0  0  0
   12.3515   34.7529    5.7967 H   0  0  0  0  0  0  0  0  0  0  0  0
   11.9069   38.8157   16.1108 O   0  0  0  0  0  0  0  0  0  0  0  0
   13.2059   38.8829   16.4045 C   0  0  0  0  0  0  0  0  0  0  0  0
   13.8044   40.1301   16.5771 C   0  0  0  0  0  0  0  0  0  0  0  0
   15.1759   40.1999   16.8848 C   0  0  0  0  0  0  0  0  0  0  0  0
   15.9127   39.0068   17.0081 C   0  0  0  0  0  0  0  0  0  0  0  0
   15.3011   37.7495   16.8295 C   0  0  0  0  0  0  0  0  0  0  0  0
   13.9315   37.6865   16.5419 C   0  0  0  0  0  0  0  0  0  0  0  0
   16.0423   36.5650   17.0051 C   0  0  0  0  0  0  0  0  0  0  0  0
   16.3387   35.8997   18.1501 N   0  0  0  0  0  0  0  0  0  0  0  0
   15.9875   36.2325   19.5095 C   0  0  0  0  0  0  0  0  0  0  0  0
   16.5551   35.9131   15.9379 N   0  0  0  0  0  0  0  0  0  0  0  0
   17.0812   34.7286   17.8425 C   0  0  0  0  0  0  0  0  0  0  0  0
   17.2256   34.7366   16.3061 C   0  0  0  0  0  0  0  0  0  0  0  0
 20 21  1  0  0  0
 20  8  1  0  0  0
 21 22  2  0  0  0
 21 26  1  0  0  0
 22 23  1  0  0  0
 23 24  2  0  0  0
 23 29  1  0  0  0
 24 25  1  0  0  0
 25 26  2  0  0  0
 26 27  1  0  0  0
 29 30  2  0  0  0
 29 31  1  0  0  0
  1  2  1  0  0  0
  1  3  2  0  0  0
  1  8  1  0  0  0
  3  4  1  0  0  0
  3 10  1  0  0  0
  4  5  1  0  0  0
  4  6  2  0  0  0
  6  7  1  0  0  0
  6 35  1  0  0  0
  7  8  2  0  0  0
 10 11  1  0  0  0
 10 15  1  0  0  0
 11 12  1  0  0  0
 12 13  1  0  0  0
 12 16  1  0  0  0
 13 14  1  0  0  0
 14 15  1  0  0  0
 16 17  1  0  0  0
 16 18  2  0  0  0
 35 36  1  0  0  0
 36 37  2  0  0  0
 36 41  1  0  0  0
 37 38  1  0  0  0
 38 39  2  0  0  0
 39 40  1  0  0  0
 40 41  2  0  0  0
 40 42  1  0  0  0
 42 43  1  0  0  0
 42 45  2  0  0  0
 43 44  1  0  0  0
 43 46  1  0  0  0
 45 47  1  0  0  0
 46 47  2  0  0  0
 27 28  1  0  0  0
 30 32  1  0  0  0
 31 33  1  0  0  0
 31 34  1  0  0  0
  7  9  1  0  0  0
 17 19  1  0  0  0
M  CHG 1   7   1
M  END
> <minimizedAffinity>
-9.57293

$$$$
1QB1_974_A_300


 47 51  0  0  0  0  0  0  0  0999 V2000
   10.4112   37.0122   12.2278 C   0  0  0  0  0  0  0  0  0  0  0  0
    9.8760   35.8484   11.9528 F   0  0  0  0  0  0  0  0  0  0  0  0
   11.7394   37.3066   11.8035 C   0  0  0  0  0  0  0  0  0  0  0  0
   12.2812   38.5625   12.1335 C   0  0  0  0  0  0  0  0  0  0  0  0
   13.4903   38.8688   11.7444 F   0  0  0  0  0  0  0  0  0  0  0  0
   11.5061   39.4720   12.8644 C   0  0  0  0  0  0  0  0  0  0  0  0
   10.2508   39.1702   13.2570 N   0  0  0  0  0  0  0  0  0  0  0  0
    9.7065   37.9698   12.9474 C   0  0  0  0  0  0  0  0  0  0  0  0
    9.7278   39.8266   13.7715 H   0  0  0  0  0  0  0  0  0  0  0  0
   12.4741   36.4018   11.1019 N   0  0  0  0  0  0  0  0  0  0  0  0
   11.9631   35.9280    9.8230 C   0  0  0  0  0  0  0  0  0  0  0  0
   13.1343   35.8925    8.7899 C   0  0  0  0  0  0  0  0  0  0  0  0
   14.2711   34.9520    9.3415 C   0  0  0  0  0  0  0  0  0  0  0  0
   14.7740   35.5338   10.7117 C   0  0  0  0  0  0  0  0  0  0  0  0
   13.5903   35.7062   11.6988 C   0  0  0  0  0  0  0  0  0  0  0  0
   12.7483   35.5234    7.4070 C   0  0  0  0  0  0  0  0  0  0  0  0
   11.5800   35.0767    7.2306 O   0  0  0  0  0  0  0  0  0  0  0  0
   13.6107   35.1708    6.5553 O   0  0  0  0  0  0  0  0  0  0  0  0
   10.8963   35.3035    7.8299 H   0  0  0  0  0  0  0  0  0  0  0  0
    8.5181   37.8280   13.4093 O   0  0  0  0  0  0  0  0  0  0  0  0
    7.8189   36.8645   14.0641 C   0  0  0  0  0  0  0  0  0  0  0  0
    7.2658   35.7883   13.3338 C   0  0  0  0  0  0  0  0  0  0  0  0
    6.5747   34.7410   13.9549 C   0  0  0  0  0  0  0  0  0  0  0  0
    6.3796   34.7695   15.3406 C   0  0  0  0  0  0  0  0  0  0  0  0
    6.8990   35.8131   16.1086 C   0  0  0  0  0  0  0  0  0  0  0  0
    7.6289   36.8569   15.4893 C   0  0  0  0  0  0  0  0  0  0  0  0
    8.1240   37.8431   16.2937 O   0  0  0  0  0  0  0  0  0  0  0  0
    8.6122   38.5507   15.9210 H   0  0  0  0  0  0  0  0  0  0  0  0
    6.0516   33.7589   13.0935 C   0  0  0  0  0  0  0  0  0  0  0  0
    6.0872   32.4481   13.3543 N   0  0  0  0  0  0  0  0  0  0  0  0
    5.4987   34.0180   11.9175 N   0  0  0  0  0  0  0  0  0  0  0  0
    6.4750   32.1247   14.1994 H   0  0  0  0  0  0  0  0  0  0  0  0
    5.4131   34.9487   11.6082 H   0  0  0  0  0  0  0  0  0  0  0  0
    5.1736   33.2798   11.3531 H   0  0  0  0  0  0  0  0  0  0  0  0
   11.8872   40.6913   13.2217 O   0  0  0  0  0  0  0  0  0  0  0  0
   12.2092   41.7801   12.5224 C   0  0  0  0  0  0  0  0  0  0  0  0
   13.5428   42.1813   12.4571 C   0  0  0  0  0  0  0  0  0  0  0  0
   13.8812   43.3319   11.7207 C   0  0  0  0  0  0  0  0  0  0  0  0
   12.8630   44.0531   11.0691 C   0  0  0  0  0  0  0  0  0  0  0  0
   11.5165   43.6428   11.1420 C   0  0  0  0  0  0  0  0  0  0  0  0
   11.1890   42.4860   11.8610 C   0  0  0  0  0  0  0  0  0  0  0  0
   10.5177   44.3482   10.4434 C   0  0  0  0  0  0  0  0  0  0  0  0
    9.9280   45.5311   10.7505 N   0  0  0  0  0  0  0  0  0  0  0  0
   10.1520   46.3875   11.8900 C   0  0  0  0  0  0  0  0  0  0  0  0
   10.0276   43.8684    9.2787 N   0  0  0  0  0  0  0  0  0  0  0  0
    8.9976   45.8780    9.7349 C   0  0  0  0  0  0  0  0  0  0  0  0
    9.0721   44.7255    8.7114 C   0  0  0  0  0  0  0  0  0  0  0  0
 20 21  1  0  0  0
 20  8  1  0  0  0
 21 22  2  0  0  0
 21 26  1  0  0  0
 22 23  1  0  0  0
 23 24  2  0  0  0
 23 29  1  0  0  0
 24 25  1  0  0  0
 25 26  2  0  0  0
 26 27  1  0  0  0
 29 30  2  0  0  0
 29 31  1  0  0  0
  1  2  1  0  0  0
  1  3  2  0  0  0
  1  8  1  0  0  0
  3  4  1  0  0  0
  3 10  1  0  0  0
  4  5  1  0  0  0
  4  6  2  0  0  0
  6  7  1  0  0  0
  6 35  1  0  0  0
  7  8  2  0  0  0
 10 11  1  0  0  0
 10 15  1  0  0  0
 11 12  1  0  0  0
 12 13  1  0  0  0
 12 16  1  0  0  0
 13 14  1  0  0  0
 14 15  1  0  0  0
 16 17  1  0  0  0
 16 18  2  0  0  0
 35 36  1  0  0  0
 36 37  2  0  0  0
 36 41  1  0  0  0
 37 38  1  0  0  0
 38 39  2  0  0  0
 39 40  1  0  0  0
 40 41  2  0  0  0
 40 42  1  0  0  0
 42 43  1  0  0  0
 42 45  2  0  0  0
 43 44  1  0  0  0
 43 46  1  0  0  0
 45 47  1  0  0  0
 46 47  2  0  0  0
 27 28  1  0  0  0
 30 32  1  0  0  0
 31 33  1  0  0  0
 31 34  1  0  0  0
  7  9  1  0  0  0
 17 19  1  0  0  0
M  CHG 1   7   1
M  END
> <minimizedAffinity>
-9.52592

$$$$
1QB1_974_A_300


 47 51  0  0  0  0  0  0  0  0999 V2000
   10.7724   36.7308   12.6360 C   0  0  0  0  0  0  0  0  0  0  0  0
   10.3258   35.5057   12.5092 F   0  0  0  0  0  0  0  0  0  0  0  0
   11.9367   37.1445   11.9260 C   0  0  0  0  0  0  0  0  0  0  0  0
   12.3912   38.4642   12.1031 C   0  0  0  0  0  0  0  0  0  0  0  0
   13.4462   38.8788   11.4532 F   0  0  0  0  0  0  0  0  0  0  0  0
   11.6931   39.3189   12.9660 C   0  0  0  0  0  0  0  0  0  0  0  0
   10.5936   38.9042   13.6292 N   0  0  0  0  0  0  0  0  0  0  0  0
   10.1348   37.6401   13.4715 C   0  0  0  0  0  0  0  0  0  0  0  0
   10.1223   39.5243   14.2314 H   0  0  0  0  0  0  0  0  0  0  0  0
   12.6014   36.2916   11.1005 N   0  0  0  0  0  0  0  0  0  0  0  0
   11.9093   35.7713    9.9294 C   0  0  0  0  0  0  0  0  0  0  0  0
   12.8789   35.8152    8.7054 C   0  0  0  0  0  0  0  0  0  0  0  0
   14.1622   34.9662    9.0420 C   0  0  0  0  0  0  0  0  0  0  0  0
   14.8545   35.5943   10.3050 C   0  0  0  0  0  0  0  0  0  0  0  0
   13.8543   35.6856   11.4867 C   0  0  0  0  0  0  0  0  0  0  0  0
   12.2832   35.4079    7.4104 C   0  0  0  0  0  0  0  0  0  0  0  0
   13.0415   34.8362    6.5775 O   0  0  0  0  0  0  0  0  0  0  0  0
   11.2839   36.0096    6.9279 O   0  0  0  0  0  0  0  0  0  0  0  0
   13.7997   34.3730    6.8752 H   0  0  0  0  0  0  0  0  0  0  0  0
    9.0969   37.3946   14.1844 O   0  0  0  0  0  0  0  0  0  0  0  0
    7.8604   36.8684   13.9842 C   0  0  0  0  0  0  0  0  0  0  0  0
    7.6877   35.4660   14.0148 C   0  0  0  0  0  0  0  0  0  0  0  0
    6.4327   34.8644   13.8615 C   0  0  0  0  0  0  0  0  0  0  0  0
    5.3085   35.6642   13.6260 C   0  0  0  0  0  0  0  0  0  0  0  0
    5.4247   37.0546   13.5791 C   0  0  0  0  0  0  0  0  0  0  0  0
    6.6862   37.6697   13.7683 C   0  0  0  0  0  0  0  0  0  0  0  0
    6.7352   39.0336   13.7250 O   0  0  0  0  0  0  0  0  0  0  0  0
    7.5517   39.4772   13.8457 H   0  0  0  0  0  0  0  0  0  0  0  0
    6.4236   33.4573   13.8802 C   0  0  0  0  0  0  0  0  0  0  0  0
    6.8361   32.7264   14.9209 N   0  0  0  0  0  0  0  0  0  0  0  0
    6.0399   32.7017   12.8616 N   0  0  0  0  0  0  0  0  0  0  0  0
    7.1477   33.1711   15.7421 H   0  0  0  0  0  0  0  0  0  0  0  0
    5.7137   33.1212   12.0329 H   0  0  0  0  0  0  0  0  0  0  0  0
    6.0811   31.7207   12.9336 H   0  0  0  0  0  0  0  0  0  0  0  0
   12.0016   40.5866   13.2055 O   0  0  0  0  0  0  0  0  0  0  0  0
   11.7566   41.7182   12.5439 C   0  0  0  0  0  0  0  0  0  0  0  0
   10.4469   42.0272   12.1791 C   0  0  0  0  0  0  0  0  0  0  0  0
   10.1897   43.2205   11.4789 C   0  0  0  0  0  0  0  0  0  0  0  0
   11.2631   44.0737   11.1603 C   0  0  0  0  0  0  0  0  0  0  0  0
   12.5849   43.7532   11.5301 C   0  0  0  0  0  0  0  0  0  0  0  0
   12.8316   42.5730   12.2434 C   0  0  0  0  0  0  0  0  0  0  0  0
   13.6398   44.6420   11.2465 C   0  0  0  0  0  0  0  0  0  0  0  0
   14.4731   45.2861   12.1021 N   0  0  0  0  0  0  0  0  0  0  0  0
   14.4978   45.2494   13.5443 C   0  0  0  0  0  0  0  0  0  0  0  0
   13.9573   44.9424    9.9675 N   0  0  0  0  0  0  0  0  0  0  0  0
   15.4129   46.0545   11.3647 C   0  0  0  0  0  0  0  0  0  0  0  0
   15.0569   45.8102    9.8830 C   0  0  0  0  0  0  0  0  0  0  0  0
 20 21  1  0  0  0
 20  8  1  0  0  0
 21 22  2  0  0  0
 21 26  1  0  0  0
 22 23  1  0  0  0
 23 24  2  0  0  0
 23 29  1  0  0  0
 24 25  1  0  0  0
 25 26  2  0  0  0
 26 27  1  0  0  0
 29 30  2  0  0  0
 29 31  1  0  0  0
  1  2  1  0  0  0
  1  3  2  0  0  0
  1  8  1  0  0  0
  3  4  1  0  0  0
  3 10  1  0  0  0
  4  5  1  0  0  0
  4  6  2  0  0  0
  6  7  1  0  0  0
  6 35  1  0  0  0
  7  8  2  0  0  0
 10 11  1  0  0  0
 10 15  1  0  0  0
 11 12  1  0  0  0
 12 13  1  0  0  0
 12 16  1  0  0  0
 13 14  1  0  0  0
 14 15  1  0  0  0
 16 17  1  0  0  0
 16 18  2  0  0  0
 35 36  1  0  0  0
 36 37  2  0  0  0
 36 41  1  0  0  0
 37 38  1  0  0  0
 38 39  2  0  0  0
 39 40  1  0  0  0
 40 41  2  0  0  0
 40 42  1  0  0  0
 42 43  1  0  0  0
 42 45  2  0  0  0
 43 44  1  0  0  0
 43 46  1  0  0  0
 45 47  1  0  0  0
 46 47  2  0  0  0
 27 28  1  0  0  0
 30 32  1  0  0  0
 31 33  1  0  0  0
 31 34  1  0  0  0
  7  9  1  0  0  0
 17 19  1  0  0  0
M  CHG 1   7   1
M  END
> <minimizedAffinity>
-9.45135

$$$$
1QB1_974_A_300


 47 51  0  0  0  0  0  0  0  0999 V2000
   10.4110   38.5855   12.8564 C   0  0  0  0  0  0  0  0  0  0  0  0
    9.3542   37.8117   12.8848 F   0  0  0  0  0  0  0  0  0  0  0  0
   10.3038   39.9563   13.2310 C   0  0  0  0  0  0  0  0  0  0  0  0
   11.4600   40.7558   13.1710 C   0  0  0  0  0  0  0  0  0  0  0  0
   11.3979   42.0122   13.5240 F   0  0  0  0  0  0  0  0  0  0  0  0
   12.6662   40.1844   12.7455 C   0  0  0  0  0  0  0  0  0  0  0  0
   12.7432   38.8839   12.3939 N   0  0  0  0  0  0  0  0  0  0  0  0
   11.6449   38.0939   12.4478 C   0  0  0  0  0  0  0  0  0  0  0  0
   13.6028   38.5073   12.0965 H   0  0  0  0  0  0  0  0  0  0  0  0
    9.1180   40.4885   13.6325 N   0  0  0  0  0  0  0  0  0  0  0  0
    8.3232   41.2331   12.6654 C   0  0  0  0  0  0  0  0  0  0  0  0
    6.8241   40.8197   12.8143 C   0  0  0  0  0  0  0  0  0  0  0  0
    6.3597   41.1124   14.2906 C   0  0  0  0  0  0  0  0  0  0  0  0
    7.2547   40.2684   15.2682 C   0  0  0  0  0  0  0  0  0  0  0  0
    8.7573   40.5685   15.0288 C   0  0  0  0  0  0  0  0  0  0  0  0
    5.8994   41.4229   11.8250 C   0  0  0  0  0  0  0  0  0  0  0  0
    5.3186   40.6401   11.0215 O   0  0  0  0  0  0  0  0  0  0  0  0
    6.0420   42.6141   11.4324 O   0  0  0  0  0  0  0  0  0  0  0  0
    5.1834   39.7432   11.2565 H   0  0  0  0  0  0  0  0  0  0  0  0
   11.8766   36.8923   12.0624 O   0  0  0  0  0  0  0  0  0  0  0  0
   12.6585   36.2845   11.1323 C   0  0  0  0  0  0  0  0  0  0  0  0
   12.1627   36.0959    9.8223 C   0  0  0  0  0  0  0  0  0  0  0  0
   12.9349   35.5182    8.8073 C   0  0  0  0  0  0  0  0  0  0  0  0
   14.2283   35.0679    9.0962 C   0  0  0  0  0  0  0  0  0  0  0  0
   14.7640   35.2233   10.3759 C   0  0  0  0  0  0  0  0  0  0  0  0
   13.9996   35.8386   11.3970 C   0  0  0  0  0  0  0  0  0  0  0  0
   14.5817   35.9750   12.6247 O   0  0  0  0  0  0  0  0  0  0  0  0
   14.1077   36.3771   13.3259 H   0  0  0  0  0  0  0  0  0  0  0  0
   12.2935   35.3647    7.5642 C   0  0  0  0  0  0  0  0  0  0  0  0
   12.9049   34.9126    6.4646 N   0  0  0  0  0  0  0  0  0  0  0  0
   11.0274   35.6815    7.3356 N   0  0  0  0  0  0  0  0  0  0  0  0
   13.8511   34.6432    6.5030 H   0  0  0  0  0  0  0  0  0  0  0  0
   10.4667   36.0276    8.0671 H   0  0  0  0  0  0  0  0  0  0  0  0
   10.6473   35.5708    6.4342 H   0  0  0  0  0  0  0  0  0  0  0  0
   13.8285   40.8184   12.6632 O   0  0  0  0  0  0  0  0  0  0  0  0
   14.1856   42.0851   12.8782 C   0  0  0  0  0  0  0  0  0  0  0  0
   14.0550   43.0165   11.8491 C   0  0  0  0  0  0  0  0  0  0  0  0
   14.4344   44.3525   12.0763 C   0  0  0  0  0  0  0  0  0  0  0  0
   14.9404   44.7166   13.3385 C   0  0  0  0  0  0  0  0  0  0  0  0
   15.0721   43.7686   14.3732 C   0  0  0  0  0  0  0  0  0  0  0  0
   14.6750   42.4444   14.1462 C   0  0  0  0  0  0  0  0  0  0  0  0
   15.5339   44.1607   15.6445 C   0  0  0  0  0  0  0  0  0  0  0  0
   16.6605   43.7863   16.3016 N   0  0  0  0  0  0  0  0  0  0  0  0
   17.6919   42.8679   15.8833 C   0  0  0  0  0  0  0  0  0  0  0  0
   14.8335   45.0497   16.3836 N   0  0  0  0  0  0  0  0  0  0  0  0
   16.7346   44.4660   17.5466 C   0  0  0  0  0  0  0  0  0  0  0  0
   15.4685   45.3467   17.5993 C   0  0  0  0  0  0  0  0  0  0  0  0
 20 21  1  0  0  0
 20  8  1  0  0  0
 21 22  2  0  0  0
 21 26  1  0  0  0
 22 23  1  0  0  0
 23 24  2  0  0  0
 23 29  1  0  0  0
 24 25  1  0  0  0
 25 26  2  0  0  0
 26 27  1  0  0  0
 29 30  2  0  0  0
 29 31  1  0  0  0
  1  2  1  0  0  0
  1  3  2  0  0  0
  1  8  1  0  0  0
  3  4  1  0  0  0
  3 10  1  0  0  0
  4  5  1  0  0  0
  4  6  2  0  0  0
  6  7  1  0  0  0
  6 35  1  0  0  0
  7  8  2  0  0  0
 10 11  1  0  0  0
 10 15  1  0  0  0
 11 12  1  0  0  0
 12 13  1  0  0  0
 12 16  1  0  0  0
 13 14  1  0  0  0
 14 15  1  0  0  0
 16 17  1  0  0  0
 16 18  2  0  0  0
 35 36  1  0  0  0
 36 37  2  0  0  0
 36 41  1  0  0  0
 37 38  1  0  0  0
 38 39  2  0  0  0
 39 40  1  0  0  0
 40 41  2  0  0  0
 40 42  1  0  0  0
 42 43  1  0  0  0
 42 45  2  0  0  0
 43 44  1  0  0  0
 43 46  1  0  0  0
 45 47  1  0  0  0
 46 47  2  0  0  0
 27 28  1  0  0  0
 30 32  1  0  0  0
 31 33  1  0  0  0
 31 34  1  0  0  0
  7  9  1  0  0  0
 17 19  1  0  0  0
M  CHG 1   7   1
M  END
> <minimizedAffinity>
-9.41413

$$$$
1QB1_974_A_300


 47 51  0  0  0  0  0  0  0  0999 V2000
   12.5266   39.0753   12.3921 C   0  0  0  0  0  0  0  0  0  0  0  0
   13.6340   38.9515   11.7031 F   0  0  0  0  0  0  0  0  0  0  0  0
   12.1504   40.3448   12.9192 C   0  0  0  0  0  0  0  0  0  0  0  0
   10.9614   40.4301   13.6666 C   0  0  0  0  0  0  0  0  0  0  0  0
   10.5808   41.5831   14.1490 F   0  0  0  0  0  0  0  0  0  0  0  0
   10.1956   39.2747   13.8692 C   0  0  0  0  0  0  0  0  0  0  0  0
   10.5729   38.0827   13.3616 N   0  0  0  0  0  0  0  0  0  0  0  0
   11.7107   37.9768   12.6355 C   0  0  0  0  0  0  0  0  0  0  0  0
   10.0176   37.2853   13.5202 H   0  0  0  0  0  0  0  0  0  0  0  0
   12.9169   41.4499   12.7150 N   0  0  0  0  0  0  0  0  0  0  0  0
   12.7489   42.1977   11.4765 C   0  0  0  0  0  0  0  0  0  0  0  0
   12.7431   43.7254   11.8025 C   0  0  0  0  0  0  0  0  0  0  0  0
   14.0937   44.0973   12.5226 C   0  0  0  0  0  0  0  0  0  0  0  0
   14.1951   43.2602   13.8485 C   0  0  0  0  0  0  0  0  0  0  0  0
   14.0588   41.7447   13.5488 C   0  0  0  0  0  0  0  0  0  0  0  0
   12.4796   44.6184   10.6488 C   0  0  0  0  0  0  0  0  0  0  0  0
   13.4690   45.2184   10.1421 O   0  0  0  0  0  0  0  0  0  0  0  0
   11.3553   45.1688   10.4865 O   0  0  0  0  0  0  0  0  0  0  0  0
   14.3298   44.8589   10.2293 H   0  0  0  0  0  0  0  0  0  0  0  0
   11.9411   36.7774   12.2429 O   0  0  0  0  0  0  0  0  0  0  0  0
   12.7031   36.1761   11.2924 C   0  0  0  0  0  0  0  0  0  0  0  0
   12.1977   36.0386    9.9797 C   0  0  0  0  0  0  0  0  0  0  0  0
   12.9506   35.4702    8.9450 C   0  0  0  0  0  0  0  0  0  0  0  0
   14.2326   34.9776    9.2152 C   0  0  0  0  0  0  0  0  0  0  0  0
   14.7768   35.0818   10.4964 C   0  0  0  0  0  0  0  0  0  0  0  0
   14.0328   35.6874   11.5382 C   0  0  0  0  0  0  0  0  0  0  0  0
   14.6228   35.7729   12.7667 O   0  0  0  0  0  0  0  0  0  0  0  0
   14.1623   36.1669   13.4812 H   0  0  0  0  0  0  0  0  0  0  0  0
   12.3007   35.3697    7.7009 C   0  0  0  0  0  0  0  0  0  0  0  0
   12.9028   34.9578    6.5805 N   0  0  0  0  0  0  0  0  0  0  0  0
   11.0352   35.7027    7.4929 N   0  0  0  0  0  0  0  0  0  0  0  0
   13.8474   34.6814    6.6024 H   0  0  0  0  0  0  0  0  0  0  0  0
   10.4811   36.0230    8.2410 H   0  0  0  0  0  0  0  0  0  0  0  0
   10.6491   35.6299    6.5902 H   0  0  0  0  0  0  0  0  0  0  0  0
    9.0490   39.2211   14.5340 O   0  0  0  0  0  0  0  0  0  0  0  0
    7.8723   38.6544   14.2646 C   0  0  0  0  0  0  0  0  0  0  0  0
    6.8131   39.4506   13.8312 C   0  0  0  0  0  0  0  0  0  0  0  0
    5.5711   38.8519   13.5494 C   0  0  0  0  0  0  0  0  0  0  0  0
    5.4267   37.4615   13.7150 C   0  0  0  0  0  0  0  0  0  0  0  0
    6.5015   36.6634   14.1561 C   0  0  0  0  0  0  0  0  0  0  0  0
    7.7405   37.2630   14.4169 C   0  0  0  0  0  0  0  0  0  0  0  0
    6.3534   35.2675   14.2689 C   0  0  0  0  0  0  0  0  0  0  0  0
    6.0652   34.5207   15.3646 N   0  0  0  0  0  0  0  0  0  0  0  0
    5.8455   34.9515   16.7240 C   0  0  0  0  0  0  0  0  0  0  0  0
    6.4772   34.4753   13.1808 N   0  0  0  0  0  0  0  0  0  0  0  0
    5.9770   33.1511   14.9984 C   0  0  0  0  0  0  0  0  0  0  0  0
    6.2578   33.1222   13.4812 C   0  0  0  0  0  0  0  0  0  0  0  0
 20 21  1  0  0  0
 20  8  1  0  0  0
 21 22  2  0  0  0
 21 26  1  0  0  0
 22 23  1  0  0  0
 23 24  2  0  0  0
 23 29  1  0  0  0
 24 25  1  0  0  0
 25 26  2  0  0  0
 26 27  1  0  0  0
 29 30  2  0  0  0
 29 31  1  0  0  0
  1  2  1  0  0  0
  1  3  2  0  0  0
  1  8  1  0  0  0
  3  4  1  0  0  0
  3 10  1  0  0  0
  4  5  1  0  0  0
  4  6  2  0  0  0
  6  7  1  0  0  0
  6 35  1  0  0  0
  7  8  2  0  0  0
 10 11  1  0  0  0
 10 15  1  0  0  0
 11 12  1  0  0  0
 12 13  1  0  0  0
 12 16  1  0  0  0
 13 14  1  0  0  0
 14 15  1  0  0  0
 16 17  1  0  0  0
 16 18  2  0  0  0
 35 36  1  0  0  0
 36 37  2  0  0  0
 36 41  1  0  0  0
 37 38  1  0  0  0
 38 39  2  0  0  0
 39 40  1  0  0  0
 40 41  2  0  0  0
 40 42  1  0  0  0
 42 43  1  0  0  0
 42 45  2  0  0  0
 43 44  1  0  0  0
 43 46  1  0  0  0
 45 47  1  0  0  0
 46 47  2  0  0  0
 27 28  1  0  0  0
 30 32  1  0  0  0
 31 33  1  0  0  0
 31 34  1  0  0  0
  7  9  1  0  0  0
 17 19  1  0  0  0
M  CHG 1   7   1
M  END
> <minimizedAffinity>
-9.40878

$$$$
1QB1_974_A_300


 47 51  0  0  0  0  0  0  0  0999 V2000
   15.2823   36.2228   14.8963 C   0  0  0  0  0  0  0  0  0  0  0  0
   15.2940   34.9340   14.6613 F   0  0  0  0  0  0  0  0  0  0  0  0
   15.4062   36.7074   16.2307 C   0  0  0  0  0  0  0  0  0  0  0  0
   15.3729   38.0983   16.4401 C   0  0  0  0  0  0  0  0  0  0  0  0
   15.5008   38.5746   17.6501 F   0  0  0  0  0  0  0  0  0  0  0  0
   15.2170   38.9527   15.3410 C   0  0  0  0  0  0  0  0  0  0  0  0
   15.0998   38.4705   14.0861 N   0  0  0  0  0  0  0  0  0  0  0  0
   15.1334   37.1361   13.8595 C   0  0  0  0  0  0  0  0  0  0  0  0
   14.9893   39.0926   13.3311 H   0  0  0  0  0  0  0  0  0  0  0  0
   15.5479   35.8554   17.2817 N   0  0  0  0  0  0  0  0  0  0  0  0
   14.4357   34.9807   17.6270 C   0  0  0  0  0  0  0  0  0  0  0  0
   14.9892   33.5524   17.9333 C   0  0  0  0  0  0  0  0  0  0  0  0
   16.0318   33.6522   19.1097 C   0  0  0  0  0  0  0  0  0  0  0  0
   17.1999   34.6009   18.6574 C   0  0  0  0  0  0  0  0  0  0  0  0
   16.6432   35.9791   18.2150 C   0  0  0  0  0  0  0  0  0  0  0  0
   13.9611   32.5196   18.2057 C   0  0  0  0  0  0  0  0  0  0  0  0
   14.1083   31.3944   17.6509 O   0  0  0  0  0  0  0  0  0  0  0  0
   12.7785   32.8344   18.5152 O   0  0  0  0  0  0  0  0  0  0  0  0
   14.9628   31.1049   17.3979 H   0  0  0  0  0  0  0  0  0  0  0  0
   14.9879   36.8378   12.6202 O   0  0  0  0  0  0  0  0  0  0  0  0
   13.9512   36.6230   11.7689 C   0  0  0  0  0  0  0  0  0  0  0  0
   14.2116   36.1708   10.4554 C   0  0  0  0  0  0  0  0  0  0  0  0
   13.1857   35.8873    9.5458 C   0  0  0  0  0  0  0  0  0  0  0  0
   11.8536   36.0955    9.9216 C   0  0  0  0  0  0  0  0  0  0  0  0
   11.5413   36.5480   11.2047 C   0  0  0  0  0  0  0  0  0  0  0  0
   12.5737   36.8029   12.1400 C   0  0  0  0  0  0  0  0  0  0  0  0
   12.2061   37.2306   13.3836 O   0  0  0  0  0  0  0  0  0  0  0  0
   12.8605   37.4098   14.0298 H   0  0  0  0  0  0  0  0  0  0  0  0
   13.6010   35.4790    8.2647 C   0  0  0  0  0  0  0  0  0  0  0  0
   12.7723   34.9879    7.3376 N   0  0  0  0  0  0  0  0  0  0  0  0
   14.8582   35.5025    7.8468 N   0  0  0  0  0  0  0  0  0  0  0  0
   11.8086   34.9177    7.5263 H   0  0  0  0  0  0  0  0  0  0  0  0
   15.5673   35.8431    8.4387 H   0  0  0  0  0  0  0  0  0  0  0  0
   15.0831   35.1795    6.9444 H   0  0  0  0  0  0  0  0  0  0  0  0
   15.1902   40.2778   15.3970 O   0  0  0  0  0  0  0  0  0  0  0  0
   14.3258   41.1855   14.9419 C   0  0  0  0  0  0  0  0  0  0  0  0
   13.0231   41.1986   15.4384 C   0  0  0  0  0  0  0  0  0  0  0  0
   12.1111   42.1555   14.9557 C   0  0  0  0  0  0  0  0  0  0  0  0
   12.5357   43.0763   13.9792 C   0  0  0  0  0  0  0  0  0  0  0  0
   13.8537   43.0552   13.4801 C   0  0  0  0  0  0  0  0  0  0  0  0
   14.7619   42.1121   13.9786 C   0  0  0  0  0  0  0  0  0  0  0  0
   14.2752   44.0150   12.5398 C   0  0  0  0  0  0  0  0  0  0  0  0
   14.7760   45.2588   12.7483 N   0  0  0  0  0  0  0  0  0  0  0  0
   15.0009   45.9488   13.9954 C   0  0  0  0  0  0  0  0  0  0  0  0
   14.2322   43.7427   11.2166 N   0  0  0  0  0  0  0  0  0  0  0  0
   15.1010   45.8572   11.5018 C   0  0  0  0  0  0  0  0  0  0  0  0
   14.7281   44.8012   10.4401 C   0  0  0  0  0  0  0  0  0  0  0  0
 20 21  1  0  0  0
 20  8  1  0  0  0
 21 22  2  0  0  0
 21 26  1  0  0  0
 22 23  1  0  0  0
 23 24  2  0  0  0
 23 29  1  0  0  0
 24 25  1  0  0  0
 25 26  2  0  0  0
 26 27  1  0  0  0
 29 30  2  0  0  0
 29 31  1  0  0  0
  1  2  1  0  0  0
  1  3  2  0  0  0
  1  8  1  0  0  0
  3  4  1  0  0  0
  3 10  1  0  0  0
  4  5  1  0  0  0
  4  6  2  0  0  0
  6  7  1  0  0  0
  6 35  1  0  0  0
  7  8  2  0  0  0
 10 11  1  0  0  0
 10 15  1  0  0  0
 11 12  1  0  0  0
 12 13  1  0  0  0
 12 16  1  0  0  0
 13 14  1  0  0  0
 14 15  1  0  0  0
 16 17  1  0  0  0
 16 18  2  0  0  0
 35 36  1  0  0  0
 36 37  2  0  0  0
 36 41  1  0  0  0
 37 38  1  0  0  0
 38 39  2  0  0  0
 39 40  1  0  0  0
 40 41  2  0  0  0
 40 42  1  0  0  0
 42 43  1  0  0  0
 42 45  2  0  0  0
 43 44  1  0  0  0
 43 46  1  0  0  0
 45 47  1  0  0  0
 46 47  2  0  0  0
 27 28  1  0  0  0
 30 32  1  0  0  0
 31 33  1  0  0  0
 31 34  1  0  0  0
  7  9  1  0  0  0
 17 19  1  0  0  0
M  CHG 1   7   1
M  END
> <minimizedAffinity>
-9.26466

$$$$
1QB1_974_A_300


 47 51  0  0  0  0  0  0  0  0999 V2000
   12.0594   38.5616   14.1637 C   0  0  0  0  0  0  0  0  0  0  0  0
   11.6807   37.5131   14.8519 F   0  0  0  0  0  0  0  0  0  0  0  0
   12.2830   39.8059   14.8214 C   0  0  0  0  0  0  0  0  0  0  0  0
   12.6736   40.9106   14.0424 C   0  0  0  0  0  0  0  0  0  0  0  0
   12.9025   42.0609   14.6182 F   0  0  0  0  0  0  0  0  0  0  0  0
   12.8248   40.7533   12.6586 C   0  0  0  0  0  0  0  0  0  0  0  0
   12.6057   39.5653   12.0575 N   0  0  0  0  0  0  0  0  0  0  0  0
   12.2334   38.4871   12.7870 C   0  0  0  0  0  0  0  0  0  0  0  0
   12.7172   39.4819   11.0829 H   0  0  0  0  0  0  0  0  0  0  0  0
   12.1206   39.9338   16.1660 N   0  0  0  0  0  0  0  0  0  0  0  0
   13.2161   39.5426   17.0425 C   0  0  0  0  0  0  0  0  0  0  0  0
   13.3793   40.6190   18.1627 C   0  0  0  0  0  0  0  0  0  0  0  0
   12.0225   40.7403   18.9535 C   0  0  0  0  0  0  0  0  0  0  0  0
   10.8982   41.1735   17.9449 C   0  0  0  0  0  0  0  0  0  0  0  0
   10.8247   40.1849   16.7522 C   0  0  0  0  0  0  0  0  0  0  0  0
   14.5251   40.4100   19.0800 C   0  0  0  0  0  0  0  0  0  0  0  0
   15.2212   39.3697   18.9107 O   0  0  0  0  0  0  0  0  0  0  0  0
   14.5336   40.8990   20.2437 O   0  0  0  0  0  0  0  0  0  0  0  0
   15.2549   38.9604   18.0684 H   0  0  0  0  0  0  0  0  0  0  0  0
   12.0437   37.4413   12.0685 O   0  0  0  0  0  0  0  0  0  0  0  0
   12.7710   36.6923   11.1992 C   0  0  0  0  0  0  0  0  0  0  0  0
   12.2368   36.3888    9.9264 C   0  0  0  0  0  0  0  0  0  0  0  0
   12.9542   35.6609    8.9693 C   0  0  0  0  0  0  0  0  0  0  0  0
   14.2276   35.1736    9.2855 C   0  0  0  0  0  0  0  0  0  0  0  0
   14.7992   35.4387   10.5311 C   0  0  0  0  0  0  0  0  0  0  0  0
   14.0918   36.2041   11.4900 C   0  0  0  0  0  0  0  0  0  0  0  0
   14.7076   36.4420   12.6853 O   0  0  0  0  0  0  0  0  0  0  0  0
   14.2715   36.9445   13.3451 H   0  0  0  0  0  0  0  0  0  0  0  0
   12.2779   35.4077    7.7615 C   0  0  0  0  0  0  0  0  0  0  0  0
   10.9604   35.5680    7.6012 N   0  0  0  0  0  0  0  0  0  0  0  0
   12.8616   34.9513    6.6630 N   0  0  0  0  0  0  0  0  0  0  0  0
   10.4109   35.9024    8.3464 H   0  0  0  0  0  0  0  0  0  0  0  0
   13.8328   34.7906    6.6520 H   0  0  0  0  0  0  0  0  0  0  0  0
   12.3240   34.7730    5.8577 H   0  0  0  0  0  0  0  0  0  0  0  0
   13.2063   41.7039   11.8157 O   0  0  0  0  0  0  0  0  0  0  0  0
   12.5840   42.7709   11.3132 C   0  0  0  0  0  0  0  0  0  0  0  0
   11.1994   42.7424   11.1526 C   0  0  0  0  0  0  0  0  0  0  0  0
   10.5440   43.8682   10.6200 C   0  0  0  0  0  0  0  0  0  0  0  0
   11.3036   44.9968   10.2586 C   0  0  0  0  0  0  0  0  0  0  0  0
   12.7035   45.0171   10.4214 C   0  0  0  0  0  0  0  0  0  0  0  0
   13.3475   43.9003   10.9697 C   0  0  0  0  0  0  0  0  0  0  0  0
   13.4417   46.1728   10.1006 C   0  0  0  0  0  0  0  0  0  0  0  0
   13.5987   47.3164   10.8139 N   0  0  0  0  0  0  0  0  0  0  0  0
   13.0379   47.6707   12.0953 C   0  0  0  0  0  0  0  0  0  0  0  0
   14.1447   46.2386    8.9481 N   0  0  0  0  0  0  0  0  0  0  0  0
   14.4633   48.1999   10.1142 C   0  0  0  0  0  0  0  0  0  0  0  0
   14.8457   47.4478    8.8220 C   0  0  0  0  0  0  0  0  0  0  0  0
 20 21  1  0  0  0
 20  8  1  0  0  0
 21 22  2  0  0  0
 21 26  1  0  0  0
 22 23  1  0  0  0
 23 24  2  0  0  0
 23 29  1  0  0  0
 24 25  1  0  0  0
 25 26  2  0  0  0
 26 27  1  0  0  0
 29 30  2  0  0  0
 29 31  1  0  0  0
  1  2  1  0  0  0
  1  3  2  0  0  0
  1  8  1  0  0  0
  3  4  1  0  0  0
  3 10  1  0  0  0
  4  5  1  0  0  0
  4  6  2  0  0  0
  6  7  1  0  0  0
  6 35  1  0  0  0
  7  8  2  0  0  0
 10 11  1  0  0  0
 10 15  1  0  0  0
 11 12  1  0  0  0
 12 13  1  0  0  0
 12 16  1  0  0  0
 13 14  1  0  0  0
 14 15  1  0  0  0
 16 17  1  0  0  0
 16 18  2  0  0  0
 35 36  1  0  0  0
 36 37  2  0  0  0
 36 41  1  0  0  0
 37 38  1  0  0  0
 38 39  2  0  0  0
 39 40  1  0  0  0
 40 41  2  0  0  0
 40 42  1  0  0  0
 42 43  1  0  0  0
 42 45  2  0  0  0
 43 44  1  0  0  0
 43 46  1  0  0  0
 45 47  1  0  0  0
 46 47  2  0  0  0
 27 28  1  0  0  0
 30 32  1  0  0  0
 31 33  1  0  0  0
 31 34  1  0  0  0
  7  9  1  0  0  0
 17 19  1  0  0  0
M  CHG 1   7   1
M  END
> <minimizedAffinity>
-9.18358

$$$$
1QB1_974_A_300


 47 51  0  0  0  0  0  0  0  0999 V2000
   10.4381   38.1072   13.6705 C   0  0  0  0  0  0  0  0  0  0  0  0
    9.7204   37.1461   14.1971 F   0  0  0  0  0  0  0  0  0  0  0  0
   10.1824   39.4647   14.0207 C   0  0  0  0  0  0  0  0  0  0  0  0
   10.9663   40.4668   13.4199 C   0  0  0  0  0  0  0  0  0  0  0  0
   10.7674   41.7196   13.7329 F   0  0  0  0  0  0  0  0  0  0  0  0
   11.9604   40.1009   12.5032 C   0  0  0  0  0  0  0  0  0  0  0  0
   12.1833   38.8085   12.1857 N   0  0  0  0  0  0  0  0  0  0  0  0
   11.4447   37.8265   12.7542 C   0  0  0  0  0  0  0  0  0  0  0  0
   12.8870   38.5783   11.5369 H   0  0  0  0  0  0  0  0  0  0  0  0
    9.2047   39.7936   14.9076 N   0  0  0  0  0  0  0  0  0  0  0  0
    9.5086   39.7480   16.3312 C   0  0  0  0  0  0  0  0  0  0  0  0
    8.9049   41.0134   17.0201 C   0  0  0  0  0  0  0  0  0  0  0  0
    7.3513   41.0408   16.7621 C   0  0  0  0  0  0  0  0  0  0  0  0
    7.1076   41.0996   15.2109 C   0  0  0  0  0  0  0  0  0  0  0  0
    7.8247   39.9220   14.5009 C   0  0  0  0  0  0  0  0  0  0  0  0
    9.2181   41.1601   18.4617 C   0  0  0  0  0  0  0  0  0  0  0  0
    9.0820   40.1382   19.1917 O   0  0  0  0  0  0  0  0  0  0  0  0
    9.1211   42.2750   19.0456 O   0  0  0  0  0  0  0  0  0  0  0  0
    9.1437   39.2822   18.8155 H   0  0  0  0  0  0  0  0  0  0  0  0
   11.7630   36.6571   12.3336 O   0  0  0  0  0  0  0  0  0  0  0  0
   12.5755   36.1363   11.3774 C   0  0  0  0  0  0  0  0  0  0  0  0
   12.0940   35.9961   10.0560 C   0  0  0  0  0  0  0  0  0  0  0  0
   12.8958   35.5096    9.0164 C   0  0  0  0  0  0  0  0  0  0  0  0
   14.2073   35.1036    9.2890 C   0  0  0  0  0  0  0  0  0  0  0  0
   14.7303   35.2141   10.5785 C   0  0  0  0  0  0  0  0  0  0  0  0
   13.9345   35.7382   11.6263 C   0  0  0  0  0  0  0  0  0  0  0  0
   14.5050   35.8347   12.8632 O   0  0  0  0  0  0  0  0  0  0  0  0
   14.0104   36.1765   13.5819 H   0  0  0  0  0  0  0  0  0  0  0  0
   12.2669   35.3942    7.7628 C   0  0  0  0  0  0  0  0  0  0  0  0
   10.9612   35.6030    7.5658 N   0  0  0  0  0  0  0  0  0  0  0  0
   12.8874   35.0338    6.6489 N   0  0  0  0  0  0  0  0  0  0  0  0
   10.3874   35.8761    8.3177 H   0  0  0  0  0  0  0  0  0  0  0  0
   13.8546   34.8503    6.6615 H   0  0  0  0  0  0  0  0  0  0  0  0
   12.3813   34.9496    5.8087 H   0  0  0  0  0  0  0  0  0  0  0  0
   12.7792   40.9407   11.8837 O   0  0  0  0  0  0  0  0  0  0  0  0
   13.4574   42.0126   12.2953 C   0  0  0  0  0  0  0  0  0  0  0  0
   14.1169   41.9747   13.5230 C   0  0  0  0  0  0  0  0  0  0  0  0
   14.8303   43.1074   13.9575 C   0  0  0  0  0  0  0  0  0  0  0  0
   14.8585   44.2545   13.1421 C   0  0  0  0  0  0  0  0  0  0  0  0
   14.1869   44.2863   11.9033 C   0  0  0  0  0  0  0  0  0  0  0  0
   13.4943   43.1489   11.4682 C   0  0  0  0  0  0  0  0  0  0  0  0
   14.2667   45.4248   11.0783 C   0  0  0  0  0  0  0  0  0  0  0  0
   13.8606   46.6954   11.3273 N   0  0  0  0  0  0  0  0  0  0  0  0
   13.2187   47.2284   12.5046 C   0  0  0  0  0  0  0  0  0  0  0  0
   14.8311   45.3446    9.8529 N   0  0  0  0  0  0  0  0  0  0  0  0
   14.1769   47.5233   10.2173 C   0  0  0  0  0  0  0  0  0  0  0  0
   14.8555   46.5851    9.1971 C   0  0  0  0  0  0  0  0  0  0  0  0
 20 21  1  0  0  0
 20  8  1  0  0  0
 21 22  2  0  0  0
 21 26  1  0  0  0
 22 23  1  0  0  0
 23 24  2  0  0  0
 23 29  1  0  0  0
 24 25  1  0  0  0
 25 26  2  0  0  0
 26 27  1  0  0  0
 29 30  2  0  0  0
 29 31  1  0  0  0
  1  2  1  0  0  0
  1  3  2  0  0  0
  1  8  1  0  0  0
  3  4  1  0  0  0
  3 10  1  0  0  0
  4  5  1  0  0  0
  4  6  2  0  0  0
  6  7  1  0  0  0
  6 35  1  0  0  0
  7  8  2  0  0  0
 10 11  1  0  0  0
 10 15  1  0  0  0
 11 12  1  0  0  0
 12 13  1  0  0  0
 12 16  1  0  0  0
 13 14  1  0  0  0
 14 15  1  0  0  0
 16 17  1  0  0  0
 16 18  2  0  0  0
 35 36  1  0  0  0
 36 37  2  0  0  0
 36 41  1  0  0  0
 37 38  1  0  0  0
 38 39  2  0  0  0
 39 40  1  0  0  0
 40 41  2  0  0  0
 40 42  1  0  0  0
 42 43  1  0  0  0
 42 45  2  0  0  0
 43 44  1  0  0  0
 43 46  1  0  0  0
 45 47  1  0  0  0
 46 47  2  0  0  0
 27 28  1  0  0  0
 30 32  1  0  0  0
 31 33  1  0  0  0
 31 34  1  0  0  0
  7  9  1  0  0  0
 17 19  1  0  0  0
M  CHG 1   7   1
M  END
> <minimizedAffinity>
-9.17701

$$$$
1QB1_974_A_300


 47 51  0  0  0  0  0  0  0  0999 V2000
   15.4041   39.1130   13.6271 C   0  0  0  0  0  0  0  0  0  0  0  0
   15.4012   39.7171   12.4646 F   0  0  0  0  0  0  0  0  0  0  0  0
   15.6222   39.8604   14.8207 C   0  0  0  0  0  0  0  0  0  0  0  0
   15.6331   39.1699   16.0466 C   0  0  0  0  0  0  0  0  0  0  0  0
   15.8139   39.8292   17.1600 F   0  0  0  0  0  0  0  0  0  0  0  0
   15.4346   37.7832   16.0531 C   0  0  0  0  0  0  0  0  0  0  0  0
   15.2316   37.0962   14.9095 N   0  0  0  0  0  0  0  0  0  0  0  0
   15.2126   37.7396   13.7184 C   0  0  0  0  0  0  0  0  0  0  0  0
   15.0966   36.1215   14.9415 H   0  0  0  0  0  0  0  0  0  0  0  0
   15.8211   41.2057   14.7858 N   0  0  0  0  0  0  0  0  0  0  0  0
   14.7608   42.0553   14.2611 C   0  0  0  0  0  0  0  0  0  0  0  0
   14.6063   43.3044   15.1864 C   0  0  0  0  0  0  0  0  0  0  0  0
   15.9826   44.0682   15.2442 C   0  0  0  0  0  0  0  0  0  0  0  0
   17.0669   43.0920   15.8276 C   0  0  0  0  0  0  0  0  0  0  0  0
   17.1276   41.7843   14.9962 C   0  0  0  0  0  0  0  0  0  0  0  0
   13.4929   44.2185   14.8361 C   0  0  0  0  0  0  0  0  0  0  0  0
   13.5229   45.3829   15.3247 O   0  0  0  0  0  0  0  0  0  0  0  0
   12.3515   43.7764   14.5272 O   0  0  0  0  0  0  0  0  0  0  0  0
   14.3412   45.7656   15.5735 H   0  0  0  0  0  0  0  0  0  0  0  0
   15.0307   36.9462   12.7268 O   0  0  0  0  0  0  0  0  0  0  0  0
   14.0169   36.6431   11.8746 C   0  0  0  0  0  0  0  0  0  0  0  0
   14.3165   36.2046   10.5649 C   0  0  0  0  0  0  0  0  0  0  0  0
   13.3192   35.8335    9.6549 C   0  0  0  0  0  0  0  0  0  0  0  0
   11.9737   35.9364   10.0263 C   0  0  0  0  0  0  0  0  0  0  0  0
   11.6224   36.3707   11.3057 C   0  0  0  0  0  0  0  0  0  0  0  0
   12.6285   36.7140   12.2415 C   0  0  0  0  0  0  0  0  0  0  0  0
   12.2242   37.1190   13.4813 O   0  0  0  0  0  0  0  0  0  0  0  0
   12.8603   37.3544   14.1278 H   0  0  0  0  0  0  0  0  0  0  0  0
   13.7695   35.4515    8.3775 C   0  0  0  0  0  0  0  0  0  0  0  0
   15.0176   35.6490    7.9410 N   0  0  0  0  0  0  0  0  0  0  0  0
   13.0028   34.8874    7.4558 N   0  0  0  0  0  0  0  0  0  0  0  0
   15.6866   36.0624    8.5333 H   0  0  0  0  0  0  0  0  0  0  0  0
   12.0591   34.6891    7.6544 H   0  0  0  0  0  0  0  0  0  0  0  0
   13.3768   34.6665    6.5723 H   0  0  0  0  0  0  0  0  0  0  0  0
   15.4010   37.0180   17.1362 O   0  0  0  0  0  0  0  0  0  0  0  0
   16.3075   36.2309   17.7165 C   0  0  0  0  0  0  0  0  0  0  0  0
   17.6251   36.6725   17.8290 C   0  0  0  0  0  0  0  0  0  0  0  0
   18.5814   35.8400   18.4396 C   0  0  0  0  0  0  0  0  0  0  0  0
   18.1849   34.5778   18.9203 C   0  0  0  0  0  0  0  0  0  0  0  0
   16.8515   34.1370   18.8006 C   0  0  0  0  0  0  0  0  0  0  0  0
   15.9005   34.9784   18.2087 C   0  0  0  0  0  0  0  0  0  0  0  0
   16.4619   32.8920   19.3312 C   0  0  0  0  0  0  0  0  0  0  0  0
   16.4669   32.4691   20.6205 N   0  0  0  0  0  0  0  0  0  0  0  0
   16.8888   33.1760   21.8056 C   0  0  0  0  0  0  0  0  0  0  0  0
   15.9814   31.9223   18.5215 N   0  0  0  0  0  0  0  0  0  0  0  0
   15.9515   31.1474   20.6908 C   0  0  0  0  0  0  0  0  0  0  0  0
   15.6098   30.7716   19.2335 C   0  0  0  0  0  0  0  0  0  0  0  0
 20 21  1  0  0  0
 20  8  1  0  0  0
 21 22  2  0  0  0
 21 26  1  0  0  0
 22 23  1  0  0  0
 23 24  2  0  0  0
 23 29  1  0  0  0
 24 25  1  0  0  0
 25 26  2  0  0  0
 26 27  1  0  0  0
 29 30  2  0  0  0
 29 31  1  0  0  0
  1  2  1  0  0  0
  1  3  2  0  0  0
  1  8  1  0  0  0
  3  4  1  0  0  0
  3 10  1  0  0  0
  4  5  1  0  0  0
  4  6  2  0  0  0
  6  7  1  0  0  0
  6 35  1  0  0  0
  7  8  2  0  0  0
 10 11  1  0  0  0
 10 15  1  0  0  0
 11 12  1  0  0  0
 12 13  1  0  0  0
 12 16  1  0  0  0
 13 14  1  0  0  0
 14 15  1  0  0  0
 16 17  1  0  0  0
 16 18  2  0  0  0
 35 36  1  0  0  0
 36 37  2  0  0  0
 36 41  1  0  0  0
 37 38  1  0  0  0
 38 39  2  0  0  0
 39 40  1  0  0  0
 40 41  2  0  0  0
 40 42  1  0  0  0
 42 43  1  0  0  0
 42 45  2  0  0  0
 43 44  1  0  0  0
 43 46  1  0  0  0
 45 47  1  0  0  0
 46 47  2  0  0  0
 27 28  1  0  0  0
 30 32  1  0  0  0
 31 33  1  0  0  0
 31 34  1  0  0  0
  7  9  1  0  0  0
 17 19  1  0  0  0
M  CHG 1   7   1
M  END
> <minimizedAffinity>
-9.17063

$$$$
