6GUH_FB8_A_301


 27 29  0  0  0  0  0  0  0  0999 V2000
   -0.7338   -5.1688  -27.5966 C   0  0  0  0  0  0  0  0  0  0  0  0
   -0.7732   -3.7905  -27.8106 C   0  0  0  0  0  0  0  0  0  0  0  0
    0.2767   -3.2653  -28.5383 C   0  0  0  0  0  0  0  0  0  0  0  0
    1.1649   -5.3360  -28.8965 C   0  0  0  0  0  0  0  0  0  0  0  0
    1.2027   -4.0130  -29.1438 N   0  0  0  0  0  0  0  0  0  0  0  0
    0.2322   -5.9446  -28.1272 N   0  0  0  0  0  0  0  0  0  0  0  0
   -1.7465   -5.7925  -26.7620 C   0  0  0  0  0  0  0  0  0  0  0  0
   -3.7394   -6.2764  -25.8202 N   0  0  0  0  0  0  0  0  0  0  0  0
   -3.0628   -5.4444  -26.6748 C   0  0  0  0  0  0  0  0  0  0  0  0
   -3.1366   -8.2027  -24.3620 C   0  0  0  0  0  0  0  0  0  0  0  0
   -2.8377   -7.1188  -25.3462 C   0  0  0  0  0  0  0  0  0  0  0  0
   -1.5930   -6.9280  -25.9248 N   0  0  0  0  0  0  0  0  0  0  0  0
   -0.3485   -7.5852  -25.6136 C   0  0  0  0  0  0  0  0  0  0  0  0
    0.0770   -7.1667  -24.1850 C   0  0  0  0  0  0  0  0  0  0  0  0
   -0.4836   -9.0488  -25.8876 C   0  0  0  0  0  0  0  0  0  0  0  0
    2.1904   -5.9463  -29.5250 N   0  0  0  0  0  0  0  0  0  0  0  0
    2.4595   -5.5343  -30.3777 H   0  0  0  0  0  0  0  0  0  0  0  0
    4.3073   -9.0001  -29.6232 C   0  0  0  0  0  0  0  0  0  0  0  0
    3.5403   -8.6032  -27.3960 C   0  0  0  0  0  0  0  0  0  0  0  0
    2.9341   -7.0777  -29.1525 C   0  0  0  0  0  0  0  0  0  0  0  0
    2.8417   -7.5030  -27.8365 C   0  0  0  0  0  0  0  0  0  0  0  0
    4.2332   -9.3645  -28.3012 C   0  0  0  0  0  0  0  0  0  0  0  0
    3.6698   -7.8579  -30.0535 C   0  0  0  0  0  0  0  0  0  0  0  0
    5.0781  -11.9048  -29.1178 C   0  0  0  0  0  0  0  0  0  0  0  0
    5.0311  -10.8321  -27.7478 S   0  0  0  0  0  0  0  0  0  0  0  0
    6.4135  -10.4710  -27.5149 O   0  0  0  0  0  0  0  0  0  0  0  0
    4.2115  -11.3503  -26.6903 O   0  0  0  0  0  0  0  0  0  0  0  0
 26 25  2  0  0  0
 24 25  1  0  0  0
 25 27  2  0  0  0
 25 22  1  0  0  0
 18 22  2  0  0  0
 18 23  1  0  0  0
 22 19  1  0  0  0
 23 20  2  0  0  0
 19 21  2  0  0  0
 20 21  1  0  0  0
 20 16  1  0  0  0
 16  4  1  0  0  0
 15 13  1  0  0  0
  4  5  2  0  0  0
  4  6  1  0  0  0
  5  3  1  0  0  0
  6  1  2  0  0  0
 13 14  1  0  0  0
 13 12  1  0  0  0
  3  2  2  0  0  0
  1  2  1  0  0  0
  1  7  1  0  0  0
 12  7  1  0  0  0
 12 11  1  0  0  0
  7  9  2  0  0  0
 11 10  1  0  0  0
 11  8  2  0  0  0
  9  8  1  0  0  0
 16 17  1  0  0  0
M  END
> <minimizedAffinity>
-9.94757

$$$$
6GUH_FB8_A_301


 27 29  0  0  0  0  0  0  0  0999 V2000
   -0.0198   -7.8511  -26.9371 C   0  0  0  0  0  0  0  0  0  0  0  0
   -0.6725   -6.7383  -27.4688 C   0  0  0  0  0  0  0  0  0  0  0  0
    0.1015   -5.9065  -28.2542 C   0  0  0  0  0  0  0  0  0  0  0  0
    1.9047   -7.2933  -28.0805 C   0  0  0  0  0  0  0  0  0  0  0  0
    1.3504   -6.1954  -28.6285 N   0  0  0  0  0  0  0  0  0  0  0  0
    1.2657   -8.1305  -27.2303 N   0  0  0  0  0  0  0  0  0  0  0  0
   -0.7311   -8.7287  -26.0232 C   0  0  0  0  0  0  0  0  0  0  0  0
   -1.7331  -10.5576  -25.1604 N   0  0  0  0  0  0  0  0  0  0  0  0
   -1.1234  -10.0136  -26.2616 C   0  0  0  0  0  0  0  0  0  0  0  0
   -2.3437   -9.7529  -22.8844 C   0  0  0  0  0  0  0  0  0  0  0  0
   -1.7547   -9.6002  -24.2492 C   0  0  0  0  0  0  0  0  0  0  0  0
   -1.0998   -8.4574  -24.6800 N   0  0  0  0  0  0  0  0  0  0  0  0
   -0.9830   -7.1848  -24.0133 C   0  0  0  0  0  0  0  0  0  0  0  0
    0.4961   -6.7329  -24.0865 C   0  0  0  0  0  0  0  0  0  0  0  0
   -2.0137   -6.2483  -24.5574 C   0  0  0  0  0  0  0  0  0  0  0  0
    3.1785   -7.4204  -28.5051 N   0  0  0  0  0  0  0  0  0  0  0  0
    3.8108   -6.7695  -28.1232 H   0  0  0  0  0  0  0  0  0  0  0  0
    4.7798  -10.4358  -29.9751 C   0  0  0  0  0  0  0  0  0  0  0  0
    4.5523   -8.7339  -31.6359 C   0  0  0  0  0  0  0  0  0  0  0  0
    3.7435   -8.3367  -29.4070 C   0  0  0  0  0  0  0  0  0  0  0  0
    4.0001   -7.8952  -30.6955 C   0  0  0  0  0  0  0  0  0  0  0  0
    4.9742   -9.9818  -31.2565 C   0  0  0  0  0  0  0  0  0  0  0  0
    4.1600   -9.6254  -29.0501 C   0  0  0  0  0  0  0  0  0  0  0  0
    6.0807   -9.9994  -33.8273 C   0  0  0  0  0  0  0  0  0  0  0  0
    5.7808  -11.0055  -32.4389 S   0  0  0  0  0  0  0  0  0  0  0  0
    7.0933  -11.2845  -31.8956 O   0  0  0  0  0  0  0  0  0  0  0  0
    4.8599  -12.0651  -32.7348 O   0  0  0  0  0  0  0  0  0  0  0  0
 26 25  2  0  0  0
 24 25  1  0  0  0
 25 27  2  0  0  0
 25 22  1  0  0  0
 18 22  2  0  0  0
 18 23  1  0  0  0
 22 19  1  0  0  0
 23 20  2  0  0  0
 19 21  2  0  0  0
 20 21  1  0  0  0
 20 16  1  0  0  0
 16  4  1  0  0  0
 15 13  1  0  0  0
  4  5  2  0  0  0
  4  6  1  0  0  0
  5  3  1  0  0  0
  6  1  2  0  0  0
 13 14  1  0  0  0
 13 12  1  0  0  0
  3  2  2  0  0  0
  1  2  1  0  0  0
  1  7  1  0  0  0
 12  7  1  0  0  0
 12 11  1  0  0  0
  7  9  2  0  0  0
 11 10  1  0  0  0
 11  8  2  0  0  0
  9  8  1  0  0  0
 16 17  1  0  0  0
M  END
> <minimizedAffinity>
-8.58843

$$$$
6GUH_FB8_A_301


 27 29  0  0  0  0  0  0  0  0999 V2000
    1.0322  -11.9848  -24.4523 C   0  0  0  0  0  0  0  0  0  0  0  0
    2.0950  -12.7783  -24.8859 C   0  0  0  0  0  0  0  0  0  0  0  0
    2.9881  -12.1689  -25.7455 C   0  0  0  0  0  0  0  0  0  0  0  0
    1.9051  -10.1680  -25.5749 C   0  0  0  0  0  0  0  0  0  0  0  0
    2.9568  -10.8672  -26.0418 N   0  0  0  0  0  0  0  0  0  0  0  0
    0.9259  -10.6862  -24.7972 N   0  0  0  0  0  0  0  0  0  0  0  0
   -0.0062  -12.5710  -23.6221 C   0  0  0  0  0  0  0  0  0  0  0  0
   -1.3671  -14.0896  -22.6552 N   0  0  0  0  0  0  0  0  0  0  0  0
   -0.3840  -13.8816  -23.5883 C   0  0  0  0  0  0  0  0  0  0  0  0
   -2.6538  -12.6578  -21.0757 C   0  0  0  0  0  0  0  0  0  0  0  0
   -1.6284  -12.9029  -22.1346 C   0  0  0  0  0  0  0  0  0  0  0  0
   -0.7877  -11.9202  -22.6325 N   0  0  0  0  0  0  0  0  0  0  0  0
   -0.8142  -10.5021  -22.3758 C   0  0  0  0  0  0  0  0  0  0  0  0
   -1.9965   -9.8883  -23.1649 C   0  0  0  0  0  0  0  0  0  0  0  0
   -0.7810  -10.2692  -20.8993 C   0  0  0  0  0  0  0  0  0  0  0  0
    1.9810   -8.8912  -26.0026 N   0  0  0  0  0  0  0  0  0  0  0  0
    2.8648   -8.6176  -26.3392 H   0  0  0  0  0  0  0  0  0  0  0  0
   -0.6182   -6.4197  -25.0262 C   0  0  0  0  0  0  0  0  0  0  0  0
   -0.4511   -6.5398  -27.4061 C   0  0  0  0  0  0  0  0  0  0  0  0
    0.9959   -7.8912  -26.0424 C   0  0  0  0  0  0  0  0  0  0  0  0
    0.5142   -7.5126  -27.2856 C   0  0  0  0  0  0  0  0  0  0  0  0
   -1.0368   -6.0323  -26.2754 C   0  0  0  0  0  0  0  0  0  0  0  0
    0.3995   -7.3391  -24.9016 C   0  0  0  0  0  0  0  0  0  0  0  0
   -3.2626   -4.9561  -24.9634 C   0  0  0  0  0  0  0  0  0  0  0  0
   -2.3483   -4.8709  -26.4420 S   0  0  0  0  0  0  0  0  0  0  0  0
   -1.7284   -3.5630  -26.4171 O   0  0  0  0  0  0  0  0  0  0  0  0
   -3.1173   -5.3059  -27.5725 O   0  0  0  0  0  0  0  0  0  0  0  0
 26 25  2  0  0  0
 24 25  1  0  0  0
 25 27  2  0  0  0
 25 22  1  0  0  0
 18 22  2  0  0  0
 18 23  1  0  0  0
 22 19  1  0  0  0
 23 20  2  0  0  0
 19 21  2  0  0  0
 20 21  1  0  0  0
 20 16  1  0  0  0
 16  4  1  0  0  0
 15 13  1  0  0  0
  4  5  2  0  0  0
  4  6  1  0  0  0
  5  3  1  0  0  0
  6  1  2  0  0  0
 13 14  1  0  0  0
 13 12  1  0  0  0
  3  2  2  0  0  0
  1  2  1  0  0  0
  1  7  1  0  0  0
 12  7  1  0  0  0
 12 11  1  0  0  0
  7  9  2  0  0  0
 11 10  1  0  0  0
 11  8  2  0  0  0
  9  8  1  0  0  0
 16 17  1  0  0  0
M  END
> <minimizedAffinity>
-8.42534

$$$$
6GUH_FB8_A_301


 27 29  0  0  0  0  0  0  0  0999 V2000
   -1.4251   -7.0681  -25.6235 C   0  0  0  0  0  0  0  0  0  0  0  0
   -2.8157   -7.1089  -25.5159 C   0  0  0  0  0  0  0  0  0  0  0  0
   -3.3195   -7.9756  -24.5658 C   0  0  0  0  0  0  0  0  0  0  0  0
   -1.2253   -8.5300  -23.8500 C   0  0  0  0  0  0  0  0  0  0  0  0
   -2.5579   -8.6308  -23.6860 N   0  0  0  0  0  0  0  0  0  0  0  0
   -0.6260   -7.7787  -24.8031 N   0  0  0  0  0  0  0  0  0  0  0  0
   -0.8112   -6.2557  -26.6601 C   0  0  0  0  0  0  0  0  0  0  0  0
   -0.2638   -4.4801  -27.9410 N   0  0  0  0  0  0  0  0  0  0  0  0
   -1.0531   -4.9378  -26.9173 C   0  0  0  0  0  0  0  0  0  0  0  0
    1.4347   -5.4798  -29.4628 C   0  0  0  0  0  0  0  0  0  0  0  0
    0.4422   -5.5215  -28.3465 C   0  0  0  0  0  0  0  0  0  0  0  0
    0.2097   -6.6430  -27.5665 N   0  0  0  0  0  0  0  0  0  0  0  0
    0.7207   -7.9794  -27.7414 C   0  0  0  0  0  0  0  0  0  0  0  0
    1.9129   -8.1734  -26.7728 C   0  0  0  0  0  0  0  0  0  0  0  0
   -0.4085   -8.9543  -27.6426 C   0  0  0  0  0  0  0  0  0  0  0  0
   -0.5946   -9.2881  -22.9299 N   0  0  0  0  0  0  0  0  0  0  0  0
   -0.0249   -8.7896  -22.3005 H   0  0  0  0  0  0  0  0  0  0  0  0
   -0.4062  -12.9620  -23.4631 C   0  0  0  0  0  0  0  0  0  0  0  0
   -1.1959  -12.4910  -21.2584 C   0  0  0  0  0  0  0  0  0  0  0  0
   -0.6241  -10.6777  -22.7297 C   0  0  0  0  0  0  0  0  0  0  0  0
   -1.1342  -11.1434  -21.5281 C   0  0  0  0  0  0  0  0  0  0  0  0
   -0.8701  -13.3877  -22.2427 C   0  0  0  0  0  0  0  0  0  0  0  0
   -0.2730  -11.6138  -23.7106 C   0  0  0  0  0  0  0  0  0  0  0  0
   -1.0395  -15.2876  -20.1944 C   0  0  0  0  0  0  0  0  0  0  0  0
   -1.0591  -15.1083  -21.9256 S   0  0  0  0  0  0  0  0  0  0  0  0
   -2.4135  -15.4393  -22.3150 O   0  0  0  0  0  0  0  0  0  0  0  0
    0.0674  -15.7478  -22.5426 O   0  0  0  0  0  0  0  0  0  0  0  0
 26 25  2  0  0  0
 24 25  1  0  0  0
 25 27  2  0  0  0
 25 22  1  0  0  0
 18 22  2  0  0  0
 18 23  1  0  0  0
 22 19  1  0  0  0
 23 20  2  0  0  0
 19 21  2  0  0  0
 20 21  1  0  0  0
 20 16  1  0  0  0
 16  4  1  0  0  0
 15 13  1  0  0  0
  4  5  2  0  0  0
  4  6  1  0  0  0
  5  3  1  0  0  0
  6  1  2  0  0  0
 13 14  1  0  0  0
 13 12  1  0  0  0
  3  2  2  0  0  0
  1  2  1  0  0  0
  1  7  1  0  0  0
 12  7  1  0  0  0
 12 11  1  0  0  0
  7  9  2  0  0  0
 11 10  1  0  0  0
 11  8  2  0  0  0
  9  8  1  0  0  0
 16 17  1  0  0  0
M  END
> <minimizedAffinity>
-8.38362

$$$$
6GUH_FB8_A_301


 27 29  0  0  0  0  0  0  0  0999 V2000
   -1.1454   -5.6304  -26.5900 C   0  0  0  0  0  0  0  0  0  0  0  0
   -1.8367   -4.4325  -26.4047 C   0  0  0  0  0  0  0  0  0  0  0  0
   -2.9117   -4.4871  -25.5391 C   0  0  0  0  0  0  0  0  0  0  0  0
   -2.4843   -6.6681  -25.0238 C   0  0  0  0  0  0  0  0  0  0  0  0
   -3.2061   -5.5551  -24.7934 N   0  0  0  0  0  0  0  0  0  0  0  0
   -1.4664   -6.7502  -25.9121 N   0  0  0  0  0  0  0  0  0  0  0  0
   -0.0602   -5.6883  -27.5544 C   0  0  0  0  0  0  0  0  0  0  0  0
    1.3609   -5.1133  -29.2106 N   0  0  0  0  0  0  0  0  0  0  0  0
    0.2445   -4.7535  -28.5003 C   0  0  0  0  0  0  0  0  0  0  0  0
    2.9055   -7.0664  -29.2300 C   0  0  0  0  0  0  0  0  0  0  0  0
    1.7296   -6.2896  -28.7333 C   0  0  0  0  0  0  0  0  0  0  0  0
    0.9413   -6.6875  -27.6652 N   0  0  0  0  0  0  0  0  0  0  0  0
    0.9754   -7.9326  -26.9397 C   0  0  0  0  0  0  0  0  0  0  0  0
    0.1942   -8.9911  -27.7559 C   0  0  0  0  0  0  0  0  0  0  0  0
    2.3905   -8.2526  -26.5787 C   0  0  0  0  0  0  0  0  0  0  0  0
   -2.9335   -7.6718  -24.2429 N   0  0  0  0  0  0  0  0  0  0  0  0
   -3.7787   -7.4866  -23.7733 H   0  0  0  0  0  0  0  0  0  0  0  0
   -1.4915  -10.6547  -22.5574 C   0  0  0  0  0  0  0  0  0  0  0  0
   -1.4468  -10.9483  -24.9277 C   0  0  0  0  0  0  0  0  0  0  0  0
   -2.3833   -8.9400  -23.9953 C   0  0  0  0  0  0  0  0  0  0  0  0
   -1.9938   -9.6965  -25.0894 C   0  0  0  0  0  0  0  0  0  0  0  0
   -1.1633  -11.3984  -23.6643 C   0  0  0  0  0  0  0  0  0  0  0  0
   -2.1069   -9.4327  -22.7137 C   0  0  0  0  0  0  0  0  0  0  0  0
   -0.7965  -13.5314  -21.8897 C   0  0  0  0  0  0  0  0  0  0  0  0
   -0.3613  -12.9529  -23.4726 S   0  0  0  0  0  0  0  0  0  0  0  0
   -1.0209  -13.8579  -24.3899 O   0  0  0  0  0  0  0  0  0  0  0  0
    1.0445  -12.6854  -23.5768 O   0  0  0  0  0  0  0  0  0  0  0  0
 26 25  2  0  0  0
 24 25  1  0  0  0
 25 27  2  0  0  0
 25 22  1  0  0  0
 18 22  2  0  0  0
 18 23  1  0  0  0
 22 19  1  0  0  0
 23 20  2  0  0  0
 19 21  2  0  0  0
 20 21  1  0  0  0
 20 16  1  0  0  0
 16  4  1  0  0  0
 15 13  1  0  0  0
  4  5  2  0  0  0
  4  6  1  0  0  0
  5  3  1  0  0  0
  6  1  2  0  0  0
 13 14  1  0  0  0
 13 12  1  0  0  0
  3  2  2  0  0  0
  1  2  1  0  0  0
  1  7  1  0  0  0
 12  7  1  0  0  0
 12 11  1  0  0  0
  7  9  2  0  0  0
 11 10  1  0  0  0
 11  8  2  0  0  0
  9  8  1  0  0  0
 16 17  1  0  0  0
M  END
> <minimizedAffinity>
-8.38013

$$$$
6GUH_FB8_A_301


 27 29  0  0  0  0  0  0  0  0999 V2000
   -0.5296   -8.4673  -25.0131 C   0  0  0  0  0  0  0  0  0  0  0  0
   -1.6038   -7.9023  -25.7016 C   0  0  0  0  0  0  0  0  0  0  0  0
   -1.2754   -7.1374  -26.8038 C   0  0  0  0  0  0  0  0  0  0  0  0
    0.9410   -7.6310  -26.5817 C   0  0  0  0  0  0  0  0  0  0  0  0
   -0.0383   -7.0480  -27.2986 N   0  0  0  0  0  0  0  0  0  0  0  0
    0.7414   -8.3304  -25.4401 N   0  0  0  0  0  0  0  0  0  0  0  0
   -0.7754   -9.2086  -23.7879 C   0  0  0  0  0  0  0  0  0  0  0  0
   -1.4173   -9.7055  -21.6821 N   0  0  0  0  0  0  0  0  0  0  0  0
   -1.2748   -8.7139  -22.6185 C   0  0  0  0  0  0  0  0  0  0  0  0
   -0.9303  -12.1455  -21.5851 C   0  0  0  0  0  0  0  0  0  0  0  0
   -0.9716  -10.8104  -22.2548 C   0  0  0  0  0  0  0  0  0  0  0  0
   -0.6144  -10.6027  -23.5776 N   0  0  0  0  0  0  0  0  0  0  0  0
   -0.0128  -11.5317  -24.5010 C   0  0  0  0  0  0  0  0  0  0  0  0
    1.5056  -11.5956  -24.2046 C   0  0  0  0  0  0  0  0  0  0  0  0
   -0.7724  -12.8190  -24.4681 C   0  0  0  0  0  0  0  0  0  0  0  0
    2.1328   -7.4067  -27.1719 N   0  0  0  0  0  0  0  0  0  0  0  0
    2.5373   -6.5316  -26.9722 H   0  0  0  0  0  0  0  0  0  0  0  0
    4.1387  -10.2183  -28.5460 C   0  0  0  0  0  0  0  0  0  0  0  0
    4.0398   -8.4299  -30.1266 C   0  0  0  0  0  0  0  0  0  0  0  0
    2.8866   -8.2269  -28.0270 C   0  0  0  0  0  0  0  0  0  0  0  0
    3.2984   -7.6886  -29.2360 C   0  0  0  0  0  0  0  0  0  0  0  0
    4.4872   -9.6717  -29.7567 C   0  0  0  0  0  0  0  0  0  0  0  0
    3.3348   -9.5083  -27.6823 C   0  0  0  0  0  0  0  0  0  0  0  0
    4.7544  -12.1040  -31.1156 C   0  0  0  0  0  0  0  0  0  0  0  0
    5.5282  -10.5663  -30.8580 S   0  0  0  0  0  0  0  0  0  0  0  0
    5.4351   -9.8886  -32.1338 O   0  0  0  0  0  0  0  0  0  0  0  0
    6.7863  -10.7068  -30.1827 O   0  0  0  0  0  0  0  0  0  0  0  0
 26 25  2  0  0  0
 24 25  1  0  0  0
 25 27  2  0  0  0
 25 22  1  0  0  0
 18 22  2  0  0  0
 18 23  1  0  0  0
 22 19  1  0  0  0
 23 20  2  0  0  0
 19 21  2  0  0  0
 20 21  1  0  0  0
 20 16  1  0  0  0
 16  4  1  0  0  0
 15 13  1  0  0  0
  4  5  2  0  0  0
  4  6  1  0  0  0
  5  3  1  0  0  0
  6  1  2  0  0  0
 13 14  1  0  0  0
 13 12  1  0  0  0
  3  2  2  0  0  0
  1  2  1  0  0  0
  1  7  1  0  0  0
 12  7  1  0  0  0
 12 11  1  0  0  0
  7  9  2  0  0  0
 11 10  1  0  0  0
 11  8  2  0  0  0
  9  8  1  0  0  0
 16 17  1  0  0  0
M  END
> <minimizedAffinity>
-8.36905

$$$$
6GUH_FB8_A_301


 27 29  0  0  0  0  0  0  0  0999 V2000
    1.0724   -8.3912  -26.5288 C   0  0  0  0  0  0  0  0  0  0  0  0
    0.8282   -9.4665  -25.6736 C   0  0  0  0  0  0  0  0  0  0  0  0
    1.8407  -10.4011  -25.5795 C   0  0  0  0  0  0  0  0  0  0  0  0
    3.2048   -9.1729  -26.9345 C   0  0  0  0  0  0  0  0  0  0  0  0
    3.0458  -10.2428  -26.1326 N   0  0  0  0  0  0  0  0  0  0  0  0
    2.2503   -8.2417  -27.1667 N   0  0  0  0  0  0  0  0  0  0  0  0
    0.0261   -7.4103  -26.7617 C   0  0  0  0  0  0  0  0  0  0  0  0
   -1.2082   -5.7916  -27.7361 N   0  0  0  0  0  0  0  0  0  0  0  0
   -0.0661   -6.5465  -27.8138 C   0  0  0  0  0  0  0  0  0  0  0  0
   -3.0947   -5.5782  -26.1250 C   0  0  0  0  0  0  0  0  0  0  0  0
   -1.8083   -6.1580  -26.6167 C   0  0  0  0  0  0  0  0  0  0  0  0
   -1.1433   -7.1977  -25.9864 N   0  0  0  0  0  0  0  0  0  0  0  0
   -1.4358   -7.8098  -24.7147 C   0  0  0  0  0  0  0  0  0  0  0  0
   -0.8236   -6.9274  -23.5994 C   0  0  0  0  0  0  0  0  0  0  0  0
   -2.9005   -8.0990  -24.6336 C   0  0  0  0  0  0  0  0  0  0  0  0
    4.4456   -9.1802  -27.4629 N   0  0  0  0  0  0  0  0  0  0  0  0
    5.1412   -8.7757  -26.8956 H   0  0  0  0  0  0  0  0  0  0  0  0
    6.3576  -11.0097  -30.0734 C   0  0  0  0  0  0  0  0  0  0  0  0
    4.7868   -9.5266  -31.0930 C   0  0  0  0  0  0  0  0  0  0  0  0
    4.9000   -9.6749  -28.6961 C   0  0  0  0  0  0  0  0  0  0  0  0
    4.3904   -9.0963  -29.8479 C   0  0  0  0  0  0  0  0  0  0  0  0
    5.7953  -10.4495  -31.1941 C   0  0  0  0  0  0  0  0  0  0  0  0
    5.9113  -10.6351  -28.8255 C   0  0  0  0  0  0  0  0  0  0  0  0
    5.8563   -9.6512  -33.8760 C   0  0  0  0  0  0  0  0  0  0  0  0
    6.3725  -10.9107  -32.7912 S   0  0  0  0  0  0  0  0  0  0  0  0
    7.8142  -10.7892  -32.7449 O   0  0  0  0  0  0  0  0  0  0  0  0
    5.7430  -12.1651  -33.0896 O   0  0  0  0  0  0  0  0  0  0  0  0
 26 25  2  0  0  0
 24 25  1  0  0  0
 25 27  2  0  0  0
 25 22  1  0  0  0
 18 22  2  0  0  0
 18 23  1  0  0  0
 22 19  1  0  0  0
 23 20  2  0  0  0
 19 21  2  0  0  0
 20 21  1  0  0  0
 20 16  1  0  0  0
 16  4  1  0  0  0
 15 13  1  0  0  0
  4  5  2  0  0  0
  4  6  1  0  0  0
  5  3  1  0  0  0
  6  1  2  0  0  0
 13 14  1  0  0  0
 13 12  1  0  0  0
  3  2  2  0  0  0
  1  2  1  0  0  0
  1  7  1  0  0  0
 12  7  1  0  0  0
 12 11  1  0  0  0
  7  9  2  0  0  0
 11 10  1  0  0  0
 11  8  2  0  0  0
  9  8  1  0  0  0
 16 17  1  0  0  0
M  END
> <minimizedAffinity>
-8.21250

$$$$
6GUH_FB8_A_301


 27 29  0  0  0  0  0  0  0  0999 V2000
    2.6797  -12.3459  -25.7221 C   0  0  0  0  0  0  0  0  0  0  0  0
    1.4894  -12.9032  -25.2534 C   0  0  0  0  0  0  0  0  0  0  0  0
    0.5622  -12.0085  -24.7557 C   0  0  0  0  0  0  0  0  0  0  0  0
    1.8687  -10.2244  -25.3172 C   0  0  0  0  0  0  0  0  0  0  0  0
    0.6950  -10.6826  -24.8422 N   0  0  0  0  0  0  0  0  0  0  0  0
    2.8798  -11.0133  -25.7500 N   0  0  0  0  0  0  0  0  0  0  0  0
    3.7487  -13.2191  -26.1757 C   0  0  0  0  0  0  0  0  0  0  0  0
    5.1029  -15.0131  -26.3784 N   0  0  0  0  0  0  0  0  0  0  0  0
    4.0620  -14.4525  -25.6836 C   0  0  0  0  0  0  0  0  0  0  0  0
    6.5781  -14.3030  -28.2545 C   0  0  0  0  0  0  0  0  0  0  0  0
    5.4627  -14.1141  -27.2782 C   0  0  0  0  0  0  0  0  0  0  0  0
    4.6362  -13.0019  -27.2615 N   0  0  0  0  0  0  0  0  0  0  0  0
    4.7534  -11.7853  -28.0254 C   0  0  0  0  0  0  0  0  0  0  0  0
    6.0866  -11.0980  -27.6415 C   0  0  0  0  0  0  0  0  0  0  0  0
    4.5309  -12.0899  -29.4722 C   0  0  0  0  0  0  0  0  0  0  0  0
    1.8759   -8.8760  -25.2894 N   0  0  0  0  0  0  0  0  0  0  0  0
    2.6723   -8.4731  -24.8739 H   0  0  0  0  0  0  0  0  0  0  0  0
   -0.2074   -6.7333  -27.4999 C   0  0  0  0  0  0  0  0  0  0  0  0
   -0.6808   -6.2547  -25.2079 C   0  0  0  0  0  0  0  0  0  0  0  0
    0.9242   -7.9571  -25.7607 C   0  0  0  0  0  0  0  0  0  0  0  0
    0.2648   -7.1770  -24.8238 C   0  0  0  0  0  0  0  0  0  0  0  0
   -0.8784   -6.0127  -26.5426 C   0  0  0  0  0  0  0  0  0  0  0  0
    0.6861   -7.7093  -27.1185 C   0  0  0  0  0  0  0  0  0  0  0  0
   -2.5254   -3.9781  -25.5519 C   0  0  0  0  0  0  0  0  0  0  0  0
   -2.0088   -4.7523  -27.0227 S   0  0  0  0  0  0  0  0  0  0  0  0
   -1.2211   -3.7506  -27.7095 O   0  0  0  0  0  0  0  0  0  0  0  0
   -3.0911   -5.4252  -27.6819 O   0  0  0  0  0  0  0  0  0  0  0  0
 26 25  2  0  0  0
 24 25  1  0  0  0
 25 27  2  0  0  0
 25 22  1  0  0  0
 18 22  2  0  0  0
 18 23  1  0  0  0
 22 19  1  0  0  0
 23 20  2  0  0  0
 19 21  2  0  0  0
 20 21  1  0  0  0
 20 16  1  0  0  0
 16  4  1  0  0  0
 15 13  1  0  0  0
  4  5  2  0  0  0
  4  6  1  0  0  0
  5  3  1  0  0  0
  6  1  2  0  0  0
 13 14  1  0  0  0
 13 12  1  0  0  0
  3  2  2  0  0  0
  1  2  1  0  0  0
  1  7  1  0  0  0
 12  7  1  0  0  0
 12 11  1  0  0  0
  7  9  2  0  0  0
 11 10  1  0  0  0
 11  8  2  0  0  0
  9  8  1  0  0  0
 16 17  1  0  0  0
M  END
> <minimizedAffinity>
-8.12585

$$$$
6GUH_FB8_A_301


 27 29  0  0  0  0  0  0  0  0999 V2000
    0.1518  -11.6855  -23.5303 C   0  0  0  0  0  0  0  0  0  0  0  0
    1.0425  -12.7285  -23.7872 C   0  0  0  0  0  0  0  0  0  0  0  0
    1.9822  -12.4875  -24.7704 C   0  0  0  0  0  0  0  0  0  0  0  0
    1.2628  -10.3392  -25.0389 C   0  0  0  0  0  0  0  0  0  0  0  0
    2.1569  -11.2969  -25.3492 N   0  0  0  0  0  0  0  0  0  0  0  0
    0.2497  -10.4952  -24.1550 N   0  0  0  0  0  0  0  0  0  0  0  0
   -0.9285  -11.8851  -22.5795 C   0  0  0  0  0  0  0  0  0  0  0  0
   -2.6631  -11.4703  -21.1965 N   0  0  0  0  0  0  0  0  0  0  0  0
   -1.7123  -10.9201  -22.0173 C   0  0  0  0  0  0  0  0  0  0  0  0
   -3.2527  -13.7707  -20.4478 C   0  0  0  0  0  0  0  0  0  0  0  0
   -2.4480  -12.7744  -21.2176 C   0  0  0  0  0  0  0  0  0  0  0  0
   -1.4338  -13.1200  -22.0965 N   0  0  0  0  0  0  0  0  0  0  0  0
   -0.8564  -14.4191  -22.3341 C   0  0  0  0  0  0  0  0  0  0  0  0
   -0.8132  -15.1842  -20.9888 C   0  0  0  0  0  0  0  0  0  0  0  0
   -1.5709  -15.0739  -23.4725 C   0  0  0  0  0  0  0  0  0  0  0  0
    1.5322   -9.2198  -25.7413 N   0  0  0  0  0  0  0  0  0  0  0  0
    2.4260   -9.1928  -26.1533 H   0  0  0  0  0  0  0  0  0  0  0  0
   -0.6670   -6.2599  -25.2726 C   0  0  0  0  0  0  0  0  0  0  0  0
   -0.3657   -6.6993  -27.6013 C   0  0  0  0  0  0  0  0  0  0  0  0
    0.7366   -8.0868  -25.9765 C   0  0  0  0  0  0  0  0  0  0  0  0
    0.4097   -7.7924  -27.2909 C   0  0  0  0  0  0  0  0  0  0  0  0
   -0.9300   -5.9679  -26.5885 C   0  0  0  0  0  0  0  0  0  0  0  0
    0.1687   -7.3087  -24.9597 C   0  0  0  0  0  0  0  0  0  0  0  0
   -2.6394   -4.0460  -25.4847 C   0  0  0  0  0  0  0  0  0  0  0  0
   -2.0106   -4.6399  -26.9952 S   0  0  0  0  0  0  0  0  0  0  0  0
   -1.1643   -3.5733  -27.4870 O   0  0  0  0  0  0  0  0  0  0  0  0
   -3.0402   -5.2086  -27.8169 O   0  0  0  0  0  0  0  0  0  0  0  0
 26 25  2  0  0  0
 24 25  1  0  0  0
 25 27  2  0  0  0
 25 22  1  0  0  0
 18 22  2  0  0  0
 18 23  1  0  0  0
 22 19  1  0  0  0
 23 20  2  0  0  0
 19 21  2  0  0  0
 20 21  1  0  0  0
 20 16  1  0  0  0
 16  4  1  0  0  0
 15 13  1  0  0  0
  4  5  2  0  0  0
  4  6  1  0  0  0
  5  3  1  0  0  0
  6  1  2  0  0  0
 13 14  1  0  0  0
 13 12  1  0  0  0
  3  2  2  0  0  0
  1  2  1  0  0  0
  1  7  1  0  0  0
 12  7  1  0  0  0
 12 11  1  0  0  0
  7  9  2  0  0  0
 11 10  1  0  0  0
 11  8  2  0  0  0
  9  8  1  0  0  0
 16 17  1  0  0  0
M  END
> <minimizedAffinity>
-8.08958

$$$$
6GUH_FB8_A_301


 27 29  0  0  0  0  0  0  0  0999 V2000
    4.4622  -10.4368  -27.5333 C   0  0  0  0  0  0  0  0  0  0  0  0
    4.8061   -9.3115  -28.2832 C   0  0  0  0  0  0  0  0  0  0  0  0
    4.0461   -8.1813  -28.0536 C   0  0  0  0  0  0  0  0  0  0  0  0
    2.8717   -9.2150  -26.3931 C   0  0  0  0  0  0  0  0  0  0  0  0
    3.1377   -8.0875  -27.0793 N   0  0  0  0  0  0  0  0  0  0  0  0
    3.4947  -10.3994  -26.5956 N   0  0  0  0  0  0  0  0  0  0  0  0
    5.1459  -11.6955  -27.7771 C   0  0  0  0  0  0  0  0  0  0  0  0
    6.3729  -13.5606  -27.4474 N   0  0  0  0  0  0  0  0  0  0  0  0
    5.9199  -12.3905  -26.8943 C   0  0  0  0  0  0  0  0  0  0  0  0
    6.1766  -14.6739  -29.6661 C   0  0  0  0  0  0  0  0  0  0  0  0
    5.9129  -13.5767  -28.6866 C   0  0  0  0  0  0  0  0  0  0  0  0
    5.0936  -12.4909  -28.9512 N   0  0  0  0  0  0  0  0  0  0  0  0
    4.4770  -12.1149  -30.1986 C   0  0  0  0  0  0  0  0  0  0  0  0
    5.5657  -11.4999  -31.1118 C   0  0  0  0  0  0  0  0  0  0  0  0
    3.7076  -13.2783  -30.7370 C   0  0  0  0  0  0  0  0  0  0  0  0
    1.8986   -8.9793  -25.4894 N   0  0  0  0  0  0  0  0  0  0  0  0
    2.0424   -9.3912  -24.6069 H   0  0  0  0  0  0  0  0  0  0  0  0
   -1.1665   -7.3724  -26.8460 C   0  0  0  0  0  0  0  0  0  0  0  0
   -0.7990   -6.6701  -24.5925 C   0  0  0  0  0  0  0  0  0  0  0  0
    0.7123   -8.2378  -25.6114 C   0  0  0  0  0  0  0  0  0  0  0  0
    0.3492   -7.4264  -24.5479 C   0  0  0  0  0  0  0  0  0  0  0  0
   -1.5235   -6.6185  -25.7551 C   0  0  0  0  0  0  0  0  0  0  0  0
   -0.0588   -8.1879  -26.7796 C   0  0  0  0  0  0  0  0  0  0  0  0
   -2.3123   -3.9335  -25.8053 C   0  0  0  0  0  0  0  0  0  0  0  0
   -2.9278   -5.5613  -25.8388 S   0  0  0  0  0  0  0  0  0  0  0  0
   -3.4700   -5.7229  -27.1712 O   0  0  0  0  0  0  0  0  0  0  0  0
   -3.7145   -5.8599  -24.6766 O   0  0  0  0  0  0  0  0  0  0  0  0
 26 25  2  0  0  0
 24 25  1  0  0  0
 25 27  2  0  0  0
 25 22  1  0  0  0
 18 22  2  0  0  0
 18 23  1  0  0  0
 22 19  1  0  0  0
 23 20  2  0  0  0
 19 21  2  0  0  0
 20 21  1  0  0  0
 20 16  1  0  0  0
 16  4  1  0  0  0
 15 13  1  0  0  0
  4  5  2  0  0  0
  4  6  1  0  0  0
  5  3  1  0  0  0
  6  1  2  0  0  0
 13 14  1  0  0  0
 13 12  1  0  0  0
  3  2  2  0  0  0
  1  2  1  0  0  0
  1  7  1  0  0  0
 12  7  1  0  0  0
 12 11  1  0  0  0
  7  9  2  0  0  0
 11 10  1  0  0  0
 11  8  2  0  0  0
  9  8  1  0  0  0
 16 17  1  0  0  0
M  END
> <minimizedAffinity>
-8.04550

$$$$
