5DYO_FLU_A_301


 27 30  0  0  0  0  0  0  0  0999 V2000
   27.2845   35.4204   28.8228 C   0  0  0  0  0  0  0  0  0  0  0  0
   27.9647   36.4341   29.4320 O   0  0  0  0  0  0  0  0  0  0  0  0
   27.1430   34.2284   29.5175 C   0  0  0  0  0  0  0  0  0  0  0  0
   26.5437   33.1578   28.8857 C   0  0  0  0  0  0  0  0  0  0  0  0
   26.4280   32.0038   29.6384 O   0  0  0  0  0  0  0  0  0  0  0  0
   25.8465   30.8766   29.1146 C   0  0  0  0  0  0  0  0  0  0  0  0
   25.7686   29.7921   29.9313 C   0  0  0  0  0  0  0  0  0  0  0  0
   25.1359   28.5689   29.4748 C   0  0  0  0  0  0  0  0  0  0  0  0
   25.0090   27.5928   30.2186 O   0  0  0  0  0  0  0  0  0  0  0  0
   24.6155   28.5630   28.1057 C   0  0  0  0  0  0  0  0  0  0  0  0
   24.7325   29.6495   27.3076 C   0  0  0  0  0  0  0  0  0  0  0  0
   25.3495   30.8659   27.7581 C   0  0  0  0  0  0  0  0  0  0  0  0
   25.4774   32.0122   26.9650 C   0  0  0  0  0  0  0  0  0  0  0  0
   26.0782   33.2314   27.5637 C   0  0  0  0  0  0  0  0  0  0  0  0
   26.1945   34.4594   26.9095 C   0  0  0  0  0  0  0  0  0  0  0  0
   26.7885   35.5469   27.5330 C   0  0  0  0  0  0  0  0  0  0  0  0
   28.2893   36.3229   30.3039 H   0  0  0  0  0  0  0  0  0  0  0  0
   25.1019   31.9883   25.5058 C   0  0  0  0  0  0  0  0  0  0  0  0
   23.8049   32.3795   25.1618 C   0  0  0  0  0  0  0  0  0  0  0  0
   23.3144   32.1153   23.8878 C   0  0  0  0  0  0  0  0  0  0  0  0
   24.1152   31.4973   22.9389 C   0  0  0  0  0  0  0  0  0  0  0  0
   25.4264   31.1579   23.2425 C   0  0  0  0  0  0  0  0  0  0  0  0
   25.9348   31.4089   24.5210 C   0  0  0  0  0  0  0  0  0  0  0  0
   27.3497   31.0565   24.8232 C   0  0  0  0  0  0  0  0  0  0  0  0
   27.6432   30.0166   25.4059 O   0  0  0  0  0  0  0  0  0  0  0  0
   28.2366   31.8942   24.3535 O   0  0  0  0  0  0  0  0  0  0  0  0
   27.9583   32.6747   23.9162 H   0  0  0  0  0  0  0  0  0  0  0  0
  1  2  1  0  0  0
  1  3  2  0  0  0
  1 16  1  0  0  0
  3  4  1  0  0  0
  4  5  1  0  0  0
  4 14  2  0  0  0
  5  6  1  0  0  0
  6  7  2  0  0  0
  6 12  1  0  0  0
  7  8  1  0  0  0
  8  9  2  0  0  0
  8 10  1  0  0  0
 10 11  2  0  0  0
 11 12  1  0  0  0
 12 13  2  0  0  0
 13 14  1  0  0  0
 13 18  1  0  0  0
 14 15  1  0  0  0
 15 16  2  0  0  0
 18 19  2  0  0  0
 18 23  1  0  0  0
 19 20  1  0  0  0
 20 21  2  0  0  0
 21 22  1  0  0  0
 22 23  2  0  0  0
 23 24  1  0  0  0
 24 25  2  0  0  0
 24 26  1  0  0  0
  2 17  1  0  0  0
 26 27  1  0  0  0
M  END
> <minimizedAffinity>
-11.53746

$$$$
5DYO_FLU_A_301


 27 30  0  0  0  0  0  0  0  0999 V2000
   25.0888   28.5220   29.4818 C   0  0  0  0  0  0  0  0  0  0  0  0
   24.8384   27.4973   30.3470 O   0  0  0  0  0  0  0  0  0  0  0  0
   25.5845   29.7054   30.0081 C   0  0  0  0  0  0  0  0  0  0  0  0
   25.7546   30.7869   29.1680 C   0  0  0  0  0  0  0  0  0  0  0  0
   26.2595   31.9316   29.7566 O   0  0  0  0  0  0  0  0  0  0  0  0
   26.4727   33.0682   29.0178 C   0  0  0  0  0  0  0  0  0  0  0  0
   26.9799   34.1423   29.6799 C   0  0  0  0  0  0  0  0  0  0  0  0
   27.2726   35.3744   28.9718 C   0  0  0  0  0  0  0  0  0  0  0  0
   27.7818   36.3412   29.5444 O   0  0  0  0  0  0  0  0  0  0  0  0
   26.9774   35.4004   27.5373 C   0  0  0  0  0  0  0  0  0  0  0  0
   26.4472   34.3239   26.9120 C   0  0  0  0  0  0  0  0  0  0  0  0
   26.1644   33.0989   27.6067 C   0  0  0  0  0  0  0  0  0  0  0  0
   25.6275   31.9624   26.9906 C   0  0  0  0  0  0  0  0  0  0  0  0
   25.4380   30.7327   27.8018 C   0  0  0  0  0  0  0  0  0  0  0  0
   24.9851   29.5129   27.2956 C   0  0  0  0  0  0  0  0  0  0  0  0
   24.8149   28.4146   28.1256 C   0  0  0  0  0  0  0  0  0  0  0  0
   25.0326   27.5956   31.2584 H   0  0  0  0  0  0  0  0  0  0  0  0
   25.1617   32.0071   25.5582 C   0  0  0  0  0  0  0  0  0  0  0  0
   23.8197   32.3174   25.3204 C   0  0  0  0  0  0  0  0  0  0  0  0
   23.2693   32.1014   24.0619 C   0  0  0  0  0  0  0  0  0  0  0  0
   24.0510   31.6132   23.0254 C   0  0  0  0  0  0  0  0  0  0  0  0
   25.4006   31.3583   23.2260 C   0  0  0  0  0  0  0  0  0  0  0  0
   25.9702   31.5621   24.4870 C   0  0  0  0  0  0  0  0  0  0  0  0
   27.4239   31.3026   24.6790 C   0  0  0  0  0  0  0  0  0  0  0  0
   28.2695   32.1515   24.4120 O   0  0  0  0  0  0  0  0  0  0  0  0
   27.7087   30.1470   25.2197 O   0  0  0  0  0  0  0  0  0  0  0  0
   27.0241   29.5341   25.4033 H   0  0  0  0  0  0  0  0  0  0  0  0
  1  2  1  0  0  0
  1  3  2  0  0  0
  1 16  1  0  0  0
  3  4  1  0  0  0
  4  5  1  0  0  0
  4 14  2  0  0  0
  5  6  1  0  0  0
  6  7  2  0  0  0
  6 12  1  0  0  0
  7  8  1  0  0  0
  8  9  2  0  0  0
  8 10  1  0  0  0
 10 11  2  0  0  0
 11 12  1  0  0  0
 12 13  2  0  0  0
 13 14  1  0  0  0
 13 18  1  0  0  0
 14 15  1  0  0  0
 15 16  2  0  0  0
 18 19  2  0  0  0
 18 23  1  0  0  0
 19 20  1  0  0  0
 20 21  2  0  0  0
 21 22  1  0  0  0
 22 23  2  0  0  0
 23 24  1  0  0  0
 24 25  2  0  0  0
 24 26  1  0  0  0
  2 17  1  0  0  0
 26 27  1  0  0  0
M  END
> <minimizedAffinity>
-11.34954

$$$$
