4M0R_644_A_600


 34 36  0  0  0  0  0  0  0  0999 V2000
  -19.7086   26.0464  -13.9887 C   0  0  0  0  0  0  0  0  0  0  0  0
  -18.7750   26.8764  -14.6044 C   0  0  0  0  0  0  0  0  0  0  0  0
  -20.1809   26.4316  -12.7281 C   0  0  0  0  0  0  0  0  0  0  0  0
  -19.7628   27.6002  -12.1084 C   0  0  0  0  0  0  0  0  0  0  0  0
  -18.8411   28.4152  -12.7431 C   0  0  0  0  0  0  0  0  0  0  0  0
  -18.3263   28.0451  -13.9854 C   0  0  0  0  0  0  0  0  0  0  0  0
  -18.2517   26.5150  -15.9695 C   0  0  0  0  0  0  0  0  0  0  0  0
  -18.8203   26.9372  -16.9936 O   0  0  0  0  0  0  0  0  0  0  0  0
  -17.2146   25.8137  -16.0449 O   0  0  0  0  0  0  0  0  0  0  0  0
  -19.5943   27.4599  -16.9181 H   0  0  0  0  0  0  0  0  0  0  0  0
  -20.1292   24.9061  -14.6323 N   0  0  0  0  0  0  0  0  0  0  0  0
  -19.5235   24.1329  -14.5656 H   0  0  0  0  0  0  0  0  0  0  0  0
  -21.2030   24.0890  -16.6107 C   0  0  0  0  0  0  0  0  0  0  0  0
  -22.3335   23.8410  -17.3807 C   0  0  0  0  0  0  0  0  0  0  0  0
  -23.5918   24.2148  -16.9266 C   0  0  0  0  0  0  0  0  0  0  0  0
  -23.7019   24.8328  -15.6885 C   0  0  0  0  0  0  0  0  0  0  0  0
  -22.5574   25.0723  -14.9303 C   0  0  0  0  0  0  0  0  0  0  0  0
  -21.2848   24.6969  -15.3594 C   0  0  0  0  0  0  0  0  0  0  0  0
  -19.4736   24.1300  -18.2505 O   0  0  0  0  0  0  0  0  0  0  0  0
  -19.8881   23.6415  -17.1736 C   0  0  0  0  0  0  0  0  0  0  0  0
  -19.2455   22.7864  -16.5176 O   0  0  0  0  0  0  0  0  0  0  0  0
  -19.5963   22.4496  -15.7166 H   0  0  0  0  0  0  0  0  0  0  0  0
  -17.4060   28.8429  -14.6055 N   0  0  0  0  0  0  0  0  0  0  0  0
  -16.6906   28.3982  -15.1151 H   0  0  0  0  0  0  0  0  0  0  0  0
  -17.4004   30.2172  -14.5739 C   0  0  0  0  0  0  0  0  0  0  0  0
  -16.7399   30.9643  -13.5848 C   0  0  0  0  0  0  0  0  0  0  0  0
  -16.7802   32.3490  -13.5714 C   0  0  0  0  0  0  0  0  0  0  0  0
  -17.4738   33.0359  -14.5622 C   0  0  0  0  0  0  0  0  0  0  0  0
  -18.1292   32.3180  -15.5530 C   0  0  0  0  0  0  0  0  0  0  0  0
  -18.0985   30.9206  -15.5531 C   0  0  0  0  0  0  0  0  0  0  0  0
  -18.8224   30.1855  -16.6450 C   0  0  0  0  0  0  0  0  0  0  0  0
  -20.0273   29.8931  -16.4851 O   0  0  0  0  0  0  0  0  0  0  0  0
  -18.1910   29.8734  -17.6795 O   0  0  0  0  0  0  0  0  0  0  0  0
  -17.2882   30.1086  -17.7663 H   0  0  0  0  0  0  0  0  0  0  0  0
 19 20  2  0  0  0
 21 20  1  0  0  0
  9  7  2  0  0  0
 20 13  1  0  0  0
  8  7  1  0  0  0
 32 31  2  0  0  0
  7  2  1  0  0  0
 13 14  2  0  0  0
 13 18  1  0  0  0
 14 15  1  0  0  0
 33 31  1  0  0  0
 11 18  1  0  0  0
 11  1  1  0  0  0
 18 17  2  0  0  0
 15 16  2  0  0  0
 31 30  1  0  0  0
  2  1  2  0  0  0
  2  6  1  0  0  0
 17 16  1  0  0  0
  1  3  1  0  0  0
 23  6  1  0  0  0
 23 25  1  0  0  0
 30 25  2  0  0  0
 30 29  1  0  0  0
  6  5  2  0  0  0
 25 26  1  0  0  0
  3  4  2  0  0  0
 29 28  2  0  0  0
  5  4  1  0  0  0
 26 27  2  0  0  0
 28 27  1  0  0  0
 21 22  1  0  0  0
 11 12  1  0  0  0
  8 10  1  0  0  0
 23 24  1  0  0  0
 33 34  1  0  0  0
M  END
> <minimizedAffinity>
-9.49534

$$$$
4M0R_644_A_600


 34 36  0  0  0  0  0  0  0  0999 V2000
  -18.4040   28.0381  -13.9288 C   0  0  0  0  0  0  0  0  0  0  0  0
  -18.8280   26.8839  -14.5825 C   0  0  0  0  0  0  0  0  0  0  0  0
  -18.9261   28.2848  -12.6532 C   0  0  0  0  0  0  0  0  0  0  0  0
  -19.8166   27.4163  -12.0392 C   0  0  0  0  0  0  0  0  0  0  0  0
  -20.2172   26.2698  -12.7037 C   0  0  0  0  0  0  0  0  0  0  0  0
  -19.7409   26.0098  -13.9886 C   0  0  0  0  0  0  0  0  0  0  0  0
  -18.2799   26.5646  -15.9484 C   0  0  0  0  0  0  0  0  0  0  0  0
  -18.8478   26.9930  -16.9704 O   0  0  0  0  0  0  0  0  0  0  0  0
  -17.2239   25.8923  -16.0258 O   0  0  0  0  0  0  0  0  0  0  0  0
  -19.6361   27.4936  -16.8933 H   0  0  0  0  0  0  0  0  0  0  0  0
  -17.5004   28.8720  -14.5448 N   0  0  0  0  0  0  0  0  0  0  0  0
  -16.7867   28.4233  -15.0534 H   0  0  0  0  0  0  0  0  0  0  0  0
  -18.0831   30.9527  -15.5771 C   0  0  0  0  0  0  0  0  0  0  0  0
  -18.0833   32.3420  -15.6246 C   0  0  0  0  0  0  0  0  0  0  0  0
  -17.4337   33.0811  -14.6443 C   0  0  0  0  0  0  0  0  0  0  0  0
  -16.7913   32.4095  -13.6131 C   0  0  0  0  0  0  0  0  0  0  0  0
  -16.8026   31.0164  -13.5818 C   0  0  0  0  0  0  0  0  0  0  0  0
  -17.4567   30.2525  -14.5479 C   0  0  0  0  0  0  0  0  0  0  0  0
  -20.0369   29.9785  -16.5334 O   0  0  0  0  0  0  0  0  0  0  0  0
  -18.8185   30.2371  -16.6695 C   0  0  0  0  0  0  0  0  0  0  0  0
  -18.1647   29.9338  -17.6967 O   0  0  0  0  0  0  0  0  0  0  0  0
  -17.2543   30.1481  -17.7529 H   0  0  0  0  0  0  0  0  0  0  0  0
  -20.1473   24.8849  -14.6501 N   0  0  0  0  0  0  0  0  0  0  0  0
  -19.6025   24.0724  -14.5399 H   0  0  0  0  0  0  0  0  0  0  0  0
  -21.2569   24.7985  -15.4571 C   0  0  0  0  0  0  0  0  0  0  0  0
  -22.5241   25.2739  -15.0815 C   0  0  0  0  0  0  0  0  0  0  0  0
  -23.6250   25.1439  -15.9122 C   0  0  0  0  0  0  0  0  0  0  0  0
  -23.4899   24.5444  -17.1600 C   0  0  0  0  0  0  0  0  0  0  0  0
  -22.2455   24.0723  -17.5544 C   0  0  0  0  0  0  0  0  0  0  0  0
  -21.1412   24.1920  -16.7060 C   0  0  0  0  0  0  0  0  0  0  0  0
  -19.8142   23.6666  -17.1746 C   0  0  0  0  0  0  0  0  0  0  0  0
  -19.3169   24.1240  -18.2266 O   0  0  0  0  0  0  0  0  0  0  0  0
  -19.2514   22.7727  -16.5035 O   0  0  0  0  0  0  0  0  0  0  0  0
  -19.6526   22.4528  -15.7195 H   0  0  0  0  0  0  0  0  0  0  0  0
 19 20  2  0  0  0
 21 20  1  0  0  0
  9  7  2  0  0  0
 20 13  1  0  0  0
  8  7  1  0  0  0
 32 31  2  0  0  0
  7  2  1  0  0  0
 13 14  2  0  0  0
 13 18  1  0  0  0
 14 15  1  0  0  0
 33 31  1  0  0  0
 11 18  1  0  0  0
 11  1  1  0  0  0
 18 17  2  0  0  0
 15 16  2  0  0  0
 31 30  1  0  0  0
  2  1  2  0  0  0
  2  6  1  0  0  0
 17 16  1  0  0  0
  1  3  1  0  0  0
 23  6  1  0  0  0
 23 25  1  0  0  0
 30 25  2  0  0  0
 30 29  1  0  0  0
  6  5  2  0  0  0
 25 26  1  0  0  0
  3  4  2  0  0  0
 29 28  2  0  0  0
  5  4  1  0  0  0
 26 27  2  0  0  0
 28 27  1  0  0  0
 21 22  1  0  0  0
 11 12  1  0  0  0
  8 10  1  0  0  0
 23 24  1  0  0  0
 33 34  1  0  0  0
M  END
> <minimizedAffinity>
-9.45640

$$$$
4M0R_644_A_600


 34 36  0  0  0  0  0  0  0  0999 V2000
  -17.7580   32.3668  -15.4737 C   0  0  0  0  0  0  0  0  0  0  0  0
  -17.9380   31.0271  -15.8086 C   0  0  0  0  0  0  0  0  0  0  0  0
  -17.1677   32.6478  -14.2354 C   0  0  0  0  0  0  0  0  0  0  0  0
  -16.7534   31.6454  -13.3705 C   0  0  0  0  0  0  0  0  0  0  0  0
  -16.9335   30.3202  -13.7281 C   0  0  0  0  0  0  0  0  0  0  0  0
  -17.5472   30.0054  -14.9404 C   0  0  0  0  0  0  0  0  0  0  0  0
  -18.5508   30.6736  -17.1380 C   0  0  0  0  0  0  0  0  0  0  0  0
  -19.7132   31.0279  -17.4094 O   0  0  0  0  0  0  0  0  0  0  0  0
  -17.8507   30.0501  -17.9712 O   0  0  0  0  0  0  0  0  0  0  0  0
  -20.2215   31.4930  -16.7744 H   0  0  0  0  0  0  0  0  0  0  0  0
  -18.1518   33.3443  -16.3572 N   0  0  0  0  0  0  0  0  0  0  0  0
  -18.6879   33.0342  -17.1225 H   0  0  0  0  0  0  0  0  0  0  0  0
  -18.7396   35.5728  -17.0079 C   0  0  0  0  0  0  0  0  0  0  0  0
  -18.5414   36.9486  -16.9934 C   0  0  0  0  0  0  0  0  0  0  0  0
  -17.4734   37.4998  -16.2970 C   0  0  0  0  0  0  0  0  0  0  0  0
  -16.6125   36.6546  -15.6103 C   0  0  0  0  0  0  0  0  0  0  0  0
  -16.8277   35.2780  -15.6358 C   0  0  0  0  0  0  0  0  0  0  0  0
  -17.8985   34.7016  -16.3182 C   0  0  0  0  0  0  0  0  0  0  0  0
  -19.8061   34.0545  -18.5041 O   0  0  0  0  0  0  0  0  0  0  0  0
  -19.9236   35.0667  -17.7749 C   0  0  0  0  0  0  0  0  0  0  0  0
  -21.0039   35.6902  -17.6379 O   0  0  0  0  0  0  0  0  0  0  0  0
  -21.0431   36.4427  -17.0810 H   0  0  0  0  0  0  0  0  0  0  0  0
  -17.7375   28.6970  -15.2870 N   0  0  0  0  0  0  0  0  0  0  0  0
  -17.1125   28.3052  -15.9390 H   0  0  0  0  0  0  0  0  0  0  0  0
  -18.7328   27.8850  -14.7971 C   0  0  0  0  0  0  0  0  0  0  0  0
  -19.8937   28.3748  -14.1765 C   0  0  0  0  0  0  0  0  0  0  0  0
  -20.8621   27.5231  -13.6707 C   0  0  0  0  0  0  0  0  0  0  0  0
  -20.7071   26.1455  -13.7840 C   0  0  0  0  0  0  0  0  0  0  0  0
  -19.5703   25.6393  -14.3989 C   0  0  0  0  0  0  0  0  0  0  0  0
  -18.5887   26.5027  -14.8937 C   0  0  0  0  0  0  0  0  0  0  0  0
  -17.3750   25.9101  -15.5512 C   0  0  0  0  0  0  0  0  0  0  0  0
  -16.2479   26.3791  -15.2813 O   0  0  0  0  0  0  0  0  0  0  0  0
  -17.5306   24.9712  -16.3639 O   0  0  0  0  0  0  0  0  0  0  0  0
  -18.3901   24.6440  -16.5428 H   0  0  0  0  0  0  0  0  0  0  0  0
 19 20  2  0  0  0
 21 20  1  0  0  0
  9  7  2  0  0  0
 20 13  1  0  0  0
  8  7  1  0  0  0
 32 31  2  0  0  0
  7  2  1  0  0  0
 13 14  2  0  0  0
 13 18  1  0  0  0
 14 15  1  0  0  0
 33 31  1  0  0  0
 11 18  1  0  0  0
 11  1  1  0  0  0
 18 17  2  0  0  0
 15 16  2  0  0  0
 31 30  1  0  0  0
  2  1  2  0  0  0
  2  6  1  0  0  0
 17 16  1  0  0  0
  1  3  1  0  0  0
 23  6  1  0  0  0
 23 25  1  0  0  0
 30 25  2  0  0  0
 30 29  1  0  0  0
  6  5  2  0  0  0
 25 26  1  0  0  0
  3  4  2  0  0  0
 29 28  2  0  0  0
  5  4  1  0  0  0
 26 27  2  0  0  0
 28 27  1  0  0  0
 21 22  1  0  0  0
 11 12  1  0  0  0
  8 10  1  0  0  0
 23 24  1  0  0  0
 33 34  1  0  0  0
M  END
> <minimizedAffinity>
-9.11976

$$$$
4M0R_644_A_600


 34 36  0  0  0  0  0  0  0  0999 V2000
  -17.4056   30.1318  -14.5464 C   0  0  0  0  0  0  0  0  0  0  0  0
  -17.9004   31.0256  -15.4929 C   0  0  0  0  0  0  0  0  0  0  0  0
  -16.7309   30.6693  -13.4434 C   0  0  0  0  0  0  0  0  0  0  0  0
  -16.5683   32.0362  -13.2716 C   0  0  0  0  0  0  0  0  0  0  0  0
  -17.0767   32.9069  -14.2203 C   0  0  0  0  0  0  0  0  0  0  0  0
  -17.7264   32.4036  -15.3473 C   0  0  0  0  0  0  0  0  0  0  0  0
  -18.6504   30.4972  -16.6871 C   0  0  0  0  0  0  0  0  0  0  0  0
  -18.0427   30.2093  -17.7351 O   0  0  0  0  0  0  0  0  0  0  0  0
  -19.8881   30.3217  -16.5850 O   0  0  0  0  0  0  0  0  0  0  0  0
  -17.1177   30.3473  -17.7933 H   0  0  0  0  0  0  0  0  0  0  0  0
  -17.6008   28.7820  -14.7228 N   0  0  0  0  0  0  0  0  0  0  0  0
  -17.0258   28.3544  -15.3979 H   0  0  0  0  0  0  0  0  0  0  0  0
  -19.0048   26.8424  -14.7662 C   0  0  0  0  0  0  0  0  0  0  0  0
  -19.8949   25.9576  -14.1686 C   0  0  0  0  0  0  0  0  0  0  0  0
  -20.3200   26.1601  -12.8618 C   0  0  0  0  0  0  0  0  0  0  0  0
  -19.8353   27.2559  -12.1609 C   0  0  0  0  0  0  0  0  0  0  0  0
  -18.9428   28.1315  -12.7764 C   0  0  0  0  0  0  0  0  0  0  0  0
  -18.4930   27.9439  -14.0829 C   0  0  0  0  0  0  0  0  0  0  0  0
  -17.8401   25.5644  -16.4067 O   0  0  0  0  0  0  0  0  0  0  0  0
  -18.5914   26.5400  -16.1746 C   0  0  0  0  0  0  0  0  0  0  0  0
  -19.0371   27.2905  -17.0761 O   0  0  0  0  0  0  0  0  0  0  0  0
  -19.5964   28.0086  -16.8538 H   0  0  0  0  0  0  0  0  0  0  0  0
  -18.2160   33.2628  -16.2907 N   0  0  0  0  0  0  0  0  0  0  0  0
  -18.8054   32.8869  -16.9839 H   0  0  0  0  0  0  0  0  0  0  0  0
  -17.9505   34.6104  -16.3481 C   0  0  0  0  0  0  0  0  0  0  0  0
  -16.8812   35.2165  -15.6682 C   0  0  0  0  0  0  0  0  0  0  0  0
  -16.6622   36.5830  -15.7289 C   0  0  0  0  0  0  0  0  0  0  0  0
  -17.5018   37.3906  -16.4890 C   0  0  0  0  0  0  0  0  0  0  0  0
  -18.5615   36.8122  -17.1739 C   0  0  0  0  0  0  0  0  0  0  0  0
  -18.7874   35.4349  -17.0968 C   0  0  0  0  0  0  0  0  0  0  0  0
  -19.9465   34.8529  -17.8545 C   0  0  0  0  0  0  0  0  0  0  0  0
  -21.0739   35.3811  -17.7401 O   0  0  0  0  0  0  0  0  0  0  0  0
  -19.7512   33.8436  -18.5683 O   0  0  0  0  0  0  0  0  0  0  0  0
  -18.8928   33.4733  -18.6312 H   0  0  0  0  0  0  0  0  0  0  0  0
 19 20  2  0  0  0
 21 20  1  0  0  0
  9  7  2  0  0  0
 20 13  1  0  0  0
  8  7  1  0  0  0
 32 31  2  0  0  0
  7  2  1  0  0  0
 13 14  2  0  0  0
 13 18  1  0  0  0
 14 15  1  0  0  0
 33 31  1  0  0  0
 11 18  1  0  0  0
 11  1  1  0  0  0
 18 17  2  0  0  0
 15 16  2  0  0  0
 31 30  1  0  0  0
  2  1  2  0  0  0
  2  6  1  0  0  0
 17 16  1  0  0  0
  1  3  1  0  0  0
 23  6  1  0  0  0
 23 25  1  0  0  0
 30 25  2  0  0  0
 30 29  1  0  0  0
  6  5  2  0  0  0
 25 26  1  0  0  0
  3  4  2  0  0  0
 29 28  2  0  0  0
  5  4  1  0  0  0
 26 27  2  0  0  0
 28 27  1  0  0  0
 21 22  1  0  0  0
 11 12  1  0  0  0
  8 10  1  0  0  0
 23 24  1  0  0  0
 33 34  1  0  0  0
M  END
> <minimizedAffinity>
-8.98893

$$$$
4M0R_644_A_600


 34 36  0  0  0  0  0  0  0  0999 V2000
  -21.5735   27.9534  -15.8433 C   0  0  0  0  0  0  0  0  0  0  0  0
  -20.2830   28.3590  -15.5124 C   0  0  0  0  0  0  0  0  0  0  0  0
  -22.1045   28.4172  -17.0531 C   0  0  0  0  0  0  0  0  0  0  0  0
  -21.3825   29.2333  -17.9116 C   0  0  0  0  0  0  0  0  0  0  0  0
  -20.0976   29.6165  -17.5670 C   0  0  0  0  0  0  0  0  0  0  0  0
  -19.5501   29.1983  -16.3543 C   0  0  0  0  0  0  0  0  0  0  0  0
  -19.6607   27.8708  -14.2309 C   0  0  0  0  0  0  0  0  0  0  0  0
  -18.7135   27.0631  -14.2589 O   0  0  0  0  0  0  0  0  0  0  0  0
  -20.0950   28.3249  -13.1454 O   0  0  0  0  0  0  0  0  0  0  0  0
  -18.4022   26.7343  -15.0792 H   0  0  0  0  0  0  0  0  0  0  0  0
  -22.2618   27.1228  -14.9902 N   0  0  0  0  0  0  0  0  0  0  0  0
  -22.7137   27.5675  -14.2371 H   0  0  0  0  0  0  0  0  0  0  0  0
  -23.1568   25.1033  -14.0653 C   0  0  0  0  0  0  0  0  0  0  0  0
  -23.3472   23.7263  -14.0774 C   0  0  0  0  0  0  0  0  0  0  0  0
  -22.7704   22.9435  -15.0693 C   0  0  0  0  0  0  0  0  0  0  0  0
  -22.0076   23.5599  -16.0517 C   0  0  0  0  0  0  0  0  0  0  0  0
  -21.8287   24.9416  -16.0236 C   0  0  0  0  0  0  0  0  0  0  0  0
  -22.4060   25.7502  -15.0450 C   0  0  0  0  0  0  0  0  0  0  0  0
  -24.5139   26.8805  -13.2401 O   0  0  0  0  0  0  0  0  0  0  0  0
  -23.8256   25.8703  -12.9650 C   0  0  0  0  0  0  0  0  0  0  0  0
  -23.6685   25.4469  -11.7943 O   0  0  0  0  0  0  0  0  0  0  0  0
  -23.1441   24.6864  -11.6375 H   0  0  0  0  0  0  0  0  0  0  0  0
  -18.2867   29.5880  -16.0078 N   0  0  0  0  0  0  0  0  0  0  0  0
  -17.5555   28.9481  -16.1659 H   0  0  0  0  0  0  0  0  0  0  0  0
  -17.9564   30.8031  -15.4561 C   0  0  0  0  0  0  0  0  0  0  0  0
  -18.3236   32.0344  -16.0235 C   0  0  0  0  0  0  0  0  0  0  0  0
  -17.9482   33.2391  -15.4518 C   0  0  0  0  0  0  0  0  0  0  0  0
  -17.2020   33.2513  -14.2781 C   0  0  0  0  0  0  0  0  0  0  0  0
  -16.8329   32.0461  -13.6967 C   0  0  0  0  0  0  0  0  0  0  0  0
  -17.2009   30.8333  -14.2860 C   0  0  0  0  0  0  0  0  0  0  0  0
  -16.7790   29.5538  -13.6217 C   0  0  0  0  0  0  0  0  0  0  0  0
  -16.0162   28.7746  -14.2333 O   0  0  0  0  0  0  0  0  0  0  0  0
  -17.2175   29.2982  -12.4777 O   0  0  0  0  0  0  0  0  0  0  0  0
  -17.7876   29.9051  -12.0481 H   0  0  0  0  0  0  0  0  0  0  0  0
 19 20  2  0  0  0
 21 20  1  0  0  0
  9  7  2  0  0  0
 20 13  1  0  0  0
  8  7  1  0  0  0
 32 31  2  0  0  0
  7  2  1  0  0  0
 13 14  2  0  0  0
 13 18  1  0  0  0
 14 15  1  0  0  0
 33 31  1  0  0  0
 11 18  1  0  0  0
 11  1  1  0  0  0
 18 17  2  0  0  0
 15 16  2  0  0  0
 31 30  1  0  0  0
  2  1  2  0  0  0
  2  6  1  0  0  0
 17 16  1  0  0  0
  1  3  1  0  0  0
 23  6  1  0  0  0
 23 25  1  0  0  0
 30 25  2  0  0  0
 30 29  1  0  0  0
  6  5  2  0  0  0
 25 26  1  0  0  0
  3  4  2  0  0  0
 29 28  2  0  0  0
  5  4  1  0  0  0
 26 27  2  0  0  0
 28 27  1  0  0  0
 21 22  1  0  0  0
 11 12  1  0  0  0
  8 10  1  0  0  0
 23 24  1  0  0  0
 33 34  1  0  0  0
M  END
> <minimizedAffinity>
-8.17749

$$$$
4M0R_644_A_600


 34 36  0  0  0  0  0  0  0  0999 V2000
  -21.2301   27.0327  -16.4159 C   0  0  0  0  0  0  0  0  0  0  0  0
  -19.9392   27.5084  -16.2001 C   0  0  0  0  0  0  0  0  0  0  0  0
  -22.1276   27.8812  -17.0755 C   0  0  0  0  0  0  0  0  0  0  0  0
  -21.7595   29.1420  -17.5220 C   0  0  0  0  0  0  0  0  0  0  0  0
  -20.4680   29.5908  -17.3050 C   0  0  0  0  0  0  0  0  0  0  0  0
  -19.5578   28.7836  -16.6230 C   0  0  0  0  0  0  0  0  0  0  0  0
  -18.9317   26.6255  -15.5121 C   0  0  0  0  0  0  0  0  0  0  0  0
  -19.1403   26.2154  -14.3551 O   0  0  0  0  0  0  0  0  0  0  0  0
  -17.9031   26.2875  -16.1453 O   0  0  0  0  0  0  0  0  0  0  0  0
  -19.9144   26.4784  -13.8973 H   0  0  0  0  0  0  0  0  0  0  0  0
  -21.5664   25.7695  -15.9885 N   0  0  0  0  0  0  0  0  0  0  0  0
  -21.2060   25.0287  -16.5276 H   0  0  0  0  0  0  0  0  0  0  0  0
  -22.3107   24.0748  -14.4690 C   0  0  0  0  0  0  0  0  0  0  0  0
  -23.0579   23.6465  -13.3778 C   0  0  0  0  0  0  0  0  0  0  0  0
  -23.8814   24.5330  -12.6956 C   0  0  0  0  0  0  0  0  0  0  0  0
  -23.9396   25.8544  -13.1169 C   0  0  0  0  0  0  0  0  0  0  0  0
  -23.1826   26.2654  -14.2123 C   0  0  0  0  0  0  0  0  0  0  0  0
  -22.3405   25.3975  -14.9067 C   0  0  0  0  0  0  0  0  0  0  0  0
  -20.2132   23.2685  -15.2635 O   0  0  0  0  0  0  0  0  0  0  0  0
  -21.4412   23.0536  -15.1378 C   0  0  0  0  0  0  0  0  0  0  0  0
  -21.9971   22.0028  -15.5396 O   0  0  0  0  0  0  0  0  0  0  0  0
  -22.9196   21.8869  -15.4233 H   0  0  0  0  0  0  0  0  0  0  0  0
  -18.2868   29.2324  -16.3967 N   0  0  0  0  0  0  0  0  0  0  0  0
  -17.5451   28.6936  -16.7556 H   0  0  0  0  0  0  0  0  0  0  0  0
  -17.9624   30.3768  -15.7074 C   0  0  0  0  0  0  0  0  0  0  0  0
  -18.2524   31.6688  -16.1758 C   0  0  0  0  0  0  0  0  0  0  0  0
  -17.8848   32.7994  -15.4647 C   0  0  0  0  0  0  0  0  0  0  0  0
  -17.2248   32.6731  -14.2469 C   0  0  0  0  0  0  0  0  0  0  0  0
  -16.9330   31.4057  -13.7620 C   0  0  0  0  0  0  0  0  0  0  0  0
  -17.2923   30.2684  -14.4908 C   0  0  0  0  0  0  0  0  0  0  0  0
  -16.9560   28.9172  -13.9273 C   0  0  0  0  0  0  0  0  0  0  0  0
  -17.5846   28.5015  -12.9297 O   0  0  0  0  0  0  0  0  0  0  0  0
  -16.0429   28.2522  -14.4660 O   0  0  0  0  0  0  0  0  0  0  0  0
  -15.5922   28.5944  -15.2129 H   0  0  0  0  0  0  0  0  0  0  0  0
 19 20  2  0  0  0
 21 20  1  0  0  0
  9  7  2  0  0  0
 20 13  1  0  0  0
  8  7  1  0  0  0
 32 31  2  0  0  0
  7  2  1  0  0  0
 13 14  2  0  0  0
 13 18  1  0  0  0
 14 15  1  0  0  0
 33 31  1  0  0  0
 11 18  1  0  0  0
 11  1  1  0  0  0
 18 17  2  0  0  0
 15 16  2  0  0  0
 31 30  1  0  0  0
  2  1  2  0  0  0
  2  6  1  0  0  0
 17 16  1  0  0  0
  1  3  1  0  0  0
 23  6  1  0  0  0
 23 25  1  0  0  0
 30 25  2  0  0  0
 30 29  1  0  0  0
  6  5  2  0  0  0
 25 26  1  0  0  0
  3  4  2  0  0  0
 29 28  2  0  0  0
  5  4  1  0  0  0
 26 27  2  0  0  0
 28 27  1  0  0  0
 21 22  1  0  0  0
 11 12  1  0  0  0
  8 10  1  0  0  0
 23 24  1  0  0  0
 33 34  1  0  0  0
M  END
> <minimizedAffinity>
-8.13729

$$$$
4M0R_644_A_600


 34 36  0  0  0  0  0  0  0  0999 V2000
  -19.5065   27.4987  -15.0923 C   0  0  0  0  0  0  0  0  0  0  0  0
  -19.5808   26.1286  -15.3304 C   0  0  0  0  0  0  0  0  0  0  0  0
  -20.6328   28.1183  -14.5371 C   0  0  0  0  0  0  0  0  0  0  0  0
  -21.7801   27.4096  -14.2116 C   0  0  0  0  0  0  0  0  0  0  0  0
  -21.8285   26.0465  -14.4482 C   0  0  0  0  0  0  0  0  0  0  0  0
  -20.7358   25.4035  -15.0296 C   0  0  0  0  0  0  0  0  0  0  0  0
  -18.3882   25.4133  -15.9084 C   0  0  0  0  0  0  0  0  0  0  0  0
  -18.4732   24.8346  -17.0076 O   0  0  0  0  0  0  0  0  0  0  0  0
  -17.3064   25.4480  -15.2747 O   0  0  0  0  0  0  0  0  0  0  0  0
  -19.2898   24.8189  -17.4669 H   0  0  0  0  0  0  0  0  0  0  0  0
  -18.3500   28.1773  -15.3979 N   0  0  0  0  0  0  0  0  0  0  0  0
  -17.6958   27.6792  -15.9395 H   0  0  0  0  0  0  0  0  0  0  0  0
  -16.9741   29.6492  -14.1037 C   0  0  0  0  0  0  0  0  0  0  0  0
  -16.5516   30.9181  -13.7243 C   0  0  0  0  0  0  0  0  0  0  0  0
  -17.1420   32.0505  -14.2707 C   0  0  0  0  0  0  0  0  0  0  0  0
  -18.1549   31.8935  -15.2069 C   0  0  0  0  0  0  0  0  0  0  0  0
  -18.5644   30.6135  -15.5754 C   0  0  0  0  0  0  0  0  0  0  0  0
  -17.9803   29.4617  -15.0495 C   0  0  0  0  0  0  0  0  0  0  0  0
  -16.1940   28.4087  -12.2238 O   0  0  0  0  0  0  0  0  0  0  0  0
  -16.2735   28.4846  -13.4720 C   0  0  0  0  0  0  0  0  0  0  0  0
  -15.7983   27.6156  -14.2425 O   0  0  0  0  0  0  0  0  0  0  0  0
  -15.8824   27.7157  -15.1703 H   0  0  0  0  0  0  0  0  0  0  0  0
  -20.7890   24.0601  -15.2760 N   0  0  0  0  0  0  0  0  0  0  0  0
  -19.9545   23.5475  -15.1759 H   0  0  0  0  0  0  0  0  0  0  0  0
  -21.9157   23.3683  -15.6524 C   0  0  0  0  0  0  0  0  0  0  0  0
  -22.9227   22.9837  -14.7520 C   0  0  0  0  0  0  0  0  0  0  0  0
  -24.0312   22.2630  -15.1654 C   0  0  0  0  0  0  0  0  0  0  0  0
  -24.1768   21.9150  -16.5042 C   0  0  0  0  0  0  0  0  0  0  0  0
  -23.1966   22.2897  -17.4128 C   0  0  0  0  0  0  0  0  0  0  0  0
  -22.0725   23.0033  -16.9878 C   0  0  0  0  0  0  0  0  0  0  0  0
  -21.0372   23.3873  -18.0061 C   0  0  0  0  0  0  0  0  0  0  0  0
  -21.1287   24.4957  -18.5774 O   0  0  0  0  0  0  0  0  0  0  0  0
  -20.1192   22.5768  -18.2642 O   0  0  0  0  0  0  0  0  0  0  0  0
  -20.0809   21.7544  -17.8169 H   0  0  0  0  0  0  0  0  0  0  0  0
 19 20  2  0  0  0
 21 20  1  0  0  0
  9  7  2  0  0  0
 20 13  1  0  0  0
  8  7  1  0  0  0
 32 31  2  0  0  0
  7  2  1  0  0  0
 13 14  2  0  0  0
 13 18  1  0  0  0
 14 15  1  0  0  0
 33 31  1  0  0  0
 11 18  1  0  0  0
 11  1  1  0  0  0
 18 17  2  0  0  0
 15 16  2  0  0  0
 31 30  1  0  0  0
  2  1  2  0  0  0
  2  6  1  0  0  0
 17 16  1  0  0  0
  1  3  1  0  0  0
 23  6  1  0  0  0
 23 25  1  0  0  0
 30 25  2  0  0  0
 30 29  1  0  0  0
  6  5  2  0  0  0
 25 26  1  0  0  0
  3  4  2  0  0  0
 29 28  2  0  0  0
  5  4  1  0  0  0
 26 27  2  0  0  0
 28 27  1  0  0  0
 21 22  1  0  0  0
 11 12  1  0  0  0
  8 10  1  0  0  0
 23 24  1  0  0  0
 33 34  1  0  0  0
M  END
> <minimizedAffinity>
-8.06576

$$$$
4M0R_644_A_600


 34 36  0  0  0  0  0  0  0  0999 V2000
  -17.9578   36.6237  -16.6387 C   0  0  0  0  0  0  0  0  0  0  0  0
  -18.4378   35.3211  -16.7496 C   0  0  0  0  0  0  0  0  0  0  0  0
  -16.8202   36.8260  -15.8477 C   0  0  0  0  0  0  0  0  0  0  0  0
  -16.1705   35.7807  -15.2076 C   0  0  0  0  0  0  0  0  0  0  0  0
  -16.6596   34.4924  -15.3395 C   0  0  0  0  0  0  0  0  0  0  0  0
  -17.8094   34.2600  -16.0941 C   0  0  0  0  0  0  0  0  0  0  0  0
  -19.6473   35.0496  -17.6048 C   0  0  0  0  0  0  0  0  0  0  0  0
  -20.6599   35.7678  -17.5091 O   0  0  0  0  0  0  0  0  0  0  0  0
  -19.5928   34.1112  -18.4352 O   0  0  0  0  0  0  0  0  0  0  0  0
  -20.6827   36.4644  -16.8829 H   0  0  0  0  0  0  0  0  0  0  0  0
  -18.6016   37.6413  -17.3030 N   0  0  0  0  0  0  0  0  0  0  0  0
  -19.5851   37.5981  -17.2953 H   0  0  0  0  0  0  0  0  0  0  0  0
  -17.8342   38.6159  -19.3514 C   0  0  0  0  0  0  0  0  0  0  0  0
  -17.3022   39.6692  -20.0862 C   0  0  0  0  0  0  0  0  0  0  0  0
  -16.9555   40.8604  -19.4615 C   0  0  0  0  0  0  0  0  0  0  0  0
  -17.1564   40.9837  -18.0935 C   0  0  0  0  0  0  0  0  0  0  0  0
  -17.6918   39.9173  -17.3738 C   0  0  0  0  0  0  0  0  0  0  0  0
  -18.0576   38.7157  -17.9795 C   0  0  0  0  0  0  0  0  0  0  0  0
  -19.3936   37.0561  -20.2550 O   0  0  0  0  0  0  0  0  0  0  0  0
  -18.1901   37.3727  -20.1090 C   0  0  0  0  0  0  0  0  0  0  0  0
  -17.2427   36.6986  -20.5809 O   0  0  0  0  0  0  0  0  0  0  0  0
  -16.3578   36.9754  -20.4456 H   0  0  0  0  0  0  0  0  0  0  0  0
  -18.3001   32.9899  -16.2129 N   0  0  0  0  0  0  0  0  0  0  0  0
  -19.0104   32.8386  -16.8776 H   0  0  0  0  0  0  0  0  0  0  0  0
  -17.8802   31.9071  -15.4773 C   0  0  0  0  0  0  0  0  0  0  0  0
  -17.2517   32.0200  -14.2263 C   0  0  0  0  0  0  0  0  0  0  0  0
  -16.8180   30.9054  -13.5274 C   0  0  0  0  0  0  0  0  0  0  0  0
  -17.0141   29.6328  -14.0533 C   0  0  0  0  0  0  0  0  0  0  0  0
  -17.6383   29.4971  -15.2857 C   0  0  0  0  0  0  0  0  0  0  0  0
  -18.0601   30.6258  -15.9941 C   0  0  0  0  0  0  0  0  0  0  0  0
  -18.7308   30.4310  -17.3240 C   0  0  0  0  0  0  0  0  0  0  0  0
  -19.9680   30.5897  -17.4095 O   0  0  0  0  0  0  0  0  0  0  0  0
  -18.0305   30.0995  -18.3068 O   0  0  0  0  0  0  0  0  0  0  0  0
  -17.1054   29.9892  -18.2070 H   0  0  0  0  0  0  0  0  0  0  0  0
 19 20  2  0  0  0
 21 20  1  0  0  0
  9  7  2  0  0  0
 20 13  1  0  0  0
  8  7  1  0  0  0
 32 31  2  0  0  0
  7  2  1  0  0  0
 13 14  2  0  0  0
 13 18  1  0  0  0
 14 15  1  0  0  0
 33 31  1  0  0  0
 11 18  1  0  0  0
 11  1  1  0  0  0
 18 17  2  0  0  0
 15 16  2  0  0  0
 31 30  1  0  0  0
  2  1  2  0  0  0
  2  6  1  0  0  0
 17 16  1  0  0  0
  1  3  1  0  0  0
 23  6  1  0  0  0
 23 25  1  0  0  0
 30 25  2  0  0  0
 30 29  1  0  0  0
  6  5  2  0  0  0
 25 26  1  0  0  0
  3  4  2  0  0  0
 29 28  2  0  0  0
  5  4  1  0  0  0
 26 27  2  0  0  0
 28 27  1  0  0  0
 21 22  1  0  0  0
 11 12  1  0  0  0
  8 10  1  0  0  0
 23 24  1  0  0  0
 33 34  1  0  0  0
M  END
> <minimizedAffinity>
-7.94233

$$$$
4M0R_644_A_600


 34 36  0  0  0  0  0  0  0  0999 V2000
  -19.5358   28.7039  -16.5064 C   0  0  0  0  0  0  0  0  0  0  0  0
  -19.8789   27.4150  -16.1056 C   0  0  0  0  0  0  0  0  0  0  0  0
  -20.5157   29.4558  -17.1659 C   0  0  0  0  0  0  0  0  0  0  0  0
  -21.7903   28.9621  -17.4029 C   0  0  0  0  0  0  0  0  0  0  0  0
  -22.1125   27.6815  -16.9872 C   0  0  0  0  0  0  0  0  0  0  0  0
  -21.1501   26.8937  -16.3557 C   0  0  0  0  0  0  0  0  0  0  0  0
  -18.8654   26.5739  -15.3753 C   0  0  0  0  0  0  0  0  0  0  0  0
  -17.8118   26.2260  -15.9403 O   0  0  0  0  0  0  0  0  0  0  0  0
  -19.0934   26.2676  -14.1806 O   0  0  0  0  0  0  0  0  0  0  0  0
  -17.6585   26.4639  -16.8335 H   0  0  0  0  0  0  0  0  0  0  0  0
  -18.2750   29.1832  -16.2381 N   0  0  0  0  0  0  0  0  0  0  0  0
  -17.5311   28.6365  -16.5800 H   0  0  0  0  0  0  0  0  0  0  0  0
  -17.1469   30.2131  -14.3938 C   0  0  0  0  0  0  0  0  0  0  0  0
  -16.7385   31.3292  -13.6727 C   0  0  0  0  0  0  0  0  0  0  0  0
  -17.1000   32.6056  -14.0844 C   0  0  0  0  0  0  0  0  0  0  0  0
  -17.8691   32.7479  -15.2313 C   0  0  0  0  0  0  0  0  0  0  0  0
  -18.2683   31.6173  -15.9415 C   0  0  0  0  0  0  0  0  0  0  0  0
  -17.9093   30.3266  -15.5548 C   0  0  0  0  0  0  0  0  0  0  0  0
  -17.0766   28.4845  -12.7541 O   0  0  0  0  0  0  0  0  0  0  0  0
  -16.7011   28.8762  -13.8836 C   0  0  0  0  0  0  0  0  0  0  0  0
  -15.9641   28.1931  -14.6350 O   0  0  0  0  0  0  0  0  0  0  0  0
  -15.7091   28.5284  -15.4720 H   0  0  0  0  0  0  0  0  0  0  0  0
  -21.4642   25.6245  -15.9578 N   0  0  0  0  0  0  0  0  0  0  0  0
  -20.9987   24.8810  -16.4047 H   0  0  0  0  0  0  0  0  0  0  0  0
  -22.3789   25.3040  -14.9828 C   0  0  0  0  0  0  0  0  0  0  0  0
  -22.7657   26.1914  -13.9651 C   0  0  0  0  0  0  0  0  0  0  0  0
  -23.6708   25.8219  -12.9836 C   0  0  0  0  0  0  0  0  0  0  0  0
  -24.2336   24.5501  -12.9974 C   0  0  0  0  0  0  0  0  0  0  0  0
  -23.8701   23.6584  -13.9972 C   0  0  0  0  0  0  0  0  0  0  0  0
  -22.9446   24.0309  -14.9762 C   0  0  0  0  0  0  0  0  0  0  0  0
  -22.5810   23.0332  -16.0386 C   0  0  0  0  0  0  0  0  0  0  0  0
  -22.6273   23.3798  -17.2390 O   0  0  0  0  0  0  0  0  0  0  0  0
  -22.2559   21.8761  -15.6897 O   0  0  0  0  0  0  0  0  0  0  0  0
  -22.2316   21.6504  -14.7806 H   0  0  0  0  0  0  0  0  0  0  0  0
 19 20  2  0  0  0
 21 20  1  0  0  0
  9  7  2  0  0  0
 20 13  1  0  0  0
  8  7  1  0  0  0
 32 31  2  0  0  0
  7  2  1  0  0  0
 13 14  2  0  0  0
 13 18  1  0  0  0
 14 15  1  0  0  0
 33 31  1  0  0  0
 11 18  1  0  0  0
 11  1  1  0  0  0
 18 17  2  0  0  0
 15 16  2  0  0  0
 31 30  1  0  0  0
  2  1  2  0  0  0
  2  6  1  0  0  0
 17 16  1  0  0  0
  1  3  1  0  0  0
 23  6  1  0  0  0
 23 25  1  0  0  0
 30 25  2  0  0  0
 30 29  1  0  0  0
  6  5  2  0  0  0
 25 26  1  0  0  0
  3  4  2  0  0  0
 29 28  2  0  0  0
  5  4  1  0  0  0
 26 27  2  0  0  0
 28 27  1  0  0  0
 21 22  1  0  0  0
 11 12  1  0  0  0
  8 10  1  0  0  0
 23 24  1  0  0  0
 33 34  1  0  0  0
M  END
> <minimizedAffinity>
-7.91011

$$$$
4M0R_644_A_600


 34 36  0  0  0  0  0  0  0  0999 V2000
  -19.5058   28.9170  -16.2189 C   0  0  0  0  0  0  0  0  0  0  0  0
  -19.9266   27.7903  -15.5168 C   0  0  0  0  0  0  0  0  0  0  0  0
  -20.3977   29.4681  -17.1471 C   0  0  0  0  0  0  0  0  0  0  0  0
  -21.6625   28.9395  -17.3595 C   0  0  0  0  0  0  0  0  0  0  0  0
  -22.0635   27.8246  -16.6435 C   0  0  0  0  0  0  0  0  0  0  0  0
  -21.1880   27.2316  -15.7340 C   0  0  0  0  0  0  0  0  0  0  0  0
  -19.0106   27.1726  -14.4934 C   0  0  0  0  0  0  0  0  0  0  0  0
  -17.9651   26.5978  -14.8499 O   0  0  0  0  0  0  0  0  0  0  0  0
  -19.3088   27.2847  -13.2803 O   0  0  0  0  0  0  0  0  0  0  0  0
  -17.7586   26.5235  -15.7609 H   0  0  0  0  0  0  0  0  0  0  0  0
  -18.2579   29.4405  -15.9739 N   0  0  0  0  0  0  0  0  0  0  0  0
  -17.4996   28.8575  -16.2067 H   0  0  0  0  0  0  0  0  0  0  0  0
  -17.0937   30.7320  -14.3272 C   0  0  0  0  0  0  0  0  0  0  0  0
  -16.7122   31.9430  -13.7614 C   0  0  0  0  0  0  0  0  0  0  0  0
  -17.1683   33.1434  -14.2909 C   0  0  0  0  0  0  0  0  0  0  0  0
  -18.0048   33.1133  -15.3983 C   0  0  0  0  0  0  0  0  0  0  0  0
  -18.3757   31.8897  -15.9524 C   0  0  0  0  0  0  0  0  0  0  0  0
  -17.9225   30.6720  -15.4459 C   0  0  0  0  0  0  0  0  0  0  0  0
  -16.7035   29.2880  -12.4714 O   0  0  0  0  0  0  0  0  0  0  0  0
  -16.5448   29.4873  -13.6983 C   0  0  0  0  0  0  0  0  0  0  0  0
  -15.9476   28.6805  -14.4513 O   0  0  0  0  0  0  0  0  0  0  0  0
  -15.8534   28.8729  -15.3635 H   0  0  0  0  0  0  0  0  0  0  0  0
  -21.5789   26.1227  -15.0372 N   0  0  0  0  0  0  0  0  0  0  0  0
  -21.1850   25.9853  -14.1455 H   0  0  0  0  0  0  0  0  0  0  0  0
  -22.4789   25.1841  -15.4833 C   0  0  0  0  0  0  0  0  0  0  0  0
  -22.2122   24.3003  -16.5419 C   0  0  0  0  0  0  0  0  0  0  0  0
  -23.1557   23.3859  -16.9808 C   0  0  0  0  0  0  0  0  0  0  0  0
  -24.3988   23.3148  -16.3609 C   0  0  0  0  0  0  0  0  0  0  0  0
  -24.6821   24.1748  -15.3088 C   0  0  0  0  0  0  0  0  0  0  0  0
  -23.7322   25.1062  -14.8799 C   0  0  0  0  0  0  0  0  0  0  0  0
  -24.0826   26.0168  -13.7378 C   0  0  0  0  0  0  0  0  0  0  0  0
  -24.1534   25.5432  -12.5829 O   0  0  0  0  0  0  0  0  0  0  0  0
  -24.3090   27.2236  -13.9797 O   0  0  0  0  0  0  0  0  0  0  0  0
  -24.2468   27.5451  -14.8577 H   0  0  0  0  0  0  0  0  0  0  0  0
 19 20  2  0  0  0
 21 20  1  0  0  0
  9  7  2  0  0  0
 20 13  1  0  0  0
  8  7  1  0  0  0
 32 31  2  0  0  0
  7  2  1  0  0  0
 13 14  2  0  0  0
 13 18  1  0  0  0
 14 15  1  0  0  0
 33 31  1  0  0  0
 11 18  1  0  0  0
 11  1  1  0  0  0
 18 17  2  0  0  0
 15 16  2  0  0  0
 31 30  1  0  0  0
  2  1  2  0  0  0
  2  6  1  0  0  0
 17 16  1  0  0  0
  1  3  1  0  0  0
 23  6  1  0  0  0
 23 25  1  0  0  0
 30 25  2  0  0  0
 30 29  1  0  0  0
  6  5  2  0  0  0
 25 26  1  0  0  0
  3  4  2  0  0  0
 29 28  2  0  0  0
  5  4  1  0  0  0
 26 27  2  0  0  0
 28 27  1  0  0  0
 21 22  1  0  0  0
 11 12  1  0  0  0
  8 10  1  0  0  0
 23 24  1  0  0  0
 33 34  1  0  0  0
M  END
> <minimizedAffinity>
-7.88174

$$$$
