4XXH_T6P_A_401


 36 37  0  0  0  0  0  0  0  0999 V2000
   28.1353  -10.2757   25.9781 C   0  0  0  0  0  0  0  0  0  0  0  0
   28.4932  -10.9576   24.6532 C   0  0  0  0  0  0  0  0  0  0  0  0
   29.9500  -11.4243   24.6212 C   0  0  0  0  0  0  0  0  0  0  0  0
   30.8709  -10.2822   25.0231 C   0  0  0  0  0  0  0  0  0  0  0  0
   30.4429   -9.7761   26.4001 C   0  0  0  0  0  0  0  0  0  0  0  0
   27.6409  -12.0626   24.3879 O   0  0  0  0  0  0  0  0  0  0  0  0
   30.3082  -11.8358   23.3064 O   0  0  0  0  0  0  0  0  0  0  0  0
   32.2255  -10.7252   24.9975 O   0  0  0  0  0  0  0  0  0  0  0  0
   29.0894   -9.2797   26.3259 O   0  0  0  0  0  0  0  0  0  0  0  0
   27.7615  -12.7363   25.0753 H   0  0  0  0  0  0  0  0  0  0  0  0
   30.2131  -11.0877   22.6964 H   0  0  0  0  0  0  0  0  0  0  0  0
   32.3348  -11.4670   25.6128 H   0  0  0  0  0  0  0  0  0  0  0  0
   28.0741  -11.2435   27.0107 O   0  0  0  0  0  0  0  0  0  0  0  0
   27.1662  -10.9442   28.0628 C   0  0  0  0  0  0  0  0  0  0  0  0
   27.1870  -12.0891   29.0759 C   0  0  0  0  0  0  0  0  0  0  0  0
   26.5774  -13.3570   28.4761 C   0  0  0  0  0  0  0  0  0  0  0  0
   25.2163  -13.0658   27.8662 C   0  0  0  0  0  0  0  0  0  0  0  0
   25.3200  -11.9051   26.8822 C   0  0  0  0  0  0  0  0  0  0  0  0
   28.5193  -12.3350   29.5098 O   0  0  0  0  0  0  0  0  0  0  0  0
   26.3999  -14.3438   29.4830 O   0  0  0  0  0  0  0  0  0  0  0  0
   24.7533  -14.2099   27.1813 O   0  0  0  0  0  0  0  0  0  0  0  0
   25.8481  -10.7533   27.5695 O   0  0  0  0  0  0  0  0  0  0  0  0
   29.0640  -12.5946   28.7502 H   0  0  0  0  0  0  0  0  0  0  0  0
   25.7896  -14.0099   30.1590 H   0  0  0  0  0  0  0  0  0  0  0  0
   25.3769  -14.4378   26.4741 H   0  0  0  0  0  0  0  0  0  0  0  0
   23.9830  -11.5141   26.2982 C   0  0  0  0  0  0  0  0  0  0  0  0
   22.9535  -11.5819   27.2714 O   0  0  0  0  0  0  0  0  0  0  0  0
   23.1516  -10.9670   27.9950 H   0  0  0  0  0  0  0  0  0  0  0  0
   31.3079   -8.6618   26.9291 C   0  0  0  0  0  0  0  0  0  0  0  0
   30.5305   -7.4579   26.9190 O   0  0  0  0  0  0  0  0  0  0  0  0
   31.2510   -6.0471   26.6924 P   0  0  0  0  0  0  0  0  0  0  0  0
   32.4278   -6.3091   25.7864 O   0  0  0  0  0  0  0  0  0  0  0  0
   31.6590   -5.5671   28.0321 O   0  0  0  0  0  0  0  0  0  0  0  0
   30.2514   -5.1484   25.9613 O   0  0  0  0  0  0  0  0  0  0  0  0
   32.1094   -6.6204   24.9246 H   0  0  0  0  0  0  0  0  0  0  0  0
   30.8698   -5.4138   28.5749 H   0  0  0  0  0  0  0  0  0  0  0  0
  7  3  1  0  0  0
  6  2  1  0  0  0
  3  2  1  0  0  0
  3  4  1  0  0  0
  2  1  1  0  0  0
  8  4  1  0  0  0
  4  5  1  0  0  0
 34 31  2  0  0  0
 27 26  1  0  0  0
  1  9  1  0  0  0
  1 13  1  0  0  0
 30 31  1  0  0  0
 30 29  1  0  0  0
  9  5  1  0  0  0
  5 29  1  0  0  0
 31 32  1  0  0  0
 31 33  1  0  0  0
 26 18  1  0  0  0
 13 14  1  0  0  0
 18 22  1  0  0  0
 18 17  1  0  0  0
 21 17  1  0  0  0
 22 14  1  0  0  0
 14 15  1  0  0  0
 17 16  1  0  0  0
 16 15  1  0  0  0
 16 20  1  0  0  0
 15 19  1  0  0  0
 19 23  1  0  0  0
 20 24  1  0  0  0
 21 25  1  0  0  0
 27 28  1  0  0  0
  6 10  1  0  0  0
  7 11  1  0  0  0
  8 12  1  0  0  0
 32 35  1  0  0  0
 33 36  1  0  0  0
M  END
> <minimizedAffinity>
-10.92710

$$$$
4XXH_T6P_A_401


 36 37  0  0  0  0  0  0  0  0999 V2000
   27.7924  -12.0530   24.9350 C   0  0  0  0  0  0  0  0  0  0  0  0
   27.0477  -11.4792   23.7248 C   0  0  0  0  0  0  0  0  0  0  0  0
   25.8268  -10.6549   24.1381 C   0  0  0  0  0  0  0  0  0  0  0  0
   24.9626  -11.4531   25.1024 C   0  0  0  0  0  0  0  0  0  0  0  0
   25.8242  -11.8705   26.2935 C   0  0  0  0  0  0  0  0  0  0  0  0
   27.9011  -10.6806   22.9173 O   0  0  0  0  0  0  0  0  0  0  0  0
   25.0355  -10.3382   22.9980 O   0  0  0  0  0  0  0  0  0  0  0  0
   23.8307  -10.6775   25.4885 O   0  0  0  0  0  0  0  0  0  0  0  0
   26.9034  -12.7099   25.8303 O   0  0  0  0  0  0  0  0  0  0  0  0
   28.2075   -9.9155   23.4290 H   0  0  0  0  0  0  0  0  0  0  0  0
   24.7249  -11.1577   22.5822 H   0  0  0  0  0  0  0  0  0  0  0  0
   24.1297   -9.8596   25.9157 H   0  0  0  0  0  0  0  0  0  0  0  0
   28.4597  -11.0096   25.6224 O   0  0  0  0  0  0  0  0  0  0  0  0
   29.4778  -11.4345   26.5189 C   0  0  0  0  0  0  0  0  0  0  0  0
   29.5165  -10.4804   27.7129 C   0  0  0  0  0  0  0  0  0  0  0  0
   30.0173   -9.0989   27.2889 C   0  0  0  0  0  0  0  0  0  0  0  0
   31.3208   -9.2106   26.5156 C   0  0  0  0  0  0  0  0  0  0  0  0
   31.1617  -10.1918   25.3588 C   0  0  0  0  0  0  0  0  0  0  0  0
   28.2259  -10.3818   28.3031 O   0  0  0  0  0  0  0  0  0  0  0  0
   30.2583   -8.2888   28.4313 O   0  0  0  0  0  0  0  0  0  0  0  0
   31.6718   -7.9444   26.0001 O   0  0  0  0  0  0  0  0  0  0  0  0
   30.7464  -11.4695   25.8812 O   0  0  0  0  0  0  0  0  0  0  0  0
   27.5995  -10.0264   27.6534 H   0  0  0  0  0  0  0  0  0  0  0  0
   30.9444   -8.6998   28.9802 H   0  0  0  0  0  0  0  0  0  0  0  0
   30.9733   -7.6332   25.4034 H   0  0  0  0  0  0  0  0  0  0  0  0
   32.4473  -10.4074   24.5956 C   0  0  0  0  0  0  0  0  0  0  0  0
   32.8559   -9.2256   23.9262 O   0  0  0  0  0  0  0  0  0  0  0  0
   33.0121   -8.5231   24.5766 H   0  0  0  0  0  0  0  0  0  0  0  0
   25.0681  -12.6403   27.3450 C   0  0  0  0  0  0  0  0  0  0  0  0
   25.6206  -12.2998   28.6228 O   0  0  0  0  0  0  0  0  0  0  0  0
   26.4298  -13.3986   29.4584 P   0  0  0  0  0  0  0  0  0  0  0  0
   27.1882  -14.2274   28.4522 O   0  0  0  0  0  0  0  0  0  0  0  0
   25.4193  -14.1865   30.1999 O   0  0  0  0  0  0  0  0  0  0  0  0
   27.4308  -12.6436   30.3357 O   0  0  0  0  0  0  0  0  0  0  0  0
   27.8354  -13.6682   27.9946 H   0  0  0  0  0  0  0  0  0  0  0  0
   24.9607  -13.6111   30.8319 H   0  0  0  0  0  0  0  0  0  0  0  0
  7  3  1  0  0  0
  6  2  1  0  0  0
  3  2  1  0  0  0
  3  4  1  0  0  0
  2  1  1  0  0  0
  8  4  1  0  0  0
  4  5  1  0  0  0
 34 31  2  0  0  0
 27 26  1  0  0  0
  1  9  1  0  0  0
  1 13  1  0  0  0
 30 31  1  0  0  0
 30 29  1  0  0  0
  9  5  1  0  0  0
  5 29  1  0  0  0
 31 32  1  0  0  0
 31 33  1  0  0  0
 26 18  1  0  0  0
 13 14  1  0  0  0
 18 22  1  0  0  0
 18 17  1  0  0  0
 21 17  1  0  0  0
 22 14  1  0  0  0
 14 15  1  0  0  0
 17 16  1  0  0  0
 16 15  1  0  0  0
 16 20  1  0  0  0
 15 19  1  0  0  0
 19 23  1  0  0  0
 20 24  1  0  0  0
 21 25  1  0  0  0
 27 28  1  0  0  0
  6 10  1  0  0  0
  7 11  1  0  0  0
  8 12  1  0  0  0
 32 35  1  0  0  0
 33 36  1  0  0  0
M  END
> <minimizedAffinity>
-10.16456

$$$$
4XXH_T6P_A_401


 36 37  0  0  0  0  0  0  0  0999 V2000
   28.1302   -9.9869   25.8387 C   0  0  0  0  0  0  0  0  0  0  0  0
   28.4985  -10.7629   24.5697 C   0  0  0  0  0  0  0  0  0  0  0  0
   29.9189  -11.3281   24.6324 C   0  0  0  0  0  0  0  0  0  0  0  0
   30.8987  -10.2306   25.0191 C   0  0  0  0  0  0  0  0  0  0  0  0
   30.4459   -9.6221   26.3458 C   0  0  0  0  0  0  0  0  0  0  0  0
   27.5836  -11.8207   24.3206 O   0  0  0  0  0  0  0  0  0  0  0  0
   30.3060  -11.8341   23.3595 O   0  0  0  0  0  0  0  0  0  0  0  0
   32.2187  -10.7648   25.0820 O   0  0  0  0  0  0  0  0  0  0  0  0
   29.1352   -9.0401   26.1806 O   0  0  0  0  0  0  0  0  0  0  0  0
   27.6257  -12.4623   25.0469 H   0  0  0  0  0  0  0  0  0  0  0  0
   30.2910  -11.1158   22.7078 H   0  0  0  0  0  0  0  0  0  0  0  0
   32.2481  -11.4775   25.7394 H   0  0  0  0  0  0  0  0  0  0  0  0
   27.9551  -10.8903   26.9156 O   0  0  0  0  0  0  0  0  0  0  0  0
   26.6164  -11.0286   27.3735 C   0  0  0  0  0  0  0  0  0  0  0  0
   26.6302  -11.2441   28.8870 C   0  0  0  0  0  0  0  0  0  0  0  0
   27.2319  -12.6059   29.2369 C   0  0  0  0  0  0  0  0  0  0  0  0
   26.5641  -13.7129   28.4381 C   0  0  0  0  0  0  0  0  0  0  0  0
   26.6052  -13.3835   26.9495 C   0  0  0  0  0  0  0  0  0  0  0  0
   27.3578  -10.2005   29.5238 O   0  0  0  0  0  0  0  0  0  0  0  0
   27.0418  -12.8903   30.6161 O   0  0  0  0  0  0  0  0  0  0  0  0
   27.2454  -14.9291   28.6594 O   0  0  0  0  0  0  0  0  0  0  0  0
   25.9602  -12.1128   26.7323 O   0  0  0  0  0  0  0  0  0  0  0  0
   28.2755  -10.2081   29.2098 H   0  0  0  0  0  0  0  0  0  0  0  0
   26.0923  -12.9242   30.8114 H   0  0  0  0  0  0  0  0  0  0  0  0
   28.1674  -14.8403   28.3712 H   0  0  0  0  0  0  0  0  0  0  0  0
   25.8871  -14.4094   26.1049 C   0  0  0  0  0  0  0  0  0  0  0  0
   26.7082  -14.8738   25.0457 O   0  0  0  0  0  0  0  0  0  0  0  0
   27.5014  -15.2950   25.4123 H   0  0  0  0  0  0  0  0  0  0  0  0
   31.3623   -8.5415   26.8581 C   0  0  0  0  0  0  0  0  0  0  0  0
   30.5897   -7.3441   27.0100 O   0  0  0  0  0  0  0  0  0  0  0  0
   31.2439   -5.9254   26.6635 P   0  0  0  0  0  0  0  0  0  0  0  0
   31.6701   -5.3193   27.9771 O   0  0  0  0  0  0  0  0  0  0  0  0
   30.1914   -5.1349   25.9859 O   0  0  0  0  0  0  0  0  0  0  0  0
   32.4883   -6.2031   25.8173 O   0  0  0  0  0  0  0  0  0  0  0  0
   32.3581   -5.8717   28.3800 H   0  0  0  0  0  0  0  0  0  0  0  0
   29.9527   -5.5642   25.1494 H   0  0  0  0  0  0  0  0  0  0  0  0
  7  3  1  0  0  0
  6  2  1  0  0  0
  3  2  1  0  0  0
  3  4  1  0  0  0
  2  1  1  0  0  0
  8  4  1  0  0  0
  4  5  1  0  0  0
 34 31  2  0  0  0
 27 26  1  0  0  0
  1  9  1  0  0  0
  1 13  1  0  0  0
 30 31  1  0  0  0
 30 29  1  0  0  0
  9  5  1  0  0  0
  5 29  1  0  0  0
 31 32  1  0  0  0
 31 33  1  0  0  0
 26 18  1  0  0  0
 13 14  1  0  0  0
 18 22  1  0  0  0
 18 17  1  0  0  0
 21 17  1  0  0  0
 22 14  1  0  0  0
 14 15  1  0  0  0
 17 16  1  0  0  0
 16 15  1  0  0  0
 16 20  1  0  0  0
 15 19  1  0  0  0
 19 23  1  0  0  0
 20 24  1  0  0  0
 21 25  1  0  0  0
 27 28  1  0  0  0
  6 10  1  0  0  0
  7 11  1  0  0  0
  8 12  1  0  0  0
 32 35  1  0  0  0
 33 36  1  0  0  0
M  END
> <minimizedAffinity>
-9.63488

$$$$
4XXH_T6P_A_401


 36 37  0  0  0  0  0  0  0  0999 V2000
   31.2507  -10.5659   26.4709 C   0  0  0  0  0  0  0  0  0  0  0  0
   31.2101  -11.2538   25.1021 C   0  0  0  0  0  0  0  0  0  0  0  0
   29.8307  -11.1528   24.4478 C   0  0  0  0  0  0  0  0  0  0  0  0
   28.7571  -11.6070   25.4250 C   0  0  0  0  0  0  0  0  0  0  0  0
   28.8712  -10.7658   26.6958 C   0  0  0  0  0  0  0  0  0  0  0  0
   32.1875  -10.7199   24.2203 O   0  0  0  0  0  0  0  0  0  0  0  0
   29.7651  -11.9935   23.3010 O   0  0  0  0  0  0  0  0  0  0  0  0
   27.4744  -11.5045   24.8119 O   0  0  0  0  0  0  0  0  0  0  0  0
   30.1673  -10.9797   27.2943 O   0  0  0  0  0  0  0  0  0  0  0  0
   31.9957   -9.7837   24.0537 H   0  0  0  0  0  0  0  0  0  0  0  0
   29.9110  -12.9149   23.5668 H   0  0  0  0  0  0  0  0  0  0  0  0
   27.3131  -10.5841   24.5516 H   0  0  0  0  0  0  0  0  0  0  0  0
   31.1959   -9.1608   26.2996 O   0  0  0  0  0  0  0  0  0  0  0  0
   32.0861   -8.4191   27.1233 C   0  0  0  0  0  0  0  0  0  0  0  0
   31.2837   -7.3876   27.9167 C   0  0  0  0  0  0  0  0  0  0  0  0
   30.7243   -6.3055   26.9919 C   0  0  0  0  0  0  0  0  0  0  0  0
   31.8205   -5.7264   26.1130 C   0  0  0  0  0  0  0  0  0  0  0  0
   32.5524   -6.8466   25.3811 C   0  0  0  0  0  0  0  0  0  0  0  0
   30.2305   -8.0275   28.6275 O   0  0  0  0  0  0  0  0  0  0  0  0
   30.1716   -5.2414   27.7545 O   0  0  0  0  0  0  0  0  0  0  0  0
   31.2491   -4.8524   25.1631 O   0  0  0  0  0  0  0  0  0  0  0  0
   33.0858   -7.7702   26.3507 O   0  0  0  0  0  0  0  0  0  0  0  0
   29.6303   -8.4572   27.9982 H   0  0  0  0  0  0  0  0  0  0  0  0
   30.8662   -4.8390   28.2990 H   0  0  0  0  0  0  0  0  0  0  0  0
   30.6221   -5.3427   24.6087 H   0  0  0  0  0  0  0  0  0  0  0  0
   33.7073   -6.3423   24.5484 C   0  0  0  0  0  0  0  0  0  0  0  0
   33.9537   -4.9658   24.7853 O   0  0  0  0  0  0  0  0  0  0  0  0
   34.1821   -4.8341   25.7188 H   0  0  0  0  0  0  0  0  0  0  0  0
   27.8304  -11.0962   27.7337 C   0  0  0  0  0  0  0  0  0  0  0  0
   27.3710  -12.4312   27.4875 O   0  0  0  0  0  0  0  0  0  0  0  0
   26.7681  -13.2997   28.6886 P   0  0  0  0  0  0  0  0  0  0  0  0
   27.3051  -14.6984   28.5160 O   0  0  0  0  0  0  0  0  0  0  0  0
   25.2953  -13.2339   28.5528 O   0  0  0  0  0  0  0  0  0  0  0  0
   27.3236  -12.7109   29.9872 O   0  0  0  0  0  0  0  0  0  0  0  0
   28.2701  -14.6886   28.6136 H   0  0  0  0  0  0  0  0  0  0  0  0
   25.0003  -12.3175   28.6716 H   0  0  0  0  0  0  0  0  0  0  0  0
  7  3  1  0  0  0
  6  2  1  0  0  0
  3  2  1  0  0  0
  3  4  1  0  0  0
  2  1  1  0  0  0
  8  4  1  0  0  0
  4  5  1  0  0  0
 34 31  2  0  0  0
 27 26  1  0  0  0
  1  9  1  0  0  0
  1 13  1  0  0  0
 30 31  1  0  0  0
 30 29  1  0  0  0
  9  5  1  0  0  0
  5 29  1  0  0  0
 31 32  1  0  0  0
 31 33  1  0  0  0
 26 18  1  0  0  0
 13 14  1  0  0  0
 18 22  1  0  0  0
 18 17  1  0  0  0
 21 17  1  0  0  0
 22 14  1  0  0  0
 14 15  1  0  0  0
 17 16  1  0  0  0
 16 15  1  0  0  0
 16 20  1  0  0  0
 15 19  1  0  0  0
 19 23  1  0  0  0
 20 24  1  0  0  0
 21 25  1  0  0  0
 27 28  1  0  0  0
  6 10  1  0  0  0
  7 11  1  0  0  0
  8 12  1  0  0  0
 32 35  1  0  0  0
 33 36  1  0  0  0
M  END
> <minimizedAffinity>
-9.63091

$$$$
4XXH_T6P_A_401


 36 37  0  0  0  0  0  0  0  0999 V2000
   27.6157   -9.3999   25.2285 C   0  0  0  0  0  0  0  0  0  0  0  0
   28.3281  -10.2919   24.2061 C   0  0  0  0  0  0  0  0  0  0  0  0
   29.5046  -11.0499   24.8245 C   0  0  0  0  0  0  0  0  0  0  0  0
   30.4103  -10.0836   25.5726 C   0  0  0  0  0  0  0  0  0  0  0  0
   29.5729   -9.3417   26.6137 C   0  0  0  0  0  0  0  0  0  0  0  0
   27.4333  -11.2204   23.6102 O   0  0  0  0  0  0  0  0  0  0  0  0
   30.2771  -11.6781   23.8072 O   0  0  0  0  0  0  0  0  0  0  0  0
   31.5004  -10.7966   26.1515 O   0  0  0  0  0  0  0  0  0  0  0  0
   28.5387   -8.5886   25.9448 O   0  0  0  0  0  0  0  0  0  0  0  0
   27.0877  -11.8188   24.2909 H   0  0  0  0  0  0  0  0  0  0  0  0
   30.6298  -11.0035   23.2061 H   0  0  0  0  0  0  0  0  0  0  0  0
   31.1594  -11.4674   26.7635 H   0  0  0  0  0  0  0  0  0  0  0  0
   26.8953  -10.2059   26.1438 O   0  0  0  0  0  0  0  0  0  0  0  0
   26.6308  -11.5304   25.7005 C   0  0  0  0  0  0  0  0  0  0  0  0
   25.1335  -11.6709   25.4247 C   0  0  0  0  0  0  0  0  0  0  0  0
   24.3322  -11.6012   26.7254 C   0  0  0  0  0  0  0  0  0  0  0  0
   24.8879  -12.5711   27.7550 C   0  0  0  0  0  0  0  0  0  0  0  0
   26.3844  -12.3409   27.9383 C   0  0  0  0  0  0  0  0  0  0  0  0
   24.7048  -10.6587   24.5216 O   0  0  0  0  0  0  0  0  0  0  0  0
   22.9750  -11.9495   26.4888 O   0  0  0  0  0  0  0  0  0  0  0  0
   24.2364  -12.3695   28.9908 O   0  0  0  0  0  0  0  0  0  0  0  0
   27.0414  -12.4897   26.6639 O   0  0  0  0  0  0  0  0  0  0  0  0
   24.8579   -9.7864   24.9172 H   0  0  0  0  0  0  0  0  0  0  0  0
   22.9279  -12.8599   26.1574 H   0  0  0  0  0  0  0  0  0  0  0  0
   24.3910  -11.4610   29.2934 H   0  0  0  0  0  0  0  0  0  0  0  0
   27.0137  -13.3272   28.8936 C   0  0  0  0  0  0  0  0  0  0  0  0
   27.2136  -14.5889   28.2773 O   0  0  0  0  0  0  0  0  0  0  0  0
   27.8113  -14.4878   27.5200 H   0  0  0  0  0  0  0  0  0  0  0  0
   30.3693   -8.3758   27.4519 C   0  0  0  0  0  0  0  0  0  0  0  0
   29.9703   -7.0473   27.0920 O   0  0  0  0  0  0  0  0  0  0  0  0
   31.0815   -5.9476   26.7504 P   0  0  0  0  0  0  0  0  0  0  0  0
   30.4147   -4.9286   25.8606 O   0  0  0  0  0  0  0  0  0  0  0  0
   32.1830   -6.6649   26.0694 O   0  0  0  0  0  0  0  0  0  0  0  0
   31.4665   -5.2776   28.0711 O   0  0  0  0  0  0  0  0  0  0  0  0
   29.7031   -4.4877   26.3506 H   0  0  0  0  0  0  0  0  0  0  0  0
   32.5778   -7.3062   26.6807 H   0  0  0  0  0  0  0  0  0  0  0  0
  7  3  1  0  0  0
  6  2  1  0  0  0
  3  2  1  0  0  0
  3  4  1  0  0  0
  2  1  1  0  0  0
  8  4  1  0  0  0
  4  5  1  0  0  0
 34 31  2  0  0  0
 27 26  1  0  0  0
  1  9  1  0  0  0
  1 13  1  0  0  0
 30 31  1  0  0  0
 30 29  1  0  0  0
  9  5  1  0  0  0
  5 29  1  0  0  0
 31 32  1  0  0  0
 31 33  1  0  0  0
 26 18  1  0  0  0
 13 14  1  0  0  0
 18 22  1  0  0  0
 18 17  1  0  0  0
 21 17  1  0  0  0
 22 14  1  0  0  0
 14 15  1  0  0  0
 17 16  1  0  0  0
 16 15  1  0  0  0
 16 20  1  0  0  0
 15 19  1  0  0  0
 19 23  1  0  0  0
 20 24  1  0  0  0
 21 25  1  0  0  0
 27 28  1  0  0  0
  6 10  1  0  0  0
  7 11  1  0  0  0
  8 12  1  0  0  0
 32 35  1  0  0  0
 33 36  1  0  0  0
M  END
> <minimizedAffinity>
-9.25507

$$$$
4XXH_T6P_A_401


 36 37  0  0  0  0  0  0  0  0999 V2000
   29.0464  -11.1004   27.6700 C   0  0  0  0  0  0  0  0  0  0  0  0
   29.9809   -9.8869   27.6186 C   0  0  0  0  0  0  0  0  0  0  0  0
   30.0139   -9.2442   26.2305 C   0  0  0  0  0  0  0  0  0  0  0  0
   30.2818  -10.3042   25.1729 C   0  0  0  0  0  0  0  0  0  0  0  0
   29.2149  -11.3915   25.2953 C   0  0  0  0  0  0  0  0  0  0  0  0
   29.6172   -8.9069   28.5805 O   0  0  0  0  0  0  0  0  0  0  0  0
   31.0565   -8.2779   26.1580 O   0  0  0  0  0  0  0  0  0  0  0  0
   30.3049   -9.7003   23.8819 O   0  0  0  0  0  0  0  0  0  0  0  0
   29.3039  -12.0019   26.6004 O   0  0  0  0  0  0  0  0  0  0  0  0
   28.7306   -8.5691   28.3786 H   0  0  0  0  0  0  0  0  0  0  0  0
   31.9102   -8.7109   26.3151 H   0  0  0  0  0  0  0  0  0  0  0  0
   29.4513   -9.2731   23.7095 H   0  0  0  0  0  0  0  0  0  0  0  0
   27.6994  -10.6676   27.6011 O   0  0  0  0  0  0  0  0  0  0  0  0
   26.9401  -10.8729   28.7851 C   0  0  0  0  0  0  0  0  0  0  0  0
   27.2440  -12.2675   29.3331 C   0  0  0  0  0  0  0  0  0  0  0  0
   26.6904  -13.3492   28.4045 C   0  0  0  0  0  0  0  0  0  0  0  0
   25.2270  -13.0908   28.0862 C   0  0  0  0  0  0  0  0  0  0  0  0
   25.0481  -11.6716   27.5570 C   0  0  0  0  0  0  0  0  0  0  0  0
   28.6466  -12.4308   29.5061 O   0  0  0  0  0  0  0  0  0  0  0  0
   26.7815  -14.6253   29.0230 O   0  0  0  0  0  0  0  0  0  0  0  0
   24.7904  -14.0064   27.1047 O   0  0  0  0  0  0  0  0  0  0  0  0
   25.5481  -10.7394   28.5362 O   0  0  0  0  0  0  0  0  0  0  0  0
   29.0908  -12.3405   28.6485 H   0  0  0  0  0  0  0  0  0  0  0  0
   26.2516  -14.6293   29.8355 H   0  0  0  0  0  0  0  0  0  0  0  0
   25.3168  -13.8913   26.2981 H   0  0  0  0  0  0  0  0  0  0  0  0
   23.6016  -11.3248   27.2945 C   0  0  0  0  0  0  0  0  0  0  0  0
   23.1322  -11.9321   26.1018 O   0  0  0  0  0  0  0  0  0  0  0  0
   23.1952  -12.8966   26.1837 H   0  0  0  0  0  0  0  0  0  0  0  0
   29.3496  -12.4873   24.2702 C   0  0  0  0  0  0  0  0  0  0  0  0
   28.1615  -13.2871   24.3215 O   0  0  0  0  0  0  0  0  0  0  0  0
   28.2675  -14.8789   24.1967 P   0  0  0  0  0  0  0  0  0  0  0  0
   28.8142  -15.1640   22.8204 O   0  0  0  0  0  0  0  0  0  0  0  0
   26.8964  -15.4045   24.3854 O   0  0  0  0  0  0  0  0  0  0  0  0
   29.2855  -15.3412   25.2414 O   0  0  0  0  0  0  0  0  0  0  0  0
   29.7109  -14.8012   22.7471 H   0  0  0  0  0  0  0  0  0  0  0  0
   26.5909  -15.1965   25.2822 H   0  0  0  0  0  0  0  0  0  0  0  0
  7  3  1  0  0  0
  6  2  1  0  0  0
  3  2  1  0  0  0
  3  4  1  0  0  0
  2  1  1  0  0  0
  8  4  1  0  0  0
  4  5  1  0  0  0
 34 31  2  0  0  0
 27 26  1  0  0  0
  1  9  1  0  0  0
  1 13  1  0  0  0
 30 31  1  0  0  0
 30 29  1  0  0  0
  9  5  1  0  0  0
  5 29  1  0  0  0
 31 32  1  0  0  0
 31 33  1  0  0  0
 26 18  1  0  0  0
 13 14  1  0  0  0
 18 22  1  0  0  0
 18 17  1  0  0  0
 21 17  1  0  0  0
 22 14  1  0  0  0
 14 15  1  0  0  0
 17 16  1  0  0  0
 16 15  1  0  0  0
 16 20  1  0  0  0
 15 19  1  0  0  0
 19 23  1  0  0  0
 20 24  1  0  0  0
 21 25  1  0  0  0
 27 28  1  0  0  0
  6 10  1  0  0  0
  7 11  1  0  0  0
  8 12  1  0  0  0
 32 35  1  0  0  0
 33 36  1  0  0  0
M  END
> <minimizedAffinity>
-8.81405

$$$$
4XXH_T6P_A_401


 36 37  0  0  0  0  0  0  0  0999 V2000
   28.5673  -10.6339   24.5970 C   0  0  0  0  0  0  0  0  0  0  0  0
   27.2122  -10.1065   24.1136 C   0  0  0  0  0  0  0  0  0  0  0  0
   26.0728  -10.4963   25.0575 C   0  0  0  0  0  0  0  0  0  0  0  0
   26.1162  -11.9912   25.3354 C   0  0  0  0  0  0  0  0  0  0  0  0
   27.4941  -12.3400   25.8969 C   0  0  0  0  0  0  0  0  0  0  0  0
   27.2276   -8.6949   23.9554 O   0  0  0  0  0  0  0  0  0  0  0  0
   24.8145  -10.1962   24.4636 O   0  0  0  0  0  0  0  0  0  0  0  0
   25.0566  -12.3468   26.2200 O   0  0  0  0  0  0  0  0  0  0  0  0
   28.5037  -12.0184   24.9165 O   0  0  0  0  0  0  0  0  0  0  0  0
   27.3856   -8.2748   24.8153 H   0  0  0  0  0  0  0  0  0  0  0  0
   24.7166  -10.7008   23.6410 H   0  0  0  0  0  0  0  0  0  0  0  0
   25.1507  -11.8556   27.0512 H   0  0  0  0  0  0  0  0  0  0  0  0
   28.9793   -9.9095   25.7425 O   0  0  0  0  0  0  0  0  0  0  0  0
   30.0575  -10.4890   26.4653 C   0  0  0  0  0  0  0  0  0  0  0  0
   30.2492   -9.7185   27.7718 C   0  0  0  0  0  0  0  0  0  0  0  0
   30.7675   -8.3058   27.4988 C   0  0  0  0  0  0  0  0  0  0  0  0
   31.9867   -8.3434   26.5924 C   0  0  0  0  0  0  0  0  0  0  0  0
   31.6777   -9.1425   25.3306 C   0  0  0  0  0  0  0  0  0  0  0  0
   29.0250   -9.6680   28.4947 O   0  0  0  0  0  0  0  0  0  0  0  0
   31.1493   -7.6762   28.7142 O   0  0  0  0  0  0  0  0  0  0  0  0
   32.3426   -7.0270   26.2279 O   0  0  0  0  0  0  0  0  0  0  0  0
   31.2581  -10.4692   25.7067 O   0  0  0  0  0  0  0  0  0  0  0  0
   28.3565   -9.2042   27.9665 H   0  0  0  0  0  0  0  0  0  0  0  0
   31.8653   -8.1821   29.1293 H   0  0  0  0  0  0  0  0  0  0  0  0
   31.6054   -6.6125   25.7528 H   0  0  0  0  0  0  0  0  0  0  0  0
   32.8756   -9.2837   24.4214 C   0  0  0  0  0  0  0  0  0  0  0  0
   33.0685  -10.6319   24.0255 O   0  0  0  0  0  0  0  0  0  0  0  0
   32.2888  -10.9405   23.5379 H   0  0  0  0  0  0  0  0  0  0  0  0
   27.6507  -13.7961   26.2507 C   0  0  0  0  0  0  0  0  0  0  0  0
   27.1581  -14.5720   25.1510 O   0  0  0  0  0  0  0  0  0  0  0  0
   28.1838  -15.1849   24.0867 P   0  0  0  0  0  0  0  0  0  0  0  0
   29.3648  -15.6930   24.8752 O   0  0  0  0  0  0  0  0  0  0  0  0
   28.5438  -14.0797   23.1698 O   0  0  0  0  0  0  0  0  0  0  0  0
   27.4818  -16.3716   23.4231 O   0  0  0  0  0  0  0  0  0  0  0  0
   29.0784  -16.4132   25.4585 H   0  0  0  0  0  0  0  0  0  0  0  0
   27.7537  -13.7893   22.6877 H   0  0  0  0  0  0  0  0  0  0  0  0
  7  3  1  0  0  0
  6  2  1  0  0  0
  3  2  1  0  0  0
  3  4  1  0  0  0
  2  1  1  0  0  0
  8  4  1  0  0  0
  4  5  1  0  0  0
 34 31  2  0  0  0
 27 26  1  0  0  0
  1  9  1  0  0  0
  1 13  1  0  0  0
 30 31  1  0  0  0
 30 29  1  0  0  0
  9  5  1  0  0  0
  5 29  1  0  0  0
 31 32  1  0  0  0
 31 33  1  0  0  0
 26 18  1  0  0  0
 13 14  1  0  0  0
 18 22  1  0  0  0
 18 17  1  0  0  0
 21 17  1  0  0  0
 22 14  1  0  0  0
 14 15  1  0  0  0
 17 16  1  0  0  0
 16 15  1  0  0  0
 16 20  1  0  0  0
 15 19  1  0  0  0
 19 23  1  0  0  0
 20 24  1  0  0  0
 21 25  1  0  0  0
 27 28  1  0  0  0
  6 10  1  0  0  0
  7 11  1  0  0  0
  8 12  1  0  0  0
 32 35  1  0  0  0
 33 36  1  0  0  0
M  END
> <minimizedAffinity>
-8.17256

$$$$
