4XXH_T6P_A_401
  RCSB PDB12061716183D
Coordinates from PDB:4XXH:A:401 Model:1 without hydrogens
 27 28  0  0  0  0            999 V2000
   27.2140  -11.2770   28.2260   C 0  0  0  0  0  0  0  0  0  0  0  0
   27.3310  -12.4480   29.2020   C 0  0  0  0  0  0  0  0  0  0  0  0
   26.5860  -13.6740   28.6720   C 0  0  0  0  0  0  0  0  0  0  0  0
   25.1650  -13.3120   28.2730   C 0  0  0  0  0  0  0  0  0  0  0  0
   25.1760  -12.1310   27.3080   C 0  0  0  0  0  0  0  0  0  0  0  0
   23.7870  -11.6710   26.9330   C 0  0  0  0  0  0  0  0  0  0  0  0
   27.9460  -11.5850   27.0470   O 0  0  0  0  0  0  0  0  0  0  0  0
   28.7000  -12.7590   29.4320   O 0  0  0  0  0  0  0  0  0  0  0  0
   26.5130  -14.6790   29.6740   O 0  0  0  0  0  0  0  0  0  0  0  0
   24.5580  -14.4180   27.6400   O 0  0  0  0  0  0  0  0  0  0  0  0
   25.8480  -11.0200   27.9340   O 0  0  0  0  0  0  0  0  0  0  0  0
   23.8300  -10.5540   26.0600   O 0  0  0  0  0  0  0  0  0  0  0  0
   27.9920  -10.5490   26.0820   C 0  0  0  0  0  0  0  0  0  0  0  0
   28.3950  -11.1290   24.7220   C 0  0  0  0  0  0  0  0  0  0  0  0
   29.8670  -11.5450   24.6870   C 0  0  0  0  0  0  0  0  0  0  0  0
   30.7420  -10.4030   25.1810   C 0  0  0  0  0  0  0  0  0  0  0  0
   30.2740  -10.0040   26.5800   C 0  0  0  0  0  0  0  0  0  0  0  0
   31.0920   -8.9000   27.1980   C 0  0  0  0  0  0  0  0  0  0  0  0
   27.5850  -12.2410   24.3680   O 0  0  0  0  0  0  0  0  0  0  0  0
   30.2610  -11.8560   23.3550   O 0  0  0  0  0  0  0  0  0  0  0  0
   32.1110  -10.7990   25.1520   O 0  0  0  0  0  0  0  0  0  0  0  0
   28.9060   -9.5480   26.5130   O 0  0  0  0  0  0  0  0  0  0  0  0
   31.1930   -7.8380   26.2410   O 0  0  0  0  0  0  0  0  0  0  0  0
   31.0520   -6.3180   26.7210   P 0  0  0  0  0  0  0  0  0  0  0  0
   32.1510   -6.0840   27.7270   O 0  0  0  0  0  0  0  0  0  0  0  0
   29.7010   -6.1910   27.3130   O 0  0  0  0  0  0  0  0  0  0  0  0
   31.3050   -5.4380   25.4950   O 0  0  0  0  0  0  0  0  0  0  0  0
 20 15  1  0  0  0  0
 19 14  1  0  0  0  0
 15 14  1  0  0  0  0
 15 16  1  0  0  0  0
 14 13  1  0  0  0  0
 21 16  1  0  0  0  0
 16 17  1  0  0  0  0
 27 24  2  0  0  0  0
 12  6  1  0  0  0  0
 13 22  1  0  0  0  0
 13  7  1  0  0  0  0
 23 24  1  0  0  0  0
 23 18  1  0  0  0  0
 22 17  1  0  0  0  0
 17 18  1  0  0  0  0
 24 25  1  0  0  0  0
 24 26  1  0  0  0  0
  6  5  1  0  0  0  0
  7  1  1  0  0  0  0
  5 11  1  0  0  0  0
  5  4  1  0  0  0  0
 10  4  1  0  0  0  0
 11  1  1  0  0  0  0
  1  2  1  0  0  0  0
  4  3  1  0  0  0  0
  3  2  1  0  0  0  0
  3  9  1  0  0  0  0
  2  8  1  0  0  0  0
A    1
C1
A    2
C2
A    3
C3
A    4
C4
A    5
C5
A    6
C6
A    7
O1
A    8
O2
A    9
O3
A   10
O4
A   11
O5
A   12
O6
A   13
C7
A   14
C8
A   15
C9
A   16
C10
A   17
C11
A   18
C12
A   19
O7
A   20
O8
A   21
O9
A   22
O10
A   23
O11
A   24
P1
A   25
O12
A   26
O13
A   27
O14
M  END
>  <InstanceId>
4XXH_T6P_A_401

>  <ChemCompId>
T6P

>  <PdbId>
4XXH

>  <ChainId>
A

>  <ResidueNumber>
401

>  <InsertionCode>


>  <Model>
1

>  <AltIds>


>  <MissingHeavyAtoms>
0

>  <ObservedFormula>
C12 O14 P

>  <Name>
Trehalose-6-phosphate

>  <SystematicName>
[(2R,3S,4S,5R,6R)-6-[(2R,3R,4S,5S,6R)-6-(hydroxymethyl)-3,4,5-tris(oxidanyl)oxan-2-yl]oxy-3,4,5-tris(oxidanyl)oxan-2-yl]methyl dihydrogen phosphate

>  <Synonyms>
6-O-phosphono-alpha-D-glucopyranosyl alpha-D-glucopyranoside

>  <Type>
SACCHARIDE

>  <Formula>
C12 H23 O14 P

>  <MolecularWeight>
422.276

>  <ModifiedDate>
2015-06-03

>  <Parent>


>  <OneLetterCode>


>  <SubcomponentList>


>  <AmbiguousFlag>
N

>  <InChI>
InChI=1S/C12H23O14P/c13-1-3-5(14)7(16)9(18)11(24-3)26-12-10(19)8(17)6(15)4(25-12)2-23-27(20,21)22/h3-19H,1-2H2,(H2,20,21,22)/t3-,4-,5-,6-,7+,8+,9-,10-,11-,12-/m1/s1

>  <InChIKey>
LABSPYBHMPDTEL-LIZSDCNHSA-N

>  <SMILES>
C([C@@H]1[C@H]([C@@H]([C@H]([C@H](O1)O[C@@H]2[C@@H]([C@H]([C@@H]([C@H](O2)COP(=O)(O)O)O)O)O)O)O)O)O

$$$$
