1G7G_INX_A_600


 49 50  0  0  0  0  0  0  0  0999 V2000
    9.2413   18.6095    9.7354 C   0  0  0  0  0  0  0  0  0  0  0  0
    7.9132   18.6498    9.0628 N   0  0  0  0  0  0  0  0  0  0  0  0
    6.9338   19.3322    9.7047 C   0  0  0  0  0  0  0  0  0  0  0  0
    7.0199   19.7797   10.8433 O   0  0  0  0  0  0  0  0  0  0  0  0
    7.7553   18.2049    8.1989 H   0  0  0  0  0  0  0  0  0  0  0  0
    5.5538   19.3630    9.0801 C   0  0  0  0  0  0  0  0  0  0  0  0
    4.5774   19.2935   10.1961 N   0  0  0  0  0  0  0  0  0  0  0  0
    3.7161   18.2619   10.2753 C   0  0  0  0  0  0  0  0  0  0  0  0
    3.7177   17.3741    9.3840 O   0  0  0  0  0  0  0  0  0  0  0  0
    4.5598   20.0024   10.8789 H   0  0  0  0  0  0  0  0  0  0  0  0
    2.6383   18.2562   11.3573 C   0  0  0  0  0  0  0  0  0  0  0  0
    1.3414   17.5395   10.9100 C   0  0  0  0  0  0  0  0  0  0  0  0
    1.3431   16.0085   11.1594 C   0  0  0  0  0  0  0  0  0  0  0  0
    1.8031   15.1546   10.4207 O   0  0  0  0  0  0  0  0  0  0  0  0
    0.7605   15.6705   12.3485 O   0  0  0  0  0  0  0  0  0  0  0  0
    2.1995   15.4018    9.6085 H   0  0  0  0  0  0  0  0  0  0  0  0
    5.4643   20.7200    8.3515 C   0  0  0  0  0  0  0  0  0  0  0  0
    5.1935   20.3757    6.8905 C   0  0  0  0  0  0  0  0  0  0  0  0
    5.7410   21.2438    5.8699 C   0  0  0  0  0  0  0  0  0  0  0  0
    5.4889   20.9122    4.4993 C   0  0  0  0  0  0  0  0  0  0  0  0
    4.7074   19.7662    4.1958 C   0  0  0  0  0  0  0  0  0  0  0  0
    4.1806   18.9148    5.2128 C   0  0  0  0  0  0  0  0  0  0  0  0
    4.4279   19.2113    6.6064 C   0  0  0  0  0  0  0  0  0  0  0  0
   10.1426   19.7161    9.1427 C   0  0  0  0  0  0  0  0  0  0  0  0
   10.4065   19.4710    7.8570 N   0  0  0  0  0  0  0  0  0  0  0  0
   10.6798   20.5576    9.9227 O   0  0  0  0  0  0  0  0  0  0  0  0
    9.8514   18.7731    7.4398 H   0  0  0  0  0  0  0  0  0  0  0  0
   11.3835   20.0775    6.9919 C   0  0  0  0  0  0  0  0  0  0  0  0
   12.1128   18.9157    6.2405 C   0  0  0  0  0  0  0  0  0  0  0  0
   11.1695   17.6823    6.2303 C   0  0  0  0  0  0  0  0  0  0  0  0
   11.3141   16.8217    4.9717 C   0  0  0  0  0  0  0  0  0  0  0  0
   12.6993   16.1793    4.8783 C   0  0  0  0  0  0  0  0  0  0  0  0
    9.8217   17.2263    9.5921 C   0  0  0  0  0  0  0  0  0  0  0  0
   13.6660   16.5237   11.5191 C   0  0  0  0  0  0  0  0  0  0  0  0
   13.5634   16.5372   10.0887 C   0  0  0  0  0  0  0  0  0  0  0  0
   12.3260   16.7717    9.4376 C   0  0  0  0  0  0  0  0  0  0  0  0
   11.1494   17.0077   10.2261 C   0  0  0  0  0  0  0  0  0  0  0  0
   11.2555   17.0051   11.6431 C   0  0  0  0  0  0  0  0  0  0  0  0
   12.4603   16.7724   12.3234 C   0  0  0  0  0  0  0  0  0  0  0  0
   12.4841   16.8038   13.8189 C   0  0  0  0  0  0  0  0  0  0  0  0
   13.3593   16.3628   14.4933 O   0  0  0  0  0  0  0  0  0  0  0  0
   11.4844   17.4368   14.3366 O   0  0  0  0  0  0  0  0  0  0  0  0
   14.0742   15.9072   14.0941 H   0  0  0  0  0  0  0  0  0  0  0  0
   14.9031   16.2831   12.0245 O   0  0  0  0  0  0  0  0  0  0  0  0
   15.9696   17.1764   12.2151 C   0  0  0  0  0  0  0  0  0  0  0  0
   16.9757   16.4679   13.1495 C   0  0  0  0  0  0  0  0  0  0  0  0
   16.3302   15.5662   13.8410 O   0  0  0  0  0  0  0  0  0  0  0  0
   18.1435   16.7162   13.2260 O   0  0  0  0  0  0  0  0  0  0  0  0
   18.5169   17.3842   12.6854 H   0  0  0  0  0  0  0  0  0  0  0  0
 34 35  2  0  0  0
 34 39  1  0  0  0
 34 44  1  0  0  0
 35 36  1  0  0  0
 36 37  2  0  0  0
 37 38  1  0  0  0
 37 33  1  0  0  0
 38 39  2  0  0  0
 39 40  1  0  0  0
 33  1  1  0  0  0
  1  2  1  0  0  0
  1 24  1  0  0  0
 44 45  1  0  0  0
  2  3  1  0  0  0
 24 25  1  0  0  0
 24 26  2  0  0  0
  3  4  2  0  0  0
  3  6  1  0  0  0
 25 28  1  0  0  0
 28 29  1  0  0  0
 29 30  1  0  0  0
 30 31  1  0  0  0
 31 32  1  0  0  0
  6  7  1  0  0  0
  6 17  1  0  0  0
  7  8  1  0  0  0
 45 46  1  0  0  0
 46 47  2  0  0  0
 46 48  1  0  0  0
 40 41  1  0  0  0
 40 42  2  0  0  0
 17 18  1  0  0  0
 18 19  2  0  0  0
 18 23  1  0  0  0
 19 20  1  0  0  0
 20 21  2  0  0  0
 21 22  1  0  0  0
 22 23  2  0  0  0
  8 11  1  0  0  0
  8  9  2  0  0  0
 11 12  1  0  0  0
 12 13  1  0  0  0
 13 14  1  0  0  0
 13 15  2  0  0  0
  2  5  1  0  0  0
 25 27  1  0  0  0
  7 10  1  0  0  0
 48 49  1  0  0  0
 41 43  1  0  0  0
 14 16  1  0  0  0
M  END
> <minimizedAffinity>
-8.63225

$$$$
1G7G_INX_A_600


 49 50  0  0  0  0  0  0  0  0999 V2000
    9.3730   18.8225    9.5764 C   0  0  0  0  0  0  0  0  0  0  0  0
    7.9638   18.8643    9.0965 N   0  0  0  0  0  0  0  0  0  0  0  0
    7.1190   19.6748    9.7794 C   0  0  0  0  0  0  0  0  0  0  0  0
    7.3898   20.2459   10.8305 O   0  0  0  0  0  0  0  0  0  0  0  0
    7.6623   18.3321    8.3251 H   0  0  0  0  0  0  0  0  0  0  0  0
    5.6652   19.7159    9.3551 C   0  0  0  0  0  0  0  0  0  0  0  0
    5.6344   20.2961    7.9891 N   0  0  0  0  0  0  0  0  0  0  0  0
    4.6310   21.1176    7.6278 C   0  0  0  0  0  0  0  0  0  0  0  0
    3.7020   21.3667    8.4387 O   0  0  0  0  0  0  0  0  0  0  0  0
    6.3484   20.0798    7.3467 H   0  0  0  0  0  0  0  0  0  0  0  0
    4.5419   21.6168    6.1872 C   0  0  0  0  0  0  0  0  0  0  0  0
    4.8611   20.5147    5.1484 C   0  0  0  0  0  0  0  0  0  0  0  0
    4.0191   19.2226    5.3137 C   0  0  0  0  0  0  0  0  0  0  0  0
    4.3750   18.1901    5.8557 O   0  0  0  0  0  0  0  0  0  0  0  0
    2.7669   19.3410    4.7792 O   0  0  0  0  0  0  0  0  0  0  0  0
    5.2368   18.1240    6.2176 H   0  0  0  0  0  0  0  0  0  0  0  0
    5.2011   18.2445    9.3410 C   0  0  0  0  0  0  0  0  0  0  0  0
    4.0276   18.1829   10.3133 C   0  0  0  0  0  0  0  0  0  0  0  0
    2.9257   17.2979   10.0010 C   0  0  0  0  0  0  0  0  0  0  0  0
    1.8291   17.2394   10.9207 C   0  0  0  0  0  0  0  0  0  0  0  0
    1.8555   18.0534   12.0838 C   0  0  0  0  0  0  0  0  0  0  0  0
    2.9528   18.9157   12.3827 C   0  0  0  0  0  0  0  0  0  0  0  0
    4.0830   18.9889   11.4838 C   0  0  0  0  0  0  0  0  0  0  0  0
   10.2087   19.8521    8.7829 C   0  0  0  0  0  0  0  0  0  0  0  0
   10.4038   19.4353    7.5295 N   0  0  0  0  0  0  0  0  0  0  0  0
   10.7679   20.8036    9.4051 O   0  0  0  0  0  0  0  0  0  0  0  0
    9.8441   18.6762    7.2473 H   0  0  0  0  0  0  0  0  0  0  0  0
   11.3125   19.9332    6.5309 C   0  0  0  0  0  0  0  0  0  0  0  0
   12.2120   18.7315    6.0914 C   0  0  0  0  0  0  0  0  0  0  0  0
   11.3061   17.6840    5.3891 C   0  0  0  0  0  0  0  0  0  0  0  0
   11.7109   16.2376    5.6887 C   0  0  0  0  0  0  0  0  0  0  0  0
   12.4278   15.5905    4.5023 C   0  0  0  0  0  0  0  0  0  0  0  0
    9.8907   17.4126    9.4550 C   0  0  0  0  0  0  0  0  0  0  0  0
   13.6534   16.5429   11.4727 C   0  0  0  0  0  0  0  0  0  0  0  0
   13.5883   16.5721   10.0403 C   0  0  0  0  0  0  0  0  0  0  0  0
   12.3783   16.8607    9.3601 C   0  0  0  0  0  0  0  0  0  0  0  0
   11.1920   17.1365   10.1206 C   0  0  0  0  0  0  0  0  0  0  0  0
   11.2613   17.1182   11.5397 C   0  0  0  0  0  0  0  0  0  0  0  0
   12.4381   16.8325   12.2482 C   0  0  0  0  0  0  0  0  0  0  0  0
   12.4245   16.8507   13.7441 C   0  0  0  0  0  0  0  0  0  0  0  0
   13.2730   16.3857   14.4364 O   0  0  0  0  0  0  0  0  0  0  0  0
   11.4254   17.5001   14.2422 O   0  0  0  0  0  0  0  0  0  0  0  0
   13.9882   15.9186   14.0513 H   0  0  0  0  0  0  0  0  0  0  0  0
   14.8667   16.2495   12.0071 O   0  0  0  0  0  0  0  0  0  0  0  0
   16.0337   17.0300   12.0331 C   0  0  0  0  0  0  0  0  0  0  0  0
   16.9435   16.4254   13.1259 C   0  0  0  0  0  0  0  0  0  0  0  0
   16.2373   15.5778   13.8264 O   0  0  0  0  0  0  0  0  0  0  0  0
   18.0950   16.7000   13.2988 O   0  0  0  0  0  0  0  0  0  0  0  0
   18.5168   17.3237   12.7410 H   0  0  0  0  0  0  0  0  0  0  0  0
 34 35  2  0  0  0
 34 39  1  0  0  0
 34 44  1  0  0  0
 35 36  1  0  0  0
 36 37  2  0  0  0
 37 38  1  0  0  0
 37 33  1  0  0  0
 38 39  2  0  0  0
 39 40  1  0  0  0
 33  1  1  0  0  0
  1  2  1  0  0  0
  1 24  1  0  0  0
 44 45  1  0  0  0
  2  3  1  0  0  0
 24 25  1  0  0  0
 24 26  2  0  0  0
  3  4  2  0  0  0
  3  6  1  0  0  0
 25 28  1  0  0  0
 28 29  1  0  0  0
 29 30  1  0  0  0
 30 31  1  0  0  0
 31 32  1  0  0  0
  6  7  1  0  0  0
  6 17  1  0  0  0
  7  8  1  0  0  0
 45 46  1  0  0  0
 46 47  2  0  0  0
 46 48  1  0  0  0
 40 41  1  0  0  0
 40 42  2  0  0  0
 17 18  1  0  0  0
 18 19  2  0  0  0
 18 23  1  0  0  0
 19 20  1  0  0  0
 20 21  2  0  0  0
 21 22  1  0  0  0
 22 23  2  0  0  0
  8 11  1  0  0  0
  8  9  2  0  0  0
 11 12  1  0  0  0
 12 13  1  0  0  0
 13 14  1  0  0  0
 13 15  2  0  0  0
  2  5  1  0  0  0
 25 27  1  0  0  0
  7 10  1  0  0  0
 48 49  1  0  0  0
 41 43  1  0  0  0
 14 16  1  0  0  0
M  END
> <minimizedAffinity>
-8.20205

$$$$
1G7G_INX_A_600


 49 50  0  0  0  0  0  0  0  0999 V2000
    9.4612   19.0518    9.6067 C   0  0  0  0  0  0  0  0  0  0  0  0
   10.7483   19.7496    9.3343 N   0  0  0  0  0  0  0  0  0  0  0  0
   10.7135   20.7362    8.4057 C   0  0  0  0  0  0  0  0  0  0  0  0
    9.7548   20.9871    7.6831 O   0  0  0  0  0  0  0  0  0  0  0  0
   11.5793   19.5074    9.8033 H   0  0  0  0  0  0  0  0  0  0  0  0
   12.0083   21.4443    8.0632 C   0  0  0  0  0  0  0  0  0  0  0  0
   12.2806   21.1688    6.6301 N   0  0  0  0  0  0  0  0  0  0  0  0
   13.5408   20.9412    6.2147 C   0  0  0  0  0  0  0  0  0  0  0  0
   14.4912   20.9951    7.0372 O   0  0  0  0  0  0  0  0  0  0  0  0
   11.5390   21.1525    5.9829 H   0  0  0  0  0  0  0  0  0  0  0  0
   13.8288   20.7751    4.7242 C   0  0  0  0  0  0  0  0  0  0  0  0
   13.0726   19.5798    4.0955 C   0  0  0  0  0  0  0  0  0  0  0  0
   13.9009   18.2702    4.0247 C   0  0  0  0  0  0  0  0  0  0  0  0
   13.7215   17.2627    4.6874 O   0  0  0  0  0  0  0  0  0  0  0  0
   14.9041   18.3340    3.0989 O   0  0  0  0  0  0  0  0  0  0  0  0
   13.0294   17.2340    5.3184 H   0  0  0  0  0  0  0  0  0  0  0  0
   11.7283   22.9439    8.2939 C   0  0  0  0  0  0  0  0  0  0  0  0
   12.6910   23.3682    9.3982 C   0  0  0  0  0  0  0  0  0  0  0  0
   14.0786   23.5871    9.0497 C   0  0  0  0  0  0  0  0  0  0  0  0
   14.9771   23.9915   10.0895 C   0  0  0  0  0  0  0  0  0  0  0  0
   14.4828   24.1463   11.4115 C   0  0  0  0  0  0  0  0  0  0  0  0
   13.1099   23.9346   11.7388 C   0  0  0  0  0  0  0  0  0  0  0  0
   12.1722   23.5399   10.7113 C   0  0  0  0  0  0  0  0  0  0  0  0
    8.7532   19.7411   10.7949 C   0  0  0  0  0  0  0  0  0  0  0  0
    9.6454   20.1686   11.6915 N   0  0  0  0  0  0  0  0  0  0  0  0
    7.4945   19.6456   10.9025 O   0  0  0  0  0  0  0  0  0  0  0  0
   10.5812   20.1694   11.3857 H   0  0  0  0  0  0  0  0  0  0  0  0
    9.4394   20.6285   13.0395 C   0  0  0  0  0  0  0  0  0  0  0  0
   10.5370   21.7048   13.3281 C   0  0  0  0  0  0  0  0  0  0  0  0
   11.2678   21.3074   14.6393 C   0  0  0  0  0  0  0  0  0  0  0  0
   11.5533   22.4998   15.5569 C   0  0  0  0  0  0  0  0  0  0  0  0
   12.9596   23.0610   15.3388 C   0  0  0  0  0  0  0  0  0  0  0  0
    9.7367   17.5893    9.8428 C   0  0  0  0  0  0  0  0  0  0  0  0
   13.6623   16.5453   11.4192 C   0  0  0  0  0  0  0  0  0  0  0  0
   13.4714   16.7258   10.0094 C   0  0  0  0  0  0  0  0  0  0  0  0
   12.2063   17.0737    9.4723 C   0  0  0  0  0  0  0  0  0  0  0  0
   11.0915   17.2562   10.3587 C   0  0  0  0  0  0  0  0  0  0  0  0
   11.2854   17.0880   11.7563 C   0  0  0  0  0  0  0  0  0  0  0  0
   12.5200   16.7396   12.3246 C   0  0  0  0  0  0  0  0  0  0  0  0
   12.6381   16.5988   13.8093 C   0  0  0  0  0  0  0  0  0  0  0  0
   13.5418   16.0666   14.3710 O   0  0  0  0  0  0  0  0  0  0  0  0
   11.6899   17.1873   14.4595 O   0  0  0  0  0  0  0  0  0  0  0  0
   14.2180   15.6461   13.8770 H   0  0  0  0  0  0  0  0  0  0  0  0
   14.9178   16.2081   11.8111 O   0  0  0  0  0  0  0  0  0  0  0  0
   16.0009   17.0448   12.1249 C   0  0  0  0  0  0  0  0  0  0  0  0
   16.8690   16.2769   13.1468 C   0  0  0  0  0  0  0  0  0  0  0  0
   18.0655   16.8024   13.1472 O   0  0  0  0  0  0  0  0  0  0  0  0
   16.5014   15.3535   13.8128 O   0  0  0  0  0  0  0  0  0  0  0  0
   15.6189   15.0467   13.7419 H   0  0  0  0  0  0  0  0  0  0  0  0
 34 35  2  0  0  0
 34 39  1  0  0  0
 34 44  1  0  0  0
 35 36  1  0  0  0
 36 37  2  0  0  0
 37 38  1  0  0  0
 37 33  1  0  0  0
 38 39  2  0  0  0
 39 40  1  0  0  0
 33  1  1  0  0  0
  1  2  1  0  0  0
  1 24  1  0  0  0
 44 45  1  0  0  0
  2  3  1  0  0  0
 24 25  1  0  0  0
 24 26  2  0  0  0
  3  4  2  0  0  0
  3  6  1  0  0  0
 25 28  1  0  0  0
 28 29  1  0  0  0
 29 30  1  0  0  0
 30 31  1  0  0  0
 31 32  1  0  0  0
  6  7  1  0  0  0
  6 17  1  0  0  0
  7  8  1  0  0  0
 45 46  1  0  0  0
 46 47  2  0  0  0
 46 48  1  0  0  0
 40 41  1  0  0  0
 40 42  2  0  0  0
 17 18  1  0  0  0
 18 19  2  0  0  0
 18 23  1  0  0  0
 19 20  1  0  0  0
 20 21  2  0  0  0
 21 22  1  0  0  0
 22 23  2  0  0  0
  8 11  1  0  0  0
  8  9  2  0  0  0
 11 12  1  0  0  0
 12 13  1  0  0  0
 13 14  1  0  0  0
 13 15  2  0  0  0
  2  5  1  0  0  0
 25 27  1  0  0  0
  7 10  1  0  0  0
 48 49  1  0  0  0
 41 43  1  0  0  0
 14 16  1  0  0  0
M  END
> <minimizedAffinity>
-8.18159

$$$$
1G7G_INX_A_600


 49 50  0  0  0  0  0  0  0  0999 V2000
    9.3243   19.2961   10.1072 C   0  0  0  0  0  0  0  0  0  0  0  0
    8.9044   19.5980   11.5037 N   0  0  0  0  0  0  0  0  0  0  0  0
    9.4018   20.7344   12.0497 C   0  0  0  0  0  0  0  0  0  0  0  0
   10.2705   21.4357   11.5420 O   0  0  0  0  0  0  0  0  0  0  0  0
    8.2983   19.0043   12.0032 H   0  0  0  0  0  0  0  0  0  0  0  0
    9.0376   21.0599   13.4838 C   0  0  0  0  0  0  0  0  0  0  0  0
    7.7739   20.3388   13.7785 N   0  0  0  0  0  0  0  0  0  0  0  0
    6.6494   21.0295   14.0439 C   0  0  0  0  0  0  0  0  0  0  0  0
    6.6785   22.2869   14.0741 O   0  0  0  0  0  0  0  0  0  0  0  0
    7.7583   19.3544   13.7800 H   0  0  0  0  0  0  0  0  0  0  0  0
    5.3831   20.2845   14.4608 C   0  0  0  0  0  0  0  0  0  0  0  0
    5.3727   19.9107   15.9628 C   0  0  0  0  0  0  0  0  0  0  0  0
    6.5543   19.0063   16.4007 C   0  0  0  0  0  0  0  0  0  0  0  0
    7.5952   19.3740   16.9182 O   0  0  0  0  0  0  0  0  0  0  0  0
    6.3207   17.6826   16.1539 O   0  0  0  0  0  0  0  0  0  0  0  0
    7.7410   20.2851   17.0812 H   0  0  0  0  0  0  0  0  0  0  0  0
   10.1996   20.5093   14.3364 C   0  0  0  0  0  0  0  0  0  0  0  0
   10.6067   21.6586   15.2528 C   0  0  0  0  0  0  0  0  0  0  0  0
   11.9136   22.2521   15.0670 C   0  0  0  0  0  0  0  0  0  0  0  0
   12.2883   23.3353   15.9263 C   0  0  0  0  0  0  0  0  0  0  0  0
   11.3807   23.7721   16.9271 C   0  0  0  0  0  0  0  0  0  0  0  0
   10.0917   23.1823   17.0934 C   0  0  0  0  0  0  0  0  0  0  0  0
    9.6750   22.0966   16.2340 C   0  0  0  0  0  0  0  0  0  0  0  0
    8.2021   19.7281    9.1365 C   0  0  0  0  0  0  0  0  0  0  0  0
    7.0678   19.0783    9.4082 N   0  0  0  0  0  0  0  0  0  0  0  0
    8.4985   20.4301    8.1244 O   0  0  0  0  0  0  0  0  0  0  0  0
    7.0532   18.6004   10.2688 H   0  0  0  0  0  0  0  0  0  0  0  0
    5.8635   18.9742    8.6273 C   0  0  0  0  0  0  0  0  0  0  0  0
    4.6697   19.3062    9.5817 C   0  0  0  0  0  0  0  0  0  0  0  0
    4.0693   17.9658   10.0856 C   0  0  0  0  0  0  0  0  0  0  0  0
    2.9254   18.1547   11.0863 C   0  0  0  0  0  0  0  0  0  0  0  0
    3.3520   17.7974   12.5113 C   0  0  0  0  0  0  0  0  0  0  0  0
    9.6718   17.8334   10.0050 C   0  0  0  0  0  0  0  0  0  0  0  0
   13.5886   16.6382   11.4934 C   0  0  0  0  0  0  0  0  0  0  0  0
   13.3857   16.8738   10.0934 C   0  0  0  0  0  0  0  0  0  0  0  0
   12.1233   17.2715    9.5851 C   0  0  0  0  0  0  0  0  0  0  0  0
   11.0239   17.4491   10.4916 C   0  0  0  0  0  0  0  0  0  0  0  0
   11.2301   17.2261   11.8796 C   0  0  0  0  0  0  0  0  0  0  0  0
   12.4622   16.8276   12.4195 C   0  0  0  0  0  0  0  0  0  0  0  0
   12.5943   16.6307   13.8966 C   0  0  0  0  0  0  0  0  0  0  0  0
   13.4952   16.0638   14.4281 O   0  0  0  0  0  0  0  0  0  0  0  0
   11.6633   17.2104   14.5787 O   0  0  0  0  0  0  0  0  0  0  0  0
   14.1588   15.6508   13.9113 H   0  0  0  0  0  0  0  0  0  0  0  0
   14.8400   16.2567   11.8571 O   0  0  0  0  0  0  0  0  0  0  0  0
   16.0048   17.0333   11.9657 C   0  0  0  0  0  0  0  0  0  0  0  0
   16.8672   16.3816   13.0698 C   0  0  0  0  0  0  0  0  0  0  0  0
   16.1296   15.5119   13.7081 O   0  0  0  0  0  0  0  0  0  0  0  0
   18.0120   16.6425   13.2993 O   0  0  0  0  0  0  0  0  0  0  0  0
   18.4586   17.2846   12.7835 H   0  0  0  0  0  0  0  0  0  0  0  0
 34 35  2  0  0  0
 34 39  1  0  0  0
 34 44  1  0  0  0
 35 36  1  0  0  0
 36 37  2  0  0  0
 37 38  1  0  0  0
 37 33  1  0  0  0
 38 39  2  0  0  0
 39 40  1  0  0  0
 33  1  1  0  0  0
  1  2  1  0  0  0
  1 24  1  0  0  0
 44 45  1  0  0  0
  2  3  1  0  0  0
 24 25  1  0  0  0
 24 26  2  0  0  0
  3  4  2  0  0  0
  3  6  1  0  0  0
 25 28  1  0  0  0
 28 29  1  0  0  0
 29 30  1  0  0  0
 30 31  1  0  0  0
 31 32  1  0  0  0
  6  7  1  0  0  0
  6 17  1  0  0  0
  7  8  1  0  0  0
 45 46  1  0  0  0
 46 47  2  0  0  0
 46 48  1  0  0  0
 40 41  1  0  0  0
 40 42  2  0  0  0
 17 18  1  0  0  0
 18 19  2  0  0  0
 18 23  1  0  0  0
 19 20  1  0  0  0
 20 21  2  0  0  0
 21 22  1  0  0  0
 22 23  2  0  0  0
  8 11  1  0  0  0
  8  9  2  0  0  0
 11 12  1  0  0  0
 12 13  1  0  0  0
 13 14  1  0  0  0
 13 15  2  0  0  0
  2  5  1  0  0  0
 25 27  1  0  0  0
  7 10  1  0  0  0
 48 49  1  0  0  0
 41 43  1  0  0  0
 14 16  1  0  0  0
M  END
> <minimizedAffinity>
-7.93091

$$$$
1G7G_INX_A_600


 49 50  0  0  0  0  0  0  0  0999 V2000
    9.3816   19.0698   10.0060 C   0  0  0  0  0  0  0  0  0  0  0  0
    8.9985   19.4116   11.4039 N   0  0  0  0  0  0  0  0  0  0  0  0
    9.4283   20.6094   11.8702 C   0  0  0  0  0  0  0  0  0  0  0  0
   10.2176   21.3470   11.2894 O   0  0  0  0  0  0  0  0  0  0  0  0
    8.4621   18.8007   11.9591 H   0  0  0  0  0  0  0  0  0  0  0  0
    9.1005   20.9809   13.3019 C   0  0  0  0  0  0  0  0  0  0  0  0
   10.0451   22.0577   13.6916 N   0  0  0  0  0  0  0  0  0  0  0  0
   11.0593   21.7921   14.5360 C   0  0  0  0  0  0  0  0  0  0  0  0
   11.1858   20.6379   15.0203 O   0  0  0  0  0  0  0  0  0  0  0  0
    9.9298   22.9669   13.3321 H   0  0  0  0  0  0  0  0  0  0  0  0
   11.9559   22.9279   15.0243 C   0  0  0  0  0  0  0  0  0  0  0  0
   12.8314   22.5244   16.2353 C   0  0  0  0  0  0  0  0  0  0  0  0
   12.0544   22.4175   17.5735 C   0  0  0  0  0  0  0  0  0  0  0  0
   12.2483   21.6044   18.4610 O   0  0  0  0  0  0  0  0  0  0  0  0
   11.0810   23.3695   17.6918 O   0  0  0  0  0  0  0  0  0  0  0  0
   12.9195   20.9577   18.3654 H   0  0  0  0  0  0  0  0  0  0  0  0
    7.6497   21.5047   13.2670 C   0  0  0  0  0  0  0  0  0  0  0  0
    6.9134   20.7240   14.3509 C   0  0  0  0  0  0  0  0  0  0  0  0
    7.6711   19.7895   15.1556 C   0  0  0  0  0  0  0  0  0  0  0  0
    6.9758   19.0636   16.1763 C   0  0  0  0  0  0  0  0  0  0  0  0
    5.5822   19.2734   16.3492 C   0  0  0  0  0  0  0  0  0  0  0  0
    4.8496   20.2043   15.5532 C   0  0  0  0  0  0  0  0  0  0  0  0
    5.5224   20.9648   14.5237 C   0  0  0  0  0  0  0  0  0  0  0  0
    8.2141   19.4282    9.0590 C   0  0  0  0  0  0  0  0  0  0  0  0
    8.4637   20.5706    8.4145 N   0  0  0  0  0  0  0  0  0  0  0  0
    7.1300   18.7782    9.1430 O   0  0  0  0  0  0  0  0  0  0  0  0
    9.3919   20.8930    8.4749 H   0  0  0  0  0  0  0  0  0  0  0  0
    7.5745   21.3995    7.6443 C   0  0  0  0  0  0  0  0  0  0  0  0
    6.8950   22.3926    8.6435 C   0  0  0  0  0  0  0  0  0  0  0  0
    8.0150   23.1828    9.3731 C   0  0  0  0  0  0  0  0  0  0  0  0
    7.5025   23.9939   10.5669 C   0  0  0  0  0  0  0  0  0  0  0  0
    6.0073   23.7738   10.8040 C   0  0  0  0  0  0  0  0  0  0  0  0
    9.7737   17.6160    9.9465 C   0  0  0  0  0  0  0  0  0  0  0  0
   13.7419   16.5906   11.4255 C   0  0  0  0  0  0  0  0  0  0  0  0
   13.5201   16.7915   10.0229 C   0  0  0  0  0  0  0  0  0  0  0  0
   12.2405   17.1339    9.5175 C   0  0  0  0  0  0  0  0  0  0  0  0
   11.1423   17.2898   10.4293 C   0  0  0  0  0  0  0  0  0  0  0  0
   11.3667   17.1014   11.8197 C   0  0  0  0  0  0  0  0  0  0  0  0
   12.6164   16.7577   12.3570 C   0  0  0  0  0  0  0  0  0  0  0  0
   12.7665   16.5945   13.8365 C   0  0  0  0  0  0  0  0  0  0  0  0
   12.2024   17.2510   14.6526 O   0  0  0  0  0  0  0  0  0  0  0  0
   13.5217   15.6016   14.1711 O   0  0  0  0  0  0  0  0  0  0  0  0
   11.6598   17.9665   14.3850 H   0  0  0  0  0  0  0  0  0  0  0  0
   15.0088   16.2611   11.7862 O   0  0  0  0  0  0  0  0  0  0  0  0
   16.0626   17.1010   12.1808 C   0  0  0  0  0  0  0  0  0  0  0  0
   16.9270   16.2878   13.1703 C   0  0  0  0  0  0  0  0  0  0  0  0
   18.1297   16.7988   13.1819 O   0  0  0  0  0  0  0  0  0  0  0  0
   16.5519   15.3462   13.8060 O   0  0  0  0  0  0  0  0  0  0  0  0
   15.6655   15.0525   13.7297 H   0  0  0  0  0  0  0  0  0  0  0  0
 34 35  2  0  0  0
 34 39  1  0  0  0
 34 44  1  0  0  0
 35 36  1  0  0  0
 36 37  2  0  0  0
 37 38  1  0  0  0
 37 33  1  0  0  0
 38 39  2  0  0  0
 39 40  1  0  0  0
 33  1  1  0  0  0
  1  2  1  0  0  0
  1 24  1  0  0  0
 44 45  1  0  0  0
  2  3  1  0  0  0
 24 25  1  0  0  0
 24 26  2  0  0  0
  3  4  2  0  0  0
  3  6  1  0  0  0
 25 28  1  0  0  0
 28 29  1  0  0  0
 29 30  1  0  0  0
 30 31  1  0  0  0
 31 32  1  0  0  0
  6  7  1  0  0  0
  6 17  1  0  0  0
  7  8  1  0  0  0
 45 46  1  0  0  0
 46 47  2  0  0  0
 46 48  1  0  0  0
 40 41  1  0  0  0
 40 42  2  0  0  0
 17 18  1  0  0  0
 18 19  2  0  0  0
 18 23  1  0  0  0
 19 20  1  0  0  0
 20 21  2  0  0  0
 21 22  1  0  0  0
 22 23  2  0  0  0
  8 11  1  0  0  0
  8  9  2  0  0  0
 11 12  1  0  0  0
 12 13  1  0  0  0
 13 14  1  0  0  0
 13 15  2  0  0  0
  2  5  1  0  0  0
 25 27  1  0  0  0
  7 10  1  0  0  0
 48 49  1  0  0  0
 41 43  1  0  0  0
 14 16  1  0  0  0
M  END
> <minimizedAffinity>
-7.86081

$$$$
1G7G_INX_A_600


 49 50  0  0  0  0  0  0  0  0999 V2000
    9.1896   18.5880    9.6669 C   0  0  0  0  0  0  0  0  0  0  0  0
    7.7784   18.5243    9.1958 N   0  0  0  0  0  0  0  0  0  0  0  0
    6.8783   19.2636    9.8888 C   0  0  0  0  0  0  0  0  0  0  0  0
    7.1113   19.8478   10.9418 O   0  0  0  0  0  0  0  0  0  0  0  0
    7.5135   17.9749    8.4229 H   0  0  0  0  0  0  0  0  0  0  0  0
    5.4229   19.1954    9.4736 C   0  0  0  0  0  0  0  0  0  0  0  0
    4.6409   18.9036   10.7012 N   0  0  0  0  0  0  0  0  0  0  0  0
    3.6806   17.9604   10.6808 C   0  0  0  0  0  0  0  0  0  0  0  0
    3.4244   17.3498    9.6111 O   0  0  0  0  0  0  0  0  0  0  0  0
    4.8248   19.4003   11.5310 H   0  0  0  0  0  0  0  0  0  0  0  0
    2.8019   17.7470   11.9115 C   0  0  0  0  0  0  0  0  0  0  0  0
    1.3023   17.5940   11.5601 C   0  0  0  0  0  0  0  0  0  0  0  0
    0.5788   18.9340   11.2653 C   0  0  0  0  0  0  0  0  0  0  0  0
    0.9527   20.0470   11.5939 O   0  0  0  0  0  0  0  0  0  0  0  0
   -0.5775   18.7607   10.5577 O   0  0  0  0  0  0  0  0  0  0  0  0
    1.7478   20.1499   12.0789 H   0  0  0  0  0  0  0  0  0  0  0  0
    5.0874   20.5979    8.9252 C   0  0  0  0  0  0  0  0  0  0  0  0
    4.1647   20.3551    7.7353 C   0  0  0  0  0  0  0  0  0  0  0  0
    2.9783   21.1747    7.6107 C   0  0  0  0  0  0  0  0  0  0  0  0
    2.1185   20.9465    6.4878 C   0  0  0  0  0  0  0  0  0  0  0  0
    2.4495   19.9264    5.5572 C   0  0  0  0  0  0  0  0  0  0  0  0
    3.6273   19.1312    5.6888 C   0  0  0  0  0  0  0  0  0  0  0  0
    4.5252   19.3442    6.8020 C   0  0  0  0  0  0  0  0  0  0  0  0
    9.9118   19.7490    8.9466 C   0  0  0  0  0  0  0  0  0  0  0  0
   10.3037   19.3755    7.7261 N   0  0  0  0  0  0  0  0  0  0  0  0
   10.2312   20.7815    9.6076 O   0  0  0  0  0  0  0  0  0  0  0  0
    9.9157   18.5314    7.4002 H   0  0  0  0  0  0  0  0  0  0  0  0
   11.2103   20.0260    6.8173 C   0  0  0  0  0  0  0  0  0  0  0  0
   12.6553   19.7950    7.3696 C   0  0  0  0  0  0  0  0  0  0  0  0
   13.4004   21.1572    7.3526 C   0  0  0  0  0  0  0  0  0  0  0  0
   14.1594   21.4144    6.0474 C   0  0  0  0  0  0  0  0  0  0  0  0
   14.3421   22.9097    5.7812 C   0  0  0  0  0  0  0  0  0  0  0  0
    9.8423   17.2484    9.4430 C   0  0  0  0  0  0  0  0  0  0  0  0
   13.6026   16.5593   11.5336 C   0  0  0  0  0  0  0  0  0  0  0  0
   13.5528   16.5266   10.1007 C   0  0  0  0  0  0  0  0  0  0  0  0
   12.3437   16.7557    9.3967 C   0  0  0  0  0  0  0  0  0  0  0  0
   11.1425   17.0334   10.1328 C   0  0  0  0  0  0  0  0  0  0  0  0
   11.1964   17.0766   11.5520 C   0  0  0  0  0  0  0  0  0  0  0  0
   12.3719   16.8506   12.2839 C   0  0  0  0  0  0  0  0  0  0  0  0
   12.3412   16.9314   13.7774 C   0  0  0  0  0  0  0  0  0  0  0  0
   13.1723   16.4797   14.4989 O   0  0  0  0  0  0  0  0  0  0  0  0
   11.3492   17.6199   14.2356 O   0  0  0  0  0  0  0  0  0  0  0  0
   13.8827   15.9834   14.1425 H   0  0  0  0  0  0  0  0  0  0  0  0
   14.8167   16.3193   12.0922 O   0  0  0  0  0  0  0  0  0  0  0  0
   15.9362   17.1631   12.1712 C   0  0  0  0  0  0  0  0  0  0  0  0
   16.9341   16.4818   13.1342 C   0  0  0  0  0  0  0  0  0  0  0  0
   16.2768   15.6226   13.8673 O   0  0  0  0  0  0  0  0  0  0  0  0
   18.1059   16.7149   13.1966 O   0  0  0  0  0  0  0  0  0  0  0  0
   18.4880   17.3518   12.6254 H   0  0  0  0  0  0  0  0  0  0  0  0
 34 35  2  0  0  0
 34 39  1  0  0  0
 34 44  1  0  0  0
 35 36  1  0  0  0
 36 37  2  0  0  0
 37 38  1  0  0  0
 37 33  1  0  0  0
 38 39  2  0  0  0
 39 40  1  0  0  0
 33  1  1  0  0  0
  1  2  1  0  0  0
  1 24  1  0  0  0
 44 45  1  0  0  0
  2  3  1  0  0  0
 24 25  1  0  0  0
 24 26  2  0  0  0
  3  4  2  0  0  0
  3  6  1  0  0  0
 25 28  1  0  0  0
 28 29  1  0  0  0
 29 30  1  0  0  0
 30 31  1  0  0  0
 31 32  1  0  0  0
  6  7  1  0  0  0
  6 17  1  0  0  0
  7  8  1  0  0  0
 45 46  1  0  0  0
 46 47  2  0  0  0
 46 48  1  0  0  0
 40 41  1  0  0  0
 40 42  2  0  0  0
 17 18  1  0  0  0
 18 19  2  0  0  0
 18 23  1  0  0  0
 19 20  1  0  0  0
 20 21  2  0  0  0
 21 22  1  0  0  0
 22 23  2  0  0  0
  8 11  1  0  0  0
  8  9  2  0  0  0
 11 12  1  0  0  0
 12 13  1  0  0  0
 13 14  1  0  0  0
 13 15  2  0  0  0
  2  5  1  0  0  0
 25 27  1  0  0  0
  7 10  1  0  0  0
 48 49  1  0  0  0
 41 43  1  0  0  0
 14 16  1  0  0  0
M  END
> <minimizedAffinity>
-7.75503

$$$$
1G7G_INX_A_600


 49 50  0  0  0  0  0  0  0  0999 V2000
    9.5755   18.6030    9.1626 C   0  0  0  0  0  0  0  0  0  0  0  0
   10.8256   19.3638    8.8871 N   0  0  0  0  0  0  0  0  0  0  0  0
   10.6917   20.4981    8.1574 C   0  0  0  0  0  0  0  0  0  0  0  0
    9.6618   20.8533    7.5941 O   0  0  0  0  0  0  0  0  0  0  0  0
   11.7018   19.0594    9.2170 H   0  0  0  0  0  0  0  0  0  0  0  0
   11.9422   21.2816    7.8143 C   0  0  0  0  0  0  0  0  0  0  0  0
   12.1934   21.0739    6.3661 N   0  0  0  0  0  0  0  0  0  0  0  0
   12.5490   19.8580    5.9109 C   0  0  0  0  0  0  0  0  0  0  0  0
   12.7003   18.9057    6.7190 O   0  0  0  0  0  0  0  0  0  0  0  0
   12.0998   21.8262    5.7379 H   0  0  0  0  0  0  0  0  0  0  0  0
   12.9196   19.6780    4.4403 C   0  0  0  0  0  0  0  0  0  0  0  0
   12.6141   18.2551    3.9132 C   0  0  0  0  0  0  0  0  0  0  0  0
   13.7994   17.2626    4.0397 C   0  0  0  0  0  0  0  0  0  0  0  0
   13.7224   16.0672    4.2664 O   0  0  0  0  0  0  0  0  0  0  0  0
   15.0112   17.8676    3.8578 O   0  0  0  0  0  0  0  0  0  0  0  0
   12.8842   15.6666    4.3888 H   0  0  0  0  0  0  0  0  0  0  0  0
   11.5953   22.7559    8.1089 C   0  0  0  0  0  0  0  0  0  0  0  0
   12.6187   23.2114    9.1440 C   0  0  0  0  0  0  0  0  0  0  0  0
   12.1600   23.4709   10.4920 C   0  0  0  0  0  0  0  0  0  0  0  0
   13.1265   23.8924   11.4615 C   0  0  0  0  0  0  0  0  0  0  0  0
   14.4807   24.0532   11.0659 C   0  0  0  0  0  0  0  0  0  0  0  0
   14.9200   23.7859    9.7346 C   0  0  0  0  0  0  0  0  0  0  0  0
   13.9741   23.3447    8.7339 C   0  0  0  0  0  0  0  0  0  0  0  0
    8.7593   19.3451   10.2449 C   0  0  0  0  0  0  0  0  0  0  0  0
    7.5058   19.5490    9.8330 N   0  0  0  0  0  0  0  0  0  0  0  0
    9.3642   19.8420   11.2410 O   0  0  0  0  0  0  0  0  0  0  0  0
    7.2393   19.0430    9.0316 H   0  0  0  0  0  0  0  0  0  0  0  0
    6.4871   20.4001   10.3888 C   0  0  0  0  0  0  0  0  0  0  0  0
    5.1363   19.9999    9.7096 C   0  0  0  0  0  0  0  0  0  0  0  0
    4.4637   18.9066   10.5832 C   0  0  0  0  0  0  0  0  0  0  0  0
    3.6563   17.8930    9.7668 C   0  0  0  0  0  0  0  0  0  0  0  0
    2.5853   17.2042   10.6147 C   0  0  0  0  0  0  0  0  0  0  0  0
    9.9354   17.1917    9.5492 C   0  0  0  0  0  0  0  0  0  0  0  0
   13.6185   16.6466   11.8127 C   0  0  0  0  0  0  0  0  0  0  0  0
   13.6329   16.5918   10.3796 C   0  0  0  0  0  0  0  0  0  0  0  0
   12.4499   16.7742    9.6200 C   0  0  0  0  0  0  0  0  0  0  0  0
   11.2097   17.0260   10.2985 C   0  0  0  0  0  0  0  0  0  0  0  0
   11.1996   17.0912   11.7178 C   0  0  0  0  0  0  0  0  0  0  0  0
   12.3478   16.9113   12.5038 C   0  0  0  0  0  0  0  0  0  0  0  0
   12.2488   17.0126   13.9931 C   0  0  0  0  0  0  0  0  0  0  0  0
   13.0131   16.5186   14.7594 O   0  0  0  0  0  0  0  0  0  0  0  0
   11.2811   17.7678   14.3948 O   0  0  0  0  0  0  0  0  0  0  0  0
   13.7073   15.9743   14.4435 H   0  0  0  0  0  0  0  0  0  0  0  0
   14.8133   16.4514   12.4275 O   0  0  0  0  0  0  0  0  0  0  0  0
   16.1077   16.7041   11.9453 C   0  0  0  0  0  0  0  0  0  0  0  0
   17.0827   16.3273   13.0831 C   0  0  0  0  0  0  0  0  0  0  0  0
   16.5246   15.3971   13.8119 O   0  0  0  0  0  0  0  0  0  0  0  0
   18.1596   16.8164   13.2632 O   0  0  0  0  0  0  0  0  0  0  0  0
   18.4753   17.4809   12.6829 H   0  0  0  0  0  0  0  0  0  0  0  0
 34 35  2  0  0  0
 34 39  1  0  0  0
 34 44  1  0  0  0
 35 36  1  0  0  0
 36 37  2  0  0  0
 37 38  1  0  0  0
 37 33  1  0  0  0
 38 39  2  0  0  0
 39 40  1  0  0  0
 33  1  1  0  0  0
  1  2  1  0  0  0
  1 24  1  0  0  0
 44 45  1  0  0  0
  2  3  1  0  0  0
 24 25  1  0  0  0
 24 26  2  0  0  0
  3  4  2  0  0  0
  3  6  1  0  0  0
 25 28  1  0  0  0
 28 29  1  0  0  0
 29 30  1  0  0  0
 30 31  1  0  0  0
 31 32  1  0  0  0
  6  7  1  0  0  0
  6 17  1  0  0  0
  7  8  1  0  0  0
 45 46  1  0  0  0
 46 47  2  0  0  0
 46 48  1  0  0  0
 40 41  1  0  0  0
 40 42  2  0  0  0
 17 18  1  0  0  0
 18 19  2  0  0  0
 18 23  1  0  0  0
 19 20  1  0  0  0
 20 21  2  0  0  0
 21 22  1  0  0  0
 22 23  2  0  0  0
  8 11  1  0  0  0
  8  9  2  0  0  0
 11 12  1  0  0  0
 12 13  1  0  0  0
 13 14  1  0  0  0
 13 15  2  0  0  0
  2  5  1  0  0  0
 25 27  1  0  0  0
  7 10  1  0  0  0
 48 49  1  0  0  0
 41 43  1  0  0  0
 14 16  1  0  0  0
M  END
> <minimizedAffinity>
-7.72312

$$$$
1G7G_INX_A_600


 49 50  0  0  0  0  0  0  0  0999 V2000
    9.4379   19.0408    9.6381 C   0  0  0  0  0  0  0  0  0  0  0  0
   10.6711   19.8755    9.6533 N   0  0  0  0  0  0  0  0  0  0  0  0
   10.5166   21.1838    9.3346 C   0  0  0  0  0  0  0  0  0  0  0  0
    9.4847   21.6833    8.8987 O   0  0  0  0  0  0  0  0  0  0  0  0
   11.5508   19.4976    9.8824 H   0  0  0  0  0  0  0  0  0  0  0  0
   11.7502   22.0622    9.2934 C   0  0  0  0  0  0  0  0  0  0  0  0
   11.9661   22.4304    7.8716 N   0  0  0  0  0  0  0  0  0  0  0  0
   12.7075   21.6380    7.0749 C   0  0  0  0  0  0  0  0  0  0  0  0
   13.2445   20.6022    7.5456 O   0  0  0  0  0  0  0  0  0  0  0  0
   11.5668   23.2548    7.5110 H   0  0  0  0  0  0  0  0  0  0  0  0
   13.0230   22.0809    5.6478 C   0  0  0  0  0  0  0  0  0  0  0  0
   14.4226   21.6226    5.1717 C   0  0  0  0  0  0  0  0  0  0  0  0
   15.5629   22.6231    5.4953 C   0  0  0  0  0  0  0  0  0  0  0  0
   15.8486   23.0652    6.5950 O   0  0  0  0  0  0  0  0  0  0  0  0
   16.2718   22.9869    4.3849 O   0  0  0  0  0  0  0  0  0  0  0  0
   15.3533   22.8064    7.3471 H   0  0  0  0  0  0  0  0  0  0  0  0
   11.3969   23.3041   10.1381 C   0  0  0  0  0  0  0  0  0  0  0  0
   12.7005   23.7149   10.8150 C   0  0  0  0  0  0  0  0  0  0  0  0
   12.6618   24.0659   12.2187 C   0  0  0  0  0  0  0  0  0  0  0  0
   13.8901   24.4449   12.8509 C   0  0  0  0  0  0  0  0  0  0  0  0
   15.0840   24.4769   12.0831 C   0  0  0  0  0  0  0  0  0  0  0  0
   15.1083   24.1204   10.7013 C   0  0  0  0  0  0  0  0  0  0  0  0
   13.8896   23.7188   10.0347 C   0  0  0  0  0  0  0  0  0  0  0  0
    8.5445   19.4358   10.8356 C   0  0  0  0  0  0  0  0  0  0  0  0
    7.3247   19.7840   10.4191 N   0  0  0  0  0  0  0  0  0  0  0  0
    9.0745   19.5914   11.9757 O   0  0  0  0  0  0  0  0  0  0  0  0
    7.1178   19.5527    9.4847 H   0  0  0  0  0  0  0  0  0  0  0  0
    6.2681   20.4480   11.1358 C   0  0  0  0  0  0  0  0  0  0  0  0
    4.9752   19.5890   10.9434 C   0  0  0  0  0  0  0  0  0  0  0  0
    4.4121   19.2452   12.3490 C   0  0  0  0  0  0  0  0  0  0  0  0
    3.3725   18.1208   12.3248 C   0  0  0  0  0  0  0  0  0  0  0  0
    3.2950   17.4476   10.9533 C   0  0  0  0  0  0  0  0  0  0  0  0
    9.8304   17.5860    9.6404 C   0  0  0  0  0  0  0  0  0  0  0  0
   13.7130   16.6015   11.3557 C   0  0  0  0  0  0  0  0  0  0  0  0
   13.5697   16.7801    9.9399 C   0  0  0  0  0  0  0  0  0  0  0  0
   12.3193   17.1089    9.3582 C   0  0  0  0  0  0  0  0  0  0  0  0
   11.1710   17.2734   10.2043 C   0  0  0  0  0  0  0  0  0  0  0  0
   11.3175   17.1072   11.6078 C   0  0  0  0  0  0  0  0  0  0  0  0
   12.5362   16.7774   12.2198 C   0  0  0  0  0  0  0  0  0  0  0  0
   12.6035   16.6373   13.7077 C   0  0  0  0  0  0  0  0  0  0  0  0
   13.4652   16.0674   14.2976 O   0  0  0  0  0  0  0  0  0  0  0  0
   11.6637   17.2703   14.3276 O   0  0  0  0  0  0  0  0  0  0  0  0
   14.1363   15.6152   13.8253 H   0  0  0  0  0  0  0  0  0  0  0  0
   14.9588   16.2834   11.7920 O   0  0  0  0  0  0  0  0  0  0  0  0
   15.9972   17.1359   12.2004 C   0  0  0  0  0  0  0  0  0  0  0  0
   16.8923   16.3137   13.1545 C   0  0  0  0  0  0  0  0  0  0  0  0
   18.1117   16.7771   13.0758 O   0  0  0  0  0  0  0  0  0  0  0  0
   16.5239   15.4035   13.8379 O   0  0  0  0  0  0  0  0  0  0  0  0
   15.6239   15.1431   13.8261 H   0  0  0  0  0  0  0  0  0  0  0  0
 34 35  2  0  0  0
 34 39  1  0  0  0
 34 44  1  0  0  0
 35 36  1  0  0  0
 36 37  2  0  0  0
 37 38  1  0  0  0
 37 33  1  0  0  0
 38 39  2  0  0  0
 39 40  1  0  0  0
 33  1  1  0  0  0
  1  2  1  0  0  0
  1 24  1  0  0  0
 44 45  1  0  0  0
  2  3  1  0  0  0
 24 25  1  0  0  0
 24 26  2  0  0  0
  3  4  2  0  0  0
  3  6  1  0  0  0
 25 28  1  0  0  0
 28 29  1  0  0  0
 29 30  1  0  0  0
 30 31  1  0  0  0
 31 32  1  0  0  0
  6  7  1  0  0  0
  6 17  1  0  0  0
  7  8  1  0  0  0
 45 46  1  0  0  0
 46 47  2  0  0  0
 46 48  1  0  0  0
 40 41  1  0  0  0
 40 42  2  0  0  0
 17 18  1  0  0  0
 18 19  2  0  0  0
 18 23  1  0  0  0
 19 20  1  0  0  0
 20 21  2  0  0  0
 21 22  1  0  0  0
 22 23  2  0  0  0
  8 11  1  0  0  0
  8  9  2  0  0  0
 11 12  1  0  0  0
 12 13  1  0  0  0
 13 14  1  0  0  0
 13 15  2  0  0  0
  2  5  1  0  0  0
 25 27  1  0  0  0
  7 10  1  0  0  0
 48 49  1  0  0  0
 41 43  1  0  0  0
 14 16  1  0  0  0
M  END
> <minimizedAffinity>
-7.63142

$$$$
1G7G_INX_A_600


 49 50  0  0  0  0  0  0  0  0999 V2000
    9.3119   18.7898    9.7673 C   0  0  0  0  0  0  0  0  0  0  0  0
    8.1337   18.9744    8.8754 N   0  0  0  0  0  0  0  0  0  0  0  0
    7.2370   19.9191    9.2502 C   0  0  0  0  0  0  0  0  0  0  0  0
    7.2493   20.5126   10.3235 O   0  0  0  0  0  0  0  0  0  0  0  0
    8.0126   18.4393    8.0579 H   0  0  0  0  0  0  0  0  0  0  0  0
    5.9997   20.1116    8.3975 C   0  0  0  0  0  0  0  0  0  0  0  0
    4.8529   19.5920    9.1839 N   0  0  0  0  0  0  0  0  0  0  0  0
    4.4693   18.3086    9.0495 C   0  0  0  0  0  0  0  0  0  0  0  0
    5.0632   17.5592    8.2320 O   0  0  0  0  0  0  0  0  0  0  0  0
    4.3724   20.1865    9.8044 H   0  0  0  0  0  0  0  0  0  0  0  0
    3.2184   17.8121    9.7716 C   0  0  0  0  0  0  0  0  0  0  0  0
    3.4305   17.6455   11.2957 C   0  0  0  0  0  0  0  0  0  0  0  0
    3.0289   18.8882   12.1327 C   0  0  0  0  0  0  0  0  0  0  0  0
    3.3828   20.0384   11.9377 O   0  0  0  0  0  0  0  0  0  0  0  0
    2.1889   18.5759   13.1645 O   0  0  0  0  0  0  0  0  0  0  0  0
    3.9591   20.2370   11.2261 H   0  0  0  0  0  0  0  0  0  0  0  0
    5.8802   21.6355    8.1874 C   0  0  0  0  0  0  0  0  0  0  0  0
    5.1056   21.8029    6.8842 C   0  0  0  0  0  0  0  0  0  0  0  0
    4.1381   22.8758    6.7961 C   0  0  0  0  0  0  0  0  0  0  0  0
    3.4180   23.0323    5.5677 C   0  0  0  0  0  0  0  0  0  0  0  0
    3.6655   22.1306    4.4992 C   0  0  0  0  0  0  0  0  0  0  0  0
    4.6285   21.0819    4.5979 C   0  0  0  0  0  0  0  0  0  0  0  0
    5.3840   20.9039    5.8179 C   0  0  0  0  0  0  0  0  0  0  0  0
   10.3223   19.9314    9.5141 C   0  0  0  0  0  0  0  0  0  0  0  0
   10.4340   20.7098   10.5931 N   0  0  0  0  0  0  0  0  0  0  0  0
   10.7435   20.1323    8.3364 O   0  0  0  0  0  0  0  0  0  0  0  0
   10.0378   20.3451   11.4173 H   0  0  0  0  0  0  0  0  0  0  0  0
   11.0489   22.0040   10.7278 C   0  0  0  0  0  0  0  0  0  0  0  0
   10.8016   22.4768   12.1980 C   0  0  0  0  0  0  0  0  0  0  0  0
   10.3062   21.2557   13.0194 C   0  0  0  0  0  0  0  0  0  0  0  0
   10.9170   21.1833   14.4221 C   0  0  0  0  0  0  0  0  0  0  0  0
   11.6829   22.4596   14.7752 C   0  0  0  0  0  0  0  0  0  0  0  0
    9.8911   17.4179    9.5368 C   0  0  0  0  0  0  0  0  0  0  0  0
   13.6927   16.5640   11.4873 C   0  0  0  0  0  0  0  0  0  0  0  0
   13.6140   16.6499   10.0579 C   0  0  0  0  0  0  0  0  0  0  0  0
   12.3910   16.9347    9.3997 C   0  0  0  0  0  0  0  0  0  0  0  0
   11.2049   17.1485   10.1803 C   0  0  0  0  0  0  0  0  0  0  0  0
   11.2874   17.0742   11.5968 C   0  0  0  0  0  0  0  0  0  0  0  0
   12.4774   16.7903   12.2837 C   0  0  0  0  0  0  0  0  0  0  0  0
   12.4768   16.7471   13.7791 C   0  0  0  0  0  0  0  0  0  0  0  0
   11.7910   17.4234   14.4775 O   0  0  0  0  0  0  0  0  0  0  0  0
   13.2480   15.8338   14.2683 O   0  0  0  0  0  0  0  0  0  0  0  0
   11.2398   18.0797   14.0988 H   0  0  0  0  0  0  0  0  0  0  0  0
   14.9177   16.2805   11.9996 O   0  0  0  0  0  0  0  0  0  0  0  0
   15.9675   17.1569   12.3183 C   0  0  0  0  0  0  0  0  0  0  0  0
   16.9776   16.3462   13.1609 C   0  0  0  0  0  0  0  0  0  0  0  0
   18.1656   16.8622   12.9873 O   0  0  0  0  0  0  0  0  0  0  0  0
   16.7091   15.4025   13.8453 O   0  0  0  0  0  0  0  0  0  0  0  0
   15.8226   15.1051   13.9065 H   0  0  0  0  0  0  0  0  0  0  0  0
 34 35  2  0  0  0
 34 39  1  0  0  0
 34 44  1  0  0  0
 35 36  1  0  0  0
 36 37  2  0  0  0
 37 38  1  0  0  0
 37 33  1  0  0  0
 38 39  2  0  0  0
 39 40  1  0  0  0
 33  1  1  0  0  0
  1  2  1  0  0  0
  1 24  1  0  0  0
 44 45  1  0  0  0
  2  3  1  0  0  0
 24 25  1  0  0  0
 24 26  2  0  0  0
  3  4  2  0  0  0
  3  6  1  0  0  0
 25 28  1  0  0  0
 28 29  1  0  0  0
 29 30  1  0  0  0
 30 31  1  0  0  0
 31 32  1  0  0  0
  6  7  1  0  0  0
  6 17  1  0  0  0
  7  8  1  0  0  0
 45 46  1  0  0  0
 46 47  2  0  0  0
 46 48  1  0  0  0
 40 41  1  0  0  0
 40 42  2  0  0  0
 17 18  1  0  0  0
 18 19  2  0  0  0
 18 23  1  0  0  0
 19 20  1  0  0  0
 20 21  2  0  0  0
 21 22  1  0  0  0
 22 23  2  0  0  0
  8 11  1  0  0  0
  8  9  2  0  0  0
 11 12  1  0  0  0
 12 13  1  0  0  0
 13 14  1  0  0  0
 13 15  2  0  0  0
  2  5  1  0  0  0
 25 27  1  0  0  0
  7 10  1  0  0  0
 48 49  1  0  0  0
 41 43  1  0  0  0
 14 16  1  0  0  0
M  END
> <minimizedAffinity>
-7.62873

$$$$
1G7G_INX_A_600


 49 50  0  0  0  0  0  0  0  0999 V2000
    9.2663   18.6598    9.8361 C   0  0  0  0  0  0  0  0  0  0  0  0
    7.9601   18.7526    9.1269 N   0  0  0  0  0  0  0  0  0  0  0  0
    7.0027   19.5034    9.7240 C   0  0  0  0  0  0  0  0  0  0  0  0
    7.0834   19.9764   10.8527 O   0  0  0  0  0  0  0  0  0  0  0  0
    7.8007   18.2934    8.2707 H   0  0  0  0  0  0  0  0  0  0  0  0
    5.6430   19.5907    9.0616 C   0  0  0  0  0  0  0  0  0  0  0  0
    5.8837   19.9009    7.6300 N   0  0  0  0  0  0  0  0  0  0  0  0
    5.3008   20.9750    7.0654 C   0  0  0  0  0  0  0  0  0  0  0  0
    4.5256   21.6967    7.7443 O   0  0  0  0  0  0  0  0  0  0  0  0
    6.4702   19.3205    7.0929 H   0  0  0  0  0  0  0  0  0  0  0  0
    5.4578   21.2220    5.5665 C   0  0  0  0  0  0  0  0  0  0  0  0
    4.2054   21.8715    4.9299 C   0  0  0  0  0  0  0  0  0  0  0  0
    3.5870   21.0529    3.7665 C   0  0  0  0  0  0  0  0  0  0  0  0
    3.8469   21.1684    2.5810 O   0  0  0  0  0  0  0  0  0  0  0  0
    2.6781   20.1292    4.2007 O   0  0  0  0  0  0  0  0  0  0  0  0
    4.4723   21.8063    2.2984 H   0  0  0  0  0  0  0  0  0  0  0  0
    5.0170   18.1901    9.2256 C   0  0  0  0  0  0  0  0  0  0  0  0
    3.7193   18.4166    9.9945 C   0  0  0  0  0  0  0  0  0  0  0  0
    2.9284   17.2602   10.3581 C   0  0  0  0  0  0  0  0  0  0  0  0
    1.7138   17.4782   11.0855 C   0  0  0  0  0  0  0  0  0  0  0  0
    1.3267   18.8061   11.4064 C   0  0  0  0  0  0  0  0  0  0  0  0
    2.1209   19.9365   11.0481 C   0  0  0  0  0  0  0  0  0  0  0  0
    3.3602   19.7522   10.3262 C   0  0  0  0  0  0  0  0  0  0  0  0
   10.2077   19.7668    9.3102 C   0  0  0  0  0  0  0  0  0  0  0  0
   10.1906   20.8257   10.1233 N   0  0  0  0  0  0  0  0  0  0  0  0
   10.6921   19.6619    8.1443 O   0  0  0  0  0  0  0  0  0  0  0  0
    9.7666   20.6762   10.9991 H   0  0  0  0  0  0  0  0  0  0  0  0
   10.7014   22.1536    9.9069 C   0  0  0  0  0  0  0  0  0  0  0  0
   10.7396   22.8615   11.3011 C   0  0  0  0  0  0  0  0  0  0  0  0
    9.7917   22.0899   12.2588 C   0  0  0  0  0  0  0  0  0  0  0  0
   10.3799   21.8892   13.6586 C   0  0  0  0  0  0  0  0  0  0  0  0
   10.6998   20.4190   13.9354 C   0  0  0  0  0  0  0  0  0  0  0  0
    9.8221   17.2703    9.6604 C   0  0  0  0  0  0  0  0  0  0  0  0
   13.7058   16.4859   11.4733 C   0  0  0  0  0  0  0  0  0  0  0  0
   13.5701   16.5463   10.0469 C   0  0  0  0  0  0  0  0  0  0  0  0
   12.3194   16.8082    9.4328 C   0  0  0  0  0  0  0  0  0  0  0  0
   11.1628   17.0244   10.2559 C   0  0  0  0  0  0  0  0  0  0  0  0
   11.3017   16.9753   11.6691 C   0  0  0  0  0  0  0  0  0  0  0  0
   12.5206   16.7145   12.3132 C   0  0  0  0  0  0  0  0  0  0  0  0
   12.5793   16.6972   13.8079 C   0  0  0  0  0  0  0  0  0  0  0  0
   13.4977   16.2923   14.4466 O   0  0  0  0  0  0  0  0  0  0  0  0
   11.5538   17.2455   14.3699 O   0  0  0  0  0  0  0  0  0  0  0  0
   14.2305   15.8982   14.0157 H   0  0  0  0  0  0  0  0  0  0  0  0
   14.9529   16.2227   11.9416 O   0  0  0  0  0  0  0  0  0  0  0  0
   16.0475   17.0914   12.0789 C   0  0  0  0  0  0  0  0  0  0  0  0
   16.9897   16.4510   13.1227 C   0  0  0  0  0  0  0  0  0  0  0  0
   16.3166   15.5472   13.7845 O   0  0  0  0  0  0  0  0  0  0  0  0
   18.1364   16.7458   13.2943 O   0  0  0  0  0  0  0  0  0  0  0  0
   18.5332   17.4106   12.7665 H   0  0  0  0  0  0  0  0  0  0  0  0
 34 35  2  0  0  0
 34 39  1  0  0  0
 34 44  1  0  0  0
 35 36  1  0  0  0
 36 37  2  0  0  0
 37 38  1  0  0  0
 37 33  1  0  0  0
 38 39  2  0  0  0
 39 40  1  0  0  0
 33  1  1  0  0  0
  1  2  1  0  0  0
  1 24  1  0  0  0
 44 45  1  0  0  0
  2  3  1  0  0  0
 24 25  1  0  0  0
 24 26  2  0  0  0
  3  4  2  0  0  0
  3  6  1  0  0  0
 25 28  1  0  0  0
 28 29  1  0  0  0
 29 30  1  0  0  0
 30 31  1  0  0  0
 31 32  1  0  0  0
  6  7  1  0  0  0
  6 17  1  0  0  0
  7  8  1  0  0  0
 45 46  1  0  0  0
 46 47  2  0  0  0
 46 48  1  0  0  0
 40 41  1  0  0  0
 40 42  2  0  0  0
 17 18  1  0  0  0
 18 19  2  0  0  0
 18 23  1  0  0  0
 19 20  1  0  0  0
 20 21  2  0  0  0
 21 22  1  0  0  0
 22 23  2  0  0  0
  8 11  1  0  0  0
  8  9  2  0  0  0
 11 12  1  0  0  0
 12 13  1  0  0  0
 13 14  1  0  0  0
 13 15  2  0  0  0
  2  5  1  0  0  0
 25 27  1  0  0  0
  7 10  1  0  0  0
 48 49  1  0  0  0
 41 43  1  0  0  0
 14 16  1  0  0  0
M  END
> <minimizedAffinity>
-7.61298

$$$$
