1B38_ATP_A_381
  RCSB PDB12061702023D
Coordinates from PDB:1B38:A:381 Model:1 without hydrogens
 31 33  0  0  0  0            999 V2000
   -3.9040   24.9710   15.4350   P 0  0  0  0  0  0  0  0  0  0  0  0
   -4.4430   24.7710   16.7730   O 0  0  0  0  0  0  0  0  0  0  0  0
   -3.5100   26.3670   15.1110   O 0  0  0  0  0  0  0  0  0  0  0  0
   -5.0210   24.5800   14.4860   O 0  0  0  0  0  0  0  0  0  0  0  0
   -1.5390   24.1240   14.0510   P 0  0  0  0  0  0  0  0  0  0  0  0
   -1.0190   25.5070   14.0070   O 0  0  0  0  0  0  0  0  0  0  0  0
   -0.5640   23.0450   14.1360   O 0  0  0  0  0  0  0  0  0  0  0  0
   -2.7130   23.9850   15.1190   O 0  0  0  0  0  0  0  0  0  0  0  0
   -2.8080   25.0870   11.6450   P 0  0  0  0  0  0  0  0  0  0  0  0
   -3.9180   24.4130   10.8710   O 0  0  0  0  0  0  0  0  0  0  0  0
   -3.0730   26.4080   12.1520   O 0  0  0  0  0  0  0  0  0  0  0  0
   -2.4940   23.9450   12.7710   O 0  0  0  0  0  0  0  0  0  0  0  0
   -1.5280   25.1160   10.7000   O 0  0  0  0  0  0  0  0  0  0  0  0
   -1.3230   24.0470    9.7560   C 0  0  0  0  0  0  0  0  0  0  0  0
    0.1470   24.2240    9.3530   C 0  0  0  0  0  0  0  0  0  0  0  0
    0.2670   25.3240    8.4430   O 0  0  0  0  0  0  0  0  0  0  0  0
    1.0020   24.5810   10.5740   C 0  0  0  0  0  0  0  0  0  0  0  0
    2.2980   23.9790   10.3950   O 0  0  0  0  0  0  0  0  0  0  0  0
    1.1570   26.1370   10.4540   C 0  0  0  0  0  0  0  0  0  0  0  0
    2.5240   26.4140   10.8540   O 0  0  0  0  0  0  0  0  0  0  0  0
    1.1040   26.3300    8.9230   C 0  0  0  0  0  0  0  0  0  0  0  0
    0.4810   27.5940    8.5420   N 0  0  0  0  0  0  0  0  0  0  0  0
   -0.5280   28.1410    9.2580   C 0  0  0  0  0  0  0  0  0  0  0  0
   -0.7080   29.3770    9.0570   N 0  0  0  0  0  0  0  0  0  0  0  0
    0.2000   29.7400    8.1750   C 0  0  0  0  0  0  0  0  0  0  0  0
    0.4350   30.9830    7.5800   C 0  0  0  0  0  0  0  0  0  0  0  0
   -0.1950   32.1280    7.7750   N 0  0  0  0  0  0  0  0  0  0  0  0
    1.4530   31.0030    6.6910   N 0  0  0  0  0  0  0  0  0  0  0  0
    2.1200   29.8590    6.3980   C 0  0  0  0  0  0  0  0  0  0  0  0
    1.9780   28.6720    6.9310   N 0  0  0  0  0  0  0  0  0  0  0  0
    0.9630   28.6570    7.8040   C 0  0  0  0  0  0  0  0  0  0  0  0
  1  2  2  0  0  0  0
  1  3  1  0  0  0  0
  1  4  1  0  0  0  0
  1  8  1  0  0  0  0
  5  6  2  0  0  0  0
  5  7  1  0  0  0  0
  5  8  1  0  0  0  0
  5 12  1  0  0  0  0
  9 10  2  0  0  0  0
  9 11  1  0  0  0  0
  9 12  1  0  0  0  0
  9 13  1  0  0  0  0
 13 14  1  0  0  0  0
 14 15  1  0  0  0  0
 15 16  1  0  0  0  0
 15 17  1  0  0  0  0
 16 21  1  0  0  0  0
 17 18  1  0  0  0  0
 17 19  1  0  0  0  0
 19 20  1  0  0  0  0
 19 21  1  0  0  0  0
 21 22  1  0  0  0  0
 22 23  1  0  0  0  0
 22 31  1  0  0  0  0
 23 24  2  0  0  0  0
 24 25  1  0  0  0  0
 25 26  1  0  0  0  0
 25 31  2  0  0  0  0
 26 27  1  0  0  0  0
 26 28  2  0  0  0  0
 28 29  1  0  0  0  0
 29 30  2  0  0  0  0
 30 31  1  0  0  0  0
A    1
PG
A    2
O1G
A    3
O2G
A    4
O3G
A    5
PB
A    6
O1B
A    7
O2B
A    8
O3B
A    9
PA
A   10
O1A
A   11
O2A
A   12
O3A
A   13
O5'
A   14
C5'
A   15
C4'
A   16
O4'
A   17
C3'
A   18
O3'
A   19
C2'
A   20
O2'
A   21
C1'
A   22
N9
A   23
C8
A   24
N7
A   25
C5
A   26
C6
A   27
N6
A   28
N1
A   29
C2
A   30
N3
A   31
C4
M  END
>  <InstanceId>
1B38_ATP_A_381

>  <ChemCompId>
ATP

>  <PdbId>
1B38

>  <ChainId>
A

>  <ResidueNumber>
381

>  <InsertionCode>


>  <Model>
1

>  <AltIds>


>  <MissingHeavyAtoms>
0

>  <ObservedFormula>
C10 N5 O13 P3

>  <Name>
ADENOSINE-5'-TRIPHOSPHATE

>  <SystematicName>
[[(2R,3S,4R,5R)-5-(6-aminopurin-9-yl)-3,4-dihydroxy-oxolan-2-yl]methoxy-hydroxy-phosphoryl] phosphono hydrogen phosphate

>  <Synonyms>


>  <Type>
NON-POLYMER

>  <Formula>
C10 H16 N5 O13 P3

>  <MolecularWeight>
507.181

>  <ModifiedDate>
2011-06-04

>  <Parent>


>  <OneLetterCode>


>  <SubcomponentList>


>  <AmbiguousFlag>
N

>  <InChI>
InChI=1S/C10H16N5O13P3/c11-8-5-9(13-2-12-8)15(3-14-5)10-7(17)6(16)4(26-10)1-25-30(21,22)28-31(23,24)27-29(18,19)20/h2-4,6-7,10,16-17H,1H2,(H,21,22)(H,23,24)(H2,11,12,13)(H2,18,19,20)/t4-,6-,7-,10-/m1/s1

>  <InChIKey>
ZKHQWZAMYRWXGA-KQYNXXCUSA-N

>  <SMILES>
c1nc(c2c(n1)n(cn2)[C@H]3[C@@H]([C@@H]([C@H](O3)CO[P@@](=O)(O)O[P@](=O)(O)OP(=O)(O)O)O)O)N

$$$$
