4W9I_3JS_C_301
  RCSB PDB12061715563D
Coordinates from PDB:4W9I:C:301 Model:1 without hydrogens
 33 36  0  0  0  0            999 V2000
   10.7660   54.1250   95.7580   C 0  0  0  0  0  0  0  0  0  0  0  0
   11.7050   54.3010   94.5590   C 0  0  0  0  0  0  0  0  0  0  0  0
   11.9480   55.4080   94.0830   O 0  0  0  0  0  0  0  0  0  0  0  0
   12.2170   53.1830   94.0600   N 0  0  0  0  0  0  0  0  0  0  0  0
   12.0270   51.7840   94.4930   C 0  0  0  0  0  0  0  0  0  0  0  0
   12.5830   50.9670   93.3440   C 0  0  0  0  0  0  0  0  0  0  0  0
   13.2300   49.7870   93.8530   O 0  0  0  0  0  0  0  0  0  0  0  0
   13.6210   51.8500   92.7070   C 0  0  0  0  0  0  0  0  0  0  0  0
   13.1030   53.2650   92.8870   C 0  0  0  0  0  0  0  0  0  0  0  0
   12.4190   53.6210   91.6970   C 0  0  0  0  0  0  0  0  0  0  0  0
   11.2310   53.3680   91.5710   O 0  0  0  0  0  0  0  0  0  0  0  0
   13.1500   54.1420   90.6840   N 0  0  0  0  0  0  0  0  0  0  0  0
   14.5970   54.5010   90.7160   C 0  0  0  0  0  0  0  0  0  0  0  0
   14.7810   55.4500   89.5580   C 0  0  0  0  0  0  0  0  0  0  0  0
   14.4380   56.7770   89.9620   O 0  0  0  0  0  0  0  0  0  0  0  0
   13.7970   54.9670   88.5240   C 0  0  0  0  0  0  0  0  0  0  0  0
   12.5940   54.4540   89.3140   C 0  0  0  0  0  0  0  0  0  0  0  0
   12.1490   53.2710   88.6960   C 0  0  0  0  0  0  0  0  0  0  0  0
   12.6270   52.1840   89.0340   O 0  0  0  0  0  0  0  0  0  0  0  0
   11.2190   53.3930   87.7060   N 0  0  0  0  0  0  0  0  0  0  0  0
   10.7330   52.2140   86.9750   C 0  0  0  0  0  0  0  0  0  0  0  0
   11.5460   51.9900   85.8260   C 0  0  0  0  0  0  0  0  0  0  0  0
   11.4920   50.7450   85.1830   C 0  0  0  0  0  0  0  0  0  0  0  0
   12.2710   50.4760   84.0570   C 0  0  0  0  0  0  0  0  0  0  0  0
   12.4120   52.9580   85.3030   C 0  0  0  0  0  0  0  0  0  0  0  0
   13.1950   52.6910   84.1700   C 0  0  0  0  0  0  0  0  0  0  0  0
   13.1310   51.4600   83.5310   C 0  0  0  0  0  0  0  0  0  0  0  0
   13.8970   51.2530   82.4440   C 0  0  0  0  0  0  0  0  0  0  0  0
   15.5280   51.7430   82.2380   S 0  0  0  0  0  0  0  0  0  0  0  0
   15.6780   51.1420   80.7100   C 0  0  0  0  0  0  0  0  0  0  0  0
   14.5090   50.5870   80.3630   N 0  0  0  0  0  0  0  0  0  0  0  0
   13.5360   50.6490   81.2980   C 0  0  0  0  0  0  0  0  0  0  0  0
   12.1540   50.0450   81.0120   C 0  0  0  0  0  0  0  0  0  0  0  0
 31 30  2  0  0  0  0
 31 32  1  0  0  0  0
 30 29  1  0  0  0  0
 33 32  1  0  0  0  0
 32 28  2  0  0  0  0
 29 28  1  0  0  0  0
 28 27  1  0  0  0  0
 27 24  2  0  0  0  0
 27 26  1  0  0  0  0
 24 23  1  0  0  0  0
 26 25  2  0  0  0  0
 23 22  2  0  0  0  0
 25 22  1  0  0  0  0
 22 21  1  0  0  0  0
 21 20  1  0  0  0  0
 20 18  1  0  0  0  0
 16 17  1  0  0  0  0
 16 14  1  0  0  0  0
 18 19  2  0  0  0  0
 18 17  1  0  0  0  0
 17 12  1  0  0  0  0
 14 15  1  0  0  0  0
 14 13  1  0  0  0  0
 12 13  1  0  0  0  0
 12 10  1  0  0  0  0
 11 10  2  0  0  0  0
 10  9  1  0  0  0  0
  8  9  1  0  0  0  0
  8  6  1  0  0  0  0
  9  4  1  0  0  0  0
  6  7  1  0  0  0  0
  6  5  1  0  0  0  0
  4  5  1  0  0  0  0
  4  2  1  0  0  0  0
  3  2  2  0  0  0  0
  2  1  1  0  0  0  0
A    1
CAA
A    2
CAU
A    3
OAC
A    4
NBF
A    5
CAP
A    6
CBC
A    7
OAG
A    8
CAO
A    9
CBE
A   10
CAW
A   11
OAE
A   12
N
A   13
CD2
A   14
CG
A   15
OD1
A   16
CB
A   17
CA
A   18
C
A   19
O
A   20
NAS
A   21
CAM
A   22
CAX
A   23
CAI
A   24
CAK
A   25
CAH
A   26
CAJ
A   27
CAZ
A   28
CBA
A   29
SAT
A   30
CAL
A   31
NAR
A   32
CAY
A   33
CAB
M  END
>  <InstanceId>
4W9I_3JS_C_301

>  <ChemCompId>
3JS

>  <PdbId>
4W9I

>  <ChainId>
C

>  <ResidueNumber>
301

>  <InsertionCode>


>  <Model>
1

>  <AltIds>


>  <MissingHeavyAtoms>
0

>  <ObservedFormula>
C23 N4 O5 S

>  <Name>
(4R)-1-acetyl-4-hydroxy-L-prolyl-(4R)-4-hydroxy-N-[4-(4-methyl-1,3-thiazol-5-yl)benzyl]-L-prolinamide

>  <SystematicName>
(2S,4R)-1-[(2S,4R)-1-ethanoyl-4-oxidanyl-pyrrolidin-2-yl]carbonyl-N-[[4-(4-methyl-1,3-thiazol-5-yl)phenyl]methyl]-4-oxidanyl-pyrrolidine-2-carboxamide

>  <Synonyms>


>  <Type>
NON-POLYMER

>  <Formula>
C23 H28 N4 O5 S

>  <MolecularWeight>
472.557

>  <ModifiedDate>
2014-09-05

>  <Parent>


>  <OneLetterCode>


>  <SubcomponentList>


>  <AmbiguousFlag>
N

>  <InChI>
InChI=1S/C23H28N4O5S/c1-13-21(33-12-25-13)16-5-3-15(4-6-16)9-24-22(31)19-7-17(29)11-27(19)23(32)20-8-18(30)10-26(20)14(2)28/h3-6,12,17-20,29-30H,7-11H2,1-2H3,(H,24,31)/t17-,18-,19+,20+/m1/s1

>  <InChIKey>
CCBNFSALFGXMHG-ZRNYENFQSA-N

>  <SMILES>
Cc1c(scn1)c2ccc(cc2)CNC(=O)[C@@H]3C[C@H](CN3C(=O)[C@@H]4C[C@H](CN4C(=O)C)O)O

$$$$
