3P8N_L4T_A_188


 61 66  0  0  0  0  0  0  0  0999 V2000
   40.9975   46.3842    9.0418 C   0  0  0  0  0  0  0  0  0  0  0  0
   42.2041   46.2183    8.9308 O   0  0  0  0  0  0  0  0  0  0  0  0
   40.9912   47.7345    6.9690 C   0  0  0  0  0  0  0  0  0  0  0  0
   39.9016   48.5873    6.2815 C   0  0  0  0  0  0  0  0  0  0  0  0
   38.6192   47.8263    6.6339 C   0  0  0  0  0  0  0  0  0  0  0  0
   38.8672   47.5081    8.0912 C   0  0  0  0  0  0  0  0  0  0  0  0
   40.2909   47.1388    8.1048 N   0  0  0  0  0  0  0  0  0  0  0  0
   42.1032   48.6593    7.4747 C   0  0  0  0  0  0  0  0  0  0  0  0
   41.9276   49.4243    8.4266 O   0  0  0  0  0  0  0  0  0  0  0  0
   43.3012   48.5182    6.8096 N   0  0  0  0  0  0  0  0  0  0  0  0
   43.3074   48.0989    5.9189 H   0  0  0  0  0  0  0  0  0  0  0  0
   44.5526   48.9695    7.3840 C   0  0  0  0  0  0  0  0  0  0  0  0
   45.1871   48.0597    8.4649 C   0  0  0  0  0  0  0  0  0  0  0  0
   45.8079   48.1311    7.0952 C   0  0  0  0  0  0  0  0  0  0  0  0
   44.7358   50.5022    7.3420 C   0  0  0  0  0  0  0  0  0  0  0  0
   45.9060   50.9871    7.2822 O   0  0  0  0  0  0  0  0  0  0  0  0
   43.6759   51.2530    7.3351 O   0  0  0  0  0  0  0  0  0  0  0  0
   42.8252   50.8630    7.3805 H   0  0  0  0  0  0  0  0  0  0  0  0
   45.8851   48.5816    9.6522 C   0  0  0  0  0  0  0  0  0  0  0  0
   45.8845   47.9783   10.8601 C   0  0  0  0  0  0  0  0  0  0  0  0
   40.2239   45.7761   10.2377 C   0  0  0  0  0  0  0  0  0  0  0  0
   39.3455   43.6163    9.5781 C   0  0  0  0  0  0  0  0  0  0  0  0
   38.3028   44.0768    9.1414 O   0  0  0  0  0  0  0  0  0  0  0  0
   40.3385   44.3508   10.1257 N   0  0  0  0  0  0  0  0  0  0  0  0
   41.1516   43.9017   10.4521 H   0  0  0  0  0  0  0  0  0  0  0  0
   39.6642   42.3025    9.6098 O   0  0  0  0  0  0  0  0  0  0  0  0
   40.2744   41.7486    8.4777 C   0  0  0  0  0  0  0  0  0  0  0  0
   39.3447   41.3015    7.3851 C   0  0  0  0  0  0  0  0  0  0  0  0
   40.2894   40.4665    6.5262 C   0  0  0  0  0  0  0  0  0  0  0  0
   41.3085   39.8953    7.5064 C   0  0  0  0  0  0  0  0  0  0  0  0
   40.8653   40.4035    8.8652 C   0  0  0  0  0  0  0  0  0  0  0  0
   40.6792   46.3262   11.6331 C   0  0  0  0  0  0  0  0  0  0  0  0
   40.3388   47.8435   11.7379 C   0  0  0  0  0  0  0  0  0  0  0  0
   42.1892   46.1349   11.9008 C   0  0  0  0  0  0  0  0  0  0  0  0
   39.9164   45.5912   12.7496 C   0  0  0  0  0  0  0  0  0  0  0  0
   38.6276   46.5287    5.9841 O   0  0  0  0  0  0  0  0  0  0  0  0
   38.2239   46.3790    4.6677 C   0  0  0  0  0  0  0  0  0  0  0  0
   37.5363   47.5003    3.9774 C   0  0  0  0  0  0  0  0  0  0  0  0
   37.1445   47.3167    2.6806 C   0  0  0  0  0  0  0  0  0  0  0  0
   37.4079   46.1064    2.0534 N   0  0  0  0  0  0  0  0  0  0  0  0
   38.0344   45.0102    2.6085 C   0  0  0  0  0  0  0  0  0  0  0  0
   38.4592   45.1876    4.0274 C   0  0  0  0  0  0  0  0  0  0  0  0
   39.1370   44.0306    4.7297 C   0  0  0  0  0  0  0  0  0  0  0  0
   39.3145   42.7998    3.9010 C   0  0  0  0  0  0  0  0  0  0  0  0
   38.9072   42.6971    2.5880 C   0  0  0  0  0  0  0  0  0  0  0  0
   38.2595   43.8458    1.9407 C   0  0  0  0  0  0  0  0  0  0  0  0
   37.7082   43.7137    0.1074 Br  0  0  0  0  0  0  0  0  0  0  0  0
   36.4468   48.3064    1.9442 C   0  0  0  0  0  0  0  0  0  0  0  0
   35.6011   48.0445    0.8786 C   0  0  0  0  0  0  0  0  0  0  0  0
   34.9494   49.5263    0.3059 S   0  0  0  0  0  0  0  0  0  0  0  0
   35.8470   50.3747    1.5081 C   0  0  0  0  0  0  0  0  0  0  0  0
   36.5762   49.6286    2.2980 N   0  0  0  0  0  0  0  0  0  0  0  0
   35.8095   51.7417    1.6947 N   0  0  0  0  0  0  0  0  0  0  0  0
   34.9679   52.4141    2.5695 C   0  0  0  0  0  0  0  0  0  0  0  0
   34.1285   51.8214    3.2821 O   0  0  0  0  0  0  0  0  0  0  0  0
   36.4330   52.2862    1.1617 H   0  0  0  0  0  0  0  0  0  0  0  0
   35.2063   53.9404    2.5688 C   0  0  0  0  0  0  0  0  0  0  0  0
   35.7373   54.4052    1.2067 C   0  0  0  0  0  0  0  0  0  0  0  0
   36.1427   54.3860    3.6866 C   0  0  0  0  0  0  0  0  0  0  0  0
   39.0509   41.5711    1.7642 O   0  0  0  0  0  0  0  0  0  0  0  0
   39.0696   40.2537    2.3648 C   0  0  0  0  0  0  0  0  0  0  0  0
 35 32  1  0  0  0
 34 32  1  0  0  0
 33 32  1  0  0  0
 32 21  1  0  0  0
 20 19  2  0  0  0
 21 24  1  0  0  0
 21  1  1  0  0  0
 24 22  1  0  0  0
 19 13  1  0  0  0
 22 26  1  0  0  0
 22 23  2  0  0  0
 26 27  1  0  0  0
 28 27  1  0  0  0
 28 29  1  0  0  0
  1  2  2  0  0  0
  1  7  1  0  0  0
  9  8  2  0  0  0
 27 31  1  0  0  0
 13 12  1  0  0  0
 13 14  1  0  0  0
 29 30  1  0  0  0
  7  6  1  0  0  0
  7  3  1  0  0  0
  6  5  1  0  0  0
 16 15  2  0  0  0
  8  3  1  0  0  0
  8 10  1  0  0  0
 30 31  1  0  0  0
 12 15  1  0  0  0
 12 14  1  0  0  0
 12 10  1  0  0  0
 15 17  1  0  0  0
  3  4  1  0  0  0
  5  4  1  0  0  0
  5 36  1  0  0  0
 36 37  1  0  0  0
 43 42  2  0  0  0
 43 44  1  0  0  0
 37 38  2  0  0  0
 37 42  1  0  0  0
 38 39  1  0  0  0
 42 41  1  0  0  0
 44 45  2  0  0  0
 39 40  2  0  0  0
 39 48  1  0  0  0
 52 48  1  0  0  0
 52 51  2  0  0  0
 41 40  1  0  0  0
 41 46  2  0  0  0
 45 46  1  0  0  0
 45 60  1  0  0  0
 58 57  1  0  0  0
 61 60  1  0  0  0
 53 51  1  0  0  0
 53 54  1  0  0  0
 57 54  1  0  0  0
 57 59  1  0  0  0
 48 49  2  0  0  0
 46 47  1  0  0  0
 51 50  1  0  0  0
 54 55  2  0  0  0
 49 50  1  0  0  0
 24 25  1  0  0  0
 53 56  1  0  0  0
 10 11  1  0  0  0
 17 18  1  0  0  0
M  END
> <minimizedAffinity>
-9.55892

$$$$
3P8N_L4T_A_188


 61 66  0  0  0  0  0  0  0  0999 V2000
   40.8298   46.3937    9.1479 C   0  0  0  0  0  0  0  0  0  0  0  0
   42.0252   46.1585    9.0396 O   0  0  0  0  0  0  0  0  0  0  0  0
   40.8931   47.6906    7.0421 C   0  0  0  0  0  0  0  0  0  0  0  0
   39.8507   48.5852    6.3349 C   0  0  0  0  0  0  0  0  0  0  0  0
   38.5290   47.9054    6.7075 C   0  0  0  0  0  0  0  0  0  0  0  0
   38.7626   47.6101    8.1721 C   0  0  0  0  0  0  0  0  0  0  0  0
   40.1638   47.1629    8.1932 N   0  0  0  0  0  0  0  0  0  0  0  0
   42.0559   48.5645    7.5234 C   0  0  0  0  0  0  0  0  0  0  0  0
   41.9519   49.2953    8.5121 O   0  0  0  0  0  0  0  0  0  0  0  0
   43.2133   48.4183    6.7909 N   0  0  0  0  0  0  0  0  0  0  0  0
   43.1612   48.0350    5.8856 H   0  0  0  0  0  0  0  0  0  0  0  0
   44.5052   48.8129    7.3151 C   0  0  0  0  0  0  0  0  0  0  0  0
   45.1530   47.8610    8.3508 C   0  0  0  0  0  0  0  0  0  0  0  0
   45.7140   47.9345    6.9557 C   0  0  0  0  0  0  0  0  0  0  0  0
   44.7436   50.3384    7.2902 C   0  0  0  0  0  0  0  0  0  0  0  0
   45.9301   50.7813    7.2256 O   0  0  0  0  0  0  0  0  0  0  0  0
   43.7117   51.1271    7.3023 O   0  0  0  0  0  0  0  0  0  0  0  0
   42.8477   50.7676    7.3507 H   0  0  0  0  0  0  0  0  0  0  0  0
   45.9226   48.3351    9.5136 C   0  0  0  0  0  0  0  0  0  0  0  0
   45.5337   48.1788   10.7971 C   0  0  0  0  0  0  0  0  0  0  0  0
   40.0267   45.8592   10.3593 C   0  0  0  0  0  0  0  0  0  0  0  0
   39.3826   43.5395   10.0846 C   0  0  0  0  0  0  0  0  0  0  0  0
   38.2752   43.8086    9.6471 O   0  0  0  0  0  0  0  0  0  0  0  0
   40.3041   44.4553   10.4554 N   0  0  0  0  0  0  0  0  0  0  0  0
   41.1776   44.1550   10.7962 H   0  0  0  0  0  0  0  0  0  0  0  0
   39.8553   42.2900   10.2936 O   0  0  0  0  0  0  0  0  0  0  0  0
   39.7206   41.3566    9.2584 C   0  0  0  0  0  0  0  0  0  0  0  0
   40.9237   40.4971    8.9908 C   0  0  0  0  0  0  0  0  0  0  0  0
   40.5529   39.8947    7.6391 C   0  0  0  0  0  0  0  0  0  0  0  0
   39.6947   40.9562    6.9593 C   0  0  0  0  0  0  0  0  0  0  0  0
   39.6583   42.1116    7.9414 C   0  0  0  0  0  0  0  0  0  0  0  0
   40.2982   46.6368   11.6930 C   0  0  0  0  0  0  0  0  0  0  0  0
   41.7907   46.4657   12.1082 C   0  0  0  0  0  0  0  0  0  0  0  0
   39.3997   46.1742   12.8623 C   0  0  0  0  0  0  0  0  0  0  0  0
   40.0357   48.1377   11.4759 C   0  0  0  0  0  0  0  0  0  0  0  0
   38.4639   46.5936    6.0902 O   0  0  0  0  0  0  0  0  0  0  0  0
   38.0724   46.4364    4.7709 C   0  0  0  0  0  0  0  0  0  0  0  0
   37.3506   47.5367    4.0819 C   0  0  0  0  0  0  0  0  0  0  0  0
   36.9721   47.3458    2.7823 C   0  0  0  0  0  0  0  0  0  0  0  0
   37.2800   46.1482    2.1511 N   0  0  0  0  0  0  0  0  0  0  0  0
   37.9407   45.0715    2.7047 C   0  0  0  0  0  0  0  0  0  0  0  0
   38.3517   45.2567    4.1266 C   0  0  0  0  0  0  0  0  0  0  0  0
   39.0649   44.1203    4.8275 C   0  0  0  0  0  0  0  0  0  0  0  0
   39.2888   42.9001    3.9942 C   0  0  0  0  0  0  0  0  0  0  0  0
   38.8922   42.7896    2.6786 C   0  0  0  0  0  0  0  0  0  0  0  0
   38.2090   43.9186    2.0329 C   0  0  0  0  0  0  0  0  0  0  0  0
   37.6721   43.7762    0.1961 Br  0  0  0  0  0  0  0  0  0  0  0  0
   36.2448   48.3145    2.0465 C   0  0  0  0  0  0  0  0  0  0  0  0
   36.6729   49.6116    1.8150 C   0  0  0  0  0  0  0  0  0  0  0  0
   35.5007   50.4239    0.8587 S   0  0  0  0  0  0  0  0  0  0  0  0
   34.5358   48.9959    0.8454 C   0  0  0  0  0  0  0  0  0  0  0  0
   35.0357   47.9720    1.4891 N   0  0  0  0  0  0  0  0  0  0  0  0
   33.3288   48.8719    0.1875 N   0  0  0  0  0  0  0  0  0  0  0  0
   32.1434   49.4948    0.5517 C   0  0  0  0  0  0  0  0  0  0  0  0
   32.0565   50.2396    1.5525 O   0  0  0  0  0  0  0  0  0  0  0  0
   33.3069   48.2922   -0.6079 H   0  0  0  0  0  0  0  0  0  0  0  0
   30.9836   49.1795   -0.4187 C   0  0  0  0  0  0  0  0  0  0  0  0
   31.3747   48.0514   -1.3820 C   0  0  0  0  0  0  0  0  0  0  0  0
   30.5213   50.4075   -1.1953 C   0  0  0  0  0  0  0  0  0  0  0  0
   39.0785   41.6730    1.8506 O   0  0  0  0  0  0  0  0  0  0  0  0
   39.0234   40.3469    2.4293 C   0  0  0  0  0  0  0  0  0  0  0  0
 35 32  1  0  0  0
 34 32  1  0  0  0
 33 32  1  0  0  0
 32 21  1  0  0  0
 20 19  2  0  0  0
 21 24  1  0  0  0
 21  1  1  0  0  0
 24 22  1  0  0  0
 19 13  1  0  0  0
 22 26  1  0  0  0
 22 23  2  0  0  0
 26 27  1  0  0  0
 28 27  1  0  0  0
 28 29  1  0  0  0
  1  2  2  0  0  0
  1  7  1  0  0  0
  9  8  2  0  0  0
 27 31  1  0  0  0
 13 12  1  0  0  0
 13 14  1  0  0  0
 29 30  1  0  0  0
  7  6  1  0  0  0
  7  3  1  0  0  0
  6  5  1  0  0  0
 16 15  2  0  0  0
  8  3  1  0  0  0
  8 10  1  0  0  0
 30 31  1  0  0  0
 12 15  1  0  0  0
 12 14  1  0  0  0
 12 10  1  0  0  0
 15 17  1  0  0  0
  3  4  1  0  0  0
  5  4  1  0  0  0
  5 36  1  0  0  0
 36 37  1  0  0  0
 43 42  2  0  0  0
 43 44  1  0  0  0
 37 38  2  0  0  0
 37 42  1  0  0  0
 38 39  1  0  0  0
 42 41  1  0  0  0
 44 45  2  0  0  0
 39 40  2  0  0  0
 39 48  1  0  0  0
 52 48  1  0  0  0
 52 51  2  0  0  0
 41 40  1  0  0  0
 41 46  2  0  0  0
 45 46  1  0  0  0
 45 60  1  0  0  0
 58 57  1  0  0  0
 61 60  1  0  0  0
 53 51  1  0  0  0
 53 54  1  0  0  0
 57 54  1  0  0  0
 57 59  1  0  0  0
 48 49  2  0  0  0
 46 47  1  0  0  0
 51 50  1  0  0  0
 54 55  2  0  0  0
 49 50  1  0  0  0
 24 25  1  0  0  0
 53 56  1  0  0  0
 10 11  1  0  0  0
 17 18  1  0  0  0
M  END
> <minimizedAffinity>
-8.42453

$$$$
3P8N_L4T_A_188


 61 66  0  0  0  0  0  0  0  0999 V2000
   36.7483   45.2397    3.3242 C   0  0  0  0  0  0  0  0  0  0  0  0
   35.5371   45.2005    3.4897 O   0  0  0  0  0  0  0  0  0  0  0  0
   36.8451   47.3950    4.5347 C   0  0  0  0  0  0  0  0  0  0  0  0
   37.9817   48.4176    4.7573 C   0  0  0  0  0  0  0  0  0  0  0  0
   39.2234   47.5213    4.8083 C   0  0  0  0  0  0  0  0  0  0  0  0
   38.9404   46.5757    3.6627 C   0  0  0  0  0  0  0  0  0  0  0  0
   37.5015   46.3089    3.8103 N   0  0  0  0  0  0  0  0  0  0  0  0
   35.7686   48.0307    3.6489 C   0  0  0  0  0  0  0  0  0  0  0  0
   34.7103   48.4566    4.1189 O   0  0  0  0  0  0  0  0  0  0  0  0
   36.1133   48.1217    2.3183 N   0  0  0  0  0  0  0  0  0  0  0  0
   36.8325   47.5467    1.9701 H   0  0  0  0  0  0  0  0  0  0  0  0
   35.4471   49.0398    1.4168 C   0  0  0  0  0  0  0  0  0  0  0  0
   35.9289   50.5113    1.4453 C   0  0  0  0  0  0  0  0  0  0  0  0
   36.2793   49.6368    0.2710 C   0  0  0  0  0  0  0  0  0  0  0  0
   34.0045   48.6196    1.0602 C   0  0  0  0  0  0  0  0  0  0  0  0
   33.8006   47.9088    0.0300 O   0  0  0  0  0  0  0  0  0  0  0  0
   33.0401   48.9818    1.8512 O   0  0  0  0  0  0  0  0  0  0  0  0
   33.2245   49.5075    2.6047 H   0  0  0  0  0  0  0  0  0  0  0  0
   35.0208   51.6620    1.3016 C   0  0  0  0  0  0  0  0  0  0  0  0
   35.3907   52.9484    1.4782 C   0  0  0  0  0  0  0  0  0  0  0  0
   37.4765   44.1114    2.5530 C   0  0  0  0  0  0  0  0  0  0  0  0
   38.8683   42.5243    3.7428 C   0  0  0  0  0  0  0  0  0  0  0  0
   39.9084   42.9420    3.2591 O   0  0  0  0  0  0  0  0  0  0  0  0
   37.6418   43.0207    3.4697 N   0  0  0  0  0  0  0  0  0  0  0  0
   36.8510   42.6285    3.9057 H   0  0  0  0  0  0  0  0  0  0  0  0
   38.7712   41.4865    4.6041 O   0  0  0  0  0  0  0  0  0  0  0  0
   39.7379   41.3780    5.6114 C   0  0  0  0  0  0  0  0  0  0  0  0
   40.1933   39.9830    5.9346 C   0  0  0  0  0  0  0  0  0  0  0  0
   40.9300   40.2176    7.2499 C   0  0  0  0  0  0  0  0  0  0  0  0
   40.2109   41.3966    7.8968 C   0  0  0  0  0  0  0  0  0  0  0  0
   39.0878   41.7390    6.9364 C   0  0  0  0  0  0  0  0  0  0  0  0
   36.7678   43.6962    1.2179 C   0  0  0  0  0  0  0  0  0  0  0  0
   35.7766   44.8155    0.7774 C   0  0  0  0  0  0  0  0  0  0  0  0
   35.9958   42.3618    1.3267 C   0  0  0  0  0  0  0  0  0  0  0  0
   37.8199   43.5307    0.1070 C   0  0  0  0  0  0  0  0  0  0  0  0
   39.1659   46.6746    5.9856 O   0  0  0  0  0  0  0  0  0  0  0  0
   40.1052   46.7826    6.9978 C   0  0  0  0  0  0  0  0  0  0  0  0
   41.3190   47.6131    6.7891 C   0  0  0  0  0  0  0  0  0  0  0  0
   42.2295   47.6922    7.8057 C   0  0  0  0  0  0  0  0  0  0  0  0
   41.9890   47.0109    8.9913 N   0  0  0  0  0  0  0  0  0  0  0  0
   40.8989   46.2159    9.2778 C   0  0  0  0  0  0  0  0  0  0  0  0
   39.8996   46.1080    8.1757 C   0  0  0  0  0  0  0  0  0  0  0  0
   38.6782   45.2396    8.3890 C   0  0  0  0  0  0  0  0  0  0  0  0
   38.6021   44.5656    9.7206 C   0  0  0  0  0  0  0  0  0  0  0  0
   39.5554   44.7097   10.7058 C   0  0  0  0  0  0  0  0  0  0  0  0
   40.7226   45.5678   10.4616 C   0  0  0  0  0  0  0  0  0  0  0  0
   42.0424   45.7864   11.8373 Br  0  0  0  0  0  0  0  0  0  0  0  0
   43.4383   48.4238    7.6956 C   0  0  0  0  0  0  0  0  0  0  0  0
   44.7039   47.8791    7.8404 C   0  0  0  0  0  0  0  0  0  0  0  0
   45.8735   49.1127    7.5979 S   0  0  0  0  0  0  0  0  0  0  0  0
   44.6055   50.2497    7.3331 C   0  0  0  0  0  0  0  0  0  0  0  0
   43.3915   49.7662    7.4028 N   0  0  0  0  0  0  0  0  0  0  0  0
   44.7987   51.5821    7.0289 N   0  0  0  0  0  0  0  0  0  0  0  0
   43.8423   52.5816    7.1375 C   0  0  0  0  0  0  0  0  0  0  0  0
   42.6741   52.3539    7.5210 O   0  0  0  0  0  0  0  0  0  0  0  0
   45.6911   51.8457    6.7074 H   0  0  0  0  0  0  0  0  0  0  0  0
   44.3920   53.9743    6.7572 C   0  0  0  0  0  0  0  0  0  0  0  0
   43.9539   55.0281    7.7825 C   0  0  0  0  0  0  0  0  0  0  0  0
   43.9862   54.3983    5.3500 C   0  0  0  0  0  0  0  0  0  0  0  0
   39.5335   44.1054   11.9712 O   0  0  0  0  0  0  0  0  0  0  0  0
   39.5935   42.6617   12.0662 C   0  0  0  0  0  0  0  0  0  0  0  0
 35 32  1  0  0  0
 34 32  1  0  0  0
 33 32  1  0  0  0
 32 21  1  0  0  0
 20 19  2  0  0  0
 21 24  1  0  0  0
 21  1  1  0  0  0
 24 22  1  0  0  0
 19 13  1  0  0  0
 22 26  1  0  0  0
 22 23  2  0  0  0
 26 27  1  0  0  0
 28 27  1  0  0  0
 28 29  1  0  0  0
  1  2  2  0  0  0
  1  7  1  0  0  0
  9  8  2  0  0  0
 27 31  1  0  0  0
 13 12  1  0  0  0
 13 14  1  0  0  0
 29 30  1  0  0  0
  7  6  1  0  0  0
  7  3  1  0  0  0
  6  5  1  0  0  0
 16 15  2  0  0  0
  8  3  1  0  0  0
  8 10  1  0  0  0
 30 31  1  0  0  0
 12 15  1  0  0  0
 12 14  1  0  0  0
 12 10  1  0  0  0
 15 17  1  0  0  0
  3  4  1  0  0  0
  5  4  1  0  0  0
  5 36  1  0  0  0
 36 37  1  0  0  0
 43 42  2  0  0  0
 43 44  1  0  0  0
 37 38  2  0  0  0
 37 42  1  0  0  0
 38 39  1  0  0  0
 42 41  1  0  0  0
 44 45  2  0  0  0
 39 40  2  0  0  0
 39 48  1  0  0  0
 52 48  1  0  0  0
 52 51  2  0  0  0
 41 40  1  0  0  0
 41 46  2  0  0  0
 45 46  1  0  0  0
 45 60  1  0  0  0
 58 57  1  0  0  0
 61 60  1  0  0  0
 53 51  1  0  0  0
 53 54  1  0  0  0
 57 54  1  0  0  0
 57 59  1  0  0  0
 48 49  2  0  0  0
 46 47  1  0  0  0
 51 50  1  0  0  0
 54 55  2  0  0  0
 49 50  1  0  0  0
 24 25  1  0  0  0
 53 56  1  0  0  0
 10 11  1  0  0  0
 17 18  1  0  0  0
M  END
> <minimizedAffinity>
-8.03033

$$$$
3P8N_L4T_A_188


 61 66  0  0  0  0  0  0  0  0999 V2000
   36.0068   52.6668    4.3835 C   0  0  0  0  0  0  0  0  0  0  0  0
   36.2927   53.7541    3.9020 O   0  0  0  0  0  0  0  0  0  0  0  0
   35.4103   51.8264    2.1345 C   0  0  0  0  0  0  0  0  0  0  0  0
   34.7468   50.5176    1.6508 C   0  0  0  0  0  0  0  0  0  0  0  0
   35.2495   49.4968    2.6770 C   0  0  0  0  0  0  0  0  0  0  0  0
   35.0931   50.2812    3.9603 C   0  0  0  0  0  0  0  0  0  0  0  0
   35.5468   51.6264    3.5756 N   0  0  0  0  0  0  0  0  0  0  0  0
   34.4603   52.9973    1.8629 C   0  0  0  0  0  0  0  0  0  0  0  0
   33.2669   52.9495    2.1728 O   0  0  0  0  0  0  0  0  0  0  0  0
   35.0669   54.0979    1.2988 N   0  0  0  0  0  0  0  0  0  0  0  0
   35.9341   53.9867    0.8463 H   0  0  0  0  0  0  0  0  0  0  0  0
   34.4647   55.4147    1.3528 C   0  0  0  0  0  0  0  0  0  0  0  0
   34.7479   56.3560    0.1560 C   0  0  0  0  0  0  0  0  0  0  0  0
   33.3822   55.7420    0.3121 C   0  0  0  0  0  0  0  0  0  0  0  0
   34.1984   55.9151    2.7892 C   0  0  0  0  0  0  0  0  0  0  0  0
   33.0042   55.9948    3.2085 O   0  0  0  0  0  0  0  0  0  0  0  0
   35.2155   56.2094    3.5415 O   0  0  0  0  0  0  0  0  0  0  0  0
   36.0857   56.1399    3.2010 H   0  0  0  0  0  0  0  0  0  0  0  0
   34.9586   57.8064    0.3009 C   0  0  0  0  0  0  0  0  0  0  0  0
   36.1717   58.3982    0.3363 C   0  0  0  0  0  0  0  0  0  0  0  0
   36.1297   52.4216    5.9076 C   0  0  0  0  0  0  0  0  0  0  0  0
   38.0725   51.4056    6.9395 C   0  0  0  0  0  0  0  0  0  0  0  0
   37.4487   50.4526    7.3784 O   0  0  0  0  0  0  0  0  0  0  0  0
   37.5306   52.4092    6.2153 N   0  0  0  0  0  0  0  0  0  0  0  0
   38.1048   53.1417    5.8944 H   0  0  0  0  0  0  0  0  0  0  0  0
   39.3934   51.6257    7.1275 O   0  0  0  0  0  0  0  0  0  0  0  0
   39.7773   52.8241    7.7419 C   0  0  0  0  0  0  0  0  0  0  0  0
   41.2548   53.0168    7.9358 C   0  0  0  0  0  0  0  0  0  0  0  0
   41.2673   54.1936    8.9067 C   0  0  0  0  0  0  0  0  0  0  0  0
   39.9867   54.0431    9.7211 C   0  0  0  0  0  0  0  0  0  0  0  0
   39.3414   52.7745    9.1966 C   0  0  0  0  0  0  0  0  0  0  0  0
   35.3128   53.4351    6.7809 C   0  0  0  0  0  0  0  0  0  0  0  0
   34.0378   53.8886    6.0077 C   0  0  0  0  0  0  0  0  0  0  0  0
   36.1247   54.6878    7.1809 C   0  0  0  0  0  0  0  0  0  0  0  0
   34.8592   52.7457    8.0800 C   0  0  0  0  0  0  0  0  0  0  0  0
   36.6847   49.3317    2.5383 O   0  0  0  0  0  0  0  0  0  0  0  0
   37.3442   48.2530    3.1039 C   0  0  0  0  0  0  0  0  0  0  0  0
   38.0673   48.4252    4.3900 C   0  0  0  0  0  0  0  0  0  0  0  0
   38.7138   47.3421    4.9169 C   0  0  0  0  0  0  0  0  0  0  0  0
   38.6660   46.1268    4.2471 N   0  0  0  0  0  0  0  0  0  0  0  0
   38.0268   45.8696    3.0522 C   0  0  0  0  0  0  0  0  0  0  0  0
   37.3250   47.0429    2.4558 C   0  0  0  0  0  0  0  0  0  0  0  0
   36.6118   46.8635    1.1328 C   0  0  0  0  0  0  0  0  0  0  0  0
   36.6883   45.4893    0.5505 C   0  0  0  0  0  0  0  0  0  0  0  0
   37.3471   44.4393    1.1535 C   0  0  0  0  0  0  0  0  0  0  0  0
   38.0209   44.6533    2.4413 C   0  0  0  0  0  0  0  0  0  0  0  0
   38.9230   43.1897    3.2936 Br  0  0  0  0  0  0  0  0  0  0  0  0
   39.4654   47.4080    6.1166 C   0  0  0  0  0  0  0  0  0  0  0  0
   38.9212   47.3616    7.3898 C   0  0  0  0  0  0  0  0  0  0  0  0
   40.1911   47.4413    8.5428 S   0  0  0  0  0  0  0  0  0  0  0  0
   41.3375   47.5376    7.2594 C   0  0  0  0  0  0  0  0  0  0  0  0
   40.8354   47.5021    6.0515 N   0  0  0  0  0  0  0  0  0  0  0  0
   42.7047   47.6116    7.4339 N   0  0  0  0  0  0  0  0  0  0  0  0
   43.4360   48.7801    7.5929 C   0  0  0  0  0  0  0  0  0  0  0  0
   42.9044   49.9120    7.5776 O   0  0  0  0  0  0  0  0  0  0  0  0
   43.2036   46.7629    7.4467 H   0  0  0  0  0  0  0  0  0  0  0  0
   44.9425   48.5142    7.8070 C   0  0  0  0  0  0  0  0  0  0  0  0
   45.1910   47.8824    9.1827 C   0  0  0  0  0  0  0  0  0  0  0  0
   45.7877   49.7719    7.6373 C   0  0  0  0  0  0  0  0  0  0  0  0
   37.4481   43.1321    0.6554 O   0  0  0  0  0  0  0  0  0  0  0  0
   36.2673   42.2947    0.6233 C   0  0  0  0  0  0  0  0  0  0  0  0
 35 32  1  0  0  0
 34 32  1  0  0  0
 33 32  1  0  0  0
 32 21  1  0  0  0
 20 19  2  0  0  0
 21 24  1  0  0  0
 21  1  1  0  0  0
 24 22  1  0  0  0
 19 13  1  0  0  0
 22 26  1  0  0  0
 22 23  2  0  0  0
 26 27  1  0  0  0
 28 27  1  0  0  0
 28 29  1  0  0  0
  1  2  2  0  0  0
  1  7  1  0  0  0
  9  8  2  0  0  0
 27 31  1  0  0  0
 13 12  1  0  0  0
 13 14  1  0  0  0
 29 30  1  0  0  0
  7  6  1  0  0  0
  7  3  1  0  0  0
  6  5  1  0  0  0
 16 15  2  0  0  0
  8  3  1  0  0  0
  8 10  1  0  0  0
 30 31  1  0  0  0
 12 15  1  0  0  0
 12 14  1  0  0  0
 12 10  1  0  0  0
 15 17  1  0  0  0
  3  4  1  0  0  0
  5  4  1  0  0  0
  5 36  1  0  0  0
 36 37  1  0  0  0
 43 42  2  0  0  0
 43 44  1  0  0  0
 37 38  2  0  0  0
 37 42  1  0  0  0
 38 39  1  0  0  0
 42 41  1  0  0  0
 44 45  2  0  0  0
 39 40  2  0  0  0
 39 48  1  0  0  0
 52 48  1  0  0  0
 52 51  2  0  0  0
 41 40  1  0  0  0
 41 46  2  0  0  0
 45 46  1  0  0  0
 45 60  1  0  0  0
 58 57  1  0  0  0
 61 60  1  0  0  0
 53 51  1  0  0  0
 53 54  1  0  0  0
 57 54  1  0  0  0
 57 59  1  0  0  0
 48 49  2  0  0  0
 46 47  1  0  0  0
 51 50  1  0  0  0
 54 55  2  0  0  0
 49 50  1  0  0  0
 24 25  1  0  0  0
 53 56  1  0  0  0
 10 11  1  0  0  0
 17 18  1  0  0  0
M  END
> <minimizedAffinity>
-7.32989

$$$$
3P8N_L4T_A_188


 61 66  0  0  0  0  0  0  0  0999 V2000
   41.0396   46.3696    8.9063 C   0  0  0  0  0  0  0  0  0  0  0  0
   42.2352   46.2007    8.7118 O   0  0  0  0  0  0  0  0  0  0  0  0
   40.9471   47.9312    6.9899 C   0  0  0  0  0  0  0  0  0  0  0  0
   39.8384   48.8660    6.4570 C   0  0  0  0  0  0  0  0  0  0  0  0
   38.5627   48.0888    6.7983 C   0  0  0  0  0  0  0  0  0  0  0  0
   38.8827   47.6153    8.1983 C   0  0  0  0  0  0  0  0  0  0  0  0
   40.2979   47.2281    8.0942 N   0  0  0  0  0  0  0  0  0  0  0  0
   42.1019   48.7829    7.5271 C   0  0  0  0  0  0  0  0  0  0  0  0
   41.9856   49.4611    8.5513 O   0  0  0  0  0  0  0  0  0  0  0  0
   43.2668   48.6786    6.7995 N   0  0  0  0  0  0  0  0  0  0  0  0
   43.2250   48.3425    5.8751 H   0  0  0  0  0  0  0  0  0  0  0  0
   44.5521   49.0497    7.3561 C   0  0  0  0  0  0  0  0  0  0  0  0
   45.1592   48.0832    8.4029 C   0  0  0  0  0  0  0  0  0  0  0  0
   45.7546   48.1529    7.0219 C   0  0  0  0  0  0  0  0  0  0  0  0
   44.8161   50.5711    7.3434 C   0  0  0  0  0  0  0  0  0  0  0  0
   45.9975   50.9958    7.1641 O   0  0  0  0  0  0  0  0  0  0  0  0
   43.8067   51.3764    7.4842 O   0  0  0  0  0  0  0  0  0  0  0  0
   42.9459   51.0303    7.6152 H   0  0  0  0  0  0  0  0  0  0  0  0
   45.9084   48.5401    9.5858 C   0  0  0  0  0  0  0  0  0  0  0  0
   45.6967   48.0882   10.8404 C   0  0  0  0  0  0  0  0  0  0  0  0
   40.3201   45.6488   10.0730 C   0  0  0  0  0  0  0  0  0  0  0  0
   39.5679   43.3864    9.6403 C   0  0  0  0  0  0  0  0  0  0  0  0
   38.3987   43.7089    9.5029 O   0  0  0  0  0  0  0  0  0  0  0  0
   40.5735   44.2460    9.9146 N   0  0  0  0  0  0  0  0  0  0  0  0
   41.4925   43.9049   10.0069 H   0  0  0  0  0  0  0  0  0  0  0  0
   40.0411   42.1217    9.5678 O   0  0  0  0  0  0  0  0  0  0  0  0
   39.6506   41.2178   10.5635 C   0  0  0  0  0  0  0  0  0  0  0  0
   40.2952   41.4054   11.9078 C   0  0  0  0  0  0  0  0  0  0  0  0
   39.9253   40.0924   12.5909 C   0  0  0  0  0  0  0  0  0  0  0  0
   39.8446   39.0719   11.4605 C   0  0  0  0  0  0  0  0  0  0  0  0
   40.2093   39.8496   10.2103 C   0  0  0  0  0  0  0  0  0  0  0  0
   40.7096   46.1922   11.4907 C   0  0  0  0  0  0  0  0  0  0  0  0
   40.3304   47.7000   11.5995 C   0  0  0  0  0  0  0  0  0  0  0  0
   42.2126   46.0321   11.8133 C   0  0  0  0  0  0  0  0  0  0  0  0
   39.9227   45.4265   12.5692 C   0  0  0  0  0  0  0  0  0  0  0  0
   38.5118   46.8670    6.0167 O   0  0  0  0  0  0  0  0  0  0  0  0
   37.3097   46.3546    5.5575 C   0  0  0  0  0  0  0  0  0  0  0  0
   36.6157   45.2970    6.3361 C   0  0  0  0  0  0  0  0  0  0  0  0
   35.4350   44.8080    5.8507 C   0  0  0  0  0  0  0  0  0  0  0  0
   34.9220   45.3167    4.6651 N   0  0  0  0  0  0  0  0  0  0  0  0
   35.4911   46.2918    3.8728 C   0  0  0  0  0  0  0  0  0  0  0  0
   36.7865   46.8296    4.3804 C   0  0  0  0  0  0  0  0  0  0  0  0
   37.4982   47.8896    3.5672 C   0  0  0  0  0  0  0  0  0  0  0  0
   36.8050   48.2963    2.3073 C   0  0  0  0  0  0  0  0  0  0  0  0
   35.6013   47.7678    1.8924 C   0  0  0  0  0  0  0  0  0  0  0  0
   34.9393   46.7459    2.7144 C   0  0  0  0  0  0  0  0  0  0  0  0
   33.2544   46.0214    2.1502 Br  0  0  0  0  0  0  0  0  0  0  0  0
   34.7133   43.7717    6.4940 C   0  0  0  0  0  0  0  0  0  0  0  0
   33.8142   42.9287    5.8613 C   0  0  0  0  0  0  0  0  0  0  0  0
   33.1979   41.8085    7.0076 S   0  0  0  0  0  0  0  0  0  0  0  0
   34.1653   42.5424    8.2307 C   0  0  0  0  0  0  0  0  0  0  0  0
   34.9107   43.5426    7.8351 N   0  0  0  0  0  0  0  0  0  0  0  0
   34.2180   42.1231    9.5447 N   0  0  0  0  0  0  0  0  0  0  0  0
   35.2216   41.3447   10.1038 C   0  0  0  0  0  0  0  0  0  0  0  0
   36.1955   40.9268    9.4399 O   0  0  0  0  0  0  0  0  0  0  0  0
   33.4808   42.3998   10.1356 H   0  0  0  0  0  0  0  0  0  0  0  0
   35.0026   41.0849   11.6108 C   0  0  0  0  0  0  0  0  0  0  0  0
   36.2744   40.5158   12.2528 C   0  0  0  0  0  0  0  0  0  0  0  0
   33.8138   40.1686   11.8790 C   0  0  0  0  0  0  0  0  0  0  0  0
   34.9061   48.1135    0.7244 O   0  0  0  0  0  0  0  0  0  0  0  0
   34.9716   49.4766    0.2402 C   0  0  0  0  0  0  0  0  0  0  0  0
 35 32  1  0  0  0
 34 32  1  0  0  0
 33 32  1  0  0  0
 32 21  1  0  0  0
 20 19  2  0  0  0
 21 24  1  0  0  0
 21  1  1  0  0  0
 24 22  1  0  0  0
 19 13  1  0  0  0
 22 26  1  0  0  0
 22 23  2  0  0  0
 26 27  1  0  0  0
 28 27  1  0  0  0
 28 29  1  0  0  0
  1  2  2  0  0  0
  1  7  1  0  0  0
  9  8  2  0  0  0
 27 31  1  0  0  0
 13 12  1  0  0  0
 13 14  1  0  0  0
 29 30  1  0  0  0
  7  6  1  0  0  0
  7  3  1  0  0  0
  6  5  1  0  0  0
 16 15  2  0  0  0
  8  3  1  0  0  0
  8 10  1  0  0  0
 30 31  1  0  0  0
 12 15  1  0  0  0
 12 14  1  0  0  0
 12 10  1  0  0  0
 15 17  1  0  0  0
  3  4  1  0  0  0
  5  4  1  0  0  0
  5 36  1  0  0  0
 36 37  1  0  0  0
 43 42  2  0  0  0
 43 44  1  0  0  0
 37 38  2  0  0  0
 37 42  1  0  0  0
 38 39  1  0  0  0
 42 41  1  0  0  0
 44 45  2  0  0  0
 39 40  2  0  0  0
 39 48  1  0  0  0
 52 48  1  0  0  0
 52 51  2  0  0  0
 41 40  1  0  0  0
 41 46  2  0  0  0
 45 46  1  0  0  0
 45 60  1  0  0  0
 58 57  1  0  0  0
 61 60  1  0  0  0
 53 51  1  0  0  0
 53 54  1  0  0  0
 57 54  1  0  0  0
 57 59  1  0  0  0
 48 49  2  0  0  0
 46 47  1  0  0  0
 51 50  1  0  0  0
 54 55  2  0  0  0
 49 50  1  0  0  0
 24 25  1  0  0  0
 53 56  1  0  0  0
 10 11  1  0  0  0
 17 18  1  0  0  0
M  END
> <minimizedAffinity>
-7.21137

$$$$
3P8N_L4T_A_188


 61 66  0  0  0  0  0  0  0  0999 V2000
   39.8307   48.8298    9.1914 C   0  0  0  0  0  0  0  0  0  0  0  0
   40.4482   49.8822    9.1089 O   0  0  0  0  0  0  0  0  0  0  0  0
   38.2204   49.6406    7.4974 C   0  0  0  0  0  0  0  0  0  0  0  0
   36.8823   49.0735    6.9729 C   0  0  0  0  0  0  0  0  0  0  0  0
   37.1080   47.5609    7.0674 C   0  0  0  0  0  0  0  0  0  0  0  0
   37.7759   47.4558    8.4199 C   0  0  0  0  0  0  0  0  0  0  0  0
   38.6876   48.6100    8.4221 N   0  0  0  0  0  0  0  0  0  0  0  0
   37.9458   50.9378    8.2650 C   0  0  0  0  0  0  0  0  0  0  0  0
   37.2713   50.9495    9.2981 O   0  0  0  0  0  0  0  0  0  0  0  0
   38.5529   52.0514    7.7278 N   0  0  0  0  0  0  0  0  0  0  0  0
   38.8493   52.0288    6.7892 H   0  0  0  0  0  0  0  0  0  0  0  0
   38.7677   53.2553    8.5051 C   0  0  0  0  0  0  0  0  0  0  0  0
   38.2210   54.5743    7.9053 C   0  0  0  0  0  0  0  0  0  0  0  0
   37.5286   53.9523    9.0886 C   0  0  0  0  0  0  0  0  0  0  0  0
   40.0037   53.1838    9.4280 C   0  0  0  0  0  0  0  0  0  0  0  0
   41.1635   53.2652    8.9215 O   0  0  0  0  0  0  0  0  0  0  0  0
   39.8154   53.0755   10.7086 O   0  0  0  0  0  0  0  0  0  0  0  0
   38.9451   53.0174   11.0509 H   0  0  0  0  0  0  0  0  0  0  0  0
   38.9222   55.8646    8.0172 C   0  0  0  0  0  0  0  0  0  0  0  0
   38.5105   56.8882    8.7955 C   0  0  0  0  0  0  0  0  0  0  0  0
   40.2907   47.7190   10.1675 C   0  0  0  0  0  0  0  0  0  0  0  0
   42.4112   46.6648    9.6543 C   0  0  0  0  0  0  0  0  0  0  0  0
   41.8977   45.6592    9.1904 O   0  0  0  0  0  0  0  0  0  0  0  0
   41.7249   47.7177   10.1499 N   0  0  0  0  0  0  0  0  0  0  0  0
   42.2157   48.4944   10.5035 H   0  0  0  0  0  0  0  0  0  0  0  0
   43.7415   46.8769    9.7722 O   0  0  0  0  0  0  0  0  0  0  0  0
   44.3126   47.8999    9.0054 C   0  0  0  0  0  0  0  0  0  0  0  0
   44.7535   47.5133    7.6219 C   0  0  0  0  0  0  0  0  0  0  0  0
   45.6087   48.7190    7.2443 C   0  0  0  0  0  0  0  0  0  0  0  0
   46.1880   49.2172    8.5641 C   0  0  0  0  0  0  0  0  0  0  0  0
   45.6636   48.2486    9.6070 C   0  0  0  0  0  0  0  0  0  0  0  0
   39.6892   47.8525   11.6089 C   0  0  0  0  0  0  0  0  0  0  0  0
   38.9187   49.2013   11.7355 C   0  0  0  0  0  0  0  0  0  0  0  0
   40.7570   47.7822   12.7240 C   0  0  0  0  0  0  0  0  0  0  0  0
   38.6884   46.7098   11.8564 C   0  0  0  0  0  0  0  0  0  0  0  0
   38.1435   47.1627    6.1318 O   0  0  0  0  0  0  0  0  0  0  0  0
   37.8565   46.9223    4.7983 C   0  0  0  0  0  0  0  0  0  0  0  0
   37.1762   47.9683    3.9923 C   0  0  0  0  0  0  0  0  0  0  0  0
   36.9010   47.6956    2.6813 C   0  0  0  0  0  0  0  0  0  0  0  0
   37.2713   46.4686    2.1475 N   0  0  0  0  0  0  0  0  0  0  0  0
   37.9007   45.4372    2.8128 C   0  0  0  0  0  0  0  0  0  0  0  0
   38.1990   45.7119    4.2482 C   0  0  0  0  0  0  0  0  0  0  0  0
   38.8702   44.6304    5.0675 C   0  0  0  0  0  0  0  0  0  0  0  0
   39.1725   43.3677    4.3276 C   0  0  0  0  0  0  0  0  0  0  0  0
   38.8795   43.1741    2.9946 C   0  0  0  0  0  0  0  0  0  0  0  0
   38.2340   44.2518    2.2329 C   0  0  0  0  0  0  0  0  0  0  0  0
   37.8417   43.9935    0.3724 Br  0  0  0  0  0  0  0  0  0  0  0  0
   36.2206   48.6074    1.8361 C   0  0  0  0  0  0  0  0  0  0  0  0
   35.3076   48.2442    0.8596 C   0  0  0  0  0  0  0  0  0  0  0  0
   34.7082   49.6631    0.1005 S   0  0  0  0  0  0  0  0  0  0  0  0
   35.7119   50.6220    1.1220 C   0  0  0  0  0  0  0  0  0  0  0  0
   36.4398   49.9567    1.9822 N   0  0  0  0  0  0  0  0  0  0  0  0
   35.7584   52.0014    1.1034 N   0  0  0  0  0  0  0  0  0  0  0  0
   34.7572   52.8488    1.5562 C   0  0  0  0  0  0  0  0  0  0  0  0
   33.6789   52.4233    2.0254 O   0  0  0  0  0  0  0  0  0  0  0  0
   36.5711   52.4197    0.7377 H   0  0  0  0  0  0  0  0  0  0  0  0
   35.1395   54.3404    1.4321 C   0  0  0  0  0  0  0  0  0  0  0  0
   36.1070   54.7467    2.5512 C   0  0  0  0  0  0  0  0  0  0  0  0
   33.9210   55.2570    1.4217 C   0  0  0  0  0  0  0  0  0  0  0  0
   39.1427   42.0144    2.2510 O   0  0  0  0  0  0  0  0  0  0  0  0
   39.0741   40.7245    2.9052 C   0  0  0  0  0  0  0  0  0  0  0  0
 35 32  1  0  0  0
 34 32  1  0  0  0
 33 32  1  0  0  0
 32 21  1  0  0  0
 20 19  2  0  0  0
 21 24  1  0  0  0
 21  1  1  0  0  0
 24 22  1  0  0  0
 19 13  1  0  0  0
 22 26  1  0  0  0
 22 23  2  0  0  0
 26 27  1  0  0  0
 28 27  1  0  0  0
 28 29  1  0  0  0
  1  2  2  0  0  0
  1  7  1  0  0  0
  9  8  2  0  0  0
 27 31  1  0  0  0
 13 12  1  0  0  0
 13 14  1  0  0  0
 29 30  1  0  0  0
  7  6  1  0  0  0
  7  3  1  0  0  0
  6  5  1  0  0  0
 16 15  2  0  0  0
  8  3  1  0  0  0
  8 10  1  0  0  0
 30 31  1  0  0  0
 12 15  1  0  0  0
 12 14  1  0  0  0
 12 10  1  0  0  0
 15 17  1  0  0  0
  3  4  1  0  0  0
  5  4  1  0  0  0
  5 36  1  0  0  0
 36 37  1  0  0  0
 43 42  2  0  0  0
 43 44  1  0  0  0
 37 38  2  0  0  0
 37 42  1  0  0  0
 38 39  1  0  0  0
 42 41  1  0  0  0
 44 45  2  0  0  0
 39 40  2  0  0  0
 39 48  1  0  0  0
 52 48  1  0  0  0
 52 51  2  0  0  0
 41 40  1  0  0  0
 41 46  2  0  0  0
 45 46  1  0  0  0
 45 60  1  0  0  0
 58 57  1  0  0  0
 61 60  1  0  0  0
 53 51  1  0  0  0
 53 54  1  0  0  0
 57 54  1  0  0  0
 57 59  1  0  0  0
 48 49  2  0  0  0
 46 47  1  0  0  0
 51 50  1  0  0  0
 54 55  2  0  0  0
 49 50  1  0  0  0
 24 25  1  0  0  0
 53 56  1  0  0  0
 10 11  1  0  0  0
 17 18  1  0  0  0
M  END
> <minimizedAffinity>
-7.02008

$$$$
3P8N_L4T_A_188


 61 66  0  0  0  0  0  0  0  0999 V2000
   36.9499   44.5429    3.4897 C   0  0  0  0  0  0  0  0  0  0  0  0
   35.7334   44.6230    3.3926 O   0  0  0  0  0  0  0  0  0  0  0  0
   37.0851   46.9898    3.8276 C   0  0  0  0  0  0  0  0  0  0  0  0
   38.2777   47.9691    3.9044 C   0  0  0  0  0  0  0  0  0  0  0  0
   39.3702   47.1054    4.5432 C   0  0  0  0  0  0  0  0  0  0  0  0
   39.1891   45.8093    3.7858 C   0  0  0  0  0  0  0  0  0  0  0  0
   37.7258   45.6822    3.7058 N   0  0  0  0  0  0  0  0  0  0  0  0
   36.2751   47.2885    2.5619 C   0  0  0  0  0  0  0  0  0  0  0  0
   36.8042   47.3295    1.4480 O   0  0  0  0  0  0  0  0  0  0  0  0
   34.9251   47.4526    2.7808 N   0  0  0  0  0  0  0  0  0  0  0  0
   34.6100   47.6645    3.6891 H   0  0  0  0  0  0  0  0  0  0  0  0
   33.9555   47.3221    1.7119 C   0  0  0  0  0  0  0  0  0  0  0  0
   32.7206   48.2543    1.7787 C   0  0  0  0  0  0  0  0  0  0  0  0
   33.7927   48.5127    0.7539 C   0  0  0  0  0  0  0  0  0  0  0  0
   33.9346   45.9211    1.0629 C   0  0  0  0  0  0  0  0  0  0  0  0
   34.3365   45.7833   -0.1320 O   0  0  0  0  0  0  0  0  0  0  0  0
   33.5345   44.9130    1.7775 O   0  0  0  0  0  0  0  0  0  0  0  0
   33.2435   45.0488    2.6577 H   0  0  0  0  0  0  0  0  0  0  0  0
   31.3664   47.8312    1.3831 C   0  0  0  0  0  0  0  0  0  0  0  0
   30.4987   48.6053    0.6969 C   0  0  0  0  0  0  0  0  0  0  0  0
   37.6641   43.1753    3.3562 C   0  0  0  0  0  0  0  0  0  0  0  0
   37.8591   42.2090    5.5697 C   0  0  0  0  0  0  0  0  0  0  0  0
   38.9193   42.7631    5.8127 O   0  0  0  0  0  0  0  0  0  0  0  0
   37.1706   42.3432    4.4150 N   0  0  0  0  0  0  0  0  0  0  0  0
   36.3188   41.8634    4.2989 H   0  0  0  0  0  0  0  0  0  0  0  0
   37.2180   41.3553    6.3995 O   0  0  0  0  0  0  0  0  0  0  0  0
   36.7567   41.8538    7.6241 C   0  0  0  0  0  0  0  0  0  0  0  0
   36.2531   40.8289    8.6006 C   0  0  0  0  0  0  0  0  0  0  0  0
   35.5367   41.7201    9.6106 C   0  0  0  0  0  0  0  0  0  0  0  0
   35.0388   42.9109    8.7982 C   0  0  0  0  0  0  0  0  0  0  0  0
   35.4642   42.6122    7.3732 C   0  0  0  0  0  0  0  0  0  0  0  0
   37.5231   42.5221    1.9383 C   0  0  0  0  0  0  0  0  0  0  0  0
   37.7573   43.5991    0.8363 C   0  0  0  0  0  0  0  0  0  0  0  0
   36.1450   41.8624    1.7052 C   0  0  0  0  0  0  0  0  0  0  0  0
   38.5924   41.4285    1.7671 C   0  0  0  0  0  0  0  0  0  0  0  0
   38.9950   46.7724    5.9051 O   0  0  0  0  0  0  0  0  0  0  0  0
   39.9086   46.8477    6.9434 C   0  0  0  0  0  0  0  0  0  0  0  0
   41.1532   47.6401    6.7719 C   0  0  0  0  0  0  0  0  0  0  0  0
   42.0369   47.6874    7.8138 C   0  0  0  0  0  0  0  0  0  0  0  0
   41.7421   47.0103    8.9895 N   0  0  0  0  0  0  0  0  0  0  0  0
   40.6200   46.2492    9.2424 C   0  0  0  0  0  0  0  0  0  0  0  0
   39.6489   46.1763    8.1125 C   0  0  0  0  0  0  0  0  0  0  0  0
   38.3954   45.3462    8.2882 C   0  0  0  0  0  0  0  0  0  0  0  0
   38.2609   44.6708    9.6145 C   0  0  0  0  0  0  0  0  0  0  0  0
   39.1904   44.7818   10.6265 C   0  0  0  0  0  0  0  0  0  0  0  0
   40.3903   45.6033   10.4182 C   0  0  0  0  0  0  0  0  0  0  0  0
   41.6774   45.7760   11.8310 Br  0  0  0  0  0  0  0  0  0  0  0  0
   43.2708   48.3808    7.7403 C   0  0  0  0  0  0  0  0  0  0  0  0
   44.5130   47.7999    7.9370 C   0  0  0  0  0  0  0  0  0  0  0  0
   45.7279   48.9947    7.7244 S   0  0  0  0  0  0  0  0  0  0  0  0
   44.5057   50.1662    7.4015 C   0  0  0  0  0  0  0  0  0  0  0  0
   43.2757   49.7205    7.4318 N   0  0  0  0  0  0  0  0  0  0  0  0
   44.7505   51.4885    7.0905 N   0  0  0  0  0  0  0  0  0  0  0  0
   43.8268   52.5210    7.1714 C   0  0  0  0  0  0  0  0  0  0  0  0
   42.6439   52.3366    7.5327 O   0  0  0  0  0  0  0  0  0  0  0  0
   45.6577   51.7188    6.7852 H   0  0  0  0  0  0  0  0  0  0  0  0
   44.4314   53.8907    6.7912 C   0  0  0  0  0  0  0  0  0  0  0  0
   44.1163   54.9391    7.8660 C   0  0  0  0  0  0  0  0  0  0  0  0
   43.9670   54.3747    5.4219 C   0  0  0  0  0  0  0  0  0  0  0  0
   39.1141   44.1745   11.8884 O   0  0  0  0  0  0  0  0  0  0  0  0
   39.3799   42.7561   12.0074 C   0  0  0  0  0  0  0  0  0  0  0  0
 35 32  1  0  0  0
 34 32  1  0  0  0
 33 32  1  0  0  0
 32 21  1  0  0  0
 20 19  2  0  0  0
 21 24  1  0  0  0
 21  1  1  0  0  0
 24 22  1  0  0  0
 19 13  1  0  0  0
 22 26  1  0  0  0
 22 23  2  0  0  0
 26 27  1  0  0  0
 28 27  1  0  0  0
 28 29  1  0  0  0
  1  2  2  0  0  0
  1  7  1  0  0  0
  9  8  2  0  0  0
 27 31  1  0  0  0
 13 12  1  0  0  0
 13 14  1  0  0  0
 29 30  1  0  0  0
  7  6  1  0  0  0
  7  3  1  0  0  0
  6  5  1  0  0  0
 16 15  2  0  0  0
  8  3  1  0  0  0
  8 10  1  0  0  0
 30 31  1  0  0  0
 12 15  1  0  0  0
 12 14  1  0  0  0
 12 10  1  0  0  0
 15 17  1  0  0  0
  3  4  1  0  0  0
  5  4  1  0  0  0
  5 36  1  0  0  0
 36 37  1  0  0  0
 43 42  2  0  0  0
 43 44  1  0  0  0
 37 38  2  0  0  0
 37 42  1  0  0  0
 38 39  1  0  0  0
 42 41  1  0  0  0
 44 45  2  0  0  0
 39 40  2  0  0  0
 39 48  1  0  0  0
 52 48  1  0  0  0
 52 51  2  0  0  0
 41 40  1  0  0  0
 41 46  2  0  0  0
 45 46  1  0  0  0
 45 60  1  0  0  0
 58 57  1  0  0  0
 61 60  1  0  0  0
 53 51  1  0  0  0
 53 54  1  0  0  0
 57 54  1  0  0  0
 57 59  1  0  0  0
 48 49  2  0  0  0
 46 47  1  0  0  0
 51 50  1  0  0  0
 54 55  2  0  0  0
 49 50  1  0  0  0
 24 25  1  0  0  0
 53 56  1  0  0  0
 10 11  1  0  0  0
 17 18  1  0  0  0
M  END
> <minimizedAffinity>
-7.01412

$$$$
3P8N_L4T_A_188


 61 66  0  0  0  0  0  0  0  0999 V2000
   35.5936   41.8937    2.2492 C   0  0  0  0  0  0  0  0  0  0  0  0
   35.2779   41.2614    1.2510 O   0  0  0  0  0  0  0  0  0  0  0  0
   37.9745   41.3680    1.8303 C   0  0  0  0  0  0  0  0  0  0  0  0
   39.2566   41.5988    2.6610 C   0  0  0  0  0  0  0  0  0  0  0  0
   38.9394   42.9046    3.3972 C   0  0  0  0  0  0  0  0  0  0  0  0
   37.5083   42.6553    3.8172 C   0  0  0  0  0  0  0  0  0  0  0  0
   36.9309   42.0044    2.6313 N   0  0  0  0  0  0  0  0  0  0  0  0
   37.7065   39.8626    1.7343 C   0  0  0  0  0  0  0  0  0  0  0  0
   37.6801   39.2766    0.6488 O   0  0  0  0  0  0  0  0  0  0  0  0
   37.5521   39.2375    2.9520 N   0  0  0  0  0  0  0  0  0  0  0  0
   37.3272   39.7792    3.7427 H   0  0  0  0  0  0  0  0  0  0  0  0
   37.7112   37.8051    3.1020 C   0  0  0  0  0  0  0  0  0  0  0  0
   36.7635   37.1038    4.1063 C   0  0  0  0  0  0  0  0  0  0  0  0
   36.5552   36.9103    2.6280 C   0  0  0  0  0  0  0  0  0  0  0  0
   39.1350   37.3032    2.7772 C   0  0  0  0  0  0  0  0  0  0  0  0
   39.2905   36.3952    1.9057 O   0  0  0  0  0  0  0  0  0  0  0  0
   40.1406   37.8545    3.3871 O   0  0  0  0  0  0  0  0  0  0  0  0
   39.9915   38.5232    4.0264 H   0  0  0  0  0  0  0  0  0  0  0  0
   37.1859   35.9914    4.9742 C   0  0  0  0  0  0  0  0  0  0  0  0
   36.7610   35.8145    6.2435 C   0  0  0  0  0  0  0  0  0  0  0  0
   34.5142   42.5731    3.1275 C   0  0  0  0  0  0  0  0  0  0  0  0
   33.5528   44.6751    2.4005 C   0  0  0  0  0  0  0  0  0  0  0  0
   34.1113   45.3296    3.2664 O   0  0  0  0  0  0  0  0  0  0  0  0
   33.6821   43.3392    2.2455 N   0  0  0  0  0  0  0  0  0  0  0  0
   33.1989   42.8857    1.5175 H   0  0  0  0  0  0  0  0  0  0  0  0
   32.6981   45.1719    1.4779 O   0  0  0  0  0  0  0  0  0  0  0  0
   32.0722   44.2682    0.6104 C   0  0  0  0  0  0  0  0  0  0  0  0
   32.3792   44.4426   -0.8501 C   0  0  0  0  0  0  0  0  0  0  0  0
   31.2979   43.5689   -1.4785 C   0  0  0  0  0  0  0  0  0  0  0  0
   30.1225   43.6427   -0.5097 C   0  0  0  0  0  0  0  0  0  0  0  0
   30.5853   44.5802    0.5894 C   0  0  0  0  0  0  0  0  0  0  0  0
   33.7081   41.5743    4.0274 C   0  0  0  0  0  0  0  0  0  0  0  0
   33.2627   42.2887    5.3390 C   0  0  0  0  0  0  0  0  0  0  0  0
   34.5087   40.3055    4.3984 C   0  0  0  0  0  0  0  0  0  0  0  0
   32.4410   41.1183    3.2823 C   0  0  0  0  0  0  0  0  0  0  0  0
   38.8411   43.9922    2.4413 O   0  0  0  0  0  0  0  0  0  0  0  0
   38.5434   45.2829    2.8461 C   0  0  0  0  0  0  0  0  0  0  0  0
   39.2267   45.8574    4.0334 C   0  0  0  0  0  0  0  0  0  0  0  0
   38.9041   47.1313    4.4101 C   0  0  0  0  0  0  0  0  0  0  0  0
   37.9673   47.8438    3.6737 N   0  0  0  0  0  0  0  0  0  0  0  0
   37.2800   47.3981    2.5640 C   0  0  0  0  0  0  0  0  0  0  0  0
   37.6104   46.0053    2.1444 C   0  0  0  0  0  0  0  0  0  0  0  0
   36.8907   45.4202    0.9481 C   0  0  0  0  0  0  0  0  0  0  0  0
   35.8992   46.3284    0.2959 C   0  0  0  0  0  0  0  0  0  0  0  0
   35.6412   47.6127    0.7252 C   0  0  0  0  0  0  0  0  0  0  0  0
   36.3666   48.1457    1.8862 C   0  0  0  0  0  0  0  0  0  0  0  0
   36.0246   49.9396    2.4755 Br  0  0  0  0  0  0  0  0  0  0  0  0
   39.4671   47.7584    5.5495 C   0  0  0  0  0  0  0  0  0  0  0  0
   38.7519   48.5080    6.4693 C   0  0  0  0  0  0  0  0  0  0  0  0
   39.8208   49.0509    7.6986 S   0  0  0  0  0  0  0  0  0  0  0  0
   41.1260   48.2561    6.9016 C   0  0  0  0  0  0  0  0  0  0  0  0
   40.8105   47.6159    5.8047 N   0  0  0  0  0  0  0  0  0  0  0  0
   42.4271   48.2320    7.3618 N   0  0  0  0  0  0  0  0  0  0  0  0
   43.2068   49.3466    7.6362 C   0  0  0  0  0  0  0  0  0  0  0  0
   42.7902   50.5142    7.4718 O   0  0  0  0  0  0  0  0  0  0  0  0
   42.8368   47.3488    7.5078 H   0  0  0  0  0  0  0  0  0  0  0  0
   44.6059   48.9752    8.1756 C   0  0  0  0  0  0  0  0  0  0  0  0
   45.6679   49.9439    7.6395 C   0  0  0  0  0  0  0  0  0  0  0  0
   44.9904   47.5341    7.8594 C   0  0  0  0  0  0  0  0  0  0  0  0
   34.7265   48.5075    0.1511 O   0  0  0  0  0  0  0  0  0  0  0  0
   33.3684   48.0695   -0.0945 C   0  0  0  0  0  0  0  0  0  0  0  0
 35 32  1  0  0  0
 34 32  1  0  0  0
 33 32  1  0  0  0
 32 21  1  0  0  0
 20 19  2  0  0  0
 21 24  1  0  0  0
 21  1  1  0  0  0
 24 22  1  0  0  0
 19 13  1  0  0  0
 22 26  1  0  0  0
 22 23  2  0  0  0
 26 27  1  0  0  0
 28 27  1  0  0  0
 28 29  1  0  0  0
  1  2  2  0  0  0
  1  7  1  0  0  0
  9  8  2  0  0  0
 27 31  1  0  0  0
 13 12  1  0  0  0
 13 14  1  0  0  0
 29 30  1  0  0  0
  7  6  1  0  0  0
  7  3  1  0  0  0
  6  5  1  0  0  0
 16 15  2  0  0  0
  8  3  1  0  0  0
  8 10  1  0  0  0
 30 31  1  0  0  0
 12 15  1  0  0  0
 12 14  1  0  0  0
 12 10  1  0  0  0
 15 17  1  0  0  0
  3  4  1  0  0  0
  5  4  1  0  0  0
  5 36  1  0  0  0
 36 37  1  0  0  0
 43 42  2  0  0  0
 43 44  1  0  0  0
 37 38  2  0  0  0
 37 42  1  0  0  0
 38 39  1  0  0  0
 42 41  1  0  0  0
 44 45  2  0  0  0
 39 40  2  0  0  0
 39 48  1  0  0  0
 52 48  1  0  0  0
 52 51  2  0  0  0
 41 40  1  0  0  0
 41 46  2  0  0  0
 45 46  1  0  0  0
 45 60  1  0  0  0
 58 57  1  0  0  0
 61 60  1  0  0  0
 53 51  1  0  0  0
 53 54  1  0  0  0
 57 54  1  0  0  0
 57 59  1  0  0  0
 48 49  2  0  0  0
 46 47  1  0  0  0
 51 50  1  0  0  0
 54 55  2  0  0  0
 49 50  1  0  0  0
 24 25  1  0  0  0
 53 56  1  0  0  0
 10 11  1  0  0  0
 17 18  1  0  0  0
M  END
> <minimizedAffinity>
-6.97462

$$$$
3P8N_L4T_A_188


 61 66  0  0  0  0  0  0  0  0999 V2000
   38.2696   41.9592    5.1945 C   0  0  0  0  0  0  0  0  0  0  0  0
   37.5503   40.9757    5.0877 O   0  0  0  0  0  0  0  0  0  0  0  0
   37.8986   42.4910    2.8071 C   0  0  0  0  0  0  0  0  0  0  0  0
   38.5302   43.5350    1.8594 C   0  0  0  0  0  0  0  0  0  0  0  0
   38.8231   44.7029    2.8071 C   0  0  0  0  0  0  0  0  0  0  0  0
   39.3876   43.9670    4.0014 C   0  0  0  0  0  0  0  0  0  0  0  0
   38.5131   42.7884    4.0992 N   0  0  0  0  0  0  0  0  0  0  0  0
   38.3105   41.0881    2.3495 C   0  0  0  0  0  0  0  0  0  0  0  0
   39.4746   40.8234    2.0377 O   0  0  0  0  0  0  0  0  0  0  0  0
   37.2885   40.1648    2.3687 N   0  0  0  0  0  0  0  0  0  0  0  0
   36.3567   40.4826    2.3719 H   0  0  0  0  0  0  0  0  0  0  0  0
   37.5461   38.7390    2.3843 C   0  0  0  0  0  0  0  0  0  0  0  0
   36.4941   37.8370    1.6926 C   0  0  0  0  0  0  0  0  0  0  0  0
   37.8319   38.0559    1.0376 C   0  0  0  0  0  0  0  0  0  0  0  0
   38.4144   38.2799    3.5758 C   0  0  0  0  0  0  0  0  0  0  0  0
   39.6157   37.9288    3.3709 O   0  0  0  0  0  0  0  0  0  0  0  0
   37.8942   38.2997    4.7657 O   0  0  0  0  0  0  0  0  0  0  0  0
   37.0030   38.5643    4.8831 H   0  0  0  0  0  0  0  0  0  0  0  0
   36.0989   36.5151    2.2081 C   0  0  0  0  0  0  0  0  0  0  0  0
   34.8736   35.9717    2.0458 C   0  0  0  0  0  0  0  0  0  0  0  0
   38.9454   42.2999    6.5456 C   0  0  0  0  0  0  0  0  0  0  0  0
   38.0556   44.2128    7.7372 C   0  0  0  0  0  0  0  0  0  0  0  0
   38.9758   44.9488    7.4185 O   0  0  0  0  0  0  0  0  0  0  0  0
   37.9452   42.9183    7.3667 N   0  0  0  0  0  0  0  0  0  0  0  0
   37.1678   42.3925    7.6642 H   0  0  0  0  0  0  0  0  0  0  0  0
   37.0173   44.5621    8.5299 O   0  0  0  0  0  0  0  0  0  0  0  0
   35.9152   45.1840    7.9303 C   0  0  0  0  0  0  0  0  0  0  0  0
   35.6542   44.8148    6.4974 C   0  0  0  0  0  0  0  0  0  0  0  0
   34.6594   45.8999    6.0965 C   0  0  0  0  0  0  0  0  0  0  0  0
   35.0345   47.1088    6.9471 C   0  0  0  0  0  0  0  0  0  0  0  0
   36.2392   46.6576    7.7508 C   0  0  0  0  0  0  0  0  0  0  0  0
   39.6408   41.0750    7.2334 C   0  0  0  0  0  0  0  0  0  0  0  0
   38.5620   40.1371    7.8545 C   0  0  0  0  0  0  0  0  0  0  0  0
   40.6415   41.4832    8.3382 C   0  0  0  0  0  0  0  0  0  0  0  0
   40.4208   40.2681    6.1803 C   0  0  0  0  0  0  0  0  0  0  0  0
   37.5750   45.2601    3.2950 O   0  0  0  0  0  0  0  0  0  0  0  0
   37.5047   46.5556    3.7799 C   0  0  0  0  0  0  0  0  0  0  0  0
   38.5147   47.0295    4.7607 C   0  0  0  0  0  0  0  0  0  0  0  0
   38.4119   48.3113    5.2247 C   0  0  0  0  0  0  0  0  0  0  0  0
   37.3855   49.1239    4.7622 N   0  0  0  0  0  0  0  0  0  0  0  0
   36.4028   48.7758    3.8591 C   0  0  0  0  0  0  0  0  0  0  0  0
   36.4917   47.3765    3.3501 C   0  0  0  0  0  0  0  0  0  0  0  0
   35.4434   46.8952    2.3698 C   0  0  0  0  0  0  0  0  0  0  0  0
   34.4030   47.9042    2.0054 C   0  0  0  0  0  0  0  0  0  0  0  0
   34.3767   49.1892    2.5038 C   0  0  0  0  0  0  0  0  0  0  0  0
   35.4169   49.6192    3.4478 C   0  0  0  0  0  0  0  0  0  0  0  0
   35.3951   51.4129    4.1293 Br  0  0  0  0  0  0  0  0  0  0  0  0
   39.2985   48.8493    6.1906 C   0  0  0  0  0  0  0  0  0  0  0  0
   39.0734   50.0167    6.9018 C   0  0  0  0  0  0  0  0  0  0  0  0
   40.3848   50.2751    7.9799 S   0  0  0  0  0  0  0  0  0  0  0  0
   41.1299   48.8314    7.4044 C   0  0  0  0  0  0  0  0  0  0  0  0
   40.4632   48.1809    6.4853 N   0  0  0  0  0  0  0  0  0  0  0  0
   42.3281   48.3287    7.8701 N   0  0  0  0  0  0  0  0  0  0  0  0
   43.5828   48.8600    7.6075 C   0  0  0  0  0  0  0  0  0  0  0  0
   43.7470   49.8697    6.8881 O   0  0  0  0  0  0  0  0  0  0  0  0
   42.2891   47.5247    8.4370 H   0  0  0  0  0  0  0  0  0  0  0  0
   44.7167   48.0835    8.3128 C   0  0  0  0  0  0  0  0  0  0  0  0
   44.2904   47.6672    9.7265 C   0  0  0  0  0  0  0  0  0  0  0  0
   46.0222   48.8699    8.3594 C   0  0  0  0  0  0  0  0  0  0  0  0
   33.4289   50.1757    2.1949 O   0  0  0  0  0  0  0  0  0  0  0  0
   33.4285   50.7663    0.8728 C   0  0  0  0  0  0  0  0  0  0  0  0
 35 32  1  0  0  0
 34 32  1  0  0  0
 33 32  1  0  0  0
 32 21  1  0  0  0
 20 19  2  0  0  0
 21 24  1  0  0  0
 21  1  1  0  0  0
 24 22  1  0  0  0
 19 13  1  0  0  0
 22 26  1  0  0  0
 22 23  2  0  0  0
 26 27  1  0  0  0
 28 27  1  0  0  0
 28 29  1  0  0  0
  1  2  2  0  0  0
  1  7  1  0  0  0
  9  8  2  0  0  0
 27 31  1  0  0  0
 13 12  1  0  0  0
 13 14  1  0  0  0
 29 30  1  0  0  0
  7  6  1  0  0  0
  7  3  1  0  0  0
  6  5  1  0  0  0
 16 15  2  0  0  0
  8  3  1  0  0  0
  8 10  1  0  0  0
 30 31  1  0  0  0
 12 15  1  0  0  0
 12 14  1  0  0  0
 12 10  1  0  0  0
 15 17  1  0  0  0
  3  4  1  0  0  0
  5  4  1  0  0  0
  5 36  1  0  0  0
 36 37  1  0  0  0
 43 42  2  0  0  0
 43 44  1  0  0  0
 37 38  2  0  0  0
 37 42  1  0  0  0
 38 39  1  0  0  0
 42 41  1  0  0  0
 44 45  2  0  0  0
 39 40  2  0  0  0
 39 48  1  0  0  0
 52 48  1  0  0  0
 52 51  2  0  0  0
 41 40  1  0  0  0
 41 46  2  0  0  0
 45 46  1  0  0  0
 45 60  1  0  0  0
 58 57  1  0  0  0
 61 60  1  0  0  0
 53 51  1  0  0  0
 53 54  1  0  0  0
 57 54  1  0  0  0
 57 59  1  0  0  0
 48 49  2  0  0  0
 46 47  1  0  0  0
 51 50  1  0  0  0
 54 55  2  0  0  0
 49 50  1  0  0  0
 24 25  1  0  0  0
 53 56  1  0  0  0
 10 11  1  0  0  0
 17 18  1  0  0  0
M  END
> <minimizedAffinity>
-6.92158

$$$$
3P8N_L4T_A_188


 61 66  0  0  0  0  0  0  0  0999 V2000
   37.6438   41.9741    3.7401 C   0  0  0  0  0  0  0  0  0  0  0  0
   36.8320   41.1008    3.4678 O   0  0  0  0  0  0  0  0  0  0  0  0
   37.2078   43.0605    1.5608 C   0  0  0  0  0  0  0  0  0  0  0  0
   37.8867   44.2384    0.8267 C   0  0  0  0  0  0  0  0  0  0  0  0
   38.3326   45.1343    1.9871 C   0  0  0  0  0  0  0  0  0  0  0  0
   38.8839   44.1045    2.9474 C   0  0  0  0  0  0  0  0  0  0  0  0
   37.9095   43.0077    2.8415 N   0  0  0  0  0  0  0  0  0  0  0  0
   37.4649   41.7695    0.7769 C   0  0  0  0  0  0  0  0  0  0  0  0
   38.6046   41.3256    0.6144 O   0  0  0  0  0  0  0  0  0  0  0  0
   36.3226   41.1447    0.3271 N   0  0  0  0  0  0  0  0  0  0  0  0
   35.4886   41.6635    0.2595 H   0  0  0  0  0  0  0  0  0  0  0  0
   36.3139   39.7456   -0.0495 C   0  0  0  0  0  0  0  0  0  0  0  0
   36.2843   38.7166    1.1076 C   0  0  0  0  0  0  0  0  0  0  0  0
   35.0500   38.9329    0.2732 C   0  0  0  0  0  0  0  0  0  0  0  0
   36.9659   39.4699   -1.4218 C   0  0  0  0  0  0  0  0  0  0  0  0
   36.2280   39.3254   -2.4430 O   0  0  0  0  0  0  0  0  0  0  0  0
   38.2620   39.4275   -1.4948 O   0  0  0  0  0  0  0  0  0  0  0  0
   38.7787   39.5380   -0.7210 H   0  0  0  0  0  0  0  0  0  0  0  0
   37.0199   37.4411    1.0737 C   0  0  0  0  0  0  0  0  0  0  0  0
   37.9268   37.0622    1.9995 C   0  0  0  0  0  0  0  0  0  0  0  0
   38.4134   41.9451    5.0836 C   0  0  0  0  0  0  0  0  0  0  0  0
   37.7419   43.5949    6.7264 C   0  0  0  0  0  0  0  0  0  0  0  0
   38.6965   44.3245    6.5114 O   0  0  0  0  0  0  0  0  0  0  0  0
   37.5115   42.4255    6.0901 N   0  0  0  0  0  0  0  0  0  0  0  0
   36.7140   41.8962    6.3202 H   0  0  0  0  0  0  0  0  0  0  0  0
   36.7797   43.8222    7.6490 O   0  0  0  0  0  0  0  0  0  0  0  0
   35.8283   44.8122    7.3735 C   0  0  0  0  0  0  0  0  0  0  0  0
   35.4239   44.9492    5.9329 C   0  0  0  0  0  0  0  0  0  0  0  0
   34.6944   46.2888    5.9643 C   0  0  0  0  0  0  0  0  0  0  0  0
   35.3804   47.0826    7.0710 C   0  0  0  0  0  0  0  0  0  0  0  0
   36.4805   46.1693    7.5774 C   0  0  0  0  0  0  0  0  0  0  0  0
   39.0376   40.5488    5.4269 C   0  0  0  0  0  0  0  0  0  0  0  0
   40.3057   40.7418    6.3122 C   0  0  0  0  0  0  0  0  0  0  0  0
   39.4241   39.7294    4.1749 C   0  0  0  0  0  0  0  0  0  0  0  0
   38.0225   39.7147    6.2284 C   0  0  0  0  0  0  0  0  0  0  0  0
   37.1669   45.6640    2.6704 O   0  0  0  0  0  0  0  0  0  0  0  0
   37.2093   46.8808    3.3307 C   0  0  0  0  0  0  0  0  0  0  0  0
   38.2320   47.1110    4.3832 C   0  0  0  0  0  0  0  0  0  0  0  0
   38.2414   48.3204    5.0204 C   0  0  0  0  0  0  0  0  0  0  0  0
   37.3130   49.2881    4.6607 N   0  0  0  0  0  0  0  0  0  0  0  0
   36.3275   49.1684    3.7031 C   0  0  0  0  0  0  0  0  0  0  0  0
   36.2941   47.8508    3.0047 C   0  0  0  0  0  0  0  0  0  0  0  0
   35.2328   47.6171    1.9510 C   0  0  0  0  0  0  0  0  0  0  0  0
   34.3067   48.7662    1.7157 C   0  0  0  0  0  0  0  0  0  0  0  0
   34.3916   49.9664    2.3885 C   0  0  0  0  0  0  0  0  0  0  0  0
   35.4411   50.1554    3.3990 C   0  0  0  0  0  0  0  0  0  0  0  0
   35.5747   51.8312    4.3243 Br  0  0  0  0  0  0  0  0  0  0  0  0
   39.1479   48.6282    6.0653 C   0  0  0  0  0  0  0  0  0  0  0  0
   38.8566   49.4467    7.1445 C   0  0  0  0  0  0  0  0  0  0  0  0
   40.2269   49.5180    8.1768 S   0  0  0  0  0  0  0  0  0  0  0  0
   41.0781   48.4721    7.1035 C   0  0  0  0  0  0  0  0  0  0  0  0
   40.4067   48.0756    6.0526 N   0  0  0  0  0  0  0  0  0  0  0  0
   42.3669   48.0218    7.3063 N   0  0  0  0  0  0  0  0  0  0  0  0
   43.5032   48.8174    7.3447 C   0  0  0  0  0  0  0  0  0  0  0  0
   43.4611   50.0562    7.1790 O   0  0  0  0  0  0  0  0  0  0  0  0
   42.4907   47.0535    7.4347 H   0  0  0  0  0  0  0  0  0  0  0  0
   44.7869   48.0073    7.6314 C   0  0  0  0  0  0  0  0  0  0  0  0
   44.8600   47.6142    9.1125 C   0  0  0  0  0  0  0  0  0  0  0  0
   46.0516   48.7494    7.2136 C   0  0  0  0  0  0  0  0  0  0  0  0
   33.5539   51.0764    2.2064 O   0  0  0  0  0  0  0  0  0  0  0  0
   33.3032   51.5602    0.8649 C   0  0  0  0  0  0  0  0  0  0  0  0
 35 32  1  0  0  0
 34 32  1  0  0  0
 33 32  1  0  0  0
 32 21  1  0  0  0
 20 19  2  0  0  0
 21 24  1  0  0  0
 21  1  1  0  0  0
 24 22  1  0  0  0
 19 13  1  0  0  0
 22 26  1  0  0  0
 22 23  2  0  0  0
 26 27  1  0  0  0
 28 27  1  0  0  0
 28 29  1  0  0  0
  1  2  2  0  0  0
  1  7  1  0  0  0
  9  8  2  0  0  0
 27 31  1  0  0  0
 13 12  1  0  0  0
 13 14  1  0  0  0
 29 30  1  0  0  0
  7  6  1  0  0  0
  7  3  1  0  0  0
  6  5  1  0  0  0
 16 15  2  0  0  0
  8  3  1  0  0  0
  8 10  1  0  0  0
 30 31  1  0  0  0
 12 15  1  0  0  0
 12 14  1  0  0  0
 12 10  1  0  0  0
 15 17  1  0  0  0
  3  4  1  0  0  0
  5  4  1  0  0  0
  5 36  1  0  0  0
 36 37  1  0  0  0
 43 42  2  0  0  0
 43 44  1  0  0  0
 37 38  2  0  0  0
 37 42  1  0  0  0
 38 39  1  0  0  0
 42 41  1  0  0  0
 44 45  2  0  0  0
 39 40  2  0  0  0
 39 48  1  0  0  0
 52 48  1  0  0  0
 52 51  2  0  0  0
 41 40  1  0  0  0
 41 46  2  0  0  0
 45 46  1  0  0  0
 45 60  1  0  0  0
 58 57  1  0  0  0
 61 60  1  0  0  0
 53 51  1  0  0  0
 53 54  1  0  0  0
 57 54  1  0  0  0
 57 59  1  0  0  0
 48 49  2  0  0  0
 46 47  1  0  0  0
 51 50  1  0  0  0
 54 55  2  0  0  0
 49 50  1  0  0  0
 24 25  1  0  0  0
 53 56  1  0  0  0
 10 11  1  0  0  0
 17 18  1  0  0  0
M  END
> <minimizedAffinity>
-6.90942

$$$$
