3LVW_GSH_A_693
  RCSB PDB12061709393D
Coordinates from PDB:3LVW:A:693 Model:1 without hydrogens
 20 19  0  0  0  0            999 V2000
    1.5710   35.5950  -18.6260   N 0  0  0  0  0  0  0  0  0  0  0  0
    0.9400   34.9980  -19.8150   C 0  0  0  0  0  0  0  0  0  0  0  0
    1.0610   35.8670  -21.0700   C 0  0  0  0  0  0  0  0  0  0  0  0
    0.6150   35.3250  -22.1390   O 0  0  0  0  0  0  0  0  0  0  0  0
    1.5960   37.0510  -21.0330   O 0  0  0  0  0  0  0  0  0  0  0  0
   -0.5580   34.7450  -19.6180   C 0  0  0  0  0  0  0  0  0  0  0  0
   -0.9570   33.9430  -18.3810   C 0  0  0  0  0  0  0  0  0  0  0  0
   -0.6500   32.4680  -18.6060   C 0  0  0  0  0  0  0  0  0  0  0  0
   -0.6650   31.9560  -19.7230   O 0  0  0  0  0  0  0  0  0  0  0  0
   -0.3790   31.8080  -17.4910   N 0  0  0  0  0  0  0  0  0  0  0  0
   -0.0930   30.3970  -17.4670   C 0  0  0  0  0  0  0  0  0  0  0  0
   -1.3610   29.6390  -17.2150   C 0  0  0  0  0  0  0  0  0  0  0  0
   -1.5520   28.6450  -17.8730   O 0  0  0  0  0  0  0  0  0  0  0  0
    0.9660   30.1780  -16.3730   C 0  0  0  0  0  0  0  0  0  0  0  0
    1.6530   28.4950  -16.2930   S 0  0  0  0  0  0  0  0  0  0  0  0
   -2.2380   30.0930  -16.3200   N 0  0  0  0  0  0  0  0  0  0  0  0
   -3.4970   29.4650  -15.9260   C 0  0  0  0  0  0  0  0  0  0  0  0
   -3.1200   28.3820  -14.9020   C 0  0  0  0  0  0  0  0  0  0  0  0
   -1.9530   28.3860  -14.4020   O 0  0  0  0  0  0  0  0  0  0  0  0
   -3.9610   27.4980  -14.5620   O 0  0  0  0  0  0  0  0  0  0  0  0
  1  2  1  0  0  0  0
  2  3  1  0  0  0  0
  2  6  1  0  0  0  0
  3  4  2  0  0  0  0
  3  5  1  0  0  0  0
  6  7  1  0  0  0  0
  7  8  1  0  0  0  0
  8  9  2  0  0  0  0
  8 10  1  0  0  0  0
 10 11  1  0  0  0  0
 11 12  1  0  0  0  0
 11 14  1  0  0  0  0
 12 13  2  0  0  0  0
 12 16  1  0  0  0  0
 14 15  1  0  0  0  0
 16 17  1  0  0  0  0
 17 18  1  0  0  0  0
 18 19  2  0  0  0  0
 18 20  1  0  0  0  0
A    1
N1
A    2
CA1
A    3
C1
A    4
O11
A    5
O12
A    6
CB1
A    7
CG1
A    8
CD1
A    9
OE1
A   10
N2
A   11
CA2
A   12
C2
A   13
O2
A   14
CB2
A   15
SG2
A   16
N3
A   17
CA3
A   18
C3
A   19
O31
A   20
O32
M  END
>  <InstanceId>
3LVW_GSH_A_693

>  <ChemCompId>
GSH

>  <PdbId>
3LVW

>  <ChainId>
A

>  <ResidueNumber>
693

>  <InsertionCode>


>  <Model>
1

>  <AltIds>


>  <MissingHeavyAtoms>
0

>  <ObservedFormula>
C10 N3 O6 S

>  <Name>
GLUTATHIONE

>  <SystematicName>
(2S)-2-azanyl-5-[[(2R)-1-(2-hydroxy-2-oxoethylamino)-1-oxidanylidene-3-sulfanyl-propan-2-yl]amino]-5-oxidanylidene-pentanoic acid

>  <Synonyms>


>  <Type>
NON-POLYMER

>  <Formula>
C10 H17 N3 O6 S

>  <MolecularWeight>
307.323

>  <ModifiedDate>
2014-04-22

>  <Parent>


>  <OneLetterCode>


>  <SubcomponentList>


>  <AmbiguousFlag>
N

>  <InChI>
InChI=1S/C10H17N3O6S/c11-5(10(18)19)1-2-7(14)13-6(4-20)9(17)12-3-8(15)16/h5-6,20H,1-4,11H2,(H,12,17)(H,13,14)(H,15,16)(H,18,19)/t5-,6-/m0/s1

>  <InChIKey>
RWSXRVCMGQZWBV-WDSKDSINSA-N

>  <SMILES>
C(CC(=O)N[C@@H](CS)C(=O)NCC(=O)O)[C@@H](C(=O)O)N

$$$$
