3LVW_GSH_A_693


 27 26  0  0  0  0  0  0  0  0999 V2000
   -0.4020   32.3871  -18.3721 C   0  0  0  0  0  0  0  0  0  0  0  0
   -0.9382   32.1538  -19.4529 O   0  0  0  0  0  0  0  0  0  0  0  0
   -0.3431   31.5227  -17.3713 N   0  0  0  0  0  0  0  0  0  0  0  0
    0.1224   31.7895  -16.5459 H   0  0  0  0  0  0  0  0  0  0  0  0
    0.2559   33.7251  -18.0602 C   0  0  0  0  0  0  0  0  0  0  0  0
   -0.0920   34.7351  -19.1518 C   0  0  0  0  0  0  0  0  0  0  0  0
    1.6711   36.3767  -19.8121 N   0  0  0  0  0  0  0  0  0  0  0  0
    1.0274   35.0922  -20.1348 C   0  0  0  0  0  0  0  0  0  0  0  0
    2.4063   36.5690  -20.4924 H   0  0  0  0  0  0  0  0  0  0  0  0
    2.0769   36.3283  -18.8775 H   0  0  0  0  0  0  0  0  0  0  0  0
    0.3929   35.0619  -21.5281 C   0  0  0  0  0  0  0  0  0  0  0  0
    0.8634   35.9239  -22.3472 O   0  0  0  0  0  0  0  0  0  0  0  0
   -0.5609   34.2310  -21.8272 O   0  0  0  0  0  0  0  0  0  0  0  0
   -0.8675   33.6195  -21.1869 H   0  0  0  0  0  0  0  0  0  0  0  0
   -0.9298   30.2093  -17.4365 C   0  0  0  0  0  0  0  0  0  0  0  0
   -2.4199   30.3267  -17.3285 C   0  0  0  0  0  0  0  0  0  0  0  0
   -2.8930   30.3694  -16.2187 O   0  0  0  0  0  0  0  0  0  0  0  0
   -3.1653   30.3427  -18.4332 N   0  0  0  0  0  0  0  0  0  0  0  0
   -2.6863   30.2465  -19.2879 H   0  0  0  0  0  0  0  0  0  0  0  0
   -4.6171   30.4876  -18.5121 C   0  0  0  0  0  0  0  0  0  0  0  0
   -4.8686   31.9499  -18.9146 C   0  0  0  0  0  0  0  0  0  0  0  0
   -5.9591   32.5040  -18.5742 O   0  0  0  0  0  0  0  0  0  0  0  0
   -4.0011   32.5930  -19.5764 O   0  0  0  0  0  0  0  0  0  0  0  0
   -3.1985   32.1779  -19.8243 H   0  0  0  0  0  0  0  0  0  0  0  0
   -0.3070   29.3886  -16.2942 C   0  0  0  0  0  0  0  0  0  0  0  0
    1.5046   29.5002  -16.1655 S   0  0  0  0  0  0  0  0  0  0  0  0
    2.0712   28.9951  -17.2939 H   0  0  0  0  0  0  0  0  0  0  0  0
  7  8  1  0  0  0
  8 11  1  0  0  0
  8  6  1  0  0  0
 11 12  2  0  0  0
 11 13  1  0  0  0
  6  5  1  0  0  0
  5  1  1  0  0  0
  1  2  2  0  0  0
  1  3  1  0  0  0
  3 15  1  0  0  0
 15 16  1  0  0  0
 15 25  1  0  0  0
 16 17  2  0  0  0
 16 18  1  0  0  0
 25 26  1  0  0  0
 18 20  1  0  0  0
 20 21  1  0  0  0
 21 22  2  0  0  0
 21 23  1  0  0  0
  7  9  1  0  0  0
  7 10  1  0  0  0
 13 14  1  0  0  0
  3  4  1  0  0  0
 26 27  1  0  0  0
 18 19  1  0  0  0
 23 24  1  0  0  0
M  END
> <minimizedAffinity>
-6.74640

$$$$
3LVW_GSH_A_693


 27 26  0  0  0  0  0  0  0  0999 V2000
   -4.2415   31.2738  -19.0369 C   0  0  0  0  0  0  0  0  0  0  0  0
   -4.0934   30.5754  -20.0371 O   0  0  0  0  0  0  0  0  0  0  0  0
   -3.2429   31.7509  -18.3107 N   0  0  0  0  0  0  0  0  0  0  0  0
   -3.4548   32.3173  -17.5339 H   0  0  0  0  0  0  0  0  0  0  0  0
   -5.6170   31.6639  -18.5114 C   0  0  0  0  0  0  0  0  0  0  0  0
   -5.4631   32.5235  -17.2584 C   0  0  0  0  0  0  0  0  0  0  0  0
   -6.7144   33.0611  -15.1645 N   0  0  0  0  0  0  0  0  0  0  0  0
   -6.1156   31.9904  -15.9790 C   0  0  0  0  0  0  0  0  0  0  0  0
   -7.1342   32.6570  -14.3273 H   0  0  0  0  0  0  0  0  0  0  0  0
   -7.4326   33.5402  -15.7076 H   0  0  0  0  0  0  0  0  0  0  0  0
   -5.0265   31.2032  -15.2449 C   0  0  0  0  0  0  0  0  0  0  0  0
   -5.0251   29.9465  -15.4822 O   0  0  0  0  0  0  0  0  0  0  0  0
   -4.1925   31.7830  -14.4340 O   0  0  0  0  0  0  0  0  0  0  0  0
   -4.2389   32.7088  -14.2972 H   0  0  0  0  0  0  0  0  0  0  0  0
   -1.8604   31.4782  -18.6067 C   0  0  0  0  0  0  0  0  0  0  0  0
   -1.2438   30.7414  -17.4566 C   0  0  0  0  0  0  0  0  0  0  0  0
   -0.0787   30.4402  -17.5527 O   0  0  0  0  0  0  0  0  0  0  0  0
   -1.9903   30.4147  -16.4019 N   0  0  0  0  0  0  0  0  0  0  0  0
   -2.9433   30.6578  -16.4459 H   0  0  0  0  0  0  0  0  0  0  0  0
   -1.5463   29.7346  -15.1874 C   0  0  0  0  0  0  0  0  0  0  0  0
   -1.7361   28.2331  -15.4575 C   0  0  0  0  0  0  0  0  0  0  0  0
   -0.7109   27.4936  -15.5756 O   0  0  0  0  0  0  0  0  0  0  0  0
   -2.8984   27.7404  -15.5611 O   0  0  0  0  0  0  0  0  0  0  0  0
   -3.6507   28.2920  -15.4729 H   0  0  0  0  0  0  0  0  0  0  0  0
   -1.1897   32.8352  -18.8805 C   0  0  0  0  0  0  0  0  0  0  0  0
   -0.3217   32.9567  -20.4750 S   0  0  0  0  0  0  0  0  0  0  0  0
    0.7014   32.0611  -20.5037 H   0  0  0  0  0  0  0  0  0  0  0  0
  7  8  1  0  0  0
  8 11  1  0  0  0
  8  6  1  0  0  0
 11 12  2  0  0  0
 11 13  1  0  0  0
  6  5  1  0  0  0
  5  1  1  0  0  0
  1  2  2  0  0  0
  1  3  1  0  0  0
  3 15  1  0  0  0
 15 16  1  0  0  0
 15 25  1  0  0  0
 16 17  2  0  0  0
 16 18  1  0  0  0
 25 26  1  0  0  0
 18 20  1  0  0  0
 20 21  1  0  0  0
 21 22  2  0  0  0
 21 23  1  0  0  0
  7  9  1  0  0  0
  7 10  1  0  0  0
 13 14  1  0  0  0
  3  4  1  0  0  0
 26 27  1  0  0  0
 18 19  1  0  0  0
 23 24  1  0  0  0
M  END
> <minimizedAffinity>
-6.61068

$$$$
3LVW_GSH_A_693


 27 26  0  0  0  0  0  0  0  0999 V2000
   -3.8073   30.0718  -14.4854 C   0  0  0  0  0  0  0  0  0  0  0  0
   -3.1875   30.5424  -13.5344 O   0  0  0  0  0  0  0  0  0  0  0  0
   -3.2477   29.7065  -15.6281 N   0  0  0  0  0  0  0  0  0  0  0  0
   -3.8203   29.3223  -16.3307 H   0  0  0  0  0  0  0  0  0  0  0  0
   -5.3161   29.8640  -14.4527 C   0  0  0  0  0  0  0  0  0  0  0  0
   -5.9830   30.7812  -15.4756 C   0  0  0  0  0  0  0  0  0  0  0  0
   -6.9049   33.0725  -15.1026 N   0  0  0  0  0  0  0  0  0  0  0  0
   -5.6886   32.2789  -15.3455 C   0  0  0  0  0  0  0  0  0  0  0  0
   -6.6572   34.0588  -15.0237 H   0  0  0  0  0  0  0  0  0  0  0  0
   -7.3459   32.7624  -14.2367 H   0  0  0  0  0  0  0  0  0  0  0  0
   -4.9468   32.6771  -16.6246 C   0  0  0  0  0  0  0  0  0  0  0  0
   -4.8851   31.7593  -17.5130 O   0  0  0  0  0  0  0  0  0  0  0  0
   -4.4125   33.8534  -16.7673 O   0  0  0  0  0  0  0  0  0  0  0  0
   -4.4886   34.4887  -16.0828 H   0  0  0  0  0  0  0  0  0  0  0  0
   -1.8385   29.8463  -15.8888 C   0  0  0  0  0  0  0  0  0  0  0  0
   -1.6434   30.4324  -17.2542 C   0  0  0  0  0  0  0  0  0  0  0  0
   -2.1122   29.8282  -18.1883 O   0  0  0  0  0  0  0  0  0  0  0  0
   -0.9429   31.5570  -17.3990 N   0  0  0  0  0  0  0  0  0  0  0  0
   -0.5553   31.9417  -16.5798 H   0  0  0  0  0  0  0  0  0  0  0  0
   -0.6884   32.2802  -18.6427 C   0  0  0  0  0  0  0  0  0  0  0  0
   -1.9477   33.1241  -18.8992 C   0  0  0  0  0  0  0  0  0  0  0  0
   -1.9651   34.3360  -18.5212 O   0  0  0  0  0  0  0  0  0  0  0  0
   -2.9537   32.6180  -19.4790 O   0  0  0  0  0  0  0  0  0  0  0  0
   -2.9340   31.7229  -19.7553 H   0  0  0  0  0  0  0  0  0  0  0  0
   -1.2195   28.4458  -15.7415 C   0  0  0  0  0  0  0  0  0  0  0  0
    0.5402   28.3313  -16.1901 S   0  0  0  0  0  0  0  0  0  0  0  0
    0.6927   28.6325  -17.5075 H   0  0  0  0  0  0  0  0  0  0  0  0
  7  8  1  0  0  0
  8 11  1  0  0  0
  8  6  1  0  0  0
 11 12  2  0  0  0
 11 13  1  0  0  0
  6  5  1  0  0  0
  5  1  1  0  0  0
  1  2  2  0  0  0
  1  3  1  0  0  0
  3 15  1  0  0  0
 15 16  1  0  0  0
 15 25  1  0  0  0
 16 17  2  0  0  0
 16 18  1  0  0  0
 25 26  1  0  0  0
 18 20  1  0  0  0
 20 21  1  0  0  0
 21 22  2  0  0  0
 21 23  1  0  0  0
  7  9  1  0  0  0
  7 10  1  0  0  0
 13 14  1  0  0  0
  3  4  1  0  0  0
 26 27  1  0  0  0
 18 19  1  0  0  0
 23 24  1  0  0  0
M  END
> <minimizedAffinity>
-6.51477

$$$$
3LVW_GSH_A_693


 27 26  0  0  0  0  0  0  0  0999 V2000
   -2.8288   29.6819  -16.0522 C   0  0  0  0  0  0  0  0  0  0  0  0
   -2.5897   30.1467  -14.9401 O   0  0  0  0  0  0  0  0  0  0  0  0
   -1.9927   29.7419  -17.0767 N   0  0  0  0  0  0  0  0  0  0  0  0
   -2.2612   29.3266  -17.9280 H   0  0  0  0  0  0  0  0  0  0  0  0
   -4.1422   28.9825  -16.3784 C   0  0  0  0  0  0  0  0  0  0  0  0
   -4.5164   29.2466  -17.8354 C   0  0  0  0  0  0  0  0  0  0  0  0
   -6.7383   30.2260  -18.4213 N   0  0  0  0  0  0  0  0  0  0  0  0
   -5.3277   30.5159  -18.1137 C   0  0  0  0  0  0  0  0  0  0  0  0
   -7.2341   31.0996  -18.5983 H   0  0  0  0  0  0  0  0  0  0  0  0
   -7.1671   29.7459  -17.6301 H   0  0  0  0  0  0  0  0  0  0  0  0
   -4.5958   31.2470  -19.2426 C   0  0  0  0  0  0  0  0  0  0  0  0
   -4.0661   30.4807  -20.1188 O   0  0  0  0  0  0  0  0  0  0  0  0
   -4.5144   32.5438  -19.2777 O   0  0  0  0  0  0  0  0  0  0  0  0
   -4.9223   33.0570  -18.6083 H   0  0  0  0  0  0  0  0  0  0  0  0
   -0.7079   30.3876  -17.0012 C   0  0  0  0  0  0  0  0  0  0  0  0
   -0.6437   31.4833  -18.0215 C   0  0  0  0  0  0  0  0  0  0  0  0
   -1.0235   31.2235  -19.1377 O   0  0  0  0  0  0  0  0  0  0  0  0
   -0.1466   32.6734  -17.6858 N   0  0  0  0  0  0  0  0  0  0  0  0
    0.1878   32.7658  -16.7645 H   0  0  0  0  0  0  0  0  0  0  0  0
   -0.0445   33.8557  -18.5382 C   0  0  0  0  0  0  0  0  0  0  0  0
    1.2445   34.5724  -18.1041 C   0  0  0  0  0  0  0  0  0  0  0  0
    2.1978   34.6835  -18.9352 O   0  0  0  0  0  0  0  0  0  0  0  0
    1.3546   35.0451  -16.9341 O   0  0  0  0  0  0  0  0  0  0  0  0
    0.6471   34.9595  -16.3258 H   0  0  0  0  0  0  0  0  0  0  0  0
    0.3512   29.2947  -17.2251 C   0  0  0  0  0  0  0  0  0  0  0  0
    1.8054   29.3978  -16.1362 S   0  0  0  0  0  0  0  0  0  0  0  0
    2.4659   30.5632  -16.3712 H   0  0  0  0  0  0  0  0  0  0  0  0
  7  8  1  0  0  0
  8 11  1  0  0  0
  8  6  1  0  0  0
 11 12  2  0  0  0
 11 13  1  0  0  0
  6  5  1  0  0  0
  5  1  1  0  0  0
  1  2  2  0  0  0
  1  3  1  0  0  0
  3 15  1  0  0  0
 15 16  1  0  0  0
 15 25  1  0  0  0
 16 17  2  0  0  0
 16 18  1  0  0  0
 25 26  1  0  0  0
 18 20  1  0  0  0
 20 21  1  0  0  0
 21 22  2  0  0  0
 21 23  1  0  0  0
  7  9  1  0  0  0
  7 10  1  0  0  0
 13 14  1  0  0  0
  3  4  1  0  0  0
 26 27  1  0  0  0
 18 19  1  0  0  0
 23 24  1  0  0  0
M  END
> <minimizedAffinity>
-6.49654

$$$$
3LVW_GSH_A_693


 27 26  0  0  0  0  0  0  0  0999 V2000
   -2.5074   28.4063  -16.6656 C   0  0  0  0  0  0  0  0  0  0  0  0
   -2.9180   27.3804  -17.2030 O   0  0  0  0  0  0  0  0  0  0  0  0
   -2.8615   29.6282  -17.0313 N   0  0  0  0  0  0  0  0  0  0  0  0
   -2.4954   30.3935  -16.5318 H   0  0  0  0  0  0  0  0  0  0  0  0
   -1.5208   28.3801  -15.5052 C   0  0  0  0  0  0  0  0  0  0  0  0
   -0.1882   27.8023  -15.9772 C   0  0  0  0  0  0  0  0  0  0  0  0
    1.8149   27.9489  -17.4623 N   0  0  0  0  0  0  0  0  0  0  0  0
    0.5766   28.6158  -17.0261 C   0  0  0  0  0  0  0  0  0  0  0  0
    2.2859   28.5276  -18.1577 H   0  0  0  0  0  0  0  0  0  0  0  0
    1.5870   27.0429  -17.8718 H   0  0  0  0  0  0  0  0  0  0  0  0
    0.8142   29.9939  -16.4022 C   0  0  0  0  0  0  0  0  0  0  0  0
    0.0585   30.9213  -16.8542 O   0  0  0  0  0  0  0  0  0  0  0  0
    1.7300   30.1877  -15.5004 O   0  0  0  0  0  0  0  0  0  0  0  0
    2.2558   29.4706  -15.2051 H   0  0  0  0  0  0  0  0  0  0  0  0
   -3.7585   29.8876  -18.1274 C   0  0  0  0  0  0  0  0  0  0  0  0
   -3.2159   31.0127  -18.9555 C   0  0  0  0  0  0  0  0  0  0  0  0
   -3.9768   31.5539  -19.7208 O   0  0  0  0  0  0  0  0  0  0  0  0
   -1.9309   31.3512  -18.8534 N   0  0  0  0  0  0  0  0  0  0  0  0
   -1.3816   30.8109  -18.2406 H   0  0  0  0  0  0  0  0  0  0  0  0
   -1.2499   32.4381  -19.5532 C   0  0  0  0  0  0  0  0  0  0  0  0
   -1.2024   33.6092  -18.5583 C   0  0  0  0  0  0  0  0  0  0  0  0
   -2.1130   34.4929  -18.6026 O   0  0  0  0  0  0  0  0  0  0  0  0
   -0.2685   33.6920  -17.7067 O   0  0  0  0  0  0  0  0  0  0  0  0
    0.4003   33.0362  -17.6795 H   0  0  0  0  0  0  0  0  0  0  0  0
   -5.1321   30.2029  -17.5109 C   0  0  0  0  0  0  0  0  0  0  0  0
   -6.3147   28.8200  -17.5188 S   0  0  0  0  0  0  0  0  0  0  0  0
   -6.5921   28.4681  -18.8029 H   0  0  0  0  0  0  0  0  0  0  0  0
  7  8  1  0  0  0
  8 11  1  0  0  0
  8  6  1  0  0  0
 11 12  2  0  0  0
 11 13  1  0  0  0
  6  5  1  0  0  0
  5  1  1  0  0  0
  1  2  2  0  0  0
  1  3  1  0  0  0
  3 15  1  0  0  0
 15 16  1  0  0  0
 15 25  1  0  0  0
 16 17  2  0  0  0
 16 18  1  0  0  0
 25 26  1  0  0  0
 18 20  1  0  0  0
 20 21  1  0  0  0
 21 22  2  0  0  0
 21 23  1  0  0  0
  7  9  1  0  0  0
  7 10  1  0  0  0
 13 14  1  0  0  0
  3  4  1  0  0  0
 26 27  1  0  0  0
 18 19  1  0  0  0
 23 24  1  0  0  0
M  END
> <minimizedAffinity>
-6.49418

$$$$
3LVW_GSH_A_693


 27 26  0  0  0  0  0  0  0  0999 V2000
   -4.5629   31.2698  -15.5440 C   0  0  0  0  0  0  0  0  0  0  0  0
   -4.4086   31.1616  -14.3297 O   0  0  0  0  0  0  0  0  0  0  0  0
   -3.7127   30.8022  -16.4444 N   0  0  0  0  0  0  0  0  0  0  0  0
   -3.9260   30.9193  -17.3983 H   0  0  0  0  0  0  0  0  0  0  0  0
   -5.7676   31.9755  -16.1532 C   0  0  0  0  0  0  0  0  0  0  0  0
   -6.1976   31.2505  -17.4268 C   0  0  0  0  0  0  0  0  0  0  0  0
   -7.0645   31.5680  -19.7477 N   0  0  0  0  0  0  0  0  0  0  0  0
   -6.1163   32.0514  -18.7301 C   0  0  0  0  0  0  0  0  0  0  0  0
   -6.9722   32.1310  -20.5932 H   0  0  0  0  0  0  0  0  0  0  0  0
   -8.0164   31.6458  -19.3897 H   0  0  0  0  0  0  0  0  0  0  0  0
   -4.6538   31.9827  -19.1786 C   0  0  0  0  0  0  0  0  0  0  0  0
   -4.3363   30.9110  -19.7999 O   0  0  0  0  0  0  0  0  0  0  0  0
   -3.8137   32.9404  -18.9206 O   0  0  0  0  0  0  0  0  0  0  0  0
   -4.1013   33.7048  -18.4613 H   0  0  0  0  0  0  0  0  0  0  0  0
   -2.4896   30.1298  -16.0904 C   0  0  0  0  0  0  0  0  0  0  0  0
   -1.4117   30.5224  -17.0546 C   0  0  0  0  0  0  0  0  0  0  0  0
   -0.5293   29.7230  -17.2543 O   0  0  0  0  0  0  0  0  0  0  0  0
   -1.4369   31.7281  -17.6222 N   0  0  0  0  0  0  0  0  0  0  0  0
   -2.1697   32.3266  -17.3499 H   0  0  0  0  0  0  0  0  0  0  0  0
   -0.4941   32.2570  -18.6050 C   0  0  0  0  0  0  0  0  0  0  0  0
   -0.4772   33.7791  -18.3893 C   0  0  0  0  0  0  0  0  0  0  0  0
   -1.3569   34.4926  -18.9628 O   0  0  0  0  0  0  0  0  0  0  0  0
    0.4016   34.3141  -17.6506 O   0  0  0  0  0  0  0  0  0  0  0  0
    1.0479   33.7814  -17.2304 H   0  0  0  0  0  0  0  0  0  0  0  0
   -2.7919   28.6216  -16.1079 C   0  0  0  0  0  0  0  0  0  0  0  0
   -3.8931   28.0731  -17.4485 S   0  0  0  0  0  0  0  0  0  0  0  0
   -5.1109   28.6613  -17.3042 H   0  0  0  0  0  0  0  0  0  0  0  0
  7  8  1  0  0  0
  8 11  1  0  0  0
  8  6  1  0  0  0
 11 12  2  0  0  0
 11 13  1  0  0  0
  6  5  1  0  0  0
  5  1  1  0  0  0
  1  2  2  0  0  0
  1  3  1  0  0  0
  3 15  1  0  0  0
 15 16  1  0  0  0
 15 25  1  0  0  0
 16 17  2  0  0  0
 16 18  1  0  0  0
 25 26  1  0  0  0
 18 20  1  0  0  0
 20 21  1  0  0  0
 21 22  2  0  0  0
 21 23  1  0  0  0
  7  9  1  0  0  0
  7 10  1  0  0  0
 13 14  1  0  0  0
  3  4  1  0  0  0
 26 27  1  0  0  0
 18 19  1  0  0  0
 23 24  1  0  0  0
M  END
> <minimizedAffinity>
-6.47471

$$$$
3LVW_GSH_A_693


 27 26  0  0  0  0  0  0  0  0999 V2000
   -3.5221   29.5225  -18.0540 C   0  0  0  0  0  0  0  0  0  0  0  0
   -3.8703   29.0232  -19.1215 O   0  0  0  0  0  0  0  0  0  0  0  0
   -3.3591   30.8219  -17.8610 N   0  0  0  0  0  0  0  0  0  0  0  0
   -3.0941   31.1350  -16.9660 H   0  0  0  0  0  0  0  0  0  0  0  0
   -3.2262   28.6818  -16.8187 C   0  0  0  0  0  0  0  0  0  0  0  0
   -1.7324   28.3701  -16.7554 C   0  0  0  0  0  0  0  0  0  0  0  0
   -1.6798   30.2184  -15.0760 N   0  0  0  0  0  0  0  0  0  0  0  0
   -0.8712   29.3182  -15.9151 C   0  0  0  0  0  0  0  0  0  0  0  0
   -1.0630   30.8272  -14.5381 H   0  0  0  0  0  0  0  0  0  0  0  0
   -2.2526   29.6656  -14.4383 H   0  0  0  0  0  0  0  0  0  0  0  0
    0.0338   30.0573  -16.9049 C   0  0  0  0  0  0  0  0  0  0  0  0
    1.0585   30.6125  -16.3786 O   0  0  0  0  0  0  0  0  0  0  0  0
   -0.2466   30.1197  -18.1726 O   0  0  0  0  0  0  0  0  0  0  0  0
   -1.0121   29.6933  -18.5047 H   0  0  0  0  0  0  0  0  0  0  0  0
   -3.5521   31.7977  -18.9020 C   0  0  0  0  0  0  0  0  0  0  0  0
   -2.4569   32.8183  -18.8333 C   0  0  0  0  0  0  0  0  0  0  0  0
   -2.6864   33.8368  -18.2271 O   0  0  0  0  0  0  0  0  0  0  0  0
   -1.3019   32.5945  -19.4596 N   0  0  0  0  0  0  0  0  0  0  0  0
   -1.2356   31.7570  -19.9729 H   0  0  0  0  0  0  0  0  0  0  0  0
   -0.1236   33.4583  -19.4662 C   0  0  0  0  0  0  0  0  0  0  0  0
    0.0307   33.9416  -20.9175 C   0  0  0  0  0  0  0  0  0  0  0  0
    1.1772   34.2990  -21.3295 O   0  0  0  0  0  0  0  0  0  0  0  0
   -0.9712   33.9832  -21.6913 O   0  0  0  0  0  0  0  0  0  0  0  0
   -1.8145   33.7179  -21.3806 H   0  0  0  0  0  0  0  0  0  0  0  0
   -4.9509   32.4016  -18.6897 C   0  0  0  0  0  0  0  0  0  0  0  0
   -5.5505   32.3686  -16.9721 S   0  0  0  0  0  0  0  0  0  0  0  0
   -5.6719   31.0785  -16.5589 H   0  0  0  0  0  0  0  0  0  0  0  0
  7  8  1  0  0  0
  8 11  1  0  0  0
  8  6  1  0  0  0
 11 12  2  0  0  0
 11 13  1  0  0  0
  6  5  1  0  0  0
  5  1  1  0  0  0
  1  2  2  0  0  0
  1  3  1  0  0  0
  3 15  1  0  0  0
 15 16  1  0  0  0
 15 25  1  0  0  0
 16 17  2  0  0  0
 16 18  1  0  0  0
 25 26  1  0  0  0
 18 20  1  0  0  0
 20 21  1  0  0  0
 21 22  2  0  0  0
 21 23  1  0  0  0
  7  9  1  0  0  0
  7 10  1  0  0  0
 13 14  1  0  0  0
  3  4  1  0  0  0
 26 27  1  0  0  0
 18 19  1  0  0  0
 23 24  1  0  0  0
M  END
> <minimizedAffinity>
-6.34060

$$$$
3LVW_GSH_A_693


 27 26  0  0  0  0  0  0  0  0999 V2000
   -4.0039   31.1003  -19.0837 C   0  0  0  0  0  0  0  0  0  0  0  0
   -3.8779   30.5109  -20.1546 O   0  0  0  0  0  0  0  0  0  0  0  0
   -3.0353   31.7838  -18.4947 N   0  0  0  0  0  0  0  0  0  0  0  0
   -3.2312   32.2399  -17.6445 H   0  0  0  0  0  0  0  0  0  0  0  0
   -5.3108   31.0988  -18.3010 C   0  0  0  0  0  0  0  0  0  0  0  0
   -5.2404   30.0571  -17.1863 C   0  0  0  0  0  0  0  0  0  0  0  0
   -6.5305   27.9406  -16.8776 N   0  0  0  0  0  0  0  0  0  0  0  0
   -5.4294   28.5952  -17.6037 C   0  0  0  0  0  0  0  0  0  0  0  0
   -6.6158   26.9732  -17.1895 H   0  0  0  0  0  0  0  0  0  0  0  0
   -7.4025   28.4360  -17.0638 H   0  0  0  0  0  0  0  0  0  0  0  0
   -4.0729   27.9165  -17.3939 C   0  0  0  0  0  0  0  0  0  0  0  0
   -3.9906   27.2052  -16.3343 O   0  0  0  0  0  0  0  0  0  0  0  0
   -3.0901   28.0797  -18.2288 O   0  0  0  0  0  0  0  0  0  0  0  0
   -3.2062   28.6127  -18.9907 H   0  0  0  0  0  0  0  0  0  0  0  0
   -1.7079   31.8899  -19.0425 C   0  0  0  0  0  0  0  0  0  0  0  0
   -0.7262   31.2920  -18.0809 C   0  0  0  0  0  0  0  0  0  0  0  0
    0.0373   32.0465  -17.5283 O   0  0  0  0  0  0  0  0  0  0  0  0
   -0.6995   29.9725  -17.8954 N   0  0  0  0  0  0  0  0  0  0  0  0
   -1.3267   29.4400  -18.4361 H   0  0  0  0  0  0  0  0  0  0  0  0
    0.1605   29.2312  -16.9759 C   0  0  0  0  0  0  0  0  0  0  0  0
   -0.7549   28.7675  -15.8311 C   0  0  0  0  0  0  0  0  0  0  0  0
   -1.1856   29.6255  -15.0003 O   0  0  0  0  0  0  0  0  0  0  0  0
   -1.0749   27.5473  -15.7178 O   0  0  0  0  0  0  0  0  0  0  0  0
   -0.7535   26.9194  -16.3346 H   0  0  0  0  0  0  0  0  0  0  0  0
   -1.4560   33.3840  -19.3079 C   0  0  0  0  0  0  0  0  0  0  0  0
   -0.3113   33.7401  -20.6767 S   0  0  0  0  0  0  0  0  0  0  0  0
    0.9173   33.2361  -20.3829 H   0  0  0  0  0  0  0  0  0  0  0  0
  7  8  1  0  0  0
  8 11  1  0  0  0
  8  6  1  0  0  0
 11 12  2  0  0  0
 11 13  1  0  0  0
  6  5  1  0  0  0
  5  1  1  0  0  0
  1  2  2  0  0  0
  1  3  1  0  0  0
  3 15  1  0  0  0
 15 16  1  0  0  0
 15 25  1  0  0  0
 16 17  2  0  0  0
 16 18  1  0  0  0
 25 26  1  0  0  0
 18 20  1  0  0  0
 20 21  1  0  0  0
 21 22  2  0  0  0
 21 23  1  0  0  0
  7  9  1  0  0  0
  7 10  1  0  0  0
 13 14  1  0  0  0
  3  4  1  0  0  0
 26 27  1  0  0  0
 18 19  1  0  0  0
 23 24  1  0  0  0
M  END
> <minimizedAffinity>
-6.22920

$$$$
3LVW_GSH_A_693


 27 26  0  0  0  0  0  0  0  0999 V2000
   -1.8978   31.1275  -18.2135 C   0  0  0  0  0  0  0  0  0  0  0  0
   -2.6477   30.8576  -19.1488 O   0  0  0  0  0  0  0  0  0  0  0  0
   -2.1263   30.7826  -16.9560 N   0  0  0  0  0  0  0  0  0  0  0  0
   -1.4607   31.0268  -16.2729 H   0  0  0  0  0  0  0  0  0  0  0  0
   -0.6054   31.9110  -18.4046 C   0  0  0  0  0  0  0  0  0  0  0  0
   -0.6062   32.5751  -19.7799 C   0  0  0  0  0  0  0  0  0  0  0  0
   -1.4142   34.8617  -19.1818 N   0  0  0  0  0  0  0  0  0  0  0  0
   -0.3350   34.0825  -19.8115 C   0  0  0  0  0  0  0  0  0  0  0  0
   -1.1876   35.8552  -19.2280 H   0  0  0  0  0  0  0  0  0  0  0  0
   -1.5121   34.5803  -18.2063 H   0  0  0  0  0  0  0  0  0  0  0  0
   -0.1037   34.4401  -21.2824 C   0  0  0  0  0  0  0  0  0  0  0  0
   -0.9087   33.8770  -22.1011 O   0  0  0  0  0  0  0  0  0  0  0  0
    0.8533   35.2394  -21.6495 O   0  0  0  0  0  0  0  0  0  0  0  0
    1.4145   35.6250  -21.0058 H   0  0  0  0  0  0  0  0  0  0  0  0
   -3.3051   30.0663  -16.5432 C   0  0  0  0  0  0  0  0  0  0  0  0
   -4.4025   31.0446  -16.2523 C   0  0  0  0  0  0  0  0  0  0  0  0
   -4.6272   31.2960  -15.0930 O   0  0  0  0  0  0  0  0  0  0  0  0
   -5.1069   31.5682  -17.2552 N   0  0  0  0  0  0  0  0  0  0  0  0
   -4.8811   31.2554  -18.1610 H   0  0  0  0  0  0  0  0  0  0  0  0
   -6.1782   32.5566  -17.1550 C   0  0  0  0  0  0  0  0  0  0  0  0
   -6.8020   32.6388  -18.5577 C   0  0  0  0  0  0  0  0  0  0  0  0
   -8.0663   32.6190  -18.6722 O   0  0  0  0  0  0  0  0  0  0  0  0
   -6.0657   32.7247  -19.5848 O   0  0  0  0  0  0  0  0  0  0  0  0
   -5.1333   32.7388  -19.4929 H   0  0  0  0  0  0  0  0  0  0  0  0
   -2.9070   29.2270  -15.3171 C   0  0  0  0  0  0  0  0  0  0  0  0
   -1.2127   28.5649  -15.3551 S   0  0  0  0  0  0  0  0  0  0  0  0
   -1.0828   27.7119  -16.4064 H   0  0  0  0  0  0  0  0  0  0  0  0
  7  8  1  0  0  0
  8 11  1  0  0  0
  8  6  1  0  0  0
 11 12  2  0  0  0
 11 13  1  0  0  0
  6  5  1  0  0  0
  5  1  1  0  0  0
  1  2  2  0  0  0
  1  3  1  0  0  0
  3 15  1  0  0  0
 15 16  1  0  0  0
 15 25  1  0  0  0
 16 17  2  0  0  0
 16 18  1  0  0  0
 25 26  1  0  0  0
 18 20  1  0  0  0
 20 21  1  0  0  0
 21 22  2  0  0  0
 21 23  1  0  0  0
  7  9  1  0  0  0
  7 10  1  0  0  0
 13 14  1  0  0  0
  3  4  1  0  0  0
 26 27  1  0  0  0
 18 19  1  0  0  0
 23 24  1  0  0  0
M  END
> <minimizedAffinity>
-6.19589

$$$$
3LVW_GSH_A_693


 27 26  0  0  0  0  0  0  0  0999 V2000
   -0.8747   31.7553  -18.3021 C   0  0  0  0  0  0  0  0  0  0  0  0
   -1.2672   31.2367  -19.3447 O   0  0  0  0  0  0  0  0  0  0  0  0
   -0.6370   31.0865  -17.1847 N   0  0  0  0  0  0  0  0  0  0  0  0
   -0.3076   31.5825  -16.4006 H   0  0  0  0  0  0  0  0  0  0  0  0
   -0.6245   33.2529  -18.1801 C   0  0  0  0  0  0  0  0  0  0  0  0
    0.3523   33.7004  -19.2655 C   0  0  0  0  0  0  0  0  0  0  0  0
   -0.7766   33.6074  -21.4918 N   0  0  0  0  0  0  0  0  0  0  0  0
   -0.2420   34.4866  -20.4384 C   0  0  0  0  0  0  0  0  0  0  0  0
   -1.1594   34.1759  -22.2472 H   0  0  0  0  0  0  0  0  0  0  0  0
   -1.5132   33.0191  -21.1022 H   0  0  0  0  0  0  0  0  0  0  0  0
    0.8690   35.4192  -20.9290 C   0  0  0  0  0  0  0  0  0  0  0  0
    1.6940   35.7881  -20.0241 O   0  0  0  0  0  0  0  0  0  0  0  0
    0.9380   35.8084  -22.1672 O   0  0  0  0  0  0  0  0  0  0  0  0
    0.3058   35.5062  -22.7893 H   0  0  0  0  0  0  0  0  0  0  0  0
   -0.8389   29.6659  -17.0652 C   0  0  0  0  0  0  0  0  0  0  0  0
   -1.4576   29.3639  -15.7341 C   0  0  0  0  0  0  0  0  0  0  0  0
   -1.6870   28.2062  -15.4799 O   0  0  0  0  0  0  0  0  0  0  0  0
   -1.7639   30.3606  -14.9040 N   0  0  0  0  0  0  0  0  0  0  0  0
   -1.5874   31.2730  -15.2290 H   0  0  0  0  0  0  0  0  0  0  0  0
   -2.3333   30.2447  -13.5635 C   0  0  0  0  0  0  0  0  0  0  0  0
   -3.8216   30.6008  -13.7107 C   0  0  0  0  0  0  0  0  0  0  0  0
   -4.6956   29.7182  -13.4479 O   0  0  0  0  0  0  0  0  0  0  0  0
   -4.1715   31.7579  -14.0890 O   0  0  0  0  0  0  0  0  0  0  0  0
   -3.5212   32.4045  -14.2813 H   0  0  0  0  0  0  0  0  0  0  0  0
    0.5376   29.0053  -17.2523 C   0  0  0  0  0  0  0  0  0  0  0  0
    1.8166   29.5457  -16.0763 S   0  0  0  0  0  0  0  0  0  0  0  0
    2.0529   30.8747  -16.2426 H   0  0  0  0  0  0  0  0  0  0  0  0
  7  8  1  0  0  0
  8 11  1  0  0  0
  8  6  1  0  0  0
 11 12  2  0  0  0
 11 13  1  0  0  0
  6  5  1  0  0  0
  5  1  1  0  0  0
  1  2  2  0  0  0
  1  3  1  0  0  0
  3 15  1  0  0  0
 15 16  1  0  0  0
 15 25  1  0  0  0
 16 17  2  0  0  0
 16 18  1  0  0  0
 25 26  1  0  0  0
 18 20  1  0  0  0
 20 21  1  0  0  0
 21 22  2  0  0  0
 21 23  1  0  0  0
  7  9  1  0  0  0
  7 10  1  0  0  0
 13 14  1  0  0  0
  3  4  1  0  0  0
 26 27  1  0  0  0
 18 19  1  0  0  0
 23 24  1  0  0  0
M  END
> <minimizedAffinity>
-6.19008

$$$$
