4RSK_U3P_A_125
  RCSB PDB12061714413D
Coordinates from PDB:4RSK:A:125 Model:1 without hydrogens
 21 22  0  0  0  0            999 V2000
  -17.4780   40.5510   26.9940   N 0  0  0  0  0  0  0  0  0  0  0  0
  -16.4660   39.6670   27.3050   C 0  0  0  0  0  0  0  0  0  0  0  0
  -16.4880   38.4790   26.6180   N 0  0  0  0  0  0  0  0  0  0  0  0
  -17.3880   38.1090   25.6330   C 0  0  0  0  0  0  0  0  0  0  0  0
  -18.4280   39.0830   25.3800   C 0  0  0  0  0  0  0  0  0  0  0  0
  -18.4400   40.2460   26.0590   C 0  0  0  0  0  0  0  0  0  0  0  0
  -15.6160   39.8940   28.1380   O 0  0  0  0  0  0  0  0  0  0  0  0
  -17.2600   37.0220   25.0570   O 0  0  0  0  0  0  0  0  0  0  0  0
  -15.8830   45.6620   25.8820   P 0  0  0  0  0  0  0  0  0  0  0  0
  -15.6570   44.9480   24.6010   O 0  0  0  0  0  0  0  0  0  0  0  0
  -14.8210   45.2800   26.8370   O 0  0  0  0  0  0  0  0  0  0  0  0
  -16.0660   47.1290   25.7420   O 0  0  0  0  0  0  0  0  0  0  0  0
  -21.4530   43.4440   26.6720   O 0  0  0  0  0  0  0  0  0  0  0  0
  -20.1820   43.7310   26.0890   C 0  0  0  0  0  0  0  0  0  0  0  0
  -19.0130   43.5950   27.0750   C 0  0  0  0  0  0  0  0  0  0  0  0
  -18.9560   42.2550   27.6550   O 0  0  0  0  0  0  0  0  0  0  0  0
  -17.6480   43.7800   26.4070   C 0  0  0  0  0  0  0  0  0  0  0  0
  -17.2880   45.1610   26.4590   O 0  0  0  0  0  0  0  0  0  0  0  0
  -16.6950   42.9200   27.2490   C 0  0  0  0  0  0  0  0  0  0  0  0
  -16.2110   43.5960   28.4060   O 0  0  0  0  0  0  0  0  0  0  0  0
  -17.6080   41.8070   27.7310   C 0  0  0  0  0  0  0  0  0  0  0  0
  1  2  1  0  0  0  0
  1  6  1  0  0  0  0
  1 21  1  0  0  0  0
  2  3  1  0  0  0  0
  2  7  2  0  0  0  0
  3  4  1  0  0  0  0
  4  5  1  0  0  0  0
  4  8  2  0  0  0  0
  5  6  2  0  0  0  0
  9 10  1  0  0  0  0
  9 11  2  0  0  0  0
  9 12  1  0  0  0  0
  9 18  1  0  0  0  0
 13 14  1  0  0  0  0
 14 15  1  0  0  0  0
 15 16  1  0  0  0  0
 15 17  1  0  0  0  0
 16 21  1  0  0  0  0
 17 18  1  0  0  0  0
 17 19  1  0  0  0  0
 19 20  1  0  0  0  0
 19 21  1  0  0  0  0
A    1
N1
A    2
C2
A    3
N3
A    4
C4
A    5
C5
A    6
C6
A    7
O2
A    8
O4
A    9
P
A   10
O1P
A   11
O2P
A   12
O3P
A   13
O5'
A   14
C5'
A   15
C4'
A   16
O4'
A   17
C3'
A   18
O3'
A   19
C2'
A   20
O2'
A   21
C1'
M  END
>  <InstanceId>
4RSK_U3P_A_125

>  <ChemCompId>
U3P

>  <PdbId>
4RSK

>  <ChainId>
A

>  <ResidueNumber>
125

>  <InsertionCode>


>  <Model>
1

>  <AltIds>


>  <MissingHeavyAtoms>
0

>  <ObservedFormula>
C9 N2 O9 P

>  <Name>
3'-URIDINEMONOPHOSPHATE

>  <SystematicName>
[(2R,3S,4R,5R)-5-(2,4-dioxopyrimidin-1-yl)-4-hydroxy-2-(hydroxymethyl)oxolan-3-yl] dihydrogen phosphate

>  <Synonyms>


>  <Type>
NON-POLYMER

>  <Formula>
C9 H13 N2 O9 P

>  <MolecularWeight>
324.181

>  <ModifiedDate>
2011-06-04

>  <Parent>


>  <OneLetterCode>


>  <SubcomponentList>


>  <AmbiguousFlag>
N

>  <InChI>
InChI=1S/C9H13N2O9P/c12-3-4-7(20-21(16,17)18)6(14)8(19-4)11-2-1-5(13)10-9(11)15/h1-2,4,6-8,12,14H,3H2,(H,10,13,15)(H2,16,17,18)/t4-,6-,7-,8-/m1/s1

>  <InChIKey>
FOGRQMPFHUHIGU-XVFCMESISA-N

>  <SMILES>
C1=CN(C(=O)NC1=O)[C@H]2[C@@H]([C@@H]([C@H](O2)CO)OP(=O)(O)O)O

$$$$
