2V00_V15_A_1336


 19 20  0  0  0  0  0  0  0  0999 V2000
    0.1336    6.3268    9.1535 N   0  0  0  0  0  0  0  0  0  0  0  0
    0.9302    5.2790    9.5351 C   0  0  0  0  0  0  0  0  0  0  0  0
   -1.2040    6.2705    9.4109 C   0  0  0  0  0  0  0  0  0  0  0  0
   -1.7496    5.1185   10.0324 C   0  0  0  0  0  0  0  0  0  0  0  0
   -0.9003    4.0933   10.3754 C   0  0  0  0  0  0  0  0  0  0  0  0
    0.4133    4.2270   10.1298 N   0  0  0  0  0  0  0  0  0  0  0  0
    2.2939    5.3299    9.3465 N   0  0  0  0  0  0  0  0  0  0  0  0
   -1.9293    7.2071    9.1011 O   0  0  0  0  0  0  0  0  0  0  0  0
    0.5220    7.1095    8.6998 H   0  0  0  0  0  0  0  0  0  0  0  0
    2.7008    6.1091    8.9031 H   0  0  0  0  0  0  0  0  0  0  0  0
    2.8616    4.5872    9.6551 H   0  0  0  0  0  0  0  0  0  0  0  0
   -1.3440    2.8144   11.0418 C   0  0  0  0  0  0  0  0  0  0  0  0
   -2.7242    2.7845   11.7197 C   0  0  0  0  0  0  0  0  0  0  0  0
   -4.8761    1.6385   11.0160 C   0  0  0  0  0  0  0  0  0  0  0  0
   -5.5742    0.4992   10.6488 C   0  0  0  0  0  0  0  0  0  0  0  0
   -4.9021   -0.7161   10.5477 C   0  0  0  0  0  0  0  0  0  0  0  0
   -3.5423   -0.7909   10.8216 C   0  0  0  0  0  0  0  0  0  0  0  0
   -2.8456    0.3526   11.1946 C   0  0  0  0  0  0  0  0  0  0  0  0
   -3.5137    1.5691   11.3053 C   0  0  0  0  0  0  0  0  0  0  0  0
  1  2  1  0  0  0
  1  3  1  0  0  0
  2  6  2  0  0  0
  2  7  1  0  0  0
  3  4  1  0  0  0
  3  8  2  0  0  0
  4  5  2  0  0  0
  5  6  1  0  0  0
  5 12  1  0  0  0
 14 15  1  0  0  0
 14 19  2  0  0  0
 15 16  2  0  0  0
 16 17  1  0  0  0
 17 18  2  0  0  0
 18 19  1  0  0  0
 12 13  1  0  0  0
 19 13  1  0  0  0
  1  9  1  0  0  0
  7 10  1  0  0  0
  7 11  1  0  0  0
M  END
> <minimizedAffinity>
-8.25976

$$$$
2V00_V15_A_1336


 19 20  0  0  0  0  0  0  0  0999 V2000
    0.3723    6.4895    8.8196 N   0  0  0  0  0  0  0  0  0  0  0  0
   -0.9789    6.6377    8.6453 C   0  0  0  0  0  0  0  0  0  0  0  0
    0.8319    5.4724    9.6025 C   0  0  0  0  0  0  0  0  0  0  0  0
   -0.0928    4.6133   10.2488 C   0  0  0  0  0  0  0  0  0  0  0  0
   -1.4363    4.8248   10.0478 C   0  0  0  0  0  0  0  0  0  0  0  0
   -1.8234    5.8203    9.2335 N   0  0  0  0  0  0  0  0  0  0  0  0
   -1.4752    7.6158    7.8116 N   0  0  0  0  0  0  0  0  0  0  0  0
    2.0361    5.3069    9.7506 O   0  0  0  0  0  0  0  0  0  0  0  0
    1.0024    7.1089    8.3853 H   0  0  0  0  0  0  0  0  0  0  0  0
   -0.8593    8.2381    7.3615 H   0  0  0  0  0  0  0  0  0  0  0  0
   -2.4459    7.6924    7.6660 H   0  0  0  0  0  0  0  0  0  0  0  0
   -2.5267    3.9880   10.6700 C   0  0  0  0  0  0  0  0  0  0  0  0
   -2.1227    2.7336   11.4628 C   0  0  0  0  0  0  0  0  0  0  0  0
   -4.4282    1.7956   10.9685 C   0  0  0  0  0  0  0  0  0  0  0  0
   -5.2721    0.7202   10.7421 C   0  0  0  0  0  0  0  0  0  0  0  0
   -4.7508   -0.5709   10.7251 C   0  0  0  0  0  0  0  0  0  0  0  0
   -3.3954   -0.7834   10.9427 C   0  0  0  0  0  0  0  0  0  0  0  0
   -2.5521    0.2969   11.1745 C   0  0  0  0  0  0  0  0  0  0  0  0
   -3.0687    1.5896   11.2008 C   0  0  0  0  0  0  0  0  0  0  0  0
  1  2  1  0  0  0
  1  3  1  0  0  0
  2  6  2  0  0  0
  2  7  1  0  0  0
  3  4  1  0  0  0
  3  8  2  0  0  0
  4  5  2  0  0  0
  5  6  1  0  0  0
  5 12  1  0  0  0
 14 15  1  0  0  0
 14 19  2  0  0  0
 15 16  2  0  0  0
 16 17  1  0  0  0
 17 18  2  0  0  0
 18 19  1  0  0  0
 12 13  1  0  0  0
 19 13  1  0  0  0
  1  9  1  0  0  0
  7 10  1  0  0  0
  7 11  1  0  0  0
M  END
> <minimizedAffinity>
-7.48002

$$$$
2V00_V15_A_1336


 19 20  0  0  0  0  0  0  0  0999 V2000
   -0.1782    6.0774    8.9449 N   0  0  0  0  0  0  0  0  0  0  0  0
    0.7137    5.1538    9.4240 C   0  0  0  0  0  0  0  0  0  0  0  0
   -1.4978    5.9521    9.2640 C   0  0  0  0  0  0  0  0  0  0  0  0
   -1.9266    4.8534   10.0513 C   0  0  0  0  0  0  0  0  0  0  0  0
   -0.9853    3.9511   10.4871 C   0  0  0  0  0  0  0  0  0  0  0  0
    0.3043    4.1526   10.1707 N   0  0  0  0  0  0  0  0  0  0  0  0
    2.0618    5.2848    9.1727 N   0  0  0  0  0  0  0  0  0  0  0  0
   -2.3073    6.7809    8.8674 O   0  0  0  0  0  0  0  0  0  0  0  0
    0.1297    6.8211    8.3781 H   0  0  0  0  0  0  0  0  0  0  0  0
    2.3887    6.0279    8.6157 H   0  0  0  0  0  0  0  0  0  0  0  0
    2.6983    4.6353    9.5500 H   0  0  0  0  0  0  0  0  0  0  0  0
   -1.3008    2.7408   11.3309 C   0  0  0  0  0  0  0  0  0  0  0  0
   -2.7747    2.4309   11.6419 C   0  0  0  0  0  0  0  0  0  0  0  0
   -2.7563    0.9136    9.6081 C   0  0  0  0  0  0  0  0  0  0  0  0
   -3.4069    0.3155    8.5408 C   0  0  0  0  0  0  0  0  0  0  0  0
   -4.7683    0.5396    8.3526 C   0  0  0  0  0  0  0  0  0  0  0  0
   -5.4705    1.3645    9.2221 C   0  0  0  0  0  0  0  0  0  0  0  0
   -4.8141    1.9671   10.2889 C   0  0  0  0  0  0  0  0  0  0  0  0
   -3.4514    1.7534   10.4776 C   0  0  0  0  0  0  0  0  0  0  0  0
  1  2  1  0  0  0
  1  3  1  0  0  0
  2  6  2  0  0  0
  2  7  1  0  0  0
  3  4  1  0  0  0
  3  8  2  0  0  0
  4  5  2  0  0  0
  5  6  1  0  0  0
  5 12  1  0  0  0
 14 15  1  0  0  0
 14 19  2  0  0  0
 15 16  2  0  0  0
 16 17  1  0  0  0
 17 18  2  0  0  0
 18 19  1  0  0  0
 12 13  1  0  0  0
 19 13  1  0  0  0
  1  9  1  0  0  0
  7 10  1  0  0  0
  7 11  1  0  0  0
M  END
> <minimizedAffinity>
-7.22330

$$$$
2V00_V15_A_1336


 19 20  0  0  0  0  0  0  0  0999 V2000
   -0.4647    8.8402    7.5929 N   0  0  0  0  0  0  0  0  0  0  0  0
    0.7188    8.5856    8.2353 C   0  0  0  0  0  0  0  0  0  0  0  0
   -1.5681    8.1102    7.9224 C   0  0  0  0  0  0  0  0  0  0  0  0
   -1.4629    7.0811    8.8924 C   0  0  0  0  0  0  0  0  0  0  0  0
   -0.2434    6.8632    9.4884 C   0  0  0  0  0  0  0  0  0  0  0  0
    0.7959    7.6429    9.1478 N   0  0  0  0  0  0  0  0  0  0  0  0
    1.8373    9.3454    7.9716 N   0  0  0  0  0  0  0  0  0  0  0  0
   -2.6411    8.3391    7.3787 O   0  0  0  0  0  0  0  0  0  0  0  0
   -0.5175    9.5407    6.9031 H   0  0  0  0  0  0  0  0  0  0  0  0
    1.8003   10.0565    7.2917 H   0  0  0  0  0  0  0  0  0  0  0  0
    2.6736    9.1772    8.4630 H   0  0  0  0  0  0  0  0  0  0  0  0
    0.0099    5.8059   10.5347 C   0  0  0  0  0  0  0  0  0  0  0  0
    0.0719    4.3357   10.0876 C   0  0  0  0  0  0  0  0  0  0  0  0
   -0.8120    2.4642   11.5559 C   0  0  0  0  0  0  0  0  0  0  0  0
   -1.8678    1.7377   12.0826 C   0  0  0  0  0  0  0  0  0  0  0  0
   -3.1751    2.0924   11.7599 C   0  0  0  0  0  0  0  0  0  0  0  0
   -3.4221    3.1615   10.9079 C   0  0  0  0  0  0  0  0  0  0  0  0
   -2.3608    3.8853   10.3771 C   0  0  0  0  0  0  0  0  0  0  0  0
   -1.0513    3.5304   10.6896 C   0  0  0  0  0  0  0  0  0  0  0  0
  1  2  1  0  0  0
  1  3  1  0  0  0
  2  6  2  0  0  0
  2  7  1  0  0  0
  3  4  1  0  0  0
  3  8  2  0  0  0
  4  5  2  0  0  0
  5  6  1  0  0  0
  5 12  1  0  0  0
 14 15  1  0  0  0
 14 19  2  0  0  0
 15 16  2  0  0  0
 16 17  1  0  0  0
 17 18  2  0  0  0
 18 19  1  0  0  0
 12 13  1  0  0  0
 19 13  1  0  0  0
  1  9  1  0  0  0
  7 10  1  0  0  0
  7 11  1  0  0  0
M  END
> <minimizedAffinity>
-7.18335

$$$$
2V00_V15_A_1336


 19 20  0  0  0  0  0  0  0  0999 V2000
   -5.4641    0.7217   10.0812 N   0  0  0  0  0  0  0  0  0  0  0  0
   -5.4871    1.7483   10.9888 C   0  0  0  0  0  0  0  0  0  0  0  0
   -4.2641    0.1903    9.7119 C   0  0  0  0  0  0  0  0  0  0  0  0
   -3.0656    0.7311   10.2429 C   0  0  0  0  0  0  0  0  0  0  0  0
   -3.1546    1.7723   11.1362 C   0  0  0  0  0  0  0  0  0  0  0  0
   -4.3690    2.2249   11.4889 N   0  0  0  0  0  0  0  0  0  0  0  0
   -6.6845    2.2668   11.4307 N   0  0  0  0  0  0  0  0  0  0  0  0
   -4.2230   -0.7443    8.9218 O   0  0  0  0  0  0  0  0  0  0  0  0
   -6.3026    0.3728    9.7011 H   0  0  0  0  0  0  0  0  0  0  0  0
   -7.5331    1.9235   11.0686 H   0  0  0  0  0  0  0  0  0  0  0  0
   -6.6915    2.9807   12.1086 H   0  0  0  0  0  0  0  0  0  0  0  0
   -1.9637    2.4400   11.7785 C   0  0  0  0  0  0  0  0  0  0  0  0
   -0.7566    2.7906   10.8923 C   0  0  0  0  0  0  0  0  0  0  0  0
   -2.0682    4.7546    9.9637 C   0  0  0  0  0  0  0  0  0  0  0  0
   -2.1196    6.0492    9.4724 C   0  0  0  0  0  0  0  0  0  0  0  0
   -0.9519    6.8043    9.4010 C   0  0  0  0  0  0  0  0  0  0  0  0
    0.2601    6.2627    9.8103 C   0  0  0  0  0  0  0  0  0  0  0  0
    0.3095    4.9621   10.2981 C   0  0  0  0  0  0  0  0  0  0  0  0
   -0.8534    4.1993   10.3643 C   0  0  0  0  0  0  0  0  0  0  0  0
  1  2  1  0  0  0
  1  3  1  0  0  0
  2  6  2  0  0  0
  2  7  1  0  0  0
  3  4  1  0  0  0
  3  8  2  0  0  0
  4  5  2  0  0  0
  5  6  1  0  0  0
  5 12  1  0  0  0
 14 15  1  0  0  0
 14 19  2  0  0  0
 15 16  2  0  0  0
 16 17  1  0  0  0
 17 18  2  0  0  0
 18 19  1  0  0  0
 12 13  1  0  0  0
 19 13  1  0  0  0
  1  9  1  0  0  0
  7 10  1  0  0  0
  7 11  1  0  0  0
M  END
> <minimizedAffinity>
-7.11679

$$$$
2V00_V15_A_1336


 19 20  0  0  0  0  0  0  0  0999 V2000
   -1.4827    5.5485    7.9965 N   0  0  0  0  0  0  0  0  0  0  0  0
   -2.6345    4.8299    8.1841 C   0  0  0  0  0  0  0  0  0  0  0  0
   -0.4918    5.4675    8.9294 C   0  0  0  0  0  0  0  0  0  0  0  0
   -0.6846    4.6743   10.0889 C   0  0  0  0  0  0  0  0  0  0  0  0
   -1.8696    3.9911   10.2272 C   0  0  0  0  0  0  0  0  0  0  0  0
   -2.7903    4.0819    9.2535 N   0  0  0  0  0  0  0  0  0  0  0  0
   -3.6301    4.8398    7.2319 N   0  0  0  0  0  0  0  0  0  0  0  0
    0.5554    6.0815    8.7682 O   0  0  0  0  0  0  0  0  0  0  0  0
   -1.3724    6.1153    7.1992 H   0  0  0  0  0  0  0  0  0  0  0  0
   -3.5327    5.3934    6.4236 H   0  0  0  0  0  0  0  0  0  0  0  0
   -4.4389    4.2933    7.3597 H   0  0  0  0  0  0  0  0  0  0  0  0
   -2.2062    3.1114   11.4059 C   0  0  0  0  0  0  0  0  0  0  0  0
   -2.1652    1.5860   11.2144 C   0  0  0  0  0  0  0  0  0  0  0  0
   -4.6937    1.8003   11.2255 C   0  0  0  0  0  0  0  0  0  0  0  0
   -5.9546    1.2368   11.1137 C   0  0  0  0  0  0  0  0  0  0  0  0
   -6.0781   -0.1227   10.8389 C   0  0  0  0  0  0  0  0  0  0  0  0
   -4.9462   -0.9135   10.6867 C   0  0  0  0  0  0  0  0  0  0  0  0
   -3.6826   -0.3464   10.8045 C   0  0  0  0  0  0  0  0  0  0  0  0
   -3.5527    1.0106   11.0871 C   0  0  0  0  0  0  0  0  0  0  0  0
  1  2  1  0  0  0
  1  3  1  0  0  0
  2  6  2  0  0  0
  2  7  1  0  0  0
  3  4  1  0  0  0
  3  8  2  0  0  0
  4  5  2  0  0  0
  5  6  1  0  0  0
  5 12  1  0  0  0
 14 15  1  0  0  0
 14 19  2  0  0  0
 15 16  2  0  0  0
 16 17  1  0  0  0
 17 18  2  0  0  0
 18 19  1  0  0  0
 12 13  1  0  0  0
 19 13  1  0  0  0
  1  9  1  0  0  0
  7 10  1  0  0  0
  7 11  1  0  0  0
M  END
> <minimizedAffinity>
-6.93554

$$$$
2V00_V15_A_1336


 19 20  0  0  0  0  0  0  0  0999 V2000
    0.5171    9.2782    7.9562 N   0  0  0  0  0  0  0  0  0  0  0  0
   -0.4997    8.3604    7.9129 C   0  0  0  0  0  0  0  0  0  0  0  0
    1.5157    9.1184    8.8706 C   0  0  0  0  0  0  0  0  0  0  0  0
    1.4652    8.0315    9.7800 C   0  0  0  0  0  0  0  0  0  0  0  0
    0.4095    7.1548    9.6969 C   0  0  0  0  0  0  0  0  0  0  0  0
   -0.5217    7.3458    8.7481 N   0  0  0  0  0  0  0  0  0  0  0  0
   -1.4913    8.4568    6.9614 N   0  0  0  0  0  0  0  0  0  0  0  0
    2.4466    9.9130    8.9089 O   0  0  0  0  0  0  0  0  0  0  0  0
    0.5263   10.0424    7.3356 H   0  0  0  0  0  0  0  0  0  0  0  0
   -1.4928    9.2092    6.3265 H   0  0  0  0  0  0  0  0  0  0  0  0
   -2.1985    7.7734    6.9165 H   0  0  0  0  0  0  0  0  0  0  0  0
    0.2315    5.9575   10.5976 C   0  0  0  0  0  0  0  0  0  0  0  0
    0.1358    4.5650    9.9516 C   0  0  0  0  0  0  0  0  0  0  0  0
   -0.6307    2.6329   11.4072 C   0  0  0  0  0  0  0  0  0  0  0  0
   -1.6423    1.8798   11.9813 C   0  0  0  0  0  0  0  0  0  0  0  0
   -2.9710    2.2378   11.7689 C   0  0  0  0  0  0  0  0  0  0  0  0
   -3.2841    3.3370   10.9793 C   0  0  0  0  0  0  0  0  0  0  0  0
   -2.2674    4.0876   10.4006 C   0  0  0  0  0  0  0  0  0  0  0  0
   -0.9371    3.7299   10.6026 C   0  0  0  0  0  0  0  0  0  0  0  0
  1  2  1  0  0  0
  1  3  1  0  0  0
  2  6  2  0  0  0
  2  7  1  0  0  0
  3  4  1  0  0  0
  3  8  2  0  0  0
  4  5  2  0  0  0
  5  6  1  0  0  0
  5 12  1  0  0  0
 14 15  1  0  0  0
 14 19  2  0  0  0
 15 16  2  0  0  0
 16 17  1  0  0  0
 17 18  2  0  0  0
 18 19  1  0  0  0
 12 13  1  0  0  0
 19 13  1  0  0  0
  1  9  1  0  0  0
  7 10  1  0  0  0
  7 11  1  0  0  0
M  END
> <minimizedAffinity>
-6.91289

$$$$
2V00_V15_A_1336


 19 20  0  0  0  0  0  0  0  0999 V2000
   -5.5064   -0.4996    8.4697 N   0  0  0  0  0  0  0  0  0  0  0  0
   -5.5099   -0.8235    9.8013 C   0  0  0  0  0  0  0  0  0  0  0  0
   -4.4205    0.1364    7.9452 C   0  0  0  0  0  0  0  0  0  0  0  0
   -3.3356    0.4823    8.7904 C   0  0  0  0  0  0  0  0  0  0  0  0
   -3.4070    0.1451   10.1212 C   0  0  0  0  0  0  0  0  0  0  0  0
   -4.4877   -0.5156   10.5679 N   0  0  0  0  0  0  0  0  0  0  0  0
   -6.5634   -1.5210   10.3504 N   0  0  0  0  0  0  0  0  0  0  0  0
   -4.3864    0.4119    6.7525 O   0  0  0  0  0  0  0  0  0  0  0  0
   -6.2773   -0.7230    7.8997 H   0  0  0  0  0  0  0  0  0  0  0  0
   -7.3386   -1.7612    9.7931 H   0  0  0  0  0  0  0  0  0  0  0  0
   -6.5411   -1.7791   11.3002 H   0  0  0  0  0  0  0  0  0  0  0  0
   -2.3271    0.4495   11.1301 C   0  0  0  0  0  0  0  0  0  0  0  0
   -2.4356    1.7479   11.9472 C   0  0  0  0  0  0  0  0  0  0  0  0
   -2.7954    3.8915   10.6378 C   0  0  0  0  0  0  0  0  0  0  0  0
   -2.2979    4.9632    9.9139 C   0  0  0  0  0  0  0  0  0  0  0  0
   -0.9232    5.0920    9.7335 C   0  0  0  0  0  0  0  0  0  0  0  0
   -0.0540    4.1486   10.2668 C   0  0  0  0  0  0  0  0  0  0  0  0
   -0.5563    3.0720   10.9882 C   0  0  0  0  0  0  0  0  0  0  0  0
   -1.9303    2.9333   11.1651 C   0  0  0  0  0  0  0  0  0  0  0  0
  1  2  1  0  0  0
  1  3  1  0  0  0
  2  6  2  0  0  0
  2  7  1  0  0  0
  3  4  1  0  0  0
  3  8  2  0  0  0
  4  5  2  0  0  0
  5  6  1  0  0  0
  5 12  1  0  0  0
 14 15  1  0  0  0
 14 19  2  0  0  0
 15 16  2  0  0  0
 16 17  1  0  0  0
 17 18  2  0  0  0
 18 19  1  0  0  0
 12 13  1  0  0  0
 19 13  1  0  0  0
  1  9  1  0  0  0
  7 10  1  0  0  0
  7 11  1  0  0  0
M  END
> <minimizedAffinity>
-6.83049

$$$$
2V00_V15_A_1336


 19 20  0  0  0  0  0  0  0  0999 V2000
   -1.7102    2.6827   10.6422 N   0  0  0  0  0  0  0  0  0  0  0  0
   -1.2977    1.4472   10.2161 C   0  0  0  0  0  0  0  0  0  0  0  0
   -2.9802    2.8307   11.1154 C   0  0  0  0  0  0  0  0  0  0  0  0
   -3.8586    1.7175   11.1236 C   0  0  0  0  0  0  0  0  0  0  0  0
   -3.3902    0.5084   10.6667 C   0  0  0  0  0  0  0  0  0  0  0  0
   -2.1165    0.4196   10.2499 N   0  0  0  0  0  0  0  0  0  0  0  0
   -0.0027    1.2485    9.7904 N   0  0  0  0  0  0  0  0  0  0  0  0
   -3.3603    3.9204   11.5247 O   0  0  0  0  0  0  0  0  0  0  0  0
   -1.0978    3.4528   10.6071 H   0  0  0  0  0  0  0  0  0  0  0  0
    0.6263    2.0052    9.7578 H   0  0  0  0  0  0  0  0  0  0  0  0
    0.2939    0.3499    9.5188 H   0  0  0  0  0  0  0  0  0  0  0  0
   -4.2136   -0.7551   10.6210 C   0  0  0  0  0  0  0  0  0  0  0  0
   -5.7275   -0.6501   10.8710 C   0  0  0  0  0  0  0  0  0  0  0  0
   -7.9078   -1.0216    9.6269 C   0  0  0  0  0  0  0  0  0  0  0  0
   -8.5992   -1.3390    8.4688 C   0  0  0  0  0  0  0  0  0  0  0  0
   -7.8943   -1.5948    7.2956 C   0  0  0  0  0  0  0  0  0  0  0  0
   -6.5062   -1.5421    7.2852 C   0  0  0  0  0  0  0  0  0  0  0  0
   -5.8150   -1.2283    8.4497 C   0  0  0  0  0  0  0  0  0  0  0  0
   -6.5139   -0.9795    9.6279 C   0  0  0  0  0  0  0  0  0  0  0  0
  1  2  1  0  0  0
  1  3  1  0  0  0
  2  6  2  0  0  0
  2  7  1  0  0  0
  3  4  1  0  0  0
  3  8  2  0  0  0
  4  5  2  0  0  0
  5  6  1  0  0  0
  5 12  1  0  0  0
 14 15  1  0  0  0
 14 19  2  0  0  0
 15 16  2  0  0  0
 16 17  1  0  0  0
 17 18  2  0  0  0
 18 19  1  0  0  0
 12 13  1  0  0  0
 19 13  1  0  0  0
  1  9  1  0  0  0
  7 10  1  0  0  0
  7 11  1  0  0  0
M  END
> <minimizedAffinity>
-6.81958

$$$$
2V00_V15_A_1336


 19 20  0  0  0  0  0  0  0  0999 V2000
   -6.4370   -0.6244    6.7462 N   0  0  0  0  0  0  0  0  0  0  0  0
   -6.9037   -1.3996    7.7755 C   0  0  0  0  0  0  0  0  0  0  0  0
   -5.3780    0.2050    6.9685 C   0  0  0  0  0  0  0  0  0  0  0  0
   -4.8050    0.2774    8.2636 C   0  0  0  0  0  0  0  0  0  0  0  0
   -5.3297   -0.5130    9.2586 C   0  0  0  0  0  0  0  0  0  0  0  0
   -6.3485   -1.3376    8.9652 N   0  0  0  0  0  0  0  0  0  0  0  0
   -7.9314   -2.2936    7.5698 N   0  0  0  0  0  0  0  0  0  0  0  0
   -4.9295    0.8870    6.0557 O   0  0  0  0  0  0  0  0  0  0  0  0
   -6.8607   -0.6658    5.8585 H   0  0  0  0  0  0  0  0  0  0  0  0
   -8.3606   -2.3554    6.6859 H   0  0  0  0  0  0  0  0  0  0  0  0
   -8.2367   -2.8707    8.3067 H   0  0  0  0  0  0  0  0  0  0  0  0
   -4.8178   -0.5377   10.6777 C   0  0  0  0  0  0  0  0  0  0  0  0
   -3.2970   -0.5666   10.9054 C   0  0  0  0  0  0  0  0  0  0  0  0
   -1.4072    1.0861   10.5359 C   0  0  0  0  0  0  0  0  0  0  0  0
   -0.9037    2.3762   10.5830 C   0  0  0  0  0  0  0  0  0  0  0  0
   -1.7233    3.4189   11.0072 C   0  0  0  0  0  0  0  0  0  0  0  0
   -3.0349    3.1691   11.3904 C   0  0  0  0  0  0  0  0  0  0  0  0
   -3.5357    1.8732   11.3469 C   0  0  0  0  0  0  0  0  0  0  0  0
   -2.7187    0.8253   10.9314 C   0  0  0  0  0  0  0  0  0  0  0  0
  1  2  1  0  0  0
  1  3  1  0  0  0
  2  6  2  0  0  0
  2  7  1  0  0  0
  3  4  1  0  0  0
  3  8  2  0  0  0
  4  5  2  0  0  0
  5  6  1  0  0  0
  5 12  1  0  0  0
 14 15  1  0  0  0
 14 19  2  0  0  0
 15 16  2  0  0  0
 16 17  1  0  0  0
 17 18  2  0  0  0
 18 19  1  0  0  0
 12 13  1  0  0  0
 19 13  1  0  0  0
  1  9  1  0  0  0
  7 10  1  0  0  0
  7 11  1  0  0  0
M  END
> <minimizedAffinity>
-6.59101

$$$$
