1U0G_E4P_A_901
  RCSB PDB12061704103D
Coordinates from PDB:1U0G:A:901 Model:1 without hydrogens
 12 11  0  0  0  0            999 V2000
    8.0180    2.4430   -0.0770   C 0  0  0  0  0  0  0  0  0  0  0  0
    9.1930    2.5960    0.7100   O 0  0  0  0  0  0  0  0  0  0  0  0
    7.3640    3.7110   -0.5170   C 0  0  0  0  0  0  0  0  0  0  0  0
    8.4140    4.4790   -1.0640   O 0  0  0  0  0  0  0  0  0  0  0  0
    6.7300    4.3930    0.6870   C 0  0  0  0  0  0  0  0  0  0  0  0
    5.6200    3.6230    1.1180   O 0  0  0  0  0  0  0  0  0  0  0  0
    6.2260    5.7940    0.3300   C 0  0  0  0  0  0  0  0  0  0  0  0
    5.2880    5.7220   -0.7420   O 0  0  0  0  0  0  0  0  0  0  0  0
    4.8490    7.0110   -1.4150   P 0  0  0  0  0  0  0  0  0  0  0  0
    4.3190    7.9470   -0.3660   O 0  0  0  0  0  0  0  0  0  0  0  0
    6.0170    7.6460   -2.1060   O 0  0  0  0  0  0  0  0  0  0  0  0
    3.7500    6.6700   -2.3850   O 0  0  0  0  0  0  0  0  0  0  0  0
  1  2  2  0  0  0  0
  1  3  1  0  0  0  0
  3  4  1  0  0  0  0
  3  5  1  0  0  0  0
  5  6  1  0  0  0  0
  5  7  1  0  0  0  0
  7  8  1  0  0  0  0
  8  9  1  0  0  0  0
  9 10  2  0  0  0  0
  9 11  1  0  0  0  0
  9 12  1  0  0  0  0
A    1
C1
A    2
O1
A    3
C2
A    4
O2
A    5
C3
A    6
O3
A    7
C4
A    8
O4
A    9
P
A   10
O1P
A   11
O2P
A   12
O3P
M  END
>  <InstanceId>
1U0G_E4P_A_901

>  <ChemCompId>
E4P

>  <PdbId>
1U0G

>  <ChainId>
A

>  <ResidueNumber>
901

>  <InsertionCode>


>  <Model>
1

>  <AltIds>


>  <MissingHeavyAtoms>
0

>  <ObservedFormula>
C4 O7 P

>  <Name>
ERYTHOSE-4-PHOSPHATE

>  <SystematicName>
[(2R,3R)-2,3-dihydroxy-4-oxo-butyl] dihydrogen phosphate

>  <Synonyms>


>  <Type>
SACCHARIDE

>  <Formula>
C4 H9 O7 P

>  <MolecularWeight>
200.084

>  <ModifiedDate>
2011-06-04

>  <Parent>


>  <OneLetterCode>


>  <SubcomponentList>


>  <AmbiguousFlag>
N

>  <InChI>
InChI=1S/C4H9O7P/c5-1-3(6)4(7)2-11-12(8,9)10/h1,3-4,6-7H,2H2,(H2,8,9,10)/t3-,4+/m0/s1

>  <InChIKey>
NGHMDNPXVRFFGS-IUYQGCFVSA-N

>  <SMILES>
C([C@H]([C@H](C=O)O)O)OP(=O)(O)O

$$$$
