5EH7_5O5_A_303


 16 17  0  0  0  0  0  0  0  0999 V2000
   15.0652    7.0940    9.3260 Cl  0  0  0  0  0  0  0  0  0  0  0  0
   15.1827    6.3179   10.8591 C   0  0  0  0  0  0  0  0  0  0  0  0
   14.4707    6.8265   11.9016 C   0  0  0  0  0  0  0  0  0  0  0  0
   13.4434    8.2223   11.7002 Cl  0  0  0  0  0  0  0  0  0  0  0  0
   14.5587    6.2134   13.1412 C   0  0  0  0  0  0  0  0  0  0  0  0
   15.3598    5.0995   13.3186 C   0  0  0  0  0  0  0  0  0  0  0  0
   16.0925    4.5958   12.2647 C   0  0  0  0  0  0  0  0  0  0  0  0
   15.9743    5.1951   11.0252 C   0  0  0  0  0  0  0  0  0  0  0  0
   16.9230    3.4870   12.5455 O   0  0  0  0  0  0  0  0  0  0  0  0
   16.3117    2.3284   13.0127 C   0  0  0  0  0  0  0  0  0  0  0  0
   16.9747    1.9195   14.2933 C   0  0  0  0  0  0  0  0  0  0  0  0
   16.9981    0.7016   14.8487 N   0  0  0  0  0  0  0  0  0  0  0  0
   17.6879    0.8171   15.9984 N   0  0  0  0  0  0  0  0  0  0  0  0
   18.0886    2.0670   16.1261 N   0  0  0  0  0  0  0  0  0  0  0  0
   17.6338    2.7685   15.0850 N   0  0  0  0  0  0  0  0  0  0  0  0
   16.5904   -0.1182   14.4868 H   0  0  0  0  0  0  0  0  0  0  0  0
  5  6  2  0  0  0
  5  3  1  0  0  0
  6  7  1  0  0  0
  4  3  1  0  0  0
  3  2  2  0  0  0
  7  9  1  0  0  0
  7  8  2  0  0  0
  9 10  1  0  0  0
  2  8  1  0  0  0
  2  1  1  0  0  0
 10 11  1  0  0  0
 11 12  1  0  0  0
 11 15  2  0  0  0
 12 13  1  0  0  0
 15 14  1  0  0  0
 13 14  2  0  0  0
 12 16  1  0  0  0
M  END
> <minimizedAffinity>
-6.77577

$$$$
5EH7_5O5_A_303


 16 17  0  0  0  0  0  0  0  0999 V2000
   14.7821    4.7179   15.9158 Cl  0  0  0  0  0  0  0  0  0  0  0  0
   15.5988    3.2332   15.6077 C   0  0  0  0  0  0  0  0  0  0  0  0
   15.6208    2.2880   16.5866 C   0  0  0  0  0  0  0  0  0  0  0  0
   14.8281    2.5529   18.1182 Cl  0  0  0  0  0  0  0  0  0  0  0  0
   16.2771    1.0901   16.3527 C   0  0  0  0  0  0  0  0  0  0  0  0
   16.9029    0.8569   15.1411 C   0  0  0  0  0  0  0  0  0  0  0  0
   16.8928    1.8226   14.1569 C   0  0  0  0  0  0  0  0  0  0  0  0
   16.2095    3.0013   14.3878 C   0  0  0  0  0  0  0  0  0  0  0  0
   17.5988    1.5221   12.9698 O   0  0  0  0  0  0  0  0  0  0  0  0
   16.8526    1.2968   11.8179 C   0  0  0  0  0  0  0  0  0  0  0  0
   16.6946    2.5960   11.0873 C   0  0  0  0  0  0  0  0  0  0  0  0
   15.6091    3.3780   11.0362 N   0  0  0  0  0  0  0  0  0  0  0  0
   15.9244    4.4214   10.2469 N   0  0  0  0  0  0  0  0  0  0  0  0
   17.1737    4.2852    9.8468 N   0  0  0  0  0  0  0  0  0  0  0  0
   17.6578    3.1441   10.3433 N   0  0  0  0  0  0  0  0  0  0  0  0
   14.7486    3.2206   11.4877 H   0  0  0  0  0  0  0  0  0  0  0  0
  5  6  2  0  0  0
  5  3  1  0  0  0
  6  7  1  0  0  0
  4  3  1  0  0  0
  3  2  2  0  0  0
  7  9  1  0  0  0
  7  8  2  0  0  0
  9 10  1  0  0  0
  2  8  1  0  0  0
  2  1  1  0  0  0
 10 11  1  0  0  0
 11 12  1  0  0  0
 11 15  2  0  0  0
 12 13  1  0  0  0
 15 14  1  0  0  0
 13 14  2  0  0  0
 12 16  1  0  0  0
M  END
> <minimizedAffinity>
-6.50734

$$$$
5EH7_5O5_A_303


 16 17  0  0  0  0  0  0  0  0999 V2000
   14.0441    4.2194   17.0385 Cl  0  0  0  0  0  0  0  0  0  0  0  0
   15.1183    3.3797   15.9861 C   0  0  0  0  0  0  0  0  0  0  0  0
   15.7370    2.2589   16.4480 C   0  0  0  0  0  0  0  0  0  0  0  0
   15.4443    1.6635   18.0617 Cl  0  0  0  0  0  0  0  0  0  0  0  0
   16.6061    1.5755   15.6124 C   0  0  0  0  0  0  0  0  0  0  0  0
   16.8435    2.0258   14.3260 C   0  0  0  0  0  0  0  0  0  0  0  0
   16.2277    3.1707   13.8661 C   0  0  0  0  0  0  0  0  0  0  0  0
   15.3390    3.8277   14.6957 C   0  0  0  0  0  0  0  0  0  0  0  0
   16.5651    3.5876   12.5583 O   0  0  0  0  0  0  0  0  0  0  0  0
   15.8376    3.0464   11.5037 C   0  0  0  0  0  0  0  0  0  0  0  0
   16.7055    2.0639   10.7769 C   0  0  0  0  0  0  0  0  0  0  0  0
   16.3244    0.9431   10.1517 N   0  0  0  0  0  0  0  0  0  0  0  0
   17.4435    0.3743    9.6670 N   0  0  0  0  0  0  0  0  0  0  0  0
   18.4725    1.1403    9.9731 N   0  0  0  0  0  0  0  0  0  0  0  0
   18.0317    2.1824   10.6819 N   0  0  0  0  0  0  0  0  0  0  0  0
   15.4052    0.6017   10.0638 H   0  0  0  0  0  0  0  0  0  0  0  0
  5  6  2  0  0  0
  5  3  1  0  0  0
  6  7  1  0  0  0
  4  3  1  0  0  0
  3  2  2  0  0  0
  7  9  1  0  0  0
  7  8  2  0  0  0
  9 10  1  0  0  0
  2  8  1  0  0  0
  2  1  1  0  0  0
 10 11  1  0  0  0
 11 12  1  0  0  0
 11 15  2  0  0  0
 12 13  1  0  0  0
 15 14  1  0  0  0
 13 14  2  0  0  0
 12 16  1  0  0  0
M  END
> <minimizedAffinity>
-6.48286

$$$$
5EH7_5O5_A_303


 16 17  0  0  0  0  0  0  0  0999 V2000
   13.9836    8.3366   11.4102 Cl  0  0  0  0  0  0  0  0  0  0  0  0
   14.7111    6.7939   11.6496 C   0  0  0  0  0  0  0  0  0  0  0  0
   15.2666    6.1639   10.5787 C   0  0  0  0  0  0  0  0  0  0  0  0
   15.2655    6.8983    8.9961 Cl  0  0  0  0  0  0  0  0  0  0  0  0
   15.8526    4.9208   10.7571 C   0  0  0  0  0  0  0  0  0  0  0  0
   15.8727    4.3264   12.0063 C   0  0  0  0  0  0  0  0  0  0  0  0
   15.2950    4.9598   13.0863 C   0  0  0  0  0  0  0  0  0  0  0  0
   14.7407    6.2126   12.9050 C   0  0  0  0  0  0  0  0  0  0  0  0
   15.3156    4.2599   14.3142 O   0  0  0  0  0  0  0  0  0  0  0  0
   16.4963    4.2856   15.0486 C   0  0  0  0  0  0  0  0  0  0  0  0
   16.7688    2.9057   15.5668 C   0  0  0  0  0  0  0  0  0  0  0  0
   15.8749    1.9838   15.9455 N   0  0  0  0  0  0  0  0  0  0  0  0
   16.5785    0.9133   16.3577 N   0  0  0  0  0  0  0  0  0  0  0  0
   17.8636    1.1724   16.2138 N   0  0  0  0  0  0  0  0  0  0  0  0
   17.9975    2.4151   15.7441 N   0  0  0  0  0  0  0  0  0  0  0  0
   14.8945    2.0718   15.9262 H   0  0  0  0  0  0  0  0  0  0  0  0
  5  6  2  0  0  0
  5  3  1  0  0  0
  6  7  1  0  0  0
  4  3  1  0  0  0
  3  2  2  0  0  0
  7  9  1  0  0  0
  7  8  2  0  0  0
  9 10  1  0  0  0
  2  8  1  0  0  0
  2  1  1  0  0  0
 10 11  1  0  0  0
 11 12  1  0  0  0
 11 15  2  0  0  0
 12 13  1  0  0  0
 15 14  1  0  0  0
 13 14  2  0  0  0
 12 16  1  0  0  0
M  END
> <minimizedAffinity>
-6.40157

$$$$
5EH7_5O5_A_303


 16 17  0  0  0  0  0  0  0  0999 V2000
   15.2148    1.7963   18.2069 Cl  0  0  0  0  0  0  0  0  0  0  0  0
   15.6150    2.3488   16.6254 C   0  0  0  0  0  0  0  0  0  0  0  0
   15.0585    3.5089   16.1818 C   0  0  0  0  0  0  0  0  0  0  0  0
   13.9763    4.4362   17.1884 Cl  0  0  0  0  0  0  0  0  0  0  0  0
   15.3698    3.9629   14.9101 C   0  0  0  0  0  0  0  0  0  0  0  0
   16.2338    3.2473   14.1005 C   0  0  0  0  0  0  0  0  0  0  0  0
   16.7835    2.0639   14.5464 C   0  0  0  0  0  0  0  0  0  0  0  0
   16.4917    1.6353   15.8273 C   0  0  0  0  0  0  0  0  0  0  0  0
   17.6151    1.3716   13.6370 O   0  0  0  0  0  0  0  0  0  0  0  0
   17.1115    0.2094   13.0625 C   0  0  0  0  0  0  0  0  0  0  0  0
   17.1086    0.3734   11.5725 C   0  0  0  0  0  0  0  0  0  0  0  0
   16.2363    1.0644   10.8283 N   0  0  0  0  0  0  0  0  0  0  0  0
   16.6170    0.9086    9.5470 N   0  0  0  0  0  0  0  0  0  0  0  0
   17.7022    0.1598    9.5174 N   0  0  0  0  0  0  0  0  0  0  0  0
   18.0064   -0.1985   10.7672 N   0  0  0  0  0  0  0  0  0  0  0  0
   15.4669    1.5847   11.1545 H   0  0  0  0  0  0  0  0  0  0  0  0
  5  6  2  0  0  0
  5  3  1  0  0  0
  6  7  1  0  0  0
  4  3  1  0  0  0
  3  2  2  0  0  0
  7  9  1  0  0  0
  7  8  2  0  0  0
  9 10  1  0  0  0
  2  8  1  0  0  0
  2  1  1  0  0  0
 10 11  1  0  0  0
 11 12  1  0  0  0
 11 15  2  0  0  0
 12 13  1  0  0  0
 15 14  1  0  0  0
 13 14  2  0  0  0
 12 16  1  0  0  0
M  END
> <minimizedAffinity>
-6.39800

$$$$
5EH7_5O5_A_303


 16 17  0  0  0  0  0  0  0  0999 V2000
   15.4684    1.6400   18.1005 Cl  0  0  0  0  0  0  0  0  0  0  0  0
   15.7771    2.1551   16.4862 C   0  0  0  0  0  0  0  0  0  0  0  0
   15.1648    3.2840   16.0357 C   0  0  0  0  0  0  0  0  0  0  0  0
   14.1023    4.2093   17.0649 Cl  0  0  0  0  0  0  0  0  0  0  0  0
   15.4023    3.7077   14.7378 C   0  0  0  0  0  0  0  0  0  0  0  0
   16.2495    2.9935   13.9096 C   0  0  0  0  0  0  0  0  0  0  0  0
   16.8559    1.8412   14.3634 C   0  0  0  0  0  0  0  0  0  0  0  0
   16.6375    1.4437   15.6687 C   0  0  0  0  0  0  0  0  0  0  0  0
   17.6655    1.1463   13.4362 O   0  0  0  0  0  0  0  0  0  0  0  0
   17.3253    1.2382   12.0908 C   0  0  0  0  0  0  0  0  0  0  0  0
   18.4124    1.9775   11.3708 C   0  0  0  0  0  0  0  0  0  0  0  0
   19.7350    1.8439   11.5295 N   0  0  0  0  0  0  0  0  0  0  0  0
   20.3131    2.7243   10.6919 N   0  0  0  0  0  0  0  0  0  0  0  0
   19.3665    3.3600   10.0291 N   0  0  0  0  0  0  0  0  0  0  0  0
   18.1798    2.9219   10.4566 N   0  0  0  0  0  0  0  0  0  0  0  0
   20.1948    1.2231   12.1398 H   0  0  0  0  0  0  0  0  0  0  0  0
  5  6  2  0  0  0
  5  3  1  0  0  0
  6  7  1  0  0  0
  4  3  1  0  0  0
  3  2  2  0  0  0
  7  9  1  0  0  0
  7  8  2  0  0  0
  9 10  1  0  0  0
  2  8  1  0  0  0
  2  1  1  0  0  0
 10 11  1  0  0  0
 11 12  1  0  0  0
 11 15  2  0  0  0
 12 13  1  0  0  0
 15 14  1  0  0  0
 13 14  2  0  0  0
 12 16  1  0  0  0
M  END
> <minimizedAffinity>
-6.25184

$$$$
5EH7_5O5_A_303


 16 17  0  0  0  0  0  0  0  0999 V2000
   17.0027    1.7663   16.4035 Cl  0  0  0  0  0  0  0  0  0  0  0  0
   16.4232    2.9601   15.3056 C   0  0  0  0  0  0  0  0  0  0  0  0
   15.2637    3.6081   15.6023 C   0  0  0  0  0  0  0  0  0  0  0  0
   14.3825    3.2607   17.0676 Cl  0  0  0  0  0  0  0  0  0  0  0  0
   14.7848    4.5687   14.7258 C   0  0  0  0  0  0  0  0  0  0  0  0
   15.4744    4.8657   13.5638 C   0  0  0  0  0  0  0  0  0  0  0  0
   16.6404    4.1963   13.2578 C   0  0  0  0  0  0  0  0  0  0  0  0
   17.1264    3.2624   14.1528 C   0  0  0  0  0  0  0  0  0  0  0  0
   17.2535    4.5256   12.0275 O   0  0  0  0  0  0  0  0  0  0  0  0
   16.5739    4.1910   10.8610 C   0  0  0  0  0  0  0  0  0  0  0  0
   16.6649    2.7082   10.6617 C   0  0  0  0  0  0  0  0  0  0  0  0
   15.7080    1.7954   10.8704 N   0  0  0  0  0  0  0  0  0  0  0  0
   16.2500    0.5981   10.5810 N   0  0  0  0  0  0  0  0  0  0  0  0
   17.4954    0.7826   10.1885 N   0  0  0  0  0  0  0  0  0  0  0  0
   17.7740    2.0867   10.2549 N   0  0  0  0  0  0  0  0  0  0  0  0
   14.7879    1.9666   11.1758 H   0  0  0  0  0  0  0  0  0  0  0  0
  5  6  2  0  0  0
  5  3  1  0  0  0
  6  7  1  0  0  0
  4  3  1  0  0  0
  3  2  2  0  0  0
  7  9  1  0  0  0
  7  8  2  0  0  0
  9 10  1  0  0  0
  2  8  1  0  0  0
  2  1  1  0  0  0
 10 11  1  0  0  0
 11 12  1  0  0  0
 11 15  2  0  0  0
 12 13  1  0  0  0
 15 14  1  0  0  0
 13 14  2  0  0  0
 12 16  1  0  0  0
M  END
> <minimizedAffinity>
-6.02678

$$$$
5EH7_5O5_A_303


 16 17  0  0  0  0  0  0  0  0999 V2000
   17.0679    7.5468   11.1357 Cl  0  0  0  0  0  0  0  0  0  0  0  0
   16.2117    6.6257   12.3125 C   0  0  0  0  0  0  0  0  0  0  0  0
   14.8688    6.8116   12.4324 C   0  0  0  0  0  0  0  0  0  0  0  0
   14.0169    7.9411   11.4113 Cl  0  0  0  0  0  0  0  0  0  0  0  0
   14.1684    6.0790   13.3775 C   0  0  0  0  0  0  0  0  0  0  0  0
   14.8242    5.1710   14.1897 C   0  0  0  0  0  0  0  0  0  0  0  0
   16.1873    4.9963   14.0770 C   0  0  0  0  0  0  0  0  0  0  0  0
   16.8721    5.7084   13.1108 C   0  0  0  0  0  0  0  0  0  0  0  0
   16.7842    4.0866   14.9792 O   0  0  0  0  0  0  0  0  0  0  0  0
   16.7613    2.7377   14.6410 C   0  0  0  0  0  0  0  0  0  0  0  0
   16.0963    1.9770   15.7482 C   0  0  0  0  0  0  0  0  0  0  0  0
   15.2778    2.4570   16.6926 N   0  0  0  0  0  0  0  0  0  0  0  0
   14.9468    1.4163   17.4789 N   0  0  0  0  0  0  0  0  0  0  0  0
   15.5331    0.3314   17.0116 N   0  0  0  0  0  0  0  0  0  0  0  0
   16.2685    0.6687   15.9494 N   0  0  0  0  0  0  0  0  0  0  0  0
   14.9768    3.3891   16.7923 H   0  0  0  0  0  0  0  0  0  0  0  0
  5  6  2  0  0  0
  5  3  1  0  0  0
  6  7  1  0  0  0
  4  3  1  0  0  0
  3  2  2  0  0  0
  7  9  1  0  0  0
  7  8  2  0  0  0
  9 10  1  0  0  0
  2  8  1  0  0  0
  2  1  1  0  0  0
 10 11  1  0  0  0
 11 12  1  0  0  0
 11 15  2  0  0  0
 12 13  1  0  0  0
 15 14  1  0  0  0
 13 14  2  0  0  0
 12 16  1  0  0  0
M  END
> <minimizedAffinity>
-5.96360

$$$$
5EH7_5O5_A_303


 16 17  0  0  0  0  0  0  0  0999 V2000
   20.0123    1.8948   10.8958 Cl  0  0  0  0  0  0  0  0  0  0  0  0
   18.4236    2.2426   11.4630 C   0  0  0  0  0  0  0  0  0  0  0  0
   17.3784    1.5493   10.9347 C   0  0  0  0  0  0  0  0  0  0  0  0
   17.6285    0.3197    9.7224 Cl  0  0  0  0  0  0  0  0  0  0  0  0
   16.0947    1.8216   11.3801 C   0  0  0  0  0  0  0  0  0  0  0  0
   15.8767    2.7856   12.3481 C   0  0  0  0  0  0  0  0  0  0  0  0
   16.9358    3.4978   12.8700 C   0  0  0  0  0  0  0  0  0  0  0  0
   18.2151    3.1977   12.4423 C   0  0  0  0  0  0  0  0  0  0  0  0
   16.6188    4.4983   13.8169 O   0  0  0  0  0  0  0  0  0  0  0  0
   17.2884    4.4649   15.0355 C   0  0  0  0  0  0  0  0  0  0  0  0
   17.1469    3.0931   15.6229 C   0  0  0  0  0  0  0  0  0  0  0  0
   16.0227    2.4897   16.0282 N   0  0  0  0  0  0  0  0  0  0  0  0
   16.3841    1.2836   16.5031 N   0  0  0  0  0  0  0  0  0  0  0  0
   17.6896    1.1520   16.3706 N   0  0  0  0  0  0  0  0  0  0  0  0
   18.1799    2.2775   15.8455 N   0  0  0  0  0  0  0  0  0  0  0  0
   15.1100    2.8567   15.9869 H   0  0  0  0  0  0  0  0  0  0  0  0
  5  6  2  0  0  0
  5  3  1  0  0  0
  6  7  1  0  0  0
  4  3  1  0  0  0
  3  2  2  0  0  0
  7  9  1  0  0  0
  7  8  2  0  0  0
  9 10  1  0  0  0
  2  8  1  0  0  0
  2  1  1  0  0  0
 10 11  1  0  0  0
 11 12  1  0  0  0
 11 15  2  0  0  0
 12 13  1  0  0  0
 15 14  1  0  0  0
 13 14  2  0  0  0
 12 16  1  0  0  0
M  END
> <minimizedAffinity>
-5.88235

$$$$
5EH7_5O5_A_303


 16 17  0  0  0  0  0  0  0  0999 V2000
   21.2110    8.3084   13.0213 Cl  0  0  0  0  0  0  0  0  0  0  0  0
   19.7881    7.6386   13.7238 C   0  0  0  0  0  0  0  0  0  0  0  0
   19.1111    8.3739   14.6475 C   0  0  0  0  0  0  0  0  0  0  0  0
   19.6502    9.9686   15.1064 Cl  0  0  0  0  0  0  0  0  0  0  0  0
   17.9664    7.8455   15.2226 C   0  0  0  0  0  0  0  0  0  0  0  0
   17.5170    6.5870   14.8644 C   0  0  0  0  0  0  0  0  0  0  0  0
   18.2139    5.8376   13.9402 C   0  0  0  0  0  0  0  0  0  0  0  0
   19.3365    6.3854   13.3493 C   0  0  0  0  0  0  0  0  0  0  0  0
   17.7135    4.5436   13.6698 O   0  0  0  0  0  0  0  0  0  0  0  0
   16.7090    4.0568   14.4995 C   0  0  0  0  0  0  0  0  0  0  0  0
   17.0777    2.6712   14.9366 C   0  0  0  0  0  0  0  0  0  0  0  0
   16.9038    1.5281   14.2618 N   0  0  0  0  0  0  0  0  0  0  0  0
   17.3622    0.5413   15.0536 N   0  0  0  0  0  0  0  0  0  0  0  0
   17.8197    1.0742   16.1698 N   0  0  0  0  0  0  0  0  0  0  0  0
   17.6291    2.3949   16.1204 N   0  0  0  0  0  0  0  0  0  0  0  0
   16.5163    1.4288   13.3622 H   0  0  0  0  0  0  0  0  0  0  0  0
  5  6  2  0  0  0
  5  3  1  0  0  0
  6  7  1  0  0  0
  4  3  1  0  0  0
  3  2  2  0  0  0
  7  9  1  0  0  0
  7  8  2  0  0  0
  9 10  1  0  0  0
  2  8  1  0  0  0
  2  1  1  0  0  0
 10 11  1  0  0  0
 11 12  1  0  0  0
 11 15  2  0  0  0
 12 13  1  0  0  0
 15 14  1  0  0  0
 13 14  2  0  0  0
 12 16  1  0  0  0
M  END
> <minimizedAffinity>
-5.83110

$$$$
