3SU1_TSV_A_100


 54 59  0  0  0  0  0  0  0  0999 V2000
  -12.8149   -6.1442   17.0829 C   0  0  0  0  0  0  0  0  0  0  0  0
  -12.3594   -6.5693   15.6785 C   0  0  0  0  0  0  0  0  0  0  0  0
  -12.6456   -7.9366   15.3292 N   0  0  0  0  0  0  0  0  0  0  0  0
  -13.6392   -5.7311   15.8699 C   0  0  0  0  0  0  0  0  0  0  0  0
  -15.7711   -8.1813   14.9710 O   0  0  0  0  0  0  0  0  0  0  0  0
  -13.6558   -4.2645   15.5341 C   0  0  0  0  0  0  0  0  0  0  0  0
  -15.0559   -9.6222   13.4215 N   0  0  0  0  0  0  0  0  0  0  0  0
  -13.2083   -7.4726   13.2148 O   0  0  0  0  0  0  0  0  0  0  0  0
  -14.5422   -3.7381   14.6761 C   0  0  0  0  0  0  0  0  0  0  0  0
  -13.1323   -8.2648   14.1408 C   0  0  0  0  0  0  0  0  0  0  0  0
  -15.6112   -4.5498   13.9710 C   0  0  0  0  0  0  0  0  0  0  0  0
  -13.7035   -9.6445   14.0013 C   0  0  0  0  0  0  0  0  0  0  0  0
  -15.3767   -4.5599   12.4664 C   0  0  0  0  0  0  0  0  0  0  0  0
  -16.5236   -5.2736   11.7395 C   0  0  0  0  0  0  0  0  0  0  0  0
  -16.4872   -6.7959   11.9291 C   0  0  0  0  0  0  0  0  0  0  0  0
  -17.5858   -7.3011   12.8701 C   0  0  0  0  0  0  0  0  0  0  0  0
  -12.9187  -10.4820   13.0100 C   0  0  0  0  0  0  0  0  0  0  0  0
  -17.3468   -8.7432   13.3041 C   0  0  0  0  0  0  0  0  0  0  0  0
  -13.9567  -11.4381   12.4912 C   0  0  0  0  0  0  0  0  0  0  0  0
  -15.9953   -8.8458   13.9640 C   0  0  0  0  0  0  0  0  0  0  0  0
  -15.1594  -10.5465   12.2788 C   0  0  0  0  0  0  0  0  0  0  0  0
  -12.4753   -8.6461   15.9902 H   0  0  0  0  0  0  0  0  0  0  0  0
  -18.3568   -9.1743   14.2424 N   0  0  0  0  0  0  0  0  0  0  0  0
  -19.0031  -10.9728   13.0300 O   0  0  0  0  0  0  0  0  0  0  0  0
  -19.0581  -10.2859   14.0482 C   0  0  0  0  0  0  0  0  0  0  0  0
  -18.5297   -8.6313   15.0452 H   0  0  0  0  0  0  0  0  0  0  0  0
  -19.8673  -10.6906   15.1607 O   0  0  0  0  0  0  0  0  0  0  0  0
  -18.1206  -12.2685   15.7810 C   0  0  0  0  0  0  0  0  0  0  0  0
  -19.3349  -10.8432   17.4421 C   0  0  0  0  0  0  0  0  0  0  0  0
  -20.5460  -12.6968   16.2866 C   0  0  0  0  0  0  0  0  0  0  0  0
  -19.4616  -11.6326   16.1494 C   0  0  0  0  0  0  0  0  0  0  0  0
  -10.4183   -6.5474   14.2163 N   0  0  0  0  0  0  0  0  0  0  0  0
  -11.0853   -5.9357   15.2135 C   0  0  0  0  0  0  0  0  0  0  0  0
  -10.6739   -4.9140   15.7303 O   0  0  0  0  0  0  0  0  0  0  0  0
  -10.7487   -7.3911   13.8313 H   0  0  0  0  0  0  0  0  0  0  0  0
   -9.0902   -5.8758   13.6792 S   0  0  0  0  0  0  0  0  0  0  0  0
   -8.2353   -5.4190   14.7360 O   0  0  0  0  0  0  0  0  0  0  0  0
   -9.4233   -4.8210   12.7463 O   0  0  0  0  0  0  0  0  0  0  0  0
   -8.3163   -7.0623   12.7837 C   0  0  0  0  0  0  0  0  0  0  0  0
   -6.9327   -6.7502   12.2140 C   0  0  0  0  0  0  0  0  0  0  0  0
   -7.0643   -7.6780   13.4114 C   0  0  0  0  0  0  0  0  0  0  0  0
  -14.3185  -12.3777   13.4934 O   0  0  0  0  0  0  0  0  0  0  0  0
  -16.0629  -13.7433   18.4417 F   0  0  0  0  0  0  0  0  0  0  0  0
  -13.6311  -14.1146   14.8559 N   0  0  0  0  0  0  0  0  0  0  0  0
  -12.5826  -13.7564   12.8764 O   0  0  0  0  0  0  0  0  0  0  0  0
  -13.0072  -15.3961   15.2431 C   0  0  0  0  0  0  0  0  0  0  0  0
  -14.1652  -16.8315   18.5965 C   0  0  0  0  0  0  0  0  0  0  0  0
  -13.4594  -16.7725   17.3997 C   0  0  0  0  0  0  0  0  0  0  0  0
  -15.0403  -15.8132   18.9622 C   0  0  0  0  0  0  0  0  0  0  0  0
  -15.2239  -14.7266   18.1010 C   0  0  0  0  0  0  0  0  0  0  0  0
  -13.6567  -15.6702   16.5656 C   0  0  0  0  0  0  0  0  0  0  0  0
  -14.5121  -14.6881   16.9229 C   0  0  0  0  0  0  0  0  0  0  0  0
  -14.5623  -13.6175   15.8737 C   0  0  0  0  0  0  0  0  0  0  0  0
  -13.4179  -13.4810   13.7211 C   0  0  0  0  0  0  0  0  0  0  0  0
  1  4  1  0  0  0
  1  2  1  0  0  0
 43 50  1  0  0  0
 25 23  1  0  0  0
 23 18  1  0  0  0
 31 27  1  0  0  0
 27 25  1  0  0  0
 37 36  2  0  0  0
 32 36  1  0  0  0
 36 39  1  0  0  0
 36 38  2  0  0  0
  4  2  1  0  0  0
  2  3  1  0  0  0
  2 33  1  0  0  0
  3 10  1  0  0  0
 25 24  2  0  0  0
  4  6  1  0  0  0
 33 32  1  0  0  0
  5 20  2  0  0  0
 34 33  2  0  0  0
 53 44  1  0  0  0
 46 44  1  0  0  0
 44 54  1  0  0  0
  6  9  2  0  0  0
 12  7  1  0  0  0
 20  7  1  0  0  0
  7 21  1  0  0  0
 54 45  2  0  0  0
 28 31  1  0  0  0
 29 31  1  0  0  0
 10  8  2  0  0  0
 31 30  1  0  0  0
 54 42  1  0  0  0
 42 19  1  0  0  0
  9 11  1  0  0  0
 12 10  1  0  0  0
 51 46  2  0  0  0
 11 13  1  0  0  0
 49 47  1  0  0  0
 47 48  2  0  0  0
 12 17  1  0  0  0
 48 51  1  0  0  0
 49 50  2  0  0  0
 13 14  1  0  0  0
 15 14  1  0  0  0
 50 52  1  0  0  0
 16 15  1  0  0  0
 41 39  1  0  0  0
 39 40  1  0  0  0
 52 51  1  0  0  0
 18 16  1  0  0  0
 52 53  2  0  0  0
 17 19  1  0  0  0
 20 18  1  0  0  0
 41 40  1  0  0  0
 19 21  1  0  0  0
 23 26  1  0  0  0
  3 22  1  0  0  0
 32 35  1  0  0  0
M  END
> <minimizedAffinity>
-11.18863

$$$$
3SU1_TSV_A_100


 54 59  0  0  0  0  0  0  0  0999 V2000
  -13.0515   -6.0688   17.0435 C   0  0  0  0  0  0  0  0  0  0  0  0
  -12.5908   -6.6077   15.6804 C   0  0  0  0  0  0  0  0  0  0  0  0
  -12.9353   -7.9807   15.4161 N   0  0  0  0  0  0  0  0  0  0  0  0
  -13.8327   -5.7003   15.7882 C   0  0  0  0  0  0  0  0  0  0  0  0
  -16.0618   -8.1040   15.0074 O   0  0  0  0  0  0  0  0  0  0  0  0
  -13.7733   -4.2603   15.3560 C   0  0  0  0  0  0  0  0  0  0  0  0
  -15.3874   -9.6771   13.5724 N   0  0  0  0  0  0  0  0  0  0  0  0
  -13.4360   -7.6339   13.2641 O   0  0  0  0  0  0  0  0  0  0  0  0
  -14.6176   -3.7521   14.4461 C   0  0  0  0  0  0  0  0  0  0  0  0
  -13.4150   -8.3649   14.2418 C   0  0  0  0  0  0  0  0  0  0  0  0
  -15.7108   -4.5590   13.7733 C   0  0  0  0  0  0  0  0  0  0  0  0
  -14.0485   -9.7229   14.1815 C   0  0  0  0  0  0  0  0  0  0  0  0
  -15.4493   -4.6807   12.2781 C   0  0  0  0  0  0  0  0  0  0  0  0
  -16.6152   -5.3878   11.5753 C   0  0  0  0  0  0  0  0  0  0  0  0
  -16.6548   -6.8940   11.8658 C   0  0  0  0  0  0  0  0  0  0  0  0
  -17.7933   -7.2836   12.8142 C   0  0  0  0  0  0  0  0  0  0  0  0
  -13.2862  -10.6604   13.2648 C   0  0  0  0  0  0  0  0  0  0  0  0
  -17.6313   -8.7029   13.3476 C   0  0  0  0  0  0  0  0  0  0  0  0
  -14.3587  -11.6002   12.7880 C   0  0  0  0  0  0  0  0  0  0  0  0
  -16.2986   -8.8234   14.0420 C   0  0  0  0  0  0  0  0  0  0  0  0
  -15.5135  -10.6701   12.4912 C   0  0  0  0  0  0  0  0  0  0  0  0
  -12.8112   -8.6513   16.1261 H   0  0  0  0  0  0  0  0  0  0  0  0
  -18.6778   -9.0230   14.2903 N   0  0  0  0  0  0  0  0  0  0  0  0
  -19.1029  -11.0730   13.4306 O   0  0  0  0  0  0  0  0  0  0  0  0
  -19.2834  -10.2055   14.2830 C   0  0  0  0  0  0  0  0  0  0  0  0
  -18.9490   -8.3486   14.9542 H   0  0  0  0  0  0  0  0  0  0  0  0
  -20.1453  -10.4487   15.4028 O   0  0  0  0  0  0  0  0  0  0  0  0
  -21.9921   -9.0977   14.5727 C   0  0  0  0  0  0  0  0  0  0  0  0
  -22.0615  -11.5974   14.6815 C   0  0  0  0  0  0  0  0  0  0  0  0
  -22.0895  -10.2681   16.7957 C   0  0  0  0  0  0  0  0  0  0  0  0
  -21.5647  -10.3339   15.3649 C   0  0  0  0  0  0  0  0  0  0  0  0
  -10.6492   -6.7457   14.2253 N   0  0  0  0  0  0  0  0  0  0  0  0
  -11.2797   -6.0663   15.2022 C   0  0  0  0  0  0  0  0  0  0  0  0
  -10.8079   -5.0570   15.6912 O   0  0  0  0  0  0  0  0  0  0  0  0
  -11.0296   -7.5785   13.8633 H   0  0  0  0  0  0  0  0  0  0  0  0
   -9.2816   -6.1717   13.6741 S   0  0  0  0  0  0  0  0  0  0  0  0
   -8.4389   -7.1900   13.1182 O   0  0  0  0  0  0  0  0  0  0  0  0
   -8.6184   -5.4163   14.7149 O   0  0  0  0  0  0  0  0  0  0  0  0
   -9.7035   -5.0629   12.4905 C   0  0  0  0  0  0  0  0  0  0  0  0
   -8.7738   -4.9010   11.2880 C   0  0  0  0  0  0  0  0  0  0  0  0
  -10.0933   -5.6397   11.1282 C   0  0  0  0  0  0  0  0  0  0  0  0
  -14.7833  -12.4526   13.8421 O   0  0  0  0  0  0  0  0  0  0  0  0
  -18.3468  -12.0345   17.9066 F   0  0  0  0  0  0  0  0  0  0  0  0
  -16.6691  -13.7213   14.2667 N   0  0  0  0  0  0  0  0  0  0  0  0
  -15.3197  -14.2616   12.5250 O   0  0  0  0  0  0  0  0  0  0  0  0
  -17.7926  -14.6452   14.0110 C   0  0  0  0  0  0  0  0  0  0  0  0
  -20.6532  -14.4834   16.5482 C   0  0  0  0  0  0  0  0  0  0  0  0
  -19.9585  -14.9094   15.4213 C   0  0  0  0  0  0  0  0  0  0  0  0
  -20.1173  -13.5200   17.3975 C   0  0  0  0  0  0  0  0  0  0  0  0
  -18.8706  -12.9613   17.0983 C   0  0  0  0  0  0  0  0  0  0  0  0
  -18.7118  -14.3400   15.1545 C   0  0  0  0  0  0  0  0  0  0  0  0
  -18.1997  -13.4009   15.9791 C   0  0  0  0  0  0  0  0  0  0  0  0
  -16.8604  -12.9356   15.4899 C   0  0  0  0  0  0  0  0  0  0  0  0
  -15.6162  -13.5760   13.4889 C   0  0  0  0  0  0  0  0  0  0  0  0
  1  4  1  0  0  0
  1  2  1  0  0  0
 43 50  1  0  0  0
 25 23  1  0  0  0
 23 18  1  0  0  0
 31 27  1  0  0  0
 27 25  1  0  0  0
 37 36  2  0  0  0
 32 36  1  0  0  0
 36 39  1  0  0  0
 36 38  2  0  0  0
  4  2  1  0  0  0
  2  3  1  0  0  0
  2 33  1  0  0  0
  3 10  1  0  0  0
 25 24  2  0  0  0
  4  6  1  0  0  0
 33 32  1  0  0  0
  5 20  2  0  0  0
 34 33  2  0  0  0
 53 44  1  0  0  0
 46 44  1  0  0  0
 44 54  1  0  0  0
  6  9  2  0  0  0
 12  7  1  0  0  0
 20  7  1  0  0  0
  7 21  1  0  0  0
 54 45  2  0  0  0
 28 31  1  0  0  0
 29 31  1  0  0  0
 10  8  2  0  0  0
 31 30  1  0  0  0
 54 42  1  0  0  0
 42 19  1  0  0  0
  9 11  1  0  0  0
 12 10  1  0  0  0
 51 46  2  0  0  0
 11 13  1  0  0  0
 49 47  1  0  0  0
 47 48  2  0  0  0
 12 17  1  0  0  0
 48 51  1  0  0  0
 49 50  2  0  0  0
 13 14  1  0  0  0
 15 14  1  0  0  0
 50 52  1  0  0  0
 16 15  1  0  0  0
 41 39  1  0  0  0
 39 40  1  0  0  0
 52 51  1  0  0  0
 18 16  1  0  0  0
 52 53  2  0  0  0
 17 19  1  0  0  0
 20 18  1  0  0  0
 41 40  1  0  0  0
 19 21  1  0  0  0
 23 26  1  0  0  0
  3 22  1  0  0  0
 32 35  1  0  0  0
M  END
> <minimizedAffinity>
-9.62193

$$$$
3SU1_TSV_A_100


 54 59  0  0  0  0  0  0  0  0999 V2000
  -12.9351   -5.9743   16.8780 C   0  0  0  0  0  0  0  0  0  0  0  0
  -12.5101   -6.5468   15.5170 C   0  0  0  0  0  0  0  0  0  0  0  0
  -12.8095   -7.9412   15.3183 N   0  0  0  0  0  0  0  0  0  0  0  0
  -13.7820   -5.6848   15.6448 C   0  0  0  0  0  0  0  0  0  0  0  0
  -15.9427   -8.2013   15.0492 O   0  0  0  0  0  0  0  0  0  0  0  0
  -13.7988   -4.2612   15.1579 C   0  0  0  0  0  0  0  0  0  0  0  0
  -15.2655   -9.8009   13.6451 N   0  0  0  0  0  0  0  0  0  0  0  0
  -13.4127   -7.6969   13.1785 O   0  0  0  0  0  0  0  0  0  0  0  0
  -14.7000   -3.8214   14.2672 C   0  0  0  0  0  0  0  0  0  0  0  0
  -13.3217   -8.3885   14.1805 C   0  0  0  0  0  0  0  0  0  0  0  0
  -15.7867   -4.6953   13.6720 C   0  0  0  0  0  0  0  0  0  0  0  0
  -13.9018   -9.7714   14.1974 C   0  0  0  0  0  0  0  0  0  0  0  0
  -15.5828   -4.8640   12.1724 C   0  0  0  0  0  0  0  0  0  0  0  0
  -16.7473   -5.6422   11.5468 C   0  0  0  0  0  0  0  0  0  0  0  0
  -16.7140   -7.1366   11.8937 C   0  0  0  0  0  0  0  0  0  0  0  0
  -17.7955   -7.5334   12.9039 C   0  0  0  0  0  0  0  0  0  0  0  0
  -13.1409  -10.7130   13.2837 C   0  0  0  0  0  0  0  0  0  0  0  0
  -17.5543   -8.9238   13.4815 C   0  0  0  0  0  0  0  0  0  0  0  0
  -14.1935  -11.7113   12.8883 C   0  0  0  0  0  0  0  0  0  0  0  0
  -16.1902   -8.9658   14.1218 C   0  0  0  0  0  0  0  0  0  0  0  0
  -15.3962  -10.8388   12.6075 C   0  0  0  0  0  0  0  0  0  0  0  0
  -12.6291   -8.5789   16.0464 H   0  0  0  0  0  0  0  0  0  0  0  0
  -18.5471   -9.2479   14.4793 N   0  0  0  0  0  0  0  0  0  0  0  0
  -18.6283  -11.4525   13.9738 O   0  0  0  0  0  0  0  0  0  0  0  0
  -18.9553  -10.4970   14.6751 C   0  0  0  0  0  0  0  0  0  0  0  0
  -18.9305   -8.5258   15.0277 H   0  0  0  0  0  0  0  0  0  0  0  0
  -19.7802  -10.6876   15.8324 O   0  0  0  0  0  0  0  0  0  0  0  0
  -21.3914  -12.5040   15.6604 C   0  0  0  0  0  0  0  0  0  0  0  0
  -21.7478  -10.4855   17.0969 C   0  0  0  0  0  0  0  0  0  0  0  0
  -21.7985  -10.2561   14.6105 C   0  0  0  0  0  0  0  0  0  0  0  0
  -21.1701  -10.9963   15.7871 C   0  0  0  0  0  0  0  0  0  0  0  0
  -10.7806   -6.4939   13.8105 N   0  0  0  0  0  0  0  0  0  0  0  0
  -11.2429   -5.9736   14.9634 C   0  0  0  0  0  0  0  0  0  0  0  0
  -10.6577   -5.0801   15.5459 O   0  0  0  0  0  0  0  0  0  0  0  0
  -11.2494   -7.2386   13.3691 H   0  0  0  0  0  0  0  0  0  0  0  0
   -9.4650   -5.8779   13.1834 S   0  0  0  0  0  0  0  0  0  0  0  0
   -8.3917   -5.7870   14.1299 O   0  0  0  0  0  0  0  0  0  0  0  0
   -9.7702   -4.6017   12.5735 O   0  0  0  0  0  0  0  0  0  0  0  0
   -9.0414   -6.9045   11.9283 C   0  0  0  0  0  0  0  0  0  0  0  0
  -10.1496   -7.7048   11.2444 C   0  0  0  0  0  0  0  0  0  0  0  0
   -9.5324   -6.5104   10.5340 C   0  0  0  0  0  0  0  0  0  0  0  0
  -14.5392  -12.5385   13.9902 O   0  0  0  0  0  0  0  0  0  0  0  0
  -14.3309  -16.5886   10.3920 F   0  0  0  0  0  0  0  0  0  0  0  0
  -13.1101  -14.3546   13.9174 N   0  0  0  0  0  0  0  0  0  0  0  0
  -12.9968  -12.9044   15.6581 O   0  0  0  0  0  0  0  0  0  0  0  0
  -11.9190  -15.1809   14.2000 C   0  0  0  0  0  0  0  0  0  0  0  0
  -11.2792  -18.0287   11.7245 C   0  0  0  0  0  0  0  0  0  0  0  0
  -11.0542  -17.2085   12.8249 C   0  0  0  0  0  0  0  0  0  0  0  0
  -12.3840  -17.8342   10.9011 C   0  0  0  0  0  0  0  0  0  0  0  0
  -13.2669  -16.7853   11.1770 C   0  0  0  0  0  0  0  0  0  0  0  0
  -11.9588  -16.1759   13.0800 C   0  0  0  0  0  0  0  0  0  0  0  0
  -13.0258  -15.9882   12.2735 C   0  0  0  0  0  0  0  0  0  0  0  0
  -13.8479  -14.8238   12.7402 C   0  0  0  0  0  0  0  0  0  0  0  0
  -13.4775  -13.2948   14.6076 C   0  0  0  0  0  0  0  0  0  0  0  0
  1  4  1  0  0  0
  1  2  1  0  0  0
 43 50  1  0  0  0
 25 23  1  0  0  0
 23 18  1  0  0  0
 31 27  1  0  0  0
 27 25  1  0  0  0
 37 36  2  0  0  0
 32 36  1  0  0  0
 36 39  1  0  0  0
 36 38  2  0  0  0
  4  2  1  0  0  0
  2  3  1  0  0  0
  2 33  1  0  0  0
  3 10  1  0  0  0
 25 24  2  0  0  0
  4  6  1  0  0  0
 33 32  1  0  0  0
  5 20  2  0  0  0
 34 33  2  0  0  0
 53 44  1  0  0  0
 46 44  1  0  0  0
 44 54  1  0  0  0
  6  9  2  0  0  0
 12  7  1  0  0  0
 20  7  1  0  0  0
  7 21  1  0  0  0
 54 45  2  0  0  0
 28 31  1  0  0  0
 29 31  1  0  0  0
 10  8  2  0  0  0
 31 30  1  0  0  0
 54 42  1  0  0  0
 42 19  1  0  0  0
  9 11  1  0  0  0
 12 10  1  0  0  0
 51 46  2  0  0  0
 11 13  1  0  0  0
 49 47  1  0  0  0
 47 48  2  0  0  0
 12 17  1  0  0  0
 48 51  1  0  0  0
 49 50  2  0  0  0
 13 14  1  0  0  0
 15 14  1  0  0  0
 50 52  1  0  0  0
 16 15  1  0  0  0
 41 39  1  0  0  0
 39 40  1  0  0  0
 52 51  1  0  0  0
 18 16  1  0  0  0
 52 53  2  0  0  0
 17 19  1  0  0  0
 20 18  1  0  0  0
 41 40  1  0  0  0
 19 21  1  0  0  0
 23 26  1  0  0  0
  3 22  1  0  0  0
 32 35  1  0  0  0
M  END
> <minimizedAffinity>
-9.43339

$$$$
3SU1_TSV_A_100


 54 59  0  0  0  0  0  0  0  0999 V2000
  -14.3674  -14.3868   17.7693 C   0  0  0  0  0  0  0  0  0  0  0  0
  -15.3713  -14.6324   16.6324 C   0  0  0  0  0  0  0  0  0  0  0  0
  -16.0454  -13.4569   16.1456 N   0  0  0  0  0  0  0  0  0  0  0  0
  -13.8559  -14.6005   16.3499 C   0  0  0  0  0  0  0  0  0  0  0  0
  -13.9104  -11.7193   14.6030 O   0  0  0  0  0  0  0  0  0  0  0  0
  -13.0942  -15.8724   16.0925 C   0  0  0  0  0  0  0  0  0  0  0  0
  -15.7415  -11.3088   13.3918 N   0  0  0  0  0  0  0  0  0  0  0  0
  -15.9679  -14.0763   13.9978 O   0  0  0  0  0  0  0  0  0  0  0  0
  -12.3660  -16.0564   14.9813 C   0  0  0  0  0  0  0  0  0  0  0  0
  -16.2122  -13.2360   14.8493 C   0  0  0  0  0  0  0  0  0  0  0  0
  -12.2270  -15.0159   13.8874 C   0  0  0  0  0  0  0  0  0  0  0  0
  -16.6150  -11.8489   14.4459 C   0  0  0  0  0  0  0  0  0  0  0  0
  -12.8521  -15.5100   12.5897 C   0  0  0  0  0  0  0  0  0  0  0  0
  -12.6035  -14.5142   11.4496 C   0  0  0  0  0  0  0  0  0  0  0  0
  -13.4553  -13.2442   11.5777 C   0  0  0  0  0  0  0  0  0  0  0  0
  -12.6345  -12.0222   12.0027 C   0  0  0  0  0  0  0  0  0  0  0  0
  -17.9871  -11.8256   13.8001 C   0  0  0  0  0  0  0  0  0  0  0  0
  -13.5227  -10.8614   12.4372 C   0  0  0  0  0  0  0  0  0  0  0  0
  -17.9006  -10.6363   12.8842 C   0  0  0  0  0  0  0  0  0  0  0  0
  -14.4184  -11.3152   13.5616 C   0  0  0  0  0  0  0  0  0  0  0  0
  -16.5314  -10.7902   12.2612 C   0  0  0  0  0  0  0  0  0  0  0  0
  -16.3915  -12.8002   16.7923 H   0  0  0  0  0  0  0  0  0  0  0  0
  -12.7275   -9.7465   12.8966 N   0  0  0  0  0  0  0  0  0  0  0  0
  -13.9879   -8.1669   11.8777 O   0  0  0  0  0  0  0  0  0  0  0  0
  -13.0645   -8.4911   12.6219 C   0  0  0  0  0  0  0  0  0  0  0  0
  -11.9161   -9.9211   13.4262 H   0  0  0  0  0  0  0  0  0  0  0  0
  -12.3023   -7.4958   13.3180 O   0  0  0  0  0  0  0  0  0  0  0  0
  -12.0347   -5.4751   11.9874 C   0  0  0  0  0  0  0  0  0  0  0  0
  -10.4693   -6.1215   13.8304 C   0  0  0  0  0  0  0  0  0  0  0  0
  -10.5127   -7.4586   11.7215 C   0  0  0  0  0  0  0  0  0  0  0  0
  -11.3459   -6.6387   12.7016 C   0  0  0  0  0  0  0  0  0  0  0  0
  -16.2103  -16.6628   15.5933 N   0  0  0  0  0  0  0  0  0  0  0  0
  -16.1121  -15.9304   16.7191 C   0  0  0  0  0  0  0  0  0  0  0  0
  -16.6096  -16.2938   17.7682 O   0  0  0  0  0  0  0  0  0  0  0  0
  -15.8295  -16.3385   14.7454 H   0  0  0  0  0  0  0  0  0  0  0  0
  -16.9531  -18.0579   15.6680 S   0  0  0  0  0  0  0  0  0  0  0  0
  -18.3800  -17.9280   15.6110 O   0  0  0  0  0  0  0  0  0  0  0  0
  -16.5129  -18.7792   16.8426 O   0  0  0  0  0  0  0  0  0  0  0  0
  -16.4008  -18.9330   14.3498 C   0  0  0  0  0  0  0  0  0  0  0  0
  -15.5316  -18.2139   13.3183 C   0  0  0  0  0  0  0  0  0  0  0  0
  -14.8944  -19.1935   14.2912 C   0  0  0  0  0  0  0  0  0  0  0  0
  -17.8743   -9.4286   13.6317 O   0  0  0  0  0  0  0  0  0  0  0  0
  -14.1268   -6.2833   15.9677 F   0  0  0  0  0  0  0  0  0  0  0  0
  -17.3624   -7.2126   13.2152 N   0  0  0  0  0  0  0  0  0  0  0  0
  -19.0968   -8.1892   12.1270 O   0  0  0  0  0  0  0  0  0  0  0  0
  -17.3041   -5.9258   12.4926 C   0  0  0  0  0  0  0  0  0  0  0  0
  -14.6023   -3.4962   13.6943 C   0  0  0  0  0  0  0  0  0  0  0  0
  -15.6564   -3.9622   12.9161 C   0  0  0  0  0  0  0  0  0  0  0  0
  -14.0827   -4.2664   14.7304 C   0  0  0  0  0  0  0  0  0  0  0  0
  -14.6189   -5.5345   14.9757 C   0  0  0  0  0  0  0  0  0  0  0  0
  -16.1769   -5.2282   13.1917 C   0  0  0  0  0  0  0  0  0  0  0  0
  -15.6642   -5.9736   14.1945 C   0  0  0  0  0  0  0  0  0  0  0  0
  -16.3765   -7.2896   14.2979 C   0  0  0  0  0  0  0  0  0  0  0  0
  -18.1754   -8.2075   12.9256 C   0  0  0  0  0  0  0  0  0  0  0  0
  1  4  1  0  0  0
  1  2  1  0  0  0
 43 50  1  0  0  0
 25 23  1  0  0  0
 23 18  1  0  0  0
 31 27  1  0  0  0
 27 25  1  0  0  0
 37 36  2  0  0  0
 32 36  1  0  0  0
 36 39  1  0  0  0
 36 38  2  0  0  0
  4  2  1  0  0  0
  2  3  1  0  0  0
  2 33  1  0  0  0
  3 10  1  0  0  0
 25 24  2  0  0  0
  4  6  1  0  0  0
 33 32  1  0  0  0
  5 20  2  0  0  0
 34 33  2  0  0  0
 53 44  1  0  0  0
 46 44  1  0  0  0
 44 54  1  0  0  0
  6  9  2  0  0  0
 12  7  1  0  0  0
 20  7  1  0  0  0
  7 21  1  0  0  0
 54 45  2  0  0  0
 28 31  1  0  0  0
 29 31  1  0  0  0
 10  8  2  0  0  0
 31 30  1  0  0  0
 54 42  1  0  0  0
 42 19  1  0  0  0
  9 11  1  0  0  0
 12 10  1  0  0  0
 51 46  2  0  0  0
 11 13  1  0  0  0
 49 47  1  0  0  0
 47 48  2  0  0  0
 12 17  1  0  0  0
 48 51  1  0  0  0
 49 50  2  0  0  0
 13 14  1  0  0  0
 15 14  1  0  0  0
 50 52  1  0  0  0
 16 15  1  0  0  0
 41 39  1  0  0  0
 39 40  1  0  0  0
 52 51  1  0  0  0
 18 16  1  0  0  0
 52 53  2  0  0  0
 17 19  1  0  0  0
 20 18  1  0  0  0
 41 40  1  0  0  0
 19 21  1  0  0  0
 23 26  1  0  0  0
  3 22  1  0  0  0
 32 35  1  0  0  0
M  END
> <minimizedAffinity>
-8.36894

$$$$
