5D1R_56S_A_305


 17 16  0  0  0  0  0  0  0  0999 V2000
  -16.5884   -9.0976  158.7278 C   0  0  0  0  0  0  0  0  0  0  0  0
  -16.8394   -7.5926  158.9541 C   0  0  0  0  0  0  0  0  0  0  0  0
  -16.9420   -7.0221  160.3626 C   0  0  0  0  0  0  0  0  0  0  0  0
  -18.2269   -6.4232  160.8970 C   0  0  0  0  0  0  0  0  0  0  0  0
  -18.4912   -6.4324  162.0913 O   0  0  0  0  0  0  0  0  0  0  0  0
  -18.9219   -5.5308  160.1238 O   0  0  0  0  0  0  0  0  0  0  0  0
  -20.2428   -5.8310  159.8315 C   0  0  0  0  0  0  0  0  0  0  0  0
  -21.1641   -4.6597  159.9982 C   0  0  0  0  0  0  0  0  0  0  0  0
  -20.3898   -6.5100  158.5043 C   0  0  0  0  0  0  0  0  0  0  0  0
  -16.2091   -9.6097  157.3267 C   0  0  0  0  0  0  0  0  0  0  0  0
  -16.4881   -8.7581  156.0704 C   0  0  0  0  0  0  0  0  0  0  0  0
  -16.4396   -9.4913  154.7302 C   0  0  0  0  0  0  0  0  0  0  0  0
  -16.0201  -10.9523  154.5787 C   0  0  0  0  0  0  0  0  0  0  0  0
  -16.9655  -11.8141  153.7905 C   0  0  0  0  0  0  0  0  0  0  0  0
  -17.8012  -12.7934  154.5310 C   0  0  0  0  0  0  0  0  0  0  0  0
  -19.7553  -13.0255  152.9173 C   0  0  0  0  0  0  0  0  0  0  0  0
  -19.2607  -12.6635  154.2599 C   0  0  0  0  0  0  0  0  0  0  0  0
 16 17  1  0  0  0
 15 17  1  0  0  0
 15 14  1  0  0  0
 13 14  1  0  0  0
 13 12  1  0  0  0
 12 11  1  0  0  0
 11 10  1  0  0  0
 10  1  1  0  0  0
  1  2  1  0  0  0
  2  3  1  0  0  0
  3  4  1  0  0  0
  5  4  2  0  0  0
  4  6  1  0  0  0
  6  7  1  0  0  0
  7  8  1  0  0  0
  7  9  1  0  0  0
M  END
> <minimizedAffinity>
-6.55478

$$$$
5D1R_56S_A_305


 17 16  0  0  0  0  0  0  0  0999 V2000
  -17.6279   -7.1614  157.1441 C   0  0  0  0  0  0  0  0  0  0  0  0
  -18.8014   -7.0476  158.1388 C   0  0  0  0  0  0  0  0  0  0  0  0
  -18.6707   -7.5731  159.5625 C   0  0  0  0  0  0  0  0  0  0  0  0
  -17.7803   -6.9037  160.5892 C   0  0  0  0  0  0  0  0  0  0  0  0
  -16.5720   -7.0933  160.6118 O   0  0  0  0  0  0  0  0  0  0  0  0
  -18.2377   -5.7943  161.2505 O   0  0  0  0  0  0  0  0  0  0  0  0
  -17.4121   -5.2394  162.2153 C   0  0  0  0  0  0  0  0  0  0  0  0
  -17.3937   -3.7403  162.1836 C   0  0  0  0  0  0  0  0  0  0  0  0
  -17.6815   -5.7951  163.5801 C   0  0  0  0  0  0  0  0  0  0  0  0
  -16.7923   -8.4528  157.0884 C   0  0  0  0  0  0  0  0  0  0  0  0
  -15.9353   -8.7883  155.8497 C   0  0  0  0  0  0  0  0  0  0  0  0
  -16.6269   -9.5826  154.7420 C   0  0  0  0  0  0  0  0  0  0  0  0
  -16.0281  -10.8291  154.0932 C   0  0  0  0  0  0  0  0  0  0  0  0
  -16.8858  -12.0613  154.1556 C   0  0  0  0  0  0  0  0  0  0  0  0
  -18.3482  -11.8862  154.3464 C   0  0  0  0  0  0  0  0  0  0  0  0
  -18.3895  -14.4279  154.2261 C   0  0  0  0  0  0  0  0  0  0  0  0
  -19.1269  -13.1494  154.2112 C   0  0  0  0  0  0  0  0  0  0  0  0
 16 17  1  0  0  0
 15 17  1  0  0  0
 15 14  1  0  0  0
 13 14  1  0  0  0
 13 12  1  0  0  0
 12 11  1  0  0  0
 11 10  1  0  0  0
 10  1  1  0  0  0
  1  2  1  0  0  0
  2  3  1  0  0  0
  3  4  1  0  0  0
  5  4  2  0  0  0
  4  6  1  0  0  0
  6  7  1  0  0  0
  7  8  1  0  0  0
  7  9  1  0  0  0
M  END
> <minimizedAffinity>
-6.40696

$$$$
5D1R_56S_A_305


 17 16  0  0  0  0  0  0  0  0999 V2000
  -15.9800   -9.5972  156.1765 C   0  0  0  0  0  0  0  0  0  0  0  0
  -16.4731   -9.1856  154.7740 C   0  0  0  0  0  0  0  0  0  0  0  0
  -16.5843  -10.2120  153.6541 C   0  0  0  0  0  0  0  0  0  0  0  0
  -16.4553  -11.6996  153.9098 C   0  0  0  0  0  0  0  0  0  0  0  0
  -15.3871  -12.2823  153.7832 O   0  0  0  0  0  0  0  0  0  0  0  0
  -17.4160  -12.3376  154.6496 O   0  0  0  0  0  0  0  0  0  0  0  0
  -18.4104  -13.0128  153.9600 C   0  0  0  0  0  0  0  0  0  0  0  0
  -18.3544  -14.4992  154.1507 C   0  0  0  0  0  0  0  0  0  0  0  0
  -19.7696  -12.4381  154.2176 C   0  0  0  0  0  0  0  0  0  0  0  0
  -16.4962   -8.8517  157.4203 C   0  0  0  0  0  0  0  0  0  0  0  0
  -17.4115   -7.6172  157.2799 C   0  0  0  0  0  0  0  0  0  0  0  0
  -18.1510   -7.1748  158.5423 C   0  0  0  0  0  0  0  0  0  0  0  0
  -17.4976   -7.0887  159.9204 C   0  0  0  0  0  0  0  0  0  0  0  0
  -18.3162   -6.4041  160.9782 C   0  0  0  0  0  0  0  0  0  0  0  0
  -17.6379   -6.0052  162.2379 C   0  0  0  0  0  0  0  0  0  0  0  0
  -17.7480   -3.4821  161.9243 C   0  0  0  0  0  0  0  0  0  0  0  0
  -18.0550   -4.6683  162.7470 C   0  0  0  0  0  0  0  0  0  0  0  0
 16 17  1  0  0  0
 15 17  1  0  0  0
 15 14  1  0  0  0
 13 14  1  0  0  0
 13 12  1  0  0  0
 12 11  1  0  0  0
 11 10  1  0  0  0
 10  1  1  0  0  0
  1  2  1  0  0  0
  2  3  1  0  0  0
  3  4  1  0  0  0
  5  4  2  0  0  0
  4  6  1  0  0  0
  6  7  1  0  0  0
  7  8  1  0  0  0
  7  9  1  0  0  0
M  END
> <minimizedAffinity>
-6.26095

$$$$
5D1R_56S_A_305


 17 16  0  0  0  0  0  0  0  0999 V2000
  -16.7822   -9.1852  158.8670 C   0  0  0  0  0  0  0  0  0  0  0  0
  -17.6249   -8.2947  159.8032 C   0  0  0  0  0  0  0  0  0  0  0  0
  -17.2470   -6.8390  160.0437 C   0  0  0  0  0  0  0  0  0  0  0  0
  -16.8495   -6.3260  161.4127 C   0  0  0  0  0  0  0  0  0  0  0  0
  -16.0274   -6.9117  162.1036 O   0  0  0  0  0  0  0  0  0  0  0  0
  -17.0998   -5.0184  161.7363 O   0  0  0  0  0  0  0  0  0  0  0  0
  -18.2613   -4.7452  162.4410 C   0  0  0  0  0  0  0  0  0  0  0  0
  -18.0041   -4.2784  163.8427 C   0  0  0  0  0  0  0  0  0  0  0  0
  -19.1864   -3.8441  161.6820 C   0  0  0  0  0  0  0  0  0  0  0  0
  -16.3353   -8.6487  157.4953 C   0  0  0  0  0  0  0  0  0  0  0  0
  -17.1421   -8.9682  156.2193 C   0  0  0  0  0  0  0  0  0  0  0  0
  -16.3339   -9.1550  154.9355 C   0  0  0  0  0  0  0  0  0  0  0  0
  -16.5145  -10.3375  153.9854 C   0  0  0  0  0  0  0  0  0  0  0  0
  -16.6428  -11.6802  154.6475 C   0  0  0  0  0  0  0  0  0  0  0  0
  -17.3441  -12.7603  153.9076 C   0  0  0  0  0  0  0  0  0  0  0  0
  -19.8636  -12.5225  154.1761 C   0  0  0  0  0  0  0  0  0  0  0  0
  -18.6110  -13.2058  154.5534 C   0  0  0  0  0  0  0  0  0  0  0  0
 16 17  1  0  0  0
 15 17  1  0  0  0
 15 14  1  0  0  0
 13 14  1  0  0  0
 13 12  1  0  0  0
 12 11  1  0  0  0
 11 10  1  0  0  0
 10  1  1  0  0  0
  1  2  1  0  0  0
  2  3  1  0  0  0
  3  4  1  0  0  0
  5  4  2  0  0  0
  4  6  1  0  0  0
  6  7  1  0  0  0
  7  8  1  0  0  0
  7  9  1  0  0  0
M  END
> <minimizedAffinity>
-6.16019

$$$$
5D1R_56S_A_305


 17 16  0  0  0  0  0  0  0  0999 V2000
  -18.2262   -7.0975  158.3284 C   0  0  0  0  0  0  0  0  0  0  0  0
  -19.7316   -7.0575  158.6626 C   0  0  0  0  0  0  0  0  0  0  0  0
  -20.4974   -5.7409  158.6555 C   0  0  0  0  0  0  0  0  0  0  0  0
  -20.6874   -4.9134  159.9101 C   0  0  0  0  0  0  0  0  0  0  0  0
  -21.6262   -4.1385  160.0317 O   0  0  0  0  0  0  0  0  0  0  0  0
  -20.0535   -5.2919  161.0643 O   0  0  0  0  0  0  0  0  0  0  0  0
  -18.8196   -4.7213  161.3327 C   0  0  0  0  0  0  0  0  0  0  0  0
  -18.9073   -3.5223  162.2290 C   0  0  0  0  0  0  0  0  0  0  0  0
  -17.8169   -5.7317  161.7994 C   0  0  0  0  0  0  0  0  0  0  0  0
  -17.7142   -8.0168  157.2050 C   0  0  0  0  0  0  0  0  0  0  0  0
  -16.3000   -8.6313  157.2679 C   0  0  0  0  0  0  0  0  0  0  0  0
  -15.8183   -9.3532  156.0097 C   0  0  0  0  0  0  0  0  0  0  0  0
  -16.7479   -9.8097  154.8868 C   0  0  0  0  0  0  0  0  0  0  0  0
  -16.1493  -10.7858  153.9137 C   0  0  0  0  0  0  0  0  0  0  0  0
  -16.6450  -12.1857  153.9337 C   0  0  0  0  0  0  0  0  0  0  0  0
  -18.6545  -13.6501  154.4758 C   0  0  0  0  0  0  0  0  0  0  0  0
  -18.0988  -12.3036  154.2388 C   0  0  0  0  0  0  0  0  0  0  0  0
 16 17  1  0  0  0
 15 17  1  0  0  0
 15 14  1  0  0  0
 13 14  1  0  0  0
 13 12  1  0  0  0
 12 11  1  0  0  0
 11 10  1  0  0  0
 10  1  1  0  0  0
  1  2  1  0  0  0
  2  3  1  0  0  0
  3  4  1  0  0  0
  5  4  2  0  0  0
  4  6  1  0  0  0
  6  7  1  0  0  0
  7  8  1  0  0  0
  7  9  1  0  0  0
M  END
> <minimizedAffinity>
-6.15956

$$$$
5D1R_56S_A_305


 17 16  0  0  0  0  0  0  0  0999 V2000
  -15.3424  -10.3750  157.7531 C   0  0  0  0  0  0  0  0  0  0  0  0
  -15.7290  -10.1266  156.2805 C   0  0  0  0  0  0  0  0  0  0  0  0
  -15.9966  -11.2921  155.3372 C   0  0  0  0  0  0  0  0  0  0  0  0
  -16.8150  -11.1324  154.0723 C   0  0  0  0  0  0  0  0  0  0  0  0
  -16.6457  -10.1881  153.3133 O   0  0  0  0  0  0  0  0  0  0  0  0
  -17.4734  -12.2189  153.5592 O   0  0  0  0  0  0  0  0  0  0  0  0
  -18.3867  -12.8599  154.3809 C   0  0  0  0  0  0  0  0  0  0  0  0
  -19.7859  -12.3446  154.2212 C   0  0  0  0  0  0  0  0  0  0  0  0
  -18.2943  -14.3514  154.2768 C   0  0  0  0  0  0  0  0  0  0  0  0
  -16.1064   -9.6545  158.8785 C   0  0  0  0  0  0  0  0  0  0  0  0
  -17.0740   -8.4948  158.5618 C   0  0  0  0  0  0  0  0  0  0  0  0
  -17.8924   -7.9556  159.7347 C   0  0  0  0  0  0  0  0  0  0  0  0
  -17.6458   -6.5956  160.3852 C   0  0  0  0  0  0  0  0  0  0  0  0
  -18.8018   -6.0378  161.1664 C   0  0  0  0  0  0  0  0  0  0  0  0
  -19.6224   -4.9723  160.5361 C   0  0  0  0  0  0  0  0  0  0  0  0
  -20.5146   -5.9008  158.3410 C   0  0  0  0  0  0  0  0  0  0  0  0
  -20.7676   -5.4908  159.7360 C   0  0  0  0  0  0  0  0  0  0  0  0
 16 17  1  0  0  0
 15 17  1  0  0  0
 15 14  1  0  0  0
 13 14  1  0  0  0
 13 12  1  0  0  0
 12 11  1  0  0  0
 11 10  1  0  0  0
 10  1  1  0  0  0
  1  2  1  0  0  0
  2  3  1  0  0  0
  3  4  1  0  0  0
  5  4  2  0  0  0
  4  6  1  0  0  0
  6  7  1  0  0  0
  7  8  1  0  0  0
  7  9  1  0  0  0
M  END
> <minimizedAffinity>
-6.14710

$$$$
5D1R_56S_A_305


 17 16  0  0  0  0  0  0  0  0999 V2000
  -17.0639   -6.6919  160.9222 C   0  0  0  0  0  0  0  0  0  0  0  0
  -17.6779   -5.3051  161.2041 C   0  0  0  0  0  0  0  0  0  0  0  0
  -19.1875   -5.1035  161.1915 C   0  0  0  0  0  0  0  0  0  0  0  0
  -19.8187   -3.7373  161.3659 C   0  0  0  0  0  0  0  0  0  0  0  0
  -20.4636   -3.2093  160.4705 O   0  0  0  0  0  0  0  0  0  0  0  0
  -20.0108   -3.2449  162.6300 O   0  0  0  0  0  0  0  0  0  0  0  0
  -19.2547   -2.1477  163.0105 C   0  0  0  0  0  0  0  0  0  0  0  0
  -20.0890   -0.9690  163.4147 C   0  0  0  0  0  0  0  0  0  0  0  0
  -18.2095   -2.5027  164.0231 C   0  0  0  0  0  0  0  0  0  0  0  0
  -17.2756   -7.3601  159.5518 C   0  0  0  0  0  0  0  0  0  0  0  0
  -16.9139   -8.8439  159.3304 C   0  0  0  0  0  0  0  0  0  0  0  0
  -16.4355   -9.2230  157.9291 C   0  0  0  0  0  0  0  0  0  0  0  0
  -16.8235   -8.4570  156.6656 C   0  0  0  0  0  0  0  0  0  0  0  0
  -16.4360   -9.1143  155.3711 C   0  0  0  0  0  0  0  0  0  0  0  0
  -15.8402  -10.4736  155.4281 C   0  0  0  0  0  0  0  0  0  0  0  0
  -17.3552  -12.0806  154.1637 C   0  0  0  0  0  0  0  0  0  0  0  0
  -16.1057  -11.2968  154.2147 C   0  0  0  0  0  0  0  0  0  0  0  0
 16 17  1  0  0  0
 15 17  1  0  0  0
 15 14  1  0  0  0
 13 14  1  0  0  0
 13 12  1  0  0  0
 12 11  1  0  0  0
 11 10  1  0  0  0
 10  1  1  0  0  0
  1  2  1  0  0  0
  2  3  1  0  0  0
  3  4  1  0  0  0
  5  4  2  0  0  0
  4  6  1  0  0  0
  6  7  1  0  0  0
  7  8  1  0  0  0
  7  9  1  0  0  0
M  END
> <minimizedAffinity>
-5.79478

$$$$
5D1R_56S_A_305


 17 16  0  0  0  0  0  0  0  0999 V2000
  -17.4141   -6.7191  159.6372 C   0  0  0  0  0  0  0  0  0  0  0  0
  -18.0617   -6.5863  161.0309 C   0  0  0  0  0  0  0  0  0  0  0  0
  -17.8002   -5.3624  161.8990 C   0  0  0  0  0  0  0  0  0  0  0  0
  -17.7871   -5.4366  163.4121 C   0  0  0  0  0  0  0  0  0  0  0  0
  -17.0083   -6.1646  164.0122 O   0  0  0  0  0  0  0  0  0  0  0  0
  -18.3612   -4.4256  164.1370 O   0  0  0  0  0  0  0  0  0  0  0  0
  -17.7221   -3.1960  164.1368 C   0  0  0  0  0  0  0  0  0  0  0  0
  -18.5846   -2.0838  163.6190 C   0  0  0  0  0  0  0  0  0  0  0  0
  -17.0921   -2.8839  165.4595 C   0  0  0  0  0  0  0  0  0  0  0  0
  -17.8172   -7.8812  158.7118 C   0  0  0  0  0  0  0  0  0  0  0  0
  -16.7853   -8.5385  157.7713 C   0  0  0  0  0  0  0  0  0  0  0  0
  -17.1565   -8.5922  156.2896 C   0  0  0  0  0  0  0  0  0  0  0  0
  -16.1614   -8.9220  155.1785 C   0  0  0  0  0  0  0  0  0  0  0  0
  -16.5592  -10.0545  154.2747 C   0  0  0  0  0  0  0  0  0  0  0  0
  -16.9280  -11.3507  154.8990 C   0  0  0  0  0  0  0  0  0  0  0  0
  -18.2202  -13.5096  154.5165 C   0  0  0  0  0  0  0  0  0  0  0  0
  -17.5655  -12.3118  153.9553 C   0  0  0  0  0  0  0  0  0  0  0  0
 16 17  1  0  0  0
 15 17  1  0  0  0
 15 14  1  0  0  0
 13 14  1  0  0  0
 13 12  1  0  0  0
 12 11  1  0  0  0
 11 10  1  0  0  0
 10  1  1  0  0  0
  1  2  1  0  0  0
  2  3  1  0  0  0
  3  4  1  0  0  0
  5  4  2  0  0  0
  4  6  1  0  0  0
  6  7  1  0  0  0
  7  8  1  0  0  0
  7  9  1  0  0  0
M  END
> <minimizedAffinity>
-5.68073

$$$$
5D1R_56S_A_305


 17 16  0  0  0  0  0  0  0  0999 V2000
  -16.0020   -9.6217  156.6460 C   0  0  0  0  0  0  0  0  0  0  0  0
  -16.6881   -9.2836  155.3064 C   0  0  0  0  0  0  0  0  0  0  0  0
  -16.4119  -10.1113  154.0580 C   0  0  0  0  0  0  0  0  0  0  0  0
  -16.4058  -11.6260  154.0814 C   0  0  0  0  0  0  0  0  0  0  0  0
  -15.3886  -12.2673  153.8562 O   0  0  0  0  0  0  0  0  0  0  0  0
  -17.4173  -12.2898  154.7245 O   0  0  0  0  0  0  0  0  0  0  0  0
  -18.3114  -13.0041  153.9431 C   0  0  0  0  0  0  0  0  0  0  0  0
  -18.2945  -14.4769  154.2252 C   0  0  0  0  0  0  0  0  0  0  0  0
  -19.6885  -12.4155  153.9748 C   0  0  0  0  0  0  0  0  0  0  0  0
  -16.4392   -8.9021  157.9346 C   0  0  0  0  0  0  0  0  0  0  0  0
  -17.0349   -7.4794  157.8835 C   0  0  0  0  0  0  0  0  0  0  0  0
  -17.3940   -6.8465  159.2276 C   0  0  0  0  0  0  0  0  0  0  0  0
  -16.8126   -7.3071  160.5630 C   0  0  0  0  0  0  0  0  0  0  0  0
  -16.4026   -6.2059  161.4995 C   0  0  0  0  0  0  0  0  0  0  0  0
  -16.0719   -6.5675  162.9016 C   0  0  0  0  0  0  0  0  0  0  0  0
  -13.7031   -6.8128  163.7988 C   0  0  0  0  0  0  0  0  0  0  0  0
  -14.8308   -7.3813  163.0350 C   0  0  0  0  0  0  0  0  0  0  0  0
 16 17  1  0  0  0
 15 17  1  0  0  0
 15 14  1  0  0  0
 13 14  1  0  0  0
 13 12  1  0  0  0
 12 11  1  0  0  0
 11 10  1  0  0  0
 10  1  1  0  0  0
  1  2  1  0  0  0
  2  3  1  0  0  0
  3  4  1  0  0  0
  5  4  2  0  0  0
  4  6  1  0  0  0
  6  7  1  0  0  0
  7  8  1  0  0  0
  7  9  1  0  0  0
M  END
> <minimizedAffinity>
-5.64118

$$$$
5D1R_56S_A_305


 17 16  0  0  0  0  0  0  0  0999 V2000
  -16.9913   -8.9476  159.0179 C   0  0  0  0  0  0  0  0  0  0  0  0
  -17.8536   -8.2522  160.0914 C   0  0  0  0  0  0  0  0  0  0  0  0
  -18.7848   -7.1052  159.7211 C   0  0  0  0  0  0  0  0  0  0  0  0
  -18.8379   -5.8206  160.5225 C   0  0  0  0  0  0  0  0  0  0  0  0
  -19.8975   -5.2610  160.7685 O   0  0  0  0  0  0  0  0  0  0  0  0
  -17.7677   -5.4750  161.3052 O   0  0  0  0  0  0  0  0  0  0  0  0
  -17.9506   -5.4850  162.6788 C   0  0  0  0  0  0  0  0  0  0  0  0
  -16.9291   -6.3102  163.4031 C   0  0  0  0  0  0  0  0  0  0  0  0
  -18.0972   -4.1046  163.2416 C   0  0  0  0  0  0  0  0  0  0  0  0
  -16.5402   -8.1652  157.7715 C   0  0  0  0  0  0  0  0  0  0  0  0
  -17.2851   -8.3177  156.4287 C   0  0  0  0  0  0  0  0  0  0  0  0
  -16.4144   -8.5359  155.1916 C   0  0  0  0  0  0  0  0  0  0  0  0
  -16.6736   -9.6279  154.1553 C   0  0  0  0  0  0  0  0  0  0  0  0
  -15.9452  -10.9213  154.3885 C   0  0  0  0  0  0  0  0  0  0  0  0
  -15.7757  -11.3854  155.7892 C   0  0  0  0  0  0  0  0  0  0  0  0
  -14.2576  -11.0237  157.7993 C   0  0  0  0  0  0  0  0  0  0  0  0
  -14.4094  -11.1542  156.3371 C   0  0  0  0  0  0  0  0  0  0  0  0
 16 17  1  0  0  0
 15 17  1  0  0  0
 15 14  1  0  0  0
 13 14  1  0  0  0
 13 12  1  0  0  0
 12 11  1  0  0  0
 11 10  1  0  0  0
 10  1  1  0  0  0
  1  2  1  0  0  0
  2  3  1  0  0  0
  3  4  1  0  0  0
  5  4  2  0  0  0
  4  6  1  0  0  0
  6  7  1  0  0  0
  7  8  1  0  0  0
  7  9  1  0  0  0
M  END
> <minimizedAffinity>
-5.57363

$$$$
