2CCC_LFN_A_1067


 20 22  0  0  0  0  0  0  0  0999 V2000
    2.7409   17.7712    1.3150 N   0  0  0  0  0  0  0  0  0  0  0  0
    3.5150   17.6370    2.4109 C   0  0  0  0  0  0  0  0  0  0  0  0
    2.4140   19.0336    0.8561 C   0  0  0  0  0  0  0  0  0  0  0  0
    3.7902   16.4784    2.8139 O   0  0  0  0  0  0  0  0  0  0  0  0
    4.0158   18.7127    3.0783 N   0  0  0  0  0  0  0  0  0  0  0  0
    3.7629   19.9767    2.7503 C   0  0  0  0  0  0  0  0  0  0  0  0
    4.2409   20.9377    3.4049 O   0  0  0  0  0  0  0  0  0  0  0  0
    2.9302   20.2307    1.5588 C   0  0  0  0  0  0  0  0  0  0  0  0
    2.6213   21.4907    1.1360 N   0  0  0  0  0  0  0  0  0  0  0  0
    1.8572   21.6367    0.0291 C   0  0  0  0  0  0  0  0  0  0  0  0
    1.5224   22.8931   -0.4555 C   0  0  0  0  0  0  0  0  0  0  0  0
    1.3539   20.4191   -0.6777 C   0  0  0  0  0  0  0  0  0  0  0  0
    0.7241   23.0209   -1.5931 C   0  0  0  0  0  0  0  0  0  0  0  0
    0.3730   24.4116   -2.1167 C   0  0  0  0  0  0  0  0  0  0  0  0
    0.2365   21.8239   -2.3011 C   0  0  0  0  0  0  0  0  0  0  0  0
   -0.6468   21.9793   -3.5309 C   0  0  0  0  0  0  0  0  0  0  0  0
    0.5381   20.5469   -1.8251 C   0  0  0  0  0  0  0  0  0  0  0  0
    1.6689   19.1997   -0.2198 N   0  0  0  0  0  0  0  0  0  0  0  0
    1.1688   17.9954   -0.9269 C   0  0  0  0  0  0  0  0  0  0  0  0
    4.6014   18.5447    3.8516 H   0  0  0  0  0  0  0  0  0  0  0  0
  1  2  1  0  0  0
  1  3  2  0  0  0
  2  4  2  0  0  0
  2  5  1  0  0  0
  3  8  1  0  0  0
  3 18  1  0  0  0
  5  6  1  0  0  0
  6  7  2  0  0  0
  6  8  1  0  0  0
  8  9  2  0  0  0
  9 10  1  0  0  0
 10 11  2  0  0  0
 10 12  1  0  0  0
 11 13  1  0  0  0
 12 17  2  0  0  0
 12 18  1  0  0  0
 13 14  1  0  0  0
 13 15  2  0  0  0
 15 16  1  0  0  0
 15 17  1  0  0  0
 18 19  1  0  0  0
  5 20  1  0  0  0
M  END
> <minimizedAffinity>
-8.81439

$$$$
2CCC_LFN_A_1067


 20 22  0  0  0  0  0  0  0  0999 V2000
    0.0441   22.0729    2.3382 N   0  0  0  0  0  0  0  0  0  0  0  0
    0.8329   21.7832    3.3927 C   0  0  0  0  0  0  0  0  0  0  0  0
   -0.5324   21.0487    1.6104 C   0  0  0  0  0  0  0  0  0  0  0  0
    1.3532   22.7321    4.0326 O   0  0  0  0  0  0  0  0  0  0  0  0
    1.0667   20.5023    3.7902 N   0  0  0  0  0  0  0  0  0  0  0  0
    0.5868   19.4297    3.1670 C   0  0  0  0  0  0  0  0  0  0  0  0
    0.8396   18.2648    3.5667 O   0  0  0  0  0  0  0  0  0  0  0  0
   -0.2959   19.6406    2.0034 C   0  0  0  0  0  0  0  0  0  0  0  0
   -0.8443   18.6060    1.3029 N   0  0  0  0  0  0  0  0  0  0  0  0
   -1.6490   18.8859    0.2519 C   0  0  0  0  0  0  0  0  0  0  0  0
   -2.2454   17.8754   -0.4889 C   0  0  0  0  0  0  0  0  0  0  0  0
   -1.8892   20.3125   -0.1253 C   0  0  0  0  0  0  0  0  0  0  0  0
   -3.0635   18.1863   -1.5760 C   0  0  0  0  0  0  0  0  0  0  0  0
   -3.7181   17.0613   -2.3743 C   0  0  0  0  0  0  0  0  0  0  0  0
   -3.3143   19.5913   -1.9437 C   0  0  0  0  0  0  0  0  0  0  0  0
   -4.1956   19.9142   -3.1419 C   0  0  0  0  0  0  0  0  0  0  0  0
   -2.7107   20.6289   -1.2314 C   0  0  0  0  0  0  0  0  0  0  0  0
   -1.3186   21.2981    0.5809 N   0  0  0  0  0  0  0  0  0  0  0  0
   -1.5630   22.7118    0.2034 C   0  0  0  0  0  0  0  0  0  0  0  0
    1.6255   20.3612    4.5883 H   0  0  0  0  0  0  0  0  0  0  0  0
  1  2  1  0  0  0
  1  3  2  0  0  0
  2  4  2  0  0  0
  2  5  1  0  0  0
  3  8  1  0  0  0
  3 18  1  0  0  0
  5  6  1  0  0  0
  6  7  2  0  0  0
  6  8  1  0  0  0
  8  9  2  0  0  0
  9 10  1  0  0  0
 10 11  2  0  0  0
 10 12  1  0  0  0
 11 13  1  0  0  0
 12 17  2  0  0  0
 12 18  1  0  0  0
 13 14  1  0  0  0
 13 15  2  0  0  0
 15 16  1  0  0  0
 15 17  1  0  0  0
 18 19  1  0  0  0
  5 20  1  0  0  0
M  END
> <minimizedAffinity>
-8.67178

$$$$
2CCC_LFN_A_1067


 20 22  0  0  0  0  0  0  0  0999 V2000
   -2.7955   17.5565   -1.5325 N   0  0  0  0  0  0  0  0  0  0  0  0
   -3.5718   17.4567   -2.6304 C   0  0  0  0  0  0  0  0  0  0  0  0
   -2.4642   18.8039   -1.0372 C   0  0  0  0  0  0  0  0  0  0  0  0
   -3.8510   16.3113   -3.0669 O   0  0  0  0  0  0  0  0  0  0  0  0
   -4.0707   18.5530   -3.2650 N   0  0  0  0  0  0  0  0  0  0  0  0
   -3.8137   19.8061   -2.9004 C   0  0  0  0  0  0  0  0  0  0  0  0
   -4.2901   20.7873   -3.5256 O   0  0  0  0  0  0  0  0  0  0  0  0
   -2.9782   20.0226   -1.7034 C   0  0  0  0  0  0  0  0  0  0  0  0
   -2.6651   21.2688   -1.2443 N   0  0  0  0  0  0  0  0  0  0  0  0
   -1.8987   21.3800   -0.1349 C   0  0  0  0  0  0  0  0  0  0  0  0
   -1.5596   22.6207    0.3858 C   0  0  0  0  0  0  0  0  0  0  0  0
   -1.3977   20.1408    0.5348 C   0  0  0  0  0  0  0  0  0  0  0  0
   -0.7589   22.7128    1.5252 C   0  0  0  0  0  0  0  0  0  0  0  0
   -0.4030   24.0865    2.0889 C   0  0  0  0  0  0  0  0  0  0  0  0
   -0.2736   21.4940    2.1969 C   0  0  0  0  0  0  0  0  0  0  0  0
    0.6123   21.6108    3.4291 C   0  0  0  0  0  0  0  0  0  0  0  0
   -0.5795   20.2324    1.6840 C   0  0  0  0  0  0  0  0  0  0  0  0
   -1.7169   18.9363    0.0418 N   0  0  0  0  0  0  0  0  0  0  0  0
   -1.2189   17.7103    0.7123 C   0  0  0  0  0  0  0  0  0  0  0  0
   -4.6581   18.4094   -4.0419 H   0  0  0  0  0  0  0  0  0  0  0  0
  1  2  1  0  0  0
  1  3  2  0  0  0
  2  4  2  0  0  0
  2  5  1  0  0  0
  3  8  1  0  0  0
  3 18  1  0  0  0
  5  6  1  0  0  0
  6  7  2  0  0  0
  6  8  1  0  0  0
  8  9  2  0  0  0
  9 10  1  0  0  0
 10 11  2  0  0  0
 10 12  1  0  0  0
 11 13  1  0  0  0
 12 17  2  0  0  0
 12 18  1  0  0  0
 13 14  1  0  0  0
 13 15  2  0  0  0
 15 16  1  0  0  0
 15 17  1  0  0  0
 18 19  1  0  0  0
  5 20  1  0  0  0
M  END
> <minimizedAffinity>
-8.62613

$$$$
2CCC_LFN_A_1067


 20 22  0  0  0  0  0  0  0  0999 V2000
    2.7758   17.0265    5.1589 N   0  0  0  0  0  0  0  0  0  0  0  0
    2.3746   16.3334    6.2437 C   0  0  0  0  0  0  0  0  0  0  0  0
    1.8422   17.4520    4.2324 C   0  0  0  0  0  0  0  0  0  0  0  0
    3.2438   15.9493    7.0667 O   0  0  0  0  0  0  0  0  0  0  0  0
    1.0630   16.0540    6.4786 N   0  0  0  0  0  0  0  0  0  0  0  0
    0.0712   16.3911    5.6590 C   0  0  0  0  0  0  0  0  0  0  0  0
   -1.1251   16.1011    5.9148 O   0  0  0  0  0  0  0  0  0  0  0  0
    0.4058   17.1606    4.4451 C   0  0  0  0  0  0  0  0  0  0  0  0
   -0.5405   17.5603    3.5471 N   0  0  0  0  0  0  0  0  0  0  0  0
   -0.1504   18.2689    2.4625 C   0  0  0  0  0  0  0  0  0  0  0  0
   -1.0695   18.7137    1.5229 C   0  0  0  0  0  0  0  0  0  0  0  0
    1.3017   18.5669    2.2676 C   0  0  0  0  0  0  0  0  0  0  0  0
   -0.6441   19.4340    0.4058 C   0  0  0  0  0  0  0  0  0  0  0  0
   -1.6708   19.9227   -0.6132 C   0  0  0  0  0  0  0  0  0  0  0  0
    0.7846   19.7419    0.2159 C   0  0  0  0  0  0  0  0  0  0  0  0
    1.2350   20.5143   -1.0159 C   0  0  0  0  0  0  0  0  0  0  0  0
    1.7351   19.2889    1.1322 C   0  0  0  0  0  0  0  0  0  0  0  0
    2.2000   18.1423    3.1668 N   0  0  0  0  0  0  0  0  0  0  0  0
    3.6391   18.4435    2.9692 C   0  0  0  0  0  0  0  0  0  0  0  0
    0.8345   15.5726    7.3065 H   0  0  0  0  0  0  0  0  0  0  0  0
  1  2  1  0  0  0
  1  3  2  0  0  0
  2  4  2  0  0  0
  2  5  1  0  0  0
  3  8  1  0  0  0
  3 18  1  0  0  0
  5  6  1  0  0  0
  6  7  2  0  0  0
  6  8  1  0  0  0
  8  9  2  0  0  0
  9 10  1  0  0  0
 10 11  2  0  0  0
 10 12  1  0  0  0
 11 13  1  0  0  0
 12 17  2  0  0  0
 12 18  1  0  0  0
 13 14  1  0  0  0
 13 15  2  0  0  0
 15 16  1  0  0  0
 15 17  1  0  0  0
 18 19  1  0  0  0
  5 20  1  0  0  0
M  END
> <minimizedAffinity>
-8.59806

$$$$
2CCC_LFN_A_1067


 20 22  0  0  0  0  0  0  0  0999 V2000
   -2.8390   17.1024   -5.1448 N   0  0  0  0  0  0  0  0  0  0  0  0
   -2.4296   16.3840   -6.2099 C   0  0  0  0  0  0  0  0  0  0  0  0
   -1.9115   17.5576   -4.2263 C   0  0  0  0  0  0  0  0  0  0  0  0
   -3.2935   15.9733   -7.0256 O   0  0  0  0  0  0  0  0  0  0  0  0
   -1.1155   16.1067   -6.4329 N   0  0  0  0  0  0  0  0  0  0  0  0
   -0.1288   16.4711   -5.6188 C   0  0  0  0  0  0  0  0  0  0  0  0
    1.0702   16.1820   -5.8627 O   0  0  0  0  0  0  0  0  0  0  0  0
   -0.4726   17.2697   -4.4264 C   0  0  0  0  0  0  0  0  0  0  0  0
    0.4680   17.6985   -3.5358 N   0  0  0  0  0  0  0  0  0  0  0  0
    0.0696   18.4324   -2.4713 C   0  0  0  0  0  0  0  0  0  0  0  0
    0.9826   18.9071   -1.5404 C   0  0  0  0  0  0  0  0  0  0  0  0
   -1.3850   18.7264   -2.2892 C   0  0  0  0  0  0  0  0  0  0  0  0
    0.5487   19.6535   -0.4438 C   0  0  0  0  0  0  0  0  0  0  0  0
    1.5687   20.1748    0.5658 C   0  0  0  0  0  0  0  0  0  0  0  0
   -0.8825   19.9573   -0.2669 C   0  0  0  0  0  0  0  0  0  0  0  0
   -1.3422   20.7585    0.9428 C   0  0  0  0  0  0  0  0  0  0  0  0
   -1.8269   19.4749   -1.1744 C   0  0  0  0  0  0  0  0  0  0  0  0
   -2.2774   18.2731   -3.1802 N   0  0  0  0  0  0  0  0  0  0  0  0
   -3.7190   18.5703   -2.9956 C   0  0  0  0  0  0  0  0  0  0  0  0
   -0.8811   15.6055   -7.2471 H   0  0  0  0  0  0  0  0  0  0  0  0
  1  2  1  0  0  0
  1  3  2  0  0  0
  2  4  2  0  0  0
  2  5  1  0  0  0
  3  8  1  0  0  0
  3 18  1  0  0  0
  5  6  1  0  0  0
  6  7  2  0  0  0
  6  8  1  0  0  0
  8  9  2  0  0  0
  9 10  1  0  0  0
 10 11  2  0  0  0
 10 12  1  0  0  0
 11 13  1  0  0  0
 12 17  2  0  0  0
 12 18  1  0  0  0
 13 14  1  0  0  0
 13 15  2  0  0  0
 15 16  1  0  0  0
 15 17  1  0  0  0
 18 19  1  0  0  0
  5 20  1  0  0  0
M  END
> <minimizedAffinity>
-8.49622

$$$$
2CCC_LFN_A_1067


 20 22  0  0  0  0  0  0  0  0999 V2000
   -0.0856   21.2461   -2.6882 N   0  0  0  0  0  0  0  0  0  0  0  0
   -0.4359   22.4546   -3.1731 C   0  0  0  0  0  0  0  0  0  0  0  0
    0.7115   21.1633   -1.5618 C   0  0  0  0  0  0  0  0  0  0  0  0
   -1.1535   22.5033   -4.2042 O   0  0  0  0  0  0  0  0  0  0  0  0
   -0.0501   23.6139   -2.5727 N   0  0  0  0  0  0  0  0  0  0  0  0
    0.7293   23.6718   -1.4964 C   0  0  0  0  0  0  0  0  0  0  0  0
    1.0675   24.7687   -0.9835 O   0  0  0  0  0  0  0  0  0  0  0  0
    1.1611   22.4007   -0.8836 C   0  0  0  0  0  0  0  0  0  0  0  0
    1.9537   22.3545    0.2261 N   0  0  0  0  0  0  0  0  0  0  0  0
    2.2991   21.1470    0.7294 C   0  0  0  0  0  0  0  0  0  0  0  0
    3.0915   21.0383    1.8633 C   0  0  0  0  0  0  0  0  0  0  0  0
    1.8270   19.9062    0.0417 C   0  0  0  0  0  0  0  0  0  0  0  0
    3.4447   19.7825    2.3594 C   0  0  0  0  0  0  0  0  0  0  0  0
    4.3104   19.6823    3.6132 C   0  0  0  0  0  0  0  0  0  0  0  0
    2.9710   18.5564    1.6930 C   0  0  0  0  0  0  0  0  0  0  0  0
    3.3781   17.1941    2.2363 C   0  0  0  0  0  0  0  0  0  0  0  0
    2.1911   18.6336    0.5379 C   0  0  0  0  0  0  0  0  0  0  0  0
    1.0621   19.9970   -1.0549 N   0  0  0  0  0  0  0  0  0  0  0  0
    0.5946   18.7622   -1.7312 C   0  0  0  0  0  0  0  0  0  0  0  0
   -0.3676   24.4619   -2.9590 H   0  0  0  0  0  0  0  0  0  0  0  0
  1  2  1  0  0  0
  1  3  2  0  0  0
  2  4  2  0  0  0
  2  5  1  0  0  0
  3  8  1  0  0  0
  3 18  1  0  0  0
  5  6  1  0  0  0
  6  7  2  0  0  0
  6  8  1  0  0  0
  8  9  2  0  0  0
  9 10  1  0  0  0
 10 11  2  0  0  0
 10 12  1  0  0  0
 11 13  1  0  0  0
 12 17  2  0  0  0
 12 18  1  0  0  0
 13 14  1  0  0  0
 13 15  2  0  0  0
 15 16  1  0  0  0
 15 17  1  0  0  0
 18 19  1  0  0  0
  5 20  1  0  0  0
M  END
> <minimizedAffinity>
-8.18859

$$$$
2CCC_LFN_A_1067


 20 22  0  0  0  0  0  0  0  0999 V2000
   -2.4784   17.1110   -1.7027 N   0  0  0  0  0  0  0  0  0  0  0  0
   -2.2041   15.7923   -1.6386 C   0  0  0  0  0  0  0  0  0  0  0  0
   -1.9257   17.9729   -0.7740 C   0  0  0  0  0  0  0  0  0  0  0  0
   -2.7266   15.0278   -2.4888 O   0  0  0  0  0  0  0  0  0  0  0  0
   -1.3709   15.2724   -0.6958 N   0  0  0  0  0  0  0  0  0  0  0  0
   -0.7904   15.9895    0.2623 C   0  0  0  0  0  0  0  0  0  0  0  0
   -0.0359   15.4613    1.1181 O   0  0  0  0  0  0  0  0  0  0  0  0
   -1.0216   17.4469    0.2743 C   0  0  0  0  0  0  0  0  0  0  0  0
   -0.4646   18.2692    1.2099 N   0  0  0  0  0  0  0  0  0  0  0  0
   -0.7218   19.5960    1.1460 C   0  0  0  0  0  0  0  0  0  0  0  0
   -0.1724   20.4820    2.0618 C   0  0  0  0  0  0  0  0  0  0  0  0
   -1.6261   20.1145    0.0743 C   0  0  0  0  0  0  0  0  0  0  0  0
   -0.4595   21.8455    1.9839 C   0  0  0  0  0  0  0  0  0  0  0  0
    0.1609   22.8066    2.9952 C   0  0  0  0  0  0  0  0  0  0  0  0
   -1.3396   22.3635    0.9213 C   0  0  0  0  0  0  0  0  0  0  0  0
   -1.6564   23.8509    0.8592 C   0  0  0  0  0  0  0  0  0  0  0  0
   -1.9247   21.4942   -0.0008 C   0  0  0  0  0  0  0  0  0  0  0  0
   -2.1642   19.2697   -0.8160 N   0  0  0  0  0  0  0  0  0  0  0  0
   -3.0585   19.7906   -1.8787 C   0  0  0  0  0  0  0  0  0  0  0  0
   -1.1867   14.3057   -0.7249 H   0  0  0  0  0  0  0  0  0  0  0  0
  1  2  1  0  0  0
  1  3  2  0  0  0
  2  4  2  0  0  0
  2  5  1  0  0  0
  3  8  1  0  0  0
  3 18  1  0  0  0
  5  6  1  0  0  0
  6  7  2  0  0  0
  6  8  1  0  0  0
  8  9  2  0  0  0
  9 10  1  0  0  0
 10 11  2  0  0  0
 10 12  1  0  0  0
 11 13  1  0  0  0
 12 17  2  0  0  0
 12 18  1  0  0  0
 13 14  1  0  0  0
 13 15  2  0  0  0
 15 16  1  0  0  0
 15 17  1  0  0  0
 18 19  1  0  0  0
  5 20  1  0  0  0
M  END
> <minimizedAffinity>
-8.09351

$$$$
2CCC_LFN_A_1067


 20 22  0  0  0  0  0  0  0  0999 V2000
   -0.4969   16.8307   -2.4734 N   0  0  0  0  0  0  0  0  0  0  0  0
   -1.1583   17.2578   -3.5681 C   0  0  0  0  0  0  0  0  0  0  0  0
    0.2147   17.7336   -1.7057 C   0  0  0  0  0  0  0  0  0  0  0  0
   -1.7901   16.4156   -4.2551 O   0  0  0  0  0  0  0  0  0  0  0  0
   -1.1737   18.5679   -3.9381 N   0  0  0  0  0  0  0  0  0  0  0  0
   -0.5176   19.5308   -3.2966 C   0  0  0  0  0  0  0  0  0  0  0  0
   -0.5542   20.7265   -3.6835 O   0  0  0  0  0  0  0  0  0  0  0  0
    0.2319   19.1667   -2.0787 C   0  0  0  0  0  0  0  0  0  0  0  0
    0.9294   20.0828   -1.3465 N   0  0  0  0  0  0  0  0  0  0  0  0
    1.5847   19.6674   -0.2381 C   0  0  0  0  0  0  0  0  0  0  0  0
    2.2990   20.5560    0.5529 C   0  0  0  0  0  0  0  0  0  0  0  0
    1.5477   18.2197    0.1335 C   0  0  0  0  0  0  0  0  0  0  0  0
    2.9765   20.1042    1.6863 C   0  0  0  0  0  0  0  0  0  0  0  0
    3.7504   21.0979    2.5494 C   0  0  0  0  0  0  0  0  0  0  0  0
    2.9322   18.6804    2.0644 C   0  0  0  0  0  0  0  0  0  0  0  0
    3.6897   18.2000    3.2941 C   0  0  0  0  0  0  0  0  0  0  0  0
    2.2406   17.7590    1.2764 C   0  0  0  0  0  0  0  0  0  0  0  0
    0.8625   17.3507   -0.6222 N   0  0  0  0  0  0  0  0  0  0  0  0
    0.8273   15.9159   -0.2468 C   0  0  0  0  0  0  0  0  0  0  0  0
   -1.7032   18.8181   -4.7294 H   0  0  0  0  0  0  0  0  0  0  0  0
  1  2  1  0  0  0
  1  3  2  0  0  0
  2  4  2  0  0  0
  2  5  1  0  0  0
  3  8  1  0  0  0
  3 18  1  0  0  0
  5  6  1  0  0  0
  6  7  2  0  0  0
  6  8  1  0  0  0
  8  9  2  0  0  0
  9 10  1  0  0  0
 10 11  2  0  0  0
 10 12  1  0  0  0
 11 13  1  0  0  0
 12 17  2  0  0  0
 12 18  1  0  0  0
 13 14  1  0  0  0
 13 15  2  0  0  0
 15 16  1  0  0  0
 15 17  1  0  0  0
 18 19  1  0  0  0
  5 20  1  0  0  0
M  END
> <minimizedAffinity>
-8.02163

$$$$
2CCC_LFN_A_1067


 20 22  0  0  0  0  0  0  0  0999 V2000
   -2.6668   18.3308   -3.3387 N   0  0  0  0  0  0  0  0  0  0  0  0
   -3.0504   17.2239   -4.0066 C   0  0  0  0  0  0  0  0  0  0  0  0
   -2.1726   18.2196   -2.0525 C   0  0  0  0  0  0  0  0  0  0  0  0
   -3.5055   17.3524   -5.1714 O   0  0  0  0  0  0  0  0  0  0  0  0
   -2.9444   15.9796   -3.4645 N   0  0  0  0  0  0  0  0  0  0  0  0
   -2.5023   15.7386   -2.2334 C   0  0  0  0  0  0  0  0  0  0  0  0
   -2.4324   14.5708   -1.7730 O   0  0  0  0  0  0  0  0  0  0  0  0
   -2.0498   16.8852   -1.4221 C   0  0  0  0  0  0  0  0  0  0  0  0
   -1.5722   16.7409   -0.1521 N   0  0  0  0  0  0  0  0  0  0  0  0
   -1.1711   17.8436    0.5215 C   0  0  0  0  0  0  0  0  0  0  0  0
   -0.6641   17.7566    1.8103 C   0  0  0  0  0  0  0  0  0  0  0  0
   -1.2887   19.1829   -0.1324 C   0  0  0  0  0  0  0  0  0  0  0  0
   -0.2661   18.9081    2.4911 C   0  0  0  0  0  0  0  0  0  0  0  0
    0.2973   18.7921    3.9055 C   0  0  0  0  0  0  0  0  0  0  0  0
   -0.3675   20.2293    1.8460 C   0  0  0  0  0  0  0  0  0  0  0  0
    0.0553   21.4776    2.6072 C   0  0  0  0  0  0  0  0  0  0  0  0
   -0.8940   20.3510    0.5589 C   0  0  0  0  0  0  0  0  0  0  0  0
   -1.7775   19.2812   -1.3763 N   0  0  0  0  0  0  0  0  0  0  0  0
   -1.8892   20.6126   -2.0209 C   0  0  0  0  0  0  0  0  0  0  0  0
   -3.2115   15.2105   -4.0180 H   0  0  0  0  0  0  0  0  0  0  0  0
  1  2  1  0  0  0
  1  3  2  0  0  0
  2  4  2  0  0  0
  2  5  1  0  0  0
  3  8  1  0  0  0
  3 18  1  0  0  0
  5  6  1  0  0  0
  6  7  2  0  0  0
  6  8  1  0  0  0
  8  9  2  0  0  0
  9 10  1  0  0  0
 10 11  2  0  0  0
 10 12  1  0  0  0
 11 13  1  0  0  0
 12 17  2  0  0  0
 12 18  1  0  0  0
 13 14  1  0  0  0
 13 15  2  0  0  0
 15 16  1  0  0  0
 15 17  1  0  0  0
 18 19  1  0  0  0
  5 20  1  0  0  0
M  END
> <minimizedAffinity>
-7.90355

$$$$
2CCC_LFN_A_1067


 20 22  0  0  0  0  0  0  0  0999 V2000
   -2.5280   17.2701   -2.6037 N   0  0  0  0  0  0  0  0  0  0  0  0
   -3.2651   17.5981   -3.6842 C   0  0  0  0  0  0  0  0  0  0  0  0
   -2.1520   18.2516   -1.7058 C   0  0  0  0  0  0  0  0  0  0  0  0
   -3.5862   16.6890   -4.4910 O   0  0  0  0  0  0  0  0  0  0  0  0
   -3.6811   18.8736   -3.9153 N   0  0  0  0  0  0  0  0  0  0  0  0
   -3.3737   19.9095   -3.1397 C   0  0  0  0  0  0  0  0  0  0  0  0
   -3.7737   21.0724   -3.4008 O   0  0  0  0  0  0  0  0  0  0  0  0
   -2.5755   19.6537   -1.9251 C   0  0  0  0  0  0  0  0  0  0  0  0
   -2.2161   20.6474   -1.0620 N   0  0  0  0  0  0  0  0  0  0  0  0
   -1.4888   20.3270    0.0330 C   0  0  0  0  0  0  0  0  0  0  0  0
   -1.1062   21.2930    0.9527 C   0  0  0  0  0  0  0  0  0  0  0  0
   -1.0795   18.9052    0.2483 C   0  0  0  0  0  0  0  0  0  0  0  0
   -0.3470   20.9422    2.0699 C   0  0  0  0  0  0  0  0  0  0  0  0
    0.0576   22.0174    3.0757 C   0  0  0  0  0  0  0  0  0  0  0  0
    0.0478   19.5400    2.2937 C   0  0  0  0  0  0  0  0  0  0  0  0
    0.8897   19.1755    3.5082 C   0  0  0  0  0  0  0  0  0  0  0  0
   -0.3032   18.5496    1.3749 C   0  0  0  0  0  0  0  0  0  0  0  0
   -1.4414   17.9624   -0.6326 N   0  0  0  0  0  0  0  0  0  0  0  0
   -1.0345   16.5530   -0.4121 C   0  0  0  0  0  0  0  0  0  0  0  0
   -4.2444   19.0396   -4.7055 H   0  0  0  0  0  0  0  0  0  0  0  0
  1  2  1  0  0  0
  1  3  2  0  0  0
  2  4  2  0  0  0
  2  5  1  0  0  0
  3  8  1  0  0  0
  3 18  1  0  0  0
  5  6  1  0  0  0
  6  7  2  0  0  0
  6  8  1  0  0  0
  8  9  2  0  0  0
  9 10  1  0  0  0
 10 11  2  0  0  0
 10 12  1  0  0  0
 11 13  1  0  0  0
 12 17  2  0  0  0
 12 18  1  0  0  0
 13 14  1  0  0  0
 13 15  2  0  0  0
 15 16  1  0  0  0
 15 17  1  0  0  0
 18 19  1  0  0  0
  5 20  1  0  0  0
M  END
> <minimizedAffinity>
-7.89398

$$$$
