1M83_ATP_A_400


 39 41  0  0  0  0  0  0  0  0999 V2000
   55.7257   23.6179   36.8082 C   0  0  0  0  0  0  0  0  0  0  0  0
   55.4155   24.4780   35.6923 O   0  0  0  0  0  0  0  0  0  0  0  0
   55.8276   24.5757   38.0177 C   0  0  0  0  0  0  0  0  0  0  0  0
   57.1872   24.9489   38.2461 O   0  0  0  0  0  0  0  0  0  0  0  0
   54.9576   25.7079   37.4860 C   0  0  0  0  0  0  0  0  0  0  0  0
   54.9555   26.9451   38.1588 O   0  0  0  0  0  0  0  0  0  0  0  0
   55.4148   25.8233   36.0223 C   0  0  0  0  0  0  0  0  0  0  0  0
   57.5652   25.3094   37.4287 H   0  0  0  0  0  0  0  0  0  0  0  0
   55.8437   27.3334   38.1244 H   0  0  0  0  0  0  0  0  0  0  0  0
   54.3584   26.4571   35.1183 N   0  0  0  0  0  0  0  0  0  0  0  0
   53.0368   26.0495   34.9798 C   0  0  0  0  0  0  0  0  0  0  0  0
   52.3397   26.8139   34.0888 N   0  0  0  0  0  0  0  0  0  0  0  0
   53.2666   27.7271   33.6491 C   0  0  0  0  0  0  0  0  0  0  0  0
   53.1382   28.8085   32.6863 C   0  0  0  0  0  0  0  0  0  0  0  0
   52.0249   29.1009   32.0213 N   0  0  0  0  0  0  0  0  0  0  0  0
   54.2901   29.5675   32.4675 N   0  0  0  0  0  0  0  0  0  0  0  0
   55.5223   29.3333   33.1177 C   0  0  0  0  0  0  0  0  0  0  0  0
   55.6274   28.3013   34.0387 N   0  0  0  0  0  0  0  0  0  0  0  0
   54.5192   27.5195   34.2843 C   0  0  0  0  0  0  0  0  0  0  0  0
   51.2089   28.5705   32.1701 H   0  0  0  0  0  0  0  0  0  0  0  0
   52.0163   29.8479   31.3800 H   0  0  0  0  0  0  0  0  0  0  0  0
   54.8545   22.4362   36.8792 C   0  0  0  0  0  0  0  0  0  0  0  0
   53.5397   22.7586   36.2936 O   0  0  0  0  0  0  0  0  0  0  0  0
   52.1851   22.7368   37.0751 P   0  0  0  0  0  0  0  0  0  0  0  0
   52.3525   23.5793   38.2766 O   0  0  0  0  0  0  0  0  0  0  0  0
   51.7645   21.3521   37.2665 O   0  0  0  0  0  0  0  0  0  0  0  0
   50.9244   21.3333   37.7510 H   0  0  0  0  0  0  0  0  0  0  0  0
   51.1118   23.5231   36.1428 O   0  0  0  0  0  0  0  0  0  0  0  0
   50.1814   23.0751   34.9002 P   0  0  0  0  0  0  0  0  0  0  0  0
   50.8756   23.3863   33.6296 O   0  0  0  0  0  0  0  0  0  0  0  0
   49.9751   21.6185   34.9510 O   0  0  0  0  0  0  0  0  0  0  0  0
   49.4168   21.3449   34.2065 H   0  0  0  0  0  0  0  0  0  0  0  0
   48.7912   23.7741   35.1509 O   0  0  0  0  0  0  0  0  0  0  0  0
   47.6572   23.6437   36.2740 P   0  0  0  0  0  0  0  0  0  0  0  0
   48.0005   22.5136   37.1762 O   0  0  0  0  0  0  0  0  0  0  0  0
   46.3598   23.3433   35.6428 O   0  0  0  0  0  0  0  0  0  0  0  0
   47.6206   24.9309   37.0251 O   0  0  0  0  0  0  0  0  0  0  0  0
   45.6773   23.2655   36.3276 H   0  0  0  0  0  0  0  0  0  0  0  0
   46.9408   24.8833   37.7153 H   0  0  0  0  0  0  0  0  0  0  0  0
 34 35  2  0  0  0
 34 36  1  0  0  0
 34 37  1  0  0  0
 34 33  1  0  0  0
 29 30  2  0  0  0
 29 31  1  0  0  0
 29 33  1  0  0  0
 29 28  1  0  0  0
 24 25  2  0  0  0
 24 26  1  0  0  0
 24 28  1  0  0  0
 24 23  1  0  0  0
 23 22  1  0  0  0
 22  1  1  0  0  0
  1  2  1  0  0  0
  1  3  1  0  0  0
  2  7  1  0  0  0
  3  4  1  0  0  0
  3  5  1  0  0  0
  5  6  1  0  0  0
  5  7  1  0  0  0
  7 10  1  0  0  0
 10 11  1  0  0  0
 10 19  1  0  0  0
 11 12  2  0  0  0
 12 13  1  0  0  0
 13 14  1  0  0  0
 13 19  2  0  0  0
 14 15  1  0  0  0
 14 16  2  0  0  0
 16 17  1  0  0  0
 17 18  2  0  0  0
 18 19  1  0  0  0
 36 38  1  0  0  0
 37 39  1  0  0  0
 31 32  1  0  0  0
 26 27  1  0  0  0
  4  8  1  0  0  0
  6  9  1  0  0  0
 15 20  1  0  0  0
 15 21  1  0  0  0
M  END
> <minimizedAffinity>
-11.71866

$$$$
1M83_ATP_A_400


 39 41  0  0  0  0  0  0  0  0999 V2000
   54.0800   23.1787   37.4897 C   0  0  0  0  0  0  0  0  0  0  0  0
   54.0876   23.8945   36.2372 O   0  0  0  0  0  0  0  0  0  0  0  0
   54.7202   24.1594   38.4992 C   0  0  0  0  0  0  0  0  0  0  0  0
   56.1162   23.8919   38.6387 O   0  0  0  0  0  0  0  0  0  0  0  0
   54.4110   25.4647   37.7766 C   0  0  0  0  0  0  0  0  0  0  0  0
   55.0340   26.6517   38.2081 O   0  0  0  0  0  0  0  0  0  0  0  0
   54.7281   25.1206   36.3118 C   0  0  0  0  0  0  0  0  0  0  0  0
   56.5361   23.9010   37.7644 H   0  0  0  0  0  0  0  0  0  0  0  0
   55.9939   26.5736   38.0920 H   0  0  0  0  0  0  0  0  0  0  0  0
   53.9922   26.0182   35.3180 N   0  0  0  0  0  0  0  0  0  0  0  0
   52.6931   25.8468   34.8544 C   0  0  0  0  0  0  0  0  0  0  0  0
   52.3183   26.8133   33.9658 N   0  0  0  0  0  0  0  0  0  0  0  0
   53.4312   27.6120   33.8659 C   0  0  0  0  0  0  0  0  0  0  0  0
   53.6634   28.8067   33.0710 C   0  0  0  0  0  0  0  0  0  0  0  0
   52.7745   29.3505   32.2456 N   0  0  0  0  0  0  0  0  0  0  0  0
   54.9242   29.3919   33.2074 N   0  0  0  0  0  0  0  0  0  0  0  0
   55.9389   28.8879   34.0513 C   0  0  0  0  0  0  0  0  0  0  0  0
   55.7000   27.7504   34.8085 N   0  0  0  0  0  0  0  0  0  0  0  0
   54.4724   27.1325   34.7035 C   0  0  0  0  0  0  0  0  0  0  0  0
   51.8837   28.9437   32.1441 H   0  0  0  0  0  0  0  0  0  0  0  0
   53.0070   30.1600   31.7358 H   0  0  0  0  0  0  0  0  0  0  0  0
   52.7794   22.5629   37.7887 C   0  0  0  0  0  0  0  0  0  0  0  0
   52.1295   22.1505   36.5304 O   0  0  0  0  0  0  0  0  0  0  0  0
   50.8534   22.8208   35.9236 P   0  0  0  0  0  0  0  0  0  0  0  0
   50.8590   22.5522   34.4713 O   0  0  0  0  0  0  0  0  0  0  0  0
   50.7902   24.2127   36.3593 O   0  0  0  0  0  0  0  0  0  0  0  0
   50.0000   24.6330   35.9853 H   0  0  0  0  0  0  0  0  0  0  0  0
   49.5845   21.9933   36.5106 O   0  0  0  0  0  0  0  0  0  0  0  0
   48.0695   21.7701   35.9956 P   0  0  0  0  0  0  0  0  0  0  0  0
   47.2496   22.9497   36.3555 O   0  0  0  0  0  0  0  0  0  0  0  0
   48.0692   21.6574   34.5279 O   0  0  0  0  0  0  0  0  0  0  0  0
   47.1613   21.5232   34.2141 H   0  0  0  0  0  0  0  0  0  0  0  0
   47.6302   20.3790   36.5922 O   0  0  0  0  0  0  0  0  0  0  0  0
   46.3261   19.8479   37.3549 P   0  0  0  0  0  0  0  0  0  0  0  0
   45.9983   18.4863   36.8573 O   0  0  0  0  0  0  0  0  0  0  0  0
   45.1809   20.7274   37.0599 O   0  0  0  0  0  0  0  0  0  0  0  0
   46.6396   19.8199   38.8120 O   0  0  0  0  0  0  0  0  0  0  0  0
   44.3944   20.4008   37.5243 H   0  0  0  0  0  0  0  0  0  0  0  0
   45.8661   19.5012   39.3030 H   0  0  0  0  0  0  0  0  0  0  0  0
 34 35  2  0  0  0
 34 36  1  0  0  0
 34 37  1  0  0  0
 34 33  1  0  0  0
 29 30  2  0  0  0
 29 31  1  0  0  0
 29 33  1  0  0  0
 29 28  1  0  0  0
 24 25  2  0  0  0
 24 26  1  0  0  0
 24 28  1  0  0  0
 24 23  1  0  0  0
 23 22  1  0  0  0
 22  1  1  0  0  0
  1  2  1  0  0  0
  1  3  1  0  0  0
  2  7  1  0  0  0
  3  4  1  0  0  0
  3  5  1  0  0  0
  5  6  1  0  0  0
  5  7  1  0  0  0
  7 10  1  0  0  0
 10 11  1  0  0  0
 10 19  1  0  0  0
 11 12  2  0  0  0
 12 13  1  0  0  0
 13 14  1  0  0  0
 13 19  2  0  0  0
 14 15  1  0  0  0
 14 16  2  0  0  0
 16 17  1  0  0  0
 17 18  2  0  0  0
 18 19  1  0  0  0
 36 38  1  0  0  0
 37 39  1  0  0  0
 31 32  1  0  0  0
 26 27  1  0  0  0
  4  8  1  0  0  0
  6  9  1  0  0  0
 15 20  1  0  0  0
 15 21  1  0  0  0
M  END
> <minimizedAffinity>
-10.15727

$$$$
1M83_ATP_A_400


 39 41  0  0  0  0  0  0  0  0999 V2000
   56.1731   23.3360   36.7712 C   0  0  0  0  0  0  0  0  0  0  0  0
   56.2839   24.3540   35.7550 O   0  0  0  0  0  0  0  0  0  0  0  0
   56.4526   24.0810   38.0968 C   0  0  0  0  0  0  0  0  0  0  0  0
   57.8265   23.9486   38.4640 O   0  0  0  0  0  0  0  0  0  0  0  0
   56.0645   25.4866   37.6548 C   0  0  0  0  0  0  0  0  0  0  0  0
   56.3957   26.5803   38.4778 O   0  0  0  0  0  0  0  0  0  0  0  0
   56.6888   25.5817   36.2527 C   0  0  0  0  0  0  0  0  0  0  0  0
   58.3874   24.2374   37.7272 H   0  0  0  0  0  0  0  0  0  0  0  0
   57.3604   26.6468   38.5543 H   0  0  0  0  0  0  0  0  0  0  0  0
   56.0024   26.6197   35.3660 N   0  0  0  0  0  0  0  0  0  0  0  0
   56.5714   27.7846   34.8647 C   0  0  0  0  0  0  0  0  0  0  0  0
   55.7006   28.5131   34.1064 N   0  0  0  0  0  0  0  0  0  0  0  0
   54.5416   27.7770   34.1452 C   0  0  0  0  0  0  0  0  0  0  0  0
   53.2466   28.0287   33.5348 C   0  0  0  0  0  0  0  0  0  0  0  0
   52.9528   29.0945   32.7965 N   0  0  0  0  0  0  0  0  0  0  0  0
   52.2662   27.0619   33.7688 N   0  0  0  0  0  0  0  0  0  0  0  0
   52.4761   25.8995   34.5438 C   0  0  0  0  0  0  0  0  0  0  0  0
   53.7194   25.6702   35.1147 N   0  0  0  0  0  0  0  0  0  0  0  0
   54.7184   26.5991   34.9177 C   0  0  0  0  0  0  0  0  0  0  0  0
   53.6385   29.7802   32.6271 H   0  0  0  0  0  0  0  0  0  0  0  0
   52.0493   29.1980   32.4192 H   0  0  0  0  0  0  0  0  0  0  0  0
   54.9604   22.5175   36.6309 C   0  0  0  0  0  0  0  0  0  0  0  0
   53.8480   23.1575   37.3580 O   0  0  0  0  0  0  0  0  0  0  0  0
   52.9281   22.4357   38.3966 P   0  0  0  0  0  0  0  0  0  0  0  0
   52.6645   23.3888   39.4937 O   0  0  0  0  0  0  0  0  0  0  0  0
   53.5158   21.1446   38.7413 O   0  0  0  0  0  0  0  0  0  0  0  0
   52.9485   20.6929   39.3856 H   0  0  0  0  0  0  0  0  0  0  0  0
   51.4964   22.2192   37.6598 O   0  0  0  0  0  0  0  0  0  0  0  0
   50.9089   22.6623   36.2215 P   0  0  0  0  0  0  0  0  0  0  0  0
   50.5973   24.1100   36.2431 O   0  0  0  0  0  0  0  0  0  0  0  0
   51.9365   22.4423   35.1907 O   0  0  0  0  0  0  0  0  0  0  0  0
   51.5880   22.7072   34.3251 H   0  0  0  0  0  0  0  0  0  0  0  0
   49.7147   21.6732   35.9395 O   0  0  0  0  0  0  0  0  0  0  0  0
   48.1244   21.8346   35.8421 P   0  0  0  0  0  0  0  0  0  0  0  0
   47.7513   22.0821   34.4249 O   0  0  0  0  0  0  0  0  0  0  0  0
   47.6900   22.9977   36.6362 O   0  0  0  0  0  0  0  0  0  0  0  0
   47.5145   20.5684   36.3388 O   0  0  0  0  0  0  0  0  0  0  0  0
   46.7265   23.0903   36.5734 H   0  0  0  0  0  0  0  0  0  0  0  0
   46.5479   20.6351   36.2923 H   0  0  0  0  0  0  0  0  0  0  0  0
 34 35  2  0  0  0
 34 36  1  0  0  0
 34 37  1  0  0  0
 34 33  1  0  0  0
 29 30  2  0  0  0
 29 31  1  0  0  0
 29 33  1  0  0  0
 29 28  1  0  0  0
 24 25  2  0  0  0
 24 26  1  0  0  0
 24 28  1  0  0  0
 24 23  1  0  0  0
 23 22  1  0  0  0
 22  1  1  0  0  0
  1  2  1  0  0  0
  1  3  1  0  0  0
  2  7  1  0  0  0
  3  4  1  0  0  0
  3  5  1  0  0  0
  5  6  1  0  0  0
  5  7  1  0  0  0
  7 10  1  0  0  0
 10 11  1  0  0  0
 10 19  1  0  0  0
 11 12  2  0  0  0
 12 13  1  0  0  0
 13 14  1  0  0  0
 13 19  2  0  0  0
 14 15  1  0  0  0
 14 16  2  0  0  0
 16 17  1  0  0  0
 17 18  2  0  0  0
 18 19  1  0  0  0
 36 38  1  0  0  0
 37 39  1  0  0  0
 31 32  1  0  0  0
 26 27  1  0  0  0
  4  8  1  0  0  0
  6  9  1  0  0  0
 15 20  1  0  0  0
 15 21  1  0  0  0
M  END
> <minimizedAffinity>
-9.58786

$$$$
1M83_ATP_A_400


 39 41  0  0  0  0  0  0  0  0999 V2000
   52.6056   26.4906   34.3109 C   0  0  0  0  0  0  0  0  0  0  0  0
   53.2738   26.4680   35.5893 O   0  0  0  0  0  0  0  0  0  0  0  0
   53.6341   27.1280   33.3485 C   0  0  0  0  0  0  0  0  0  0  0  0
   53.3953   28.5303   33.2198 O   0  0  0  0  0  0  0  0  0  0  0  0
   54.9060   26.7862   34.1146 C   0  0  0  0  0  0  0  0  0  0  0  0
   56.1185   27.3948   33.7371 O   0  0  0  0  0  0  0  0  0  0  0  0
   54.5123   27.0883   35.5701 C   0  0  0  0  0  0  0  0  0  0  0  0
   53.3786   28.9375   34.1000 H   0  0  0  0  0  0  0  0  0  0  0  0
   56.0522   28.3541   33.8644 H   0  0  0  0  0  0  0  0  0  0  0  0
   55.3595   26.3230   36.5857 N   0  0  0  0  0  0  0  0  0  0  0  0
   55.5114   26.6288   37.9330 C   0  0  0  0  0  0  0  0  0  0  0  0
   56.3405   25.7590   38.5812 N   0  0  0  0  0  0  0  0  0  0  0  0
   56.7267   24.8831   37.5962 C   0  0  0  0  0  0  0  0  0  0  0  0
   57.6119   23.7317   37.6556 C   0  0  0  0  0  0  0  0  0  0  0  0
   58.2434   23.3187   38.7500 N   0  0  0  0  0  0  0  0  0  0  0  0
   57.7907   23.0400   36.4554 N   0  0  0  0  0  0  0  0  0  0  0  0
   57.1714   23.4021   35.2383 C   0  0  0  0  0  0  0  0  0  0  0  0
   56.3242   24.4999   35.1991 N   0  0  0  0  0  0  0  0  0  0  0  0
   56.1207   25.2192   36.3571 C   0  0  0  0  0  0  0  0  0  0  0  0
   58.1224   23.8011   39.5997 H   0  0  0  0  0  0  0  0  0  0  0  0
   58.8320   22.5306   38.7109 H   0  0  0  0  0  0  0  0  0  0  0  0
   51.9798   25.2051   33.9698 C   0  0  0  0  0  0  0  0  0  0  0  0
   51.5835   24.5072   35.2074 O   0  0  0  0  0  0  0  0  0  0  0  0
   50.7015   23.2167   35.2608 P   0  0  0  0  0  0  0  0  0  0  0  0
   50.8949   22.4940   33.9874 O   0  0  0  0  0  0  0  0  0  0  0  0
   49.3393   23.5827   35.6371 O   0  0  0  0  0  0  0  0  0  0  0  0
   48.7881   22.7852   35.6716 H   0  0  0  0  0  0  0  0  0  0  0  0
   51.3598   22.2653   36.4014 O   0  0  0  0  0  0  0  0  0  0  0  0
   52.8040   22.2352   37.1251 P   0  0  0  0  0  0  0  0  0  0  0  0
   53.4999   20.9742   36.7805 O   0  0  0  0  0  0  0  0  0  0  0  0
   53.6221   23.3493   36.6187 O   0  0  0  0  0  0  0  0  0  0  0  0
   54.4905   23.3352   37.0507 H   0  0  0  0  0  0  0  0  0  0  0  0
   52.5083   22.5005   38.6503 O   0  0  0  0  0  0  0  0  0  0  0  0
   53.4127   22.5871   39.9690 P   0  0  0  0  0  0  0  0  0  0  0  0
   52.5858   23.1129   41.0865 O   0  0  0  0  0  0  0  0  0  0  0  0
   54.5289   23.5240   39.7497 O   0  0  0  0  0  0  0  0  0  0  0  0
   53.8987   21.2103   40.2700 O   0  0  0  0  0  0  0  0  0  0  0  0
   55.0729   23.5722   40.5514 H   0  0  0  0  0  0  0  0  0  0  0  0
   54.4517   21.2296   41.0667 H   0  0  0  0  0  0  0  0  0  0  0  0
 34 35  2  0  0  0
 34 36  1  0  0  0
 34 37  1  0  0  0
 34 33  1  0  0  0
 29 30  2  0  0  0
 29 31  1  0  0  0
 29 33  1  0  0  0
 29 28  1  0  0  0
 24 25  2  0  0  0
 24 26  1  0  0  0
 24 28  1  0  0  0
 24 23  1  0  0  0
 23 22  1  0  0  0
 22  1  1  0  0  0
  1  2  1  0  0  0
  1  3  1  0  0  0
  2  7  1  0  0  0
  3  4  1  0  0  0
  3  5  1  0  0  0
  5  6  1  0  0  0
  5  7  1  0  0  0
  7 10  1  0  0  0
 10 11  1  0  0  0
 10 19  1  0  0  0
 11 12  2  0  0  0
 12 13  1  0  0  0
 13 14  1  0  0  0
 13 19  2  0  0  0
 14 15  1  0  0  0
 14 16  2  0  0  0
 16 17  1  0  0  0
 17 18  2  0  0  0
 18 19  1  0  0  0
 36 38  1  0  0  0
 37 39  1  0  0  0
 31 32  1  0  0  0
 26 27  1  0  0  0
  4  8  1  0  0  0
  6  9  1  0  0  0
 15 20  1  0  0  0
 15 21  1  0  0  0
M  END
> <minimizedAffinity>
-9.48320

$$$$
1M83_ATP_A_400


 39 41  0  0  0  0  0  0  0  0999 V2000
   52.0645   23.6492   36.8504 C   0  0  0  0  0  0  0  0  0  0  0  0
   52.6433   24.9596   36.6797 O   0  0  0  0  0  0  0  0  0  0  0  0
   51.1745   23.4541   35.6012 C   0  0  0  0  0  0  0  0  0  0  0  0
   49.8234   23.8170   35.8890 O   0  0  0  0  0  0  0  0  0  0  0  0
   51.8861   24.4193   34.6612 C   0  0  0  0  0  0  0  0  0  0  0  0
   51.2689   24.7732   33.4458 O   0  0  0  0  0  0  0  0  0  0  0  0
   52.1600   25.6304   35.5682 C   0  0  0  0  0  0  0  0  0  0  0  0
   49.8002   24.7174   36.2491 H   0  0  0  0  0  0  0  0  0  0  0  0
   50.4375   25.2381   33.6287 H   0  0  0  0  0  0  0  0  0  0  0  0
   53.3266   26.4873   35.0788 N   0  0  0  0  0  0  0  0  0  0  0  0
   54.6422   26.4239   35.5229 C   0  0  0  0  0  0  0  0  0  0  0  0
   55.4545   27.3248   34.8965 N   0  0  0  0  0  0  0  0  0  0  0  0
   54.6091   27.9807   34.0354 C   0  0  0  0  0  0  0  0  0  0  0  0
   54.8738   29.0572   33.0951 C   0  0  0  0  0  0  0  0  0  0  0  0
   56.0607   29.6274   32.9128 N   0  0  0  0  0  0  0  0  0  0  0  0
   53.7762   29.5001   32.3535 N   0  0  0  0  0  0  0  0  0  0  0  0
   52.4745   28.9653   32.4782 C   0  0  0  0  0  0  0  0  0  0  0  0
   52.2390   27.9339   33.3755 N   0  0  0  0  0  0  0  0  0  0  0  0
   53.2896   27.4664   34.1354 C   0  0  0  0  0  0  0  0  0  0  0  0
   56.8391   29.3207   33.4317 H   0  0  0  0  0  0  0  0  0  0  0  0
   56.1613   30.3564   32.2588 H   0  0  0  0  0  0  0  0  0  0  0  0
   53.0579   22.6276   37.2106 C   0  0  0  0  0  0  0  0  0  0  0  0
   53.7854   23.0540   38.4208 O   0  0  0  0  0  0  0  0  0  0  0  0
   53.7365   22.3150   39.7983 P   0  0  0  0  0  0  0  0  0  0  0  0
   53.4357   20.8942   39.5293 O   0  0  0  0  0  0  0  0  0  0  0  0
   52.8477   23.0412   40.7004 O   0  0  0  0  0  0  0  0  0  0  0  0
   52.8140   22.5865   41.5565 H   0  0  0  0  0  0  0  0  0  0  0  0
   55.2550   22.3327   40.3758 O   0  0  0  0  0  0  0  0  0  0  0  0
   56.1762   23.4798   41.0435 P   0  0  0  0  0  0  0  0  0  0  0  0
   55.4909   24.0274   42.2367 O   0  0  0  0  0  0  0  0  0  0  0  0
   57.4441   22.8816   41.4923 O   0  0  0  0  0  0  0  0  0  0  0  0
   58.0007   23.5670   41.8941 H   0  0  0  0  0  0  0  0  0  0  0  0
   56.4980   24.4855   39.8734 O   0  0  0  0  0  0  0  0  0  0  0  0
   57.3283   24.3874   38.5075 P   0  0  0  0  0  0  0  0  0  0  0  0
   57.2084   25.6764   37.7775 O   0  0  0  0  0  0  0  0  0  0  0  0
   56.7635   23.3273   37.6536 O   0  0  0  0  0  0  0  0  0  0  0  0
   58.7484   24.1097   38.8656 O   0  0  0  0  0  0  0  0  0  0  0  0
   57.2702   23.2727   36.8283 H   0  0  0  0  0  0  0  0  0  0  0  0
   59.2791   24.0445   38.0562 H   0  0  0  0  0  0  0  0  0  0  0  0
 34 35  2  0  0  0
 34 36  1  0  0  0
 34 37  1  0  0  0
 34 33  1  0  0  0
 29 30  2  0  0  0
 29 31  1  0  0  0
 29 33  1  0  0  0
 29 28  1  0  0  0
 24 25  2  0  0  0
 24 26  1  0  0  0
 24 28  1  0  0  0
 24 23  1  0  0  0
 23 22  1  0  0  0
 22  1  1  0  0  0
  1  2  1  0  0  0
  1  3  1  0  0  0
  2  7  1  0  0  0
  3  4  1  0  0  0
  3  5  1  0  0  0
  5  6  1  0  0  0
  5  7  1  0  0  0
  7 10  1  0  0  0
 10 11  1  0  0  0
 10 19  1  0  0  0
 11 12  2  0  0  0
 12 13  1  0  0  0
 13 14  1  0  0  0
 13 19  2  0  0  0
 14 15  1  0  0  0
 14 16  2  0  0  0
 16 17  1  0  0  0
 17 18  2  0  0  0
 18 19  1  0  0  0
 36 38  1  0  0  0
 37 39  1  0  0  0
 31 32  1  0  0  0
 26 27  1  0  0  0
  4  8  1  0  0  0
  6  9  1  0  0  0
 15 20  1  0  0  0
 15 21  1  0  0  0
M  END
> <minimizedAffinity>
-9.36261

$$$$
1M83_ATP_A_400


 39 41  0  0  0  0  0  0  0  0999 V2000
   53.6648   23.6543   37.3938 C   0  0  0  0  0  0  0  0  0  0  0  0
   54.1302   24.3374   36.2113 O   0  0  0  0  0  0  0  0  0  0  0  0
   54.8724   23.6860   38.3588 C   0  0  0  0  0  0  0  0  0  0  0  0
   55.6249   22.4763   38.2570 O   0  0  0  0  0  0  0  0  0  0  0  0
   55.5861   24.9066   37.7912 C   0  0  0  0  0  0  0  0  0  0  0  0
   56.9032   25.1848   38.2049 O   0  0  0  0  0  0  0  0  0  0  0  0
   55.4688   24.6883   36.2736 C   0  0  0  0  0  0  0  0  0  0  0  0
   55.8685   22.3241   37.3305 H   0  0  0  0  0  0  0  0  0  0  0  0
   57.4873   24.4594   37.9338 H   0  0  0  0  0  0  0  0  0  0  0  0
   55.5801   25.9870   35.4763 N   0  0  0  0  0  0  0  0  0  0  0  0
   56.6671   26.8530   35.4546 C   0  0  0  0  0  0  0  0  0  0  0  0
   56.4630   27.9357   34.6483 N   0  0  0  0  0  0  0  0  0  0  0  0
   55.1956   27.7401   34.1563 C   0  0  0  0  0  0  0  0  0  0  0  0
   54.4042   28.5517   33.2464 C   0  0  0  0  0  0  0  0  0  0  0  0
   54.8059   29.7020   32.7147 N   0  0  0  0  0  0  0  0  0  0  0  0
   53.1350   28.0569   32.9381 N   0  0  0  0  0  0  0  0  0  0  0  0
   52.6134   26.8502   33.4556 C   0  0  0  0  0  0  0  0  0  0  0  0
   53.3834   26.0835   34.3180 N   0  0  0  0  0  0  0  0  0  0  0  0
   54.6411   26.5332   34.6578 C   0  0  0  0  0  0  0  0  0  0  0  0
   55.6991   30.0572   32.9273 H   0  0  0  0  0  0  0  0  0  0  0  0
   54.2101   30.1986   32.1084 H   0  0  0  0  0  0  0  0  0  0  0  0
   52.3498   24.1284   37.8479 C   0  0  0  0  0  0  0  0  0  0  0  0
   51.5103   24.4462   36.6774 O   0  0  0  0  0  0  0  0  0  0  0  0
   50.7545   23.3887   35.8076 P   0  0  0  0  0  0  0  0  0  0  0  0
   50.8331   22.0945   36.5149 O   0  0  0  0  0  0  0  0  0  0  0  0
   51.2556   23.4487   34.4378 O   0  0  0  0  0  0  0  0  0  0  0  0
   50.7896   22.7943   33.8941 H   0  0  0  0  0  0  0  0  0  0  0  0
   49.1853   23.8077   35.8475 O   0  0  0  0  0  0  0  0  0  0  0  0
   47.8085   22.9658   35.7720 P   0  0  0  0  0  0  0  0  0  0  0  0
   47.6856   22.3444   34.4334 O   0  0  0  0  0  0  0  0  0  0  0  0
   47.8500   21.8806   36.7657 O   0  0  0  0  0  0  0  0  0  0  0  0
   47.0249   21.3722   36.7239 H   0  0  0  0  0  0  0  0  0  0  0  0
   46.6799   23.9785   36.2018 O   0  0  0  0  0  0  0  0  0  0  0  0
   45.1542   24.2057   35.7714 P   0  0  0  0  0  0  0  0  0  0  0  0
   44.2943   23.2586   36.5279 O   0  0  0  0  0  0  0  0  0  0  0  0
   44.9916   23.9191   34.3349 O   0  0  0  0  0  0  0  0  0  0  0  0
   44.8028   25.6176   36.0958 O   0  0  0  0  0  0  0  0  0  0  0  0
   44.0660   24.0584   34.0802 H   0  0  0  0  0  0  0  0  0  0  0  0
   43.8810   25.7870   35.8457 H   0  0  0  0  0  0  0  0  0  0  0  0
 34 35  2  0  0  0
 34 36  1  0  0  0
 34 37  1  0  0  0
 34 33  1  0  0  0
 29 30  2  0  0  0
 29 31  1  0  0  0
 29 33  1  0  0  0
 29 28  1  0  0  0
 24 25  2  0  0  0
 24 26  1  0  0  0
 24 28  1  0  0  0
 24 23  1  0  0  0
 23 22  1  0  0  0
 22  1  1  0  0  0
  1  2  1  0  0  0
  1  3  1  0  0  0
  2  7  1  0  0  0
  3  4  1  0  0  0
  3  5  1  0  0  0
  5  6  1  0  0  0
  5  7  1  0  0  0
  7 10  1  0  0  0
 10 11  1  0  0  0
 10 19  1  0  0  0
 11 12  2  0  0  0
 12 13  1  0  0  0
 13 14  1  0  0  0
 13 19  2  0  0  0
 14 15  1  0  0  0
 14 16  2  0  0  0
 16 17  1  0  0  0
 17 18  2  0  0  0
 18 19  1  0  0  0
 36 38  1  0  0  0
 37 39  1  0  0  0
 31 32  1  0  0  0
 26 27  1  0  0  0
  4  8  1  0  0  0
  6  9  1  0  0  0
 15 20  1  0  0  0
 15 21  1  0  0  0
M  END
> <minimizedAffinity>
-9.34066

$$$$
1M83_ATP_A_400


 39 41  0  0  0  0  0  0  0  0999 V2000
   53.2061   26.5335   34.6747 C   0  0  0  0  0  0  0  0  0  0  0  0
   53.5754   26.3080   36.0510 O   0  0  0  0  0  0  0  0  0  0  0  0
   54.5456   26.8174   33.9566 C   0  0  0  0  0  0  0  0  0  0  0  0
   54.7757   28.2241   33.8668 O   0  0  0  0  0  0  0  0  0  0  0  0
   55.4793   26.0996   34.9233 C   0  0  0  0  0  0  0  0  0  0  0  0
   56.8687   26.3005   34.8114 O   0  0  0  0  0  0  0  0  0  0  0  0
   54.9233   26.5130   36.2961 C   0  0  0  0  0  0  0  0  0  0  0  0
   54.7144   28.6188   34.7507 H   0  0  0  0  0  0  0  0  0  0  0  0
   57.0750   27.2334   34.9792 H   0  0  0  0  0  0  0  0  0  0  0  0
   55.2837   25.5252   37.4048 N   0  0  0  0  0  0  0  0  0  0  0  0
   56.5641   25.1899   37.8291 C   0  0  0  0  0  0  0  0  0  0  0  0
   56.5616   24.2703   38.8382 N   0  0  0  0  0  0  0  0  0  0  0  0
   55.2274   24.0169   39.0435 C   0  0  0  0  0  0  0  0  0  0  0  0
   54.5738   23.1211   39.9834 C   0  0  0  0  0  0  0  0  0  0  0  0
   55.2099   22.3394   40.8503 N   0  0  0  0  0  0  0  0  0  0  0  0
   53.1780   23.1049   39.9373 N   0  0  0  0  0  0  0  0  0  0  0  0
   52.4105   23.8912   39.0493 C   0  0  0  0  0  0  0  0  0  0  0  0
   53.0486   24.7460   38.1625 N   0  0  0  0  0  0  0  0  0  0  0  0
   54.4261   24.7929   38.1653 C   0  0  0  0  0  0  0  0  0  0  0  0
   56.1936   22.3453   40.8888 H   0  0  0  0  0  0  0  0  0  0  0  0
   54.6971   21.7545   41.4539 H   0  0  0  0  0  0  0  0  0  0  0  0
   52.2961   25.5049   34.1508 C   0  0  0  0  0  0  0  0  0  0  0  0
   51.8139   24.6628   35.2617 O   0  0  0  0  0  0  0  0  0  0  0  0
   50.8755   23.4223   35.0989 P   0  0  0  0  0  0  0  0  0  0  0  0
   51.3211   22.3988   36.0660 O   0  0  0  0  0  0  0  0  0  0  0  0
   50.8161   23.0481   33.6890 O   0  0  0  0  0  0  0  0  0  0  0  0
   50.2350   22.2788   33.5829 H   0  0  0  0  0  0  0  0  0  0  0  0
   49.4086   23.8934   35.6143 O   0  0  0  0  0  0  0  0  0  0  0  0
   47.9670   23.1666   35.6774 P   0  0  0  0  0  0  0  0  0  0  0  0
   47.8309   22.2449   34.5262 O   0  0  0  0  0  0  0  0  0  0  0  0
   47.8850   22.3607   36.9065 O   0  0  0  0  0  0  0  0  0  0  0  0
   47.0207   21.9223   36.9486 H   0  0  0  0  0  0  0  0  0  0  0  0
   46.9178   24.3373   35.7902 O   0  0  0  0  0  0  0  0  0  0  0  0
   45.3229   24.4048   35.9184 P   0  0  0  0  0  0  0  0  0  0  0  0
   44.8100   23.0535   36.2647 O   0  0  0  0  0  0  0  0  0  0  0  0
   44.7332   24.7973   34.6261 O   0  0  0  0  0  0  0  0  0  0  0  0
   45.0012   25.3866   36.9929 O   0  0  0  0  0  0  0  0  0  0  0  0
   43.7676   24.8365   34.7100 H   0  0  0  0  0  0  0  0  0  0  0  0
   44.0387   25.4502   37.0951 H   0  0  0  0  0  0  0  0  0  0  0  0
 34 35  2  0  0  0
 34 36  1  0  0  0
 34 37  1  0  0  0
 34 33  1  0  0  0
 29 30  2  0  0  0
 29 31  1  0  0  0
 29 33  1  0  0  0
 29 28  1  0  0  0
 24 25  2  0  0  0
 24 26  1  0  0  0
 24 28  1  0  0  0
 24 23  1  0  0  0
 23 22  1  0  0  0
 22  1  1  0  0  0
  1  2  1  0  0  0
  1  3  1  0  0  0
  2  7  1  0  0  0
  3  4  1  0  0  0
  3  5  1  0  0  0
  5  6  1  0  0  0
  5  7  1  0  0  0
  7 10  1  0  0  0
 10 11  1  0  0  0
 10 19  1  0  0  0
 11 12  2  0  0  0
 12 13  1  0  0  0
 13 14  1  0  0  0
 13 19  2  0  0  0
 14 15  1  0  0  0
 14 16  2  0  0  0
 16 17  1  0  0  0
 17 18  2  0  0  0
 18 19  1  0  0  0
 36 38  1  0  0  0
 37 39  1  0  0  0
 31 32  1  0  0  0
 26 27  1  0  0  0
  4  8  1  0  0  0
  6  9  1  0  0  0
 15 20  1  0  0  0
 15 21  1  0  0  0
M  END
> <minimizedAffinity>
-9.33217

$$$$
1M83_ATP_A_400


 39 41  0  0  0  0  0  0  0  0999 V2000
   53.6465   25.8987   35.9620 C   0  0  0  0  0  0  0  0  0  0  0  0
   53.3789   25.4234   37.2976 O   0  0  0  0  0  0  0  0  0  0  0  0
   55.1239   25.5214   35.7062 C   0  0  0  0  0  0  0  0  0  0  0  0
   55.9800   26.6251   36.0042 O   0  0  0  0  0  0  0  0  0  0  0  0
   55.2388   24.3669   36.6939 C   0  0  0  0  0  0  0  0  0  0  0  0
   56.5128   23.8508   37.0005 O   0  0  0  0  0  0  0  0  0  0  0  0
   54.4986   24.9069   37.9288 C   0  0  0  0  0  0  0  0  0  0  0  0
   55.8060   26.9348   36.9068 H   0  0  0  0  0  0  0  0  0  0  0  0
   57.0471   24.5400   37.4253 H   0  0  0  0  0  0  0  0  0  0  0  0
   53.9705   23.7974   38.8371 N   0  0  0  0  0  0  0  0  0  0  0  0
   52.7770   23.1016   38.6837 C   0  0  0  0  0  0  0  0  0  0  0  0
   52.5796   22.1707   39.6627 N   0  0  0  0  0  0  0  0  0  0  0  0
   53.6895   22.2988   40.4615 C   0  0  0  0  0  0  0  0  0  0  0  0
   54.0642   21.5871   41.6724 C   0  0  0  0  0  0  0  0  0  0  0  0
   53.3341   20.6367   42.2477 N   0  0  0  0  0  0  0  0  0  0  0  0
   55.2818   21.9614   42.2452 N   0  0  0  0  0  0  0  0  0  0  0  0
   56.1259   22.9630   41.7159 C   0  0  0  0  0  0  0  0  0  0  0  0
   55.7575   23.6289   40.5561 N   0  0  0  0  0  0  0  0  0  0  0  0
   54.5609   23.2994   39.9567 C   0  0  0  0  0  0  0  0  0  0  0  0
   52.4748   20.3675   41.8498 H   0  0  0  0  0  0  0  0  0  0  0  0
   53.6528   20.2022   43.0716 H   0  0  0  0  0  0  0  0  0  0  0  0
   52.6107   25.5047   34.9965 C   0  0  0  0  0  0  0  0  0  0  0  0
   51.5702   24.7178   35.6849 O   0  0  0  0  0  0  0  0  0  0  0  0
   50.7234   23.5832   35.0204 P   0  0  0  0  0  0  0  0  0  0  0  0
   50.9750   22.3403   35.7775 O   0  0  0  0  0  0  0  0  0  0  0  0
   50.9826   23.5708   33.5838 O   0  0  0  0  0  0  0  0  0  0  0  0
   50.4593   22.8684   33.1669 H   0  0  0  0  0  0  0  0  0  0  0  0
   49.1674   23.9540   35.3044 O   0  0  0  0  0  0  0  0  0  0  0  0
   47.8952   23.0957   35.8094 P   0  0  0  0  0  0  0  0  0  0  0  0
   47.5355   22.0967   34.7769 O   0  0  0  0  0  0  0  0  0  0  0  0
   48.2612   22.3620   37.0319 O   0  0  0  0  0  0  0  0  0  0  0  0
   47.5000   21.8450   37.3389 H   0  0  0  0  0  0  0  0  0  0  0  0
   46.8002   24.1634   36.1901 O   0  0  0  0  0  0  0  0  0  0  0  0
   45.2948   24.4419   35.7203 P   0  0  0  0  0  0  0  0  0  0  0  0
   45.0455   25.9068   35.7458 O   0  0  0  0  0  0  0  0  0  0  0  0
   44.3522   23.8041   36.6567 O   0  0  0  0  0  0  0  0  0  0  0  0
   45.1498   23.9023   34.3383 O   0  0  0  0  0  0  0  0  0  0  0  0
   43.4426   23.9761   36.3671 H   0  0  0  0  0  0  0  0  0  0  0  0
   44.2451   24.0563   34.0243 H   0  0  0  0  0  0  0  0  0  0  0  0
 34 35  2  0  0  0
 34 36  1  0  0  0
 34 37  1  0  0  0
 34 33  1  0  0  0
 29 30  2  0  0  0
 29 31  1  0  0  0
 29 33  1  0  0  0
 29 28  1  0  0  0
 24 25  2  0  0  0
 24 26  1  0  0  0
 24 28  1  0  0  0
 24 23  1  0  0  0
 23 22  1  0  0  0
 22  1  1  0  0  0
  1  2  1  0  0  0
  1  3  1  0  0  0
  2  7  1  0  0  0
  3  4  1  0  0  0
  3  5  1  0  0  0
  5  6  1  0  0  0
  5  7  1  0  0  0
  7 10  1  0  0  0
 10 11  1  0  0  0
 10 19  1  0  0  0
 11 12  2  0  0  0
 12 13  1  0  0  0
 13 14  1  0  0  0
 13 19  2  0  0  0
 14 15  1  0  0  0
 14 16  2  0  0  0
 16 17  1  0  0  0
 17 18  2  0  0  0
 18 19  1  0  0  0
 36 38  1  0  0  0
 37 39  1  0  0  0
 31 32  1  0  0  0
 26 27  1  0  0  0
  4  8  1  0  0  0
  6  9  1  0  0  0
 15 20  1  0  0  0
 15 21  1  0  0  0
M  END
> <minimizedAffinity>
-9.28955

$$$$
1M83_ATP_A_400


 39 41  0  0  0  0  0  0  0  0999 V2000
   51.2354   23.5224   36.0088 C   0  0  0  0  0  0  0  0  0  0  0  0
   51.8108   24.8452   35.9860 O   0  0  0  0  0  0  0  0  0  0  0  0
   50.7294   23.2961   34.5655 C   0  0  0  0  0  0  0  0  0  0  0  0
   49.3439   23.6281   34.4643 O   0  0  0  0  0  0  0  0  0  0  0  0
   51.6520   24.2711   33.8447 C   0  0  0  0  0  0  0  0  0  0  0  0
   51.3871   24.6005   32.5014 O   0  0  0  0  0  0  0  0  0  0  0  0
   51.6390   25.4955   34.7750 C   0  0  0  0  0  0  0  0  0  0  0  0
   49.2029   24.5304   34.7913 H   0  0  0  0  0  0  0  0  0  0  0  0
   50.5278   25.0465   32.4413 H   0  0  0  0  0  0  0  0  0  0  0  0
   52.8769   26.3768   34.6144 N   0  0  0  0  0  0  0  0  0  0  0  0
   54.0013   26.3795   35.4315 C   0  0  0  0  0  0  0  0  0  0  0  0
   54.9409   27.2863   35.0329 N   0  0  0  0  0  0  0  0  0  0  0  0
   54.3747   27.8773   33.9299 C   0  0  0  0  0  0  0  0  0  0  0  0
   54.8810   28.9271   33.0612 C   0  0  0  0  0  0  0  0  0  0  0  0
   56.0537   29.5344   33.2129 N   0  0  0  0  0  0  0  0  0  0  0  0
   54.0438   29.3003   32.0073 N   0  0  0  0  0  0  0  0  0  0  0  0
   52.7778   28.7220   31.7649 C   0  0  0  0  0  0  0  0  0  0  0  0
   52.3112   27.7167   32.5991 N   0  0  0  0  0  0  0  0  0  0  0  0
   53.0986   27.3178   33.6577 C   0  0  0  0  0  0  0  0  0  0  0  0
   56.6493   29.2768   33.9533 H   0  0  0  0  0  0  0  0  0  0  0  0
   56.3267   30.2417   32.5849 H   0  0  0  0  0  0  0  0  0  0  0  0
   52.1123   22.5281   36.6434 C   0  0  0  0  0  0  0  0  0  0  0  0
   51.7881   22.4311   38.0791 O   0  0  0  0  0  0  0  0  0  0  0  0
   52.7555   22.8298   39.2415 P   0  0  0  0  0  0  0  0  0  0  0  0
   53.7244   21.7279   39.4101 O   0  0  0  0  0  0  0  0  0  0  0  0
   51.9683   23.2295   40.4041 O   0  0  0  0  0  0  0  0  0  0  0  0
   52.5642   23.4779   41.1281 H   0  0  0  0  0  0  0  0  0  0  0  0
   53.6247   24.0890   38.6954 O   0  0  0  0  0  0  0  0  0  0  0  0
   55.1835   24.2821   38.3168 P   0  0  0  0  0  0  0  0  0  0  0  0
   55.5608   25.7026   38.4986 O   0  0  0  0  0  0  0  0  0  0  0  0
   56.0074   23.4803   39.2361 O   0  0  0  0  0  0  0  0  0  0  0  0
   56.9445   23.5932   39.0125 H   0  0  0  0  0  0  0  0  0  0  0  0
   55.3362   23.6763   36.8698 O   0  0  0  0  0  0  0  0  0  0  0  0
   56.5725   23.4304   35.8822 P   0  0  0  0  0  0  0  0  0  0  0  0
   56.3010   22.2207   35.0625 O   0  0  0  0  0  0  0  0  0  0  0  0
   57.7967   23.1836   36.6648 O   0  0  0  0  0  0  0  0  0  0  0  0
   56.7035   24.6387   35.0190 O   0  0  0  0  0  0  0  0  0  0  0  0
   58.5417   23.0354   36.0615 H   0  0  0  0  0  0  0  0  0  0  0  0
   57.4468   24.5200   34.4073 H   0  0  0  0  0  0  0  0  0  0  0  0
 34 35  2  0  0  0
 34 36  1  0  0  0
 34 37  1  0  0  0
 34 33  1  0  0  0
 29 30  2  0  0  0
 29 31  1  0  0  0
 29 33  1  0  0  0
 29 28  1  0  0  0
 24 25  2  0  0  0
 24 26  1  0  0  0
 24 28  1  0  0  0
 24 23  1  0  0  0
 23 22  1  0  0  0
 22  1  1  0  0  0
  1  2  1  0  0  0
  1  3  1  0  0  0
  2  7  1  0  0  0
  3  4  1  0  0  0
  3  5  1  0  0  0
  5  6  1  0  0  0
  5  7  1  0  0  0
  7 10  1  0  0  0
 10 11  1  0  0  0
 10 19  1  0  0  0
 11 12  2  0  0  0
 12 13  1  0  0  0
 13 14  1  0  0  0
 13 19  2  0  0  0
 14 15  1  0  0  0
 14 16  2  0  0  0
 16 17  1  0  0  0
 17 18  2  0  0  0
 18 19  1  0  0  0
 36 38  1  0  0  0
 37 39  1  0  0  0
 31 32  1  0  0  0
 26 27  1  0  0  0
  4  8  1  0  0  0
  6  9  1  0  0  0
 15 20  1  0  0  0
 15 21  1  0  0  0
M  END
> <minimizedAffinity>
-9.14409

$$$$
1M83_ATP_A_400


 39 41  0  0  0  0  0  0  0  0999 V2000
   56.3008   23.8332   36.6479 C   0  0  0  0  0  0  0  0  0  0  0  0
   56.0004   24.6026   35.4651 O   0  0  0  0  0  0  0  0  0  0  0  0
   56.1858   24.8480   37.8087 C   0  0  0  0  0  0  0  0  0  0  0  0
   57.4694   25.3843   38.1322 O   0  0  0  0  0  0  0  0  0  0  0  0
   55.2483   25.8489   37.1447 C   0  0  0  0  0  0  0  0  0  0  0  0
   55.0484   27.1057   37.7477 O   0  0  0  0  0  0  0  0  0  0  0  0
   55.8212   25.9521   35.7214 C   0  0  0  0  0  0  0  0  0  0  0  0
   57.8782   25.7498   37.3321 H   0  0  0  0  0  0  0  0  0  0  0  0
   55.8877   27.5915   37.7686 H   0  0  0  0  0  0  0  0  0  0  0  0
   54.7881   26.4207   34.6977 N   0  0  0  0  0  0  0  0  0  0  0  0
   53.6232   25.7549   34.3349 C   0  0  0  0  0  0  0  0  0  0  0  0
   52.9058   26.4257   33.3866 N   0  0  0  0  0  0  0  0  0  0  0  0
   53.6587   27.5484   33.1433 C   0  0  0  0  0  0  0  0  0  0  0  0
   53.4295   28.6546   32.2286 C   0  0  0  0  0  0  0  0  0  0  0  0
   52.3838   28.7587   31.4145 N   0  0  0  0  0  0  0  0  0  0  0  0
   54.4028   29.6564   32.2304 N   0  0  0  0  0  0  0  0  0  0  0  0
   55.5524   29.6354   33.0513 C   0  0  0  0  0  0  0  0  0  0  0  0
   55.7539   28.5759   33.9237 N   0  0  0  0  0  0  0  0  0  0  0  0
   54.8241   27.5589   33.9540 C   0  0  0  0  0  0  0  0  0  0  0  0
   51.6937   28.0566   31.4075 H   0  0  0  0  0  0  0  0  0  0  0  0
   52.2996   29.5378   30.8185 H   0  0  0  0  0  0  0  0  0  0  0  0
   55.5625   22.5636   36.7072 C   0  0  0  0  0  0  0  0  0  0  0  0
   54.1255   22.8385   36.8943 O   0  0  0  0  0  0  0  0  0  0  0  0
   53.2736   22.3460   38.1099 P   0  0  0  0  0  0  0  0  0  0  0  0
   53.8692   22.9231   39.3321 O   0  0  0  0  0  0  0  0  0  0  0  0
   53.1329   20.8946   38.0398 O   0  0  0  0  0  0  0  0  0  0  0  0
   52.6050   20.5842   38.7920 H   0  0  0  0  0  0  0  0  0  0  0  0
   51.8199   23.0562   37.9615 O   0  0  0  0  0  0  0  0  0  0  0  0
   51.3265   24.4527   37.3160 P   0  0  0  0  0  0  0  0  0  0  0  0
   50.7706   25.3173   38.3821 O   0  0  0  0  0  0  0  0  0  0  0  0
   52.4834   25.1514   36.7327 O   0  0  0  0  0  0  0  0  0  0  0  0
   52.1918   25.9908   36.3437 H   0  0  0  0  0  0  0  0  0  0  0  0
   50.3582   24.0463   36.1408 O   0  0  0  0  0  0  0  0  0  0  0  0
   50.5292   23.2108   34.7854 P   0  0  0  0  0  0  0  0  0  0  0  0
   50.5173   24.1516   33.6349 O   0  0  0  0  0  0  0  0  0  0  0  0
   49.3968   22.2814   34.6241 O   0  0  0  0  0  0  0  0  0  0  0  0
   51.8299   22.4871   34.8664 O   0  0  0  0  0  0  0  0  0  0  0  0
   49.5059   21.7784   33.8019 H   0  0  0  0  0  0  0  0  0  0  0  0
   51.9631   21.9697   34.0568 H   0  0  0  0  0  0  0  0  0  0  0  0
 34 35  2  0  0  0
 34 36  1  0  0  0
 34 37  1  0  0  0
 34 33  1  0  0  0
 29 30  2  0  0  0
 29 31  1  0  0  0
 29 33  1  0  0  0
 29 28  1  0  0  0
 24 25  2  0  0  0
 24 26  1  0  0  0
 24 28  1  0  0  0
 24 23  1  0  0  0
 23 22  1  0  0  0
 22  1  1  0  0  0
  1  2  1  0  0  0
  1  3  1  0  0  0
  2  7  1  0  0  0
  3  4  1  0  0  0
  3  5  1  0  0  0
  5  6  1  0  0  0
  5  7  1  0  0  0
  7 10  1  0  0  0
 10 11  1  0  0  0
 10 19  1  0  0  0
 11 12  2  0  0  0
 12 13  1  0  0  0
 13 14  1  0  0  0
 13 19  2  0  0  0
 14 15  1  0  0  0
 14 16  2  0  0  0
 16 17  1  0  0  0
 17 18  2  0  0  0
 18 19  1  0  0  0
 36 38  1  0  0  0
 37 39  1  0  0  0
 31 32  1  0  0  0
 26 27  1  0  0  0
  4  8  1  0  0  0
  6  9  1  0  0  0
 15 20  1  0  0  0
 15 21  1  0  0  0
M  END
> <minimizedAffinity>
-8.99672

$$$$
