1A4W_QWE_H_373


 48 51  0  0  0  0  0  0  0  0999 V2000
   15.3858  -15.1166   20.8208 C   0  0  0  0  0  0  0  0  0  0  0  0
   16.3084  -13.9903   21.2961 C   0  0  0  0  0  0  0  0  0  0  0  0
   15.9525  -13.4350   22.3321 O   0  0  0  0  0  0  0  0  0  0  0  0
   17.4065  -13.5649   20.4988 N   0  0  0  0  0  0  0  0  0  0  0  0
   17.5030  -14.1681   19.0642 C   0  0  0  0  0  0  0  0  0  0  0  0
   18.9868  -14.5286   18.8962 C   0  0  0  0  0  0  0  0  0  0  0  0
   19.9885  -13.2995   19.2974 C   0  0  0  0  0  0  0  0  0  0  0  0
   19.7315  -12.7090   20.7712 C   0  0  0  0  0  0  0  0  0  0  0  0
   18.2773  -12.3758   20.9778 C   0  0  0  0  0  0  0  0  0  0  0  0
   17.1399  -13.3443   18.0472 C   0  0  0  0  0  0  0  0  0  0  0  0
   15.8686  -13.7754   17.2277 C   0  0  0  0  0  0  0  0  0  0  0  0
   14.4390  -12.0379   17.8481 O   0  0  0  0  0  0  0  0  0  0  0  0
   15.0813  -12.5433   16.9727 C   0  0  0  0  0  0  0  0  0  0  0  0
   14.3772  -12.9231   14.2952 S   0  0  0  0  0  0  0  0  0  0  0  0
   15.5557  -12.1644   13.2817 C   0  0  0  0  0  0  0  0  0  0  0  0
   15.0163  -11.9300   15.5874 C   0  0  0  0  0  0  0  0  0  0  0  0
   16.2810  -11.2195   13.9793 C   0  0  0  0  0  0  0  0  0  0  0  0
   15.9685  -11.0326   15.2825 N   0  0  0  0  0  0  0  0  0  0  0  0
   15.0946  -15.9288   22.0423 N   0  0  0  0  0  0  0  0  0  0  0  0
   14.1275  -16.2512   22.0089 H   0  0  0  0  0  0  0  0  0  0  0  0
   16.2566  -17.4368   22.1298 S   0  0  0  0  0  0  0  0  0  0  0  0
   16.6131  -17.8203   20.7519 O   0  0  0  0  0  0  0  0  0  0  0  0
   15.2548  -18.1554   22.9374 O   0  0  0  0  0  0  0  0  0  0  0  0
   17.9765  -16.8730   22.6385 C   0  0  0  0  0  0  0  0  0  0  0  0
   18.9230  -16.7235   21.5961 C   0  0  0  0  0  0  0  0  0  0  0  0
   20.1833  -16.2932   21.9242 C   0  0  0  0  0  0  0  0  0  0  0  0
   20.4988  -16.0013   23.2582 C   0  0  0  0  0  0  0  0  0  0  0  0
   19.5695  -16.1089   24.2874 C   0  0  0  0  0  0  0  0  0  0  0  0
   19.8269  -15.7276   25.5762 C   0  0  0  0  0  0  0  0  0  0  0  0
   18.8479  -15.8154   26.5432 C   0  0  0  0  0  0  0  0  0  0  0  0
   17.5864  -16.3457   26.2051 C   0  0  0  0  0  0  0  0  0  0  0  0
   17.2736  -16.7065   24.9182 C   0  0  0  0  0  0  0  0  0  0  0  0
   18.2388  -16.5763   23.9561 C   0  0  0  0  0  0  0  0  0  0  0  0
   21.0290  -15.0971   25.8988 N   0  0  0  0  0  0  0  0  0  0  0  0
   22.0485  -15.6707   26.8097 C   0  0  0  0  0  0  0  0  0  0  0  0
   21.1397  -13.4984   26.0185 C   0  0  0  0  0  0  0  0  0  0  0  0
   14.0873  -14.5750   20.2401 C   0  0  0  0  0  0  0  0  0  0  0  0
   12.9013  -14.7253   21.1947 C   0  0  0  0  0  0  0  0  0  0  0  0
   12.1812  -13.3908   21.3220 C   0  0  0  0  0  0  0  0  0  0  0  0
   12.9977  -12.5655   22.1862 N   0  0  0  0  0  0  0  0  0  0  0  0
   13.2581  -12.9761   23.0423 H   0  0  0  0  0  0  0  0  0  0  0  0
   13.4423  -11.3375   21.9857 C   0  0  0  0  0  0  0  0  0  0  0  0
   14.1933  -11.0763   20.9144 N   0  0  0  0  0  0  0  0  0  0  0  0
   13.0513  -10.3878   22.8249 N   0  0  0  0  0  0  0  0  0  0  0  0
   14.4647  -11.8073   20.3134 H   0  0  0  0  0  0  0  0  0  0  0  0
   14.4762  -10.1525   20.7249 H   0  0  0  0  0  0  0  0  0  0  0  0
   12.4973  -10.6181   23.6054 H   0  0  0  0  0  0  0  0  0  0  0  0
   13.3151   -9.4524   22.6673 H   0  0  0  0  0  0  0  0  0  0  0  0
 24 25  2  0  0  0
 24 33  1  0  0  0
 24 21  1  0  0  0
 25 26  1  0  0  0
 26 27  2  0  0  0
 27 28  1  0  0  0
 28 29  2  0  0  0
 28 33  1  0  0  0
 29 30  1  0  0  0
 29 34  1  0  0  0
 30 31  2  0  0  0
 31 32  1  0  0  0
 32 33  2  0  0  0
 34 35  1  0  0  0
 34 36  1  0  0  0
 21 22  2  0  0  0
 21 23  2  0  0  0
 19  1  1  0  0  0
  1 37  1  0  0  0
  1  2  1  0  0  0
 37 38  1  0  0  0
 38 39  1  0  0  0
 39 40  1  0  0  0
 40 42  1  0  0  0
 42 43  1  0  0  0
 42 44  2  0  0  0
  2  3  2  0  0  0
  4  5  1  0  0  0
  4  9  1  0  0  0
  5  6  1  0  0  0
  5 10  1  0  0  0
  6  7  1  0  0  0
  7  8  1  0  0  0
  8  9  1  0  0  0
 10 11  1  0  0  0
 14 15  1  0  0  0
 14 16  1  0  0  0
 12 13  2  0  0  0
 15 17  2  0  0  0
 16 13  1  0  0  0
 16 18  2  0  0  0
 17 18  1  0  0  0
 21 19  1  0  0  0
  2  4  1  0  0  0
 11 13  1  0  0  0
 19 20  1  0  0  0
 40 41  1  0  0  0
 43 45  1  0  0  0
 43 46  1  0  0  0
 44 47  1  0  0  0
 44 48  1  0  0  0
M  CHG 1  44   1
M  END
> <minimizedAffinity>
-8.74633

$$$$
1A4W_QWE_H_373


 48 51  0  0  0  0  0  0  0  0999 V2000
   13.5798  -14.4757   20.8507 C   0  0  0  0  0  0  0  0  0  0  0  0
   13.1691  -15.9471   20.9604 C   0  0  0  0  0  0  0  0  0  0  0  0
   11.9613  -16.1380   21.0751 O   0  0  0  0  0  0  0  0  0  0  0  0
   14.1516  -16.9710   21.0533 N   0  0  0  0  0  0  0  0  0  0  0  0
   15.6305  -16.5066   21.2217 C   0  0  0  0  0  0  0  0  0  0  0  0
   16.4277  -17.4011   20.2603 C   0  0  0  0  0  0  0  0  0  0  0  0
   16.0816  -18.9898   20.4363 C   0  0  0  0  0  0  0  0  0  0  0  0
   14.5129  -19.3272   20.3251 C   0  0  0  0  0  0  0  0  0  0  0  0
   13.7003  -18.4426   21.2338 C   0  0  0  0  0  0  0  0  0  0  0  0
   16.1556  -16.6346   22.4677 C   0  0  0  0  0  0  0  0  0  0  0  0
   17.6239  -16.1038   22.6578 C   0  0  0  0  0  0  0  0  0  0  0  0
   16.5817  -14.0300   22.9054 O   0  0  0  0  0  0  0  0  0  0  0  0
   17.5635  -14.6238   22.5623 C   0  0  0  0  0  0  0  0  0  0  0  0
   18.3369  -12.2778   21.2558 S   0  0  0  0  0  0  0  0  0  0  0  0
   19.5490  -12.6520   20.0799 C   0  0  0  0  0  0  0  0  0  0  0  0
   18.7126  -13.8314   21.9699 C   0  0  0  0  0  0  0  0  0  0  0  0
   20.1473  -13.8669   20.3479 C   0  0  0  0  0  0  0  0  0  0  0  0
   19.7227  -14.5420   21.4410 N   0  0  0  0  0  0  0  0  0  0  0  0
   13.1927  -14.0613   19.4669 N   0  0  0  0  0  0  0  0  0  0  0  0
   12.4281  -13.3883   19.5190 H   0  0  0  0  0  0  0  0  0  0  0  0
   14.6742  -13.2608   18.5744 S   0  0  0  0  0  0  0  0  0  0  0  0
   15.9090  -13.7188   19.2363 O   0  0  0  0  0  0  0  0  0  0  0  0
   14.0819  -11.9295   18.7962 O   0  0  0  0  0  0  0  0  0  0  0  0
   14.9744  -14.1453   16.9428 C   0  0  0  0  0  0  0  0  0  0  0  0
   14.6708  -15.5280   16.9122 C   0  0  0  0  0  0  0  0  0  0  0  0
   14.8561  -16.2045   15.7335 C   0  0  0  0  0  0  0  0  0  0  0  0
   15.3196  -15.5230   14.6000 C   0  0  0  0  0  0  0  0  0  0  0  0
   15.5878  -14.1583   14.6053 C   0  0  0  0  0  0  0  0  0  0  0  0
   15.9381  -13.4561   13.4841 C   0  0  0  0  0  0  0  0  0  0  0  0
   16.1458  -12.0944   13.5449 C   0  0  0  0  0  0  0  0  0  0  0  0
   16.0390  -11.4323   14.7847 C   0  0  0  0  0  0  0  0  0  0  0  0
   15.6550  -12.0904   15.9265 C   0  0  0  0  0  0  0  0  0  0  0  0
   15.4099  -13.4350   15.8480 C   0  0  0  0  0  0  0  0  0  0  0  0
   15.9359  -14.0759   12.2341 N   0  0  0  0  0  0  0  0  0  0  0  0
   17.1316  -14.1974   11.3661 C   0  0  0  0  0  0  0  0  0  0  0  0
   14.6562  -14.0177   11.2639 C   0  0  0  0  0  0  0  0  0  0  0  0
   12.8537  -13.6098   21.8702 C   0  0  0  0  0  0  0  0  0  0  0  0
   13.5761  -12.2909   22.1514 C   0  0  0  0  0  0  0  0  0  0  0  0
   12.5920  -11.1371   22.0241 C   0  0  0  0  0  0  0  0  0  0  0  0
   12.9009  -10.2152   23.0962 N   0  0  0  0  0  0  0  0  0  0  0  0
   13.7897   -9.7942   23.0504 H   0  0  0  0  0  0  0  0  0  0  0  0
   12.1556   -9.8600   24.1278 C   0  0  0  0  0  0  0  0  0  0  0  0
   11.0967  -10.6002   24.4604 N   0  0  0  0  0  0  0  0  0  0  0  0
   12.5431   -8.8151   24.8470 N   0  0  0  0  0  0  0  0  0  0  0  0
   10.8386  -11.3690   23.9022 H   0  0  0  0  0  0  0  0  0  0  0  0
   10.5733  -10.3776   25.2641 H   0  0  0  0  0  0  0  0  0  0  0  0
   13.3299   -8.2919   24.5706 H   0  0  0  0  0  0  0  0  0  0  0  0
   12.0439   -8.5627   25.6571 H   0  0  0  0  0  0  0  0  0  0  0  0
 24 25  2  0  0  0
 24 33  1  0  0  0
 24 21  1  0  0  0
 25 26  1  0  0  0
 26 27  2  0  0  0
 27 28  1  0  0  0
 28 29  2  0  0  0
 28 33  1  0  0  0
 29 30  1  0  0  0
 29 34  1  0  0  0
 30 31  2  0  0  0
 31 32  1  0  0  0
 32 33  2  0  0  0
 34 35  1  0  0  0
 34 36  1  0  0  0
 21 22  2  0  0  0
 21 23  2  0  0  0
 19  1  1  0  0  0
  1 37  1  0  0  0
  1  2  1  0  0  0
 37 38  1  0  0  0
 38 39  1  0  0  0
 39 40  1  0  0  0
 40 42  1  0  0  0
 42 43  1  0  0  0
 42 44  2  0  0  0
  2  3  2  0  0  0
  4  5  1  0  0  0
  4  9  1  0  0  0
  5  6  1  0  0  0
  5 10  1  0  0  0
  6  7  1  0  0  0
  7  8  1  0  0  0
  8  9  1  0  0  0
 10 11  1  0  0  0
 14 15  1  0  0  0
 14 16  1  0  0  0
 12 13  2  0  0  0
 15 17  2  0  0  0
 16 13  1  0  0  0
 16 18  2  0  0  0
 17 18  1  0  0  0
 21 19  1  0  0  0
  2  4  1  0  0  0
 11 13  1  0  0  0
 19 20  1  0  0  0
 40 41  1  0  0  0
 43 45  1  0  0  0
 43 46  1  0  0  0
 44 47  1  0  0  0
 44 48  1  0  0  0
M  CHG 1  44   1
M  END
> <minimizedAffinity>
-7.65873

$$$$
1A4W_QWE_H_373


 48 51  0  0  0  0  0  0  0  0999 V2000
   14.0128  -14.1871   20.8497 C   0  0  0  0  0  0  0  0  0  0  0  0
   14.0220  -15.6767   21.2055 C   0  0  0  0  0  0  0  0  0  0  0  0
   12.9105  -16.1871   21.3165 O   0  0  0  0  0  0  0  0  0  0  0  0
   15.2408  -16.3446   21.5068 N   0  0  0  0  0  0  0  0  0  0  0  0
   16.5132  -15.4523   21.6340 C   0  0  0  0  0  0  0  0  0  0  0  0
   17.6017  -16.2210   20.8696 C   0  0  0  0  0  0  0  0  0  0  0  0
   17.7002  -17.7921   21.3133 C   0  0  0  0  0  0  0  0  0  0  0  0
   16.3019  -18.5812   21.2173 C   0  0  0  0  0  0  0  0  0  0  0  0
   15.2057  -17.8347   21.9311 C   0  0  0  0  0  0  0  0  0  0  0  0
   16.9532  -15.2210   22.8979 C   0  0  0  0  0  0  0  0  0  0  0  0
   18.4755  -14.8540   23.0445 C   0  0  0  0  0  0  0  0  0  0  0  0
   18.4717  -16.6719   24.5084 O   0  0  0  0  0  0  0  0  0  0  0  0
   19.0043  -15.6509   24.1797 C   0  0  0  0  0  0  0  0  0  0  0  0
   20.0514  -15.2294   26.7360 S   0  0  0  0  0  0  0  0  0  0  0  0
   20.9479  -13.7503   26.7491 C   0  0  0  0  0  0  0  0  0  0  0  0
   20.1884  -15.1637   24.9920 C   0  0  0  0  0  0  0  0  0  0  0  0
   21.3016  -13.3687   25.4704 C   0  0  0  0  0  0  0  0  0  0  0  0
   20.9209  -14.1750   24.4527 N   0  0  0  0  0  0  0  0  0  0  0  0
   13.5785  -14.1267   19.4199 N   0  0  0  0  0  0  0  0  0  0  0  0
   12.6575  -13.6916   19.3665 H   0  0  0  0  0  0  0  0  0  0  0  0
   14.8164  -13.1050   18.3923 S   0  0  0  0  0  0  0  0  0  0  0  0
   16.1658  -13.3384   18.9373 O   0  0  0  0  0  0  0  0  0  0  0  0
   14.0312  -11.8881   18.6661 O   0  0  0  0  0  0  0  0  0  0  0  0
   15.1107  -13.9548   16.7413 C   0  0  0  0  0  0  0  0  0  0  0  0
   14.8170  -15.3388   16.6855 C   0  0  0  0  0  0  0  0  0  0  0  0
   14.9984  -15.9904   15.4923 C   0  0  0  0  0  0  0  0  0  0  0  0
   15.4484  -15.2832   14.3691 C   0  0  0  0  0  0  0  0  0  0  0  0
   15.7065  -13.9169   14.3995 C   0  0  0  0  0  0  0  0  0  0  0  0
   16.0432  -13.1901   13.2900 C   0  0  0  0  0  0  0  0  0  0  0  0
   16.2413  -11.8283   13.3762 C   0  0  0  0  0  0  0  0  0  0  0  0
   16.1389  -11.1917   14.6296 C   0  0  0  0  0  0  0  0  0  0  0  0
   15.7685  -11.8751   15.7610 C   0  0  0  0  0  0  0  0  0  0  0  0
   15.5327  -13.2197   15.6576 C   0  0  0  0  0  0  0  0  0  0  0  0
   16.0361  -13.7849   12.0279 N   0  0  0  0  0  0  0  0  0  0  0  0
   17.2600  -14.1100   11.2569 C   0  0  0  0  0  0  0  0  0  0  0  0
   14.8741  -13.4860   10.9589 C   0  0  0  0  0  0  0  0  0  0  0  0
   13.0374  -13.4056   21.7182 C   0  0  0  0  0  0  0  0  0  0  0  0
   13.5935  -12.0527   22.1666 C   0  0  0  0  0  0  0  0  0  0  0  0
   12.6048  -10.9538   21.8051 C   0  0  0  0  0  0  0  0  0  0  0  0
   11.4379  -11.1634   22.6352 N   0  0  0  0  0  0  0  0  0  0  0  0
   10.5927  -11.3047   22.1505 H   0  0  0  0  0  0  0  0  0  0  0  0
   11.3495  -11.1916   23.9533 C   0  0  0  0  0  0  0  0  0  0  0  0
   11.8594  -10.1874   24.6686 N   0  0  0  0  0  0  0  0  0  0  0  0
   10.6782  -12.1896   24.5123 N   0  0  0  0  0  0  0  0  0  0  0  0
   12.3521   -9.4634   24.2190 H   0  0  0  0  0  0  0  0  0  0  0  0
   11.7429  -10.1705   25.6460 H   0  0  0  0  0  0  0  0  0  0  0  0
   10.3161  -12.9138   23.9523 H   0  0  0  0  0  0  0  0  0  0  0  0
   10.5419  -12.2061   25.4871 H   0  0  0  0  0  0  0  0  0  0  0  0
 24 25  2  0  0  0
 24 33  1  0  0  0
 24 21  1  0  0  0
 25 26  1  0  0  0
 26 27  2  0  0  0
 27 28  1  0  0  0
 28 29  2  0  0  0
 28 33  1  0  0  0
 29 30  1  0  0  0
 29 34  1  0  0  0
 30 31  2  0  0  0
 31 32  1  0  0  0
 32 33  2  0  0  0
 34 35  1  0  0  0
 34 36  1  0  0  0
 21 22  2  0  0  0
 21 23  2  0  0  0
 19  1  1  0  0  0
  1 37  1  0  0  0
  1  2  1  0  0  0
 37 38  1  0  0  0
 38 39  1  0  0  0
 39 40  1  0  0  0
 40 42  1  0  0  0
 42 43  1  0  0  0
 42 44  2  0  0  0
  2  3  2  0  0  0
  4  5  1  0  0  0
  4  9  1  0  0  0
  5  6  1  0  0  0
  5 10  1  0  0  0
  6  7  1  0  0  0
  7  8  1  0  0  0
  8  9  1  0  0  0
 10 11  1  0  0  0
 14 15  1  0  0  0
 14 16  1  0  0  0
 12 13  2  0  0  0
 15 17  2  0  0  0
 16 13  1  0  0  0
 16 18  2  0  0  0
 17 18  1  0  0  0
 21 19  1  0  0  0
  2  4  1  0  0  0
 11 13  1  0  0  0
 19 20  1  0  0  0
 40 41  1  0  0  0
 43 45  1  0  0  0
 43 46  1  0  0  0
 44 47  1  0  0  0
 44 48  1  0  0  0
M  CHG 1  44   1
M  END
> <minimizedAffinity>
-7.50617

$$$$
1A4W_QWE_H_373


 48 51  0  0  0  0  0  0  0  0999 V2000
   18.9461  -16.7508   22.8349 C   0  0  0  0  0  0  0  0  0  0  0  0
   20.4366  -16.7637   23.1868 C   0  0  0  0  0  0  0  0  0  0  0  0
   21.1004  -17.6057   22.5879 O   0  0  0  0  0  0  0  0  0  0  0  0
   20.9448  -15.9393   24.2282 N   0  0  0  0  0  0  0  0  0  0  0  0
   19.8934  -15.1804   25.0942 C   0  0  0  0  0  0  0  0  0  0  0  0
   20.4641  -13.7614   25.2384 C   0  0  0  0  0  0  0  0  0  0  0  0
   22.0275  -13.7513   25.7187 C   0  0  0  0  0  0  0  0  0  0  0  0
   22.9958  -14.6399   24.7914 C   0  0  0  0  0  0  0  0  0  0  0  0
   22.4455  -16.0294   24.6044 C   0  0  0  0  0  0  0  0  0  0  0  0
   19.6695  -15.6850   26.3351 C   0  0  0  0  0  0  0  0  0  0  0  0
   18.5874  -16.8220   26.4349 C   0  0  0  0  0  0  0  0  0  0  0  0
   20.4963  -18.0745   26.9199 O   0  0  0  0  0  0  0  0  0  0  0  0
   19.3068  -18.0734   26.7805 C   0  0  0  0  0  0  0  0  0  0  0  0
   16.9673  -19.4867   26.1986 S   0  0  0  0  0  0  0  0  0  0  0  0
   16.5585  -20.4932   27.5446 C   0  0  0  0  0  0  0  0  0  0  0  0
   18.5675  -19.3918   26.9021 C   0  0  0  0  0  0  0  0  0  0  0  0
   17.6503  -20.7006   28.3635 C   0  0  0  0  0  0  0  0  0  0  0  0
   18.8186  -20.1221   28.0014 N   0  0  0  0  0  0  0  0  0  0  0  0
   18.8799  -16.2713   21.4200 N   0  0  0  0  0  0  0  0  0  0  0  0
   18.1632  -16.7974   20.9200 H   0  0  0  0  0  0  0  0  0  0  0  0
   18.4485  -14.4157   21.3669 S   0  0  0  0  0  0  0  0  0  0  0  0
   19.6293  -13.6584   21.8192 O   0  0  0  0  0  0  0  0  0  0  0  0
   17.2734  -14.6698   22.2195 O   0  0  0  0  0  0  0  0  0  0  0  0
   18.4876  -13.8147   19.5859 C   0  0  0  0  0  0  0  0  0  0  0  0
   19.7438  -13.8612   18.9342 C   0  0  0  0  0  0  0  0  0  0  0  0
   19.8094  -13.4513   17.6270 C   0  0  0  0  0  0  0  0  0  0  0  0
   18.6502  -13.0166   16.9701 C   0  0  0  0  0  0  0  0  0  0  0  0
   17.4033  -12.9993   17.5860 C   0  0  0  0  0  0  0  0  0  0  0  0
   16.2450  -12.6804   16.9307 C   0  0  0  0  0  0  0  0  0  0  0  0
   15.0324  -12.7268   17.5853 C   0  0  0  0  0  0  0  0  0  0  0  0
   14.9967  -13.0629   18.9538 C   0  0  0  0  0  0  0  0  0  0  0  0
   16.1289  -13.4246   19.6406 C   0  0  0  0  0  0  0  0  0  0  0  0
   17.3230  -13.4162   18.9712 C   0  0  0  0  0  0  0  0  0  0  0  0
   16.2519  -12.4578   15.5533 N   0  0  0  0  0  0  0  0  0  0  0  0
   15.9027  -11.1635   14.9202 C   0  0  0  0  0  0  0  0  0  0  0  0
   15.8564  -13.6128   14.5084 C   0  0  0  0  0  0  0  0  0  0  0  0
   18.3300  -18.1387   22.9384 C   0  0  0  0  0  0  0  0  0  0  0  0
   17.4541  -18.4911   21.7346 C   0  0  0  0  0  0  0  0  0  0  0  0
   16.0078  -18.1271   22.0366 C   0  0  0  0  0  0  0  0  0  0  0  0
   15.6779  -17.0114   21.1757 N   0  0  0  0  0  0  0  0  0  0  0  0
   16.4163  -16.6720   20.6199 H   0  0  0  0  0  0  0  0  0  0  0  0
   14.5233  -16.3852   21.0321 C   0  0  0  0  0  0  0  0  0  0  0  0
   13.7051  -16.7332   20.0374 N   0  0  0  0  0  0  0  0  0  0  0  0
   14.1866  -15.4811   21.9423 N   0  0  0  0  0  0  0  0  0  0  0  0
   13.9892  -17.4085   19.3798 H   0  0  0  0  0  0  0  0  0  0  0  0
   12.8172  -16.3148   19.9611 H   0  0  0  0  0  0  0  0  0  0  0  0
   14.8166  -15.2494   22.6624 H   0  0  0  0  0  0  0  0  0  0  0  0
   13.3067  -15.0417   21.8977 H   0  0  0  0  0  0  0  0  0  0  0  0
 24 25  2  0  0  0
 24 33  1  0  0  0
 24 21  1  0  0  0
 25 26  1  0  0  0
 26 27  2  0  0  0
 27 28  1  0  0  0
 28 29  2  0  0  0
 28 33  1  0  0  0
 29 30  1  0  0  0
 29 34  1  0  0  0
 30 31  2  0  0  0
 31 32  1  0  0  0
 32 33  2  0  0  0
 34 35  1  0  0  0
 34 36  1  0  0  0
 21 22  2  0  0  0
 21 23  2  0  0  0
 19  1  1  0  0  0
  1 37  1  0  0  0
  1  2  1  0  0  0
 37 38  1  0  0  0
 38 39  1  0  0  0
 39 40  1  0  0  0
 40 42  1  0  0  0
 42 43  1  0  0  0
 42 44  2  0  0  0
  2  3  2  0  0  0
  4  5  1  0  0  0
  4  9  1  0  0  0
  5  6  1  0  0  0
  5 10  1  0  0  0
  6  7  1  0  0  0
  7  8  1  0  0  0
  8  9  1  0  0  0
 10 11  1  0  0  0
 14 15  1  0  0  0
 14 16  1  0  0  0
 12 13  2  0  0  0
 15 17  2  0  0  0
 16 13  1  0  0  0
 16 18  2  0  0  0
 17 18  1  0  0  0
 21 19  1  0  0  0
  2  4  1  0  0  0
 11 13  1  0  0  0
 19 20  1  0  0  0
 40 41  1  0  0  0
 43 45  1  0  0  0
 43 46  1  0  0  0
 44 47  1  0  0  0
 44 48  1  0  0  0
M  CHG 1  44   1
M  END
> <minimizedAffinity>
-7.24373

$$$$
1A4W_QWE_H_373


 48 51  0  0  0  0  0  0  0  0999 V2000
   15.7074  -15.5941   20.9130 C   0  0  0  0  0  0  0  0  0  0  0  0
   16.3973  -14.2883   21.3186 C   0  0  0  0  0  0  0  0  0  0  0  0
   15.8599  -13.6874   22.2451 O   0  0  0  0  0  0  0  0  0  0  0  0
   17.4928  -13.7811   20.5669 N   0  0  0  0  0  0  0  0  0  0  0  0
   17.8223  -14.5145   19.2309 C   0  0  0  0  0  0  0  0  0  0  0  0
   19.3528  -14.6468   19.2305 C   0  0  0  0  0  0  0  0  0  0  0  0
   20.1124  -13.2355   19.5564 C   0  0  0  0  0  0  0  0  0  0  0  0
   19.6231  -12.5362   20.9196 C   0  0  0  0  0  0  0  0  0  0  0  0
   18.1220  -12.4216   20.9640 C   0  0  0  0  0  0  0  0  0  0  0  0
   17.4427  -13.8769   18.0934 C   0  0  0  0  0  0  0  0  0  0  0  0
   16.1996  -12.9214   18.2176 C   0  0  0  0  0  0  0  0  0  0  0  0
   16.6338  -11.3121   16.5838 O   0  0  0  0  0  0  0  0  0  0  0  0
   16.0086  -12.2868   16.8895 C   0  0  0  0  0  0  0  0  0  0  0  0
   15.2044  -14.4342   15.2924 S   0  0  0  0  0  0  0  0  0  0  0  0
   14.5726  -13.8305   13.7997 C   0  0  0  0  0  0  0  0  0  0  0  0
   14.9750  -12.8134   15.9129 C   0  0  0  0  0  0  0  0  0  0  0  0
   14.2115  -12.5027   13.9103 C   0  0  0  0  0  0  0  0  0  0  0  0
   14.3885  -11.9077   15.1126 N   0  0  0  0  0  0  0  0  0  0  0  0
   15.1769  -16.1709   22.1868 N   0  0  0  0  0  0  0  0  0  0  0  0
   14.2126  -16.4711   22.0439 H   0  0  0  0  0  0  0  0  0  0  0  0
   16.2270  -17.6671   22.7264 S   0  0  0  0  0  0  0  0  0  0  0  0
   16.5029  -18.4867   21.5328 O   0  0  0  0  0  0  0  0  0  0  0  0
   15.2055  -18.0154   23.7301 O   0  0  0  0  0  0  0  0  0  0  0  0
   18.0014  -17.1156   23.0128 C   0  0  0  0  0  0  0  0  0  0  0  0
   18.8492  -17.1114   21.8787 C   0  0  0  0  0  0  0  0  0  0  0  0
   20.1457  -16.6949   22.0424 C   0  0  0  0  0  0  0  0  0  0  0  0
   20.5930  -16.2757   23.3028 C   0  0  0  0  0  0  0  0  0  0  0  0
   19.7622  -16.2405   24.4177 C   0  0  0  0  0  0  0  0  0  0  0  0
   20.1499  -15.7350   25.6289 C   0  0  0  0  0  0  0  0  0  0  0  0
   19.2644  -15.6848   26.6845 C   0  0  0  0  0  0  0  0  0  0  0  0
   17.9631  -16.2016   26.5219 C   0  0  0  0  0  0  0  0  0  0  0  0
   17.5210  -16.6844   25.3154 C   0  0  0  0  0  0  0  0  0  0  0  0
   18.3944  -16.6915   24.2612 C   0  0  0  0  0  0  0  0  0  0  0  0
   21.3933  -15.1182   25.7708 N   0  0  0  0  0  0  0  0  0  0  0  0
   21.6714  -13.7136   25.3866 C   0  0  0  0  0  0  0  0  0  0  0  0
   22.7666  -15.9336   25.5935 C   0  0  0  0  0  0  0  0  0  0  0  0
   14.5616  -15.3487   19.9417 C   0  0  0  0  0  0  0  0  0  0  0  0
   14.6643  -16.1998   18.6746 C   0  0  0  0  0  0  0  0  0  0  0  0
   14.6715  -17.6736   19.0536 C   0  0  0  0  0  0  0  0  0  0  0  0
   13.2898  -18.0491   19.2645 N   0  0  0  0  0  0  0  0  0  0  0  0
   12.7560  -18.1779   18.4474 H   0  0  0  0  0  0  0  0  0  0  0  0
   12.6452  -18.2429   20.4016 C   0  0  0  0  0  0  0  0  0  0  0  0
   11.3472  -17.9454   20.4813 N   0  0  0  0  0  0  0  0  0  0  0  0
   13.3050  -18.8076   21.4042 N   0  0  0  0  0  0  0  0  0  0  0  0
   10.8904  -17.5264   19.7164 H   0  0  0  0  0  0  0  0  0  0  0  0
   10.8461  -18.1448   21.3049 H   0  0  0  0  0  0  0  0  0  0  0  0
   14.2631  -19.0129   21.3092 H   0  0  0  0  0  0  0  0  0  0  0  0
   12.8365  -19.0214   22.2432 H   0  0  0  0  0  0  0  0  0  0  0  0
 24 25  2  0  0  0
 24 33  1  0  0  0
 24 21  1  0  0  0
 25 26  1  0  0  0
 26 27  2  0  0  0
 27 28  1  0  0  0
 28 29  2  0  0  0
 28 33  1  0  0  0
 29 30  1  0  0  0
 29 34  1  0  0  0
 30 31  2  0  0  0
 31 32  1  0  0  0
 32 33  2  0  0  0
 34 35  1  0  0  0
 34 36  1  0  0  0
 21 22  2  0  0  0
 21 23  2  0  0  0
 19  1  1  0  0  0
  1 37  1  0  0  0
  1  2  1  0  0  0
 37 38  1  0  0  0
 38 39  1  0  0  0
 39 40  1  0  0  0
 40 42  1  0  0  0
 42 43  1  0  0  0
 42 44  2  0  0  0
  2  3  2  0  0  0
  4  5  1  0  0  0
  4  9  1  0  0  0
  5  6  1  0  0  0
  5 10  1  0  0  0
  6  7  1  0  0  0
  7  8  1  0  0  0
  8  9  1  0  0  0
 10 11  1  0  0  0
 14 15  1  0  0  0
 14 16  1  0  0  0
 12 13  2  0  0  0
 15 17  2  0  0  0
 16 13  1  0  0  0
 16 18  2  0  0  0
 17 18  1  0  0  0
 21 19  1  0  0  0
  2  4  1  0  0  0
 11 13  1  0  0  0
 19 20  1  0  0  0
 40 41  1  0  0  0
 43 45  1  0  0  0
 43 46  1  0  0  0
 44 47  1  0  0  0
 44 48  1  0  0  0
M  CHG 1  44   1
M  END
> <minimizedAffinity>
-7.22876

$$$$
1A4W_QWE_H_373


 48 51  0  0  0  0  0  0  0  0999 V2000
   19.4596  -16.1472   24.8485 C   0  0  0  0  0  0  0  0  0  0  0  0
   18.0336  -16.6741   25.0352 C   0  0  0  0  0  0  0  0  0  0  0  0
   17.3794  -16.0961   25.8991 O   0  0  0  0  0  0  0  0  0  0  0  0
   17.5885  -17.8300   24.3366 N   0  0  0  0  0  0  0  0  0  0  0  0
   18.6673  -18.6192   23.5335 C   0  0  0  0  0  0  0  0  0  0  0  0
   17.9911  -18.9408   22.1921 C   0  0  0  0  0  0  0  0  0  0  0  0
   16.5075  -19.6054   22.3718 C   0  0  0  0  0  0  0  0  0  0  0  0
   15.5150  -18.7355   23.2911 C   0  0  0  0  0  0  0  0  0  0  0  0
   16.1629  -18.3763   24.6025 C   0  0  0  0  0  0  0  0  0  0  0  0
   19.0932  -19.7811   24.0931 C   0  0  0  0  0  0  0  0  0  0  0  0
   20.3144  -20.4805   23.3909 C   0  0  0  0  0  0  0  0  0  0  0  0
   21.6787  -19.2027   24.7887 O   0  0  0  0  0  0  0  0  0  0  0  0
   21.5141  -19.6610   23.6945 C   0  0  0  0  0  0  0  0  0  0  0  0
   22.7154  -20.4746   21.3062 S   0  0  0  0  0  0  0  0  0  0  0  0
   24.3973  -20.0730   21.3472 C   0  0  0  0  0  0  0  0  0  0  0  0
   22.5270  -19.3286   22.6161 C   0  0  0  0  0  0  0  0  0  0  0  0
   24.6562  -19.1008   22.2925 C   0  0  0  0  0  0  0  0  0  0  0  0
   23.6056  -18.6263   23.0010 N   0  0  0  0  0  0  0  0  0  0  0  0
   19.3055  -14.8346   24.1487 N   0  0  0  0  0  0  0  0  0  0  0  0
   19.8130  -14.1165   24.6657 H   0  0  0  0  0  0  0  0  0  0  0  0
   19.9990  -14.9411   22.3767 S   0  0  0  0  0  0  0  0  0  0  0  0
   20.4452  -16.3263   22.1426 O   0  0  0  0  0  0  0  0  0  0  0  0
   20.9223  -13.8322   22.6769 O   0  0  0  0  0  0  0  0  0  0  0  0
   18.5759  -14.9723   21.1486 C   0  0  0  0  0  0  0  0  0  0  0  0
   17.3711  -15.5657   21.5974 C   0  0  0  0  0  0  0  0  0  0  0  0
   16.3026  -15.5887   20.7378 C   0  0  0  0  0  0  0  0  0  0  0  0
   16.4180  -15.0217   19.4613 C   0  0  0  0  0  0  0  0  0  0  0  0
   17.5832  -14.4037   19.0198 C   0  0  0  0  0  0  0  0  0  0  0  0
   17.6811  -13.7521   17.8204 C   0  0  0  0  0  0  0  0  0  0  0  0
   18.8510  -13.1182   17.4593 C   0  0  0  0  0  0  0  0  0  0  0  0
   19.9673  -13.1835   18.3175 C   0  0  0  0  0  0  0  0  0  0  0  0
   19.9027  -13.7949   19.5448 C   0  0  0  0  0  0  0  0  0  0  0  0
   18.7238  -14.3856   19.9130 C   0  0  0  0  0  0  0  0  0  0  0  0
   16.5541  -13.5826   17.0155 N   0  0  0  0  0  0  0  0  0  0  0  0
   16.5207  -13.8749   15.5624 C   0  0  0  0  0  0  0  0  0  0  0  0
   15.4952  -12.4033   17.2810 C   0  0  0  0  0  0  0  0  0  0  0  0
   20.1639  -15.9411   26.1819 C   0  0  0  0  0  0  0  0  0  0  0  0
   20.4120  -14.4656   26.5010 C   0  0  0  0  0  0  0  0  0  0  0  0
   21.9070  -14.2240   26.6502 C   0  0  0  0  0  0  0  0  0  0  0  0
   22.4229  -14.0120   25.3147 N   0  0  0  0  0  0  0  0  0  0  0  0
   22.0160  -13.2669   24.8163 H   0  0  0  0  0  0  0  0  0  0  0  0
   23.3644  -14.6798   24.6715 C   0  0  0  0  0  0  0  0  0  0  0  0
   23.0558  -15.8205   24.0524 N   0  0  0  0  0  0  0  0  0  0  0  0
   24.5737  -14.1398   24.5996 N   0  0  0  0  0  0  0  0  0  0  0  0
   22.1471  -16.1917   24.1284 H   0  0  0  0  0  0  0  0  0  0  0  0
   23.7368  -16.2912   23.5195 H   0  0  0  0  0  0  0  0  0  0  0  0
   24.7650  -13.2964   25.0700 H   0  0  0  0  0  0  0  0  0  0  0  0
   25.2801  -14.5824   24.0758 H   0  0  0  0  0  0  0  0  0  0  0  0
 24 25  2  0  0  0
 24 33  1  0  0  0
 24 21  1  0  0  0
 25 26  1  0  0  0
 26 27  2  0  0  0
 27 28  1  0  0  0
 28 29  2  0  0  0
 28 33  1  0  0  0
 29 30  1  0  0  0
 29 34  1  0  0  0
 30 31  2  0  0  0
 31 32  1  0  0  0
 32 33  2  0  0  0
 34 35  1  0  0  0
 34 36  1  0  0  0
 21 22  2  0  0  0
 21 23  2  0  0  0
 19  1  1  0  0  0
  1 37  1  0  0  0
  1  2  1  0  0  0
 37 38  1  0  0  0
 38 39  1  0  0  0
 39 40  1  0  0  0
 40 42  1  0  0  0
 42 43  1  0  0  0
 42 44  2  0  0  0
  2  3  2  0  0  0
  4  5  1  0  0  0
  4  9  1  0  0  0
  5  6  1  0  0  0
  5 10  1  0  0  0
  6  7  1  0  0  0
  7  8  1  0  0  0
  8  9  1  0  0  0
 10 11  1  0  0  0
 14 15  1  0  0  0
 14 16  1  0  0  0
 12 13  2  0  0  0
 15 17  2  0  0  0
 16 13  1  0  0  0
 16 18  2  0  0  0
 17 18  1  0  0  0
 21 19  1  0  0  0
  2  4  1  0  0  0
 11 13  1  0  0  0
 19 20  1  0  0  0
 40 41  1  0  0  0
 43 45  1  0  0  0
 43 46  1  0  0  0
 44 47  1  0  0  0
 44 48  1  0  0  0
M  CHG 1  44   1
M  END
> <minimizedAffinity>
-7.20872

$$$$
1A4W_QWE_H_373


 48 51  0  0  0  0  0  0  0  0999 V2000
   19.5559  -16.1697   21.5099 C   0  0  0  0  0  0  0  0  0  0  0  0
   19.8413  -17.6623   21.3193 C   0  0  0  0  0  0  0  0  0  0  0  0
   20.8431  -17.9150   20.6553 O   0  0  0  0  0  0  0  0  0  0  0  0
   18.9192  -18.6430   21.7779 N   0  0  0  0  0  0  0  0  0  0  0  0
   17.5479  -18.1201   22.3046 C   0  0  0  0  0  0  0  0  0  0  0  0
   17.2959  -18.9239   23.5892 C   0  0  0  0  0  0  0  0  0  0  0  0
   17.4911  -20.5342   23.3795 C   0  0  0  0  0  0  0  0  0  0  0  0
   18.9156  -20.9376   22.7511 C   0  0  0  0  0  0  0  0  0  0  0  0
   19.2062  -20.1415   21.5060 C   0  0  0  0  0  0  0  0  0  0  0  0
   16.4877  -18.2898   21.4728 C   0  0  0  0  0  0  0  0  0  0  0  0
   15.9590  -16.9955   20.7526 C   0  0  0  0  0  0  0  0  0  0  0  0
   14.1692  -17.3499   22.2081 O   0  0  0  0  0  0  0  0  0  0  0  0
   14.5851  -16.7509   21.2581 C   0  0  0  0  0  0  0  0  0  0  0  0
   14.3713  -14.6195   19.4635 S   0  0  0  0  0  0  0  0  0  0  0  0
   13.1589  -13.5206   20.0241 C   0  0  0  0  0  0  0  0  0  0  0  0
   13.6516  -15.7883   20.5500 C   0  0  0  0  0  0  0  0  0  0  0  0
   12.3108  -14.1298   20.9269 C   0  0  0  0  0  0  0  0  0  0  0  0
   12.5394  -15.4322   21.2142 N   0  0  0  0  0  0  0  0  0  0  0  0
   20.7914  -15.6102   22.1401 N   0  0  0  0  0  0  0  0  0  0  0  0
   21.2529  -14.9859   21.4786 H   0  0  0  0  0  0  0  0  0  0  0  0
   20.3498  -14.6375   23.7184 S   0  0  0  0  0  0  0  0  0  0  0  0
   19.1590  -13.8174   23.4323 O   0  0  0  0  0  0  0  0  0  0  0  0
   21.7185  -14.0923   23.7591 O   0  0  0  0  0  0  0  0  0  0  0  0
   19.5169  -15.7880   24.9502 C   0  0  0  0  0  0  0  0  0  0  0  0
   18.1748  -15.4853   25.2850 C   0  0  0  0  0  0  0  0  0  0  0  0
   17.5254  -16.3137   26.1643 C   0  0  0  0  0  0  0  0  0  0  0  0
   18.1862  -17.4310   26.6925 C   0  0  0  0  0  0  0  0  0  0  0  0
   19.4919  -17.7611   26.3454 C   0  0  0  0  0  0  0  0  0  0  0  0
   20.1163  -18.9036   26.7667 C   0  0  0  0  0  0  0  0  0  0  0  0
   21.3971  -19.1983   26.3499 C   0  0  0  0  0  0  0  0  0  0  0  0
   22.0812  -18.2886   25.5184 C   0  0  0  0  0  0  0  0  0  0  0  0
   21.4809  -17.1492   25.0431 C   0  0  0  0  0  0  0  0  0  0  0  0
   20.1940  -16.8860   25.4286 C   0  0  0  0  0  0  0  0  0  0  0  0
   19.4135  -19.8647   27.4942 N   0  0  0  0  0  0  0  0  0  0  0  0
   19.7860  -20.3088   28.8587 C   0  0  0  0  0  0  0  0  0  0  0  0
   18.6935  -21.1090   26.7762 C   0  0  0  0  0  0  0  0  0  0  0  0
   19.2925  -15.4718   20.1832 C   0  0  0  0  0  0  0  0  0  0  0  0
   19.9532  -14.0948   20.0948 C   0  0  0  0  0  0  0  0  0  0  0  0
   18.9489  -13.0845   19.5598 C   0  0  0  0  0  0  0  0  0  0  0  0
   18.3374  -12.4635   20.7153 N   0  0  0  0  0  0  0  0  0  0  0  0
   18.9515  -11.9714   21.3068 H   0  0  0  0  0  0  0  0  0  0  0  0
   17.0693  -12.4656   21.0865 C   0  0  0  0  0  0  0  0  0  0  0  0
   16.6433  -13.3711   21.9688 N   0  0  0  0  0  0  0  0  0  0  0  0
   16.2818  -11.5047   20.6218 N   0  0  0  0  0  0  0  0  0  0  0  0
   17.2566  -14.0703   22.2916 H   0  0  0  0  0  0  0  0  0  0  0  0
   15.7157  -13.3401   22.2971 H   0  0  0  0  0  0  0  0  0  0  0  0
   16.6310  -10.8537   19.9711 H   0  0  0  0  0  0  0  0  0  0  0  0
   15.3481  -11.4426   20.9276 H   0  0  0  0  0  0  0  0  0  0  0  0
 24 25  2  0  0  0
 24 33  1  0  0  0
 24 21  1  0  0  0
 25 26  1  0  0  0
 26 27  2  0  0  0
 27 28  1  0  0  0
 28 29  2  0  0  0
 28 33  1  0  0  0
 29 30  1  0  0  0
 29 34  1  0  0  0
 30 31  2  0  0  0
 31 32  1  0  0  0
 32 33  2  0  0  0
 34 35  1  0  0  0
 34 36  1  0  0  0
 21 22  2  0  0  0
 21 23  2  0  0  0
 19  1  1  0  0  0
  1 37  1  0  0  0
  1  2  1  0  0  0
 37 38  1  0  0  0
 38 39  1  0  0  0
 39 40  1  0  0  0
 40 42  1  0  0  0
 42 43  1  0  0  0
 42 44  2  0  0  0
  2  3  2  0  0  0
  4  5  1  0  0  0
  4  9  1  0  0  0
  5  6  1  0  0  0
  5 10  1  0  0  0
  6  7  1  0  0  0
  7  8  1  0  0  0
  8  9  1  0  0  0
 10 11  1  0  0  0
 14 15  1  0  0  0
 14 16  1  0  0  0
 12 13  2  0  0  0
 15 17  2  0  0  0
 16 13  1  0  0  0
 16 18  2  0  0  0
 17 18  1  0  0  0
 21 19  1  0  0  0
  2  4  1  0  0  0
 11 13  1  0  0  0
 19 20  1  0  0  0
 40 41  1  0  0  0
 43 45  1  0  0  0
 43 46  1  0  0  0
 44 47  1  0  0  0
 44 48  1  0  0  0
M  CHG 1  44   1
M  END
> <minimizedAffinity>
-7.14541

$$$$
1A4W_QWE_H_373


 48 51  0  0  0  0  0  0  0  0999 V2000
   16.1421  -12.3752   13.6494 C   0  0  0  0  0  0  0  0  0  0  0  0
   17.2034  -11.9831   12.6171 C   0  0  0  0  0  0  0  0  0  0  0  0
   17.3784  -10.7741   12.4913 O   0  0  0  0  0  0  0  0  0  0  0  0
   17.8173  -12.9684   11.7955 N   0  0  0  0  0  0  0  0  0  0  0  0
   17.2271  -14.4095   11.8738 C   0  0  0  0  0  0  0  0  0  0  0  0
   18.4573  -15.3275   11.9344 C   0  0  0  0  0  0  0  0  0  0  0  0
   19.5566  -14.9943   10.7701 C   0  0  0  0  0  0  0  0  0  0  0  0
   20.0223  -13.4551   10.7404 C   0  0  0  0  0  0  0  0  0  0  0  0
   18.8356  -12.5280   10.7135 C   0  0  0  0  0  0  0  0  0  0  0  0
   16.4524  -14.7925   10.8260 C   0  0  0  0  0  0  0  0  0  0  0  0
   15.7657  -16.2018   10.9518 C   0  0  0  0  0  0  0  0  0  0  0  0
   13.5266  -15.6064   11.2342 O   0  0  0  0  0  0  0  0  0  0  0  0
   14.5293  -16.0097   11.7502 C   0  0  0  0  0  0  0  0  0  0  0  0
   15.6005  -17.4830   13.8694 S   0  0  0  0  0  0  0  0  0  0  0  0
   14.3439  -17.8571   14.9975 C   0  0  0  0  0  0  0  0  0  0  0  0
   14.5191  -16.2554   13.2465 C   0  0  0  0  0  0  0  0  0  0  0  0
   13.2621  -17.0145   14.8384 C   0  0  0  0  0  0  0  0  0  0  0  0
   13.3490  -16.0647   13.8786 N   0  0  0  0  0  0  0  0  0  0  0  0
   16.6332  -11.8210   14.9486 N   0  0  0  0  0  0  0  0  0  0  0  0
   16.2886  -10.8674   15.0590 H   0  0  0  0  0  0  0  0  0  0  0  0
   16.0118  -12.8855   16.4022 S   0  0  0  0  0  0  0  0  0  0  0  0
   15.6575  -14.2160   15.8761 O   0  0  0  0  0  0  0  0  0  0  0  0
   15.0141  -11.8505   16.7269 O   0  0  0  0  0  0  0  0  0  0  0  0
   17.4778  -13.4547   17.4326 C   0  0  0  0  0  0  0  0  0  0  0  0
   18.7580  -13.0532   16.9801 C   0  0  0  0  0  0  0  0  0  0  0  0
   19.8516  -13.4306   17.7167 C   0  0  0  0  0  0  0  0  0  0  0  0
   19.6821  -14.1798   18.8890 C   0  0  0  0  0  0  0  0  0  0  0  0
   18.4291  -14.5508   19.3649 C   0  0  0  0  0  0  0  0  0  0  0  0
   18.2371  -15.1888   20.5603 C   0  0  0  0  0  0  0  0  0  0  0  0
   16.9651  -15.4888   20.9996 C   0  0  0  0  0  0  0  0  0  0  0  0
   15.8588  -15.1735   20.1850 C   0  0  0  0  0  0  0  0  0  0  0  0
   16.0025  -14.5019   18.9964 C   0  0  0  0  0  0  0  0  0  0  0  0
   17.2666  -14.1707   18.5883 C   0  0  0  0  0  0  0  0  0  0  0  0
   19.3102  -15.4036   21.4258 N   0  0  0  0  0  0  0  0  0  0  0  0
   19.9064  -16.7342   21.6940 C   0  0  0  0  0  0  0  0  0  0  0  0
   19.5150  -14.5217   22.7535 C   0  0  0  0  0  0  0  0  0  0  0  0
   14.7825  -11.7783   13.3153 C   0  0  0  0  0  0  0  0  0  0  0  0
   14.2296  -12.2718   11.9769 C   0  0  0  0  0  0  0  0  0  0  0  0
   12.7179  -12.0988   11.9585 C   0  0  0  0  0  0  0  0  0  0  0  0
   12.1690  -13.2134   12.7009 N   0  0  0  0  0  0  0  0  0  0  0  0
   12.8018  -13.6816   13.2921 H   0  0  0  0  0  0  0  0  0  0  0  0
   10.9365  -13.6897   12.6952 C   0  0  0  0  0  0  0  0  0  0  0  0
    9.9045  -12.8455   12.7408 N   0  0  0  0  0  0  0  0  0  0  0  0
   10.7746  -14.9993   12.5612 N   0  0  0  0  0  0  0  0  0  0  0  0
   10.0632  -11.8791   12.8411 H   0  0  0  0  0  0  0  0  0  0  0  0
    8.9843  -13.1889   12.6743 H   0  0  0  0  0  0  0  0  0  0  0  0
   11.5601  -15.5920   12.5314 H   0  0  0  0  0  0  0  0  0  0  0  0
    9.8688  -15.3787   12.4917 H   0  0  0  0  0  0  0  0  0  0  0  0
 24 25  2  0  0  0
 24 33  1  0  0  0
 24 21  1  0  0  0
 25 26  1  0  0  0
 26 27  2  0  0  0
 27 28  1  0  0  0
 28 29  2  0  0  0
 28 33  1  0  0  0
 29 30  1  0  0  0
 29 34  1  0  0  0
 30 31  2  0  0  0
 31 32  1  0  0  0
 32 33  2  0  0  0
 34 35  1  0  0  0
 34 36  1  0  0  0
 21 22  2  0  0  0
 21 23  2  0  0  0
 19  1  1  0  0  0
  1 37  1  0  0  0
  1  2  1  0  0  0
 37 38  1  0  0  0
 38 39  1  0  0  0
 39 40  1  0  0  0
 40 42  1  0  0  0
 42 43  1  0  0  0
 42 44  2  0  0  0
  2  3  2  0  0  0
  4  5  1  0  0  0
  4  9  1  0  0  0
  5  6  1  0  0  0
  5 10  1  0  0  0
  6  7  1  0  0  0
  7  8  1  0  0  0
  8  9  1  0  0  0
 10 11  1  0  0  0
 14 15  1  0  0  0
 14 16  1  0  0  0
 12 13  2  0  0  0
 15 17  2  0  0  0
 16 13  1  0  0  0
 16 18  2  0  0  0
 17 18  1  0  0  0
 21 19  1  0  0  0
  2  4  1  0  0  0
 11 13  1  0  0  0
 19 20  1  0  0  0
 40 41  1  0  0  0
 43 45  1  0  0  0
 43 46  1  0  0  0
 44 47  1  0  0  0
 44 48  1  0  0  0
M  CHG 1  44   1
M  END
> <minimizedAffinity>
-7.13160

$$$$
1A4W_QWE_H_373


 48 51  0  0  0  0  0  0  0  0999 V2000
   18.9808  -15.0680   22.7248 C   0  0  0  0  0  0  0  0  0  0  0  0
   19.8993  -14.3640   21.7215 C   0  0  0  0  0  0  0  0  0  0  0  0
   21.0729  -14.2740   22.0720 O   0  0  0  0  0  0  0  0  0  0  0  0
   19.3674  -13.7588   20.5497 N   0  0  0  0  0  0  0  0  0  0  0  0
   17.8132  -13.6917   20.4422 C   0  0  0  0  0  0  0  0  0  0  0  0
   17.5085  -14.1036   18.9940 C   0  0  0  0  0  0  0  0  0  0  0  0
   18.4047  -13.2841   17.8985 C   0  0  0  0  0  0  0  0  0  0  0  0
   19.9884  -13.3620   18.1687 C   0  0  0  0  0  0  0  0  0  0  0  0
   20.3162  -12.9944   19.5920 C   0  0  0  0  0  0  0  0  0  0  0  0
   17.2532  -12.4762   20.6735 C   0  0  0  0  0  0  0  0  0  0  0  0
   15.7266  -12.3393   20.3209 C   0  0  0  0  0  0  0  0  0  0  0  0
   15.4994  -13.2265   22.4678 O   0  0  0  0  0  0  0  0  0  0  0  0
   14.9680  -12.6613   21.5554 C   0  0  0  0  0  0  0  0  0  0  0  0
   12.9203  -10.8723   20.9110 S   0  0  0  0  0  0  0  0  0  0  0  0
   11.8421  -10.7300   22.2559 C   0  0  0  0  0  0  0  0  0  0  0  0
   13.4897  -12.3436   21.6697 C   0  0  0  0  0  0  0  0  0  0  0  0
   11.9718  -11.8017   23.1163 C   0  0  0  0  0  0  0  0  0  0  0  0
   12.8708  -12.7581   22.7878 N   0  0  0  0  0  0  0  0  0  0  0  0
   19.6563  -16.3663   23.0328 N   0  0  0  0  0  0  0  0  0  0  0  0
   20.3202  -16.2273   23.7946 H   0  0  0  0  0  0  0  0  0  0  0  0
   18.3726  -17.6766   23.5499 S   0  0  0  0  0  0  0  0  0  0  0  0
   17.1219  -16.9791   23.8986 O   0  0  0  0  0  0  0  0  0  0  0  0
   19.3169  -18.1978   24.5543 O   0  0  0  0  0  0  0  0  0  0  0  0
   17.7073  -18.5397   22.0178 C   0  0  0  0  0  0  0  0  0  0  0  0
   18.2605  -19.8090   21.7212 C   0  0  0  0  0  0  0  0  0  0  0  0
   17.7860  -20.4802   20.6233 C   0  0  0  0  0  0  0  0  0  0  0  0
   16.7714  -19.9133   19.8400 C   0  0  0  0  0  0  0  0  0  0  0  0
   16.1937  -18.6842   20.1395 C   0  0  0  0  0  0  0  0  0  0  0  0
   15.1316  -18.1644   19.4506 C   0  0  0  0  0  0  0  0  0  0  0  0
   14.5726  -16.9612   19.8257 C   0  0  0  0  0  0  0  0  0  0  0  0
   15.1329  -16.2427   20.9012 C   0  0  0  0  0  0  0  0  0  0  0  0
   16.1745  -16.7430   21.6421 C   0  0  0  0  0  0  0  0  0  0  0  0
   16.6960  -17.9583   21.2883 C   0  0  0  0  0  0  0  0  0  0  0  0
   14.4972  -18.9153   18.4604 N   0  0  0  0  0  0  0  0  0  0  0  0
   14.5915  -18.6238   17.0098 C   0  0  0  0  0  0  0  0  0  0  0  0
   13.0669  -19.6046   18.7081 C   0  0  0  0  0  0  0  0  0  0  0  0
   18.8144  -14.2576   24.0023 C   0  0  0  0  0  0  0  0  0  0  0  0
   19.6318  -14.8140   25.1696 C   0  0  0  0  0  0  0  0  0  0  0  0
   20.7744  -13.8606   25.4878 C   0  0  0  0  0  0  0  0  0  0  0  0
   21.9488  -14.3957   24.8326 N   0  0  0  0  0  0  0  0  0  0  0  0
   22.3850  -13.7941   24.1868 H   0  0  0  0  0  0  0  0  0  0  0  0
   22.5167  -15.5795   24.9810 C   0  0  0  0  0  0  0  0  0  0  0  0
   22.9282  -15.9650   26.1901 N   0  0  0  0  0  0  0  0  0  0  0  0
   22.5814  -16.3772   23.9234 N   0  0  0  0  0  0  0  0  0  0  0  0
   22.8648  -15.3452   26.9524 H   0  0  0  0  0  0  0  0  0  0  0  0
   23.2952  -16.8692   26.3200 H   0  0  0  0  0  0  0  0  0  0  0  0
   22.2682  -16.0582   23.0463 H   0  0  0  0  0  0  0  0  0  0  0  0
   22.9427  -17.2884   24.0155 H   0  0  0  0  0  0  0  0  0  0  0  0
 24 25  2  0  0  0
 24 33  1  0  0  0
 24 21  1  0  0  0
 25 26  1  0  0  0
 26 27  2  0  0  0
 27 28  1  0  0  0
 28 29  2  0  0  0
 28 33  1  0  0  0
 29 30  1  0  0  0
 29 34  1  0  0  0
 30 31  2  0  0  0
 31 32  1  0  0  0
 32 33  2  0  0  0
 34 35  1  0  0  0
 34 36  1  0  0  0
 21 22  2  0  0  0
 21 23  2  0  0  0
 19  1  1  0  0  0
  1 37  1  0  0  0
  1  2  1  0  0  0
 37 38  1  0  0  0
 38 39  1  0  0  0
 39 40  1  0  0  0
 40 42  1  0  0  0
 42 43  1  0  0  0
 42 44  2  0  0  0
  2  3  2  0  0  0
  4  5  1  0  0  0
  4  9  1  0  0  0
  5  6  1  0  0  0
  5 10  1  0  0  0
  6  7  1  0  0  0
  7  8  1  0  0  0
  8  9  1  0  0  0
 10 11  1  0  0  0
 14 15  1  0  0  0
 14 16  1  0  0  0
 12 13  2  0  0  0
 15 17  2  0  0  0
 16 13  1  0  0  0
 16 18  2  0  0  0
 17 18  1  0  0  0
 21 19  1  0  0  0
  2  4  1  0  0  0
 11 13  1  0  0  0
 19 20  1  0  0  0
 40 41  1  0  0  0
 43 45  1  0  0  0
 43 46  1  0  0  0
 44 47  1  0  0  0
 44 48  1  0  0  0
M  CHG 1  44   1
M  END
> <minimizedAffinity>
-7.04137

$$$$
1A4W_QWE_H_373


 48 51  0  0  0  0  0  0  0  0999 V2000
   14.7910  -13.9383   21.1799 C   0  0  0  0  0  0  0  0  0  0  0  0
   14.3405  -15.3807   21.4294 C   0  0  0  0  0  0  0  0  0  0  0  0
   13.1356  -15.5182   21.6234 O   0  0  0  0  0  0  0  0  0  0  0  0
   15.2936  -16.4291   21.5518 N   0  0  0  0  0  0  0  0  0  0  0  0
   16.7937  -16.0066   21.6032 C   0  0  0  0  0  0  0  0  0  0  0  0
   17.5068  -17.0021   20.6756 C   0  0  0  0  0  0  0  0  0  0  0  0
   17.1207  -18.5586   20.9971 C   0  0  0  0  0  0  0  0  0  0  0  0
   15.5383  -18.8467   20.9973 C   0  0  0  0  0  0  0  0  0  0  0  0
   14.8066  -17.8646   21.8740 C   0  0  0  0  0  0  0  0  0  0  0  0
   17.3834  -16.0552   22.8256 C   0  0  0  0  0  0  0  0  0  0  0  0
   17.7860  -14.6713   23.4552 C   0  0  0  0  0  0  0  0  0  0  0  0
   19.3761  -13.8435   21.9605 O   0  0  0  0  0  0  0  0  0  0  0  0
   19.1723  -14.3818   23.0107 C   0  0  0  0  0  0  0  0  0  0  0  0
   20.3434  -14.4319   25.5474 S   0  0  0  0  0  0  0  0  0  0  0  0
   22.0465  -14.1708   25.3953 C   0  0  0  0  0  0  0  0  0  0  0  0
   20.3655  -14.8159   23.8396 C   0  0  0  0  0  0  0  0  0  0  0  0
   22.4797  -14.4325   24.1110 C   0  0  0  0  0  0  0  0  0  0  0  0
   21.5539  -14.8429   23.2135 N   0  0  0  0  0  0  0  0  0  0  0  0
   14.5727  -13.7050   19.7189 N   0  0  0  0  0  0  0  0  0  0  0  0
   13.7872  -13.0663   19.5942 H   0  0  0  0  0  0  0  0  0  0  0  0
   16.1312  -12.9459   18.9273 S   0  0  0  0  0  0  0  0  0  0  0  0
   17.2062  -13.9531   18.9765 O   0  0  0  0  0  0  0  0  0  0  0  0
   16.0440  -11.8076   19.8595 O   0  0  0  0  0  0  0  0  0  0  0  0
   15.9421  -12.9371   17.0567 C   0  0  0  0  0  0  0  0  0  0  0  0
   16.4042  -11.7802   16.3836 C   0  0  0  0  0  0  0  0  0  0  0  0
   16.3033  -11.7444   15.0163 C   0  0  0  0  0  0  0  0  0  0  0  0
   15.7682  -12.8395   14.3243 C   0  0  0  0  0  0  0  0  0  0  0  0
   15.3435  -13.9965   14.9688 C   0  0  0  0  0  0  0  0  0  0  0  0
   14.9185  -15.1148   14.3043 C   0  0  0  0  0  0  0  0  0  0  0  0
   14.5540  -16.2484   14.9994 C   0  0  0  0  0  0  0  0  0  0  0  0
   14.5785  -16.2343   16.4087 C   0  0  0  0  0  0  0  0  0  0  0  0
   15.0317  -15.1476   17.1145 C   0  0  0  0  0  0  0  0  0  0  0  0
   15.4314  -14.0413   16.4142 C   0  0  0  0  0  0  0  0  0  0  0  0
   14.9975  -15.1816   12.9129 N   0  0  0  0  0  0  0  0  0  0  0  0
   13.8194  -15.1636   12.0131 C   0  0  0  0  0  0  0  0  0  0  0  0
   16.1413  -16.0322   12.1709 C   0  0  0  0  0  0  0  0  0  0  0  0
   13.9714  -12.9433   21.9890 C   0  0  0  0  0  0  0  0  0  0  0  0
   12.8431  -12.3040   21.1775 C   0  0  0  0  0  0  0  0  0  0  0  0
   12.5979  -10.8882   21.6787 C   0  0  0  0  0  0  0  0  0  0  0  0
   11.4290  -10.9518   22.5299 N   0  0  0  0  0  0  0  0  0  0  0  0
   10.5645  -10.8419   22.0718 H   0  0  0  0  0  0  0  0  0  0  0  0
   11.3611  -11.1368   23.8364 C   0  0  0  0  0  0  0  0  0  0  0  0
   11.9023  -10.2354   24.6577 N   0  0  0  0  0  0  0  0  0  0  0  0
   10.6790  -12.1826   24.2837 N   0  0  0  0  0  0  0  0  0  0  0  0
   12.4022   -9.4714   24.2894 H   0  0  0  0  0  0  0  0  0  0  0  0
   11.8018  -10.3342   25.6320 H   0  0  0  0  0  0  0  0  0  0  0  0
   10.2936  -12.8276   23.6475 H   0  0  0  0  0  0  0  0  0  0  0  0
   10.5580  -12.3140   25.2519 H   0  0  0  0  0  0  0  0  0  0  0  0
 24 25  2  0  0  0
 24 33  1  0  0  0
 24 21  1  0  0  0
 25 26  1  0  0  0
 26 27  2  0  0  0
 27 28  1  0  0  0
 28 29  2  0  0  0
 28 33  1  0  0  0
 29 30  1  0  0  0
 29 34  1  0  0  0
 30 31  2  0  0  0
 31 32  1  0  0  0
 32 33  2  0  0  0
 34 35  1  0  0  0
 34 36  1  0  0  0
 21 22  2  0  0  0
 21 23  2  0  0  0
 19  1  1  0  0  0
  1 37  1  0  0  0
  1  2  1  0  0  0
 37 38  1  0  0  0
 38 39  1  0  0  0
 39 40  1  0  0  0
 40 42  1  0  0  0
 42 43  1  0  0  0
 42 44  2  0  0  0
  2  3  2  0  0  0
  4  5  1  0  0  0
  4  9  1  0  0  0
  5  6  1  0  0  0
  5 10  1  0  0  0
  6  7  1  0  0  0
  7  8  1  0  0  0
  8  9  1  0  0  0
 10 11  1  0  0  0
 14 15  1  0  0  0
 14 16  1  0  0  0
 12 13  2  0  0  0
 15 17  2  0  0  0
 16 13  1  0  0  0
 16 18  2  0  0  0
 17 18  1  0  0  0
 21 19  1  0  0  0
  2  4  1  0  0  0
 11 13  1  0  0  0
 19 20  1  0  0  0
 40 41  1  0  0  0
 43 45  1  0  0  0
 43 46  1  0  0  0
 44 47  1  0  0  0
 44 48  1  0  0  0
M  CHG 1  44   1
M  END
> <minimizedAffinity>
-7.03408

$$$$
