6GON_8PF_A_201


 26 25  0  0  0  0  0  0  0  0999 V2000
   13.9388   -3.3992   38.3497 C   0  0  0  0  0  0  0  0  0  0  0  0
   14.0119   -3.7382   37.0571 F   0  0  0  0  0  0  0  0  0  0  0  0
   13.7774   -4.4984   39.0984 F   0  0  0  0  0  0  0  0  0  0  0  0
   15.2308   -2.7211   38.7505 C   0  0  0  0  0  0  0  0  0  0  0  0
   15.0940   -2.1638   39.9608 F   0  0  0  0  0  0  0  0  0  0  0  0
   15.5478   -1.7811   37.8511 F   0  0  0  0  0  0  0  0  0  0  0  0
   16.3544   -3.7337   38.7778 C   0  0  0  0  0  0  0  0  0  0  0  0
   16.1567   -4.6014   37.7778 F   0  0  0  0  0  0  0  0  0  0  0  0
   16.2807   -4.4051   39.9343 F   0  0  0  0  0  0  0  0  0  0  0  0
   17.7543   -3.1771   38.6470 C   0  0  0  0  0  0  0  0  0  0  0  0
   18.6199   -3.9939   39.2604 F   0  0  0  0  0  0  0  0  0  0  0  0
   17.8074   -1.9639   39.2125 F   0  0  0  0  0  0  0  0  0  0  0  0
   18.0762   -3.0793   37.3508 F   0  0  0  0  0  0  0  0  0  0  0  0
   12.7758   -2.4555   38.5672 C   0  0  0  0  0  0  0  0  0  0  0  0
   12.7708   -2.0271   39.8356 F   0  0  0  0  0  0  0  0  0  0  0  0
   12.9068   -1.3849   37.7746 F   0  0  0  0  0  0  0  0  0  0  0  0
   11.7509   -4.2453   37.5190 F   0  0  0  0  0  0  0  0  0  0  0  0
   11.4754   -3.1650   38.2610 C   0  0  0  0  0  0  0  0  0  0  0  0
   10.9368   -3.5729   39.4176 F   0  0  0  0  0  0  0  0  0  0  0  0
   10.4458   -2.3343   37.5258 C   0  0  0  0  0  0  0  0  0  0  0  0
   10.3274   -1.1336   38.1080 F   0  0  0  0  0  0  0  0  0  0  0  0
    9.2452   -2.9236   37.6003 F   0  0  0  0  0  0  0  0  0  0  0  0
   10.8597   -2.1657   36.0493 C   0  0  0  0  0  0  0  0  0  0  0  0
   10.4768   -1.0915   35.5158 O   0  0  0  0  0  0  0  0  0  0  0  0
   11.5267   -3.0331   35.4268 O   0  0  0  0  0  0  0  0  0  0  0  0
    9.9819   -0.4713   36.0141 H   0  0  0  0  0  0  0  0  0  0  0  0
 25 23  2  0  0  0
 24 23  1  0  0  0
 23 20  1  0  0  0
 22 20  1  0  0  0
 20 21  1  0  0  0
 20 18  1  0  0  0
 17 18  1  0  0  0
 18 19  1  0  0  0
 18 14  1  0  0  0
 15 14  1  0  0  0
 14 16  1  0  0  0
 14  1  1  0  0  0
  2  1  1  0  0  0
  1  3  1  0  0  0
  1  4  1  0  0  0
  5  4  1  0  0  0
  4  6  1  0  0  0
  4  7  1  0  0  0
 12 10  1  0  0  0
  7 10  1  0  0  0
  7  9  1  0  0  0
  7  8  1  0  0  0
 10 13  1  0  0  0
 10 11  1  0  0  0
 24 26  1  0  0  0
M  END
> <minimizedAffinity>
-8.73697

$$$$
6GON_8PF_A_201


 26 25  0  0  0  0  0  0  0  0999 V2000
   14.3340   -2.6818   38.7814 C   0  0  0  0  0  0  0  0  0  0  0  0
   14.4554   -2.2702   40.0491 F   0  0  0  0  0  0  0  0  0  0  0  0
   14.6542   -1.6832   37.9478 F   0  0  0  0  0  0  0  0  0  0  0  0
   15.2855   -3.8353   38.5493 C   0  0  0  0  0  0  0  0  0  0  0  0
   15.4859   -4.0004   37.2352 F   0  0  0  0  0  0  0  0  0  0  0  0
   14.7761   -4.9564   39.0753 F   0  0  0  0  0  0  0  0  0  0  0  0
   16.6043   -3.5586   39.2370 C   0  0  0  0  0  0  0  0  0  0  0  0
   16.5165   -3.9998   40.4978 F   0  0  0  0  0  0  0  0  0  0  0  0
   16.7854   -2.2321   39.2701 F   0  0  0  0  0  0  0  0  0  0  0  0
   17.8276   -4.1835   38.6047 C   0  0  0  0  0  0  0  0  0  0  0  0
   17.5437   -5.4346   38.2217 F   0  0  0  0  0  0  0  0  0  0  0  0
   18.8288   -4.2050   39.4945 F   0  0  0  0  0  0  0  0  0  0  0  0
   18.1952   -3.4633   37.5373 F   0  0  0  0  0  0  0  0  0  0  0  0
   12.9120   -3.1302   38.5220 C   0  0  0  0  0  0  0  0  0  0  0  0
   12.8770   -3.9268   37.4466 F   0  0  0  0  0  0  0  0  0  0  0  0
   12.4612   -3.8344   39.5673 F   0  0  0  0  0  0  0  0  0  0  0  0
   11.8008   -1.3410   39.4793 F   0  0  0  0  0  0  0  0  0  0  0  0
   12.0272   -1.9244   38.2952 C   0  0  0  0  0  0  0  0  0  0  0  0
   12.6889   -1.0580   37.5170 F   0  0  0  0  0  0  0  0  0  0  0  0
   10.6912   -2.2183   37.6478 C   0  0  0  0  0  0  0  0  0  0  0  0
    9.7570   -1.3887   38.1312 F   0  0  0  0  0  0  0  0  0  0  0  0
   10.3008   -3.4634   37.9504 F   0  0  0  0  0  0  0  0  0  0  0  0
   10.7988   -2.0567   36.1175 C   0  0  0  0  0  0  0  0  0  0  0  0
   10.2761   -1.0057   35.6622 O   0  0  0  0  0  0  0  0  0  0  0  0
   11.3636   -2.9079   35.3818 O   0  0  0  0  0  0  0  0  0  0  0  0
    9.8650   -0.3969   36.2439 H   0  0  0  0  0  0  0  0  0  0  0  0
 25 23  2  0  0  0
 24 23  1  0  0  0
 23 20  1  0  0  0
 22 20  1  0  0  0
 20 21  1  0  0  0
 20 18  1  0  0  0
 17 18  1  0  0  0
 18 19  1  0  0  0
 18 14  1  0  0  0
 15 14  1  0  0  0
 14 16  1  0  0  0
 14  1  1  0  0  0
  2  1  1  0  0  0
  1  3  1  0  0  0
  1  4  1  0  0  0
  5  4  1  0  0  0
  4  6  1  0  0  0
  4  7  1  0  0  0
 12 10  1  0  0  0
  7 10  1  0  0  0
  7  9  1  0  0  0
  7  8  1  0  0  0
 10 13  1  0  0  0
 10 11  1  0  0  0
 24 26  1  0  0  0
M  END
> <minimizedAffinity>
-8.71512

$$$$
6GON_8PF_A_201


 26 25  0  0  0  0  0  0  0  0999 V2000
   13.9728   -2.7594   38.5566 C   0  0  0  0  0  0  0  0  0  0  0  0
   14.1130   -2.4148   39.8422 F   0  0  0  0  0  0  0  0  0  0  0  0
   14.0349   -1.6663   37.7846 F   0  0  0  0  0  0  0  0  0  0  0  0
   15.1023   -3.6912   38.1749 C   0  0  0  0  0  0  0  0  0  0  0  0
   14.8397   -4.2612   36.9915 F   0  0  0  0  0  0  0  0  0  0  0  0
   15.2467   -4.6367   39.1120 F   0  0  0  0  0  0  0  0  0  0  0  0
   16.3999   -2.9178   38.0933 C   0  0  0  0  0  0  0  0  0  0  0  0
   16.3922   -1.9897   39.0580 F   0  0  0  0  0  0  0  0  0  0  0  0
   16.4363   -2.2908   36.9105 F   0  0  0  0  0  0  0  0  0  0  0  0
   17.6678   -3.7300   38.2329 C   0  0  0  0  0  0  0  0  0  0  0  0
   17.4650   -4.9626   37.7510 F   0  0  0  0  0  0  0  0  0  0  0  0
   18.0093   -3.8064   39.5260 F   0  0  0  0  0  0  0  0  0  0  0  0
   18.6537   -3.1396   37.5455 F   0  0  0  0  0  0  0  0  0  0  0  0
   12.6440   -3.4549   38.3544 C   0  0  0  0  0  0  0  0  0  0  0  0
   12.5385   -3.8711   37.0862 F   0  0  0  0  0  0  0  0  0  0  0  0
   12.5715   -4.5322   39.1455 F   0  0  0  0  0  0  0  0  0  0  0  0
   12.0058   -1.4992   39.4129 F   0  0  0  0  0  0  0  0  0  0  0  0
   11.5128   -2.5038   38.6770 C   0  0  0  0  0  0  0  0  0  0  0  0
   11.0488   -1.9972   37.5272 F   0  0  0  0  0  0  0  0  0  0  0  0
   10.3505   -3.1164   39.4283 C   0  0  0  0  0  0  0  0  0  0  0  0
   10.0099   -4.2850   38.8687 F   0  0  0  0  0  0  0  0  0  0  0  0
    9.2792   -2.3168   39.3434 F   0  0  0  0  0  0  0  0  0  0  0  0
   10.7320   -3.3315   40.9074 C   0  0  0  0  0  0  0  0  0  0  0  0
   10.1574   -4.3049   41.4619 O   0  0  0  0  0  0  0  0  0  0  0  0
   11.5522   -2.5926   41.5125 O   0  0  0  0  0  0  0  0  0  0  0  0
    9.5530   -4.8308   40.9761 H   0  0  0  0  0  0  0  0  0  0  0  0
 25 23  2  0  0  0
 24 23  1  0  0  0
 23 20  1  0  0  0
 22 20  1  0  0  0
 20 21  1  0  0  0
 20 18  1  0  0  0
 17 18  1  0  0  0
 18 19  1  0  0  0
 18 14  1  0  0  0
 15 14  1  0  0  0
 14 16  1  0  0  0
 14  1  1  0  0  0
  2  1  1  0  0  0
  1  3  1  0  0  0
  1  4  1  0  0  0
  5  4  1  0  0  0
  4  6  1  0  0  0
  4  7  1  0  0  0
 12 10  1  0  0  0
  7 10  1  0  0  0
  7  9  1  0  0  0
  7  8  1  0  0  0
 10 13  1  0  0  0
 10 11  1  0  0  0
 24 26  1  0  0  0
M  END
> <minimizedAffinity>
-8.68097

$$$$
6GON_8PF_A_201


 26 25  0  0  0  0  0  0  0  0999 V2000
   14.2520   -2.8107   38.0547 C   0  0  0  0  0  0  0  0  0  0  0  0
   14.6735   -1.5494   37.9050 F   0  0  0  0  0  0  0  0  0  0  0  0
   14.1246   -3.3918   36.8544 F   0  0  0  0  0  0  0  0  0  0  0  0
   15.2785   -3.5761   38.8610 C   0  0  0  0  0  0  0  0  0  0  0  0
   14.7560   -4.7383   39.2740 F   0  0  0  0  0  0  0  0  0  0  0  0
   15.6593   -2.8483   39.9185 F   0  0  0  0  0  0  0  0  0  0  0  0
   16.5041   -3.8387   38.0139 C   0  0  0  0  0  0  0  0  0  0  0  0
   16.6464   -2.8172   37.1605 F   0  0  0  0  0  0  0  0  0  0  0  0
   16.2860   -4.9514   37.3012 F   0  0  0  0  0  0  0  0  0  0  0  0
   17.8062   -4.0096   38.7635 C   0  0  0  0  0  0  0  0  0  0  0  0
   18.2794   -2.8083   39.1179 F   0  0  0  0  0  0  0  0  0  0  0  0
   18.6974   -4.6263   37.9762 F   0  0  0  0  0  0  0  0  0  0  0  0
   17.5956   -4.7470   39.8612 F   0  0  0  0  0  0  0  0  0  0  0  0
   12.9209   -2.8242   38.7747 C   0  0  0  0  0  0  0  0  0  0  0  0
   12.3017   -3.9919   38.5608 F   0  0  0  0  0  0  0  0  0  0  0  0
   13.1175   -2.7012   40.0930 F   0  0  0  0  0  0  0  0  0  0  0  0
   11.7463   -0.9069   39.3193 F   0  0  0  0  0  0  0  0  0  0  0  0
   12.0564   -1.6873   38.2761 C   0  0  0  0  0  0  0  0  0  0  0  0
   12.7736   -0.9644   37.4060 F   0  0  0  0  0  0  0  0  0  0  0  0
   10.7699   -2.1059   37.5975 C   0  0  0  0  0  0  0  0  0  0  0  0
    9.7923   -1.2410   37.8990 F   0  0  0  0  0  0  0  0  0  0  0  0
   10.3830   -3.3052   38.0517 F   0  0  0  0  0  0  0  0  0  0  0  0
   10.9725   -2.1610   36.0693 C   0  0  0  0  0  0  0  0  0  0  0  0
   10.5077   -1.1734   35.4419 O   0  0  0  0  0  0  0  0  0  0  0  0
   11.5554   -3.1174   35.4947 O   0  0  0  0  0  0  0  0  0  0  0  0
   10.0804   -0.4815   35.9074 H   0  0  0  0  0  0  0  0  0  0  0  0
 25 23  2  0  0  0
 24 23  1  0  0  0
 23 20  1  0  0  0
 22 20  1  0  0  0
 20 21  1  0  0  0
 20 18  1  0  0  0
 17 18  1  0  0  0
 18 19  1  0  0  0
 18 14  1  0  0  0
 15 14  1  0  0  0
 14 16  1  0  0  0
 14  1  1  0  0  0
  2  1  1  0  0  0
  1  3  1  0  0  0
  1  4  1  0  0  0
  5  4  1  0  0  0
  4  6  1  0  0  0
  4  7  1  0  0  0
 12 10  1  0  0  0
  7 10  1  0  0  0
  7  9  1  0  0  0
  7  8  1  0  0  0
 10 13  1  0  0  0
 10 11  1  0  0  0
 24 26  1  0  0  0
M  END
> <minimizedAffinity>
-8.63978

$$$$
6GON_8PF_A_201


 26 25  0  0  0  0  0  0  0  0999 V2000
   14.1928   -3.5120   38.0988 C   0  0  0  0  0  0  0  0  0  0  0  0
   14.2293   -3.9275   36.8271 F   0  0  0  0  0  0  0  0  0  0  0  0
   14.3196   -4.5610   38.9224 F   0  0  0  0  0  0  0  0  0  0  0  0
   15.3475   -2.5632   38.3357 C   0  0  0  0  0  0  0  0  0  0  0  0
   15.5716   -2.4411   39.6507 F   0  0  0  0  0  0  0  0  0  0  0  0
   15.0648   -1.3645   37.8102 F   0  0  0  0  0  0  0  0  0  0  0  0
   16.5908   -3.0874   37.6517 C   0  0  0  0  0  0  0  0  0  0  0  0
   16.5910   -2.6403   36.3899 F   0  0  0  0  0  0  0  0  0  0  0  0
   16.5161   -4.4242   37.6213 F   0  0  0  0  0  0  0  0  0  0  0  0
   17.9095   -2.7056   38.2856 C   0  0  0  0  0  0  0  0  0  0  0  0
   17.8703   -1.4208   38.6606 F   0  0  0  0  0  0  0  0  0  0  0  0
   18.8988   -2.8825   37.3999 F   0  0  0  0  0  0  0  0  0  0  0  0
   18.1285   -3.4763   39.3585 F   0  0  0  0  0  0  0  0  0  0  0  0
   12.8832   -2.8033   38.3691 C   0  0  0  0  0  0  0  0  0  0  0  0
   13.0184   -1.9871   39.4218 F   0  0  0  0  0  0  0  0  0  0  0  0
   12.5466   -2.0546   37.3119 F   0  0  0  0  0  0  0  0  0  0  0  0
   11.4542   -4.3934   37.4847 F   0  0  0  0  0  0  0  0  0  0  0  0
   11.7974   -3.8197   38.6452 C   0  0  0  0  0  0  0  0  0  0  0  0
   12.3006   -4.7640   39.4509 F   0  0  0  0  0  0  0  0  0  0  0  0
   10.5449   -3.2654   39.2892 C   0  0  0  0  0  0  0  0  0  0  0  0
    9.4656   -3.8940   38.8046 F   0  0  0  0  0  0  0  0  0  0  0  0
   10.4099   -1.9681   38.9842 F   0  0  0  0  0  0  0  0  0  0  0  0
   10.6152   -3.4426   40.8200 C   0  0  0  0  0  0  0  0  0  0  0  0
    9.9124   -4.3841   41.2726 O   0  0  0  0  0  0  0  0  0  0  0  0
   11.3187   -2.7046   41.5584 O   0  0  0  0  0  0  0  0  0  0  0  0
    9.4025   -4.9106   40.6889 H   0  0  0  0  0  0  0  0  0  0  0  0
 25 23  2  0  0  0
 24 23  1  0  0  0
 23 20  1  0  0  0
 22 20  1  0  0  0
 20 21  1  0  0  0
 20 18  1  0  0  0
 17 18  1  0  0  0
 18 19  1  0  0  0
 18 14  1  0  0  0
 15 14  1  0  0  0
 14 16  1  0  0  0
 14  1  1  0  0  0
  2  1  1  0  0  0
  1  3  1  0  0  0
  1  4  1  0  0  0
  5  4  1  0  0  0
  4  6  1  0  0  0
  4  7  1  0  0  0
 12 10  1  0  0  0
  7 10  1  0  0  0
  7  9  1  0  0  0
  7  8  1  0  0  0
 10 13  1  0  0  0
 10 11  1  0  0  0
 24 26  1  0  0  0
M  END
> <minimizedAffinity>
-8.61144

$$$$
6GON_8PF_A_201


 26 25  0  0  0  0  0  0  0  0999 V2000
   14.1840   -3.3721   38.7296 C   0  0  0  0  0  0  0  0  0  0  0  0
   14.3931   -4.6561   39.0440 F   0  0  0  0  0  0  0  0  0  0  0  0
   14.0363   -2.6496   39.8481 F   0  0  0  0  0  0  0  0  0  0  0  0
   15.3850   -2.8539   37.9689 C   0  0  0  0  0  0  0  0  0  0  0  0
   15.1426   -1.6116   37.5305 F   0  0  0  0  0  0  0  0  0  0  0  0
   15.6463   -3.6586   36.9310 F   0  0  0  0  0  0  0  0  0  0  0  0
   16.6003   -2.8503   38.8698 C   0  0  0  0  0  0  0  0  0  0  0  0
   16.4946   -3.8831   39.7148 F   0  0  0  0  0  0  0  0  0  0  0  0
   16.5822   -1.7197   39.5874 F   0  0  0  0  0  0  0  0  0  0  0  0
   17.9413   -2.9450   38.1774 C   0  0  0  0  0  0  0  0  0  0  0  0
   18.9050   -2.5320   39.0101 F   0  0  0  0  0  0  0  0  0  0  0  0
   17.9349   -2.1722   37.0833 F   0  0  0  0  0  0  0  0  0  0  0  0
   18.1722   -4.2159   37.8242 F   0  0  0  0  0  0  0  0  0  0  0  0
   12.9426   -3.2498   37.8727 C   0  0  0  0  0  0  0  0  0  0  0  0
   12.6182   -1.9591   37.7263 F   0  0  0  0  0  0  0  0  0  0  0  0
   13.1813   -3.7520   36.6551 F   0  0  0  0  0  0  0  0  0  0  0  0
   11.2001   -4.7439   37.5835 F   0  0  0  0  0  0  0  0  0  0  0  0
   11.7968   -3.9955   38.5202 C   0  0  0  0  0  0  0  0  0  0  0  0
   12.3013   -4.8115   39.4550 F   0  0  0  0  0  0  0  0  0  0  0  0
   10.7455   -3.1223   39.1707 C   0  0  0  0  0  0  0  0  0  0  0  0
    9.5299   -3.4567   38.7177 F   0  0  0  0  0  0  0  0  0  0  0  0
   10.9464   -1.8405   38.8377 F   0  0  0  0  0  0  0  0  0  0  0  0
   10.7997   -3.2836   40.7038 C   0  0  0  0  0  0  0  0  0  0  0  0
   10.0282   -4.1642   41.1669 O   0  0  0  0  0  0  0  0  0  0  0  0
   11.5545   -2.5898   41.4343 O   0  0  0  0  0  0  0  0  0  0  0  0
    9.4818   -4.6594   40.5888 H   0  0  0  0  0  0  0  0  0  0  0  0
 25 23  2  0  0  0
 24 23  1  0  0  0
 23 20  1  0  0  0
 22 20  1  0  0  0
 20 21  1  0  0  0
 20 18  1  0  0  0
 17 18  1  0  0  0
 18 19  1  0  0  0
 18 14  1  0  0  0
 15 14  1  0  0  0
 14 16  1  0  0  0
 14  1  1  0  0  0
  2  1  1  0  0  0
  1  3  1  0  0  0
  1  4  1  0  0  0
  5  4  1  0  0  0
  4  6  1  0  0  0
  4  7  1  0  0  0
 12 10  1  0  0  0
  7 10  1  0  0  0
  7  9  1  0  0  0
  7  8  1  0  0  0
 10 13  1  0  0  0
 10 11  1  0  0  0
 24 26  1  0  0  0
M  END
> <minimizedAffinity>
-8.30756

$$$$
6GON_8PF_A_201


 26 25  0  0  0  0  0  0  0  0999 V2000
   13.7340   -2.6153   38.2608 C   0  0  0  0  0  0  0  0  0  0  0  0
   13.5873   -3.3743   37.1683 F   0  0  0  0  0  0  0  0  0  0  0  0
   13.6760   -1.3199   37.9242 F   0  0  0  0  0  0  0  0  0  0  0  0
   12.6063   -2.9206   39.2224 C   0  0  0  0  0  0  0  0  0  0  0  0
   12.9017   -2.4366   40.4361 F   0  0  0  0  0  0  0  0  0  0  0  0
   12.4179   -4.2443   39.2951 F   0  0  0  0  0  0  0  0  0  0  0  0
   11.3223   -2.2967   38.7218 C   0  0  0  0  0  0  0  0  0  0  0  0
   11.2624   -2.4754   37.3964 F   0  0  0  0  0  0  0  0  0  0  0  0
   11.3776   -0.9807   38.9640 F   0  0  0  0  0  0  0  0  0  0  0  0
   10.0435   -2.8315   39.3262 C   0  0  0  0  0  0  0  0  0  0  0  0
    9.0186   -2.0458   38.9727 F   0  0  0  0  0  0  0  0  0  0  0  0
   10.1534   -2.8489   40.6612 F   0  0  0  0  0  0  0  0  0  0  0  0
    9.8256   -4.0754   38.8806 F   0  0  0  0  0  0  0  0  0  0  0  0
   15.0637   -2.9150   38.9184 C   0  0  0  0  0  0  0  0  0  0  0  0
   15.1860   -2.1968   40.0417 F   0  0  0  0  0  0  0  0  0  0  0  0
   15.1221   -4.2098   39.2528 F   0  0  0  0  0  0  0  0  0  0  0  0
   16.2031   -3.4900   36.9888 F   0  0  0  0  0  0  0  0  0  0  0  0
   16.1927   -2.5783   37.9697 C   0  0  0  0  0  0  0  0  0  0  0  0
   15.9434   -1.3785   37.4288 F   0  0  0  0  0  0  0  0  0  0  0  0
   17.5702   -2.5389   38.5957 C   0  0  0  0  0  0  0  0  0  0  0  0
   17.6748   -3.4936   39.5296 F   0  0  0  0  0  0  0  0  0  0  0  0
   17.7574   -1.3659   39.2148 F   0  0  0  0  0  0  0  0  0  0  0  0
   18.6489   -2.7412   37.5117 C   0  0  0  0  0  0  0  0  0  0  0  0
   19.2823   -3.8260   37.5970 O   0  0  0  0  0  0  0  0  0  0  0  0
   18.8785   -1.8896   36.6136 O   0  0  0  0  0  0  0  0  0  0  0  0
   19.0807   -4.4337   38.2812 H   0  0  0  0  0  0  0  0  0  0  0  0
 25 23  2  0  0  0
 24 23  1  0  0  0
 23 20  1  0  0  0
 22 20  1  0  0  0
 20 21  1  0  0  0
 20 18  1  0  0  0
 17 18  1  0  0  0
 18 19  1  0  0  0
 18 14  1  0  0  0
 15 14  1  0  0  0
 14 16  1  0  0  0
 14  1  1  0  0  0
  2  1  1  0  0  0
  1  3  1  0  0  0
  1  4  1  0  0  0
  5  4  1  0  0  0
  4  6  1  0  0  0
  4  7  1  0  0  0
 12 10  1  0  0  0
  7 10  1  0  0  0
  7  9  1  0  0  0
  7  8  1  0  0  0
 10 13  1  0  0  0
 10 11  1  0  0  0
 24 26  1  0  0  0
M  END
> <minimizedAffinity>
-8.27710

$$$$
6GON_8PF_A_201


 26 25  0  0  0  0  0  0  0  0999 V2000
   13.6887   -3.4629   38.6192 C   0  0  0  0  0  0  0  0  0  0  0  0
   13.7158   -2.7035   39.7209 F   0  0  0  0  0  0  0  0  0  0  0  0
   13.3570   -4.7199   38.9428 F   0  0  0  0  0  0  0  0  0  0  0  0
   12.6456   -2.9115   37.6718 C   0  0  0  0  0  0  0  0  0  0  0  0
   12.8379   -3.4123   36.4443 F   0  0  0  0  0  0  0  0  0  0  0  0
   12.7271   -1.5755   37.6349 F   0  0  0  0  0  0  0  0  0  0  0  0
   11.2622   -3.2778   38.1625 C   0  0  0  0  0  0  0  0  0  0  0  0
   11.2386   -3.1245   39.4921 F   0  0  0  0  0  0  0  0  0  0  0  0
   11.0527   -4.5716   37.8872 F   0  0  0  0  0  0  0  0  0  0  0  0
   10.1170   -2.4823   37.5774 C   0  0  0  0  0  0  0  0  0  0  0  0
   10.2353   -2.4418   36.2443 F   0  0  0  0  0  0  0  0  0  0  0  0
   10.1435   -1.2354   38.0663 F   0  0  0  0  0  0  0  0  0  0  0  0
    8.9564   -3.0647   37.9042 F   0  0  0  0  0  0  0  0  0  0  0  0
   15.0469   -3.4467   37.9519 C   0  0  0  0  0  0  0  0  0  0  0  0
   15.0346   -4.2481   36.8794 F   0  0  0  0  0  0  0  0  0  0  0  0
   15.3311   -2.2076   37.5330 F   0  0  0  0  0  0  0  0  0  0  0  0
   16.2928   -2.9480   39.8364 F   0  0  0  0  0  0  0  0  0  0  0  0
   16.1037   -3.9139   38.9282 C   0  0  0  0  0  0  0  0  0  0  0  0
   15.6421   -5.0020   39.5584 F   0  0  0  0  0  0  0  0  0  0  0  0
   17.4436   -4.2553   38.3126 C   0  0  0  0  0  0  0  0  0  0  0  0
   17.7429   -3.3718   37.3511 F   0  0  0  0  0  0  0  0  0  0  0  0
   17.3852   -5.4602   37.7302 F   0  0  0  0  0  0  0  0  0  0  0  0
   18.5407   -4.2464   39.3970 C   0  0  0  0  0  0  0  0  0  0  0  0
   19.3697   -3.3041   39.2976 O   0  0  0  0  0  0  0  0  0  0  0  0
   18.6030   -5.1124   40.3084 O   0  0  0  0  0  0  0  0  0  0  0  0
   19.2882   -2.6795   38.6039 H   0  0  0  0  0  0  0  0  0  0  0  0
 25 23  2  0  0  0
 24 23  1  0  0  0
 23 20  1  0  0  0
 22 20  1  0  0  0
 20 21  1  0  0  0
 20 18  1  0  0  0
 17 18  1  0  0  0
 18 19  1  0  0  0
 18 14  1  0  0  0
 15 14  1  0  0  0
 14 16  1  0  0  0
 14  1  1  0  0  0
  2  1  1  0  0  0
  1  3  1  0  0  0
  1  4  1  0  0  0
  5  4  1  0  0  0
  4  6  1  0  0  0
  4  7  1  0  0  0
 12 10  1  0  0  0
  7 10  1  0  0  0
  7  9  1  0  0  0
  7  8  1  0  0  0
 10 13  1  0  0  0
 10 11  1  0  0  0
 24 26  1  0  0  0
M  END
> <minimizedAffinity>
-8.27110

$$$$
6GON_8PF_A_201


 26 25  0  0  0  0  0  0  0  0999 V2000
   14.1432   -2.7010   38.6112 C   0  0  0  0  0  0  0  0  0  0  0  0
   14.4284   -1.5841   37.9312 F   0  0  0  0  0  0  0  0  0  0  0  0
   14.2031   -2.4585   39.9273 F   0  0  0  0  0  0  0  0  0  0  0  0
   12.7388   -3.1414   38.2596 C   0  0  0  0  0  0  0  0  0  0  0  0
   12.5879   -4.4424   38.5405 F   0  0  0  0  0  0  0  0  0  0  0  0
   12.5091   -2.9284   36.9577 F   0  0  0  0  0  0  0  0  0  0  0  0
   11.7343   -2.3286   39.0463 C   0  0  0  0  0  0  0  0  0  0  0  0
   12.1227   -1.0478   39.0185 F   0  0  0  0  0  0  0  0  0  0  0  0
   11.7656   -2.7473   40.3180 F   0  0  0  0  0  0  0  0  0  0  0  0
   10.3022   -2.3957   38.5655 C   0  0  0  0  0  0  0  0  0  0  0  0
   10.0937   -1.4447   37.6464 F   0  0  0  0  0  0  0  0  0  0  0  0
    9.4738   -2.2056   39.6009 F   0  0  0  0  0  0  0  0  0  0  0  0
   10.0695   -3.5978   38.0233 F   0  0  0  0  0  0  0  0  0  0  0  0
   15.1285   -3.7897   38.2451 C   0  0  0  0  0  0  0  0  0  0  0  0
   15.0053   -4.8171   39.0947 F   0  0  0  0  0  0  0  0  0  0  0  0
   14.8652   -4.2438   37.0137 F   0  0  0  0  0  0  0  0  0  0  0  0
   16.6988   -2.3886   37.2841 F   0  0  0  0  0  0  0  0  0  0  0  0
   16.5388   -3.2453   38.3010 C   0  0  0  0  0  0  0  0  0  0  0  0
   16.6834   -2.5703   39.4489 F   0  0  0  0  0  0  0  0  0  0  0  0
   17.6348   -4.2860   38.2218 C   0  0  0  0  0  0  0  0  0  0  0  0
   18.6067   -3.8643   37.4019 F   0  0  0  0  0  0  0  0  0  0  0  0
   17.1504   -5.4209   37.7005 F   0  0  0  0  0  0  0  0  0  0  0  0
   18.2105   -4.5549   39.6274 C   0  0  0  0  0  0  0  0  0  0  0  0
   19.3379   -4.0369   39.8412 O   0  0  0  0  0  0  0  0  0  0  0  0
   17.6022   -5.2384   40.4920 O   0  0  0  0  0  0  0  0  0  0  0  0
   19.7576   -3.5348   39.1705 H   0  0  0  0  0  0  0  0  0  0  0  0
 25 23  2  0  0  0
 24 23  1  0  0  0
 23 20  1  0  0  0
 22 20  1  0  0  0
 20 21  1  0  0  0
 20 18  1  0  0  0
 17 18  1  0  0  0
 18 19  1  0  0  0
 18 14  1  0  0  0
 15 14  1  0  0  0
 14 16  1  0  0  0
 14  1  1  0  0  0
  2  1  1  0  0  0
  1  3  1  0  0  0
  1  4  1  0  0  0
  5  4  1  0  0  0
  4  6  1  0  0  0
  4  7  1  0  0  0
 12 10  1  0  0  0
  7 10  1  0  0  0
  7  9  1  0  0  0
  7  8  1  0  0  0
 10 13  1  0  0  0
 10 11  1  0  0  0
 24 26  1  0  0  0
M  END
> <minimizedAffinity>
-8.19139

$$$$
6GON_8PF_A_201


 26 25  0  0  0  0  0  0  0  0999 V2000
   13.5340   -3.5334   38.3685 C   0  0  0  0  0  0  0  0  0  0  0  0
   13.5355   -4.7091   39.0079 F   0  0  0  0  0  0  0  0  0  0  0  0
   13.4384   -3.7357   37.0476 F   0  0  0  0  0  0  0  0  0  0  0  0
   12.3367   -2.7298   38.8271 C   0  0  0  0  0  0  0  0  0  0  0  0
   12.4902   -1.4464   38.4751 F   0  0  0  0  0  0  0  0  0  0  0  0
   12.2096   -2.8237   40.1567 F   0  0  0  0  0  0  0  0  0  0  0  0
   11.0763   -3.2845   38.2008 C   0  0  0  0  0  0  0  0  0  0  0  0
   10.8932   -4.5267   38.6651 F   0  0  0  0  0  0  0  0  0  0  0  0
   11.2670   -3.3570   36.8772 F   0  0  0  0  0  0  0  0  0  0  0  0
    9.8087   -2.4984   38.4497 C   0  0  0  0  0  0  0  0  0  0  0  0
    8.7690   -3.1412   37.9035 F   0  0  0  0  0  0  0  0  0  0  0  0
    9.9216   -1.2825   37.8989 F   0  0  0  0  0  0  0  0  0  0  0  0
    9.6127   -2.3739   39.7685 F   0  0  0  0  0  0  0  0  0  0  0  0
   14.8080   -2.7785   38.6805 C   0  0  0  0  0  0  0  0  0  0  0  0
   14.9430   -1.7485   37.8359 F   0  0  0  0  0  0  0  0  0  0  0  0
   14.7486   -2.2835   39.9228 F   0  0  0  0  0  0  0  0  0  0  0  0
   16.0670   -4.4536   39.6611 F   0  0  0  0  0  0  0  0  0  0  0  0
   15.9973   -3.7046   38.5531 C   0  0  0  0  0  0  0  0  0  0  0  0
   15.7886   -4.5152   37.5074 F   0  0  0  0  0  0  0  0  0  0  0  0
   17.3317   -3.0168   38.3606 C   0  0  0  0  0  0  0  0  0  0  0  0
   17.3776   -1.8959   39.0929 F   0  0  0  0  0  0  0  0  0  0  0  0
   17.4772   -2.6518   37.0800 F   0  0  0  0  0  0  0  0  0  0  0  0
   18.4781   -3.9631   38.7727 C   0  0  0  0  0  0  0  0  0  0  0  0
   18.6827   -4.9176   37.9776 O   0  0  0  0  0  0  0  0  0  0  0  0
   19.1550   -3.7951   39.8206 O   0  0  0  0  0  0  0  0  0  0  0  0
   18.1561   -5.0073   37.2078 H   0  0  0  0  0  0  0  0  0  0  0  0
 25 23  2  0  0  0
 24 23  1  0  0  0
 23 20  1  0  0  0
 22 20  1  0  0  0
 20 21  1  0  0  0
 20 18  1  0  0  0
 17 18  1  0  0  0
 18 19  1  0  0  0
 18 14  1  0  0  0
 15 14  1  0  0  0
 14 16  1  0  0  0
 14  1  1  0  0  0
  2  1  1  0  0  0
  1  3  1  0  0  0
  1  4  1  0  0  0
  5  4  1  0  0  0
  4  6  1  0  0  0
  4  7  1  0  0  0
 12 10  1  0  0  0
  7 10  1  0  0  0
  7  9  1  0  0  0
  7  8  1  0  0  0
 10 13  1  0  0  0
 10 11  1  0  0  0
 24 26  1  0  0  0
M  END
> <minimizedAffinity>
-8.15777

$$$$
