1LPG_IMA_B_301
  RCSB PDB12061703123D
Coordinates from PDB:1LPG:B:301 Model:1 without hydrogens
 41 45  0  0  0  0            999 V2000
    2.8550   10.4120   24.2780   C 0  0  0  0  0  0  0  0  0  0  0  0
    3.6530    9.8170   25.2820   C 0  0  0  0  0  0  0  0  0  0  0  0
    4.7520    9.0450   24.9100   C 0  0  0  0  0  0  0  0  0  0  0  0
    5.0520    8.8970   23.5340   C 0  0  0  0  0  0  0  0  0  0  0  0
    4.2710    9.5300   22.5180   C 0  0  0  0  0  0  0  0  0  0  0  0
    3.1590   10.2750   22.9060   C 0  0  0  0  0  0  0  0  0  0  0  0
    4.8320    9.2430   21.2590   C 0  0  0  0  0  0  0  0  0  0  0  0
    6.0680    8.2080   22.8800   N 0  0  0  0  0  0  0  0  0  0  0  0
    5.9460    8.4160   21.5380   C 0  0  0  0  0  0  0  0  0  0  0  0
    7.0020    7.2760   23.5300   C 0  0  0  0  0  0  0  0  0  0  0  0
    6.7890    7.9000   20.5480   C 0  0  0  0  0  0  0  0  0  0  0  0
    6.2690    7.6920   19.3480   N 0  0  0  0  0  0  0  0  0  0  0  0
    7.2510    7.2910   18.3640   C 0  0  0  0  0  0  0  0  0  0  0  0
    7.5000    5.7980   18.2260   C 0  0  0  0  0  0  0  0  0  0  0  0
    7.9720    7.6720   20.7820   O 0  0  0  0  0  0  0  0  0  0  0  0
    8.1890    7.9280   24.1650   C 0  0  0  0  0  0  0  0  0  0  0  0
    9.8130    7.7780   25.9590   C 0  0  0  0  0  0  0  0  0  0  0  0
    8.6300    7.3110   25.3360   C 0  0  0  0  0  0  0  0  0  0  0  0
    8.8710    9.0460   23.6240   C 0  0  0  0  0  0  0  0  0  0  0  0
   10.0370    9.5370   24.2490   C 0  0  0  0  0  0  0  0  0  0  0  0
   10.5100    8.8920   25.4060   C 0  0  0  0  0  0  0  0  0  0  0  0
   10.2440    7.0540   27.1730   C 0  0  0  0  0  0  0  0  0  0  0  0
    9.2600    6.4140   27.8440   N 0  0  0  0  0  0  0  0  0  0  0  0
   11.5270    7.0460   27.5550   N 0  0  0  0  0  0  0  0  0  0  0  0
    8.6730    3.7670   18.8340   C 0  0  0  0  0  0  0  0  0  0  0  0
    8.1110    3.0840   17.7320   C 0  0  0  0  0  0  0  0  0  0  0  0
    7.2000    3.7750   16.9070   C 0  0  0  0  0  0  0  0  0  0  0  0
    6.8820    5.1260   17.1570   C 0  0  0  0  0  0  0  0  0  0  0  0
    8.3680    5.1190   19.0860   C 0  0  0  0  0  0  0  0  0  0  0  0
    8.4350    1.7110   17.4010   N 0  3  0  0  0  0  0  0  0  0  0  0
    9.2820    1.7390   16.2070   C 0  0  0  0  0  0  0  0  0  0  0  0
    7.2210    0.9230   17.1210   C 0  0  0  0  0  0  0  0  0  0  0  0
    9.1540    0.8600   18.3650   C 0  0  0  0  0  0  0  0  0  0  0  0
    1.7490   11.1230   24.7030   O 0  0  0  0  0  0  0  0  0  0  0  0
    0.9430   11.7990   23.7470   C 0  0  0  0  0  0  0  0  0  0  0  0
   -0.0120   12.5760   24.5990   C 0  0  0  0  0  0  0  0  0  0  0  0
   -1.1420   13.1320   23.9890   C 0  0  0  0  0  0  0  0  0  0  0  0
   -2.0870   13.8120   24.7850   C 0  0  0  0  0  0  0  0  0  0  0  0
   -1.8730   13.9250   26.1750   C 0  0  0  0  0  0  0  0  0  0  0  0
   -0.7240   13.3910   26.7840   C 0  0  0  0  0  0  0  0  0  0  0  0
    0.2150   12.7180   25.9910   C 0  0  0  0  0  0  0  0  0  0  0  0
  1  2  2  0  0  0  0
  1  6  1  0  0  0  0
  1 34  1  0  0  0  0
  2  3  1  0  0  0  0
  3  4  2  0  0  0  0
  4  5  1  0  0  0  0
  4  8  1  0  0  0  0
  5  6  2  0  0  0  0
  5  7  1  0  0  0  0
  7  9  2  0  0  0  0
  8  9  1  0  0  0  0
  8 10  1  0  0  0  0
  9 11  1  0  0  0  0
 10 16  1  0  0  0  0
 11 12  1  0  0  0  0
 11 15  2  0  0  0  0
 12 13  1  0  0  0  0
 13 14  1  0  0  0  0
 14 28  2  0  0  0  0
 14 29  1  0  0  0  0
 16 18  2  0  0  0  0
 16 19  1  0  0  0  0
 17 18  1  0  0  0  0
 17 21  2  0  0  0  0
 17 22  1  0  0  0  0
 19 20  2  0  0  0  0
 20 21  1  0  0  0  0
 22 23  1  0  0  0  0
 22 24  2  0  0  0  0
 25 26  1  0  0  0  0
 25 29  2  0  0  0  0
 26 27  2  0  0  0  0
 26 30  1  0  0  0  0
 27 28  1  0  0  0  0
 30 31  1  0  0  0  0
 30 32  1  0  0  0  0
 30 33  1  0  0  0  0
 34 35  1  0  0  0  0
 35 36  1  0  0  0  0
 36 37  2  0  0  0  0
 36 41  1  0  0  0  0
 37 38  1  0  0  0  0
 38 39  2  0  0  0  0
 39 40  1  0  0  0  0
 40 41  2  0  0  0  0
M  CHG  1  30   1
A    1
C11
A    2
C12
A    3
C13
A    4
C14
A    5
C15
A    6
C16
A    7
C17
A    8
N18
A    9
C19
A   10
C20
A   11
C21
A   12
N22
A   13
C23
A   14
C24
A   15
O27
A   16
C28
A   17
C31
A   18
C32
A   19
C33
A   20
C34
A   21
C35
A   22
C36
A   23
N37
A   24
N38
A   25
C39
A   26
C40
A   27
C41
A   28
C42
A   29
C43
A   30
N44
A   31
C45
A   32
C49
A   33
C53
A   34
O1
A   35
C1
A   36
C2
A   37
C3
A   38
C4
A   39
C5
A   40
C6
A   41
C7
M  END
>  <InstanceId>
1LPG_IMA_B_301

>  <ChemCompId>
IMA

>  <PdbId>
1LPG

>  <ChainId>
B

>  <ResidueNumber>
301

>  <InsertionCode>


>  <Model>
1

>  <AltIds>


>  <MissingHeavyAtoms>
0

>  <ObservedFormula>
C34 N5 O2

>  <Name>
[4-({[5-BENZYLOXY-1-(3-CARBAMIMIDOYL-BENZYL)-1H-INDOLE-2-CARBONYL]-AMINO}-METHYL)-PHENYL]-TRIMETHYL-AMMONIUM

>  <SystematicName>
[4-[[[1-[(3-carbamimidoylphenyl)methyl]-5-phenylmethoxy-indol-2-yl]carbonylamino]methyl]phenyl]-trimethyl-azanium

>  <Synonyms>


>  <Type>
NON-POLYMER

>  <Formula>
C34 H36 N5 O2

>  <MolecularWeight>
546.682

>  <ModifiedDate>
2011-06-04

>  <Parent>


>  <OneLetterCode>


>  <SubcomponentList>


>  <AmbiguousFlag>
N

>  <InChI>
InChI=1S/C34H35N5O2/c1-39(2,3)29-14-12-24(13-15-29)21-37-34(40)32-20-28-19-30(41-23-25-8-5-4-6-9-25)16-17-31(28)38(32)22-26-10-7-11-27(18-26)33(35)36/h4-20H,21-23H2,1-3H3,(H3-,35,36,37,40)/p+1

>  <InChIKey>
UFKJQTGPBFWMGT-UHFFFAOYSA-O

>  <SMILES>
C[N+](C)(C)c1ccc(cc1)CNC(=O)c2cc3cc(ccc3n2Cc4cccc(c4)C(=N)N)OCc5ccccc5

$$$$
