1LPG_IMA_B_301


 45 49  0  0  0  0  0  0  0  0999 V2000
    7.3749    6.1669   19.3361 C   0  0  0  0  0  0  0  0  0  0  0  0
    8.2708    7.1394   19.8365 C   0  0  0  0  0  0  0  0  0  0  0  0
    7.9677    7.7957   21.0280 C   0  0  0  0  0  0  0  0  0  0  0  0
    6.7790    7.4525   21.7168 C   0  0  0  0  0  0  0  0  0  0  0  0
    5.8912    6.4414   21.2345 C   0  0  0  0  0  0  0  0  0  0  0  0
    6.1950    5.8152   20.0272 C   0  0  0  0  0  0  0  0  0  0  0  0
    4.8288    6.2877   22.1454 C   0  0  0  0  0  0  0  0  0  0  0  0
    6.2331    7.9233   22.9063 N   0  0  0  0  0  0  0  0  0  0  0  0
    5.0863    7.2331   23.1664 C   0  0  0  0  0  0  0  0  0  0  0  0
    4.2576    7.4092   24.2796 C   0  0  0  0  0  0  0  0  0  0  0  0
    2.9498    7.3237   24.0894 N   0  0  0  0  0  0  0  0  0  0  0  0
    4.7311    7.6122   25.3935 O   0  0  0  0  0  0  0  0  0  0  0  0
    2.5361    7.2302   23.2010 H   0  0  0  0  0  0  0  0  0  0  0  0
    2.1908    7.3815   25.3198 C   0  0  0  0  0  0  0  0  0  0  0  0
    1.1989    8.5257   25.4498 C   0  0  0  0  0  0  0  0  0  0  0  0
   -0.9762    9.4030   26.0581 C   0  0  0  0  0  0  0  0  0  0  0  0
   -0.6909   10.6258   25.4098 C   0  0  0  0  0  0  0  0  0  0  0  0
    0.5788   10.7931   24.8200 C   0  0  0  0  0  0  0  0  0  0  0  0
    1.5301    9.7525   24.8485 C   0  0  0  0  0  0  0  0  0  0  0  0
   -0.0353    8.3549   26.0836 C   0  0  0  0  0  0  0  0  0  0  0  0
   -1.6448   11.7121   25.3107 N   0  0  0  0  0  0  0  0  0  0  0  0
   -2.8289   11.3235   26.0792 C   0  0  0  0  0  0  0  0  0  0  0  0
   -2.0314   11.9640   23.9106 C   0  0  0  0  0  0  0  0  0  0  0  0
   -1.2954   13.0592   25.7939 C   0  0  0  0  0  0  0  0  0  0  0  0
    6.7298    9.0892   23.6530 C   0  0  0  0  0  0  0  0  0  0  0  0
    8.1582    8.9877   24.0851 C   0  0  0  0  0  0  0  0  0  0  0  0
    9.6826    7.9848   25.6816 C   0  0  0  0  0  0  0  0  0  0  0  0
    8.3595    8.2389   25.2449 C   0  0  0  0  0  0  0  0  0  0  0  0
    9.2497    9.5438   23.3730 C   0  0  0  0  0  0  0  0  0  0  0  0
   10.5720    9.3191   23.8116 C   0  0  0  0  0  0  0  0  0  0  0  0
   10.7826    8.5293   24.9562 C   0  0  0  0  0  0  0  0  0  0  0  0
    9.8239    7.1524   26.8944 C   0  0  0  0  0  0  0  0  0  0  0  0
   10.9099    6.3474   26.9194 N   0  0  0  0  0  0  0  0  0  0  0  0
    8.9261    7.2154   27.8854 N   0  0  0  0  0  0  0  0  0  0  0  0
   11.5370    6.3432   26.1605 H   0  0  0  0  0  0  0  0  0  0  0  0
   11.0736    5.7655   27.6965 H   0  0  0  0  0  0  0  0  0  0  0  0
    8.1535    7.8213   27.8119 H   0  0  0  0  0  0  0  0  0  0  0  0
    7.7006    5.5861   18.1254 O   0  0  0  0  0  0  0  0  0  0  0  0
    6.8746    4.5555   17.5999 C   0  0  0  0  0  0  0  0  0  0  0  0
    7.6582    3.3132   17.8902 C   0  0  0  0  0  0  0  0  0  0  0  0
    8.9902    3.2560   17.4652 C   0  0  0  0  0  0  0  0  0  0  0  0
    9.7647    2.1217   17.7855 C   0  0  0  0  0  0  0  0  0  0  0  0
    9.1827    1.0665   18.5193 C   0  0  0  0  0  0  0  0  0  0  0  0
    7.8366    1.1112   18.9221 C   0  0  0  0  0  0  0  0  0  0  0  0
    7.0680    2.2379   18.6007 C   0  0  0  0  0  0  0  0  0  0  0  0
  1  2  2  0  0  0
  1  6  1  0  0  0
  1 38  1  0  0  0
  2  3  1  0  0  0
  3  4  2  0  0  0
  4  5  1  0  0  0
  4  8  1  0  0  0
  5  6  2  0  0  0
  5  7  1  0  0  0
  7  9  2  0  0  0
  8  9  1  0  0  0
  8 25  1  0  0  0
  9 10  1  0  0  0
 25 26  1  0  0  0
 10 11  1  0  0  0
 10 12  2  0  0  0
 11 14  1  0  0  0
 14 15  1  0  0  0
 15 19  2  0  0  0
 15 20  1  0  0  0
 26 28  2  0  0  0
 26 29  1  0  0  0
 27 28  1  0  0  0
 27 31  2  0  0  0
 27 32  1  0  0  0
 29 30  2  0  0  0
 30 31  1  0  0  0
 32 33  1  0  0  0
 32 34  2  0  0  0
 16 17  1  0  0  0
 16 20  2  0  0  0
 17 18  2  0  0  0
 17 21  1  0  0  0
 18 19  1  0  0  0
 21 22  1  0  0  0
 21 23  1  0  0  0
 21 24  1  0  0  0
 38 39  1  0  0  0
 39 40  1  0  0  0
 40 41  2  0  0  0
 40 45  1  0  0  0
 41 42  1  0  0  0
 42 43  2  0  0  0
 43 44  1  0  0  0
 44 45  2  0  0  0
 11 13  1  0  0  0
 33 35  1  0  0  0
 33 36  1  0  0  0
 34 37  1  0  0  0
M  CHG 1  21   1
M  END
> <minimizedAffinity>
-10.12944

$$$$
1LPG_IMA_B_301


 45 49  0  0  0  0  0  0  0  0999 V2000
    8.3930    8.1974   22.2451 C   0  0  0  0  0  0  0  0  0  0  0  0
    8.8191    8.4241   20.9162 C   0  0  0  0  0  0  0  0  0  0  0  0
    8.2639    7.6690   19.8848 C   0  0  0  0  0  0  0  0  0  0  0  0
    7.2699    6.7096   20.1956 C   0  0  0  0  0  0  0  0  0  0  0  0
    6.8081    6.5059   21.5328 C   0  0  0  0  0  0  0  0  0  0  0  0
    7.3940    7.2493   22.5557 C   0  0  0  0  0  0  0  0  0  0  0  0
    5.7927    5.5306   21.5267 C   0  0  0  0  0  0  0  0  0  0  0  0
    6.5473    5.8355   19.3903 N   0  0  0  0  0  0  0  0  0  0  0  0
    5.6693    5.1436   20.1710 C   0  0  0  0  0  0  0  0  0  0  0  0
    4.7584    4.1800   19.7253 C   0  0  0  0  0  0  0  0  0  0  0  0
    5.0136    2.9140   20.0182 N   0  0  0  0  0  0  0  0  0  0  0  0
    3.7495    4.5036   19.1059 O   0  0  0  0  0  0  0  0  0  0  0  0
    5.8450    2.6148   20.4523 H   0  0  0  0  0  0  0  0  0  0  0  0
    3.9464    2.0151   19.6354 C   0  0  0  0  0  0  0  0  0  0  0  0
    3.2169    1.3100   20.7671 C   0  0  0  0  0  0  0  0  0  0  0  0
    3.1045    0.4796   23.0405 C   0  0  0  0  0  0  0  0  0  0  0  0
    1.9299   -0.2472   22.7424 C   0  0  0  0  0  0  0  0  0  0  0  0
    1.3861   -0.1425   21.4457 C   0  0  0  0  0  0  0  0  0  0  0  0
    2.0178    0.6437   20.4600 C   0  0  0  0  0  0  0  0  0  0  0  0
    3.7471    1.2602   22.0596 C   0  0  0  0  0  0  0  0  0  0  0  0
    1.2636   -1.1053   23.7013 N   0  0  0  0  0  0  0  0  0  0  0  0
    0.8367   -2.3092   22.9856 C   0  0  0  0  0  0  0  0  0  0  0  0
    0.0856   -0.4430   24.2901 C   0  0  0  0  0  0  0  0  0  0  0  0
    1.9823   -1.5966   24.8897 C   0  0  0  0  0  0  0  0  0  0  0  0
    6.8200    5.5881   17.9662 C   0  0  0  0  0  0  0  0  0  0  0  0
    7.5737    4.3264   17.6881 C   0  0  0  0  0  0  0  0  0  0  0  0
    7.7325    2.3867   16.2422 C   0  0  0  0  0  0  0  0  0  0  0  0
    7.0370    3.5462   16.6637 C   0  0  0  0  0  0  0  0  0  0  0  0
    8.7682    3.9472   18.3493 C   0  0  0  0  0  0  0  0  0  0  0  0
    9.4579    2.7806   17.9558 C   0  0  0  0  0  0  0  0  0  0  0  0
    8.9438    2.0133   16.8950 C   0  0  0  0  0  0  0  0  0  0  0  0
    7.1281    1.6291   15.1267 C   0  0  0  0  0  0  0  0  0  0  0  0
    6.8580    0.3306   15.3894 N   0  0  0  0  0  0  0  0  0  0  0  0
    6.8727    2.2152   13.9505 N   0  0  0  0  0  0  0  0  0  0  0  0
    7.0680   -0.0466   16.2742 H   0  0  0  0  0  0  0  0  0  0  0  0
    6.4514   -0.2377   14.6959 H   0  0  0  0  0  0  0  0  0  0  0  0
    7.0911    3.1658   13.8164 H   0  0  0  0  0  0  0  0  0  0  0  0
    9.0146    8.9381   23.2322 O   0  0  0  0  0  0  0  0  0  0  0  0
    8.4527    8.9742   24.5374 C   0  0  0  0  0  0  0  0  0  0  0  0
    9.5148    8.3394   25.3803 C   0  0  0  0  0  0  0  0  0  0  0  0
   10.8281    8.8052   25.2525 C   0  0  0  0  0  0  0  0  0  0  0  0
   11.8316    8.2656   26.0836 C   0  0  0  0  0  0  0  0  0  0  0  0
   11.4957    7.2650   27.0199 C   0  0  0  0  0  0  0  0  0  0  0  0
   10.1820    6.7768   27.1292 C   0  0  0  0  0  0  0  0  0  0  0  0
    9.1869    7.3123   26.3007 C   0  0  0  0  0  0  0  0  0  0  0  0
  1  2  2  0  0  0
  1  6  1  0  0  0
  1 38  1  0  0  0
  2  3  1  0  0  0
  3  4  2  0  0  0
  4  5  1  0  0  0
  4  8  1  0  0  0
  5  6  2  0  0  0
  5  7  1  0  0  0
  7  9  2  0  0  0
  8  9  1  0  0  0
  8 25  1  0  0  0
  9 10  1  0  0  0
 25 26  1  0  0  0
 10 11  1  0  0  0
 10 12  2  0  0  0
 11 14  1  0  0  0
 14 15  1  0  0  0
 15 19  2  0  0  0
 15 20  1  0  0  0
 26 28  2  0  0  0
 26 29  1  0  0  0
 27 28  1  0  0  0
 27 31  2  0  0  0
 27 32  1  0  0  0
 29 30  2  0  0  0
 30 31  1  0  0  0
 32 33  1  0  0  0
 32 34  2  0  0  0
 16 17  1  0  0  0
 16 20  2  0  0  0
 17 18  2  0  0  0
 17 21  1  0  0  0
 18 19  1  0  0  0
 21 22  1  0  0  0
 21 23  1  0  0  0
 21 24  1  0  0  0
 38 39  1  0  0  0
 39 40  1  0  0  0
 40 41  2  0  0  0
 40 45  1  0  0  0
 41 42  1  0  0  0
 42 43  2  0  0  0
 43 44  1  0  0  0
 44 45  2  0  0  0
 11 13  1  0  0  0
 33 35  1  0  0  0
 33 36  1  0  0  0
 34 37  1  0  0  0
M  CHG 1  21   1
M  END
> <minimizedAffinity>
-10.08170

$$$$
1LPG_IMA_B_301


 45 49  0  0  0  0  0  0  0  0999 V2000
    2.5982   10.0624   24.7534 C   0  0  0  0  0  0  0  0  0  0  0  0
    3.4995    9.4363   25.6447 C   0  0  0  0  0  0  0  0  0  0  0  0
    4.6036    8.7579   25.1320 C   0  0  0  0  0  0  0  0  0  0  0  0
    4.8040    8.7344   23.7304 C   0  0  0  0  0  0  0  0  0  0  0  0
    3.9168    9.4002   22.8290 C   0  0  0  0  0  0  0  0  0  0  0  0
    2.8024   10.0498   23.3563 C   0  0  0  0  0  0  0  0  0  0  0  0
    4.3930    9.2437   21.5133 C   0  0  0  0  0  0  0  0  0  0  0  0
    5.7997    8.1559   22.9502 N   0  0  0  0  0  0  0  0  0  0  0  0
    5.5648    8.4607   21.6421 C   0  0  0  0  0  0  0  0  0  0  0  0
    6.3538    8.0710   20.5546 C   0  0  0  0  0  0  0  0  0  0  0  0
    5.8834    7.1152   19.7678 N   0  0  0  0  0  0  0  0  0  0  0  0
    7.4310    8.6142   20.3293 O   0  0  0  0  0  0  0  0  0  0  0  0
    5.0582    6.6132   19.9583 H   0  0  0  0  0  0  0  0  0  0  0  0
    6.7055    6.8837   18.5999 C   0  0  0  0  0  0  0  0  0  0  0  0
    7.1072    5.4429   18.3300 C   0  0  0  0  0  0  0  0  0  0  0  0
    8.4159    3.4655   18.8276 C   0  0  0  0  0  0  0  0  0  0  0  0
    8.0144    2.8649   17.6132 C   0  0  0  0  0  0  0  0  0  0  0  0
    7.1120    3.5630   16.7847 C   0  0  0  0  0  0  0  0  0  0  0  0
    6.6463    4.8446   17.1443 C   0  0  0  0  0  0  0  0  0  0  0  0
    7.9629    4.7491   19.1905 C   0  0  0  0  0  0  0  0  0  0  0  0
    8.4948    1.5711   17.1716 N   0  0  0  0  0  0  0  0  0  0  0  0
    9.3899    1.8030   16.0364 C   0  0  0  0  0  0  0  0  0  0  0  0
    7.3840    0.6992   16.7484 C   0  0  0  0  0  0  0  0  0  0  0  0
    9.2520    0.7024   18.0896 C   0  0  0  0  0  0  0  0  0  0  0  0
    6.8259    7.2294   23.4522 C   0  0  0  0  0  0  0  0  0  0  0  0
    8.0567    7.8938   23.9822 C   0  0  0  0  0  0  0  0  0  0  0  0
    9.7142    7.8804   25.7517 C   0  0  0  0  0  0  0  0  0  0  0  0
    8.4962    7.4008   25.2112 C   0  0  0  0  0  0  0  0  0  0  0  0
    8.7771    8.9039   23.2978 C   0  0  0  0  0  0  0  0  0  0  0  0
    9.9792    9.4085   23.8378 C   0  0  0  0  0  0  0  0  0  0  0  0
   10.4490    8.8844   25.0556 C   0  0  0  0  0  0  0  0  0  0  0  0
   10.1397    7.2870   27.0364 C   0  0  0  0  0  0  0  0  0  0  0  0
    9.1504    6.7322   27.7724 N   0  0  0  0  0  0  0  0  0  0  0  0
   11.4230    7.3079   27.4170 N   0  0  0  0  0  0  0  0  0  0  0  0
    8.2234    6.7464   27.4414 H   0  0  0  0  0  0  0  0  0  0  0  0
    9.3572    6.3139   28.6393 H   0  0  0  0  0  0  0  0  0  0  0  0
   12.1010    7.7267   26.8390 H   0  0  0  0  0  0  0  0  0  0  0  0
    1.4943   10.6756   25.3143 O   0  0  0  0  0  0  0  0  0  0  0  0
    0.8005   11.6746   24.5785 C   0  0  0  0  0  0  0  0  0  0  0  0
   -0.4920   11.8061   25.3228 C   0  0  0  0  0  0  0  0  0  0  0  0
   -0.9450   13.0912   25.6412 C   0  0  0  0  0  0  0  0  0  0  0  0
   -2.1913   13.2398   26.2843 C   0  0  0  0  0  0  0  0  0  0  0  0
   -2.9521   12.0943   26.6001 C   0  0  0  0  0  0  0  0  0  0  0  0
   -2.4846   10.8016   26.3057 C   0  0  0  0  0  0  0  0  0  0  0  0
   -1.2448   10.6560   25.6690 C   0  0  0  0  0  0  0  0  0  0  0  0
  1  2  2  0  0  0
  1  6  1  0  0  0
  1 38  1  0  0  0
  2  3  1  0  0  0
  3  4  2  0  0  0
  4  5  1  0  0  0
  4  8  1  0  0  0
  5  6  2  0  0  0
  5  7  1  0  0  0
  7  9  2  0  0  0
  8  9  1  0  0  0
  8 25  1  0  0  0
  9 10  1  0  0  0
 25 26  1  0  0  0
 10 11  1  0  0  0
 10 12  2  0  0  0
 11 14  1  0  0  0
 14 15  1  0  0  0
 15 19  2  0  0  0
 15 20  1  0  0  0
 26 28  2  0  0  0
 26 29  1  0  0  0
 27 28  1  0  0  0
 27 31  2  0  0  0
 27 32  1  0  0  0
 29 30  2  0  0  0
 30 31  1  0  0  0
 32 33  1  0  0  0
 32 34  2  0  0  0
 16 17  1  0  0  0
 16 20  2  0  0  0
 17 18  2  0  0  0
 17 21  1  0  0  0
 18 19  1  0  0  0
 21 22  1  0  0  0
 21 23  1  0  0  0
 21 24  1  0  0  0
 38 39  1  0  0  0
 39 40  1  0  0  0
 40 41  2  0  0  0
 40 45  1  0  0  0
 41 42  1  0  0  0
 42 43  2  0  0  0
 43 44  1  0  0  0
 44 45  2  0  0  0
 11 13  1  0  0  0
 33 35  1  0  0  0
 33 36  1  0  0  0
 34 37  1  0  0  0
M  CHG 1  21   1
M  END
> <minimizedAffinity>
-10.05063

$$$$
1LPG_IMA_B_301


 45 49  0  0  0  0  0  0  0  0999 V2000
    8.5754    8.2546   21.6737 C   0  0  0  0  0  0  0  0  0  0  0  0
    8.8542    8.4351   20.2995 C   0  0  0  0  0  0  0  0  0  0  0  0
    8.2930    7.5612   19.3702 C   0  0  0  0  0  0  0  0  0  0  0  0
    7.4392    6.5285   19.8284 C   0  0  0  0  0  0  0  0  0  0  0  0
    7.1234    6.3678   21.2131 C   0  0  0  0  0  0  0  0  0  0  0  0
    7.7154    7.2327   22.1316 C   0  0  0  0  0  0  0  0  0  0  0  0
    6.2219    5.2964   21.3592 C   0  0  0  0  0  0  0  0  0  0  0  0
    6.7453    5.5344   19.1466 N   0  0  0  0  0  0  0  0  0  0  0  0
    6.0199    4.8101   20.0456 C   0  0  0  0  0  0  0  0  0  0  0  0
    5.1812    3.7318   19.7442 C   0  0  0  0  0  0  0  0  0  0  0  0
    4.0111    4.0030   19.1866 N   0  0  0  0  0  0  0  0  0  0  0  0
    5.5316    2.5773   19.9693 O   0  0  0  0  0  0  0  0  0  0  0  0
    3.6718    4.9179   19.0558 H   0  0  0  0  0  0  0  0  0  0  0  0
    3.2820    2.8182   18.7890 C   0  0  0  0  0  0  0  0  0  0  0  0
    3.3558    2.4398   17.3188 C   0  0  0  0  0  0  0  0  0  0  0  0
    3.3655    3.0189   14.9661 C   0  0  0  0  0  0  0  0  0  0  0  0
    3.2176    1.6604   14.6065 C   0  0  0  0  0  0  0  0  0  0  0  0
    3.1859    0.6936   15.6323 C   0  0  0  0  0  0  0  0  0  0  0  0
    3.2674    1.0766   16.9871 C   0  0  0  0  0  0  0  0  0  0  0  0
    3.4386    3.4113   16.3171 C   0  0  0  0  0  0  0  0  0  0  0  0
    3.0843    1.2133   13.2346 N   0  0  0  0  0  0  0  0  0  0  0  0
    1.6568    1.0119   12.9788 C   0  0  0  0  0  0  0  0  0  0  0  0
    3.8052   -0.0523   13.0076 C   0  0  0  0  0  0  0  0  0  0  0  0
    3.5606    2.0568   12.1245 C   0  0  0  0  0  0  0  0  0  0  0  0
    6.9144    5.2224   17.7191 C   0  0  0  0  0  0  0  0  0  0  0  0
    7.6371    3.9419   17.4445 C   0  0  0  0  0  0  0  0  0  0  0  0
    7.6887    1.9480   16.0661 C   0  0  0  0  0  0  0  0  0  0  0  0
    7.0318    3.1310   16.4841 C   0  0  0  0  0  0  0  0  0  0  0  0
    8.8651    3.5725   18.0472 C   0  0  0  0  0  0  0  0  0  0  0  0
    9.5178    2.3835   17.6577 C   0  0  0  0  0  0  0  0  0  0  0  0
    8.9330    1.5839   16.6592 C   0  0  0  0  0  0  0  0  0  0  0  0
    7.0106    1.1572   15.0180 C   0  0  0  0  0  0  0  0  0  0  0  0
    6.6694   -0.1017   15.3739 N   0  0  0  0  0  0  0  0  0  0  0  0
    6.7605    1.6788   13.8107 N   0  0  0  0  0  0  0  0  0  0  0  0
    6.8792   -0.4318   16.2774 H   0  0  0  0  0  0  0  0  0  0  0  0
    6.2112   -0.6884   14.7296 H   0  0  0  0  0  0  0  0  0  0  0  0
    7.0325    2.6030   13.6078 H   0  0  0  0  0  0  0  0  0  0  0  0
    9.1999    9.1181   22.5534 O   0  0  0  0  0  0  0  0  0  0  0  0
    8.5685    9.4371   23.7863 C   0  0  0  0  0  0  0  0  0  0  0  0
    9.4021    8.7053   24.7921 C   0  0  0  0  0  0  0  0  0  0  0  0
   10.7747    8.9739   24.8357 C   0  0  0  0  0  0  0  0  0  0  0  0
   11.5664    8.3440   25.8182 C   0  0  0  0  0  0  0  0  0  0  0  0
   10.9637    7.4527   26.7309 C   0  0  0  0  0  0  0  0  0  0  0  0
    9.5899    7.1610   26.6696 C   0  0  0  0  0  0  0  0  0  0  0  0
    8.8055    7.7859   25.6910 C   0  0  0  0  0  0  0  0  0  0  0  0
  1  2  2  0  0  0
  1  6  1  0  0  0
  1 38  1  0  0  0
  2  3  1  0  0  0
  3  4  2  0  0  0
  4  5  1  0  0  0
  4  8  1  0  0  0
  5  6  2  0  0  0
  5  7  1  0  0  0
  7  9  2  0  0  0
  8  9  1  0  0  0
  8 25  1  0  0  0
  9 10  1  0  0  0
 25 26  1  0  0  0
 10 11  1  0  0  0
 10 12  2  0  0  0
 11 14  1  0  0  0
 14 15  1  0  0  0
 15 19  2  0  0  0
 15 20  1  0  0  0
 26 28  2  0  0  0
 26 29  1  0  0  0
 27 28  1  0  0  0
 27 31  2  0  0  0
 27 32  1  0  0  0
 29 30  2  0  0  0
 30 31  1  0  0  0
 32 33  1  0  0  0
 32 34  2  0  0  0
 16 17  1  0  0  0
 16 20  2  0  0  0
 17 18  2  0  0  0
 17 21  1  0  0  0
 18 19  1  0  0  0
 21 22  1  0  0  0
 21 23  1  0  0  0
 21 24  1  0  0  0
 38 39  1  0  0  0
 39 40  1  0  0  0
 40 41  2  0  0  0
 40 45  1  0  0  0
 41 42  1  0  0  0
 42 43  2  0  0  0
 43 44  1  0  0  0
 44 45  2  0  0  0
 11 13  1  0  0  0
 33 35  1  0  0  0
 33 36  1  0  0  0
 34 37  1  0  0  0
M  CHG 1  21   1
M  END
> <minimizedAffinity>
-9.72961

$$$$
1LPG_IMA_B_301


 45 49  0  0  0  0  0  0  0  0999 V2000
    5.5961    3.9838   21.0106 C   0  0  0  0  0  0  0  0  0  0  0  0
    6.4743    5.0761   20.8253 C   0  0  0  0  0  0  0  0  0  0  0  0
    6.2383    6.2642   21.5144 C   0  0  0  0  0  0  0  0  0  0  0  0
    5.1357    6.3361   22.4001 C   0  0  0  0  0  0  0  0  0  0  0  0
    4.2694    5.2208   22.6201 C   0  0  0  0  0  0  0  0  0  0  0  0
    4.5028    4.0496   21.9018 C   0  0  0  0  0  0  0  0  0  0  0  0
    3.3007    5.5714   23.5797 C   0  0  0  0  0  0  0  0  0  0  0  0
    4.6689    7.3654   23.2108 N   0  0  0  0  0  0  0  0  0  0  0  0
    3.5908    6.9156   23.9140 C   0  0  0  0  0  0  0  0  0  0  0  0
    2.8531    7.6538   24.8455 C   0  0  0  0  0  0  0  0  0  0  0  0
    1.6026    7.9584   24.5337 N   0  0  0  0  0  0  0  0  0  0  0  0
    3.3441    7.9845   25.9206 O   0  0  0  0  0  0  0  0  0  0  0  0
    1.2012    7.7684   23.6551 H   0  0  0  0  0  0  0  0  0  0  0  0
    0.8862    8.5988   25.6154 C   0  0  0  0  0  0  0  0  0  0  0  0
    0.1255    9.8673   25.2657 C   0  0  0  0  0  0  0  0  0  0  0  0
    0.0484   12.2334   24.7495 C   0  0  0  0  0  0  0  0  0  0  0  0
   -1.3573   12.2434   24.8932 C   0  0  0  0  0  0  0  0  0  0  0  0
   -2.0116   11.0285   25.1829 C   0  0  0  0  0  0  0  0  0  0  0  0
   -1.2770    9.8373   25.3571 C   0  0  0  0  0  0  0  0  0  0  0  0
    0.7910   11.0501   24.9307 C   0  0  0  0  0  0  0  0  0  0  0  0
   -2.1584   13.4444   24.7695 N   0  0  0  0  0  0  0  0  0  0  0  0
   -1.8957   14.2670   25.9520 C   0  0  0  0  0  0  0  0  0  0  0  0
   -3.5968   13.1286   24.7032 C   0  0  0  0  0  0  0  0  0  0  0  0
   -1.9759   14.3491   23.6211 C   0  0  0  0  0  0  0  0  0  0  0  0
    5.1604    8.7512   23.1725 C   0  0  0  0  0  0  0  0  0  0  0  0
    6.6495    8.8810   23.1197 C   0  0  0  0  0  0  0  0  0  0  0  0
    8.7205    8.4813   24.3153 C   0  0  0  0  0  0  0  0  0  0  0  0
    7.3047    8.5040   24.2923 C   0  0  0  0  0  0  0  0  0  0  0  0
    7.3753    9.2948   21.9753 C   0  0  0  0  0  0  0  0  0  0  0  0
    8.7863    9.3007   21.9931 C   0  0  0  0  0  0  0  0  0  0  0  0
    9.4522    8.8808   23.1588 C   0  0  0  0  0  0  0  0  0  0  0  0
    9.3484    8.0346   25.5763 C   0  0  0  0  0  0  0  0  0  0  0  0
   10.4884    8.6785   25.9139 N   0  0  0  0  0  0  0  0  0  0  0  0
    8.8014    7.0612   26.3147 N   0  0  0  0  0  0  0  0  0  0  0  0
   10.8443    9.3875   25.3310 H   0  0  0  0  0  0  0  0  0  0  0  0
   10.9625    8.4382   26.7426 H   0  0  0  0  0  0  0  0  0  0  0  0
    7.9687    6.6275   26.0186 H   0  0  0  0  0  0  0  0  0  0  0  0
    5.8484    2.8494   20.2631 O   0  0  0  0  0  0  0  0  0  0  0  0
    5.9542    2.9532   18.8494 C   0  0  0  0  0  0  0  0  0  0  0  0
    7.3609    2.5153   18.5826 C   0  0  0  0  0  0  0  0  0  0  0  0
    7.6809    1.1658   18.7687 C   0  0  0  0  0  0  0  0  0  0  0  0
    8.9832    0.7205   18.4608 C   0  0  0  0  0  0  0  0  0  0  0  0
    9.9377    1.6415   17.9796 C   0  0  0  0  0  0  0  0  0  0  0  0
    9.6248    3.0026   17.8192 C   0  0  0  0  0  0  0  0  0  0  0  0
    8.3311    3.4435   18.1281 C   0  0  0  0  0  0  0  0  0  0  0  0
  1  2  2  0  0  0
  1  6  1  0  0  0
  1 38  1  0  0  0
  2  3  1  0  0  0
  3  4  2  0  0  0
  4  5  1  0  0  0
  4  8  1  0  0  0
  5  6  2  0  0  0
  5  7  1  0  0  0
  7  9  2  0  0  0
  8  9  1  0  0  0
  8 25  1  0  0  0
  9 10  1  0  0  0
 25 26  1  0  0  0
 10 11  1  0  0  0
 10 12  2  0  0  0
 11 14  1  0  0  0
 14 15  1  0  0  0
 15 19  2  0  0  0
 15 20  1  0  0  0
 26 28  2  0  0  0
 26 29  1  0  0  0
 27 28  1  0  0  0
 27 31  2  0  0  0
 27 32  1  0  0  0
 29 30  2  0  0  0
 30 31  1  0  0  0
 32 33  1  0  0  0
 32 34  2  0  0  0
 16 17  1  0  0  0
 16 20  2  0  0  0
 17 18  2  0  0  0
 17 21  1  0  0  0
 18 19  1  0  0  0
 21 22  1  0  0  0
 21 23  1  0  0  0
 21 24  1  0  0  0
 38 39  1  0  0  0
 39 40  1  0  0  0
 40 41  2  0  0  0
 40 45  1  0  0  0
 41 42  1  0  0  0
 42 43  2  0  0  0
 43 44  1  0  0  0
 44 45  2  0  0  0
 11 13  1  0  0  0
 33 35  1  0  0  0
 33 36  1  0  0  0
 34 37  1  0  0  0
M  CHG 1  21   1
M  END
> <minimizedAffinity>
-9.36022

$$$$
1LPG_IMA_B_301


 45 49  0  0  0  0  0  0  0  0999 V2000
    5.7100    3.9433   17.7108 C   0  0  0  0  0  0  0  0  0  0  0  0
    6.1965    5.2634   17.5711 C   0  0  0  0  0  0  0  0  0  0  0  0
    6.0024    6.1740   18.6080 C   0  0  0  0  0  0  0  0  0  0  0  0
    5.3417    5.7435   19.7842 C   0  0  0  0  0  0  0  0  0  0  0  0
    4.8843    4.3989   19.9448 C   0  0  0  0  0  0  0  0  0  0  0  0
    5.0612    3.5089   18.8871 C   0  0  0  0  0  0  0  0  0  0  0  0
    4.3138    4.2554   21.2240 C   0  0  0  0  0  0  0  0  0  0  0  0
    5.0211    6.4134   20.9603 N   0  0  0  0  0  0  0  0  0  0  0  0
    4.4213    5.5367   21.8151 C   0  0  0  0  0  0  0  0  0  0  0  0
    3.9657    5.8303   23.1048 C   0  0  0  0  0  0  0  0  0  0  0  0
    2.7130    6.2402   23.2334 N   0  0  0  0  0  0  0  0  0  0  0  0
    4.6971    5.6894   24.0802 O   0  0  0  0  0  0  0  0  0  0  0  0
    2.1229    6.4286   22.4683 H   0  0  0  0  0  0  0  0  0  0  0  0
    2.2997    6.3829   24.6126 C   0  0  0  0  0  0  0  0  0  0  0  0
    1.4210    7.5803   24.9353 C   0  0  0  0  0  0  0  0  0  0  0  0
   -0.6459    8.5516   25.7446 C   0  0  0  0  0  0  0  0  0  0  0  0
   -0.2688    9.8222   25.2545 C   0  0  0  0  0  0  0  0  0  0  0  0
    0.9933    9.9578   24.6406 C   0  0  0  0  0  0  0  0  0  0  0  0
    1.8457    8.8444   24.4903 C   0  0  0  0  0  0  0  0  0  0  0  0
    0.1953    7.4322   25.5909 C   0  0  0  0  0  0  0  0  0  0  0  0
   -1.1215   10.9905   25.3410 N   0  0  0  0  0  0  0  0  0  0  0  0
   -2.1337   10.7163   26.3628 C   0  0  0  0  0  0  0  0  0  0  0  0
   -1.7872   11.2685   24.0554 C   0  0  0  0  0  0  0  0  0  0  0  0
   -0.5562   12.3029   25.6994 C   0  0  0  0  0  0  0  0  0  0  0  0
    5.1558    7.8641   21.1620 C   0  0  0  0  0  0  0  0  0  0  0  0
    6.5423    8.3196   21.4897 C   0  0  0  0  0  0  0  0  0  0  0  0
    8.3048    8.2758   23.1541 C   0  0  0  0  0  0  0  0  0  0  0  0
    6.9698    7.9913   22.7765 C   0  0  0  0  0  0  0  0  0  0  0  0
    7.4017    8.9823   20.5786 C   0  0  0  0  0  0  0  0  0  0  0  0
    8.7267    9.2940   20.9509 C   0  0  0  0  0  0  0  0  0  0  0  0
    9.1760    8.9270   22.2323 C   0  0  0  0  0  0  0  0  0  0  0  0
    8.7018    7.8660   24.5172 C   0  0  0  0  0  0  0  0  0  0  0  0
    9.7625    8.5268   25.0333 N   0  0  0  0  0  0  0  0  0  0  0  0
    8.0362    6.9074   25.1730 N   0  0  0  0  0  0  0  0  0  0  0  0
   10.2136    9.2236   24.5038 H   0  0  0  0  0  0  0  0  0  0  0  0
   10.0839    8.3112   25.9386 H   0  0  0  0  0  0  0  0  0  0  0  0
    7.2700    6.4601   24.7462 H   0  0  0  0  0  0  0  0  0  0  0  0
    5.8848    3.0988   16.6311 O   0  0  0  0  0  0  0  0  0  0  0  0
    7.0730    3.1915   15.8564 C   0  0  0  0  0  0  0  0  0  0  0  0
    8.0302    2.3118   16.5992 C   0  0  0  0  0  0  0  0  0  0  0  0
    7.9122    0.9261   16.4448 C   0  0  0  0  0  0  0  0  0  0  0  0
    8.8443    0.0825   17.0841 C   0  0  0  0  0  0  0  0  0  0  0  0
    9.8702    0.6486   17.8700 C   0  0  0  0  0  0  0  0  0  0  0  0
    9.9723    2.0393   18.0482 C   0  0  0  0  0  0  0  0  0  0  0  0
    9.0436    2.8756   17.4143 C   0  0  0  0  0  0  0  0  0  0  0  0
  1  2  2  0  0  0
  1  6  1  0  0  0
  1 38  1  0  0  0
  2  3  1  0  0  0
  3  4  2  0  0  0
  4  5  1  0  0  0
  4  8  1  0  0  0
  5  6  2  0  0  0
  5  7  1  0  0  0
  7  9  2  0  0  0
  8  9  1  0  0  0
  8 25  1  0  0  0
  9 10  1  0  0  0
 25 26  1  0  0  0
 10 11  1  0  0  0
 10 12  2  0  0  0
 11 14  1  0  0  0
 14 15  1  0  0  0
 15 19  2  0  0  0
 15 20  1  0  0  0
 26 28  2  0  0  0
 26 29  1  0  0  0
 27 28  1  0  0  0
 27 31  2  0  0  0
 27 32  1  0  0  0
 29 30  2  0  0  0
 30 31  1  0  0  0
 32 33  1  0  0  0
 32 34  2  0  0  0
 16 17  1  0  0  0
 16 20  2  0  0  0
 17 18  2  0  0  0
 17 21  1  0  0  0
 18 19  1  0  0  0
 21 22  1  0  0  0
 21 23  1  0  0  0
 21 24  1  0  0  0
 38 39  1  0  0  0
 39 40  1  0  0  0
 40 41  2  0  0  0
 40 45  1  0  0  0
 41 42  1  0  0  0
 42 43  2  0  0  0
 43 44  1  0  0  0
 44 45  2  0  0  0
 11 13  1  0  0  0
 33 35  1  0  0  0
 33 36  1  0  0  0
 34 37  1  0  0  0
M  CHG 1  21   1
M  END
> <minimizedAffinity>
-9.29469

$$$$
1LPG_IMA_B_301


 45 49  0  0  0  0  0  0  0  0999 V2000
    8.2454    2.1603   18.9373 C   0  0  0  0  0  0  0  0  0  0  0  0
    8.5207    3.5372   18.7722 C   0  0  0  0  0  0  0  0  0  0  0  0
    7.7191    4.4746   19.4211 C   0  0  0  0  0  0  0  0  0  0  0  0
    6.6631    4.0193   20.2474 C   0  0  0  0  0  0  0  0  0  0  0  0
    6.4071    2.6275   20.4483 C   0  0  0  0  0  0  0  0  0  0  0  0
    7.2001    1.7041   19.7697 C   0  0  0  0  0  0  0  0  0  0  0  0
    5.3350    2.4810   21.3490 C   0  0  0  0  0  0  0  0  0  0  0  0
    5.7252    4.7079   21.0095 N   0  0  0  0  0  0  0  0  0  0  0  0
    4.9446    3.8037   21.6669 C   0  0  0  0  0  0  0  0  0  0  0  0
    3.8968    4.1078   22.5425 C   0  0  0  0  0  0  0  0  0  0  0  0
    2.7743    4.5732   22.0162 N   0  0  0  0  0  0  0  0  0  0  0  0
    4.0110    3.9263   23.7509 O   0  0  0  0  0  0  0  0  0  0  0  0
    2.6735    4.7941   21.0621 H   0  0  0  0  0  0  0  0  0  0  0  0
    1.7110    4.7240   22.9857 C   0  0  0  0  0  0  0  0  0  0  0  0
    1.3034    6.1480   23.3270 C   0  0  0  0  0  0  0  0  0  0  0  0
    0.1938    8.2343   22.7918 C   0  0  0  0  0  0  0  0  0  0  0  0
    0.8122    8.8728   23.8903 C   0  0  0  0  0  0  0  0  0  0  0  0
    1.6474    8.1069   24.7293 C   0  0  0  0  0  0  0  0  0  0  0  0
    1.8855    6.7433   24.4597 C   0  0  0  0  0  0  0  0  0  0  0  0
    0.4330    6.8750   22.5098 C   0  0  0  0  0  0  0  0  0  0  0  0
    0.6396   10.2800   24.1896 N   0  0  0  0  0  0  0  0  0  0  0  0
    0.3365   10.9595   22.9285 C   0  0  0  0  0  0  0  0  0  0  0  0
    1.8612   10.8602   24.7764 C   0  0  0  0  0  0  0  0  0  0  0  0
   -0.4072   10.7212   25.1277 C   0  0  0  0  0  0  0  0  0  0  0  0
    5.5139    6.1628   20.9648 C   0  0  0  0  0  0  0  0  0  0  0  0
    6.0742    6.9082   22.1344 C   0  0  0  0  0  0  0  0  0  0  0  0
    7.9102    8.2855   22.9157 C   0  0  0  0  0  0  0  0  0  0  0  0
    7.3344    7.4652   21.9151 C   0  0  0  0  0  0  0  0  0  0  0  0
    5.3901    7.1025   23.3599 C   0  0  0  0  0  0  0  0  0  0  0  0
    5.9639    7.8972   24.3751 C   0  0  0  0  0  0  0  0  0  0  0  0
    7.2152    8.4960   24.1427 C   0  0  0  0  0  0  0  0  0  0  0  0
    9.2285    8.8745   22.6017 C   0  0  0  0  0  0  0  0  0  0  0  0
    9.5068    8.9990   21.2845 N   0  0  0  0  0  0  0  0  0  0  0  0
   10.0665    9.2536   23.5745 N   0  0  0  0  0  0  0  0  0  0  0  0
    8.8511    8.7024   20.6126 H   0  0  0  0  0  0  0  0  0  0  0  0
   10.3652    9.3862   20.9971 H   0  0  0  0  0  0  0  0  0  0  0  0
    9.8097    9.1386   24.5179 H   0  0  0  0  0  0  0  0  0  0  0  0
    9.0395    1.2783   18.2297 O   0  0  0  0  0  0  0  0  0  0  0  0
    9.3406    1.5479   16.8669 C   0  0  0  0  0  0  0  0  0  0  0  0
    8.0257    1.3382   16.1823 C   0  0  0  0  0  0  0  0  0  0  0  0
    7.5160    2.3767   15.3950 C   0  0  0  0  0  0  0  0  0  0  0  0
    6.3112    2.1755   14.6899 C   0  0  0  0  0  0  0  0  0  0  0  0
    5.6410    0.9386   14.7965 C   0  0  0  0  0  0  0  0  0  0  0  0
    6.1380   -0.0950   15.6095 C   0  0  0  0  0  0  0  0  0  0  0  0
    7.3337    0.1077   16.3113 C   0  0  0  0  0  0  0  0  0  0  0  0
  1  2  2  0  0  0
  1  6  1  0  0  0
  1 38  1  0  0  0
  2  3  1  0  0  0
  3  4  2  0  0  0
  4  5  1  0  0  0
  4  8  1  0  0  0
  5  6  2  0  0  0
  5  7  1  0  0  0
  7  9  2  0  0  0
  8  9  1  0  0  0
  8 25  1  0  0  0
  9 10  1  0  0  0
 25 26  1  0  0  0
 10 11  1  0  0  0
 10 12  2  0  0  0
 11 14  1  0  0  0
 14 15  1  0  0  0
 15 19  2  0  0  0
 15 20  1  0  0  0
 26 28  2  0  0  0
 26 29  1  0  0  0
 27 28  1  0  0  0
 27 31  2  0  0  0
 27 32  1  0  0  0
 29 30  2  0  0  0
 30 31  1  0  0  0
 32 33  1  0  0  0
 32 34  2  0  0  0
 16 17  1  0  0  0
 16 20  2  0  0  0
 17 18  2  0  0  0
 17 21  1  0  0  0
 18 19  1  0  0  0
 21 22  1  0  0  0
 21 23  1  0  0  0
 21 24  1  0  0  0
 38 39  1  0  0  0
 39 40  1  0  0  0
 40 41  2  0  0  0
 40 45  1  0  0  0
 41 42  1  0  0  0
 42 43  2  0  0  0
 43 44  1  0  0  0
 44 45  2  0  0  0
 11 13  1  0  0  0
 33 35  1  0  0  0
 33 36  1  0  0  0
 34 37  1  0  0  0
M  CHG 1  21   1
M  END
> <minimizedAffinity>
-9.27925

$$$$
1LPG_IMA_B_301


 45 49  0  0  0  0  0  0  0  0999 V2000
    1.7690    9.6363   24.1179 C   0  0  0  0  0  0  0  0  0  0  0  0
    3.1496    9.9121   23.9894 C   0  0  0  0  0  0  0  0  0  0  0  0
    4.0284    8.8697   23.7005 C   0  0  0  0  0  0  0  0  0  0  0  0
    3.5090    7.5646   23.5210 C   0  0  0  0  0  0  0  0  0  0  0  0
    2.1093    7.2895   23.6106 C   0  0  0  0  0  0  0  0  0  0  0  0
    1.2478    8.3379   23.9281 C   0  0  0  0  0  0  0  0  0  0  0  0
    1.8892    5.9252   23.3414 C   0  0  0  0  0  0  0  0  0  0  0  0
    4.1311    6.3568   23.2230 N   0  0  0  0  0  0  0  0  0  0  0  0
    3.1778    5.3886   23.1087 C   0  0  0  0  0  0  0  0  0  0  0  0
    3.4079    4.0430   22.8031 C   0  0  0  0  0  0  0  0  0  0  0  0
    3.2224    3.6592   21.5493 N   0  0  0  0  0  0  0  0  0  0  0  0
    3.7898    3.2563   23.6642 O   0  0  0  0  0  0  0  0  0  0  0  0
    2.8524    4.2468   20.8515 H   0  0  0  0  0  0  0  0  0  0  0  0
    3.6188    2.2886   21.3092 C   0  0  0  0  0  0  0  0  0  0  0  0
    4.8849    2.0833   20.4938 C   0  0  0  0  0  0  0  0  0  0  0  0
    7.2977    2.0181   20.2826 C   0  0  0  0  0  0  0  0  0  0  0  0
    7.1971    1.9655   18.8741 C   0  0  0  0  0  0  0  0  0  0  0  0
    5.9128    1.9272   18.2935 C   0  0  0  0  0  0  0  0  0  0  0  0
    4.7556    1.9728   19.0983 C   0  0  0  0  0  0  0  0  0  0  0  0
    6.1474    2.0731   21.0939 C   0  0  0  0  0  0  0  0  0  0  0  0
    8.3500    1.9617   17.9964 N   0  0  0  0  0  0  0  0  0  0  0  0
    8.9948    3.2706   18.1185 C   0  0  0  0  0  0  0  0  0  0  0  0
    7.9583    1.7386   16.5928 C   0  0  0  0  0  0  0  0  0  0  0  0
    9.4309    0.9791   18.1874 C   0  0  0  0  0  0  0  0  0  0  0  0
    5.5865    6.1443   23.2100 C   0  0  0  0  0  0  0  0  0  0  0  0
    6.2444    6.4304   21.8975 C   0  0  0  0  0  0  0  0  0  0  0  0
    7.8695    7.8183   20.7525 C   0  0  0  0  0  0  0  0  0  0  0  0
    7.1089    7.5253   21.9107 C   0  0  0  0  0  0  0  0  0  0  0  0
    6.0732    5.6457   20.7302 C   0  0  0  0  0  0  0  0  0  0  0  0
    6.8064    5.9422   19.5615 C   0  0  0  0  0  0  0  0  0  0  0  0
    7.7112    7.0189   19.5826 C   0  0  0  0  0  0  0  0  0  0  0  0
    8.7937    8.9674   20.8488 C   0  0  0  0  0  0  0  0  0  0  0  0
    9.6291    8.9494   21.9117 N   0  0  0  0  0  0  0  0  0  0  0  0
    8.7850    9.9412   19.9303 N   0  0  0  0  0  0  0  0  0  0  0  0
    9.5902    8.2059   22.5559 H   0  0  0  0  0  0  0  0  0  0  0  0
   10.2763    9.6798   22.0415 H   0  0  0  0  0  0  0  0  0  0  0  0
    8.1532    9.9012   19.1763 H   0  0  0  0  0  0  0  0  0  0  0  0
    0.9517   10.6980   24.4560 O   0  0  0  0  0  0  0  0  0  0  0  0
    0.7497   11.7497   23.5214 C   0  0  0  0  0  0  0  0  0  0  0  0
   -0.2771   12.6070   24.1940 C   0  0  0  0  0  0  0  0  0  0  0  0
   -0.3637   12.5646   25.5900 C   0  0  0  0  0  0  0  0  0  0  0  0
   -1.2796   13.4123   26.2469 C   0  0  0  0  0  0  0  0  0  0  0  0
   -2.0936   14.2788   25.4872 C   0  0  0  0  0  0  0  0  0  0  0  0
   -2.0269   14.3015   24.0832 C   0  0  0  0  0  0  0  0  0  0  0  0
   -1.1181   13.4567   23.4322 C   0  0  0  0  0  0  0  0  0  0  0  0
  1  2  2  0  0  0
  1  6  1  0  0  0
  1 38  1  0  0  0
  2  3  1  0  0  0
  3  4  2  0  0  0
  4  5  1  0  0  0
  4  8  1  0  0  0
  5  6  2  0  0  0
  5  7  1  0  0  0
  7  9  2  0  0  0
  8  9  1  0  0  0
  8 25  1  0  0  0
  9 10  1  0  0  0
 25 26  1  0  0  0
 10 11  1  0  0  0
 10 12  2  0  0  0
 11 14  1  0  0  0
 14 15  1  0  0  0
 15 19  2  0  0  0
 15 20  1  0  0  0
 26 28  2  0  0  0
 26 29  1  0  0  0
 27 28  1  0  0  0
 27 31  2  0  0  0
 27 32  1  0  0  0
 29 30  2  0  0  0
 30 31  1  0  0  0
 32 33  1  0  0  0
 32 34  2  0  0  0
 16 17  1  0  0  0
 16 20  2  0  0  0
 17 18  2  0  0  0
 17 21  1  0  0  0
 18 19  1  0  0  0
 21 22  1  0  0  0
 21 23  1  0  0  0
 21 24  1  0  0  0
 38 39  1  0  0  0
 39 40  1  0  0  0
 40 41  2  0  0  0
 40 45  1  0  0  0
 41 42  1  0  0  0
 42 43  2  0  0  0
 43 44  1  0  0  0
 44 45  2  0  0  0
 11 13  1  0  0  0
 33 35  1  0  0  0
 33 36  1  0  0  0
 34 37  1  0  0  0
M  CHG 1  21   1
M  END
> <minimizedAffinity>
-9.17573

$$$$
1LPG_IMA_B_301


 45 49  0  0  0  0  0  0  0  0999 V2000
    6.3477    5.8198   21.2482 C   0  0  0  0  0  0  0  0  0  0  0  0
    5.4143    4.9063   21.7897 C   0  0  0  0  0  0  0  0  0  0  0  0
    4.4541    5.3664   22.6889 C   0  0  0  0  0  0  0  0  0  0  0  0
    4.4266    6.7435   23.0178 C   0  0  0  0  0  0  0  0  0  0  0  0
    5.3432    7.6766   22.4415 C   0  0  0  0  0  0  0  0  0  0  0  0
    6.3148    7.1951   21.5662 C   0  0  0  0  0  0  0  0  0  0  0  0
    5.0465    8.9682   22.9167 C   0  0  0  0  0  0  0  0  0  0  0  0
    3.5954    7.4746   23.8601 N   0  0  0  0  0  0  0  0  0  0  0  0
    3.9532    8.7888   23.7972 C   0  0  0  0  0  0  0  0  0  0  0  0
    3.3438    9.8389   24.4920 C   0  0  0  0  0  0  0  0  0  0  0  0
    2.2917   10.4154   23.9313 N   0  0  0  0  0  0  0  0  0  0  0  0
    3.7589   10.1937   25.5912 O   0  0  0  0  0  0  0  0  0  0  0  0
    1.9758   10.2018   23.0237 H   0  0  0  0  0  0  0  0  0  0  0  0
    1.6535   11.3912   24.7880 C   0  0  0  0  0  0  0  0  0  0  0  0
    0.1406   11.3030   24.9042 C   0  0  0  0  0  0  0  0  0  0  0  0
   -2.0141   12.2595   25.4636 C   0  0  0  0  0  0  0  0  0  0  0  0
   -2.6300   10.9918   25.3625 C   0  0  0  0  0  0  0  0  0  0  0  0
   -1.8383    9.8887   24.9822 C   0  0  0  0  0  0  0  0  0  0  0  0
   -0.4574   10.0414   24.7400 C   0  0  0  0  0  0  0  0  0  0  0  0
   -0.6338   12.4196   25.2322 C   0  0  0  0  0  0  0  0  0  0  0  0
   -4.0339   10.7677   25.6427 N   0  0  0  0  0  0  0  0  0  0  0  0
   -4.7888   11.2141   24.4703 C   0  0  0  0  0  0  0  0  0  0  0  0
   -4.4752   11.5270   26.8267 C   0  0  0  0  0  0  0  0  0  0  0  0
   -4.5311    9.4107   25.9288 C   0  0  0  0  0  0  0  0  0  0  0  0
    2.6157    6.8877   24.7870 C   0  0  0  0  0  0  0  0  0  0  0  0
    1.2376    6.7421   24.2240 C   0  0  0  0  0  0  0  0  0  0  0  0
   -1.0777    6.2466   24.7458 C   0  0  0  0  0  0  0  0  0  0  0  0
    0.2801    6.3117   25.1430 C   0  0  0  0  0  0  0  0  0  0  0  0
    0.8823    7.0583   22.8893 C   0  0  0  0  0  0  0  0  0  0  0  0
   -0.4635    6.9736   22.4737 C   0  0  0  0  0  0  0  0  0  0  0  0
   -1.4391    6.5812   23.4079 C   0  0  0  0  0  0  0  0  0  0  0  0
   -2.0433    5.8205   25.7802 C   0  0  0  0  0  0  0  0  0  0  0  0
   -3.3300    5.7423   25.3722 N   0  0  0  0  0  0  0  0  0  0  0  0
   -1.6425    5.5341   27.0249 N   0  0  0  0  0  0  0  0  0  0  0  0
   -3.5662    5.9655   24.4429 H   0  0  0  0  0  0  0  0  0  0  0  0
   -4.0307    5.4620   26.0045 H   0  0  0  0  0  0  0  0  0  0  0  0
   -0.6907    5.6091   27.2651 H   0  0  0  0  0  0  0  0  0  0  0  0
    7.3086    5.2990   20.4028 O   0  0  0  0  0  0  0  0  0  0  0  0
    6.9472    4.9257   19.0797 C   0  0  0  0  0  0  0  0  0  0  0  0
    7.7105    3.6554   18.8665 C   0  0  0  0  0  0  0  0  0  0  0  0
    7.1729    2.4669   19.3731 C   0  0  0  0  0  0  0  0  0  0  0  0
    7.8432    1.2507   19.1269 C   0  0  0  0  0  0  0  0  0  0  0  0
    9.0424    1.2554   18.3836 C   0  0  0  0  0  0  0  0  0  0  0  0
    9.5976    2.4524   17.8985 C   0  0  0  0  0  0  0  0  0  0  0  0
    8.9314    3.6600   18.1464 C   0  0  0  0  0  0  0  0  0  0  0  0
  1  2  2  0  0  0
  1  6  1  0  0  0
  1 38  1  0  0  0
  2  3  1  0  0  0
  3  4  2  0  0  0
  4  5  1  0  0  0
  4  8  1  0  0  0
  5  6  2  0  0  0
  5  7  1  0  0  0
  7  9  2  0  0  0
  8  9  1  0  0  0
  8 25  1  0  0  0
  9 10  1  0  0  0
 25 26  1  0  0  0
 10 11  1  0  0  0
 10 12  2  0  0  0
 11 14  1  0  0  0
 14 15  1  0  0  0
 15 19  2  0  0  0
 15 20  1  0  0  0
 26 28  2  0  0  0
 26 29  1  0  0  0
 27 28  1  0  0  0
 27 31  2  0  0  0
 27 32  1  0  0  0
 29 30  2  0  0  0
 30 31  1  0  0  0
 32 33  1  0  0  0
 32 34  2  0  0  0
 16 17  1  0  0  0
 16 20  2  0  0  0
 17 18  2  0  0  0
 17 21  1  0  0  0
 18 19  1  0  0  0
 21 22  1  0  0  0
 21 23  1  0  0  0
 21 24  1  0  0  0
 38 39  1  0  0  0
 39 40  1  0  0  0
 40 41  2  0  0  0
 40 45  1  0  0  0
 41 42  1  0  0  0
 42 43  2  0  0  0
 43 44  1  0  0  0
 44 45  2  0  0  0
 11 13  1  0  0  0
 33 35  1  0  0  0
 33 36  1  0  0  0
 34 37  1  0  0  0
M  CHG 1  21   1
M  END
> <minimizedAffinity>
-8.76948

$$$$
1LPG_IMA_B_301


 45 49  0  0  0  0  0  0  0  0999 V2000
    6.8190    5.5727   21.2058 C   0  0  0  0  0  0  0  0  0  0  0  0
    7.3098    6.7653   21.7851 C   0  0  0  0  0  0  0  0  0  0  0  0
    6.4980    7.4797   22.6642 C   0  0  0  0  0  0  0  0  0  0  0  0
    5.2099    6.9772   22.9704 C   0  0  0  0  0  0  0  0  0  0  0  0
    4.7261    5.7511   22.4176 C   0  0  0  0  0  0  0  0  0  0  0  0
    5.5395    5.0641   21.5185 C   0  0  0  0  0  0  0  0  0  0  0  0
    3.4443    5.4856   22.9358 C   0  0  0  0  0  0  0  0  0  0  0  0
    4.2047    7.4601   23.8016 N   0  0  0  0  0  0  0  0  0  0  0  0
    3.1643    6.5788   23.7897 C   0  0  0  0  0  0  0  0  0  0  0  0
    1.9727    6.7068   24.5112 C   0  0  0  0  0  0  0  0  0  0  0  0
    0.8650    6.9482   23.8268 N   0  0  0  0  0  0  0  0  0  0  0  0
    1.9562    6.5762   25.7314 O   0  0  0  0  0  0  0  0  0  0  0  0
    0.8538    7.1257   22.8584 H   0  0  0  0  0  0  0  0  0  0  0  0
   -0.3270    6.9247   24.6465 C   0  0  0  0  0  0  0  0  0  0  0  0
   -1.0385    8.2532   24.8441 C   0  0  0  0  0  0  0  0  0  0  0  0
   -2.2583   10.1658   23.9929 C   0  0  0  0  0  0  0  0  0  0  0  0
   -2.1017   10.8434   25.2230 C   0  0  0  0  0  0  0  0  0  0  0  0
   -1.4405   10.1792   26.2764 C   0  0  0  0  0  0  0  0  0  0  0  0
   -0.9193    8.8812   26.0962 C   0  0  0  0  0  0  0  0  0  0  0  0
   -1.7331    8.8728   23.8012 C   0  0  0  0  0  0  0  0  0  0  0  0
   -2.5768   12.1933   25.4507 N   0  0  0  0  0  0  0  0  0  0  0  0
   -3.7786   12.0977   26.2815 C   0  0  0  0  0  0  0  0  0  0  0  0
   -2.9107   12.8683   24.1835 C   0  0  0  0  0  0  0  0  0  0  0  0
   -1.7188   13.1833   26.1247 C   0  0  0  0  0  0  0  0  0  0  0  0
    4.2093    8.7851   24.4402 C   0  0  0  0  0  0  0  0  0  0  0  0
    3.1401    9.7121   23.9555 C   0  0  0  0  0  0  0  0  0  0  0  0
    1.8398   10.4093   22.0316 C   0  0  0  0  0  0  0  0  0  0  0  0
    2.9056    9.6560   22.5813 C   0  0  0  0  0  0  0  0  0  0  0  0
    2.3688   10.5515   24.7970 C   0  0  0  0  0  0  0  0  0  0  0  0
    1.3199   11.3265   24.2580 C   0  0  0  0  0  0  0  0  0  0  0  0
    1.0517   11.2412   22.8799 C   0  0  0  0  0  0  0  0  0  0  0  0
    1.6232   10.2728   20.5762 C   0  0  0  0  0  0  0  0  0  0  0  0
    0.9210   11.2743   20.0001 N   0  0  0  0  0  0  0  0  0  0  0  0
    2.1044    9.2220   19.9006 N   0  0  0  0  0  0  0  0  0  0  0  0
    0.5914   12.0229   20.5479 H   0  0  0  0  0  0  0  0  0  0  0  0
    0.7392   11.2549   19.0327 H   0  0  0  0  0  0  0  0  0  0  0  0
    2.6094    8.5218   20.3739 H   0  0  0  0  0  0  0  0  0  0  0  0
    7.6467    4.9340   20.3022 O   0  0  0  0  0  0  0  0  0  0  0  0
    7.1098    4.4666   19.0719 C   0  0  0  0  0  0  0  0  0  0  0  0
    7.9614    3.2746   18.7626 C   0  0  0  0  0  0  0  0  0  0  0  0
    7.4955    2.0112   19.1432 C   0  0  0  0  0  0  0  0  0  0  0  0
    8.2514    0.8700   18.8037 C   0  0  0  0  0  0  0  0  0  0  0  0
    9.4622    1.0230   18.0957 C   0  0  0  0  0  0  0  0  0  0  0  0
    9.9447    2.2939   17.7378 C   0  0  0  0  0  0  0  0  0  0  0  0
    9.1935    3.4267   18.0783 C   0  0  0  0  0  0  0  0  0  0  0  0
  1  2  2  0  0  0
  1  6  1  0  0  0
  1 38  1  0  0  0
  2  3  1  0  0  0
  3  4  2  0  0  0
  4  5  1  0  0  0
  4  8  1  0  0  0
  5  6  2  0  0  0
  5  7  1  0  0  0
  7  9  2  0  0  0
  8  9  1  0  0  0
  8 25  1  0  0  0
  9 10  1  0  0  0
 25 26  1  0  0  0
 10 11  1  0  0  0
 10 12  2  0  0  0
 11 14  1  0  0  0
 14 15  1  0  0  0
 15 19  2  0  0  0
 15 20  1  0  0  0
 26 28  2  0  0  0
 26 29  1  0  0  0
 27 28  1  0  0  0
 27 31  2  0  0  0
 27 32  1  0  0  0
 29 30  2  0  0  0
 30 31  1  0  0  0
 32 33  1  0  0  0
 32 34  2  0  0  0
 16 17  1  0  0  0
 16 20  2  0  0  0
 17 18  2  0  0  0
 17 21  1  0  0  0
 18 19  1  0  0  0
 21 22  1  0  0  0
 21 23  1  0  0  0
 21 24  1  0  0  0
 38 39  1  0  0  0
 39 40  1  0  0  0
 40 41  2  0  0  0
 40 45  1  0  0  0
 41 42  1  0  0  0
 42 43  2  0  0  0
 43 44  1  0  0  0
 44 45  2  0  0  0
 11 13  1  0  0  0
 33 35  1  0  0  0
 33 36  1  0  0  0
 34 37  1  0  0  0
M  CHG 1  21   1
M  END
> <minimizedAffinity>
-8.68448

$$$$
