2X7U_WZA_A_1263


 29 32  0  0  0  0  0  0  0  0999 V2000
    1.2958    4.7513  -18.5235 C   0  0  0  0  0  0  0  0  0  0  0  0
    2.5864    4.7708  -17.7949 C   0  0  0  0  0  0  0  0  0  0  0  0
    3.5741    3.8353  -18.0394 C   0  0  0  0  0  0  0  0  0  0  0  0
    3.3842    2.8417  -18.9799 C   0  0  0  0  0  0  0  0  0  0  0  0
    2.1112    2.7987  -19.7467 C   0  0  0  0  0  0  0  0  0  0  0  0
    1.1142    3.7556  -19.4906 C   0  0  0  0  0  0  0  0  0  0  0  0
    4.4870    1.8750  -19.1987 C   0  0  0  0  0  0  0  0  0  0  0  0
    3.2423    1.1466  -21.2853 C   0  0  0  0  0  0  0  0  0  0  0  0
    1.9069    1.7081  -20.7851 C   0  0  0  0  0  0  0  0  0  0  0  0
    5.0955    1.3588  -17.8874 C   0  0  0  0  0  0  0  0  0  0  0  0
    6.3932    0.5863  -18.1803 C   0  0  0  0  0  0  0  0  0  0  0  0
    6.2039   -0.4688  -19.2716 C   0  0  0  0  0  0  0  0  0  0  0  0
    7.4993   -0.8906  -19.9405 C   0  0  0  0  0  0  0  0  0  0  0  0
    5.4403   -1.6469  -18.6470 C   0  0  0  0  0  0  0  0  0  0  0  0
    5.5004    0.1571  -20.4757 C   0  0  0  0  0  0  0  0  0  0  0  0
    5.6963   -0.8269  -21.6282 C   0  0  0  0  0  0  0  0  0  0  0  0
    7.0696   -1.4777  -21.2951 C   0  0  0  0  0  0  0  0  0  0  0  0
    4.1183    0.7086  -20.1130 C   0  0  0  0  0  0  0  0  0  0  0  0
    8.2339   -1.8229  -19.1417 O   0  0  0  0  0  0  0  0  0  0  0  0
    7.6881   -2.6076  -18.9765 H   0  0  0  0  0  0  0  0  0  0  0  0
    2.8787    5.7089  -16.8757 O   0  0  0  0  0  0  0  0  0  0  0  0
    2.4907    5.3321  -15.5554 C   0  0  0  0  0  0  0  0  0  0  0  0
    0.3268    5.7087  -18.3071 O   0  0  0  0  0  0  0  0  0  0  0  0
    0.4977    7.3823  -20.2675 O   0  0  0  0  0  0  0  0  0  0  0  0
   -1.2023    7.7111  -18.6861 O   0  0  0  0  0  0  0  0  0  0  0  0
    0.1466    7.2435  -18.8966 S   0  0  0  0  0  0  0  0  0  0  0  0
    1.1603    8.1130  -18.0185 N   0  0  0  0  0  0  0  0  0  0  0  0
    1.1174    9.0879  -18.3154 H   0  0  0  0  0  0  0  0  0  0  0  0
    2.1090    7.7603  -18.1456 H   0  0  0  0  0  0  0  0  0  0  0  0
  1  2  1  0  0  0
  1 23  1  0  0  0
  1  6  2  0  0  0
 24 26  2  0  0  0
 25 26  2  0  0  0
  2  3  2  0  0  0
  2 21  1  0  0  0
  3  4  1  0  0  0
  4  5  2  0  0  0
  4  7  1  0  0  0
 26 27  1  0  0  0
 26 23  1  0  0  0
  5  6  1  0  0  0
  5  9  1  0  0  0
 21 22  1  0  0  0
  7 10  1  0  0  0
  7 18  1  0  0  0
  8  9  1  0  0  0
  8 18  1  0  0  0
 10 11  1  0  0  0
 11 12  1  0  0  0
 12 13  1  0  0  0
 12 14  1  0  0  0
 12 15  1  0  0  0
 13 17  1  0  0  0
 13 19  1  0  0  0
 15 16  1  0  0  0
 15 18  1  0  0  0
 16 17  1  0  0  0
 27 28  1  0  0  0
 27 29  1  0  0  0
 19 20  1  0  0  0
M  END
> <minimizedAffinity>
-8.22204

$$$$
2X7U_WZA_A_1263


 29 32  0  0  0  0  0  0  0  0999 V2000
    2.0028    4.4785  -17.9310 C   0  0  0  0  0  0  0  0  0  0  0  0
    3.0587    3.8686  -17.0886 C   0  0  0  0  0  0  0  0  0  0  0  0
    3.6635    2.6740  -17.4315 C   0  0  0  0  0  0  0  0  0  0  0  0
    3.2956    2.0046  -18.5824 C   0  0  0  0  0  0  0  0  0  0  0  0
    2.2540    2.5927  -19.4653 C   0  0  0  0  0  0  0  0  0  0  0  0
    1.6465    3.8085  -19.1073 C   0  0  0  0  0  0  0  0  0  0  0  0
    3.9896    0.7323  -18.8957 C   0  0  0  0  0  0  0  0  0  0  0  0
    2.9597    0.9063  -21.2071 C   0  0  0  0  0  0  0  0  0  0  0  0
    1.8551    1.8574  -20.7339 C   0  0  0  0  0  0  0  0  0  0  0  0
    4.1225   -0.1897  -17.6755 C   0  0  0  0  0  0  0  0  0  0  0  0
    5.0787   -1.3509  -17.9980 C   0  0  0  0  0  0  0  0  0  0  0  0
    4.7159   -2.0513  -19.3087 C   0  0  0  0  0  0  0  0  0  0  0  0
    5.8651   -2.8326  -19.9187 C   0  0  0  0  0  0  0  0  0  0  0  0
    3.4766   -2.9191  -19.0404 C   0  0  0  0  0  0  0  0  0  0  0  0
    4.5170   -1.0104  -20.4102 C   0  0  0  0  0  0  0  0  0  0  0  0
    4.5430   -1.7880  -21.7253 C   0  0  0  0  0  0  0  0  0  0  0  0
    5.5006   -2.9718  -21.4059 C   0  0  0  0  0  0  0  0  0  0  0  0
    3.3906   -0.0273  -20.0774 C   0  0  0  0  0  0  0  0  0  0  0  0
    6.0532   -4.0962  -19.2747 O   0  0  0  0  0  0  0  0  0  0  0  0
    5.2386   -4.6184  -19.3431 H   0  0  0  0  0  0  0  0  0  0  0  0
    3.5037    4.4510  -15.9602 O   0  0  0  0  0  0  0  0  0  0  0  0
    2.7878    4.0315  -14.7995 C   0  0  0  0  0  0  0  0  0  0  0  0
    1.4281    5.6903  -17.6085 O   0  0  0  0  0  0  0  0  0  0  0  0
    1.7230    8.1052  -16.7397 O   0  0  0  0  0  0  0  0  0  0  0  0
    3.3235    7.2723  -18.2376 O   0  0  0  0  0  0  0  0  0  0  0  0
    1.9328    7.2463  -17.8533 S   0  0  0  0  0  0  0  0  0  0  0  0
    1.0292    7.7556  -19.0694 N   0  0  0  0  0  0  0  0  0  0  0  0
    1.2736    8.7201  -19.2939 H   0  0  0  0  0  0  0  0  0  0  0  0
    0.0452    7.7068  -18.8055 H   0  0  0  0  0  0  0  0  0  0  0  0
  1  2  1  0  0  0
  1 23  1  0  0  0
  1  6  2  0  0  0
 24 26  2  0  0  0
 25 26  2  0  0  0
  2  3  2  0  0  0
  2 21  1  0  0  0
  3  4  1  0  0  0
  4  5  2  0  0  0
  4  7  1  0  0  0
 26 27  1  0  0  0
 26 23  1  0  0  0
  5  6  1  0  0  0
  5  9  1  0  0  0
 21 22  1  0  0  0
  7 10  1  0  0  0
  7 18  1  0  0  0
  8  9  1  0  0  0
  8 18  1  0  0  0
 10 11  1  0  0  0
 11 12  1  0  0  0
 12 13  1  0  0  0
 12 14  1  0  0  0
 12 15  1  0  0  0
 13 17  1  0  0  0
 13 19  1  0  0  0
 15 16  1  0  0  0
 15 18  1  0  0  0
 16 17  1  0  0  0
 27 28  1  0  0  0
 27 29  1  0  0  0
 19 20  1  0  0  0
M  END
> <minimizedAffinity>
-7.95386

$$$$
2X7U_WZA_A_1263


 29 32  0  0  0  0  0  0  0  0999 V2000
    2.0052   -1.0007  -16.7334 C   0  0  0  0  0  0  0  0  0  0  0  0
    2.1056   -0.0038  -15.6412 C   0  0  0  0  0  0  0  0  0  0  0  0
    1.9056    1.3451  -15.8667 C   0  0  0  0  0  0  0  0  0  0  0  0
    1.6044    1.8093  -17.1323 C   0  0  0  0  0  0  0  0  0  0  0  0
    1.4751    0.8397  -18.2518 C   0  0  0  0  0  0  0  0  0  0  0  0
    1.6796   -0.5298  -18.0108 C   0  0  0  0  0  0  0  0  0  0  0  0
    1.3941    3.2671  -17.3036 C   0  0  0  0  0  0  0  0  0  0  0  0
    0.4400    2.7155  -19.5882 C   0  0  0  0  0  0  0  0  0  0  0  0
    1.1379    1.3522  -19.6421 C   0  0  0  0  0  0  0  0  0  0  0  0
    2.4577    4.1106  -16.5868 C   0  0  0  0  0  0  0  0  0  0  0  0
    2.0320    5.5888  -16.5727 C   0  0  0  0  0  0  0  0  0  0  0  0
    1.6307    6.0879  -17.9619 C   0  0  0  0  0  0  0  0  0  0  0  0
    0.7515    7.3246  -17.9329 C   0  0  0  0  0  0  0  0  0  0  0  0
    2.9216    6.2889  -18.7707 C   0  0  0  0  0  0  0  0  0  0  0  0
    0.6478    5.1050  -18.5976 C   0  0  0  0  0  0  0  0  0  0  0  0
    0.0190    5.8497  -19.7744 C   0  0  0  0  0  0  0  0  0  0  0  0
    0.0335    7.3289  -19.2925 C   0  0  0  0  0  0  0  0  0  0  0  0
    1.2538    3.7076  -18.7591 C   0  0  0  0  0  0  0  0  0  0  0  0
    1.5116    8.5151  -17.7052 O   0  0  0  0  0  0  0  0  0  0  0  0
    2.1779    8.6118  -18.4035 H   0  0  0  0  0  0  0  0  0  0  0  0
    2.3725   -0.3548  -14.3699 O   0  0  0  0  0  0  0  0  0  0  0  0
    3.7490   -0.6642  -14.1569 C   0  0  0  0  0  0  0  0  0  0  0  0
    2.1659   -2.3505  -16.4997 O   0  0  0  0  0  0  0  0  0  0  0  0
   -0.1613   -3.4710  -16.5449 O   0  0  0  0  0  0  0  0  0  0  0  0
    1.6976   -4.8164  -16.0621 O   0  0  0  0  0  0  0  0  0  0  0  0
    1.1211   -3.5000  -15.9314 S   0  0  0  0  0  0  0  0  0  0  0  0
    0.9560   -3.1365  -14.3837 N   0  0  0  0  0  0  0  0  0  0  0  0
    0.3197   -3.8016  -13.9443 H   0  0  0  0  0  0  0  0  0  0  0  0
    0.5772   -2.1936  -14.2945 H   0  0  0  0  0  0  0  0  0  0  0  0
  1  2  1  0  0  0
  1 23  1  0  0  0
  1  6  2  0  0  0
 24 26  2  0  0  0
 25 26  2  0  0  0
  2  3  2  0  0  0
  2 21  1  0  0  0
  3  4  1  0  0  0
  4  5  2  0  0  0
  4  7  1  0  0  0
 26 27  1  0  0  0
 26 23  1  0  0  0
  5  6  1  0  0  0
  5  9  1  0  0  0
 21 22  1  0  0  0
  7 10  1  0  0  0
  7 18  1  0  0  0
  8  9  1  0  0  0
  8 18  1  0  0  0
 10 11  1  0  0  0
 11 12  1  0  0  0
 12 13  1  0  0  0
 12 14  1  0  0  0
 12 15  1  0  0  0
 13 17  1  0  0  0
 13 19  1  0  0  0
 15 16  1  0  0  0
 15 18  1  0  0  0
 16 17  1  0  0  0
 27 28  1  0  0  0
 27 29  1  0  0  0
 19 20  1  0  0  0
M  END
> <minimizedAffinity>
-7.82983

$$$$
2X7U_WZA_A_1263


 29 32  0  0  0  0  0  0  0  0999 V2000
    1.6534    4.8173  -17.7693 C   0  0  0  0  0  0  0  0  0  0  0  0
    2.4195    4.9862  -16.5117 C   0  0  0  0  0  0  0  0  0  0  0  0
    3.5212    4.2040  -16.2204 C   0  0  0  0  0  0  0  0  0  0  0  0
    3.9444    3.2291  -17.1026 C   0  0  0  0  0  0  0  0  0  0  0  0
    3.2152    3.0409  -18.3844 C   0  0  0  0  0  0  0  0  0  0  0  0
    2.0969    3.8425  -18.6707 C   0  0  0  0  0  0  0  0  0  0  0  0
    5.1380    2.4309  -16.7324 C   0  0  0  0  0  0  0  0  0  0  0  0
    5.1606    1.6165  -19.1345 C   0  0  0  0  0  0  0  0  0  0  0  0
    3.6863    1.9715  -19.3560 C   0  0  0  0  0  0  0  0  0  0  0  0
    5.1069    1.9547  -15.2734 C   0  0  0  0  0  0  0  0  0  0  0  0
    6.4782    1.3781  -14.8812 C   0  0  0  0  0  0  0  0  0  0  0  0
    6.9828    0.3479  -15.8932 C   0  0  0  0  0  0  0  0  0  0  0  0
    8.4842    0.1319  -15.8435 C   0  0  0  0  0  0  0  0  0  0  0  0
    6.1833   -0.9457  -15.6726 C   0  0  0  0  0  0  0  0  0  0  0  0
    6.8649    0.9156  -17.3075 C   0  0  0  0  0  0  0  0  0  0  0  0
    7.7229    0.0108  -18.1906 C   0  0  0  0  0  0  0  0  0  0  0  0
    8.8425   -0.4582  -17.2174 C   0  0  0  0  0  0  0  0  0  0  0  0
    5.4174    1.2595  -17.6716 C   0  0  0  0  0  0  0  0  0  0  0  0
    8.8656   -0.7201  -14.7593 O   0  0  0  0  0  0  0  0  0  0  0  0
    8.4212   -1.5775  -14.8500 H   0  0  0  0  0  0  0  0  0  0  0  0
    2.1027    5.9210  -15.5972 O   0  0  0  0  0  0  0  0  0  0  0  0
    2.4860    5.5540  -14.2727 C   0  0  0  0  0  0  0  0  0  0  0  0
    0.5782    5.6247  -18.0770 O   0  0  0  0  0  0  0  0  0  0  0  0
    0.9496    7.2456  -20.0539 O   0  0  0  0  0  0  0  0  0  0  0  0
   -0.8488    7.6672  -18.6093 O   0  0  0  0  0  0  0  0  0  0  0  0
    0.4948    7.1505  -18.7101 S   0  0  0  0  0  0  0  0  0  0  0  0
    1.4712    8.0063  -17.7779 N   0  0  0  0  0  0  0  0  0  0  0  0
    1.4838    8.9749  -18.0974 H   0  0  0  0  0  0  0  0  0  0  0  0
    2.4138    7.6197  -17.8274 H   0  0  0  0  0  0  0  0  0  0  0  0
  1  2  1  0  0  0
  1 23  1  0  0  0
  1  6  2  0  0  0
 24 26  2  0  0  0
 25 26  2  0  0  0
  2  3  2  0  0  0
  2 21  1  0  0  0
  3  4  1  0  0  0
  4  5  2  0  0  0
  4  7  1  0  0  0
 26 27  1  0  0  0
 26 23  1  0  0  0
  5  6  1  0  0  0
  5  9  1  0  0  0
 21 22  1  0  0  0
  7 10  1  0  0  0
  7 18  1  0  0  0
  8  9  1  0  0  0
  8 18  1  0  0  0
 10 11  1  0  0  0
 11 12  1  0  0  0
 12 13  1  0  0  0
 12 14  1  0  0  0
 12 15  1  0  0  0
 13 17  1  0  0  0
 13 19  1  0  0  0
 15 16  1  0  0  0
 15 18  1  0  0  0
 16 17  1  0  0  0
 27 28  1  0  0  0
 27 29  1  0  0  0
 19 20  1  0  0  0
M  END
> <minimizedAffinity>
-7.72329

$$$$
2X7U_WZA_A_1263


 29 32  0  0  0  0  0  0  0  0999 V2000
    1.5767    4.0903  -18.6151 C   0  0  0  0  0  0  0  0  0  0  0  0
    2.7045    3.3678  -17.9804 C   0  0  0  0  0  0  0  0  0  0  0  0
    2.5866    2.0541  -17.5674 C   0  0  0  0  0  0  0  0  0  0  0  0
    1.3992    1.3684  -17.7344 C   0  0  0  0  0  0  0  0  0  0  0  0
    0.2497    2.0508  -18.3847 C   0  0  0  0  0  0  0  0  0  0  0  0
    0.3811    3.3865  -18.8018 C   0  0  0  0  0  0  0  0  0  0  0  0
    1.3428   -0.0408  -17.2765 C   0  0  0  0  0  0  0  0  0  0  0  0
   -0.8309   -0.2238  -18.5708 C   0  0  0  0  0  0  0  0  0  0  0  0
   -1.0538    1.2925  -18.5727 C   0  0  0  0  0  0  0  0  0  0  0  0
    1.9676   -0.2416  -15.8888 C   0  0  0  0  0  0  0  0  0  0  0  0
    2.1233   -1.7440  -15.5968 C   0  0  0  0  0  0  0  0  0  0  0  0
    0.8283   -2.5187  -15.8476 C   0  0  0  0  0  0  0  0  0  0  0  0
    1.0419   -4.0053  -16.0661 C   0  0  0  0  0  0  0  0  0  0  0  0
   -0.1244   -2.2150  -14.6809 C   0  0  0  0  0  0  0  0  0  0  0  0
    0.2653   -2.1491  -17.2197 C   0  0  0  0  0  0  0  0  0  0  0  0
   -0.7760   -3.2197  -17.5430 C   0  0  0  0  0  0  0  0  0  0  0  0
   -0.2130   -4.4766  -16.8193 C   0  0  0  0  0  0  0  0  0  0  0  0
   -0.0545   -0.6551  -17.3279 C   0  0  0  0  0  0  0  0  0  0  0  0
    1.2415   -4.7031  -14.8332 O   0  0  0  0  0  0  0  0  0  0  0  0
    0.4714   -4.5710  -14.2585 H   0  0  0  0  0  0  0  0  0  0  0  0
    3.9085    3.9383  -17.7922 O   0  0  0  0  0  0  0  0  0  0  0  0
    4.9583    3.2582  -18.4787 C   0  0  0  0  0  0  0  0  0  0  0  0
    1.7076    5.3884  -19.0627 O   0  0  0  0  0  0  0  0  0  0  0  0
    1.5534    6.8042  -16.9075 O   0  0  0  0  0  0  0  0  0  0  0  0
    3.3983    7.1417  -18.3151 O   0  0  0  0  0  0  0  0  0  0  0  0
    1.9963    6.8047  -18.2587 S   0  0  0  0  0  0  0  0  0  0  0  0
    1.1497    7.8878  -19.0740 N   0  0  0  0  0  0  0  0  0  0  0  0
    1.2683    8.8054  -18.6447 H   0  0  0  0  0  0  0  0  0  0  0  0
    0.1629    7.6301  -19.0583 H   0  0  0  0  0  0  0  0  0  0  0  0
  1  2  1  0  0  0
  1 23  1  0  0  0
  1  6  2  0  0  0
 24 26  2  0  0  0
 25 26  2  0  0  0
  2  3  2  0  0  0
  2 21  1  0  0  0
  3  4  1  0  0  0
  4  5  2  0  0  0
  4  7  1  0  0  0
 26 27  1  0  0  0
 26 23  1  0  0  0
  5  6  1  0  0  0
  5  9  1  0  0  0
 21 22  1  0  0  0
  7 10  1  0  0  0
  7 18  1  0  0  0
  8  9  1  0  0  0
  8 18  1  0  0  0
 10 11  1  0  0  0
 11 12  1  0  0  0
 12 13  1  0  0  0
 12 14  1  0  0  0
 12 15  1  0  0  0
 13 17  1  0  0  0
 13 19  1  0  0  0
 15 16  1  0  0  0
 15 18  1  0  0  0
 16 17  1  0  0  0
 27 28  1  0  0  0
 27 29  1  0  0  0
 19 20  1  0  0  0
M  END
> <minimizedAffinity>
-7.44773

$$$$
2X7U_WZA_A_1263


 29 32  0  0  0  0  0  0  0  0999 V2000
    1.4707    4.5091  -17.8213 C   0  0  0  0  0  0  0  0  0  0  0  0
    1.8494    3.8464  -16.5508 C   0  0  0  0  0  0  0  0  0  0  0  0
    2.2805    2.5337  -16.5153 C   0  0  0  0  0  0  0  0  0  0  0  0
    2.3703    1.7914  -17.6767 C   0  0  0  0  0  0  0  0  0  0  0  0
    2.0185    2.4251  -18.9747 C   0  0  0  0  0  0  0  0  0  0  0  0
    1.5823    3.7609  -18.9992 C   0  0  0  0  0  0  0  0  0  0  0  0
    2.8476    0.3917  -17.5691 C   0  0  0  0  0  0  0  0  0  0  0  0
    3.0951    0.4336  -20.0931 C   0  0  0  0  0  0  0  0  0  0  0  0
    2.1237    1.6082  -20.2519 C   0  0  0  0  0  0  0  0  0  0  0  0
    2.1924   -0.3736  -16.4109 C   0  0  0  0  0  0  0  0  0  0  0  0
    2.9217   -1.7095  -16.1866 C   0  0  0  0  0  0  0  0  0  0  0  0
    3.0850   -2.5036  -17.4838 C   0  0  0  0  0  0  0  0  0  0  0  0
    4.1946   -3.5375  -17.4280 C   0  0  0  0  0  0  0  0  0  0  0  0
    1.7163   -3.1112  -17.8283 C   0  0  0  0  0  0  0  0  0  0  0  0
    3.6523   -1.5958  -18.5749 C   0  0  0  0  0  0  0  0  0  0  0  0
    4.1345   -2.5306  -19.6832 C   0  0  0  0  0  0  0  0  0  0  0  0
    4.5568   -3.8057  -18.8981 C   0  0  0  0  0  0  0  0  0  0  0  0
    2.7353   -0.4044  -18.8675 C   0  0  0  0  0  0  0  0  0  0  0  0
    3.7879   -4.7206  -16.7339 O   0  0  0  0  0  0  0  0  0  0  0  0
    3.0141   -5.1045  -17.1752 H   0  0  0  0  0  0  0  0  0  0  0  0
    1.8181    4.4879  -15.3684 O   0  0  0  0  0  0  0  0  0  0  0  0
    3.1169    4.8371  -14.8919 C   0  0  0  0  0  0  0  0  0  0  0  0
    1.0785    5.8309  -17.8605 O   0  0  0  0  0  0  0  0  0  0  0  0
    3.3158    7.0166  -18.3726 O   0  0  0  0  0  0  0  0  0  0  0  0
    1.3435    7.9928  -19.1824 O   0  0  0  0  0  0  0  0  0  0  0  0
    1.9333    7.2243  -18.1129 S   0  0  0  0  0  0  0  0  0  0  0  0
    1.7857    8.0196  -16.7344 N   0  0  0  0  0  0  0  0  0  0  0  0
    2.2882    8.9050  -16.7973 H   0  0  0  0  0  0  0  0  0  0  0  0
    2.1757    7.4604  -15.9758 H   0  0  0  0  0  0  0  0  0  0  0  0
  1  2  1  0  0  0
  1 23  1  0  0  0
  1  6  2  0  0  0
 24 26  2  0  0  0
 25 26  2  0  0  0
  2  3  2  0  0  0
  2 21  1  0  0  0
  3  4  1  0  0  0
  4  5  2  0  0  0
  4  7  1  0  0  0
 26 27  1  0  0  0
 26 23  1  0  0  0
  5  6  1  0  0  0
  5  9  1  0  0  0
 21 22  1  0  0  0
  7 10  1  0  0  0
  7 18  1  0  0  0
  8  9  1  0  0  0
  8 18  1  0  0  0
 10 11  1  0  0  0
 11 12  1  0  0  0
 12 13  1  0  0  0
 12 14  1  0  0  0
 12 15  1  0  0  0
 13 17  1  0  0  0
 13 19  1  0  0  0
 15 16  1  0  0  0
 15 18  1  0  0  0
 16 17  1  0  0  0
 27 28  1  0  0  0
 27 29  1  0  0  0
 19 20  1  0  0  0
M  END
> <minimizedAffinity>
-7.39254

$$$$
2X7U_WZA_A_1263


 29 32  0  0  0  0  0  0  0  0999 V2000
    1.7354    4.7960  -18.3203 C   0  0  0  0  0  0  0  0  0  0  0  0
    1.0461    3.7706  -19.1387 C   0  0  0  0  0  0  0  0  0  0  0  0
    1.6931    2.6275  -19.5690 C   0  0  0  0  0  0  0  0  0  0  0  0
    3.0178    2.4058  -19.2465 C   0  0  0  0  0  0  0  0  0  0  0  0
    3.7399    3.4006  -18.4105 C   0  0  0  0  0  0  0  0  0  0  0  0
    3.0718    4.5589  -17.9776 C   0  0  0  0  0  0  0  0  0  0  0  0
    3.6493    1.1556  -19.7332 C   0  0  0  0  0  0  0  0  0  0  0  0
    5.5511    1.6631  -18.1333 C   0  0  0  0  0  0  0  0  0  0  0  0
    5.1956    3.1516  -18.0521 C   0  0  0  0  0  0  0  0  0  0  0  0
    3.3268    0.8590  -21.2044 C   0  0  0  0  0  0  0  0  0  0  0  0
    3.7763   -0.5681  -21.5619 C   0  0  0  0  0  0  0  0  0  0  0  0
    5.2221   -0.8406  -21.1431 C   0  0  0  0  0  0  0  0  0  0  0  0
    5.5468   -2.3166  -21.0043 C   0  0  0  0  0  0  0  0  0  0  0  0
    6.1366   -0.1171  -22.1438 C   0  0  0  0  0  0  0  0  0  0  0  0
    5.4274   -0.4084  -19.6914 C   0  0  0  0  0  0  0  0  0  0  0  0
    6.7397   -1.0534  -19.2481 C   0  0  0  0  0  0  0  0  0  0  0  0
    6.7791   -2.3637  -20.0859 C   0  0  0  0  0  0  0  0  0  0  0  0
    5.1556    1.0856  -19.4912 C   0  0  0  0  0  0  0  0  0  0  0  0
    5.7794   -2.9340  -22.2738 O   0  0  0  0  0  0  0  0  0  0  0  0
    6.5132   -2.4852  -22.7221 H   0  0  0  0  0  0  0  0  0  0  0  0
   -0.2486    3.8810  -19.4882 O   0  0  0  0  0  0  0  0  0  0  0  0
   -0.4303    4.5243  -20.7488 C   0  0  0  0  0  0  0  0  0  0  0  0
    1.0777    5.9170  -17.8582 O   0  0  0  0  0  0  0  0  0  0  0  0
    1.2228    7.4824  -19.9081 O   0  0  0  0  0  0  0  0  0  0  0  0
   -0.7203    7.5636  -18.5979 O   0  0  0  0  0  0  0  0  0  0  0  0
    0.7074    7.3538  -18.5891 S   0  0  0  0  0  0  0  0  0  0  0  0
    1.4061    8.4490  -17.6580 N   0  0  0  0  0  0  0  0  0  0  0  0
    1.2291    9.3796  -18.0361 H   0  0  0  0  0  0  0  0  0  0  0  0
    2.4115    8.2792  -17.6291 H   0  0  0  0  0  0  0  0  0  0  0  0
  1  2  1  0  0  0
  1 23  1  0  0  0
  1  6  2  0  0  0
 24 26  2  0  0  0
 25 26  2  0  0  0
  2  3  2  0  0  0
  2 21  1  0  0  0
  3  4  1  0  0  0
  4  5  2  0  0  0
  4  7  1  0  0  0
 26 27  1  0  0  0
 26 23  1  0  0  0
  5  6  1  0  0  0
  5  9  1  0  0  0
 21 22  1  0  0  0
  7 10  1  0  0  0
  7 18  1  0  0  0
  8  9  1  0  0  0
  8 18  1  0  0  0
 10 11  1  0  0  0
 11 12  1  0  0  0
 12 13  1  0  0  0
 12 14  1  0  0  0
 12 15  1  0  0  0
 13 17  1  0  0  0
 13 19  1  0  0  0
 15 16  1  0  0  0
 15 18  1  0  0  0
 16 17  1  0  0  0
 27 28  1  0  0  0
 27 29  1  0  0  0
 19 20  1  0  0  0
M  END
> <minimizedAffinity>
-7.31761

$$$$
2X7U_WZA_A_1263


 29 32  0  0  0  0  0  0  0  0999 V2000
    1.4126    4.9999  -17.8247 C   0  0  0  0  0  0  0  0  0  0  0  0
    1.7116    3.8825  -18.7514 C   0  0  0  0  0  0  0  0  0  0  0  0
    2.6561    2.9197  -18.4493 C   0  0  0  0  0  0  0  0  0  0  0  0
    3.3589    2.9725  -17.2613 C   0  0  0  0  0  0  0  0  0  0  0  0
    3.0748    4.0663  -16.2954 C   0  0  0  0  0  0  0  0  0  0  0  0
    2.1115    5.0394  -16.6125 C   0  0  0  0  0  0  0  0  0  0  0  0
    4.3520    1.9039  -16.9958 C   0  0  0  0  0  0  0  0  0  0  0  0
    4.4027    2.7439  -14.6030 C   0  0  0  0  0  0  0  0  0  0  0  0
    3.8451    4.1190  -14.9864 C   0  0  0  0  0  0  0  0  0  0  0  0
    5.2395    1.6004  -18.2110 C   0  0  0  0  0  0  0  0  0  0  0  0
    6.0478    0.3155  -17.9616 C   0  0  0  0  0  0  0  0  0  0  0  0
    6.7723    0.3409  -16.6145 C   0  0  0  0  0  0  0  0  0  0  0  0
    7.1494   -1.0366  -16.1011 C   0  0  0  0  0  0  0  0  0  0  0  0
    7.9810    1.2787  -16.7583 C   0  0  0  0  0  0  0  0  0  0  0  0
    5.7959    0.7527  -15.5130 C   0  0  0  0  0  0  0  0  0  0  0  0
    6.4775    0.3851  -14.1957 C   0  0  0  0  0  0  0  0  0  0  0  0
    7.3324   -0.8550  -14.5853 C   0  0  0  0  0  0  0  0  0  0  0  0
    5.2086    2.1465  -15.7551 C   0  0  0  0  0  0  0  0  0  0  0  0
    8.3234   -1.5430  -16.7432 O   0  0  0  0  0  0  0  0  0  0  0  0
    9.0621   -0.9322  -16.5945 H   0  0  0  0  0  0  0  0  0  0  0  0
    1.0678    3.7284  -19.9229 O   0  0  0  0  0  0  0  0  0  0  0  0
    0.5386    2.4148  -20.0968 C   0  0  0  0  0  0  0  0  0  0  0  0
    0.4419    5.9377  -18.1094 O   0  0  0  0  0  0  0  0  0  0  0  0
    1.2238    7.5131  -20.0016 O   0  0  0  0  0  0  0  0  0  0  0  0
   -0.7797    8.0298  -18.8980 O   0  0  0  0  0  0  0  0  0  0  0  0
    0.5371    7.4564  -18.7578 S   0  0  0  0  0  0  0  0  0  0  0  0
    1.3716    8.2841  -17.6747 N   0  0  0  0  0  0  0  0  0  0  0  0
    1.4820    9.2466  -17.9937 H   0  0  0  0  0  0  0  0  0  0  0  0
    2.2905    7.8579  -17.5553 H   0  0  0  0  0  0  0  0  0  0  0  0
  1  2  1  0  0  0
  1 23  1  0  0  0
  1  6  2  0  0  0
 24 26  2  0  0  0
 25 26  2  0  0  0
  2  3  2  0  0  0
  2 21  1  0  0  0
  3  4  1  0  0  0
  4  5  2  0  0  0
  4  7  1  0  0  0
 26 27  1  0  0  0
 26 23  1  0  0  0
  5  6  1  0  0  0
  5  9  1  0  0  0
 21 22  1  0  0  0
  7 10  1  0  0  0
  7 18  1  0  0  0
  8  9  1  0  0  0
  8 18  1  0  0  0
 10 11  1  0  0  0
 11 12  1  0  0  0
 12 13  1  0  0  0
 12 14  1  0  0  0
 12 15  1  0  0  0
 13 17  1  0  0  0
 13 19  1  0  0  0
 15 16  1  0  0  0
 15 18  1  0  0  0
 16 17  1  0  0  0
 27 28  1  0  0  0
 27 29  1  0  0  0
 19 20  1  0  0  0
M  END
> <minimizedAffinity>
-7.18736

$$$$
2X7U_WZA_A_1263


 29 32  0  0  0  0  0  0  0  0999 V2000
    3.6314    2.4461  -17.0689 C   0  0  0  0  0  0  0  0  0  0  0  0
    5.0623    2.1987  -16.7722 C   0  0  0  0  0  0  0  0  0  0  0  0
    5.8844    1.5305  -17.6599 C   0  0  0  0  0  0  0  0  0  0  0  0
    5.3899    1.0664  -18.8632 C   0  0  0  0  0  0  0  0  0  0  0  0
    3.9646    1.3113  -19.2077 C   0  0  0  0  0  0  0  0  0  0  0  0
    3.1380    1.9928  -18.2980 C   0  0  0  0  0  0  0  0  0  0  0  0
    6.3273    0.3648  -19.7730 C   0  0  0  0  0  0  0  0  0  0  0  0
    4.5444    0.6037  -21.5613 C   0  0  0  0  0  0  0  0  0  0  0  0
    3.4243    0.8049  -20.5348 C   0  0  0  0  0  0  0  0  0  0  0  0
    7.2087   -0.6599  -19.0453 C   0  0  0  0  0  0  0  0  0  0  0  0
    8.3296   -1.1451  -19.9807 C   0  0  0  0  0  0  0  0  0  0  0  0
    7.7929   -1.5950  -21.3408 C   0  0  0  0  0  0  0  0  0  0  0  0
    8.8419   -1.5973  -22.4375 C   0  0  0  0  0  0  0  0  0  0  0  0
    7.1283   -2.9663  -21.1438 C   0  0  0  0  0  0  0  0  0  0  0  0
    6.8551   -0.5268  -21.9027 C   0  0  0  0  0  0  0  0  0  0  0  0
    6.6798   -0.8655  -23.3824 C   0  0  0  0  0  0  0  0  0  0  0  0
    8.0411   -1.5240  -23.7480 C   0  0  0  0  0  0  0  0  0  0  0  0
    5.6544   -0.2741  -20.9859 C   0  0  0  0  0  0  0  0  0  0  0  0
    9.6846   -2.7515  -22.3682 O   0  0  0  0  0  0  0  0  0  0  0  0
    9.1424   -3.5525  -22.4414 H   0  0  0  0  0  0  0  0  0  0  0  0
    5.6460    2.6286  -15.6386 O   0  0  0  0  0  0  0  0  0  0  0  0
    6.1764    1.5647  -14.8495 C   0  0  0  0  0  0  0  0  0  0  0  0
    2.8217    3.1476  -16.2000 O   0  0  0  0  0  0  0  0  0  0  0  0
    0.9450    3.2691  -14.4288 O   0  0  0  0  0  0  0  0  0  0  0  0
    2.3080    1.3610  -14.4576 O   0  0  0  0  0  0  0  0  0  0  0  0
    2.2564    2.7846  -14.6885 S   0  0  0  0  0  0  0  0  0  0  0  0
    3.2788    3.5257  -13.7086 N   0  0  0  0  0  0  0  0  0  0  0  0
    3.0057    3.3557  -12.7406 H   0  0  0  0  0  0  0  0  0  0  0  0
    3.2627    4.5283  -13.8954 H   0  0  0  0  0  0  0  0  0  0  0  0
  1  2  1  0  0  0
  1 23  1  0  0  0
  1  6  2  0  0  0
 24 26  2  0  0  0
 25 26  2  0  0  0
  2  3  2  0  0  0
  2 21  1  0  0  0
  3  4  1  0  0  0
  4  5  2  0  0  0
  4  7  1  0  0  0
 26 27  1  0  0  0
 26 23  1  0  0  0
  5  6  1  0  0  0
  5  9  1  0  0  0
 21 22  1  0  0  0
  7 10  1  0  0  0
  7 18  1  0  0  0
  8  9  1  0  0  0
  8 18  1  0  0  0
 10 11  1  0  0  0
 11 12  1  0  0  0
 12 13  1  0  0  0
 12 14  1  0  0  0
 12 15  1  0  0  0
 13 17  1  0  0  0
 13 19  1  0  0  0
 15 16  1  0  0  0
 15 18  1  0  0  0
 16 17  1  0  0  0
 27 28  1  0  0  0
 27 29  1  0  0  0
 19 20  1  0  0  0
M  END
> <minimizedAffinity>
-7.03214

$$$$
2X7U_WZA_A_1263


 29 32  0  0  0  0  0  0  0  0999 V2000
    6.6676    0.2847  -15.8003 C   0  0  0  0  0  0  0  0  0  0  0  0
    6.3740    0.3715  -17.2505 C   0  0  0  0  0  0  0  0  0  0  0  0
    5.4760    1.2920  -17.7572 C   0  0  0  0  0  0  0  0  0  0  0  0
    4.8164    2.1672  -16.9164 C   0  0  0  0  0  0  0  0  0  0  0  0
    5.0974    2.1260  -15.4571 C   0  0  0  0  0  0  0  0  0  0  0  0
    6.0132    1.1866  -14.9529 C   0  0  0  0  0  0  0  0  0  0  0  0
    3.8723    3.1345  -17.5258 C   0  0  0  0  0  0  0  0  0  0  0  0
    3.8808    4.3324  -15.2901 C   0  0  0  0  0  0  0  0  0  0  0  0
    4.3749    3.0938  -14.5347 C   0  0  0  0  0  0  0  0  0  0  0  0
    2.9515    2.4899  -18.5714 C   0  0  0  0  0  0  0  0  0  0  0  0
    2.1989    3.5819  -19.3511 C   0  0  0  0  0  0  0  0  0  0  0  0
    1.5245    4.5938  -18.4230 C   0  0  0  0  0  0  0  0  0  0  0  0
    1.2157    5.9206  -19.0921 C   0  0  0  0  0  0  0  0  0  0  0  0
    0.2790    3.9172  -17.8298 C   0  0  0  0  0  0  0  0  0  0  0  0
    2.5260    5.0771  -17.3742 C   0  0  0  0  0  0  0  0  0  0  0  0
    1.9073    6.3300  -16.7561 C   0  0  0  0  0  0  0  0  0  0  0  0
    1.0828    6.9236  -17.9344 C   0  0  0  0  0  0  0  0  0  0  0  0
    3.0543    3.9284  -16.5096 C   0  0  0  0  0  0  0  0  0  0  0  0
    0.0373    5.8496  -19.9004 O   0  0  0  0  0  0  0  0  0  0  0  0
   -0.7166    5.5849  -19.3503 H   0  0  0  0  0  0  0  0  0  0  0  0
    6.9788   -0.4202  -18.1549 O   0  0  0  0  0  0  0  0  0  0  0  0
    6.2952   -0.4556  -19.4068 C   0  0  0  0  0  0  0  0  0  0  0  0
    7.5932   -0.6074  -15.3003 O   0  0  0  0  0  0  0  0  0  0  0  0
    9.8337    0.6746  -15.4023 O   0  0  0  0  0  0  0  0  0  0  0  0
    9.7804   -1.3547  -14.2284 O   0  0  0  0  0  0  0  0  0  0  0  0
    9.2465   -0.6193  -15.3494 S   0  0  0  0  0  0  0  0  0  0  0  0
    9.5841   -1.3901  -16.7082 N   0  0  0  0  0  0  0  0  0  0  0  0
   10.5959   -1.4467  -16.8246 H   0  0  0  0  0  0  0  0  0  0  0  0
    9.1790   -0.8842  -17.4958 H   0  0  0  0  0  0  0  0  0  0  0  0
  1  2  1  0  0  0
  1 23  1  0  0  0
  1  6  2  0  0  0
 24 26  2  0  0  0
 25 26  2  0  0  0
  2  3  2  0  0  0
  2 21  1  0  0  0
  3  4  1  0  0  0
  4  5  2  0  0  0
  4  7  1  0  0  0
 26 27  1  0  0  0
 26 23  1  0  0  0
  5  6  1  0  0  0
  5  9  1  0  0  0
 21 22  1  0  0  0
  7 10  1  0  0  0
  7 18  1  0  0  0
  8  9  1  0  0  0
  8 18  1  0  0  0
 10 11  1  0  0  0
 11 12  1  0  0  0
 12 13  1  0  0  0
 12 14  1  0  0  0
 12 15  1  0  0  0
 13 17  1  0  0  0
 13 19  1  0  0  0
 15 16  1  0  0  0
 15 18  1  0  0  0
 16 17  1  0  0  0
 27 28  1  0  0  0
 27 29  1  0  0  0
 19 20  1  0  0  0
M  END
> <minimizedAffinity>
-6.89869

$$$$
