3TVC_E3P_A_1


 36 38  0  0  0  0  0  0  0  0999 V2000
  -10.5342  -25.4874   -0.0786 C   0  0  0  0  0  0  0  0  0  0  0  0
  -10.4009  -24.2193    0.7273 C   0  0  0  0  0  0  0  0  0  0  0  0
   -9.5094  -23.2736    0.3146 C   0  0  0  0  0  0  0  0  0  0  0  0
   -9.3330  -22.0038    1.0829 C   0  0  0  0  0  0  0  0  0  0  0  0
  -10.0846  -21.7893    2.1778 C   0  0  0  0  0  0  0  0  0  0  0  0
  -11.0563  -22.8159    2.6414 C   0  0  0  0  0  0  0  0  0  0  0  0
  -11.2174  -23.9918    1.9465 C   0  0  0  0  0  0  0  0  0  0  0  0
   -9.5941  -18.0977    4.4324 C   0  0  0  0  0  0  0  0  0  0  0  0
  -10.6038  -19.0963    4.8484 C   0  0  0  0  0  0  0  0  0  0  0  0
  -10.7558  -20.2569    4.1311 C   0  0  0  0  0  0  0  0  0  0  0  0
   -9.9015  -20.5001    2.9421 C   0  0  0  0  0  0  0  0  0  0  0  0
   -8.9661  -19.5832    2.5566 C   0  0  0  0  0  0  0  0  0  0  0  0
   -8.7914  -18.3152    3.3480 C   0  0  0  0  0  0  0  0  0  0  0  0
   -9.4459  -16.8693    5.2632 C   0  0  0  0  0  0  0  0  0  0  0  0
   -9.2406  -16.9551    6.7385 C   0  0  0  0  0  0  0  0  0  0  0  0
   -9.1328  -15.7996    7.4550 C   0  0  0  0  0  0  0  0  0  0  0  0
   -9.2372  -14.4776    6.7632 C   0  0  0  0  0  0  0  0  0  0  0  0
   -9.4406  -14.4047    5.4168 C   0  0  0  0  0  0  0  0  0  0  0  0
   -9.5530  -15.6653    4.6284 C   0  0  0  0  0  0  0  0  0  0  0  0
  -11.6527  -25.3158   -1.0803 C   0  0  0  0  0  0  0  0  0  0  0  0
  -13.1559  -27.1260   -0.0516 N   0  0  0  0  0  0  0  0  0  0  0  0
  -12.1456  -27.4110   -2.0836 O   0  0  0  0  0  0  0  0  0  0  0  0
  -12.3251  -26.6741   -1.1358 C   0  0  0  0  0  0  0  0  0  0  0  0
  -13.3067  -26.5426    0.7270 H   0  0  0  0  0  0  0  0  0  0  0  0
  -13.7724  -28.4389   -0.1016 C   0  0  0  0  0  0  0  0  0  0  0  0
  -15.7447  -28.5379    1.3123 N   0  0  0  0  0  0  0  0  0  0  0  0
  -15.2434  -28.3041    0.1302 C   0  0  0  0  0  0  0  0  0  0  0  0
  -15.9915  -27.9690   -0.7855 O   0  0  0  0  0  0  0  0  0  0  0  0
  -15.1545  -28.8070    2.0529 H   0  0  0  0  0  0  0  0  0  0  0  0
  -16.7132  -28.4453    1.4634 H   0  0  0  0  0  0  0  0  0  0  0  0
  -13.1487  -29.3481    0.9434 C   0  0  0  0  0  0  0  0  0  0  0  0
  -11.9983  -28.6812    1.6326 C   0  0  0  0  0  0  0  0  0  0  0  0
  -10.6957  -29.2310    1.1323 C   0  0  0  0  0  0  0  0  0  0  0  0
   -9.9375  -29.8853    1.8932 O   0  0  0  0  0  0  0  0  0  0  0  0
  -10.3403  -29.0325   -0.0625 O   0  0  0  0  0  0  0  0  0  0  0  0
  -10.8942  -28.5469   -0.6415 H   0  0  0  0  0  0  0  0  0  0  0  0
 32 33  1  0  0  0
 33 34  2  0  0  0
 33 35  1  0  0  0
 23 21  1  0  0  0
 25 21  1  0  0  0
 31 32  1  0  0  0
 22 23  2  0  0  0
 25 31  1  0  0  0
 26 27  1  0  0  0
 27 25  1  0  0  0
 27 28  2  0  0  0
 23 20  1  0  0  0
 20  1  1  0  0  0
  1  2  1  0  0  0
  3  2  2  0  0  0
  2  7  1  0  0  0
  3  4  1  0  0  0
  4  5  2  0  0  0
  5  6  1  0  0  0
  5 11  1  0  0  0
  7  6  2  0  0  0
 13  8  2  0  0  0
  8  9  1  0  0  0
  8 14  1  0  0  0
 10  9  2  0  0  0
 11 10  1  0  0  0
 12 11  2  0  0  0
 12 13  1  0  0  0
 15 14  2  0  0  0
 14 19  1  0  0  0
 15 16  1  0  0  0
 16 17  2  0  0  0
 17 18  1  0  0  0
 19 18  2  0  0  0
 21 24  1  0  0  0
 26 29  1  0  0  0
 26 30  1  0  0  0
 35 36  1  0  0  0
M  END
> <minimizedAffinity>
-11.10144

$$$$
3TVC_E3P_A_1


 36 38  0  0  0  0  0  0  0  0999 V2000
  -10.3286  -25.9288   -0.4829 C   0  0  0  0  0  0  0  0  0  0  0  0
  -10.2910  -24.6881    0.3742 C   0  0  0  0  0  0  0  0  0  0  0  0
   -9.4016  -23.7036    0.0597 C   0  0  0  0  0  0  0  0  0  0  0  0
   -9.3185  -22.4585    0.8824 C   0  0  0  0  0  0  0  0  0  0  0  0
  -10.1517  -22.3055    1.9273 C   0  0  0  0  0  0  0  0  0  0  0  0
  -11.1223  -23.3750    2.2841 C   0  0  0  0  0  0  0  0  0  0  0  0
  -11.1982  -24.5285    1.5388 C   0  0  0  0  0  0  0  0  0  0  0  0
   -9.8566  -18.6302    4.2419 C   0  0  0  0  0  0  0  0  0  0  0  0
   -8.9859  -18.8410    3.0640 C   0  0  0  0  0  0  0  0  0  0  0  0
   -9.0816  -20.0037    2.3405 C   0  0  0  0  0  0  0  0  0  0  0  0
  -10.0622  -21.0408    2.7472 C   0  0  0  0  0  0  0  0  0  0  0  0
  -10.8702  -20.8491    3.8311 C   0  0  0  0  0  0  0  0  0  0  0  0
  -10.7735  -19.5707    4.6191 C   0  0  0  0  0  0  0  0  0  0  0  0
   -9.7368  -17.3377    4.9743 C   0  0  0  0  0  0  0  0  0  0  0  0
   -9.8388  -16.0325    4.2589 C   0  0  0  0  0  0  0  0  0  0  0  0
   -9.7000  -14.8792    4.9735 C   0  0  0  0  0  0  0  0  0  0  0  0
   -9.4338  -14.9374    6.4442 C   0  0  0  0  0  0  0  0  0  0  0  0
   -9.3259  -16.1334    7.0905 C   0  0  0  0  0  0  0  0  0  0  0  0
   -9.4830  -17.3968    6.3145 C   0  0  0  0  0  0  0  0  0  0  0  0
  -11.7596  -26.2047   -0.8828 C   0  0  0  0  0  0  0  0  0  0  0  0
  -11.2622  -28.6693   -0.3605 N   0  0  0  0  0  0  0  0  0  0  0  0
  -13.1056  -27.6081    0.4803 O   0  0  0  0  0  0  0  0  0  0  0  0
  -12.1014  -27.5124   -0.1949 C   0  0  0  0  0  0  0  0  0  0  0  0
  -10.4473  -28.6096   -0.9097 H   0  0  0  0  0  0  0  0  0  0  0  0
  -11.6128  -29.9238    0.2794 C   0  0  0  0  0  0  0  0  0  0  0  0
   -9.2796  -30.3745    0.7814 N   0  0  0  0  0  0  0  0  0  0  0  0
  -10.5127  -30.3309    1.2067 C   0  0  0  0  0  0  0  0  0  0  0  0
  -10.7574  -30.6232    2.3751 O   0  0  0  0  0  0  0  0  0  0  0  0
   -9.0724  -30.1423   -0.1526 H   0  0  0  0  0  0  0  0  0  0  0  0
   -8.5565  -30.6396    1.3947 H   0  0  0  0  0  0  0  0  0  0  0  0
  -11.8500  -30.9961   -0.7702 C   0  0  0  0  0  0  0  0  0  0  0  0
  -12.5019  -32.2073   -0.1776 C   0  0  0  0  0  0  0  0  0  0  0  0
  -11.5533  -33.3690   -0.1801 C   0  0  0  0  0  0  0  0  0  0  0  0
  -11.7442  -34.3554   -0.9368 O   0  0  0  0  0  0  0  0  0  0  0  0
  -10.5530  -33.3729    0.5896 O   0  0  0  0  0  0  0  0  0  0  0  0
  -10.3973  -32.6454    1.1593 H   0  0  0  0  0  0  0  0  0  0  0  0
 32 33  1  0  0  0
 33 34  2  0  0  0
 33 35  1  0  0  0
 23 21  1  0  0  0
 25 21  1  0  0  0
 31 32  1  0  0  0
 22 23  2  0  0  0
 25 31  1  0  0  0
 26 27  1  0  0  0
 27 25  1  0  0  0
 27 28  2  0  0  0
 23 20  1  0  0  0
 20  1  1  0  0  0
  1  2  1  0  0  0
  3  2  2  0  0  0
  2  7  1  0  0  0
  3  4  1  0  0  0
  4  5  2  0  0  0
  5  6  1  0  0  0
  5 11  1  0  0  0
  7  6  2  0  0  0
 13  8  2  0  0  0
  8  9  1  0  0  0
  8 14  1  0  0  0
 10  9  2  0  0  0
 11 10  1  0  0  0
 12 11  2  0  0  0
 12 13  1  0  0  0
 15 14  2  0  0  0
 14 19  1  0  0  0
 15 16  1  0  0  0
 16 17  2  0  0  0
 17 18  1  0  0  0
 19 18  2  0  0  0
 21 24  1  0  0  0
 26 29  1  0  0  0
 26 30  1  0  0  0
 35 36  1  0  0  0
M  END
> <minimizedAffinity>
-10.49186

$$$$
3TVC_E3P_A_1


 36 38  0  0  0  0  0  0  0  0999 V2000
  -10.2214  -25.5229   -0.5656 C   0  0  0  0  0  0  0  0  0  0  0  0
  -10.1968  -24.3170    0.3402 C   0  0  0  0  0  0  0  0  0  0  0  0
   -9.3372  -23.2991    0.0498 C   0  0  0  0  0  0  0  0  0  0  0  0
   -9.2678  -22.0864    0.9206 C   0  0  0  0  0  0  0  0  0  0  0  0
  -10.0843  -21.9958    1.9859 C   0  0  0  0  0  0  0  0  0  0  0  0
  -11.0221  -23.1022    2.3167 C   0  0  0  0  0  0  0  0  0  0  0  0
  -11.0849  -24.2264    1.5268 C   0  0  0  0  0  0  0  0  0  0  0  0
   -9.8312  -18.4104    4.4421 C   0  0  0  0  0  0  0  0  0  0  0  0
   -8.9678  -18.5592    3.2495 C   0  0  0  0  0  0  0  0  0  0  0  0
   -9.0501  -19.6938    2.4812 C   0  0  0  0  0  0  0  0  0  0  0  0
  -10.0090  -20.7632    2.8546 C   0  0  0  0  0  0  0  0  0  0  0  0
  -10.8103  -20.6287    3.9520 C   0  0  0  0  0  0  0  0  0  0  0  0
  -10.7284  -19.3810    4.7893 C   0  0  0  0  0  0  0  0  0  0  0  0
   -9.7270  -17.1461    5.2242 C   0  0  0  0  0  0  0  0  0  0  0  0
   -9.5280  -15.8324    4.5455 C   0  0  0  0  0  0  0  0  0  0  0  0
   -9.4170  -14.7083    5.3098 C   0  0  0  0  0  0  0  0  0  0  0  0
   -9.4787  -14.8081    6.8009 C   0  0  0  0  0  0  0  0  0  0  0  0
   -9.6450  -16.0133    7.4169 C   0  0  0  0  0  0  0  0  0  0  0  0
   -9.7729  -17.2442    6.5852 C   0  0  0  0  0  0  0  0  0  0  0  0
  -11.5811  -26.1762   -0.4746 C   0  0  0  0  0  0  0  0  0  0  0  0
  -11.8025  -28.6592    0.1421 N   0  0  0  0  0  0  0  0  0  0  0  0
  -10.6665  -27.9778   -1.7225 O   0  0  0  0  0  0  0  0  0  0  0  0
  -11.3175  -27.6433   -0.7540 C   0  0  0  0  0  0  0  0  0  0  0  0
  -12.3270  -28.4040    0.9352 H   0  0  0  0  0  0  0  0  0  0  0  0
  -11.5211  -30.0587   -0.1192 C   0  0  0  0  0  0  0  0  0  0  0  0
  -12.9297  -31.9882   -0.5574 N   0  0  0  0  0  0  0  0  0  0  0  0
  -12.7344  -30.7063   -0.7059 C   0  0  0  0  0  0  0  0  0  0  0  0
  -13.5587  -30.0398   -1.3279 O   0  0  0  0  0  0  0  0  0  0  0  0
  -12.2758  -32.5315   -0.0610 H   0  0  0  0  0  0  0  0  0  0  0  0
  -13.7310  -32.4118   -0.9418 H   0  0  0  0  0  0  0  0  0  0  0  0
  -11.1125  -30.7573    1.1664 C   0  0  0  0  0  0  0  0  0  0  0  0
   -9.6448  -30.6106    1.4264 C   0  0  0  0  0  0  0  0  0  0  0  0
   -9.0144  -31.9524    1.6528 C   0  0  0  0  0  0  0  0  0  0  0  0
   -7.8134  -32.0476    2.0141 O   0  0  0  0  0  0  0  0  0  0  0  0
   -9.6843  -33.0068    1.4719 O   0  0  0  0  0  0  0  0  0  0  0  0
  -10.5802  -32.9523    1.2027 H   0  0  0  0  0  0  0  0  0  0  0  0
 32 33  1  0  0  0
 33 34  2  0  0  0
 33 35  1  0  0  0
 23 21  1  0  0  0
 25 21  1  0  0  0
 31 32  1  0  0  0
 22 23  2  0  0  0
 25 31  1  0  0  0
 26 27  1  0  0  0
 27 25  1  0  0  0
 27 28  2  0  0  0
 23 20  1  0  0  0
 20  1  1  0  0  0
  1  2  1  0  0  0
  3  2  2  0  0  0
  2  7  1  0  0  0
  3  4  1  0  0  0
  4  5  2  0  0  0
  5  6  1  0  0  0
  5 11  1  0  0  0
  7  6  2  0  0  0
 13  8  2  0  0  0
  8  9  1  0  0  0
  8 14  1  0  0  0
 10  9  2  0  0  0
 11 10  1  0  0  0
 12 11  2  0  0  0
 12 13  1  0  0  0
 15 14  2  0  0  0
 14 19  1  0  0  0
 15 16  1  0  0  0
 16 17  2  0  0  0
 17 18  1  0  0  0
 19 18  2  0  0  0
 21 24  1  0  0  0
 26 29  1  0  0  0
 26 30  1  0  0  0
 35 36  1  0  0  0
M  END
> <minimizedAffinity>
-10.45356

$$$$
3TVC_E3P_A_1


 36 38  0  0  0  0  0  0  0  0999 V2000
  -10.3413  -25.7978   -0.4966 C   0  0  0  0  0  0  0  0  0  0  0  0
  -10.3012  -24.5701    0.3787 C   0  0  0  0  0  0  0  0  0  0  0  0
   -9.4359  -23.5665    0.0573 C   0  0  0  0  0  0  0  0  0  0  0  0
   -9.3513  -22.3331    0.8972 C   0  0  0  0  0  0  0  0  0  0  0  0
  -10.1595  -22.2098    1.9654 C   0  0  0  0  0  0  0  0  0  0  0  0
  -11.1034  -23.3003    2.3299 C   0  0  0  0  0  0  0  0  0  0  0  0
  -11.1803  -24.4432    1.5686 C   0  0  0  0  0  0  0  0  0  0  0  0
   -9.8611  -18.5671    4.3305 C   0  0  0  0  0  0  0  0  0  0  0  0
   -8.9916  -18.7618    3.1490 C   0  0  0  0  0  0  0  0  0  0  0  0
   -9.0883  -19.9142    2.4095 C   0  0  0  0  0  0  0  0  0  0  0  0
  -10.0689  -20.9566    2.8027 C   0  0  0  0  0  0  0  0  0  0  0  0
  -10.8759  -20.7797    3.8898 C   0  0  0  0  0  0  0  0  0  0  0  0
  -10.7780  -19.5124    4.6954 C   0  0  0  0  0  0  0  0  0  0  0  0
   -9.7403  -17.2849    5.0807 C   0  0  0  0  0  0  0  0  0  0  0  0
   -9.4561  -16.0014    4.3752 C   0  0  0  0  0  0  0  0  0  0  0  0
   -9.3336  -14.8601    5.1118 C   0  0  0  0  0  0  0  0  0  0  0  0
   -9.4673  -14.9124    6.6006 C   0  0  0  0  0  0  0  0  0  0  0  0
   -9.7114  -16.0908    7.2419 C   0  0  0  0  0  0  0  0  0  0  0  0
   -9.8522  -17.3401    6.4402 C   0  0  0  0  0  0  0  0  0  0  0  0
  -11.4088  -26.7339    0.0211 C   0  0  0  0  0  0  0  0  0  0  0  0
  -13.7298  -25.7575   -0.4828 N   0  0  0  0  0  0  0  0  0  0  0  0
  -12.5928  -27.0150   -2.0181 O   0  0  0  0  0  0  0  0  0  0  0  0
  -12.5866  -26.5195   -0.9099 C   0  0  0  0  0  0  0  0  0  0  0  0
  -13.7427  -25.3540    0.4152 H   0  0  0  0  0  0  0  0  0  0  0  0
  -14.8639  -25.5815   -1.3710 C   0  0  0  0  0  0  0  0  0  0  0  0
  -15.5727  -27.4174   -2.7944 N   0  0  0  0  0  0  0  0  0  0  0  0
  -15.5263  -26.9030   -1.5958 C   0  0  0  0  0  0  0  0  0  0  0  0
  -16.0280  -27.5175   -0.6571 O   0  0  0  0  0  0  0  0  0  0  0  0
  -15.1739  -26.9337   -3.5535 H   0  0  0  0  0  0  0  0  0  0  0  0
  -16.0065  -28.2893   -2.9394 H   0  0  0  0  0  0  0  0  0  0  0  0
  -14.4054  -24.9833   -2.6900 C   0  0  0  0  0  0  0  0  0  0  0  0
  -15.3020  -23.8652   -3.1249 C   0  0  0  0  0  0  0  0  0  0  0  0
  -15.8594  -24.1392   -4.4900 C   0  0  0  0  0  0  0  0  0  0  0  0
  -15.9436  -23.2230   -5.3477 O   0  0  0  0  0  0  0  0  0  0  0  0
  -16.2616  -25.2973   -4.7904 O   0  0  0  0  0  0  0  0  0  0  0  0
  -16.2055  -25.9903   -4.1623 H   0  0  0  0  0  0  0  0  0  0  0  0
 32 33  1  0  0  0
 33 34  2  0  0  0
 33 35  1  0  0  0
 23 21  1  0  0  0
 25 21  1  0  0  0
 31 32  1  0  0  0
 22 23  2  0  0  0
 25 31  1  0  0  0
 26 27  1  0  0  0
 27 25  1  0  0  0
 27 28  2  0  0  0
 23 20  1  0  0  0
 20  1  1  0  0  0
  1  2  1  0  0  0
  3  2  2  0  0  0
  2  7  1  0  0  0
  3  4  1  0  0  0
  4  5  2  0  0  0
  5  6  1  0  0  0
  5 11  1  0  0  0
  7  6  2  0  0  0
 13  8  2  0  0  0
  8  9  1  0  0  0
  8 14  1  0  0  0
 10  9  2  0  0  0
 11 10  1  0  0  0
 12 11  2  0  0  0
 12 13  1  0  0  0
 15 14  2  0  0  0
 14 19  1  0  0  0
 15 16  1  0  0  0
 16 17  2  0  0  0
 17 18  1  0  0  0
 19 18  2  0  0  0
 21 24  1  0  0  0
 26 29  1  0  0  0
 26 30  1  0  0  0
 35 36  1  0  0  0
M  END
> <minimizedAffinity>
-10.43745

$$$$
3TVC_E3P_A_1


 36 38  0  0  0  0  0  0  0  0999 V2000
   -9.3851  -16.5078    5.4345 C   0  0  0  0  0  0  0  0  0  0  0  0
   -9.5433  -17.7850    4.6478 C   0  0  0  0  0  0  0  0  0  0  0  0
  -10.4985  -18.6773    5.0360 C   0  0  0  0  0  0  0  0  0  0  0  0
  -10.6898  -19.9615    4.2955 C   0  0  0  0  0  0  0  0  0  0  0  0
   -9.9235  -20.2195    3.2204 C   0  0  0  0  0  0  0  0  0  0  0  0
   -8.8740  -19.2567    2.7906 C   0  0  0  0  0  0  0  0  0  0  0  0
   -8.6842  -18.0775    3.4726 C   0  0  0  0  0  0  0  0  0  0  0  0
  -10.4625  -23.9496    1.0415 C   0  0  0  0  0  0  0  0  0  0  0  0
   -9.4903  -22.9414    0.5639 C   0  0  0  0  0  0  0  0  0  0  0  0
   -9.3276  -21.7658    1.2537 C   0  0  0  0  0  0  0  0  0  0  0  0
  -10.1301  -21.5174    2.4771 C   0  0  0  0  0  0  0  0  0  0  0  0
  -11.0258  -22.4462    2.9237 C   0  0  0  0  0  0  0  0  0  0  0  0
  -11.1978  -23.7398    2.1742 C   0  0  0  0  0  0  0  0  0  0  0  0
  -10.5784  -25.2231    0.2760 C   0  0  0  0  0  0  0  0  0  0  0  0
  -11.5578  -26.2762    0.6728 C   0  0  0  0  0  0  0  0  0  0  0  0
  -11.6077  -27.4324   -0.0490 C   0  0  0  0  0  0  0  0  0  0  0  0
  -10.6796  -27.6339   -1.2045 C   0  0  0  0  0  0  0  0  0  0  0  0
   -9.7755  -26.6745   -1.5533 C   0  0  0  0  0  0  0  0  0  0  0  0
   -9.7214  -25.4064   -0.7710 C   0  0  0  0  0  0  0  0  0  0  0  0
   -9.8274  -15.3456    4.5758 C   0  0  0  0  0  0  0  0  0  0  0  0
   -8.7850  -13.7297    6.2779 N   0  0  0  0  0  0  0  0  0  0  0  0
  -11.0020  -13.6307    5.7243 O   0  0  0  0  0  0  0  0  0  0  0  0
   -9.9352  -14.1798    5.5399 C   0  0  0  0  0  0  0  0  0  0  0  0
   -7.9138  -14.1684    6.1440 H   0  0  0  0  0  0  0  0  0  0  0  0
   -8.9046  -12.6313    7.2189 C   0  0  0  0  0  0  0  0  0  0  0  0
   -7.1957  -11.5346    5.8862 N   0  0  0  0  0  0  0  0  0  0  0  0
   -7.7334  -11.7152    7.0616 C   0  0  0  0  0  0  0  0  0  0  0  0
   -7.2698  -11.1222    8.0332 O   0  0  0  0  0  0  0  0  0  0  0  0
   -7.5591  -12.0047    5.1012 H   0  0  0  0  0  0  0  0  0  0  0  0
   -6.4267  -10.9284    5.7845 H   0  0  0  0  0  0  0  0  0  0  0  0
   -8.9765  -13.1665    8.6388 C   0  0  0  0  0  0  0  0  0  0  0  0
  -10.2847  -12.8293    9.2852 C   0  0  0  0  0  0  0  0  0  0  0  0
  -11.2233  -13.9968    9.2125 C   0  0  0  0  0  0  0  0  0  0  0  0
  -12.3323  -13.9701    9.8052 O   0  0  0  0  0  0  0  0  0  0  0  0
  -10.9031  -15.0287    8.5598 O   0  0  0  0  0  0  0  0  0  0  0  0
  -10.0802  -15.0637    8.1129 H   0  0  0  0  0  0  0  0  0  0  0  0
 32 33  1  0  0  0
 33 34  2  0  0  0
 33 35  1  0  0  0
 23 21  1  0  0  0
 25 21  1  0  0  0
 31 32  1  0  0  0
 22 23  2  0  0  0
 25 31  1  0  0  0
 26 27  1  0  0  0
 27 25  1  0  0  0
 27 28  2  0  0  0
 23 20  1  0  0  0
 20  1  1  0  0  0
  1  2  1  0  0  0
  3  2  2  0  0  0
  2  7  1  0  0  0
  3  4  1  0  0  0
  4  5  2  0  0  0
  5  6  1  0  0  0
  5 11  1  0  0  0
  7  6  2  0  0  0
 13  8  2  0  0  0
  8  9  1  0  0  0
  8 14  1  0  0  0
 10  9  2  0  0  0
 11 10  1  0  0  0
 12 11  2  0  0  0
 12 13  1  0  0  0
 15 14  2  0  0  0
 14 19  1  0  0  0
 15 16  1  0  0  0
 16 17  2  0  0  0
 17 18  1  0  0  0
 19 18  2  0  0  0
 21 24  1  0  0  0
 26 29  1  0  0  0
 26 30  1  0  0  0
 35 36  1  0  0  0
M  END
> <minimizedAffinity>
-10.40274

$$$$
3TVC_E3P_A_1


 36 38  0  0  0  0  0  0  0  0999 V2000
   -9.2645  -16.7275    5.4450 C   0  0  0  0  0  0  0  0  0  0  0  0
   -9.4323  -17.9657    4.6001 C   0  0  0  0  0  0  0  0  0  0  0  0
  -10.3806  -18.8777    4.9584 C   0  0  0  0  0  0  0  0  0  0  0  0
  -10.5807  -20.1251    4.1598 C   0  0  0  0  0  0  0  0  0  0  0  0
   -9.8296  -20.3295    3.0627 C   0  0  0  0  0  0  0  0  0  0  0  0
   -8.7877  -19.3450    2.6648 C   0  0  0  0  0  0  0  0  0  0  0  0
   -8.5897  -18.1996    3.4000 C   0  0  0  0  0  0  0  0  0  0  0  0
  -10.5054  -23.9799    0.7890 C   0  0  0  0  0  0  0  0  0  0  0  0
  -11.2116  -23.7587    2.0705 C   0  0  0  0  0  0  0  0  0  0  0  0
  -10.9914  -22.6070    2.7843 C   0  0  0  0  0  0  0  0  0  0  0  0
  -10.0451  -21.5905    2.2608 C   0  0  0  0  0  0  0  0  0  0  0  0
   -9.3941  -21.7886    1.0770 C   0  0  0  0  0  0  0  0  0  0  0  0
   -9.6422  -23.0461    0.2885 C   0  0  0  0  0  0  0  0  0  0  0  0
  -10.8035  -25.2313    0.0364 C   0  0  0  0  0  0  0  0  0  0  0  0
   -9.7418  -25.9384   -0.7375 C   0  0  0  0  0  0  0  0  0  0  0  0
  -10.0732  -27.0677   -1.4266 C   0  0  0  0  0  0  0  0  0  0  0  0
  -11.4830  -27.5671   -1.4114 C   0  0  0  0  0  0  0  0  0  0  0  0
  -12.4529  -26.9082   -0.7152 C   0  0  0  0  0  0  0  0  0  0  0  0
  -12.0941  -25.6765    0.0446 C   0  0  0  0  0  0  0  0  0  0  0  0
   -9.3860  -15.5095    4.5588 C   0  0  0  0  0  0  0  0  0  0  0  0
  -10.8523  -14.8176    6.5501 N   0  0  0  0  0  0  0  0  0  0  0  0
  -11.2387  -14.0288    4.4383 O   0  0  0  0  0  0  0  0  0  0  0  0
  -10.5414  -14.7239    5.1485 C   0  0  0  0  0  0  0  0  0  0  0  0
  -10.3001  -15.3816    7.1385 H   0  0  0  0  0  0  0  0  0  0  0  0
  -11.9772  -14.0836    7.0997 C   0  0  0  0  0  0  0  0  0  0  0  0
  -12.2231  -12.5948    9.0029 N   0  0  0  0  0  0  0  0  0  0  0  0
  -11.4719  -13.0239    8.0257 C   0  0  0  0  0  0  0  0  0  0  0  0
  -10.3469  -12.5512    7.8788 O   0  0  0  0  0  0  0  0  0  0  0  0
  -13.1259  -12.9666    9.1296 H   0  0  0  0  0  0  0  0  0  0  0  0
  -11.8870  -11.8993    9.6133 H   0  0  0  0  0  0  0  0  0  0  0  0
  -12.9107  -15.0318    7.8327 C   0  0  0  0  0  0  0  0  0  0  0  0
  -13.6870  -15.8837    6.8764 C   0  0  0  0  0  0  0  0  0  0  0  0
  -13.1152  -17.2691    6.8232 C   0  0  0  0  0  0  0  0  0  0  0  0
  -13.6394  -18.1555    6.1010 O   0  0  0  0  0  0  0  0  0  0  0  0
  -12.1015  -17.5641    7.5150 O   0  0  0  0  0  0  0  0  0  0  0  0
  -11.6997  -16.9147    8.0579 H   0  0  0  0  0  0  0  0  0  0  0  0
 32 33  1  0  0  0
 33 34  2  0  0  0
 33 35  1  0  0  0
 23 21  1  0  0  0
 25 21  1  0  0  0
 31 32  1  0  0  0
 22 23  2  0  0  0
 25 31  1  0  0  0
 26 27  1  0  0  0
 27 25  1  0  0  0
 27 28  2  0  0  0
 23 20  1  0  0  0
 20  1  1  0  0  0
  1  2  1  0  0  0
  3  2  2  0  0  0
  2  7  1  0  0  0
  3  4  1  0  0  0
  4  5  2  0  0  0
  5  6  1  0  0  0
  5 11  1  0  0  0
  7  6  2  0  0  0
 13  8  2  0  0  0
  8  9  1  0  0  0
  8 14  1  0  0  0
 10  9  2  0  0  0
 11 10  1  0  0  0
 12 11  2  0  0  0
 12 13  1  0  0  0
 15 14  2  0  0  0
 14 19  1  0  0  0
 15 16  1  0  0  0
 16 17  2  0  0  0
 17 18  1  0  0  0
 19 18  2  0  0  0
 21 24  1  0  0  0
 26 29  1  0  0  0
 26 30  1  0  0  0
 35 36  1  0  0  0
M  END
> <minimizedAffinity>
-10.30496

$$$$
3TVC_E3P_A_1


 36 38  0  0  0  0  0  0  0  0999 V2000
  -10.0327  -23.9017    0.4188 C   0  0  0  0  0  0  0  0  0  0  0  0
  -10.0187  -22.6743    1.2954 C   0  0  0  0  0  0  0  0  0  0  0  0
   -9.3051  -21.5870    0.8859 C   0  0  0  0  0  0  0  0  0  0  0  0
   -9.2518  -20.3494    1.7222 C   0  0  0  0  0  0  0  0  0  0  0  0
   -9.9392  -20.3082    2.8778 C   0  0  0  0  0  0  0  0  0  0  0  0
  -10.7166  -21.4900    3.3384 C   0  0  0  0  0  0  0  0  0  0  0  0
  -10.7624  -22.6366    2.5801 C   0  0  0  0  0  0  0  0  0  0  0  0
   -9.8099  -16.7132    5.3296 C   0  0  0  0  0  0  0  0  0  0  0  0
  -10.7156  -17.8274    5.6879 C   0  0  0  0  0  0  0  0  0  0  0  0
  -10.7540  -18.9568    4.9086 C   0  0  0  0  0  0  0  0  0  0  0  0
   -9.8824  -19.0503    3.7111 C   0  0  0  0  0  0  0  0  0  0  0  0
   -9.0424  -18.0264    3.3786 C   0  0  0  0  0  0  0  0  0  0  0  0
   -8.9918  -16.7920    4.2378 C   0  0  0  0  0  0  0  0  0  0  0  0
   -9.7815  -15.5228    6.2259 C   0  0  0  0  0  0  0  0  0  0  0  0
   -9.1091  -14.2580    5.8088 C   0  0  0  0  0  0  0  0  0  0  0  0
   -9.0932  -13.2056    6.6761 C   0  0  0  0  0  0  0  0  0  0  0  0
   -9.7277  -13.3371    8.0241 C   0  0  0  0  0  0  0  0  0  0  0  0
  -10.3273  -14.5007    8.4065 C   0  0  0  0  0  0  0  0  0  0  0  0
  -10.3525  -15.6519    7.4593 C   0  0  0  0  0  0  0  0  0  0  0  0
  -11.1509  -24.8129    0.8695 C   0  0  0  0  0  0  0  0  0  0  0  0
  -12.0431  -27.0534   -0.0129 N   0  0  0  0  0  0  0  0  0  0  0  0
  -10.0473  -26.1890   -0.7204 O   0  0  0  0  0  0  0  0  0  0  0  0
  -11.0251  -26.0367   -0.0173 C   0  0  0  0  0  0  0  0  0  0  0  0
  -12.8395  -26.9477    0.5562 H   0  0  0  0  0  0  0  0  0  0  0  0
  -11.9000  -28.2343   -0.8443 C   0  0  0  0  0  0  0  0  0  0  0  0
  -13.1942  -27.2913   -2.6706 N   0  0  0  0  0  0  0  0  0  0  0  0
  -13.0179  -28.2795   -1.8363 C   0  0  0  0  0  0  0  0  0  0  0  0
  -13.7763  -29.2457   -1.8786 O   0  0  0  0  0  0  0  0  0  0  0  0
  -12.5925  -26.5125   -2.6454 H   0  0  0  0  0  0  0  0  0  0  0  0
  -13.9288  -27.3248   -3.3251 H   0  0  0  0  0  0  0  0  0  0  0  0
  -11.9026  -29.4838    0.0196 C   0  0  0  0  0  0  0  0  0  0  0  0
  -11.1617  -29.2637    1.3025 C   0  0  0  0  0  0  0  0  0  0  0  0
  -10.1216  -30.3263    1.4978 C   0  0  0  0  0  0  0  0  0  0  0  0
  -10.1569  -31.0866    2.4991 O   0  0  0  0  0  0  0  0  0  0  0  0
   -9.1884  -30.4625    0.6588 O   0  0  0  0  0  0  0  0  0  0  0  0
   -9.1484  -29.9038   -0.0923 H   0  0  0  0  0  0  0  0  0  0  0  0
 32 33  1  0  0  0
 33 34  2  0  0  0
 33 35  1  0  0  0
 23 21  1  0  0  0
 25 21  1  0  0  0
 31 32  1  0  0  0
 22 23  2  0  0  0
 25 31  1  0  0  0
 26 27  1  0  0  0
 27 25  1  0  0  0
 27 28  2  0  0  0
 23 20  1  0  0  0
 20  1  1  0  0  0
  1  2  1  0  0  0
  3  2  2  0  0  0
  2  7  1  0  0  0
  3  4  1  0  0  0
  4  5  2  0  0  0
  5  6  1  0  0  0
  5 11  1  0  0  0
  7  6  2  0  0  0
 13  8  2  0  0  0
  8  9  1  0  0  0
  8 14  1  0  0  0
 10  9  2  0  0  0
 11 10  1  0  0  0
 12 11  2  0  0  0
 12 13  1  0  0  0
 15 14  2  0  0  0
 14 19  1  0  0  0
 15 16  1  0  0  0
 16 17  2  0  0  0
 17 18  1  0  0  0
 19 18  2  0  0  0
 21 24  1  0  0  0
 26 29  1  0  0  0
 26 30  1  0  0  0
 35 36  1  0  0  0
M  END
> <minimizedAffinity>
-10.27994

$$$$
3TVC_E3P_A_1


 36 38  0  0  0  0  0  0  0  0999 V2000
  -10.7664  -27.4373   -1.2774 C   0  0  0  0  0  0  0  0  0  0  0  0
  -10.6666  -26.1600   -0.4814 C   0  0  0  0  0  0  0  0  0  0  0  0
   -9.6301  -25.3111   -0.7353 C   0  0  0  0  0  0  0  0  0  0  0  0
   -9.4811  -24.0371    0.0317 C   0  0  0  0  0  0  0  0  0  0  0  0
  -10.3986  -23.7207    0.9633 C   0  0  0  0  0  0  0  0  0  0  0  0
  -11.5305  -24.6414    1.2538 C   0  0  0  0  0  0  0  0  0  0  0  0
  -11.6693  -25.8208    0.5600 C   0  0  0  0  0  0  0  0  0  0  0  0
   -9.9721  -20.0229    3.2208 C   0  0  0  0  0  0  0  0  0  0  0  0
  -10.8461  -21.1061    3.7233 C   0  0  0  0  0  0  0  0  0  0  0  0
  -10.9789  -22.2684    3.0049 C   0  0  0  0  0  0  0  0  0  0  0  0
  -10.2404  -22.4281    1.7275 C   0  0  0  0  0  0  0  0  0  0  0  0
   -9.4300  -21.4328    1.2617 C   0  0  0  0  0  0  0  0  0  0  0  0
   -9.2755  -20.1624    2.0533 C   0  0  0  0  0  0  0  0  0  0  0  0
   -9.8363  -18.7944    4.0537 C   0  0  0  0  0  0  0  0  0  0  0  0
  -10.6619  -18.5984    5.2808 C   0  0  0  0  0  0  0  0  0  0  0  0
  -10.5140  -17.4459    5.9949 C   0  0  0  0  0  0  0  0  0  0  0  0
   -9.5498  -16.3990    5.5348 C   0  0  0  0  0  0  0  0  0  0  0  0
   -8.8090  -16.5764    4.4037 C   0  0  0  0  0  0  0  0  0  0  0  0
   -8.9629  -17.8374    3.6231 C   0  0  0  0  0  0  0  0  0  0  0  0
  -12.2034  -27.9050   -1.2748 C   0  0  0  0  0  0  0  0  0  0  0  0
  -12.6565  -30.2661   -0.3722 N   0  0  0  0  0  0  0  0  0  0  0  0
  -11.5511  -29.9222   -2.3448 O   0  0  0  0  0  0  0  0  0  0  0  0
  -12.1124  -29.4141   -1.3959 C   0  0  0  0  0  0  0  0  0  0  0  0
  -13.1096  -29.8694    0.4066 H   0  0  0  0  0  0  0  0  0  0  0  0
  -12.5396  -31.7083   -0.4837 C   0  0  0  0  0  0  0  0  0  0  0  0
  -14.7049  -31.6232    0.6134 N   0  0  0  0  0  0  0  0  0  0  0  0
  -13.7107  -32.3530    0.1862 C   0  0  0  0  0  0  0  0  0  0  0  0
  -13.7505  -33.5721    0.3368 O   0  0  0  0  0  0  0  0  0  0  0  0
  -14.6833  -30.6458    0.4978 H   0  0  0  0  0  0  0  0  0  0  0  0
  -15.4764  -32.0502    1.0512 H   0  0  0  0  0  0  0  0  0  0  0  0
  -11.2396  -32.1766    0.1475 C   0  0  0  0  0  0  0  0  0  0  0  0
  -11.0370  -31.5662    1.5001 C   0  0  0  0  0  0  0  0  0  0  0  0
  -10.0162  -30.4695    1.4343 C   0  0  0  0  0  0  0  0  0  0  0  0
  -10.3200  -29.2871    1.7371 O   0  0  0  0  0  0  0  0  0  0  0  0
   -8.8368  -30.7220    1.0622 O   0  0  0  0  0  0  0  0  0  0  0  0
   -8.5951  -31.5979    0.8333 H   0  0  0  0  0  0  0  0  0  0  0  0
 32 33  1  0  0  0
 33 34  2  0  0  0
 33 35  1  0  0  0
 23 21  1  0  0  0
 25 21  1  0  0  0
 31 32  1  0  0  0
 22 23  2  0  0  0
 25 31  1  0  0  0
 26 27  1  0  0  0
 27 25  1  0  0  0
 27 28  2  0  0  0
 23 20  1  0  0  0
 20  1  1  0  0  0
  1  2  1  0  0  0
  3  2  2  0  0  0
  2  7  1  0  0  0
  3  4  1  0  0  0
  4  5  2  0  0  0
  5  6  1  0  0  0
  5 11  1  0  0  0
  7  6  2  0  0  0
 13  8  2  0  0  0
  8  9  1  0  0  0
  8 14  1  0  0  0
 10  9  2  0  0  0
 11 10  1  0  0  0
 12 11  2  0  0  0
 12 13  1  0  0  0
 15 14  2  0  0  0
 14 19  1  0  0  0
 15 16  1  0  0  0
 16 17  2  0  0  0
 17 18  1  0  0  0
 19 18  2  0  0  0
 21 24  1  0  0  0
 26 29  1  0  0  0
 26 30  1  0  0  0
 35 36  1  0  0  0
M  END
> <minimizedAffinity>
-10.26456

$$$$
3TVC_E3P_A_1


 36 38  0  0  0  0  0  0  0  0999 V2000
  -10.6443  -25.9093   -0.0682 C   0  0  0  0  0  0  0  0  0  0  0  0
  -10.4407  -24.5932    0.6401 C   0  0  0  0  0  0  0  0  0  0  0  0
  -11.2295  -24.2998    1.7129 C   0  0  0  0  0  0  0  0  0  0  0  0
  -11.0739  -23.0054    2.4438 C   0  0  0  0  0  0  0  0  0  0  0  0
  -10.1255  -22.1377    2.0470 C   0  0  0  0  0  0  0  0  0  0  0  0
   -9.2628  -22.4436    0.8744 C   0  0  0  0  0  0  0  0  0  0  0  0
   -9.4064  -23.6278    0.1896 C   0  0  0  0  0  0  0  0  0  0  0  0
   -9.7264  -18.4100    4.2600 C   0  0  0  0  0  0  0  0  0  0  0  0
  -10.7238  -19.4207    4.6765 C   0  0  0  0  0  0  0  0  0  0  0  0
  -10.8470  -20.5926    3.9723 C   0  0  0  0  0  0  0  0  0  0  0  0
   -9.9741  -20.8359    2.7970 C   0  0  0  0  0  0  0  0  0  0  0  0
   -9.0498  -19.9079    2.4112 C   0  0  0  0  0  0  0  0  0  0  0  0
   -8.9067  -18.6272    3.1883 C   0  0  0  0  0  0  0  0  0  0  0  0
   -9.6095  -17.1688    5.0768 C   0  0  0  0  0  0  0  0  0  0  0  0
   -9.6838  -17.2148    6.5662 C   0  0  0  0  0  0  0  0  0  0  0  0
   -9.5930  -16.0470    7.2648 C   0  0  0  0  0  0  0  0  0  0  0  0
   -9.4389  -14.7495    6.5367 C   0  0  0  0  0  0  0  0  0  0  0  0
   -9.3874  -14.7115    5.1746 C   0  0  0  0  0  0  0  0  0  0  0  0
   -9.4800  -15.9863    4.4069 C   0  0  0  0  0  0  0  0  0  0  0  0
  -11.5922  -26.7612    0.7440 C   0  0  0  0  0  0  0  0  0  0  0  0
  -13.8764  -26.2535   -0.3138 N   0  0  0  0  0  0  0  0  0  0  0  0
  -12.6665  -28.1064   -0.8917 O   0  0  0  0  0  0  0  0  0  0  0  0
  -12.7168  -27.0994   -0.2156 C   0  0  0  0  0  0  0  0  0  0  0  0
  -13.9351  -25.4363    0.2321 H   0  0  0  0  0  0  0  0  0  0  0  0
  -14.9599  -26.6006   -1.2147 C   0  0  0  0  0  0  0  0  0  0  0  0
  -15.7627  -25.5230   -3.2380 N   0  0  0  0  0  0  0  0  0  0  0  0
  -15.3515  -25.3939   -2.0060 C   0  0  0  0  0  0  0  0  0  0  0  0
  -15.2942  -24.2732   -1.5048 O   0  0  0  0  0  0  0  0  0  0  0  0
  -15.8125  -26.4161   -3.6492 H   0  0  0  0  0  0  0  0  0  0  0  0
  -16.0232  -24.7274   -3.7559 H   0  0  0  0  0  0  0  0  0  0  0  0
  -16.1455  -27.1289   -0.4254 C   0  0  0  0  0  0  0  0  0  0  0  0
  -16.2209  -28.6235   -0.4856 C   0  0  0  0  0  0  0  0  0  0  0  0
  -15.6157  -29.2302    0.7452 C   0  0  0  0  0  0  0  0  0  0  0  0
  -15.4652  -30.4751    0.8429 O   0  0  0  0  0  0  0  0  0  0  0  0
  -15.2583  -28.4935    1.7058 O   0  0  0  0  0  0  0  0  0  0  0  0
  -15.3640  -27.5642    1.6481 H   0  0  0  0  0  0  0  0  0  0  0  0
 32 33  1  0  0  0
 33 34  2  0  0  0
 33 35  1  0  0  0
 23 21  1  0  0  0
 25 21  1  0  0  0
 31 32  1  0  0  0
 22 23  2  0  0  0
 25 31  1  0  0  0
 26 27  1  0  0  0
 27 25  1  0  0  0
 27 28  2  0  0  0
 23 20  1  0  0  0
 20  1  1  0  0  0
  1  2  1  0  0  0
  3  2  2  0  0  0
  2  7  1  0  0  0
  3  4  1  0  0  0
  4  5  2  0  0  0
  5  6  1  0  0  0
  5 11  1  0  0  0
  7  6  2  0  0  0
 13  8  2  0  0  0
  8  9  1  0  0  0
  8 14  1  0  0  0
 10  9  2  0  0  0
 11 10  1  0  0  0
 12 11  2  0  0  0
 12 13  1  0  0  0
 15 14  2  0  0  0
 14 19  1  0  0  0
 15 16  1  0  0  0
 16 17  2  0  0  0
 17 18  1  0  0  0
 19 18  2  0  0  0
 21 24  1  0  0  0
 26 29  1  0  0  0
 26 30  1  0  0  0
 35 36  1  0  0  0
M  END
> <minimizedAffinity>
-10.16331

$$$$
3TVC_E3P_A_1


 36 38  0  0  0  0  0  0  0  0999 V2000
   -9.2882  -16.5032    5.3374 C   0  0  0  0  0  0  0  0  0  0  0  0
   -9.4358  -17.7757    4.5411 C   0  0  0  0  0  0  0  0  0  0  0  0
  -10.4173  -18.6552    4.8909 C   0  0  0  0  0  0  0  0  0  0  0  0
  -10.5997  -19.9343    4.1395 C   0  0  0  0  0  0  0  0  0  0  0  0
   -9.7982  -20.2003    3.0924 C   0  0  0  0  0  0  0  0  0  0  0  0
   -8.7199  -19.2516    2.7047 C   0  0  0  0  0  0  0  0  0  0  0  0
   -8.5383  -18.0772    3.3971 C   0  0  0  0  0  0  0  0  0  0  0  0
  -10.4250  -23.9392    0.9524 C   0  0  0  0  0  0  0  0  0  0  0  0
  -11.1883  -23.6501    2.1868 C   0  0  0  0  0  0  0  0  0  0  0  0
  -10.9834  -22.4707    2.8587 C   0  0  0  0  0  0  0  0  0  0  0  0
   -9.9960  -21.4929    2.3376 C   0  0  0  0  0  0  0  0  0  0  0  0
   -9.2921  -21.7537    1.1971 C   0  0  0  0  0  0  0  0  0  0  0  0
   -9.5231  -23.0417    0.4539 C   0  0  0  0  0  0  0  0  0  0  0  0
  -10.7075  -25.2188    0.2423 C   0  0  0  0  0  0  0  0  0  0  0  0
   -9.7671  -25.7564   -0.7836 C   0  0  0  0  0  0  0  0  0  0  0  0
  -10.0843  -26.9205   -1.4196 C   0  0  0  0  0  0  0  0  0  0  0  0
  -11.3632  -27.6254   -1.0962 C   0  0  0  0  0  0  0  0  0  0  0  0
  -12.2268  -27.1214   -0.1689 C   0  0  0  0  0  0  0  0  0  0  0  0
  -11.8814  -25.8523    0.5333 C   0  0  0  0  0  0  0  0  0  0  0  0
   -9.9233  -16.6983    6.6947 C   0  0  0  0  0  0  0  0  0  0  0  0
  -10.5800  -14.2880    6.1000 N   0  0  0  0  0  0  0  0  0  0  0  0
  -10.6211  -15.0506    8.2560 O   0  0  0  0  0  0  0  0  0  0  0  0
  -10.4055  -15.3161    7.0912 C   0  0  0  0  0  0  0  0  0  0  0  0
  -10.4037  -14.4857    5.1518 H   0  0  0  0  0  0  0  0  0  0  0  0
  -11.0151  -12.9605    6.4931 C   0  0  0  0  0  0  0  0  0  0  0  0
  -12.2318  -13.0228    4.3919 N   0  0  0  0  0  0  0  0  0  0  0  0
  -12.1177  -12.5127    5.5879 C   0  0  0  0  0  0  0  0  0  0  0  0
  -12.9269  -11.6663    5.9610 O   0  0  0  0  0  0  0  0  0  0  0  0
  -11.5891  -13.7015    4.0829 H   0  0  0  0  0  0  0  0  0  0  0  0
  -12.9606  -12.7289    3.7989 H   0  0  0  0  0  0  0  0  0  0  0  0
   -9.8480  -11.9900    6.4327 C   0  0  0  0  0  0  0  0  0  0  0  0
   -9.3396  -11.6594    7.8021 C   0  0  0  0  0  0  0  0  0  0  0  0
   -8.0805  -12.4204    8.0932 C   0  0  0  0  0  0  0  0  0  0  0  0
   -6.9815  -12.0620    7.5974 O   0  0  0  0  0  0  0  0  0  0  0  0
   -8.1131  -13.4409    8.8354 O   0  0  0  0  0  0  0  0  0  0  0  0
   -8.9241  -13.7204    9.2122 H   0  0  0  0  0  0  0  0  0  0  0  0
 32 33  1  0  0  0
 33 34  2  0  0  0
 33 35  1  0  0  0
 23 21  1  0  0  0
 25 21  1  0  0  0
 31 32  1  0  0  0
 22 23  2  0  0  0
 25 31  1  0  0  0
 26 27  1  0  0  0
 27 25  1  0  0  0
 27 28  2  0  0  0
 23 20  1  0  0  0
 20  1  1  0  0  0
  1  2  1  0  0  0
  3  2  2  0  0  0
  2  7  1  0  0  0
  3  4  1  0  0  0
  4  5  2  0  0  0
  5  6  1  0  0  0
  5 11  1  0  0  0
  7  6  2  0  0  0
 13  8  2  0  0  0
  8  9  1  0  0  0
  8 14  1  0  0  0
 10  9  2  0  0  0
 11 10  1  0  0  0
 12 11  2  0  0  0
 12 13  1  0  0  0
 15 14  2  0  0  0
 14 19  1  0  0  0
 15 16  1  0  0  0
 16 17  2  0  0  0
 17 18  1  0  0  0
 19 18  2  0  0  0
 21 24  1  0  0  0
 26 29  1  0  0  0
 26 30  1  0  0  0
 35 36  1  0  0  0
M  END
> <minimizedAffinity>
-10.08726

$$$$
