1IIH_3PG_B_600
  RCSB PDB12061702503D
Coordinates from PDB:1IIH:B:600 Model:1 without hydrogens
 11 10  0  0  0  0            999 V2000
   46.4510   15.2650   -8.7440   C 0  0  0  0  0  0  0  0  0  0  0  0
   47.3220   15.8050   -8.0570   O 0  0  0  0  0  0  0  0  0  0  0  0
   45.2700   15.2200   -8.4480   O 0  0  0  0  0  0  0  0  0  0  0  0
   46.8730   14.6890  -10.0830   C 0  0  0  0  0  0  0  0  0  0  0  0
   47.2570   13.3250  -10.0540   O 0  0  0  0  0  0  0  0  0  0  0  0
   48.0670   15.5450  -10.4800   C 0  0  0  0  0  0  0  0  0  0  0  0
   47.6780   16.7860  -11.1160   O 0  0  0  0  0  0  0  0  0  0  0  0
   47.7670   16.9710  -12.7130   P 0  0  0  0  0  0  0  0  0  0  0  0
   49.2390   16.7440  -12.9640   O 0  0  0  0  0  0  0  0  0  0  0  0
   46.8860   15.8500  -13.2130   O 0  0  0  0  0  0  0  0  0  0  0  0
   47.3480   18.3830  -12.9890   O 0  0  0  0  0  0  0  0  0  0  0  0
  1  2  2  0  0  0  0
  1  3  1  0  0  0  0
  1  4  1  0  0  0  0
  4  5  1  0  0  0  0
  4  6  1  0  0  0  0
  6  7  1  0  0  0  0
  7  8  1  0  0  0  0
  8  9  2  0  0  0  0
  8 10  1  0  0  0  0
  8 11  1  0  0  0  0
A    1
C1
A    2
O1
A    3
O2
A    4
C2
A    5
O3
A    6
C3
A    7
O1P
A    8
P
A    9
O2P
A   10
O3P
A   11
O4P
M  END
>  <InstanceId>
1IIH_3PG_B_600

>  <ChemCompId>
3PG

>  <PdbId>
1IIH

>  <ChainId>
B

>  <ResidueNumber>
600

>  <InsertionCode>


>  <Model>
1

>  <AltIds>


>  <MissingHeavyAtoms>
0

>  <ObservedFormula>
C3 O7 P

>  <Name>
3-PHOSPHOGLYCERIC ACID

>  <SystematicName>
(2R)-2-hydroxy-3-phosphonooxy-propanoic acid

>  <Synonyms>


>  <Type>
NON-POLYMER

>  <Formula>
C3 H7 O7 P

>  <MolecularWeight>
186.057

>  <ModifiedDate>
2011-06-04

>  <Parent>


>  <OneLetterCode>


>  <SubcomponentList>


>  <AmbiguousFlag>
N

>  <InChI>
InChI=1S/C3H7O7P/c4-2(3(5)6)1-10-11(7,8)9/h2,4H,1H2,(H,5,6)(H2,7,8,9)/t2-/m1/s1

>  <InChIKey>
OSJPPGNTCRNQQC-UWTATZPHSA-N

>  <SMILES>
C([C@H](C(=O)O)O)OP(=O)(O)O

$$$$
