5BRY_4UY_B_201


 44 47  0  0  0  0  0  0  0  0999 V2000
   14.9423   22.8274   16.9247 C   0  0  0  0  0  0  0  0  0  0  0  0
   14.0973   21.8011   17.5163 N   0  0  0  0  0  0  0  0  0  0  0  0
   14.3758   20.5281   17.7946 C   0  0  0  0  0  0  0  0  0  0  0  0
   15.5001   20.0633   17.5910 O   0  0  0  0  0  0  0  0  0  0  0  0
   13.1843   22.0902   17.7448 H   0  0  0  0  0  0  0  0  0  0  0  0
   13.3166   19.8547   18.3164 O   0  0  0  0  0  0  0  0  0  0  0  0
   13.5829   18.7171   19.1492 C   0  0  0  0  0  0  0  0  0  0  0  0
   13.0678   19.0730   20.5642 C   0  0  0  0  0  0  0  0  0  0  0  0
   11.6537   18.9217   20.4514 O   0  0  0  0  0  0  0  0  0  0  0  0
   11.3505   17.8663   19.5409 C   0  0  0  0  0  0  0  0  0  0  0  0
   10.4184   18.3775   18.5630 O   0  0  0  0  0  0  0  0  0  0  0  0
   11.0495   18.4198   17.2940 C   0  0  0  0  0  0  0  0  0  0  0  0
   12.2572   17.4660   17.3322 C   0  0  0  0  0  0  0  0  0  0  0  0
   12.6466   17.5479   18.8262 C   0  0  0  0  0  0  0  0  0  0  0  0
   11.8011   16.0953   17.0509 N   0  0  0  0  0  0  0  0  0  0  0  0
   10.8070   16.0266   15.9645 C   0  0  0  0  0  0  0  0  0  0  0  0
   12.6096   15.5322   16.7869 H   0  0  0  0  0  0  0  0  0  0  0  0
   15.3539   23.8655   17.9650 C   0  0  0  0  0  0  0  0  0  0  0  0
   14.2238   24.6704   18.3415 O   0  0  0  0  0  0  0  0  0  0  0  0
   13.9034   25.1600   17.5679 H   0  0  0  0  0  0  0  0  0  0  0  0
   16.5043   24.7636   17.4898 C   0  0  0  0  0  0  0  0  0  0  0  0
   17.7257   23.9836   17.3788 N   0  0  0  0  0  0  0  0  0  0  0  0
   18.4521   24.0594   15.8954 S   0  0  0  0  0  0  0  0  0  0  0  0
   17.3745   24.0155   14.8624 O   0  0  0  0  0  0  0  0  0  0  0  0
   19.3671   22.8797   15.8375 O   0  0  0  0  0  0  0  0  0  0  0  0
   20.8092   27.9621   15.4471 C   0  0  0  0  0  0  0  0  0  0  0  0
   19.8199   27.6075   14.5287 C   0  0  0  0  0  0  0  0  0  0  0  0
   19.1039   26.4216   14.6664 C   0  0  0  0  0  0  0  0  0  0  0  0
   19.3573   25.5482   15.7321 C   0  0  0  0  0  0  0  0  0  0  0  0
   20.3495   25.9067   16.6480 C   0  0  0  0  0  0  0  0  0  0  0  0
   21.0632   27.0952   16.5049 C   0  0  0  0  0  0  0  0  0  0  0  0
   21.4611   29.1359   15.2428 O   0  0  0  0  0  0  0  0  0  0  0  0
   22.8686   29.1358   15.4128 C   0  0  0  0  0  0  0  0  0  0  0  0
   18.6286   24.0914   18.5097 C   0  0  0  0  0  0  0  0  0  0  0  0
   18.5042   22.9617   19.5426 C   0  0  0  0  0  0  0  0  0  0  0  0
   18.1464   21.6187   18.8856 C   0  0  0  0  0  0  0  0  0  0  0  0
   19.8246   22.7935   20.3155 C   0  0  0  0  0  0  0  0  0  0  0  0
   14.1490   23.4413   15.7614 C   0  0  0  0  0  0  0  0  0  0  0  0
   12.4307   21.9162   14.6602 C   0  0  0  0  0  0  0  0  0  0  0  0
   12.0641   20.8606   13.8153 C   0  0  0  0  0  0  0  0  0  0  0  0
   13.0355   20.2245   13.0528 C   0  0  0  0  0  0  0  0  0  0  0  0
   14.3714   20.6107   13.1850 C   0  0  0  0  0  0  0  0  0  0  0  0
   14.7278   21.6609   14.0434 C   0  0  0  0  0  0  0  0  0  0  0  0
   13.7514   22.3181   14.7862 C   0  0  0  0  0  0  0  0  0  0  0  0
 41 42  2  0  0  0
 41 40  1  0  0  0
 42 43  1  0  0  0
 40 39  2  0  0  0
 43 44  2  0  0  0
 16 15  1  0  0  0
 39 44  1  0  0  0
 27 28  2  0  0  0
 27 26  1  0  0  0
 32 33  1  0  0  0
 32 26  1  0  0  0
 44 38  1  0  0  0
 28 29  1  0  0  0
 24 23  2  0  0  0
 26 31  2  0  0  0
 29 30  2  0  0  0
 29 23  1  0  0  0
 31 30  1  0  0  0
 38  1  1  0  0  0
 15 13  1  0  0  0
 23 25  2  0  0  0
 23 22  1  0  0  0
 13 12  1  0  0  0
 13 14  1  0  0  0
  1  2  1  0  0  0
  1 18  1  0  0  0
 12 11  1  0  0  0
 21 22  1  0  0  0
 21 18  1  0  0  0
 22 34  1  0  0  0
  2  3  1  0  0  0
  4  3  2  0  0  0
  3  6  1  0  0  0
 18 19  1  0  0  0
 14  7  1  0  0  0
 14 10  1  0  0  0
 11 10  1  0  0  0
  6  7  1  0  0  0
 34 35  1  0  0  0
  7  8  1  0  0  0
 10  9  1  0  0  0
 36 35  1  0  0  0
 35 37  1  0  0  0
  9  8  1  0  0  0
 19 20  1  0  0  0
  2  5  1  0  0  0
 15 17  1  0  0  0
M  END
> <minimizedAffinity>
-9.79573

$$$$
5BRY_4UY_B_201


 44 47  0  0  0  0  0  0  0  0999 V2000
   18.4066   25.8403   16.6338 C   0  0  0  0  0  0  0  0  0  0  0  0
   19.5312   25.4269   17.4595 N   0  0  0  0  0  0  0  0  0  0  0  0
   20.4829   26.1652   18.0295 C   0  0  0  0  0  0  0  0  0  0  0  0
   20.4785   27.3948   17.9321 O   0  0  0  0  0  0  0  0  0  0  0  0
   19.5991   24.4581   17.6209 H   0  0  0  0  0  0  0  0  0  0  0  0
   21.3982   25.4217   18.7056 O   0  0  0  0  0  0  0  0  0  0  0  0
   21.0083   24.8485   19.9617 C   0  0  0  0  0  0  0  0  0  0  0  0
   21.3398   23.3392   19.8828 C   0  0  0  0  0  0  0  0  0  0  0  0
   22.7541   23.2991   20.0658 O   0  0  0  0  0  0  0  0  0  0  0  0
   23.1574   24.3402   20.9537 C   0  0  0  0  0  0  0  0  0  0  0  0
   24.2167   25.0846   20.3132 O   0  0  0  0  0  0  0  0  0  0  0  0
   23.7572   26.3939   20.0222 C   0  0  0  0  0  0  0  0  0  0  0  0
   22.5405   26.6810   20.9205 C   0  0  0  0  0  0  0  0  0  0  0  0
   21.9608   25.2577   21.0902 C   0  0  0  0  0  0  0  0  0  0  0  0
   23.0085   27.1461   22.2360 N   0  0  0  0  0  0  0  0  0  0  0  0
   21.9825   27.0352   23.2888 C   0  0  0  0  0  0  0  0  0  0  0  0
   23.8159   26.5861   22.5097 H   0  0  0  0  0  0  0  0  0  0  0  0
   17.1160   25.1631   17.0865 C   0  0  0  0  0  0  0  0  0  0  0  0
   16.3334   26.0646   17.8874 O   0  0  0  0  0  0  0  0  0  0  0  0
   16.8263   26.2947   18.6905 H   0  0  0  0  0  0  0  0  0  0  0  0
   17.3641   23.8576   17.8544 C   0  0  0  0  0  0  0  0  0  0  0  0
   16.8500   22.7316   17.0926 N   0  0  0  0  0  0  0  0  0  0  0  0
   17.2765   21.2503   17.6910 S   0  0  0  0  0  0  0  0  0  0  0  0
   18.3550   21.4652   18.7014 O   0  0  0  0  0  0  0  0  0  0  0  0
   17.7311   20.4575   16.5090 O   0  0  0  0  0  0  0  0  0  0  0  0
   13.6806   19.2207   19.6755 C   0  0  0  0  0  0  0  0  0  0  0  0
   14.1318   18.8191   18.4173 C   0  0  0  0  0  0  0  0  0  0  0  0
   15.2250   19.4362   17.8156 C   0  0  0  0  0  0  0  0  0  0  0  0
   15.9039   20.4807   18.4566 C   0  0  0  0  0  0  0  0  0  0  0  0
   15.4477   20.8802   19.7153 C   0  0  0  0  0  0  0  0  0  0  0  0
   14.3526   20.2587   20.3126 C   0  0  0  0  0  0  0  0  0  0  0  0
   12.6088   18.5673   20.1940 O   0  0  0  0  0  0  0  0  0  0  0  0
   11.4910   18.3750   19.3434 C   0  0  0  0  0  0  0  0  0  0  0  0
   15.4637   22.8502   16.6804 C   0  0  0  0  0  0  0  0  0  0  0  0
   15.2609   23.2689   15.2169 C   0  0  0  0  0  0  0  0  0  0  0  0
   16.0447   22.3692   14.2475 C   0  0  0  0  0  0  0  0  0  0  0  0
   13.7689   23.2096   14.8436 C   0  0  0  0  0  0  0  0  0  0  0  0
   18.7723   25.5003   15.1811 C   0  0  0  0  0  0  0  0  0  0  0  0
   21.2493   25.8677   14.7117 C   0  0  0  0  0  0  0  0  0  0  0  0
   22.3458   26.6712   14.3730 C   0  0  0  0  0  0  0  0  0  0  0  0
   22.1401   28.0010   14.0284 C   0  0  0  0  0  0  0  0  0  0  0  0
   20.8484   28.5302   14.0814 C   0  0  0  0  0  0  0  0  0  0  0  0
   19.7600   27.7189   14.4339 C   0  0  0  0  0  0  0  0  0  0  0  0
   19.9614   26.3790   14.7514 C   0  0  0  0  0  0  0  0  0  0  0  0
 41 42  2  0  0  0
 41 40  1  0  0  0
 42 43  1  0  0  0
 40 39  2  0  0  0
 43 44  2  0  0  0
 16 15  1  0  0  0
 39 44  1  0  0  0
 27 28  2  0  0  0
 27 26  1  0  0  0
 32 33  1  0  0  0
 32 26  1  0  0  0
 44 38  1  0  0  0
 28 29  1  0  0  0
 24 23  2  0  0  0
 26 31  2  0  0  0
 29 30  2  0  0  0
 29 23  1  0  0  0
 31 30  1  0  0  0
 38  1  1  0  0  0
 15 13  1  0  0  0
 23 25  2  0  0  0
 23 22  1  0  0  0
 13 12  1  0  0  0
 13 14  1  0  0  0
  1  2  1  0  0  0
  1 18  1  0  0  0
 12 11  1  0  0  0
 21 22  1  0  0  0
 21 18  1  0  0  0
 22 34  1  0  0  0
  2  3  1  0  0  0
  4  3  2  0  0  0
  3  6  1  0  0  0
 18 19  1  0  0  0
 14  7  1  0  0  0
 14 10  1  0  0  0
 11 10  1  0  0  0
  6  7  1  0  0  0
 34 35  1  0  0  0
  7  8  1  0  0  0
 10  9  1  0  0  0
 36 35  1  0  0  0
 35 37  1  0  0  0
  9  8  1  0  0  0
 19 20  1  0  0  0
  2  5  1  0  0  0
 15 17  1  0  0  0
M  END
> <minimizedAffinity>
-9.72043

$$$$
5BRY_4UY_B_201


 44 47  0  0  0  0  0  0  0  0999 V2000
   17.6225   24.4869   18.2402 C   0  0  0  0  0  0  0  0  0  0  0  0
   18.4857   25.4510   17.5749 N   0  0  0  0  0  0  0  0  0  0  0  0
   19.5182   25.2446   16.7581 C   0  0  0  0  0  0  0  0  0  0  0  0
   19.8493   24.1036   16.4264 O   0  0  0  0  0  0  0  0  0  0  0  0
   18.2758   26.3958   17.7548 H   0  0  0  0  0  0  0  0  0  0  0  0
   20.1134   26.3976   16.3529 O   0  0  0  0  0  0  0  0  0  0  0  0
   20.4820   26.5186   14.9716 C   0  0  0  0  0  0  0  0  0  0  0  0
   19.7337   27.7552   14.4194 C   0  0  0  0  0  0  0  0  0  0  0  0
   20.4844   28.8548   14.9321 O   0  0  0  0  0  0  0  0  0  0  0  0
   21.8653   28.5050   15.0083 C   0  0  0  0  0  0  0  0  0  0  0  0
   22.3240   28.7965   16.3466 O   0  0  0  0  0  0  0  0  0  0  0  0
   22.6462   27.5826   17.0045 C   0  0  0  0  0  0  0  0  0  0  0  0
   22.8711   26.5046   15.9288 C   0  0  0  0  0  0  0  0  0  0  0  0
   21.9262   27.0051   14.8120 C   0  0  0  0  0  0  0  0  0  0  0  0
   24.2545   26.5946   15.4346 N   0  0  0  0  0  0  0  0  0  0  0  0
   25.2529   26.6696   16.5166 C   0  0  0  0  0  0  0  0  0  0  0  0
   24.4511   25.7692   14.8685 H   0  0  0  0  0  0  0  0  0  0  0  0
   16.1556   24.7412   17.9046 C   0  0  0  0  0  0  0  0  0  0  0  0
   15.6493   25.8409   18.6798 O   0  0  0  0  0  0  0  0  0  0  0  0
   15.6867   25.6162   19.6226 H   0  0  0  0  0  0  0  0  0  0  0  0
   15.2726   23.5027   18.1097 C   0  0  0  0  0  0  0  0  0  0  0  0
   15.7672   22.4039   17.2969 N   0  0  0  0  0  0  0  0  0  0  0  0
   15.9782   20.9859   18.1209 S   0  0  0  0  0  0  0  0  0  0  0  0
   16.5946   21.3179   19.4401 O   0  0  0  0  0  0  0  0  0  0  0  0
   16.8627   20.1485   17.2556 O   0  0  0  0  0  0  0  0  0  0  0  0
   11.9455   18.9117   18.7705 C   0  0  0  0  0  0  0  0  0  0  0  0
   12.3208   19.3803   17.5105 C   0  0  0  0  0  0  0  0  0  0  0  0
   13.5468   20.0098   17.3143 C   0  0  0  0  0  0  0  0  0  0  0  0
   14.4398   20.1923   18.3782 C   0  0  0  0  0  0  0  0  0  0  0  0
   14.0591   19.7230   19.6378 C   0  0  0  0  0  0  0  0  0  0  0  0
   12.8304   19.0936   19.8283 C   0  0  0  0  0  0  0  0  0  0  0  0
   10.7338   18.3078   18.8782 O   0  0  0  0  0  0  0  0  0  0  0  0
   10.3680   17.3974   17.8548 C   0  0  0  0  0  0  0  0  0  0  0  0
   15.1376   22.2694   15.9965 C   0  0  0  0  0  0  0  0  0  0  0  0
   16.1145   22.1478   14.8178 C   0  0  0  0  0  0  0  0  0  0  0  0
   15.3826   21.9128   13.4863 C   0  0  0  0  0  0  0  0  0  0  0  0
   16.9648   23.4245   14.6917 C   0  0  0  0  0  0  0  0  0  0  0  0
   17.9102   24.5959   19.7451 C   0  0  0  0  0  0  0  0  0  0  0  0
   20.3014   25.1625   20.4177 C   0  0  0  0  0  0  0  0  0  0  0  0
   21.6525   24.8399   20.5995 C   0  0  0  0  0  0  0  0  0  0  0  0
   22.0785   23.5338   20.3945 C   0  0  0  0  0  0  0  0  0  0  0  0
   21.1621   22.5758   19.9542 C   0  0  0  0  0  0  0  0  0  0  0  0
   19.8143   22.9136   19.7638 C   0  0  0  0  0  0  0  0  0  0  0  0
   19.3808   24.2154   19.9968 C   0  0  0  0  0  0  0  0  0  0  0  0
 41 42  2  0  0  0
 41 40  1  0  0  0
 42 43  1  0  0  0
 40 39  2  0  0  0
 43 44  2  0  0  0
 16 15  1  0  0  0
 39 44  1  0  0  0
 27 28  2  0  0  0
 27 26  1  0  0  0
 32 33  1  0  0  0
 32 26  1  0  0  0
 44 38  1  0  0  0
 28 29  1  0  0  0
 24 23  2  0  0  0
 26 31  2  0  0  0
 29 30  2  0  0  0
 29 23  1  0  0  0
 31 30  1  0  0  0
 38  1  1  0  0  0
 15 13  1  0  0  0
 23 25  2  0  0  0
 23 22  1  0  0  0
 13 12  1  0  0  0
 13 14  1  0  0  0
  1  2  1  0  0  0
  1 18  1  0  0  0
 12 11  1  0  0  0
 21 22  1  0  0  0
 21 18  1  0  0  0
 22 34  1  0  0  0
  2  3  1  0  0  0
  4  3  2  0  0  0
  3  6  1  0  0  0
 18 19  1  0  0  0
 14  7  1  0  0  0
 14 10  1  0  0  0
 11 10  1  0  0  0
  6  7  1  0  0  0
 34 35  1  0  0  0
  7  8  1  0  0  0
 10  9  1  0  0  0
 36 35  1  0  0  0
 35 37  1  0  0  0
  9  8  1  0  0  0
 19 20  1  0  0  0
  2  5  1  0  0  0
 15 17  1  0  0  0
M  END
> <minimizedAffinity>
-9.58797

$$$$
5BRY_4UY_B_201


 44 47  0  0  0  0  0  0  0  0999 V2000
   18.4304   23.6125   18.3470 C   0  0  0  0  0  0  0  0  0  0  0  0
   18.9641   24.7755   17.6542 N   0  0  0  0  0  0  0  0  0  0  0  0
   19.5104   24.8652   16.4420 C   0  0  0  0  0  0  0  0  0  0  0  0
   19.5892   23.8794   15.7049 O   0  0  0  0  0  0  0  0  0  0  0  0
   18.9141   25.6215   18.1552 H   0  0  0  0  0  0  0  0  0  0  0  0
   19.9319   26.1220   16.1414 O   0  0  0  0  0  0  0  0  0  0  0  0
   20.3707   26.3850   14.8010 C   0  0  0  0  0  0  0  0  0  0  0  0
   19.5903   27.6295   14.3147 C   0  0  0  0  0  0  0  0  0  0  0  0
   20.2517   28.7127   14.9664 O   0  0  0  0  0  0  0  0  0  0  0  0
   21.6427   28.4237   15.0954 C   0  0  0  0  0  0  0  0  0  0  0  0
   22.0093   28.6144   16.4795 O   0  0  0  0  0  0  0  0  0  0  0  0
   22.3577   27.3627   17.0469 C   0  0  0  0  0  0  0  0  0  0  0  0
   22.6996   26.3984   15.8966 C   0  0  0  0  0  0  0  0  0  0  0  0
   21.7939   26.9523   14.7726 C   0  0  0  0  0  0  0  0  0  0  0  0
   24.1019   26.5987   15.4971 N   0  0  0  0  0  0  0  0  0  0  0  0
   25.0256   26.6769   16.6433 C   0  0  0  0  0  0  0  0  0  0  0  0
   24.3851   25.8181   14.9049 H   0  0  0  0  0  0  0  0  0  0  0  0
   16.9952   23.3269   17.9136 C   0  0  0  0  0  0  0  0  0  0  0  0
   16.1295   23.2694   19.0598 O   0  0  0  0  0  0  0  0  0  0  0  0
   16.4008   22.5358   19.6335 H   0  0  0  0  0  0  0  0  0  0  0  0
   16.8651   22.0377   17.0911 C   0  0  0  0  0  0  0  0  0  0  0  0
   15.4891   21.8674   16.6548 N   0  0  0  0  0  0  0  0  0  0  0  0
   15.2025   22.3430   15.0974 S   0  0  0  0  0  0  0  0  0  0  0  0
   16.3982   21.9698   14.2842 O   0  0  0  0  0  0  0  0  0  0  0  0
   14.9778   23.8186   15.1649 O   0  0  0  0  0  0  0  0  0  0  0  0
   11.5126   20.2080   13.4200 C   0  0  0  0  0  0  0  0  0  0  0  0
   12.7968   19.7056   13.2044 C   0  0  0  0  0  0  0  0  0  0  0  0
   13.9172   20.3549   13.7151 C   0  0  0  0  0  0  0  0  0  0  0  0
   13.7874   21.5340   14.4605 C   0  0  0  0  0  0  0  0  0  0  0  0
   12.5001   22.0339   14.6725 C   0  0  0  0  0  0  0  0  0  0  0  0
   11.3821   21.3795   14.1586 C   0  0  0  0  0  0  0  0  0  0  0  0
   10.4721   19.5149   12.8893 O   0  0  0  0  0  0  0  0  0  0  0  0
   10.0125   19.9121   11.6083 C   0  0  0  0  0  0  0  0  0  0  0  0
   14.8756   20.6082   17.0340 C   0  0  0  0  0  0  0  0  0  0  0  0
   13.7919   20.7203   18.1163 C   0  0  0  0  0  0  0  0  0  0  0  0
   12.5329   19.9153   17.7550 C   0  0  0  0  0  0  0  0  0  0  0  0
   14.3278   20.2130   19.4670 C   0  0  0  0  0  0  0  0  0  0  0  0
   18.5457   23.8991   19.8517 C   0  0  0  0  0  0  0  0  0  0  0  0
   20.4341   25.3778   20.7111 C   0  0  0  0  0  0  0  0  0  0  0  0
   21.7835   25.6435   20.9776 C   0  0  0  0  0  0  0  0  0  0  0  0
   22.7327   24.6530   20.7598 C   0  0  0  0  0  0  0  0  0  0  0  0
   22.3323   23.4268   20.2236 C   0  0  0  0  0  0  0  0  0  0  0  0
   20.9798   23.1768   19.9494 C   0  0  0  0  0  0  0  0  0  0  0  0
   20.0242   24.1585   20.1944 C   0  0  0  0  0  0  0  0  0  0  0  0
 41 42  2  0  0  0
 41 40  1  0  0  0
 42 43  1  0  0  0
 40 39  2  0  0  0
 43 44  2  0  0  0
 16 15  1  0  0  0
 39 44  1  0  0  0
 27 28  2  0  0  0
 27 26  1  0  0  0
 32 33  1  0  0  0
 32 26  1  0  0  0
 44 38  1  0  0  0
 28 29  1  0  0  0
 24 23  2  0  0  0
 26 31  2  0  0  0
 29 30  2  0  0  0
 29 23  1  0  0  0
 31 30  1  0  0  0
 38  1  1  0  0  0
 15 13  1  0  0  0
 23 25  2  0  0  0
 23 22  1  0  0  0
 13 12  1  0  0  0
 13 14  1  0  0  0
  1  2  1  0  0  0
  1 18  1  0  0  0
 12 11  1  0  0  0
 21 22  1  0  0  0
 21 18  1  0  0  0
 22 34  1  0  0  0
  2  3  1  0  0  0
  4  3  2  0  0  0
  3  6  1  0  0  0
 18 19  1  0  0  0
 14  7  1  0  0  0
 14 10  1  0  0  0
 11 10  1  0  0  0
  6  7  1  0  0  0
 34 35  1  0  0  0
  7  8  1  0  0  0
 10  9  1  0  0  0
 36 35  1  0  0  0
 35 37  1  0  0  0
  9  8  1  0  0  0
 19 20  1  0  0  0
  2  5  1  0  0  0
 15 17  1  0  0  0
M  END
> <minimizedAffinity>
-9.35616

$$$$
5BRY_4UY_B_201


 44 47  0  0  0  0  0  0  0  0999 V2000
   15.0713   22.1176   16.0403 C   0  0  0  0  0  0  0  0  0  0  0  0
   14.2546   21.3977   17.0057 N   0  0  0  0  0  0  0  0  0  0  0  0
   14.5428   20.3084   17.7173 C   0  0  0  0  0  0  0  0  0  0  0  0
   15.6532   19.7764   17.6451 O   0  0  0  0  0  0  0  0  0  0  0  0
   13.3558   21.7706   17.1554 H   0  0  0  0  0  0  0  0  0  0  0  0
   13.5099   19.8961   18.4988 O   0  0  0  0  0  0  0  0  0  0  0  0
   13.6957   18.7202   19.2994 C   0  0  0  0  0  0  0  0  0  0  0  0
   13.1507   19.0523   20.7089 C   0  0  0  0  0  0  0  0  0  0  0  0
   11.7356   18.9715   20.5461 O   0  0  0  0  0  0  0  0  0  0  0  0
   11.4148   17.9626   19.5901 C   0  0  0  0  0  0  0  0  0  0  0  0
   10.5403   18.5495   18.6015 O   0  0  0  0  0  0  0  0  0  0  0  0
   11.2145   18.6044   17.3555 C   0  0  0  0  0  0  0  0  0  0  0  0
   12.3753   17.5942   17.3986 C   0  0  0  0  0  0  0  0  0  0  0  0
   12.7181   17.6077   18.9062 C   0  0  0  0  0  0  0  0  0  0  0  0
   11.8664   16.2566   17.0552 N   0  0  0  0  0  0  0  0  0  0  0  0
   10.8861   16.2743   15.9544 C   0  0  0  0  0  0  0  0  0  0  0  0
   12.6543   15.6710   16.7785 H   0  0  0  0  0  0  0  0  0  0  0  0
   15.9783   23.1290   16.7356 C   0  0  0  0  0  0  0  0  0  0  0  0
   15.8606   24.4181   16.1103 O   0  0  0  0  0  0  0  0  0  0  0  0
   16.1596   24.3593   15.1894 H   0  0  0  0  0  0  0  0  0  0  0  0
   17.4491   22.6911   16.7648 C   0  0  0  0  0  0  0  0  0  0  0  0
   18.2155   23.5917   17.6099 N   0  0  0  0  0  0  0  0  0  0  0  0
   18.5438   22.9991   19.1183 S   0  0  0  0  0  0  0  0  0  0  0  0
   18.7685   21.5286   18.9865 O   0  0  0  0  0  0  0  0  0  0  0  0
   17.3488   23.3366   19.9492 O   0  0  0  0  0  0  0  0  0  0  0  0
   22.2923   24.9925   20.8396 C   0  0  0  0  0  0  0  0  0  0  0  0
   21.0425   25.6071   20.9299 C   0  0  0  0  0  0  0  0  0  0  0  0
   19.9041   25.0001   20.4071 C   0  0  0  0  0  0  0  0  0  0  0  0
   19.9809   23.7532   19.7730 C   0  0  0  0  0  0  0  0  0  0  0  0
   21.2343   23.1425   19.6836 C   0  0  0  0  0  0  0  0  0  0  0  0
   22.3706   23.7551   20.2089 C   0  0  0  0  0  0  0  0  0  0  0  0
   23.3532   25.6495   21.3757 O   0  0  0  0  0  0  0  0  0  0  0  0
   24.6475   25.2152   20.9933 C   0  0  0  0  0  0  0  0  0  0  0  0
   19.3297   24.2506   16.9542 C   0  0  0  0  0  0  0  0  0  0  0  0
   19.1155   25.7438   16.6663 C   0  0  0  0  0  0  0  0  0  0  0  0
   20.3105   26.5951   17.1254 C   0  0  0  0  0  0  0  0  0  0  0  0
   18.8989   25.9742   15.1600 C   0  0  0  0  0  0  0  0  0  0  0  0
   14.1055   22.7785   15.0453 C   0  0  0  0  0  0  0  0  0  0  0  0
   13.8870   20.6403   13.6772 C   0  0  0  0  0  0  0  0  0  0  0  0
   13.1402   19.6642   13.0049 C   0  0  0  0  0  0  0  0  0  0  0  0
   11.7527   19.7097   13.0525 C   0  0  0  0  0  0  0  0  0  0  0  0
   11.1247   20.7623   13.7227 C   0  0  0  0  0  0  0  0  0  0  0  0
   11.8832   21.7406   14.3818 C   0  0  0  0  0  0  0  0  0  0  0  0
   13.2734   21.6797   14.3590 C   0  0  0  0  0  0  0  0  0  0  0  0
 41 42  2  0  0  0
 41 40  1  0  0  0
 42 43  1  0  0  0
 40 39  2  0  0  0
 43 44  2  0  0  0
 16 15  1  0  0  0
 39 44  1  0  0  0
 27 28  2  0  0  0
 27 26  1  0  0  0
 32 33  1  0  0  0
 32 26  1  0  0  0
 44 38  1  0  0  0
 28 29  1  0  0  0
 24 23  2  0  0  0
 26 31  2  0  0  0
 29 30  2  0  0  0
 29 23  1  0  0  0
 31 30  1  0  0  0
 38  1  1  0  0  0
 15 13  1  0  0  0
 23 25  2  0  0  0
 23 22  1  0  0  0
 13 12  1  0  0  0
 13 14  1  0  0  0
  1  2  1  0  0  0
  1 18  1  0  0  0
 12 11  1  0  0  0
 21 22  1  0  0  0
 21 18  1  0  0  0
 22 34  1  0  0  0
  2  3  1  0  0  0
  4  3  2  0  0  0
  3  6  1  0  0  0
 18 19  1  0  0  0
 14  7  1  0  0  0
 14 10  1  0  0  0
 11 10  1  0  0  0
  6  7  1  0  0  0
 34 35  1  0  0  0
  7  8  1  0  0  0
 10  9  1  0  0  0
 36 35  1  0  0  0
 35 37  1  0  0  0
  9  8  1  0  0  0
 19 20  1  0  0  0
  2  5  1  0  0  0
 15 17  1  0  0  0
M  END
> <minimizedAffinity>
-9.34229

$$$$
5BRY_4UY_B_201


 44 47  0  0  0  0  0  0  0  0999 V2000
   17.3742   23.6967   16.8463 C   0  0  0  0  0  0  0  0  0  0  0  0
   18.2540   24.8164   16.5474 N   0  0  0  0  0  0  0  0  0  0  0  0
   19.4293   24.8289   15.9194 C   0  0  0  0  0  0  0  0  0  0  0  0
   19.9127   23.7945   15.4530 O   0  0  0  0  0  0  0  0  0  0  0  0
   17.9335   25.6951   16.8547 H   0  0  0  0  0  0  0  0  0  0  0  0
   19.9836   26.0684   15.8549 O   0  0  0  0  0  0  0  0  0  0  0  0
   20.4855   26.5191   14.5886 C   0  0  0  0  0  0  0  0  0  0  0  0
   19.7214   27.8202   14.2461 C   0  0  0  0  0  0  0  0  0  0  0  0
   20.3430   28.7996   15.0767 O   0  0  0  0  0  0  0  0  0  0  0  0
   21.7279   28.4948   15.2317 C   0  0  0  0  0  0  0  0  0  0  0  0
   22.0254   28.4868   16.6452 O   0  0  0  0  0  0  0  0  0  0  0  0
   22.3541   27.1670   17.0456 C   0  0  0  0  0  0  0  0  0  0  0  0
   22.7580   26.3759   15.7884 C   0  0  0  0  0  0  0  0  0  0  0  0
   21.9045   27.0842   14.7112 C   0  0  0  0  0  0  0  0  0  0  0  0
   24.1767   26.6305   15.4909 N   0  0  0  0  0  0  0  0  0  0  0  0
   25.0277   26.6464   16.6946 C   0  0  0  0  0  0  0  0  0  0  0  0
   24.5134   25.8986   14.8653 H   0  0  0  0  0  0  0  0  0  0  0  0
   16.1366   23.7183   15.9534 C   0  0  0  0  0  0  0  0  0  0  0  0
   15.9895   25.0077   15.3350 O   0  0  0  0  0  0  0  0  0  0  0  0
   15.8534   25.6811   16.0198 H   0  0  0  0  0  0  0  0  0  0  0  0
   14.8514   23.3458   16.7051 C   0  0  0  0  0  0  0  0  0  0  0  0
   14.3067   22.1096   16.1687 N   0  0  0  0  0  0  0  0  0  0  0  0
   13.8259   22.2036   14.5894 S   0  0  0  0  0  0  0  0  0  0  0  0
   14.9825   21.7899   13.7401 O   0  0  0  0  0  0  0  0  0  0  0  0
   13.4238   23.6270   14.3780 O   0  0  0  0  0  0  0  0  0  0  0  0
   10.3009   19.3821   13.8137 C   0  0  0  0  0  0  0  0  0  0  0  0
   11.6142   18.9814   13.5632 C   0  0  0  0  0  0  0  0  0  0  0  0
   12.6845   19.8394   13.7999 C   0  0  0  0  0  0  0  0  0  0  0  0
   12.4734   21.1325   14.2962 C   0  0  0  0  0  0  0  0  0  0  0  0
   11.1570   21.5296   14.5440 C   0  0  0  0  0  0  0  0  0  0  0  0
   10.0895   20.6662   14.3049 C   0  0  0  0  0  0  0  0  0  0  0  0
    9.3134   18.4856   13.5577 O   0  0  0  0  0  0  0  0  0  0  0  0
    9.6166   17.4194   12.6736 C   0  0  0  0  0  0  0  0  0  0  0  0
   15.0480   20.9108   16.5134 C   0  0  0  0  0  0  0  0  0  0  0  0
   14.4990   20.1399   17.7229 C   0  0  0  0  0  0  0  0  0  0  0  0
   15.0562   20.6798   19.0501 C   0  0  0  0  0  0  0  0  0  0  0  0
   12.9629   20.2285   17.7634 C   0  0  0  0  0  0  0  0  0  0  0  0
   17.0254   23.7907   18.3393 C   0  0  0  0  0  0  0  0  0  0  0  0
   18.5279   21.9186   19.1930 C   0  0  0  0  0  0  0  0  0  0  0  0
   19.5791   21.4267   19.9776 C   0  0  0  0  0  0  0  0  0  0  0  0
   20.3597   22.3120   20.7101 C   0  0  0  0  0  0  0  0  0  0  0  0
   20.0465   23.6733   20.6970 C   0  0  0  0  0  0  0  0  0  0  0  0
   18.9839   24.1525   19.9172 C   0  0  0  0  0  0  0  0  0  0  0  0
   18.2192   23.2697   19.1603 C   0  0  0  0  0  0  0  0  0  0  0  0
 41 42  2  0  0  0
 41 40  1  0  0  0
 42 43  1  0  0  0
 40 39  2  0  0  0
 43 44  2  0  0  0
 16 15  1  0  0  0
 39 44  1  0  0  0
 27 28  2  0  0  0
 27 26  1  0  0  0
 32 33  1  0  0  0
 32 26  1  0  0  0
 44 38  1  0  0  0
 28 29  1  0  0  0
 24 23  2  0  0  0
 26 31  2  0  0  0
 29 30  2  0  0  0
 29 23  1  0  0  0
 31 30  1  0  0  0
 38  1  1  0  0  0
 15 13  1  0  0  0
 23 25  2  0  0  0
 23 22  1  0  0  0
 13 12  1  0  0  0
 13 14  1  0  0  0
  1  2  1  0  0  0
  1 18  1  0  0  0
 12 11  1  0  0  0
 21 22  1  0  0  0
 21 18  1  0  0  0
 22 34  1  0  0  0
  2  3  1  0  0  0
  4  3  2  0  0  0
  3  6  1  0  0  0
 18 19  1  0  0  0
 14  7  1  0  0  0
 14 10  1  0  0  0
 11 10  1  0  0  0
  6  7  1  0  0  0
 34 35  1  0  0  0
  7  8  1  0  0  0
 10  9  1  0  0  0
 36 35  1  0  0  0
 35 37  1  0  0  0
  9  8  1  0  0  0
 19 20  1  0  0  0
  2  5  1  0  0  0
 15 17  1  0  0  0
M  END
> <minimizedAffinity>
-9.19940

$$$$
5BRY_4UY_B_201


 44 47  0  0  0  0  0  0  0  0999 V2000
   19.8495   25.5214   17.2662 C   0  0  0  0  0  0  0  0  0  0  0  0
   21.1034   25.8277   17.9379 N   0  0  0  0  0  0  0  0  0  0  0  0
   21.5490   26.9889   18.4163 C   0  0  0  0  0  0  0  0  0  0  0  0
   20.8555   28.0075   18.3627 O   0  0  0  0  0  0  0  0  0  0  0  0
   21.7130   25.0637   18.0565 H   0  0  0  0  0  0  0  0  0  0  0  0
   22.7947   26.8990   18.9529 O   0  0  0  0  0  0  0  0  0  0  0  0
   23.8398   26.3394   18.1448 C   0  0  0  0  0  0  0  0  0  0  0  0
   24.7716   27.5103   17.7513 C   0  0  0  0  0  0  0  0  0  0  0  0
   25.5291   27.7458   18.9371 O   0  0  0  0  0  0  0  0  0  0  0  0
   25.7476   26.5152   19.6247 C   0  0  0  0  0  0  0  0  0  0  0  0
   25.3295   26.6923   20.9959 O   0  0  0  0  0  0  0  0  0  0  0  0
   24.1927   25.8827   21.2457 C   0  0  0  0  0  0  0  0  0  0  0  0
   24.1481   24.7819   20.1705 C   0  0  0  0  0  0  0  0  0  0  0  0
   24.8182   25.5081   18.9813 C   0  0  0  0  0  0  0  0  0  0  0  0
   25.0204   23.6694   20.5798 N   0  0  0  0  0  0  0  0  0  0  0  0
   25.5974   22.9353   19.4391 C   0  0  0  0  0  0  0  0  0  0  0  0
   25.7832   24.0455   21.1428 H   0  0  0  0  0  0  0  0  0  0  0  0
   19.0675   24.4532   18.0254 C   0  0  0  0  0  0  0  0  0  0  0  0
   19.7796   24.0610   19.2110 O   0  0  0  0  0  0  0  0  0  0  0  0
   20.6285   23.6634   18.9617 H   0  0  0  0  0  0  0  0  0  0  0  0
   18.7544   23.2195   17.1677 C   0  0  0  0  0  0  0  0  0  0  0  0
   17.3930   22.7765   17.4187 N   0  0  0  0  0  0  0  0  0  0  0  0
   17.1786   22.0178   18.8721 S   0  0  0  0  0  0  0  0  0  0  0  0
   16.9410   23.0733   19.9015 O   0  0  0  0  0  0  0  0  0  0  0  0
   18.4339   21.2425   19.1074 O   0  0  0  0  0  0  0  0  0  0  0  0
   13.5559   19.2176   18.7206 C   0  0  0  0  0  0  0  0  0  0  0  0
   13.8294   19.9824   19.8556 C   0  0  0  0  0  0  0  0  0  0  0  0
   14.9301   20.8334   19.9002 C   0  0  0  0  0  0  0  0  0  0  0  0
   15.7970   20.9456   18.8054 C   0  0  0  0  0  0  0  0  0  0  0  0
   15.5202   20.1770   17.6721 C   0  0  0  0  0  0  0  0  0  0  0  0
   14.4167   19.3266   17.6333 C   0  0  0  0  0  0  0  0  0  0  0  0
   12.4622   18.4132   18.7565 O   0  0  0  0  0  0  0  0  0  0  0  0
   12.5581   17.2193   19.5151 C   0  0  0  0  0  0  0  0  0  0  0  0
   16.3607   23.7345   17.0691 C   0  0  0  0  0  0  0  0  0  0  0  0
   15.8064   23.5922   15.6440 C   0  0  0  0  0  0  0  0  0  0  0  0
   16.4551   22.4205   14.8890 C   0  0  0  0  0  0  0  0  0  0  0  0
   14.2838   23.3697   15.6802 C   0  0  0  0  0  0  0  0  0  0  0  0
   20.2050   25.0868   15.8364 C   0  0  0  0  0  0  0  0  0  0  0  0
   22.1632   26.4467   14.9380 C   0  0  0  0  0  0  0  0  0  0  0  0
   22.7115   27.5675   14.3010 C   0  0  0  0  0  0  0  0  0  0  0  0
   21.8677   28.5320   13.7651 C   0  0  0  0  0  0  0  0  0  0  0  0
   20.4862   28.3963   13.9213 C   0  0  0  0  0  0  0  0  0  0  0  0
   19.9494   27.2758   14.5717 C   0  0  0  0  0  0  0  0  0  0  0  0
   20.7931   26.2944   15.0837 C   0  0  0  0  0  0  0  0  0  0  0  0
 41 42  2  0  0  0
 41 40  1  0  0  0
 42 43  1  0  0  0
 40 39  2  0  0  0
 43 44  2  0  0  0
 16 15  1  0  0  0
 39 44  1  0  0  0
 27 28  2  0  0  0
 27 26  1  0  0  0
 32 33  1  0  0  0
 32 26  1  0  0  0
 44 38  1  0  0  0
 28 29  1  0  0  0
 24 23  2  0  0  0
 26 31  2  0  0  0
 29 30  2  0  0  0
 29 23  1  0  0  0
 31 30  1  0  0  0
 38  1  1  0  0  0
 15 13  1  0  0  0
 23 25  2  0  0  0
 23 22  1  0  0  0
 13 12  1  0  0  0
 13 14  1  0  0  0
  1  2  1  0  0  0
  1 18  1  0  0  0
 12 11  1  0  0  0
 21 22  1  0  0  0
 21 18  1  0  0  0
 22 34  1  0  0  0
  2  3  1  0  0  0
  4  3  2  0  0  0
  3  6  1  0  0  0
 18 19  1  0  0  0
 14  7  1  0  0  0
 14 10  1  0  0  0
 11 10  1  0  0  0
  6  7  1  0  0  0
 34 35  1  0  0  0
  7  8  1  0  0  0
 10  9  1  0  0  0
 36 35  1  0  0  0
 35 37  1  0  0  0
  9  8  1  0  0  0
 19 20  1  0  0  0
  2  5  1  0  0  0
 15 17  1  0  0  0
M  END
> <minimizedAffinity>
-8.84455

$$$$
5BRY_4UY_B_201


 44 47  0  0  0  0  0  0  0  0999 V2000
   13.7044   21.3136   17.2033 C   0  0  0  0  0  0  0  0  0  0  0  0
   12.9230   21.0898   15.9964 N   0  0  0  0  0  0  0  0  0  0  0  0
   11.7244   20.5251   15.8533 C   0  0  0  0  0  0  0  0  0  0  0  0
   11.0843   20.1336   16.8322 O   0  0  0  0  0  0  0  0  0  0  0  0
   13.3418   21.4017   15.1619 H   0  0  0  0  0  0  0  0  0  0  0  0
   11.3213   20.4565   14.5570 O   0  0  0  0  0  0  0  0  0  0  0  0
   10.0191   19.9207   14.2817 C   0  0  0  0  0  0  0  0  0  0  0  0
    9.2880   20.9619   13.4011 C   0  0  0  0  0  0  0  0  0  0  0  0
    9.8677   20.7726   12.1113 O   0  0  0  0  0  0  0  0  0  0  0  0
   10.1956   19.3969   11.9247 C   0  0  0  0  0  0  0  0  0  0  0  0
   11.5769   19.3221   11.5090 O   0  0  0  0  0  0  0  0  0  0  0  0
   12.3381   18.6968   12.5288 C   0  0  0  0  0  0  0  0  0  0  0  0
   11.3702   17.9042   13.4257 C   0  0  0  0  0  0  0  0  0  0  0  0
   10.0854   18.7537   13.2908 C   0  0  0  0  0  0  0  0  0  0  0  0
   11.1159   16.5875   12.8192 N   0  0  0  0  0  0  0  0  0  0  0  0
   12.3446   15.9114   12.3651 C   0  0  0  0  0  0  0  0  0  0  0  0
   10.6563   15.9951   13.5108 H   0  0  0  0  0  0  0  0  0  0  0  0
   14.5484   22.5794   17.0830 C   0  0  0  0  0  0  0  0  0  0  0  0
   13.9093   23.5247   16.2086 O   0  0  0  0  0  0  0  0  0  0  0  0
   13.8415   23.1467   15.3179 H   0  0  0  0  0  0  0  0  0  0  0  0
   15.9784   22.3001   16.6004 C   0  0  0  0  0  0  0  0  0  0  0  0
   16.9242   23.0784   17.3829 N   0  0  0  0  0  0  0  0  0  0  0  0
   17.4028   22.3564   18.7913 S   0  0  0  0  0  0  0  0  0  0  0  0
   17.7299   20.9329   18.4803 O   0  0  0  0  0  0  0  0  0  0  0  0
   16.2470   22.5005   19.7272 O   0  0  0  0  0  0  0  0  0  0  0  0
   21.0992   24.4614   20.4922 C   0  0  0  0  0  0  0  0  0  0  0  0
   19.8180   24.9758   20.6973 C   0  0  0  0  0  0  0  0  0  0  0  0
   18.6955   24.3349   20.1805 C   0  0  0  0  0  0  0  0  0  0  0  0
   18.8203   23.1538   19.4374 C   0  0  0  0  0  0  0  0  0  0  0  0
   20.1048   22.6435   19.2335 C   0  0  0  0  0  0  0  0  0  0  0  0
   21.2249   23.2897   19.7532 C   0  0  0  0  0  0  0  0  0  0  0  0
   22.1418   25.1455   21.0304 O   0  0  0  0  0  0  0  0  0  0  0  0
   21.8668   26.4239   21.5783 C   0  0  0  0  0  0  0  0  0  0  0  0
   17.9906   23.6984   16.6187 C   0  0  0  0  0  0  0  0  0  0  0  0
   17.9127   25.2296   16.5299 C   0  0  0  0  0  0  0  0  0  0  0  0
   19.2430   25.8964   16.9164 C   0  0  0  0  0  0  0  0  0  0  0  0
   17.5421   25.6661   15.1012 C   0  0  0  0  0  0  0  0  0  0  0  0
   14.5576   20.0549   17.4210 C   0  0  0  0  0  0  0  0  0  0  0  0
   13.3479   18.0007   18.3198 C   0  0  0  0  0  0  0  0  0  0  0  0
   12.7366   17.2654   19.3436 C   0  0  0  0  0  0  0  0  0  0  0  0
   12.7560   17.7543   20.6437 C   0  0  0  0  0  0  0  0  0  0  0  0
   13.3351   18.9998   20.8984 C   0  0  0  0  0  0  0  0  0  0  0  0
   13.9334   19.7324   19.8629 C   0  0  0  0  0  0  0  0  0  0  0  0
   13.9398   19.2300   18.5650 C   0  0  0  0  0  0  0  0  0  0  0  0
 41 42  2  0  0  0
 41 40  1  0  0  0
 42 43  1  0  0  0
 40 39  2  0  0  0
 43 44  2  0  0  0
 16 15  1  0  0  0
 39 44  1  0  0  0
 27 28  2  0  0  0
 27 26  1  0  0  0
 32 33  1  0  0  0
 32 26  1  0  0  0
 44 38  1  0  0  0
 28 29  1  0  0  0
 24 23  2  0  0  0
 26 31  2  0  0  0
 29 30  2  0  0  0
 29 23  1  0  0  0
 31 30  1  0  0  0
 38  1  1  0  0  0
 15 13  1  0  0  0
 23 25  2  0  0  0
 23 22  1  0  0  0
 13 12  1  0  0  0
 13 14  1  0  0  0
  1  2  1  0  0  0
  1 18  1  0  0  0
 12 11  1  0  0  0
 21 22  1  0  0  0
 21 18  1  0  0  0
 22 34  1  0  0  0
  2  3  1  0  0  0
  4  3  2  0  0  0
  3  6  1  0  0  0
 18 19  1  0  0  0
 14  7  1  0  0  0
 14 10  1  0  0  0
 11 10  1  0  0  0
  6  7  1  0  0  0
 34 35  1  0  0  0
  7  8  1  0  0  0
 10  9  1  0  0  0
 36 35  1  0  0  0
 35 37  1  0  0  0
  9  8  1  0  0  0
 19 20  1  0  0  0
  2  5  1  0  0  0
 15 17  1  0  0  0
M  END
> <minimizedAffinity>
-8.83442

$$$$
5BRY_4UY_B_201


 44 47  0  0  0  0  0  0  0  0999 V2000
   14.5956   21.2243   17.2252 C   0  0  0  0  0  0  0  0  0  0  0  0
   13.4330   21.2027   16.3505 N   0  0  0  0  0  0  0  0  0  0  0  0
   13.3694   21.0772   15.0254 C   0  0  0  0  0  0  0  0  0  0  0  0
   14.3896   20.9137   14.3519 O   0  0  0  0  0  0  0  0  0  0  0  0
   12.5646   21.2945   16.8051 H   0  0  0  0  0  0  0  0  0  0  0  0
   12.0984   21.1365   14.5469 O   0  0  0  0  0  0  0  0  0  0  0  0
   11.7018   20.1723   13.5613 C   0  0  0  0  0  0  0  0  0  0  0  0
   11.8350   18.7802   14.2235 C   0  0  0  0  0  0  0  0  0  0  0  0
   10.6863   18.7011   15.0659 O   0  0  0  0  0  0  0  0  0  0  0  0
    9.5944   19.3925   14.4623 C   0  0  0  0  0  0  0  0  0  0  0  0
    9.0663   20.3225   15.4333 O   0  0  0  0  0  0  0  0  0  0  0  0
    9.3080   21.6474   14.9904 C   0  0  0  0  0  0  0  0  0  0  0  0
    9.5634   21.6019   13.4730 C   0  0  0  0  0  0  0  0  0  0  0  0
   10.1881   20.1954   13.3243 C   0  0  0  0  0  0  0  0  0  0  0  0
    8.2735   21.6088   12.7642 N   0  0  0  0  0  0  0  0  0  0  0  0
    7.7809   22.9667   12.4703 C   0  0  0  0  0  0  0  0  0  0  0  0
    8.3846   21.1063   11.8836 H   0  0  0  0  0  0  0  0  0  0  0  0
   15.7006   22.1040   16.6468 C   0  0  0  0  0  0  0  0  0  0  0  0
   16.6302   21.3074   15.8933 O   0  0  0  0  0  0  0  0  0  0  0  0
   17.0599   20.6679   16.4826 H   0  0  0  0  0  0  0  0  0  0  0  0
   16.4467   22.9086   17.7200 C   0  0  0  0  0  0  0  0  0  0  0  0
   17.6789   23.4452   17.1667 N   0  0  0  0  0  0  0  0  0  0  0  0
   17.5517   24.9878   16.5851 S   0  0  0  0  0  0  0  0  0  0  0  0
   16.8899   25.8142   17.6385 O   0  0  0  0  0  0  0  0  0  0  0  0
   16.7431   24.8778   15.3335 O   0  0  0  0  0  0  0  0  0  0  0  0
   21.7002   26.6939   15.6541 C   0  0  0  0  0  0  0  0  0  0  0  0
   21.0439   25.8588   14.7486 C   0  0  0  0  0  0  0  0  0  0  0  0
   19.7830   25.3416   15.0324 C   0  0  0  0  0  0  0  0  0  0  0  0
   19.1364   25.6441   16.2378 C   0  0  0  0  0  0  0  0  0  0  0  0
   19.7978   26.4792   17.1417 C   0  0  0  0  0  0  0  0  0  0  0  0
   21.0601   26.9939   16.8521 C   0  0  0  0  0  0  0  0  0  0  0  0
   22.9270   27.1578   15.3018 O   0  0  0  0  0  0  0  0  0  0  0  0
   23.9659   27.0408   16.2595 C   0  0  0  0  0  0  0  0  0  0  0  0
   18.8707   23.1825   17.9518 C   0  0  0  0  0  0  0  0  0  0  0  0
   18.6116   22.8887   19.4367 C   0  0  0  0  0  0  0  0  0  0  0  0
   19.5524   21.8011   19.9804 C   0  0  0  0  0  0  0  0  0  0  0  0
   18.7993   24.1646   20.2768 C   0  0  0  0  0  0  0  0  0  0  0  0
   15.0401   19.7658   17.4110 C   0  0  0  0  0  0  0  0  0  0  0  0
   13.5269   17.9383   18.3392 C   0  0  0  0  0  0  0  0  0  0  0  0
   12.7197   17.3796   19.3387 C   0  0  0  0  0  0  0  0  0  0  0  0
   12.6218   18.0103   20.5724 C   0  0  0  0  0  0  0  0  0  0  0  0
   13.2851   19.2227   20.7762 C   0  0  0  0  0  0  0  0  0  0  0  0
   14.0806   19.7786   19.7637 C   0  0  0  0  0  0  0  0  0  0  0  0
   14.2024   19.1326   18.5370 C   0  0  0  0  0  0  0  0  0  0  0  0
 41 42  2  0  0  0
 41 40  1  0  0  0
 42 43  1  0  0  0
 40 39  2  0  0  0
 43 44  2  0  0  0
 16 15  1  0  0  0
 39 44  1  0  0  0
 27 28  2  0  0  0
 27 26  1  0  0  0
 32 33  1  0  0  0
 32 26  1  0  0  0
 44 38  1  0  0  0
 28 29  1  0  0  0
 24 23  2  0  0  0
 26 31  2  0  0  0
 29 30  2  0  0  0
 29 23  1  0  0  0
 31 30  1  0  0  0
 38  1  1  0  0  0
 15 13  1  0  0  0
 23 25  2  0  0  0
 23 22  1  0  0  0
 13 12  1  0  0  0
 13 14  1  0  0  0
  1  2  1  0  0  0
  1 18  1  0  0  0
 12 11  1  0  0  0
 21 22  1  0  0  0
 21 18  1  0  0  0
 22 34  1  0  0  0
  2  3  1  0  0  0
  4  3  2  0  0  0
  3  6  1  0  0  0
 18 19  1  0  0  0
 14  7  1  0  0  0
 14 10  1  0  0  0
 11 10  1  0  0  0
  6  7  1  0  0  0
 34 35  1  0  0  0
  7  8  1  0  0  0
 10  9  1  0  0  0
 36 35  1  0  0  0
 35 37  1  0  0  0
  9  8  1  0  0  0
 19 20  1  0  0  0
  2  5  1  0  0  0
 15 17  1  0  0  0
M  END
> <minimizedAffinity>
-8.79475

$$$$
5BRY_4UY_B_201


 44 47  0  0  0  0  0  0  0  0999 V2000
   19.3852   24.5000   16.6948 C   0  0  0  0  0  0  0  0  0  0  0  0
   20.4340   24.6455   17.6929 N   0  0  0  0  0  0  0  0  0  0  0  0
   20.3362   24.7607   19.0169 C   0  0  0  0  0  0  0  0  0  0  0  0
   19.2403   24.7126   19.5808 O   0  0  0  0  0  0  0  0  0  0  0  0
   21.3519   24.6613   17.3373 H   0  0  0  0  0  0  0  0  0  0  0  0
   21.5412   24.9155   19.6267 O   0  0  0  0  0  0  0  0  0  0  0  0
   22.1138   26.2304   19.6678 C   0  0  0  0  0  0  0  0  0  0  0  0
   21.7425   26.8332   21.0436 C   0  0  0  0  0  0  0  0  0  0  0  0
   22.6411   26.1868   21.9436 O   0  0  0  0  0  0  0  0  0  0  0  0
   23.8857   25.9402   21.2916 C   0  0  0  0  0  0  0  0  0  0  0  0
   24.2093   24.5433   21.4664 O   0  0  0  0  0  0  0  0  0  0  0  0
   24.1599   23.8916   20.2082 C   0  0  0  0  0  0  0  0  0  0  0  0
   24.2851   24.9652   19.1120 C   0  0  0  0  0  0  0  0  0  0  0  0
   23.6379   26.1794   19.8174 C   0  0  0  0  0  0  0  0  0  0  0  0
   25.7083   25.2676   18.8905 N   0  0  0  0  0  0  0  0  0  0  0  0
   25.9243   26.4903   18.0958 C   0  0  0  0  0  0  0  0  0  0  0  0
   26.1597   25.3864   19.7975 H   0  0  0  0  0  0  0  0  0  0  0  0
   18.5074   23.2880   16.9946 C   0  0  0  0  0  0  0  0  0  0  0  0
   18.9399   22.1549   16.2227 O   0  0  0  0  0  0  0  0  0  0  0  0
   18.8372   22.3492   15.2779 H   0  0  0  0  0  0  0  0  0  0  0  0
   17.0163   23.5546   16.7473 C   0  0  0  0  0  0  0  0  0  0  0  0
   16.2389   22.3800   17.1056 N   0  0  0  0  0  0  0  0  0  0  0  0
   15.3189   22.5593   18.4678 S   0  0  0  0  0  0  0  0  0  0  0  0
   14.4722   23.7757   18.2837 O   0  0  0  0  0  0  0  0  0  0  0  0
   16.2925   22.6887   19.5937 O   0  0  0  0  0  0  0  0  0  0  0  0
   12.6153   18.9084   19.0583 C   0  0  0  0  0  0  0  0  0  0  0  0
   12.4201   19.7851   17.9900 C   0  0  0  0  0  0  0  0  0  0  0  0
   13.2428   20.8938   17.8113 C   0  0  0  0  0  0  0  0  0  0  0  0
   14.2911   21.1622   18.7010 C   0  0  0  0  0  0  0  0  0  0  0  0
   14.4816   20.2827   19.7696 C   0  0  0  0  0  0  0  0  0  0  0  0
   13.6548   19.1744   19.9436 C   0  0  0  0  0  0  0  0  0  0  0  0
   11.7706   17.8499   19.1616 O   0  0  0  0  0  0  0  0  0  0  0  0
   10.9851   17.5318   18.0249 C   0  0  0  0  0  0  0  0  0  0  0  0
   15.5713   21.7232   15.9972 C   0  0  0  0  0  0  0  0  0  0  0  0
   15.2611   22.6351   14.8010 C   0  0  0  0  0  0  0  0  0  0  0  0
   15.4752   21.9160   13.4591 C   0  0  0  0  0  0  0  0  0  0  0  0
   13.8047   23.1288   14.8662 C   0  0  0  0  0  0  0  0  0  0  0  0
   20.0811   24.4002   15.3291 C   0  0  0  0  0  0  0  0  0  0  0  0
   21.8350   26.1182   14.6483 C   0  0  0  0  0  0  0  0  0  0  0  0
   22.2372   27.4125   14.2943 C   0  0  0  0  0  0  0  0  0  0  0  0
   21.2811   28.4075   14.1349 C   0  0  0  0  0  0  0  0  0  0  0  0
   19.9388   28.1139   14.3869 C   0  0  0  0  0  0  0  0  0  0  0  0
   19.5496   26.8171   14.7526 C   0  0  0  0  0  0  0  0  0  0  0  0
   20.5037   25.8125   14.8845 C   0  0  0  0  0  0  0  0  0  0  0  0
 41 42  2  0  0  0
 41 40  1  0  0  0
 42 43  1  0  0  0
 40 39  2  0  0  0
 43 44  2  0  0  0
 16 15  1  0  0  0
 39 44  1  0  0  0
 27 28  2  0  0  0
 27 26  1  0  0  0
 32 33  1  0  0  0
 32 26  1  0  0  0
 44 38  1  0  0  0
 28 29  1  0  0  0
 24 23  2  0  0  0
 26 31  2  0  0  0
 29 30  2  0  0  0
 29 23  1  0  0  0
 31 30  1  0  0  0
 38  1  1  0  0  0
 15 13  1  0  0  0
 23 25  2  0  0  0
 23 22  1  0  0  0
 13 12  1  0  0  0
 13 14  1  0  0  0
  1  2  1  0  0  0
  1 18  1  0  0  0
 12 11  1  0  0  0
 21 22  1  0  0  0
 21 18  1  0  0  0
 22 34  1  0  0  0
  2  3  1  0  0  0
  4  3  2  0  0  0
  3  6  1  0  0  0
 18 19  1  0  0  0
 14  7  1  0  0  0
 14 10  1  0  0  0
 11 10  1  0  0  0
  6  7  1  0  0  0
 34 35  1  0  0  0
  7  8  1  0  0  0
 10  9  1  0  0  0
 36 35  1  0  0  0
 35 37  1  0  0  0
  9  8  1  0  0  0
 19 20  1  0  0  0
  2  5  1  0  0  0
 15 17  1  0  0  0
M  END
> <minimizedAffinity>
-8.71159

$$$$
