4R5B_3J4_A_303
  RCSB PDB12061714343D
Coordinates from PDB:4R5B:A:303 Model:1 without hydrogens
 24 25  0  0  0  0            999 V2000
    0.5970    4.9310   79.4600   C 0  0  0  0  0  0  0  0  0  0  0  0
    1.1910    4.1560   80.6380   C 0  0  0  0  0  0  0  0  0  0  0  0
    1.7750    2.8240   80.3690   C 0  0  0  0  0  0  0  0  0  0  0  0
   -1.7750    1.8660   86.2140   O 0  0  0  0  0  0  0  0  0  0  0  0
   -2.6310    0.8540   86.9230   S 0  0  0  0  0  0  0  0  0  0  0  0
   -4.0360    1.0350   86.7800   O 0  0  0  0  0  0  0  0  0  0  0  0
   -2.2720    0.9640   88.2530   O 0  0  0  0  0  0  0  0  0  0  0  0
   -2.0970   -0.5310   86.3830   N 0  0  0  0  0  0  0  0  0  0  0  0
   -2.7410    6.3600   80.6300   O 0  0  0  0  0  0  0  0  0  0  0  0
   -1.6260    5.3680   80.6410   C 0  0  0  0  0  0  0  0  0  0  0  0
   -0.7640    5.4400   79.4360   C 0  0  0  0  0  0  0  0  0  0  0  0
   -0.8380    6.7680   78.8820   O 0  0  0  0  0  0  0  0  0  0  0  0
    0.7680    4.1520   78.2460   O 0  0  0  0  0  0  0  0  0  0  0  0
    1.8530    1.9300   81.4580   O 0  0  0  0  0  0  0  0  0  0  0  0
    0.4460    4.2650   81.8810   O 0  0  0  0  0  0  0  0  0  0  0  0
   -0.9320    4.7350   81.9060   C 0  0  0  0  0  0  0  0  0  0  0  0
   -1.0530    5.3930   83.5870   S 0  0  0  0  0  0  0  0  0  0  0  0
   -2.2900    6.0820   83.6210   O 0  0  0  0  0  0  0  0  0  0  0  0
    0.1110    6.0650   84.0010   O 0  0  0  0  0  0  0  0  0  0  0  0
   -1.1460    4.3000   84.4440   N 0  0  0  0  0  0  0  0  0  0  0  0
   -2.1370    3.5420   84.4390   C 0  0  0  0  0  0  0  0  0  0  0  0
    0.0180    3.4220   84.5460   C 0  0  0  0  0  0  0  0  0  0  0  0
   -0.5120    2.0080   84.3520   C 0  0  0  0  0  0  0  0  0  0  0  0
   -1.6660    2.0360   84.7490   C 0  0  0  0  0  0  0  0  0  0  0  0
 12 11  1  0  0  0  0
  9 10  1  0  0  0  0
 11  1  1  0  0  0  0
 11 10  1  0  0  0  0
  1 13  1  0  0  0  0
  1  2  1  0  0  0  0
 10 16  1  0  0  0  0
 19 17  2  0  0  0  0
 18 17  2  0  0  0  0
  2 15  1  0  0  0  0
  2  3  1  0  0  0  0
 16 17  1  0  0  0  0
 16 15  1  0  0  0  0
 17 20  1  0  0  0  0
  3 14  1  0  0  0  0
 20 22  1  0  0  0  0
 20 21  1  0  0  0  0
 22 23  1  0  0  0  0
 21 24  1  0  0  0  0
 23 24  1  0  0  0  0
 24  4  1  0  0  0  0
  4  5  1  0  0  0  0
  8  5  1  0  0  0  0
  5  6  2  0  0  0  0
  5  7  2  0  0  0  0
A    1
C4
A    2
C5
A    3
C6
A    4
OAO
A    5
SAW
A    6
OAB
A    7
OAC
A    8
NAA
A    9
O2
A   10
C2
A   11
C3
A   12
O3
A   13
O4
A   14
O6
A   15
O5
A   16
C1
A   17
SAX
A   18
OAD
A   19
OAE
A   20
NAV
A   21
CAM
A   22
CAL
A   23
CAK
A   24
CAP
M  END
>  <InstanceId>
4R5B_3J4_A_303

>  <ChemCompId>
3J4

>  <PdbId>
4R5B

>  <ChainId>
A

>  <ResidueNumber>
303

>  <InsertionCode>


>  <Model>
1

>  <AltIds>


>  <MissingHeavyAtoms>
0

>  <ObservedFormula>
C10 N2 O10 S2

>  <Name>
(6S)-2,6-anhydro-6-{[(3R)-3-(sulfamoyloxy)pyrrolidin-1-yl]sulfonyl}-D-glucitol

>  <SystematicName>
[(3R)-1-[(2S,3S,4S,5S)-6-(hydroxymethyl)-3,4,5-tris(oxidanyl)oxan-2-yl]sulfonylpyrrolidin-3-yl] sulfamate

>  <Synonyms>


>  <Type>
NON-POLYMER

>  <Formula>
C10 H20 N2 O10 S2

>  <MolecularWeight>
392.403

>  <ModifiedDate>
2014-10-10

>  <Parent>


>  <OneLetterCode>


>  <SubcomponentList>


>  <AmbiguousFlag>
N

>  <InChI>
InChI=1S/C10H20N2O10S2/c11-24(19,20)22-5-1-2-12(3-5)23(17,18)10-9(16)8(15)7(14)6(4-13)21-10/h5-10,13-16H,1-4H2,(H2,11,19,20)/t5-,6?,7-,8+,9+,10+/m1/s1

>  <InChIKey>
TWZVGIAZMOMKML-NGXNFIGVSA-N

>  <SMILES>
C1CN(C[C@@H]1OS(=O)(=O)N)S(=O)(=O)[C@H]2[C@H]([C@H]([C@@H](C(O2)CO)O)O)O

$$$$
