3PWK_L14_A_368


 14 14  0  0  0  0  0  0  0  0999 V2000
    1.2309   24.9182   47.2441 C   0  0  0  0  0  0  0  0  0  0  0  0
   -0.0501   25.0367   48.0684 C   0  0  0  0  0  0  0  0  0  0  0  0
   -0.1551   24.8258   45.1276 C   0  0  0  0  0  0  0  0  0  0  0  0
   -1.4269   24.9239   45.9387 C   0  0  0  0  0  0  0  0  0  0  0  0
    0.9893   25.5221   45.8538 C   0  0  0  0  0  0  0  0  0  0  0  0
   -1.2169   24.3621   47.3403 C   0  0  0  0  0  0  0  0  0  0  0  0
    2.5063   24.2179   44.5642 O   0  0  0  0  0  0  0  0  0  0  0  0
    2.6910   26.4301   44.5728 O   0  0  0  0  0  0  0  0  0  0  0  0
    2.1494   25.3624   44.9298 C   0  0  0  0  0  0  0  0  0  0  0  0
    2.0484   23.4623   44.8764 H   0  0  0  0  0  0  0  0  0  0  0  0
   -2.5901   24.1876   49.2048 O   0  0  0  0  0  0  0  0  0  0  0  0
   -3.4293   25.2035   47.4319 O   0  0  0  0  0  0  0  0  0  0  0  0
   -2.5072   24.6133   48.0394 C   0  0  0  0  0  0  0  0  0  0  0  0
   -1.8586   23.7541   49.5984 H   0  0  0  0  0  0  0  0  0  0  0  0
  9  7  1  0  0  0
 13 11  1  0  0  0
  8  9  2  0  0  0
 12 13  2  0  0  0
  2  1  1  0  0  0
  1  5  1  0  0  0
  2  6  1  0  0  0
  4  3  1  0  0  0
  5  3  1  0  0  0
  6  4  1  0  0  0
  5  9  1  0  0  0
 13  6  1  0  0  0
  7 10  1  0  0  0
 11 14  1  0  0  0
M  END
> <minimizedAffinity>
-5.93663

$$$$
3PWK_L14_A_368


 14 14  0  0  0  0  0  0  0  0999 V2000
    0.0199   25.0954   48.0033 C   0  0  0  0  0  0  0  0  0  0  0  0
    1.2699   24.8870   47.1497 C   0  0  0  0  0  0  0  0  0  0  0  0
   -1.4078   24.9889   45.9153 C   0  0  0  0  0  0  0  0  0  0  0  0
   -0.1734   24.8013   45.0631 C   0  0  0  0  0  0  0  0  0  0  0  0
   -1.1757   24.4256   47.3119 C   0  0  0  0  0  0  0  0  0  0  0  0
    1.0446   25.4266   45.7338 C   0  0  0  0  0  0  0  0  0  0  0  0
   -2.6573   24.1920   49.1601 O   0  0  0  0  0  0  0  0  0  0  0  0
   -3.3014   25.3416   47.3736 O   0  0  0  0  0  0  0  0  0  0  0  0
   -2.4716   24.6603   48.0124 C   0  0  0  0  0  0  0  0  0  0  0  0
   -1.9845   23.6891   49.5753 H   0  0  0  0  0  0  0  0  0  0  0  0
    2.2266   23.9043   44.4385 O   0  0  0  0  0  0  0  0  0  0  0  0
    3.0278   25.9596   44.5531 O   0  0  0  0  0  0  0  0  0  0  0  0
    2.1818   25.0812   44.8371 C   0  0  0  0  0  0  0  0  0  0  0  0
    1.5578   23.2984   44.6908 H   0  0  0  0  0  0  0  0  0  0  0  0
  9  7  1  0  0  0
 13 11  1  0  0  0
  8  9  2  0  0  0
 12 13  2  0  0  0
  2  1  1  0  0  0
  1  5  1  0  0  0
  2  6  1  0  0  0
  4  3  1  0  0  0
  5  3  1  0  0  0
  6  4  1  0  0  0
  5  9  1  0  0  0
 13  6  1  0  0  0
  7 10  1  0  0  0
 11 14  1  0  0  0
M  END
> <minimizedAffinity>
-5.89672

$$$$
3PWK_L14_A_368


 14 14  0  0  0  0  0  0  0  0999 V2000
    1.6405   24.5836   50.2990 C   0  0  0  0  0  0  0  0  0  0  0  0
    2.2886   23.2154   50.0924 C   0  0  0  0  0  0  0  0  0  0  0  0
   -0.4187   23.4513   51.2407 C   0  0  0  0  0  0  0  0  0  0  0  0
    0.2094   22.0939   51.0214 C   0  0  0  0  0  0  0  0  0  0  0  0
    0.6606   24.5004   51.4776 C   0  0  0  0  0  0  0  0  0  0  0  0
    1.2151   22.1441   49.8767 C   0  0  0  0  0  0  0  0  0  0  0  0
   -0.8222   25.8871   52.7201 O   0  0  0  0  0  0  0  0  0  0  0  0
    0.0369   26.6287   50.8122 O   0  0  0  0  0  0  0  0  0  0  0  0
   -0.1071   25.7601   51.6985 C   0  0  0  0  0  0  0  0  0  0  0  0
   -0.8795   25.1882   53.3416 H   0  0  0  0  0  0  0  0  0  0  0  0
    2.9440   20.6901   49.3388 O   0  0  0  0  0  0  0  0  0  0  0  0
    1.1566   19.8134   50.2959 O   0  0  0  0  0  0  0  0  0  0  0  0
    1.8120   20.7805   49.8453 C   0  0  0  0  0  0  0  0  0  0  0  0
    3.3776   21.4575   49.0209 H   0  0  0  0  0  0  0  0  0  0  0  0
  9  7  1  0  0  0
 13 11  1  0  0  0
  8  9  2  0  0  0
 12 13  2  0  0  0
  2  1  1  0  0  0
  1  5  1  0  0  0
  2  6  1  0  0  0
  4  3  1  0  0  0
  5  3  1  0  0  0
  6  4  1  0  0  0
  5  9  1  0  0  0
 13  6  1  0  0  0
  7 10  1  0  0  0
 11 14  1  0  0  0
M  END
> <minimizedAffinity>
-5.66338

$$$$
3PWK_L14_A_368


 14 14  0  0  0  0  0  0  0  0999 V2000
   -1.6306   22.4990   49.4963 C   0  0  0  0  0  0  0  0  0  0  0  0
   -1.6142   24.0120   49.7087 C   0  0  0  0  0  0  0  0  0  0  0  0
   -0.1193   22.2135   51.5072 C   0  0  0  0  0  0  0  0  0  0  0  0
   -0.0838   23.7108   51.7114 C   0  0  0  0  0  0  0  0  0  0  0  0
   -1.4302   21.8015   50.8488 C   0  0  0  0  0  0  0  0  0  0  0  0
   -0.3119   24.4402   50.3923 C   0  0  0  0  0  0  0  0  0  0  0  0
   -0.5445   19.8050   49.9028 O   0  0  0  0  0  0  0  0  0  0  0  0
   -2.0491   19.6768   51.5301 O   0  0  0  0  0  0  0  0  0  0  0  0
   -1.3248   20.3175   50.7391 C   0  0  0  0  0  0  0  0  0  0  0  0
   -0.0323   20.3539   49.3422 H   0  0  0  0  0  0  0  0  0  0  0  0
   -1.3270   26.2505   51.4339 O   0  0  0  0  0  0  0  0  0  0  0  0
    0.5746   26.6368   50.3786 O   0  0  0  0  0  0  0  0  0  0  0  0
   -0.3463   25.8814   50.7646 C   0  0  0  0  0  0  0  0  0  0  0  0
   -1.9805   25.6294   51.6891 H   0  0  0  0  0  0  0  0  0  0  0  0
  9  7  1  0  0  0
 13 11  1  0  0  0
  8  9  2  0  0  0
 12 13  2  0  0  0
  2  1  1  0  0  0
  1  5  1  0  0  0
  2  6  1  0  0  0
  4  3  1  0  0  0
  5  3  1  0  0  0
  6  4  1  0  0  0
  5  9  1  0  0  0
 13  6  1  0  0  0
  7 10  1  0  0  0
 11 14  1  0  0  0
M  END
> <minimizedAffinity>
-5.45899

$$$$
3PWK_L14_A_368


 14 14  0  0  0  0  0  0  0  0999 V2000
   -0.9603   24.4562   49.7914 C   0  0  0  0  0  0  0  0  0  0  0  0
   -1.6016   23.0825   49.6012 C   0  0  0  0  0  0  0  0  0  0  0  0
    0.3699   23.5502   51.7456 C   0  0  0  0  0  0  0  0  0  0  0  0
   -0.2749   22.1937   51.5745 C   0  0  0  0  0  0  0  0  0  0  0  0
    0.4340   24.2768   50.4078 C   0  0  0  0  0  0  0  0  0  0  0  0
   -1.6517   22.3285   50.9338 C   0  0  0  0  0  0  0  0  0  0  0  0
    0.4263   26.6088   50.8843 O   0  0  0  0  0  0  0  0  0  0  0  0
    2.3502   25.5020   50.8415 O   0  0  0  0  0  0  0  0  0  0  0  0
    1.1074   25.5674   50.7332 C   0  0  0  0  0  0  0  0  0  0  0  0
   -0.5050   26.5778   50.7864 H   0  0  0  0  0  0  0  0  0  0  0  0
   -2.8703   20.7250   49.7779 O   0  0  0  0  0  0  0  0  0  0  0  0
   -1.7458   20.0440   51.5530 O   0  0  0  0  0  0  0  0  0  0  0  0
   -2.1127   20.9257   50.7432 C   0  0  0  0  0  0  0  0  0  0  0  0
   -3.1041   21.4331   49.2106 H   0  0  0  0  0  0  0  0  0  0  0  0
  9  7  1  0  0  0
 13 11  1  0  0  0
  8  9  2  0  0  0
 12 13  2  0  0  0
  2  1  1  0  0  0
  1  5  1  0  0  0
  2  6  1  0  0  0
  4  3  1  0  0  0
  5  3  1  0  0  0
  6  4  1  0  0  0
  5  9  1  0  0  0
 13  6  1  0  0  0
  7 10  1  0  0  0
 11 14  1  0  0  0
M  END
> <minimizedAffinity>
-5.36052

$$$$
3PWK_L14_A_368


 14 14  0  0  0  0  0  0  0  0999 V2000
    0.2347   23.6185   51.2747 C   0  0  0  0  0  0  0  0  0  0  0  0
   -0.5796   22.3575   51.5598 C   0  0  0  0  0  0  0  0  0  0  0  0
   -1.2930   24.1489   49.3269 C   0  0  0  0  0  0  0  0  0  0  0  0
   -2.0914   22.8930   49.5921 C   0  0  0  0  0  0  0  0  0  0  0  0
   -0.6771   24.6661   50.6210 C   0  0  0  0  0  0  0  0  0  0  0  0
   -1.2261   21.8379   50.2719 C   0  0  0  0  0  0  0  0  0  0  0  0
    0.7365   26.5353   51.0372 O   0  0  0  0  0  0  0  0  0  0  0  0
   -0.0939   26.2166   49.0032 O   0  0  0  0  0  0  0  0  0  0  0  0
    0.0463   25.9023   50.2042 C   0  0  0  0  0  0  0  0  0  0  0  0
    0.7928   26.2357   51.9232 H   0  0  0  0  0  0  0  0  0  0  0  0
   -3.1045   20.5743   49.7548 O   0  0  0  0  0  0  0  0  0  0  0  0
   -1.9730   19.9969   51.5619 O   0  0  0  0  0  0  0  0  0  0  0  0
   -2.1612   20.7138   50.5527 C   0  0  0  0  0  0  0  0  0  0  0  0
   -3.1843   21.1485   49.0186 H   0  0  0  0  0  0  0  0  0  0  0  0
  9  7  1  0  0  0
 13 11  1  0  0  0
  8  9  2  0  0  0
 12 13  2  0  0  0
  2  1  1  0  0  0
  1  5  1  0  0  0
  2  6  1  0  0  0
  4  3  1  0  0  0
  5  3  1  0  0  0
  6  4  1  0  0  0
  5  9  1  0  0  0
 13  6  1  0  0  0
  7 10  1  0  0  0
 11 14  1  0  0  0
M  END
> <minimizedAffinity>
-5.31847

$$$$
3PWK_L14_A_368


 14 14  0  0  0  0  0  0  0  0999 V2000
   -1.5972   23.9553   49.7034 C   0  0  0  0  0  0  0  0  0  0  0  0
   -1.5181   22.4404   49.5204 C   0  0  0  0  0  0  0  0  0  0  0  0
   -0.1550   23.7671   51.7755 C   0  0  0  0  0  0  0  0  0  0  0  0
   -0.0884   22.2659   51.6107 C   0  0  0  0  0  0  0  0  0  0  0  0
   -0.3290   24.4399   50.4195 C   0  0  0  0  0  0  0  0  0  0  0  0
   -1.3187   21.7497   50.8731 C   0  0  0  0  0  0  0  0  0  0  0  0
   -1.2577   26.3613   51.4736 O   0  0  0  0  0  0  0  0  0  0  0  0
    0.5790   26.5626   50.2431 O   0  0  0  0  0  0  0  0  0  0  0  0
   -0.3520   25.8960   50.7427 C   0  0  0  0  0  0  0  0  0  0  0  0
   -1.9239   25.7957   51.8116 H   0  0  0  0  0  0  0  0  0  0  0  0
    0.0446   19.8813   51.0800 O   0  0  0  0  0  0  0  0  0  0  0  0
   -1.9503   19.5735   50.1829 O   0  0  0  0  0  0  0  0  0  0  0  0
   -1.0667   20.2922   50.7031 C   0  0  0  0  0  0  0  0  0  0  0  0
    0.6593   20.4765   51.4620 H   0  0  0  0  0  0  0  0  0  0  0  0
  9  7  1  0  0  0
 13 11  1  0  0  0
  8  9  2  0  0  0
 12 13  2  0  0  0
  2  1  1  0  0  0
  1  5  1  0  0  0
  2  6  1  0  0  0
  4  3  1  0  0  0
  5  3  1  0  0  0
  6  4  1  0  0  0
  5  9  1  0  0  0
 13  6  1  0  0  0
  7 10  1  0  0  0
 11 14  1  0  0  0
M  END
> <minimizedAffinity>
-5.27214

$$$$
3PWK_L14_A_368


 14 14  0  0  0  0  0  0  0  0999 V2000
   -1.9227   25.2467   47.9830 C   0  0  0  0  0  0  0  0  0  0  0  0
   -1.9269   25.2326   46.4551 C   0  0  0  0  0  0  0  0  0  0  0  0
    0.5790   24.8585   47.9666 C   0  0  0  0  0  0  0  0  0  0  0  0
    0.5787   24.8248   46.4553 C   0  0  0  0  0  0  0  0  0  0  0  0
   -0.5551   25.7400   48.4752 C   0  0  0  0  0  0  0  0  0  0  0  0
   -0.7769   24.3694   45.9268 C   0  0  0  0  0  0  0  0  0  0  0  0
   -1.1819   24.9815   50.6425 O   0  0  0  0  0  0  0  0  0  0  0  0
    0.5209   26.3884   50.4203 O   0  0  0  0  0  0  0  0  0  0  0  0
   -0.4079   25.6919   49.9589 C   0  0  0  0  0  0  0  0  0  0  0  0
   -1.8568   24.4857   50.2222 H   0  0  0  0  0  0  0  0  0  0  0  0
   -1.6581   24.9020   43.8454 O   0  0  0  0  0  0  0  0  0  0  0  0
    0.4105   24.1286   43.8913 O   0  0  0  0  0  0  0  0  0  0  0  0
   -0.6555   24.4789   44.4469 C   0  0  0  0  0  0  0  0  0  0  0  0
   -2.4242   25.1469   44.3261 H   0  0  0  0  0  0  0  0  0  0  0  0
  9  7  1  0  0  0
 13 11  1  0  0  0
  8  9  2  0  0  0
 12 13  2  0  0  0
  2  1  1  0  0  0
  1  5  1  0  0  0
  2  6  1  0  0  0
  4  3  1  0  0  0
  5  3  1  0  0  0
  6  4  1  0  0  0
  5  9  1  0  0  0
 13  6  1  0  0  0
  7 10  1  0  0  0
 11 14  1  0  0  0
M  END
> <minimizedAffinity>
-5.24056

$$$$
3PWK_L14_A_368


 14 14  0  0  0  0  0  0  0  0999 V2000
   -1.4006   22.9512   49.2041 C   0  0  0  0  0  0  0  0  0  0  0  0
    0.0777   22.6515   49.4481 C   0  0  0  0  0  0  0  0  0  0  0  0
   -0.8238   25.3780   48.7718 C   0  0  0  0  0  0  0  0  0  0  0  0
    0.6379   25.0919   49.0305 C   0  0  0  0  0  0  0  0  0  0  0  0
   -1.5179   24.1335   48.2323 C   0  0  0  0  0  0  0  0  0  0  0  0
    0.7960   23.9005   49.9684 C   0  0  0  0  0  0  0  0  0  0  0  0
   -3.8739   23.9196   48.4943 O   0  0  0  0  0  0  0  0  0  0  0  0
   -3.0474   25.6186   47.3288 O   0  0  0  0  0  0  0  0  0  0  0  0
   -2.9243   24.5771   48.0076 C   0  0  0  0  0  0  0  0  0  0  0  0
   -3.7007   23.1460   48.9938 H   0  0  0  0  0  0  0  0  0  0  0  0
    2.6702   22.5492   49.7369 O   0  0  0  0  0  0  0  0  0  0  0  0
    3.0044   24.6167   50.4390 O   0  0  0  0  0  0  0  0  0  0  0  0
    2.2667   23.6830   50.0495 C   0  0  0  0  0  0  0  0  0  0  0  0
    2.0607   21.8967   49.4531 H   0  0  0  0  0  0  0  0  0  0  0  0
  9  7  1  0  0  0
 13 11  1  0  0  0
  8  9  2  0  0  0
 12 13  2  0  0  0
  2  1  1  0  0  0
  1  5  1  0  0  0
  2  6  1  0  0  0
  4  3  1  0  0  0
  5  3  1  0  0  0
  6  4  1  0  0  0
  5  9  1  0  0  0
 13  6  1  0  0  0
  7 10  1  0  0  0
 11 14  1  0  0  0
M  END
> <minimizedAffinity>
-5.22213

$$$$
3PWK_L14_A_368


 14 14  0  0  0  0  0  0  0  0999 V2000
   -1.6849   22.8503   49.6417 C   0  0  0  0  0  0  0  0  0  0  0  0
   -2.3899   23.7292   48.6095 C   0  0  0  0  0  0  0  0  0  0  0  0
    0.1375   24.5937   49.8621 C   0  0  0  0  0  0  0  0  0  0  0  0
   -0.5452   25.4593   48.8277 C   0  0  0  0  0  0  0  0  0  0  0  0
   -0.8897   23.7457   50.6019 C   0  0  0  0  0  0  0  0  0  0  0  0
   -1.3729   24.6065   47.8729 C   0  0  0  0  0  0  0  0  0  0  0  0
   -0.0072   21.7295   51.5083 O   0  0  0  0  0  0  0  0  0  0  0  0
    0.5027   23.6738   52.4505 O   0  0  0  0  0  0  0  0  0  0  0  0
   -0.0762   22.9784   51.5892 C   0  0  0  0  0  0  0  0  0  0  0  0
   -0.4718   21.2774   50.8317 H   0  0  0  0  0  0  0  0  0  0  0  0
   -1.3504   26.0991   46.0941 O   0  0  0  0  0  0  0  0  0  0  0  0
   -3.2549   25.8725   47.1898 O   0  0  0  0  0  0  0  0  0  0  0  0
   -2.0517   25.5918   46.9867 C   0  0  0  0  0  0  0  0  0  0  0  0
   -0.4545   25.8416   45.9989 H   0  0  0  0  0  0  0  0  0  0  0  0
  9  7  1  0  0  0
 13 11  1  0  0  0
  8  9  2  0  0  0
 12 13  2  0  0  0
  2  1  1  0  0  0
  1  5  1  0  0  0
  2  6  1  0  0  0
  4  3  1  0  0  0
  5  3  1  0  0  0
  6  4  1  0  0  0
  5  9  1  0  0  0
 13  6  1  0  0  0
  7 10  1  0  0  0
 11 14  1  0  0  0
M  END
> <minimizedAffinity>
-5.19408

$$$$
