4ZIP_G64_B_201


 51 54  0  0  0  0  0  0  0  0999 V2000
   15.0613   22.7691   16.9152 C   0  0  0  0  0  0  0  0  0  0  0  0
   14.1612   21.8059   17.5449 N   0  0  0  0  0  0  0  0  0  0  0  0
   14.5763   20.7957   18.2960 C   0  0  0  0  0  0  0  0  0  0  0  0
   15.7650   20.6577   18.6871 O   0  0  0  0  0  0  0  0  0  0  0  0
   13.1929   21.9131   17.4036 H   0  0  0  0  0  0  0  0  0  0  0  0
   13.5095   19.7980   18.7151 C   0  0  0  0  0  0  0  0  0  0  0  0
   13.6684   19.1127   19.9147 C   0  0  0  0  0  0  0  0  0  0  0  0
   12.6670   18.1999   20.3097 C   0  0  0  0  0  0  0  0  0  0  0  0
   11.5621   18.0201   19.5071 C   0  0  0  0  0  0  0  0  0  0  0  0
   11.4705   18.6673   18.2800 C   0  0  0  0  0  0  0  0  0  0  0  0
   12.4109   19.6134   17.9077 C   0  0  0  0  0  0  0  0  0  0  0  0
   12.8645   17.4599   21.6299 C   0  0  0  0  0  0  0  0  0  0  0  0
   10.2485   18.5100   17.3851 C   0  0  0  0  0  0  0  0  0  0  0  0
    9.3483   19.3217   17.5509 O   0  0  0  0  0  0  0  0  0  0  0  0
   10.1585   17.5844   16.4616 N   0  0  0  0  0  0  0  0  0  0  0  0
   11.1897   16.5247   16.3084 C   0  0  0  0  0  0  0  0  0  0  0  0
    9.0734   17.6015   15.4155 C   0  0  0  0  0  0  0  0  0  0  0  0
    9.1539   18.6746   14.3262 C   0  0  0  0  0  0  0  0  0  0  0  0
    8.4997   19.8612   14.4154 N   0  0  0  0  0  0  0  0  0  0  0  0
    8.7865   20.5849   13.3670 C   0  0  0  0  0  0  0  0  0  0  0  0
    9.5463   19.8706   12.5007 O   0  0  0  0  0  0  0  0  0  0  0  0
    9.7346   18.6404   13.0926 C   0  0  0  0  0  0  0  0  0  0  0  0
   10.6876   17.6646   12.4210 C   0  0  0  0  0  0  0  0  0  0  0  0
    8.2251   21.9381   12.9760 C   0  0  0  0  0  0  0  0  0  0  0  0
   15.4465   23.8413   17.9403 C   0  0  0  0  0  0  0  0  0  0  0  0
   14.2832   24.5685   18.3225 O   0  0  0  0  0  0  0  0  0  0  0  0
   13.9200   25.0273   17.5489 H   0  0  0  0  0  0  0  0  0  0  0  0
   16.5414   24.7829   17.4704 C   0  0  0  0  0  0  0  0  0  0  0  0
   17.8367   24.1108   17.3517 N   0  0  0  0  0  0  0  0  0  0  0  0
   18.6030   24.1643   15.8837 S   0  0  0  0  0  0  0  0  0  0  0  0
   17.5909   24.0153   14.8689 O   0  0  0  0  0  0  0  0  0  0  0  0
   19.6964   23.1997   15.9563 O   0  0  0  0  0  0  0  0  0  0  0  0
   20.6318   28.1450   15.2447 C   0  0  0  0  0  0  0  0  0  0  0  0
   19.6562   27.7408   14.3686 C   0  0  0  0  0  0  0  0  0  0  0  0
   19.0286   26.5199   14.5858 C   0  0  0  0  0  0  0  0  0  0  0  0
   19.3376   25.7346   15.6920 C   0  0  0  0  0  0  0  0  0  0  0  0
   20.2423   26.2066   16.6225 C   0  0  0  0  0  0  0  0  0  0  0  0
   20.8501   27.4211   16.4428 C   0  0  0  0  0  0  0  0  0  0  0  0
   21.3703   29.3039   15.1532 O   0  0  0  0  0  0  0  0  0  0  0  0
   22.7607   29.1027   15.3702 C   0  0  0  0  0  0  0  0  0  0  0  0
   18.6947   24.1561   18.5349 C   0  0  0  0  0  0  0  0  0  0  0  0
   18.2309   23.2966   19.6945 C   0  0  0  0  0  0  0  0  0  0  0  0
   18.9298   21.9587   19.6771 C   0  0  0  0  0  0  0  0  0  0  0  0
   18.4624   24.0404   21.0257 C   0  0  0  0  0  0  0  0  0  0  0  0
   14.3744   23.3198   15.6679 C   0  0  0  0  0  0  0  0  0  0  0  0
   12.8531   21.5366   14.6900 C   0  0  0  0  0  0  0  0  0  0  0  0
   12.6780   20.4223   13.8498 C   0  0  0  0  0  0  0  0  0  0  0  0
   13.6577   19.9358   13.0428 C   0  0  0  0  0  0  0  0  0  0  0  0
   14.8801   20.6176   13.0308 C   0  0  0  0  0  0  0  0  0  0  0  0
   15.1093   21.7144   13.8294 C   0  0  0  0  0  0  0  0  0  0  0  0
   14.0948   22.1948   14.6834 C   0  0  0  0  0  0  0  0  0  0  0  0
 24 20  1  0  0  0
 20 21  1  0  0  0
 20 19  2  0  0  0
 21 22  1  0  0  0
 19 18  1  0  0  0
 48 49  2  0  0  0
 48 47  1  0  0  0
 49 50  1  0  0  0
 22 23  1  0  0  0
 22 18  2  0  0  0
 18 17  1  0  0  0
 47 46  2  0  0  0
 50 51  2  0  0  0
 38 37  2  0  0  0
 38 33  1  0  0  0
 39 33  1  0  0  0
 39 40  1  0  0  0
 46 51  1  0  0  0
 51 45  1  0  0  0
 37 36  1  0  0  0
 31 30  2  0  0  0
 33 34  2  0  0  0
 17 15  1  0  0  0
 36 35  2  0  0  0
 36 30  1  0  0  0
 34 35  1  0  0  0
 45  1  1  0  0  0
 16 15  1  0  0  0
 30 32  2  0  0  0
 30 29  1  0  0  0
 15 13  1  0  0  0
  1  2  1  0  0  0
  1 25  1  0  0  0
 29 28  1  0  0  0
 29 41  1  0  0  0
 28 25  1  0  0  0
 13 14  2  0  0  0
 13 10  1  0  0  0
  2  3  1  0  0  0
 11 10  2  0  0  0
 11  6  1  0  0  0
 25 26  1  0  0  0
  3  4  2  0  0  0
  3  6  1  0  0  0
 10  9  1  0  0  0
 41 42  1  0  0  0
  6  7  2  0  0  0
  9  8  2  0  0  0
 43 42  1  0  0  0
  7  8  1  0  0  0
 42 44  1  0  0  0
  8 12  1  0  0  0
 26 27  1  0  0  0
  2  5  1  0  0  0
M  END
> <minimizedAffinity>
-11.38343

$$$$
4ZIP_G64_B_201


 51 54  0  0  0  0  0  0  0  0999 V2000
   15.5545   23.0643   16.8323 C   0  0  0  0  0  0  0  0  0  0  0  0
   14.6652   22.1370   17.5276 N   0  0  0  0  0  0  0  0  0  0  0  0
   15.0286   20.9226   17.9151 C   0  0  0  0  0  0  0  0  0  0  0  0
   16.2156   20.5043   17.8819 O   0  0  0  0  0  0  0  0  0  0  0  0
   13.7451   22.4303   17.7190 H   0  0  0  0  0  0  0  0  0  0  0  0
   13.9184   20.0397   18.4602 C   0  0  0  0  0  0  0  0  0  0  0  0
   14.1093   19.4013   19.6808 C   0  0  0  0  0  0  0  0  0  0  0  0
   13.0693   18.5962   20.1927 C   0  0  0  0  0  0  0  0  0  0  0  0
   11.8973   18.4725   19.4797 C   0  0  0  0  0  0  0  0  0  0  0  0
   11.7681   19.0660   18.2291 C   0  0  0  0  0  0  0  0  0  0  0  0
   12.7520   19.9105   17.7421 C   0  0  0  0  0  0  0  0  0  0  0  0
   13.3030   17.9059   21.5337 C   0  0  0  0  0  0  0  0  0  0  0  0
   10.4748   18.9702   17.4310 C   0  0  0  0  0  0  0  0  0  0  0  0
    9.6282   19.8210   17.6683 O   0  0  0  0  0  0  0  0  0  0  0  0
   10.2714   18.0555   16.5146 N   0  0  0  0  0  0  0  0  0  0  0  0
   11.2380   16.9510   16.2791 C   0  0  0  0  0  0  0  0  0  0  0  0
    9.1107   18.1287   15.5557 C   0  0  0  0  0  0  0  0  0  0  0  0
    9.1770   19.1739   14.4387 C   0  0  0  0  0  0  0  0  0  0  0  0
    8.5399   20.3705   14.5148 N   0  0  0  0  0  0  0  0  0  0  0  0
    8.8092   21.0649   13.4421 C   0  0  0  0  0  0  0  0  0  0  0  0
    9.5383   20.3200   12.5752 O   0  0  0  0  0  0  0  0  0  0  0  0
    9.7262   19.1022   13.1924 C   0  0  0  0  0  0  0  0  0  0  0  0
   10.6501   18.0982   12.5216 C   0  0  0  0  0  0  0  0  0  0  0  0
    8.2549   22.4152   13.0320 C   0  0  0  0  0  0  0  0  0  0  0  0
   16.0158   24.1484   17.8125 C   0  0  0  0  0  0  0  0  0  0  0  0
   14.8815   24.7011   18.4729 O   0  0  0  0  0  0  0  0  0  0  0  0
   14.3046   25.1292   17.8211 H   0  0  0  0  0  0  0  0  0  0  0  0
   16.8560   25.2419   17.1766 C   0  0  0  0  0  0  0  0  0  0  0  0
   18.2909   24.9721   17.2857 N   0  0  0  0  0  0  0  0  0  0  0  0
   18.8480   24.3175   18.7021 S   0  0  0  0  0  0  0  0  0  0  0  0
   19.2982   22.9811   18.4061 O   0  0  0  0  0  0  0  0  0  0  0  0
   17.7924   24.5187   19.6902 O   0  0  0  0  0  0  0  0  0  0  0  0
   22.5163   26.6254   19.9624 C   0  0  0  0  0  0  0  0  0  0  0  0
   21.7855   27.0622   18.8864 C   0  0  0  0  0  0  0  0  0  0  0  0
   20.6494   26.3512   18.5185 C   0  0  0  0  0  0  0  0  0  0  0  0
   20.2212   25.2454   19.2462 C   0  0  0  0  0  0  0  0  0  0  0  0
   20.9055   24.8847   20.3901 C   0  0  0  0  0  0  0  0  0  0  0  0
   22.0105   25.5904   20.7872 C   0  0  0  0  0  0  0  0  0  0  0  0
   23.6796   27.1928   20.4332 O   0  0  0  0  0  0  0  0  0  0  0  0
   24.3651   26.3731   21.3707 C   0  0  0  0  0  0  0  0  0  0  0  0
   18.9570   24.5331   16.0604 C   0  0  0  0  0  0  0  0  0  0  0  0
   19.5889   25.6428   15.2431 C   0  0  0  0  0  0  0  0  0  0  0  0
   20.9043   25.1888   14.6581 C   0  0  0  0  0  0  0  0  0  0  0  0
   18.6109   26.1097   14.1457 C   0  0  0  0  0  0  0  0  0  0  0  0
   14.8186   23.6050   15.6088 C   0  0  0  0  0  0  0  0  0  0  0  0
   13.1059   21.9237   14.7775 C   0  0  0  0  0  0  0  0  0  0  0  0
   12.7999   20.7870   14.0079 C   0  0  0  0  0  0  0  0  0  0  0  0
   13.7026   20.1665   13.2031 C   0  0  0  0  0  0  0  0  0  0  0  0
   14.9822   20.7274   13.1179 C   0  0  0  0  0  0  0  0  0  0  0  0
   15.3391   21.8393   13.8455 C   0  0  0  0  0  0  0  0  0  0  0  0
   14.4028   22.4597   14.6985 C   0  0  0  0  0  0  0  0  0  0  0  0
 24 20  1  0  0  0
 20 21  1  0  0  0
 20 19  2  0  0  0
 21 22  1  0  0  0
 19 18  1  0  0  0
 48 49  2  0  0  0
 48 47  1  0  0  0
 49 50  1  0  0  0
 22 23  1  0  0  0
 22 18  2  0  0  0
 18 17  1  0  0  0
 47 46  2  0  0  0
 50 51  2  0  0  0
 38 37  2  0  0  0
 38 33  1  0  0  0
 39 33  1  0  0  0
 39 40  1  0  0  0
 46 51  1  0  0  0
 51 45  1  0  0  0
 37 36  1  0  0  0
 31 30  2  0  0  0
 33 34  2  0  0  0
 17 15  1  0  0  0
 36 35  2  0  0  0
 36 30  1  0  0  0
 34 35  1  0  0  0
 45  1  1  0  0  0
 16 15  1  0  0  0
 30 32  2  0  0  0
 30 29  1  0  0  0
 15 13  1  0  0  0
  1  2  1  0  0  0
  1 25  1  0  0  0
 29 28  1  0  0  0
 29 41  1  0  0  0
 28 25  1  0  0  0
 13 14  2  0  0  0
 13 10  1  0  0  0
  2  3  1  0  0  0
 11 10  2  0  0  0
 11  6  1  0  0  0
 25 26  1  0  0  0
  3  4  2  0  0  0
  3  6  1  0  0  0
 10  9  1  0  0  0
 41 42  1  0  0  0
  6  7  2  0  0  0
  9  8  2  0  0  0
 43 42  1  0  0  0
  7  8  1  0  0  0
 42 44  1  0  0  0
  8 12  1  0  0  0
 26 27  1  0  0  0
  2  5  1  0  0  0
M  END
> <minimizedAffinity>
-10.66533

$$$$
4ZIP_G64_B_201


 51 54  0  0  0  0  0  0  0  0999 V2000
    9.6783   19.6798   14.6343 C   0  0  0  0  0  0  0  0  0  0  0  0
   10.6296   19.3357   15.6882 N   0  0  0  0  0  0  0  0  0  0  0  0
   10.4362   19.6110   16.9703 C   0  0  0  0  0  0  0  0  0  0  0  0
    9.3478   20.0384   17.4369 O   0  0  0  0  0  0  0  0  0  0  0  0
   11.4604   18.8736   15.4320 H   0  0  0  0  0  0  0  0  0  0  0  0
   11.6130   19.3392   17.8926 C   0  0  0  0  0  0  0  0  0  0  0  0
   11.4022   18.5853   19.0419 C   0  0  0  0  0  0  0  0  0  0  0  0
   12.5008   18.3197   19.8872 C   0  0  0  0  0  0  0  0  0  0  0  0
   13.7457   18.8025   19.5489 C   0  0  0  0  0  0  0  0  0  0  0  0
   13.9065   19.6133   18.4310 C   0  0  0  0  0  0  0  0  0  0  0  0
   12.8538   19.8298   17.5573 C   0  0  0  0  0  0  0  0  0  0  0  0
   12.2439   17.4906   21.1426 C   0  0  0  0  0  0  0  0  0  0  0  0
   15.2747   20.1377   18.0167 C   0  0  0  0  0  0  0  0  0  0  0  0
   16.1249   19.2940   17.7677 O   0  0  0  0  0  0  0  0  0  0  0  0
   15.5393   21.4158   17.8968 N   0  0  0  0  0  0  0  0  0  0  0  0
   14.5590   22.4613   18.2912 C   0  0  0  0  0  0  0  0  0  0  0  0
   16.8007   21.9126   17.2379 C   0  0  0  0  0  0  0  0  0  0  0  0
   17.5734   23.0340   17.9379 C   0  0  0  0  0  0  0  0  0  0  0  0
   18.1961   22.8613   19.1321 N   0  0  0  0  0  0  0  0  0  0  0  0
   18.8024   23.9704   19.4601 C   0  0  0  0  0  0  0  0  0  0  0  0
   18.5170   24.9421   18.5588 O   0  0  0  0  0  0  0  0  0  0  0  0
   17.6951   24.3550   17.6212 C   0  0  0  0  0  0  0  0  0  0  0  0
   17.3296   25.1643   16.3872 C   0  0  0  0  0  0  0  0  0  0  0  0
   19.5463   24.2923   20.7415 C   0  0  0  0  0  0  0  0  0  0  0  0
    9.3430   18.4196   13.8290 C   0  0  0  0  0  0  0  0  0  0  0  0
    8.1188   18.6186   13.1292 O   0  0  0  0  0  0  0  0  0  0  0  0
    7.4000   18.7523   13.7666 H   0  0  0  0  0  0  0  0  0  0  0  0
    9.2897   17.1495   14.6597 C   0  0  0  0  0  0  0  0  0  0  0  0
   10.4264   16.2658   14.3940 N   0  0  0  0  0  0  0  0  0  0  0  0
   10.9018   15.2349   15.6008 S   0  0  0  0  0  0  0  0  0  0  0  0
   11.8099   15.9630   16.4503 O   0  0  0  0  0  0  0  0  0  0  0  0
   11.3557   14.0138   14.9421 O   0  0  0  0  0  0  0  0  0  0  0  0
    7.4116   14.0114   18.1877 C   0  0  0  0  0  0  0  0  0  0  0  0
    8.1380   15.1258   18.5241 C   0  0  0  0  0  0  0  0  0  0  0  0
    9.2006   15.5003   17.7103 C   0  0  0  0  0  0  0  0  0  0  0  0
    9.5036   14.7983   16.5479 C   0  0  0  0  0  0  0  0  0  0  0  0
    8.6956   13.7458   16.1657 C   0  0  0  0  0  0  0  0  0  0  0  0
    7.6252   13.3789   16.9381 C   0  0  0  0  0  0  0  0  0  0  0  0
    6.3564   13.4885   18.9020 O   0  0  0  0  0  0  0  0  0  0  0  0
    5.8292   14.3901   19.8663 C   0  0  0  0  0  0  0  0  0  0  0  0
   10.5431   15.7629   13.0260 C   0  0  0  0  0  0  0  0  0  0  0  0
   11.7039   16.3303   12.2328 C   0  0  0  0  0  0  0  0  0  0  0  0
   12.6381   15.2279   11.7958 C   0  0  0  0  0  0  0  0  0  0  0  0
   11.1742   17.1357   11.0288 C   0  0  0  0  0  0  0  0  0  0  0  0
   10.2776   20.8093   13.8002 C   0  0  0  0  0  0  0  0  0  0  0  0
   12.4506   21.8398   14.6170 C   0  0  0  0  0  0  0  0  0  0  0  0
   13.8567   21.8678   14.6055 C   0  0  0  0  0  0  0  0  0  0  0  0
   14.6152   20.9552   13.9425 C   0  0  0  0  0  0  0  0  0  0  0  0
   13.9451   19.9201   13.2801 C   0  0  0  0  0  0  0  0  0  0  0  0
   12.5717   19.8395   13.2579 C   0  0  0  0  0  0  0  0  0  0  0  0
   11.7932   20.8071   13.9264 C   0  0  0  0  0  0  0  0  0  0  0  0
 24 20  1  0  0  0
 20 21  1  0  0  0
 20 19  2  0  0  0
 21 22  1  0  0  0
 19 18  1  0  0  0
 48 49  2  0  0  0
 48 47  1  0  0  0
 49 50  1  0  0  0
 22 23  1  0  0  0
 22 18  2  0  0  0
 18 17  1  0  0  0
 47 46  2  0  0  0
 50 51  2  0  0  0
 38 37  2  0  0  0
 38 33  1  0  0  0
 39 33  1  0  0  0
 39 40  1  0  0  0
 46 51  1  0  0  0
 51 45  1  0  0  0
 37 36  1  0  0  0
 31 30  2  0  0  0
 33 34  2  0  0  0
 17 15  1  0  0  0
 36 35  2  0  0  0
 36 30  1  0  0  0
 34 35  1  0  0  0
 45  1  1  0  0  0
 16 15  1  0  0  0
 30 32  2  0  0  0
 30 29  1  0  0  0
 15 13  1  0  0  0
  1  2  1  0  0  0
  1 25  1  0  0  0
 29 28  1  0  0  0
 29 41  1  0  0  0
 28 25  1  0  0  0
 13 14  2  0  0  0
 13 10  1  0  0  0
  2  3  1  0  0  0
 11 10  2  0  0  0
 11  6  1  0  0  0
 25 26  1  0  0  0
  3  4  2  0  0  0
  3  6  1  0  0  0
 10  9  1  0  0  0
 41 42  1  0  0  0
  6  7  2  0  0  0
  9  8  2  0  0  0
 43 42  1  0  0  0
  7  8  1  0  0  0
 42 44  1  0  0  0
  8 12  1  0  0  0
 26 27  1  0  0  0
  2  5  1  0  0  0
M  END
> <minimizedAffinity>
-9.82423

$$$$
4ZIP_G64_B_201


 51 54  0  0  0  0  0  0  0  0999 V2000
    9.9280   19.5395   14.8478 C   0  0  0  0  0  0  0  0  0  0  0  0
   10.9791   19.3663   15.8476 N   0  0  0  0  0  0  0  0  0  0  0  0
   10.7598   19.3886   17.1546 C   0  0  0  0  0  0  0  0  0  0  0  0
    9.6115   19.3880   17.6708 O   0  0  0  0  0  0  0  0  0  0  0  0
   11.9013   19.2252   15.5332 H   0  0  0  0  0  0  0  0  0  0  0  0
   11.9977   19.3716   18.0359 C   0  0  0  0  0  0  0  0  0  0  0  0
   11.9333   18.7301   19.2680 C   0  0  0  0  0  0  0  0  0  0  0  0
   13.0899   18.7007   20.0763 C   0  0  0  0  0  0  0  0  0  0  0  0
   14.2464   19.2957   19.6226 C   0  0  0  0  0  0  0  0  0  0  0  0
   14.2551   19.9904   18.4183 C   0  0  0  0  0  0  0  0  0  0  0  0
   13.1493   19.9740   17.5846 C   0  0  0  0  0  0  0  0  0  0  0  0
   12.9938   17.9911   21.4241 C   0  0  0  0  0  0  0  0  0  0  0  0
   15.5253   20.6335   17.8782 C   0  0  0  0  0  0  0  0  0  0  0  0
   16.4403   19.8714   17.5974 O   0  0  0  0  0  0  0  0  0  0  0  0
   15.6422   21.9248   17.6871 N   0  0  0  0  0  0  0  0  0  0  0  0
   14.5873   22.8808   18.1149 C   0  0  0  0  0  0  0  0  0  0  0  0
   16.7915   22.5177   16.9127 C   0  0  0  0  0  0  0  0  0  0  0  0
   17.9595   23.1027   17.7115 C   0  0  0  0  0  0  0  0  0  0  0  0
   17.9759   23.1370   19.0688 N   0  0  0  0  0  0  0  0  0  0  0  0
   19.1082   23.6508   19.4677 C   0  0  0  0  0  0  0  0  0  0  0  0
   19.8310   24.0717   18.4008 O   0  0  0  0  0  0  0  0  0  0  0  0
   19.0740   23.7665   17.2903 C   0  0  0  0  0  0  0  0  0  0  0  0
   19.6984   23.9815   15.9210 C   0  0  0  0  0  0  0  0  0  0  0  0
   19.5460   23.9786   20.8819 C   0  0  0  0  0  0  0  0  0  0  0  0
    9.4876   18.1628   14.3383 C   0  0  0  0  0  0  0  0  0  0  0  0
    8.5637   17.5920   15.2595 O   0  0  0  0  0  0  0  0  0  0  0  0
    9.0017   17.4558   16.1142 H   0  0  0  0  0  0  0  0  0  0  0  0
   10.6356   17.2075   14.0633 C   0  0  0  0  0  0  0  0  0  0  0  0
   10.6482   16.7418   12.6753 N   0  0  0  0  0  0  0  0  0  0  0  0
   10.9399   15.1338   12.4028 S   0  0  0  0  0  0  0  0  0  0  0  0
    9.7322   14.5679   11.8572 O   0  0  0  0  0  0  0  0  0  0  0  0
   11.4867   14.5995   13.6465 O   0  0  0  0  0  0  0  0  0  0  0  0
   14.2255   14.5590    9.3622 C   0  0  0  0  0  0  0  0  0  0  0  0
   12.9615   14.1074    9.0778 C   0  0  0  0  0  0  0  0  0  0  0  0
   11.9555   14.3046   10.0162 C   0  0  0  0  0  0  0  0  0  0  0  0
   12.1982   14.9879   11.2037 C   0  0  0  0  0  0  0  0  0  0  0  0
   13.4481   15.5315   11.4256 C   0  0  0  0  0  0  0  0  0  0  0  0
   14.4456   15.3743   10.4998 C   0  0  0  0  0  0  0  0  0  0  0  0
   15.3353   14.4135    8.5597 O   0  0  0  0  0  0  0  0  0  0  0  0
   16.5077   14.9987    9.1108 C   0  0  0  0  0  0  0  0  0  0  0  0
    9.7023   17.3933   11.7704 C   0  0  0  0  0  0  0  0  0  0  0  0
   10.3367   18.1878   10.6457 C   0  0  0  0  0  0  0  0  0  0  0  0
   10.2404   17.4328    9.3420 C   0  0  0  0  0  0  0  0  0  0  0  0
    9.6762   19.5780   10.5465 C   0  0  0  0  0  0  0  0  0  0  0  0
   10.4557   20.4668   13.7559 C   0  0  0  0  0  0  0  0  0  0  0  0
   12.4719   21.7786   14.5713 C   0  0  0  0  0  0  0  0  0  0  0  0
   13.8644   21.9764   14.5811 C   0  0  0  0  0  0  0  0  0  0  0  0
   14.7404   21.1416   13.9620 C   0  0  0  0  0  0  0  0  0  0  0  0
   14.2133   20.0122   13.3249 C   0  0  0  0  0  0  0  0  0  0  0  0
   12.8603   19.7651   13.2837 C   0  0  0  0  0  0  0  0  0  0  0  0
   11.9577   20.6523   13.9062 C   0  0  0  0  0  0  0  0  0  0  0  0
 24 20  1  0  0  0
 20 21  1  0  0  0
 20 19  2  0  0  0
 21 22  1  0  0  0
 19 18  1  0  0  0
 48 49  2  0  0  0
 48 47  1  0  0  0
 49 50  1  0  0  0
 22 23  1  0  0  0
 22 18  2  0  0  0
 18 17  1  0  0  0
 47 46  2  0  0  0
 50 51  2  0  0  0
 38 37  2  0  0  0
 38 33  1  0  0  0
 39 33  1  0  0  0
 39 40  1  0  0  0
 46 51  1  0  0  0
 51 45  1  0  0  0
 37 36  1  0  0  0
 31 30  2  0  0  0
 33 34  2  0  0  0
 17 15  1  0  0  0
 36 35  2  0  0  0
 36 30  1  0  0  0
 34 35  1  0  0  0
 45  1  1  0  0  0
 16 15  1  0  0  0
 30 32  2  0  0  0
 30 29  1  0  0  0
 15 13  1  0  0  0
  1  2  1  0  0  0
  1 25  1  0  0  0
 29 28  1  0  0  0
 29 41  1  0  0  0
 28 25  1  0  0  0
 13 14  2  0  0  0
 13 10  1  0  0  0
  2  3  1  0  0  0
 11 10  2  0  0  0
 11  6  1  0  0  0
 25 26  1  0  0  0
  3  4  2  0  0  0
  3  6  1  0  0  0
 10  9  1  0  0  0
 41 42  1  0  0  0
  6  7  2  0  0  0
  9  8  2  0  0  0
 43 42  1  0  0  0
  7  8  1  0  0  0
 42 44  1  0  0  0
  8 12  1  0  0  0
 26 27  1  0  0  0
  2  5  1  0  0  0
M  END
> <minimizedAffinity>
-9.79818

$$$$
4ZIP_G64_B_201


 51 54  0  0  0  0  0  0  0  0999 V2000
   10.3368   18.5972   16.5670 C   0  0  0  0  0  0  0  0  0  0  0  0
   11.3393   19.3173   17.3484 N   0  0  0  0  0  0  0  0  0  0  0  0
   12.6453   19.1369   17.2113 C   0  0  0  0  0  0  0  0  0  0  0  0
   13.1641   18.4612   16.2844 O   0  0  0  0  0  0  0  0  0  0  0  0
   11.0277   19.9728   18.0135 H   0  0  0  0  0  0  0  0  0  0  0  0
   13.5234   19.8404   18.2328 C   0  0  0  0  0  0  0  0  0  0  0  0
   13.5951   19.3245   19.5221 C   0  0  0  0  0  0  0  0  0  0  0  0
   14.4254   19.9699   20.4634 C   0  0  0  0  0  0  0  0  0  0  0  0
   15.1450   21.0802   20.0804 C   0  0  0  0  0  0  0  0  0  0  0  0
   14.9939   21.6114   18.8044 C   0  0  0  0  0  0  0  0  0  0  0  0
   14.2345   20.9544   17.8505 C   0  0  0  0  0  0  0  0  0  0  0  0
   14.4868   19.3849   21.8718 C   0  0  0  0  0  0  0  0  0  0  0  0
   15.7972   22.8202   18.3439 C   0  0  0  0  0  0  0  0  0  0  0  0
   15.1910   23.8811   18.2823 O   0  0  0  0  0  0  0  0  0  0  0  0
   17.0740   22.7569   18.0552 N   0  0  0  0  0  0  0  0  0  0  0  0
   17.8088   21.4651   18.0222 C   0  0  0  0  0  0  0  0  0  0  0  0
   17.9118   23.9946   17.8592 C   0  0  0  0  0  0  0  0  0  0  0  0
   19.0174   24.2730   18.8813 C   0  0  0  0  0  0  0  0  0  0  0  0
   20.3235   24.4012   18.5327 N   0  0  0  0  0  0  0  0  0  0  0  0
   21.0240   24.6741   19.6005 C   0  0  0  0  0  0  0  0  0  0  0  0
   20.2333   24.6297   20.7009 O   0  0  0  0  0  0  0  0  0  0  0  0
   18.9696   24.3250   20.2433 C   0  0  0  0  0  0  0  0  0  0  0  0
   17.8229   24.3591   21.2409 C   0  0  0  0  0  0  0  0  0  0  0  0
   22.5286   24.8108   19.7288 C   0  0  0  0  0  0  0  0  0  0  0  0
    9.6161   19.5845   15.6425 C   0  0  0  0  0  0  0  0  0  0  0  0
    8.4734   20.1092   16.3111 O   0  0  0  0  0  0  0  0  0  0  0  0
    7.8524   19.3893   16.5033 H   0  0  0  0  0  0  0  0  0  0  0  0
    9.2322   19.0028   14.2933 C   0  0  0  0  0  0  0  0  0  0  0  0
    9.8501   19.7278   13.1814 N   0  0  0  0  0  0  0  0  0  0  0  0
   11.3767   19.2788   12.7201 S   0  0  0  0  0  0  0  0  0  0  0  0
   11.4651   19.4707   11.2946 O   0  0  0  0  0  0  0  0  0  0  0  0
   11.6011   17.9504   13.2824 O   0  0  0  0  0  0  0  0  0  0  0  0
   14.3182   22.1732   14.5478 C   0  0  0  0  0  0  0  0  0  0  0  0
   12.9798   22.3207   14.8112 C   0  0  0  0  0  0  0  0  0  0  0  0
   12.0862   21.4133   14.2547 C   0  0  0  0  0  0  0  0  0  0  0  0
   12.5286   20.3428   13.4840 C   0  0  0  0  0  0  0  0  0  0  0  0
   13.8854   20.1456   13.3194 C   0  0  0  0  0  0  0  0  0  0  0  0
   14.7843   21.0113   13.8845 C   0  0  0  0  0  0  0  0  0  0  0  0
   15.3252   23.0018   14.9908 O   0  0  0  0  0  0  0  0  0  0  0  0
   16.6127   22.6204   14.5244 C   0  0  0  0  0  0  0  0  0  0  0  0
    8.9479   20.1564   12.1135 C   0  0  0  0  0  0  0  0  0  0  0  0
    7.8623   21.1236   12.5430 C   0  0  0  0  0  0  0  0  0  0  0  0
    8.4552   22.2820   13.3082 C   0  0  0  0  0  0  0  0  0  0  0  0
    7.0687   21.6041   11.3109 C   0  0  0  0  0  0  0  0  0  0  0  0
    9.4119   17.8645   17.5358 C   0  0  0  0  0  0  0  0  0  0  0  0
   10.8064   15.8709   16.8067 C   0  0  0  0  0  0  0  0  0  0  0  0
   10.9557   14.4778   16.6840 C   0  0  0  0  0  0  0  0  0  0  0  0
   10.0578   13.5853   17.1789 C   0  0  0  0  0  0  0  0  0  0  0  0
    8.9591   14.0977   17.8786 C   0  0  0  0  0  0  0  0  0  0  0  0
    8.7610   15.4506   18.0325 C   0  0  0  0  0  0  0  0  0  0  0  0
    9.6847   16.3690   17.4915 C   0  0  0  0  0  0  0  0  0  0  0  0
 24 20  1  0  0  0
 20 21  1  0  0  0
 20 19  2  0  0  0
 21 22  1  0  0  0
 19 18  1  0  0  0
 48 49  2  0  0  0
 48 47  1  0  0  0
 49 50  1  0  0  0
 22 23  1  0  0  0
 22 18  2  0  0  0
 18 17  1  0  0  0
 47 46  2  0  0  0
 50 51  2  0  0  0
 38 37  2  0  0  0
 38 33  1  0  0  0
 39 33  1  0  0  0
 39 40  1  0  0  0
 46 51  1  0  0  0
 51 45  1  0  0  0
 37 36  1  0  0  0
 31 30  2  0  0  0
 33 34  2  0  0  0
 17 15  1  0  0  0
 36 35  2  0  0  0
 36 30  1  0  0  0
 34 35  1  0  0  0
 45  1  1  0  0  0
 16 15  1  0  0  0
 30 32  2  0  0  0
 30 29  1  0  0  0
 15 13  1  0  0  0
  1  2  1  0  0  0
  1 25  1  0  0  0
 29 28  1  0  0  0
 29 41  1  0  0  0
 28 25  1  0  0  0
 13 14  2  0  0  0
 13 10  1  0  0  0
  2  3  1  0  0  0
 11 10  2  0  0  0
 11  6  1  0  0  0
 25 26  1  0  0  0
  3  4  2  0  0  0
  3  6  1  0  0  0
 10  9  1  0  0  0
 41 42  1  0  0  0
  6  7  2  0  0  0
  9  8  2  0  0  0
 43 42  1  0  0  0
  7  8  1  0  0  0
 42 44  1  0  0  0
  8 12  1  0  0  0
 26 27  1  0  0  0
  2  5  1  0  0  0
M  END
> <minimizedAffinity>
-9.77835

$$$$
4ZIP_G64_B_201


 51 54  0  0  0  0  0  0  0  0999 V2000
   10.0850   19.7335   14.8845 C   0  0  0  0  0  0  0  0  0  0  0  0
   11.1500   19.5393   15.8655 N   0  0  0  0  0  0  0  0  0  0  0  0
   10.9482   19.5275   17.1754 C   0  0  0  0  0  0  0  0  0  0  0  0
    9.8070   19.5092   17.7067 O   0  0  0  0  0  0  0  0  0  0  0  0
   12.0685   19.4100   15.5353 H   0  0  0  0  0  0  0  0  0  0  0  0
   12.1979   19.4932   18.0394 C   0  0  0  0  0  0  0  0  0  0  0  0
   12.1369   18.8676   19.2798 C   0  0  0  0  0  0  0  0  0  0  0  0
   13.3041   18.8220   20.0721 C   0  0  0  0  0  0  0  0  0  0  0  0
   14.4668   19.3858   19.5952 C   0  0  0  0  0  0  0  0  0  0  0  0
   14.4736   20.0662   18.3828 C   0  0  0  0  0  0  0  0  0  0  0  0
   13.3559   20.0647   17.5649 C   0  0  0  0  0  0  0  0  0  0  0  0
   13.2116   18.1303   21.4295 C   0  0  0  0  0  0  0  0  0  0  0  0
   15.7499   20.6746   17.8173 C   0  0  0  0  0  0  0  0  0  0  0  0
   16.6218   19.8857   17.4796 O   0  0  0  0  0  0  0  0  0  0  0  0
   15.9138   21.9658   17.6630 N   0  0  0  0  0  0  0  0  0  0  0  0
   14.9154   22.9492   18.1587 C   0  0  0  0  0  0  0  0  0  0  0  0
   17.0590   22.5367   16.8663 C   0  0  0  0  0  0  0  0  0  0  0  0
   18.1677   23.2609   17.6351 C   0  0  0  0  0  0  0  0  0  0  0  0
   18.6701   24.4597   17.2425 N   0  0  0  0  0  0  0  0  0  0  0  0
   19.5675   24.8487   18.1078 C   0  0  0  0  0  0  0  0  0  0  0  0
   19.7692   23.8824   19.0371 O   0  0  0  0  0  0  0  0  0  0  0  0
   18.9133   22.8553   18.7027 C   0  0  0  0  0  0  0  0  0  0  0  0
   18.7995   21.6814   19.6620 C   0  0  0  0  0  0  0  0  0  0  0  0
   20.4646   26.0697   18.0480 C   0  0  0  0  0  0  0  0  0  0  0  0
    9.6027   18.3657   14.3892 C   0  0  0  0  0  0  0  0  0  0  0  0
    8.6849   17.8194   15.3312 O   0  0  0  0  0  0  0  0  0  0  0  0
    9.1370   17.6759   16.1773 H   0  0  0  0  0  0  0  0  0  0  0  0
   10.7225   17.3831   14.0946 C   0  0  0  0  0  0  0  0  0  0  0  0
   10.3270   15.9979   14.3560 N   0  0  0  0  0  0  0  0  0  0  0  0
    9.8901   15.0618   13.0607 S   0  0  0  0  0  0  0  0  0  0  0  0
    8.6174   15.5492   12.5924 O   0  0  0  0  0  0  0  0  0  0  0  0
   10.0125   13.6742   13.4974 O   0  0  0  0  0  0  0  0  0  0  0  0
   12.8622   15.4580    9.6872 C   0  0  0  0  0  0  0  0  0  0  0  0
   11.5440   15.7629    9.4594 C   0  0  0  0  0  0  0  0  0  0  0  0
   10.6420   15.6516   10.5109 C   0  0  0  0  0  0  0  0  0  0  0  0
   11.0602   15.2869   11.7868 C   0  0  0  0  0  0  0  0  0  0  0  0
   12.4061   15.0902   12.0248 C   0  0  0  0  0  0  0  0  0  0  0  0
   13.3155   15.2242   11.0090 C   0  0  0  0  0  0  0  0  0  0  0  0
   13.8712   15.4831    8.7500 O   0  0  0  0  0  0  0  0  0  0  0  0
   14.7602   14.3786    8.8520 C   0  0  0  0  0  0  0  0  0  0  0  0
   11.0402   15.3194   15.4372 C   0  0  0  0  0  0  0  0  0  0  0  0
   10.2178   15.0656   16.6854 C   0  0  0  0  0  0  0  0  0  0  0  0
   10.2143   13.5957   17.0295 C   0  0  0  0  0  0  0  0  0  0  0  0
   10.7549   15.9201   17.8516 C   0  0  0  0  0  0  0  0  0  0  0  0
   10.6143   20.6436   13.7789 C   0  0  0  0  0  0  0  0  0  0  0  0
   12.6086   22.0001   14.5746 C   0  0  0  0  0  0  0  0  0  0  0  0
   13.9990   22.2113   14.5941 C   0  0  0  0  0  0  0  0  0  0  0  0
   14.8899   21.3653   14.0124 C   0  0  0  0  0  0  0  0  0  0  0  0
   14.3806   20.2111   13.4061 C   0  0  0  0  0  0  0  0  0  0  0  0
   13.0306   19.9499   13.3574 C   0  0  0  0  0  0  0  0  0  0  0  0
   12.1126   20.8481   13.9404 C   0  0  0  0  0  0  0  0  0  0  0  0
 24 20  1  0  0  0
 20 21  1  0  0  0
 20 19  2  0  0  0
 21 22  1  0  0  0
 19 18  1  0  0  0
 48 49  2  0  0  0
 48 47  1  0  0  0
 49 50  1  0  0  0
 22 23  1  0  0  0
 22 18  2  0  0  0
 18 17  1  0  0  0
 47 46  2  0  0  0
 50 51  2  0  0  0
 38 37  2  0  0  0
 38 33  1  0  0  0
 39 33  1  0  0  0
 39 40  1  0  0  0
 46 51  1  0  0  0
 51 45  1  0  0  0
 37 36  1  0  0  0
 31 30  2  0  0  0
 33 34  2  0  0  0
 17 15  1  0  0  0
 36 35  2  0  0  0
 36 30  1  0  0  0
 34 35  1  0  0  0
 45  1  1  0  0  0
 16 15  1  0  0  0
 30 32  2  0  0  0
 30 29  1  0  0  0
 15 13  1  0  0  0
  1  2  1  0  0  0
  1 25  1  0  0  0
 29 28  1  0  0  0
 29 41  1  0  0  0
 28 25  1  0  0  0
 13 14  2  0  0  0
 13 10  1  0  0  0
  2  3  1  0  0  0
 11 10  2  0  0  0
 11  6  1  0  0  0
 25 26  1  0  0  0
  3  4  2  0  0  0
  3  6  1  0  0  0
 10  9  1  0  0  0
 41 42  1  0  0  0
  6  7  2  0  0  0
  9  8  2  0  0  0
 43 42  1  0  0  0
  7  8  1  0  0  0
 42 44  1  0  0  0
  8 12  1  0  0  0
 26 27  1  0  0  0
  2  5  1  0  0  0
M  END
> <minimizedAffinity>
-9.53502

$$$$
4ZIP_G64_B_201


 51 54  0  0  0  0  0  0  0  0999 V2000
   16.7184   22.2873   15.6324 C   0  0  0  0  0  0  0  0  0  0  0  0
   15.8017   21.5796   16.5230 N   0  0  0  0  0  0  0  0  0  0  0  0
   16.1049   20.4451   17.1377 C   0  0  0  0  0  0  0  0  0  0  0  0
   17.2618   19.9492   17.1589 O   0  0  0  0  0  0  0  0  0  0  0  0
   14.9094   21.9668   16.6751 H   0  0  0  0  0  0  0  0  0  0  0  0
   14.9647   19.7659   17.8780 C   0  0  0  0  0  0  0  0  0  0  0  0
   14.9729   19.7704   19.2686 C   0  0  0  0  0  0  0  0  0  0  0  0
   13.9034   19.1542   19.9530 C   0  0  0  0  0  0  0  0  0  0  0  0
   12.8822   18.5771   19.2308 C   0  0  0  0  0  0  0  0  0  0  0  0
   12.9424   18.5273   17.8427 C   0  0  0  0  0  0  0  0  0  0  0  0
   13.9502   19.1824   17.1547 C   0  0  0  0  0  0  0  0  0  0  0  0
   13.9354   19.1720   21.4788 C   0  0  0  0  0  0  0  0  0  0  0  0
   11.8153   17.9214   17.0172 C   0  0  0  0  0  0  0  0  0  0  0  0
   12.0185   16.8043   16.5617 O   0  0  0  0  0  0  0  0  0  0  0  0
   10.6722   18.5312   16.8196 N   0  0  0  0  0  0  0  0  0  0  0  0
   10.4379   19.9273   17.2732 C   0  0  0  0  0  0  0  0  0  0  0  0
    9.4787   17.8219   16.2326 C   0  0  0  0  0  0  0  0  0  0  0  0
    9.2939   17.8805   14.7138 C   0  0  0  0  0  0  0  0  0  0  0  0
    8.8540   18.9924   14.0705 N   0  0  0  0  0  0  0  0  0  0  0  0
    8.8350   18.7610   12.7854 C   0  0  0  0  0  0  0  0  0  0  0  0
    9.1541   17.4664   12.5399 O   0  0  0  0  0  0  0  0  0  0  0  0
    9.3956   16.8989   13.7723 C   0  0  0  0  0  0  0  0  0  0  0  0
    9.9324   15.4771   13.8093 C   0  0  0  0  0  0  0  0  0  0  0  0
    8.3317   19.6622   11.6748 C   0  0  0  0  0  0  0  0  0  0  0  0
   17.2007   23.5680   16.3224 C   0  0  0  0  0  0  0  0  0  0  0  0
   16.4486   24.6765   15.8390 O   0  0  0  0  0  0  0  0  0  0  0  0
   16.6072   24.7848   14.8882 H   0  0  0  0  0  0  0  0  0  0  0  0
   18.6909   23.8242   16.1815 C   0  0  0  0  0  0  0  0  0  0  0  0
   19.2599   24.4535   17.3748 N   0  0  0  0  0  0  0  0  0  0  0  0
   20.1934   25.8060   17.1640 S   0  0  0  0  0  0  0  0  0  0  0  0
   19.2963   26.9212   16.9963 O   0  0  0  0  0  0  0  0  0  0  0  0
   21.1477   25.4851   16.1068 O   0  0  0  0  0  0  0  0  0  0  0  0
   22.4698   26.3858   21.0178 C   0  0  0  0  0  0  0  0  0  0  0  0
   22.6268   25.2179   20.3150 C   0  0  0  0  0  0  0  0  0  0  0  0
   21.9319   25.0587   19.1219 C   0  0  0  0  0  0  0  0  0  0  0  0
   21.1277   26.0733   18.6124 C   0  0  0  0  0  0  0  0  0  0  0  0
   21.0670   27.2829   19.2757 C   0  0  0  0  0  0  0  0  0  0  0  0
   21.7678   27.4712   20.4377 C   0  0  0  0  0  0  0  0  0  0  0  0
   23.0560   26.6861   22.2274 O   0  0  0  0  0  0  0  0  0  0  0  0
   22.1204   27.0779   23.2233 C   0  0  0  0  0  0  0  0  0  0  0  0
   18.4297   24.4177   18.5778 C   0  0  0  0  0  0  0  0  0  0  0  0
   18.9620   23.5438   19.6965 C   0  0  0  0  0  0  0  0  0  0  0  0
   18.6470   24.1523   21.0417 C   0  0  0  0  0  0  0  0  0  0  0  0
   18.3862   22.1186   19.5697 C   0  0  0  0  0  0  0  0  0  0  0  0
   16.0039   22.5278   14.3048 C   0  0  0  0  0  0  0  0  0  0  0  0
   14.6442   20.5137   13.5665 C   0  0  0  0  0  0  0  0  0  0  0  0
   13.3976   19.8747   13.4409 C   0  0  0  0  0  0  0  0  0  0  0  0
   12.2422   20.3899   13.9380 C   0  0  0  0  0  0  0  0  0  0  0  0
   12.3258   21.5961   14.6433 C   0  0  0  0  0  0  0  0  0  0  0  0
   13.5173   22.2661   14.8002 C   0  0  0  0  0  0  0  0  0  0  0  0
   14.7061   21.7363   14.2568 C   0  0  0  0  0  0  0  0  0  0  0  0
 24 20  1  0  0  0
 20 21  1  0  0  0
 20 19  2  0  0  0
 21 22  1  0  0  0
 19 18  1  0  0  0
 48 49  2  0  0  0
 48 47  1  0  0  0
 49 50  1  0  0  0
 22 23  1  0  0  0
 22 18  2  0  0  0
 18 17  1  0  0  0
 47 46  2  0  0  0
 50 51  2  0  0  0
 38 37  2  0  0  0
 38 33  1  0  0  0
 39 33  1  0  0  0
 39 40  1  0  0  0
 46 51  1  0  0  0
 51 45  1  0  0  0
 37 36  1  0  0  0
 31 30  2  0  0  0
 33 34  2  0  0  0
 17 15  1  0  0  0
 36 35  2  0  0  0
 36 30  1  0  0  0
 34 35  1  0  0  0
 45  1  1  0  0  0
 16 15  1  0  0  0
 30 32  2  0  0  0
 30 29  1  0  0  0
 15 13  1  0  0  0
  1  2  1  0  0  0
  1 25  1  0  0  0
 29 28  1  0  0  0
 29 41  1  0  0  0
 28 25  1  0  0  0
 13 14  2  0  0  0
 13 10  1  0  0  0
  2  3  1  0  0  0
 11 10  2  0  0  0
 11  6  1  0  0  0
 25 26  1  0  0  0
  3  4  2  0  0  0
  3  6  1  0  0  0
 10  9  1  0  0  0
 41 42  1  0  0  0
  6  7  2  0  0  0
  9  8  2  0  0  0
 43 42  1  0  0  0
  7  8  1  0  0  0
 42 44  1  0  0  0
  8 12  1  0  0  0
 26 27  1  0  0  0
  2  5  1  0  0  0
M  END
> <minimizedAffinity>
-9.46704

$$$$
4ZIP_G64_B_201


 51 54  0  0  0  0  0  0  0  0999 V2000
   16.4096   23.3194   17.0262 C   0  0  0  0  0  0  0  0  0  0  0  0
   15.5890   22.3090   17.6895 N   0  0  0  0  0  0  0  0  0  0  0  0
   15.8666   21.0130   17.6755 C   0  0  0  0  0  0  0  0  0  0  0  0
   16.9473   20.5343   17.2418 O   0  0  0  0  0  0  0  0  0  0  0  0
   14.7854   22.6071   18.1738 H   0  0  0  0  0  0  0  0  0  0  0  0
   14.8044   20.1001   18.2650 C   0  0  0  0  0  0  0  0  0  0  0  0
   14.7807   19.9024   19.6413 C   0  0  0  0  0  0  0  0  0  0  0  0
   13.7819   19.0680   20.1874 C   0  0  0  0  0  0  0  0  0  0  0  0
   12.8577   18.4834   19.3499 C   0  0  0  0  0  0  0  0  0  0  0  0
   12.9547   18.6446   17.9724 C   0  0  0  0  0  0  0  0  0  0  0  0
   13.8876   19.5101   17.4257 C   0  0  0  0  0  0  0  0  0  0  0  0
   13.7771   18.8664   21.7002 C   0  0  0  0  0  0  0  0  0  0  0  0
   11.9315   18.0340   17.0243 C   0  0  0  0  0  0  0  0  0  0  0  0
   12.1914   16.9191   16.5927 O   0  0  0  0  0  0  0  0  0  0  0  0
   10.8141   18.6376   16.7002 N   0  0  0  0  0  0  0  0  0  0  0  0
   10.5219   20.0313   17.1268 C   0  0  0  0  0  0  0  0  0  0  0  0
    9.6986   17.9227   15.9815 C   0  0  0  0  0  0  0  0  0  0  0  0
    9.7881   17.8186   14.4565 C   0  0  0  0  0  0  0  0  0  0  0  0
   10.0186   16.6451   13.8134 N   0  0  0  0  0  0  0  0  0  0  0  0
   10.0012   16.8557   12.5247 C   0  0  0  0  0  0  0  0  0  0  0  0
    9.8684   18.1807   12.2703 O   0  0  0  0  0  0  0  0  0  0  0  0
    9.7840   18.7929   13.5021 C   0  0  0  0  0  0  0  0  0  0  0  0
    9.4712   20.2802   13.5388 C   0  0  0  0  0  0  0  0  0  0  0  0
   10.3003   15.8753   11.4074 C   0  0  0  0  0  0  0  0  0  0  0  0
   16.7923   24.4016   18.0417 C   0  0  0  0  0  0  0  0  0  0  0  0
   15.6125   25.0445   18.5136 O   0  0  0  0  0  0  0  0  0  0  0  0
   15.1683   25.4882   17.7741 H   0  0  0  0  0  0  0  0  0  0  0  0
   17.7886   25.4200   17.5161 C   0  0  0  0  0  0  0  0  0  0  0  0
   18.9890   24.7877   16.9658 N   0  0  0  0  0  0  0  0  0  0  0  0
   19.5124   25.2896   15.4761 S   0  0  0  0  0  0  0  0  0  0  0  0
   18.4568   26.0821   14.8980 O   0  0  0  0  0  0  0  0  0  0  0  0
   19.9775   24.0935   14.7802 O   0  0  0  0  0  0  0  0  0  0  0  0
   23.1644   27.8400   16.2031 C   0  0  0  0  0  0  0  0  0  0  0  0
   23.3148   26.5975   15.6407 C   0  0  0  0  0  0  0  0  0  0  0  0
   22.1806   25.8288   15.4079 C   0  0  0  0  0  0  0  0  0  0  0  0
   20.9075   26.3148   15.6885 C   0  0  0  0  0  0  0  0  0  0  0  0
   20.7663   27.6082   16.1514 C   0  0  0  0  0  0  0  0  0  0  0  0
   21.8696   28.3933   16.3594 C   0  0  0  0  0  0  0  0  0  0  0  0
   24.1828   28.7084   16.5285 O   0  0  0  0  0  0  0  0  0  0  0  0
   24.2567   29.8359   15.6661 C   0  0  0  0  0  0  0  0  0  0  0  0
   20.0259   24.4278   17.9318 C   0  0  0  0  0  0  0  0  0  0  0  0
   20.0866   25.3100   19.1633 C   0  0  0  0  0  0  0  0  0  0  0  0
   19.7494   24.5165   20.4025 C   0  0  0  0  0  0  0  0  0  0  0  0
   21.4778   25.9670   19.2714 C   0  0  0  0  0  0  0  0  0  0  0  0
   15.6367   23.8452   15.8192 C   0  0  0  0  0  0  0  0  0  0  0  0
   15.7119   21.9179   14.1666 C   0  0  0  0  0  0  0  0  0  0  0  0
   15.0348   20.9438   13.4112 C   0  0  0  0  0  0  0  0  0  0  0  0
   13.6962   20.7260   13.5037 C   0  0  0  0  0  0  0  0  0  0  0  0
   12.9820   21.4908   14.4333 C   0  0  0  0  0  0  0  0  0  0  0  0
   13.5901   22.4570   15.2013 C   0  0  0  0  0  0  0  0  0  0  0  0
   14.9750   22.6937   15.0780 C   0  0  0  0  0  0  0  0  0  0  0  0
 24 20  1  0  0  0
 20 21  1  0  0  0
 20 19  2  0  0  0
 21 22  1  0  0  0
 19 18  1  0  0  0
 48 49  2  0  0  0
 48 47  1  0  0  0
 49 50  1  0  0  0
 22 23  1  0  0  0
 22 18  2  0  0  0
 18 17  1  0  0  0
 47 46  2  0  0  0
 50 51  2  0  0  0
 38 37  2  0  0  0
 38 33  1  0  0  0
 39 33  1  0  0  0
 39 40  1  0  0  0
 46 51  1  0  0  0
 51 45  1  0  0  0
 37 36  1  0  0  0
 31 30  2  0  0  0
 33 34  2  0  0  0
 17 15  1  0  0  0
 36 35  2  0  0  0
 36 30  1  0  0  0
 34 35  1  0  0  0
 45  1  1  0  0  0
 16 15  1  0  0  0
 30 32  2  0  0  0
 30 29  1  0  0  0
 15 13  1  0  0  0
  1  2  1  0  0  0
  1 25  1  0  0  0
 29 28  1  0  0  0
 29 41  1  0  0  0
 28 25  1  0  0  0
 13 14  2  0  0  0
 13 10  1  0  0  0
  2  3  1  0  0  0
 11 10  2  0  0  0
 11  6  1  0  0  0
 25 26  1  0  0  0
  3  4  2  0  0  0
  3  6  1  0  0  0
 10  9  1  0  0  0
 41 42  1  0  0  0
  6  7  2  0  0  0
  9  8  2  0  0  0
 43 42  1  0  0  0
  7  8  1  0  0  0
 42 44  1  0  0  0
  8 12  1  0  0  0
 26 27  1  0  0  0
  2  5  1  0  0  0
M  END
> <minimizedAffinity>
-9.33243

$$$$
4ZIP_G64_B_201


 51 54  0  0  0  0  0  0  0  0999 V2000
   16.4821   22.1361   17.9804 C   0  0  0  0  0  0  0  0  0  0  0  0
   17.0463   23.3282   17.3521 N   0  0  0  0  0  0  0  0  0  0  0  0
   18.1202   23.3102   16.5753 C   0  0  0  0  0  0  0  0  0  0  0  0
   18.6634   22.2539   16.1582 O   0  0  0  0  0  0  0  0  0  0  0  0
   16.6044   24.1929   17.5146 H   0  0  0  0  0  0  0  0  0  0  0  0
   18.6621   24.6679   16.1603 C   0  0  0  0  0  0  0  0  0  0  0  0
   18.1991   25.2413   14.9811 C   0  0  0  0  0  0  0  0  0  0  0  0
   18.6912   26.5103   14.6076 C   0  0  0  0  0  0  0  0  0  0  0  0
   19.6034   27.1470   15.4199 C   0  0  0  0  0  0  0  0  0  0  0  0
   20.0989   26.5135   16.5539 C   0  0  0  0  0  0  0  0  0  0  0  0
   19.5797   25.2983   16.9687 C   0  0  0  0  0  0  0  0  0  0  0  0
   18.1682   27.1183   13.3090 C   0  0  0  0  0  0  0  0  0  0  0  0
   21.0859   27.2038   17.4856 C   0  0  0  0  0  0  0  0  0  0  0  0
   20.6015   27.8418   18.4103 O   0  0  0  0  0  0  0  0  0  0  0  0
   22.3850   27.1072   17.3422 N   0  0  0  0  0  0  0  0  0  0  0  0
   22.9977   26.4260   16.1716 C   0  0  0  0  0  0  0  0  0  0  0  0
   23.3437   27.5681   18.4102 C   0  0  0  0  0  0  0  0  0  0  0  0
   23.2246   26.9276   19.7959 C   0  0  0  0  0  0  0  0  0  0  0  0
   22.6240   27.5500   20.8427 N   0  0  0  0  0  0  0  0  0  0  0  0
   22.6360   26.7516   21.8760 C   0  0  0  0  0  0  0  0  0  0  0  0
   23.3336   25.6255   21.5874 O   0  0  0  0  0  0  0  0  0  0  0  0
   23.7480   25.7651   20.2805 C   0  0  0  0  0  0  0  0  0  0  0  0
   24.4295   24.5784   19.6182 C   0  0  0  0  0  0  0  0  0  0  0  0
   22.1700   27.0368   23.2904 C   0  0  0  0  0  0  0  0  0  0  0  0
   15.0724   21.8969   17.4288 C   0  0  0  0  0  0  0  0  0  0  0  0
   14.1166   22.1331   18.4578 O   0  0  0  0  0  0  0  0  0  0  0  0
   14.2546   21.4993   19.1790 H   0  0  0  0  0  0  0  0  0  0  0  0
   14.8731   20.5236   16.8119 C   0  0  0  0  0  0  0  0  0  0  0  0
   13.5714   20.3955   16.1540 N   0  0  0  0  0  0  0  0  0  0  0  0
   13.4675   20.8253   14.5573 S   0  0  0  0  0  0  0  0  0  0  0  0
   14.3129   19.9231   13.8171 O   0  0  0  0  0  0  0  0  0  0  0  0
   13.7247   22.2612   14.5014 O   0  0  0  0  0  0  0  0  0  0  0  0
    9.2683   20.3107   12.9849 C   0  0  0  0  0  0  0  0  0  0  0  0
   10.2276   19.3884   12.6508 C   0  0  0  0  0  0  0  0  0  0  0  0
   11.5129   19.5502   13.1544 C   0  0  0  0  0  0  0  0  0  0  0  0
   11.8241   20.5936   14.0205 C   0  0  0  0  0  0  0  0  0  0  0  0
   10.8217   21.4489   14.4336 C   0  0  0  0  0  0  0  0  0  0  0  0
    9.5416   21.2890   13.9726 C   0  0  0  0  0  0  0  0  0  0  0  0
    7.9631   20.3147   12.5450 O   0  0  0  0  0  0  0  0  0  0  0  0
    7.8383   20.6049   11.1591 C   0  0  0  0  0  0  0  0  0  0  0  0
   12.7456   19.2659   16.5782 C   0  0  0  0  0  0  0  0  0  0  0  0
   11.7910   19.5638   17.7178 C   0  0  0  0  0  0  0  0  0  0  0  0
   10.3818   19.1688   17.3475 C   0  0  0  0  0  0  0  0  0  0  0  0
   12.2628   18.8476   18.9997 C   0  0  0  0  0  0  0  0  0  0  0  0
   16.5334   22.3246   19.4945 C   0  0  0  0  0  0  0  0  0  0  0  0
   17.8814   24.2631   20.4304 C   0  0  0  0  0  0  0  0  0  0  0  0
   19.1296   24.8628   20.6759 C   0  0  0  0  0  0  0  0  0  0  0  0
   20.3149   24.2541   20.4072 C   0  0  0  0  0  0  0  0  0  0  0  0
   20.2691   22.9500   19.9009 C   0  0  0  0  0  0  0  0  0  0  0  0
   19.0781   22.3114   19.6421 C   0  0  0  0  0  0  0  0  0  0  0  0
   17.8535   22.9622   19.8991 C   0  0  0  0  0  0  0  0  0  0  0  0
 24 20  1  0  0  0
 20 21  1  0  0  0
 20 19  2  0  0  0
 21 22  1  0  0  0
 19 18  1  0  0  0
 48 49  2  0  0  0
 48 47  1  0  0  0
 49 50  1  0  0  0
 22 23  1  0  0  0
 22 18  2  0  0  0
 18 17  1  0  0  0
 47 46  2  0  0  0
 50 51  2  0  0  0
 38 37  2  0  0  0
 38 33  1  0  0  0
 39 33  1  0  0  0
 39 40  1  0  0  0
 46 51  1  0  0  0
 51 45  1  0  0  0
 37 36  1  0  0  0
 31 30  2  0  0  0
 33 34  2  0  0  0
 17 15  1  0  0  0
 36 35  2  0  0  0
 36 30  1  0  0  0
 34 35  1  0  0  0
 45  1  1  0  0  0
 16 15  1  0  0  0
 30 32  2  0  0  0
 30 29  1  0  0  0
 15 13  1  0  0  0
  1  2  1  0  0  0
  1 25  1  0  0  0
 29 28  1  0  0  0
 29 41  1  0  0  0
 28 25  1  0  0  0
 13 14  2  0  0  0
 13 10  1  0  0  0
  2  3  1  0  0  0
 11 10  2  0  0  0
 11  6  1  0  0  0
 25 26  1  0  0  0
  3  4  2  0  0  0
  3  6  1  0  0  0
 10  9  1  0  0  0
 41 42  1  0  0  0
  6  7  2  0  0  0
  9  8  2  0  0  0
 43 42  1  0  0  0
  7  8  1  0  0  0
 42 44  1  0  0  0
  8 12  1  0  0  0
 26 27  1  0  0  0
  2  5  1  0  0  0
M  END
> <minimizedAffinity>
-9.31947

$$$$
4ZIP_G64_B_201


 51 54  0  0  0  0  0  0  0  0999 V2000
   10.5559   18.6164   17.0099 C   0  0  0  0  0  0  0  0  0  0  0  0
   11.6559   19.2273   17.7523 N   0  0  0  0  0  0  0  0  0  0  0  0
   12.9337   19.0559   17.4446 C   0  0  0  0  0  0  0  0  0  0  0  0
   13.3294   18.4962   16.3887 O   0  0  0  0  0  0  0  0  0  0  0  0
   11.4359   19.7979   18.5238 H   0  0  0  0  0  0  0  0  0  0  0  0
   13.9369   19.6217   18.4360 C   0  0  0  0  0  0  0  0  0  0  0  0
   13.7399   19.3907   19.7930 C   0  0  0  0  0  0  0  0  0  0  0  0
   14.6830   19.9023   20.7099 C   0  0  0  0  0  0  0  0  0  0  0  0
   15.7711   20.6038   20.2392 C   0  0  0  0  0  0  0  0  0  0  0  0
   15.8985   20.8780   18.8822 C   0  0  0  0  0  0  0  0  0  0  0  0
   15.0183   20.3295   17.9643 C   0  0  0  0  0  0  0  0  0  0  0  0
   14.4445   19.6359   22.1937 C   0  0  0  0  0  0  0  0  0  0  0  0
   17.1043   21.6261   18.3300 C   0  0  0  0  0  0  0  0  0  0  0  0
   18.1451   20.9885   18.2469 O   0  0  0  0  0  0  0  0  0  0  0  0
   17.0453   22.8731   17.9308 N   0  0  0  0  0  0  0  0  0  0  0  0
   15.8239   23.7000   18.1158 C   0  0  0  0  0  0  0  0  0  0  0  0
   18.1619   23.5159   17.1484 C   0  0  0  0  0  0  0  0  0  0  0  0
   19.1201   24.4391   17.9061 C   0  0  0  0  0  0  0  0  0  0  0  0
   19.4962   24.2112   19.1908 N   0  0  0  0  0  0  0  0  0  0  0  0
   20.3446   25.1345   19.5558 C   0  0  0  0  0  0  0  0  0  0  0  0
   20.4774   26.0602   18.5742 O   0  0  0  0  0  0  0  0  0  0  0  0
   19.6588   25.6399   17.5483 C   0  0  0  0  0  0  0  0  0  0  0  0
   19.7150   26.4017   16.2339 C   0  0  0  0  0  0  0  0  0  0  0  0
   20.9656   25.3543   20.9214 C   0  0  0  0  0  0  0  0  0  0  0  0
    9.8115   19.7047   16.2287 C   0  0  0  0  0  0  0  0  0  0  0  0
    9.0636   20.5088   17.1355 O   0  0  0  0  0  0  0  0  0  0  0  0
    8.3944   19.9621   17.5761 H   0  0  0  0  0  0  0  0  0  0  0  0
    8.9216   19.1723   15.1193 C   0  0  0  0  0  0  0  0  0  0  0  0
    9.6910   18.7434   13.9498 N   0  0  0  0  0  0  0  0  0  0  0  0
   10.2547   19.9159   12.9238 S   0  0  0  0  0  0  0  0  0  0  0  0
    9.4413   21.0878   13.1276 O   0  0  0  0  0  0  0  0  0  0  0  0
   10.3182   19.3058   11.5991 O   0  0  0  0  0  0  0  0  0  0  0  0
   14.5051   20.7564   14.1882 C   0  0  0  0  0  0  0  0  0  0  0  0
   14.2728   19.8919   13.1483 C   0  0  0  0  0  0  0  0  0  0  0  0
   12.9600   19.6539   12.7590 C   0  0  0  0  0  0  0  0  0  0  0  0
   11.8948   20.3088   13.3691 C   0  0  0  0  0  0  0  0  0  0  0  0
   12.1527   21.2572   14.3391 C   0  0  0  0  0  0  0  0  0  0  0  0
   13.4413   21.5286   14.7166 C   0  0  0  0  0  0  0  0  0  0  0  0
   15.7371   21.0725   14.7166 O   0  0  0  0  0  0  0  0  0  0  0  0
   16.1243   22.4183   14.4729 C   0  0  0  0  0  0  0  0  0  0  0  0
   10.5522   17.5771   14.1398 C   0  0  0  0  0  0  0  0  0  0  0  0
   10.0914   16.3194   13.4296 C   0  0  0  0  0  0  0  0  0  0  0  0
   11.1933   15.2877   13.4076 C   0  0  0  0  0  0  0  0  0  0  0  0
    8.8158   15.7729   14.1028 C   0  0  0  0  0  0  0  0  0  0  0  0
    9.6795   17.8511   17.9983 C   0  0  0  0  0  0  0  0  0  0  0  0
    8.5325   15.5886   17.8709 C   0  0  0  0  0  0  0  0  0  0  0  0
    8.6143   14.1996   17.6662 C   0  0  0  0  0  0  0  0  0  0  0  0
    9.7587   13.5669   17.2950 C   0  0  0  0  0  0  0  0  0  0  0  0
   10.8894   14.3605   17.0694 C   0  0  0  0  0  0  0  0  0  0  0  0
   10.8694   15.7241   17.2517 C   0  0  0  0  0  0  0  0  0  0  0  0
    9.6838   16.3676   17.6634 C   0  0  0  0  0  0  0  0  0  0  0  0
 24 20  1  0  0  0
 20 21  1  0  0  0
 20 19  2  0  0  0
 21 22  1  0  0  0
 19 18  1  0  0  0
 48 49  2  0  0  0
 48 47  1  0  0  0
 49 50  1  0  0  0
 22 23  1  0  0  0
 22 18  2  0  0  0
 18 17  1  0  0  0
 47 46  2  0  0  0
 50 51  2  0  0  0
 38 37  2  0  0  0
 38 33  1  0  0  0
 39 33  1  0  0  0
 39 40  1  0  0  0
 46 51  1  0  0  0
 51 45  1  0  0  0
 37 36  1  0  0  0
 31 30  2  0  0  0
 33 34  2  0  0  0
 17 15  1  0  0  0
 36 35  2  0  0  0
 36 30  1  0  0  0
 34 35  1  0  0  0
 45  1  1  0  0  0
 16 15  1  0  0  0
 30 32  2  0  0  0
 30 29  1  0  0  0
 15 13  1  0  0  0
  1  2  1  0  0  0
  1 25  1  0  0  0
 29 28  1  0  0  0
 29 41  1  0  0  0
 28 25  1  0  0  0
 13 14  2  0  0  0
 13 10  1  0  0  0
  2  3  1  0  0  0
 11 10  2  0  0  0
 11  6  1  0  0  0
 25 26  1  0  0  0
  3  4  2  0  0  0
  3  6  1  0  0  0
 10  9  1  0  0  0
 41 42  1  0  0  0
  6  7  2  0  0  0
  9  8  2  0  0  0
 43 42  1  0  0  0
  7  8  1  0  0  0
 42 44  1  0  0  0
  8 12  1  0  0  0
 26 27  1  0  0  0
  2  5  1  0  0  0
M  END
> <minimizedAffinity>
-9.31898

$$$$
