4MC2_525_A_101
  RCSB PDB12061713433D
Coordinates from PDB:4MC2:A:101 Model:1 without hydrogens
 38 41  0  0  0  0            999 V2000
    9.5070   27.5870    8.5360   C 0  0  0  0  0  0  0  0  0  0  0  0
    8.5600   27.8840    7.5760   C 0  0  0  0  0  0  0  0  0  0  0  0
    8.3160   27.0180    6.5290   C 0  0  0  0  0  0  0  0  0  0  0  0
    9.0370   25.8410    6.4120   C 0  0  0  0  0  0  0  0  0  0  0  0
    9.9800   25.5500    7.3920   C 0  0  0  0  0  0  0  0  0  0  0  0
   10.2180   26.4070    8.4470   C 0  0  0  0  0  0  0  0  0  0  0  0
    8.7020   24.9250    5.2690   C 0  0  0  0  0  0  0  0  0  0  0  0
    9.7870   24.7580    4.2080   C 0  0  0  0  0  0  0  0  0  0  0  0
   10.8060   23.6970    4.6200   C 0  0  0  0  0  0  0  0  0  0  0  0
   11.6060   24.0950    5.7950   N 0  0  0  0  0  0  0  0  0  0  0  0
   10.9250   24.0390    7.3450   S 0  0  0  0  0  0  0  0  0  0  0  0
   12.8610   24.8310    5.6040   C 0  0  0  0  0  0  0  0  0  0  0  0
   13.9750   23.9170    5.1380   C 0  0  0  0  0  0  0  0  0  0  0  0
   14.4290   22.8410    6.1140   C 0  0  0  0  0  0  0  0  0  0  0  0
   15.0690   24.7230    4.7620   O 0  0  0  0  0  0  0  0  0  0  0  0
   15.1060   23.3540    7.3810   C 0  0  0  0  0  0  0  0  0  0  0  0
   15.2980   21.9410    5.3940   N 0  0  0  0  0  0  0  0  0  0  0  0
   14.8860   20.6870    5.0050   C 0  0  0  0  0  0  0  0  0  0  0  0
   15.9540   20.0430    4.4260   O 0  0  0  0  0  0  0  0  0  0  0  0
   13.7630   20.2240    5.1850   O 0  0  0  0  0  0  0  0  0  0  0  0
   15.4460   22.2290    8.3010   C 0  0  0  0  0  0  0  0  0  0  0  0
   16.7360   21.7330    8.3290   C 0  0  0  0  0  0  0  0  0  0  0  0
   17.0560   20.6790    9.1640   C 0  0  0  0  0  0  0  0  0  0  0  0
   16.0830   20.1130    9.9630   C 0  0  0  0  0  0  0  0  0  0  0  0
   14.7950   20.6100    9.9400   C 0  0  0  0  0  0  0  0  0  0  0  0
   14.4750   21.6710    9.1140   C 0  0  0  0  0  0  0  0  0  0  0  0
   11.9580   24.0670    8.3530   O 0  0  0  0  0  0  0  0  0  0  0  0
    9.9280   22.9840    7.3410   O 0  0  0  0  0  0  0  0  0  0  0  0
    9.2330   24.4490    2.8110   C 0  0  0  0  0  0  0  0  0  0  0  0
    8.4630   25.6100    2.2290   C 0  0  0  0  0  0  0  0  0  0  0  0
    8.3050   23.2450    2.8000   C 0  0  0  0  0  0  0  0  0  0  0  0
   10.3750   24.1950    1.8500   C 0  0  0  0  0  0  0  0  0  0  0  0
    7.8810   29.0410    7.6750   F 0  0  0  0  0  0  0  0  0  0  0  0
   15.6850   18.7830    3.8160   C 0  0  0  0  0  0  0  0  0  0  0  0
   17.0470   18.1920    3.5210   C 0  0  0  0  0  0  0  0  0  0  0  0
   15.0740   19.0360    2.4590   C 0  0  0  0  0  0  0  0  0  0  0  0
   17.3790   18.6520    2.2160   O 0  0  0  0  0  0  0  0  0  0  0  0
   16.1600   18.6530    1.4900   C 0  0  0  0  0  0  0  0  0  0  0  0
 38 37  1  0  0  0  0
 38 36  1  0  0  0  0
 32 29  1  0  0  0  0
 37 35  1  0  0  0  0
 30 29  1  0  0  0  0
 36 34  1  0  0  0  0
 31 29  1  0  0  0  0
 29  8  1  0  0  0  0
 35 34  1  0  0  0  0
 34 19  1  0  0  0  0
  8  9  1  0  0  0  0
  8  7  1  0  0  0  0
 19 18  1  0  0  0  0
  9 10  1  0  0  0  0
 15 13  1  0  0  0  0
 18 20  2  0  0  0  0
 18 17  1  0  0  0  0
 13 12  1  0  0  0  0
 13 14  1  0  0  0  0
  7  4  1  0  0  0  0
 17 14  1  0  0  0  0
 12 10  1  0  0  0  0
 10 11  1  0  0  0  0
 14 16  1  0  0  0  0
  4  3  2  0  0  0  0
  4  5  1  0  0  0  0
  3  2  1  0  0  0  0
 28 11  2  0  0  0  0
 11  5  1  0  0  0  0
 11 27  2  0  0  0  0
 16 21  1  0  0  0  0
  5  6  2  0  0  0  0
  2 33  1  0  0  0  0
  2  1  2  0  0  0  0
 21 22  2  0  0  0  0
 21 26  1  0  0  0  0
 22 23  1  0  0  0  0
  6  1  1  0  0  0  0
 26 25  2  0  0  0  0
 23 24  2  0  0  0  0
 25 24  1  0  0  0  0
A    1
C1
A    2
C2
A    3
C3
A    4
C4
A    5
C5
A    6
C6
A    7
C7
A    8
C8
A    9
C9
A   10
N10
A   11
S11
A   12
C12
A   13
C13
A   14
C14
A   15
O15
A   16
C16
A   17
N17
A   18
C18
A   19
O19
A   20
O20
A   21
C21
A   22
C22
A   23
C23
A   24
C24
A   25
C25
A   26
C26
A   27
O27
A   28
O28
A   29
C29
A   30
C30
A   31
C31
A   32
C32
A   33
F33
A   34
C34
A   35
C35
A   36
C36
A   37
O37
A   38
C38
M  END
>  <InstanceId>
4MC2_525_A_101

>  <ChemCompId>
525

>  <PdbId>
4MC2

>  <ChainId>
A

>  <ResidueNumber>
101

>  <InsertionCode>


>  <Model>
1

>  <AltIds>


>  <MissingHeavyAtoms>
0

>  <ObservedFormula>
C28 N2 O6 S F

>  <Name>
(3S)-tetrahydrofuran-3-yl {(2S,3R)-4-[(4R)-4-tert-butyl-7-fluoro-1,1-dioxido-4,5-dihydro-1,2-benzothiazepin-2(3H)-yl]-3-hydroxy-1-phenylbutan-2-yl}carbamate

>  <SystematicName>
[(3S)-oxolan-3-yl] N-[(2S,3R)-4-[(4R)-4-tert-butyl-7-fluoranyl-1,1-bis(oxidanylidene)-4,5-dihydro-3H-1$l^{6},2-benzothiazepin-2-yl]-3-oxidanyl-1-phenyl-butan-2-yl]carbamate

>  <Synonyms>


>  <Type>
NON-POLYMER

>  <Formula>
C28 H37 F N2 O6 S

>  <MolecularWeight>
548.667

>  <ModifiedDate>
2014-03-28

>  <Parent>


>  <OneLetterCode>


>  <SubcomponentList>


>  <AmbiguousFlag>
N

>  <InChI>
InChI=1S/C28H37FN2O6S/c1-28(2,3)21-14-20-15-22(29)9-10-26(20)38(34,35)31(16-21)17-25(32)24(13-19-7-5-4-6-8-19)30-27(33)37-23-11-12-36-18-23/h4-10,15,21,23-25,32H,11-14,16-18H2,1-3H3,(H,30,33)/t21-,23-,24-,25+/m0/s1

>  <InChIKey>
UFKSXFTUEDJJKI-BELIEFIBSA-N

>  <SMILES>
CC(C)(C)[C@H]1Cc2cc(ccc2S(=O)(=O)N(C1)C[C@H]([C@H](Cc3ccccc3)NC(=O)O[C@H]4CCOC4)O)F

$$$$
