5ANT_RJE_A_1157


 26 28  0  0  0  0  0  0  0  0999 V2000
   -8.0565   10.6958  -16.8535 C   0  0  0  0  0  0  0  0  0  0  0  0
   -8.6991    9.7388  -17.5055 N   0  0  0  0  0  0  0  0  0  0  0  0
   -8.7258    9.6851  -18.8348 C   0  0  0  0  0  0  0  0  0  0  0  0
   -8.0888   10.5870  -19.5697 N   0  0  0  0  0  0  0  0  0  0  0  0
   -7.4240   11.5862  -18.9922 C   0  0  0  0  0  0  0  0  0  0  0  0
   -6.6691   12.6355  -19.4614 N   0  0  0  0  0  0  0  0  0  0  0  0
   -6.1943   13.3262  -18.4153 C   0  0  0  0  0  0  0  0  0  0  0  0
   -5.4632   14.3081  -18.4936 O   0  0  0  0  0  0  0  0  0  0  0  0
   -6.6407   12.7852  -17.2677 N   0  0  0  0  0  0  0  0  0  0  0  0
   -7.4085   11.6751  -17.5983 C   0  0  0  0  0  0  0  0  0  0  0  0
   -6.4569   13.1155  -16.3587 H   0  0  0  0  0  0  0  0  0  0  0  0
   -9.2549   10.5881  -14.6569 C   0  0  0  0  0  0  0  0  0  0  0  0
   -8.0510   10.7340  -15.4672 N   0  0  0  0  0  0  0  0  0  0  0  0
   -7.1909   10.8661  -15.0067 H   0  0  0  0  0  0  0  0  0  0  0  0
   -9.4317    8.6475  -19.3852 O   0  0  0  0  0  0  0  0  0  0  0  0
   -9.4721    8.7150  -20.8111 C   0  0  0  0  0  0  0  0  0  0  0  0
  -10.9439    8.5858  -21.2203 C   0  0  0  0  0  0  0  0  0  0  0  0
  -11.2724    7.2120  -21.3885 O   0  0  0  0  0  0  0  0  0  0  0  0
  -10.2993    6.3587  -22.0199 C   0  0  0  0  0  0  0  0  0  0  0  0
   -6.2847   12.9051  -20.8551 C   0  0  0  0  0  0  0  0  0  0  0  0
   -7.1550   13.7519  -21.7294 C   0  0  0  0  0  0  0  0  0  0  0  0
   -6.6543   14.8504  -22.4121 C   0  0  0  0  0  0  0  0  0  0  0  0
   -7.5112   15.6237  -23.1853 C   0  0  0  0  0  0  0  0  0  0  0  0
   -8.8534   15.2991  -23.2609 C   0  0  0  0  0  0  0  0  0  0  0  0
   -9.3435   14.2134  -22.5665 C   0  0  0  0  0  0  0  0  0  0  0  0
   -8.4979   13.4375  -21.7918 C   0  0  0  0  0  0  0  0  0  0  0  0
 12 13  1  0  0  0
 13  1  1  0  0  0
  1  2  1  0  0  0
  1 10  2  0  0  0
  2  3  2  0  0  0
  3 15  1  0  0  0
  3  4  1  0  0  0
 15 16  1  0  0  0
 16 17  1  0  0  0
 17 18  1  0  0  0
 18 19  1  0  0  0
  4  5  2  0  0  0
  5  6  1  0  0  0
  5 10  1  0  0  0
  6 20  1  0  0  0
  6  7  1  0  0  0
 20 21  1  0  0  0
 21 22  1  0  0  0
 21 26  2  0  0  0
 22 23  2  0  0  0
 23 24  1  0  0  0
 24 25  2  0  0  0
 25 26  1  0  0  0
  7  8  2  0  0  0
  7  9  1  0  0  0
  9 10  1  0  0  0
 13 14  1  0  0  0
  9 11  1  0  0  0
M  END
> <minimizedAffinity>
-9.36733

$$$$
5ANT_RJE_A_1157


 26 28  0  0  0  0  0  0  0  0999 V2000
  -10.2429    8.5341  -20.5707 C   0  0  0  0  0  0  0  0  0  0  0  0
   -9.4745    8.5812  -19.4931 N   0  0  0  0  0  0  0  0  0  0  0  0
   -8.9194    9.7143  -19.0704 C   0  0  0  0  0  0  0  0  0  0  0  0
   -9.1289   10.8588  -19.7071 N   0  0  0  0  0  0  0  0  0  0  0  0
   -9.8841   10.8972  -20.8036 C   0  0  0  0  0  0  0  0  0  0  0  0
  -10.2958   11.8982  -21.6519 N   0  0  0  0  0  0  0  0  0  0  0  0
  -11.0921   11.3671  -22.5903 C   0  0  0  0  0  0  0  0  0  0  0  0
  -11.6452   11.9995  -23.4842 O   0  0  0  0  0  0  0  0  0  0  0  0
  -11.1924   10.0383  -22.4084 N   0  0  0  0  0  0  0  0  0  0  0  0
  -10.4520    9.7127  -21.2785 C   0  0  0  0  0  0  0  0  0  0  0  0
  -11.6983    9.4104  -22.9733 H   0  0  0  0  0  0  0  0  0  0  0  0
  -10.0481    6.3030  -21.6917 C   0  0  0  0  0  0  0  0  0  0  0  0
  -10.8029    7.3385  -20.9951 N   0  0  0  0  0  0  0  0  0  0  0  0
  -11.7582    7.1807  -20.8172 H   0  0  0  0  0  0  0  0  0  0  0  0
   -8.1409    9.6251  -17.9463 O   0  0  0  0  0  0  0  0  0  0  0  0
   -7.3465   10.7943  -17.7425 C   0  0  0  0  0  0  0  0  0  0  0  0
   -7.7950   11.4095  -16.4118 C   0  0  0  0  0  0  0  0  0  0  0  0
   -7.8638   10.3946  -15.4174 O   0  0  0  0  0  0  0  0  0  0  0  0
   -8.9843   10.4120  -14.5130 C   0  0  0  0  0  0  0  0  0  0  0  0
  -10.0626   13.3429  -21.5066 C   0  0  0  0  0  0  0  0  0  0  0  0
   -8.7070   13.9202  -21.7676 C   0  0  0  0  0  0  0  0  0  0  0  0
   -8.4552   14.7198  -22.8725 C   0  0  0  0  0  0  0  0  0  0  0  0
   -7.1711   15.2045  -23.0873 C   0  0  0  0  0  0  0  0  0  0  0  0
   -6.1555   14.8800  -22.2064 C   0  0  0  0  0  0  0  0  0  0  0  0
   -6.4136   14.0724  -21.1191 C   0  0  0  0  0  0  0  0  0  0  0  0
   -7.6897   13.5829  -20.8973 C   0  0  0  0  0  0  0  0  0  0  0  0
 12 13  1  0  0  0
 13  1  1  0  0  0
  1  2  1  0  0  0
  1 10  2  0  0  0
  2  3  2  0  0  0
  3 15  1  0  0  0
  3  4  1  0  0  0
 15 16  1  0  0  0
 16 17  1  0  0  0
 17 18  1  0  0  0
 18 19  1  0  0  0
  4  5  2  0  0  0
  5  6  1  0  0  0
  5 10  1  0  0  0
  6 20  1  0  0  0
  6  7  1  0  0  0
 20 21  1  0  0  0
 21 22  1  0  0  0
 21 26  2  0  0  0
 22 23  2  0  0  0
 23 24  1  0  0  0
 24 25  2  0  0  0
 25 26  1  0  0  0
  7  8  2  0  0  0
  7  9  1  0  0  0
  9 10  1  0  0  0
 13 14  1  0  0  0
  9 11  1  0  0  0
M  END
> <minimizedAffinity>
-9.34084

$$$$
5ANT_RJE_A_1157


 26 28  0  0  0  0  0  0  0  0999 V2000
  -10.1358    8.5664  -21.1896 C   0  0  0  0  0  0  0  0  0  0  0  0
  -10.7341    9.0071  -22.2859 N   0  0  0  0  0  0  0  0  0  0  0  0
  -10.8289   10.3045  -22.5658 C   0  0  0  0  0  0  0  0  0  0  0  0
  -10.3073   11.2191  -21.7591 N   0  0  0  0  0  0  0  0  0  0  0  0
   -9.6943   10.8602  -20.6324 C   0  0  0  0  0  0  0  0  0  0  0  0
   -9.0528   11.5456  -19.6276 N   0  0  0  0  0  0  0  0  0  0  0  0
   -8.5786   10.6619  -18.7382 C   0  0  0  0  0  0  0  0  0  0  0  0
   -7.9340   10.9499  -17.7350 O   0  0  0  0  0  0  0  0  0  0  0  0
   -8.9169    9.4135  -19.1068 N   0  0  0  0  0  0  0  0  0  0  0  0
   -9.6100    9.5043  -20.3078 C   0  0  0  0  0  0  0  0  0  0  0  0
   -8.7110    8.5858  -18.6152 H   0  0  0  0  0  0  0  0  0  0  0  0
   -9.1813    6.2952  -21.6410 C   0  0  0  0  0  0  0  0  0  0  0  0
  -10.0578    7.2088  -20.9169 N   0  0  0  0  0  0  0  0  0  0  0  0
  -10.6226    6.8434  -20.1982 H   0  0  0  0  0  0  0  0  0  0  0  0
  -11.4782   10.6277  -23.7284 O   0  0  0  0  0  0  0  0  0  0  0  0
  -10.5765   11.0360  -24.7578 C   0  0  0  0  0  0  0  0  0  0  0  0
  -10.6809    9.9949  -25.8783 C   0  0  0  0  0  0  0  0  0  0  0  0
   -9.5014   10.0308  -26.6728 O   0  0  0  0  0  0  0  0  0  0  0  0
   -8.9315   11.3181  -26.9755 C   0  0  0  0  0  0  0  0  0  0  0  0
   -8.7678   12.9872  -19.5718 C   0  0  0  0  0  0  0  0  0  0  0  0
   -7.8289   13.6112  -20.5559 C   0  0  0  0  0  0  0  0  0  0  0  0
   -8.2899   14.3160  -21.6578 C   0  0  0  0  0  0  0  0  0  0  0  0
   -7.3771   14.8483  -22.5597 C   0  0  0  0  0  0  0  0  0  0  0  0
   -6.0214   14.6644  -22.3579 C   0  0  0  0  0  0  0  0  0  0  0  0
   -5.5744   13.9495  -21.2670 C   0  0  0  0  0  0  0  0  0  0  0  0
   -6.4762   13.4135  -20.3633 C   0  0  0  0  0  0  0  0  0  0  0  0
 12 13  1  0  0  0
 13  1  1  0  0  0
  1  2  1  0  0  0
  1 10  2  0  0  0
  2  3  2  0  0  0
  3 15  1  0  0  0
  3  4  1  0  0  0
 15 16  1  0  0  0
 16 17  1  0  0  0
 17 18  1  0  0  0
 18 19  1  0  0  0
  4  5  2  0  0  0
  5  6  1  0  0  0
  5 10  1  0  0  0
  6 20  1  0  0  0
  6  7  1  0  0  0
 20 21  1  0  0  0
 21 22  1  0  0  0
 21 26  2  0  0  0
 22 23  2  0  0  0
 23 24  1  0  0  0
 24 25  2  0  0  0
 25 26  1  0  0  0
  7  8  2  0  0  0
  7  9  1  0  0  0
  9 10  1  0  0  0
 13 14  1  0  0  0
  9 11  1  0  0  0
M  END
> <minimizedAffinity>
-9.21977

$$$$
5ANT_RJE_A_1157


 26 28  0  0  0  0  0  0  0  0999 V2000
   -8.1435   10.5887  -18.6919 C   0  0  0  0  0  0  0  0  0  0  0  0
   -7.6805   11.8036  -18.9440 N   0  0  0  0  0  0  0  0  0  0  0  0
   -8.0730   12.5027  -20.0060 C   0  0  0  0  0  0  0  0  0  0  0  0
   -8.9667   12.0140  -20.8556 N   0  0  0  0  0  0  0  0  0  0  0  0
   -9.4770   10.7966  -20.6783 C   0  0  0  0  0  0  0  0  0  0  0  0
  -10.4075   10.0380  -21.3489 N   0  0  0  0  0  0  0  0  0  0  0  0
  -10.5696    8.8787  -20.6958 C   0  0  0  0  0  0  0  0  0  0  0  0
  -11.3494    7.9899  -21.0226 O   0  0  0  0  0  0  0  0  0  0  0  0
   -9.7487    8.8332  -19.6314 N   0  0  0  0  0  0  0  0  0  0  0  0
   -9.0556   10.0367  -19.5846 C   0  0  0  0  0  0  0  0  0  0  0  0
   -9.6558    8.0834  -19.0002 H   0  0  0  0  0  0  0  0  0  0  0  0
   -7.9854   10.2896  -16.2103 C   0  0  0  0  0  0  0  0  0  0  0  0
   -7.7117    9.8775  -17.5824 N   0  0  0  0  0  0  0  0  0  0  0  0
   -7.1944    9.0527  -17.7283 H   0  0  0  0  0  0  0  0  0  0  0  0
   -7.5128   13.7444  -20.1549 O   0  0  0  0  0  0  0  0  0  0  0  0
   -6.0856   13.6971  -20.1711 C   0  0  0  0  0  0  0  0  0  0  0  0
   -5.6499   13.9322  -21.6220 C   0  0  0  0  0  0  0  0  0  0  0  0
   -6.2577   15.1201  -22.1150 O   0  0  0  0  0  0  0  0  0  0  0  0
   -7.2109   14.9947  -23.1870 C   0  0  0  0  0  0  0  0  0  0  0  0
  -11.2302   10.4455  -22.4977 C   0  0  0  0  0  0  0  0  0  0  0  0
  -10.7383   10.2306  -23.8945 C   0  0  0  0  0  0  0  0  0  0  0  0
  -10.2599   11.2774  -24.6684 C   0  0  0  0  0  0  0  0  0  0  0  0
   -9.8453   11.0305  -25.9711 C   0  0  0  0  0  0  0  0  0  0  0  0
   -9.9208    9.7498  -26.4876 C   0  0  0  0  0  0  0  0  0  0  0  0
  -10.4116    8.7192  -25.7144 C   0  0  0  0  0  0  0  0  0  0  0  0
  -10.8290    8.9552  -24.4154 C   0  0  0  0  0  0  0  0  0  0  0  0
 12 13  1  0  0  0
 13  1  1  0  0  0
  1  2  1  0  0  0
  1 10  2  0  0  0
  2  3  2  0  0  0
  3 15  1  0  0  0
  3  4  1  0  0  0
 15 16  1  0  0  0
 16 17  1  0  0  0
 17 18  1  0  0  0
 18 19  1  0  0  0
  4  5  2  0  0  0
  5  6  1  0  0  0
  5 10  1  0  0  0
  6 20  1  0  0  0
  6  7  1  0  0  0
 20 21  1  0  0  0
 21 22  1  0  0  0
 21 26  2  0  0  0
 22 23  2  0  0  0
 23 24  1  0  0  0
 24 25  2  0  0  0
 25 26  1  0  0  0
  7  8  2  0  0  0
  7  9  1  0  0  0
  9 10  1  0  0  0
 13 14  1  0  0  0
  9 11  1  0  0  0
M  END
> <minimizedAffinity>
-8.52075

$$$$
5ANT_RJE_A_1157


 26 28  0  0  0  0  0  0  0  0999 V2000
   -7.7655   10.1129  -17.0847 C   0  0  0  0  0  0  0  0  0  0  0  0
   -8.2722    9.2564  -17.9585 N   0  0  0  0  0  0  0  0  0  0  0  0
   -8.8321    9.6573  -19.0971 C   0  0  0  0  0  0  0  0  0  0  0  0
   -8.8910   10.9434  -19.4158 N   0  0  0  0  0  0  0  0  0  0  0  0
   -8.4103   11.8703  -18.5890 C   0  0  0  0  0  0  0  0  0  0  0  0
   -8.3061   13.2406  -18.6382 N   0  0  0  0  0  0  0  0  0  0  0  0
   -7.6908   13.6661  -17.5259 C   0  0  0  0  0  0  0  0  0  0  0  0
   -7.4218   14.8362  -17.2742 O   0  0  0  0  0  0  0  0  0  0  0  0
   -7.4152   12.6208  -16.7258 N   0  0  0  0  0  0  0  0  0  0  0  0
   -7.8443   11.4702  -17.3762 C   0  0  0  0  0  0  0  0  0  0  0  0
   -6.9872   12.6631  -15.8402 H   0  0  0  0  0  0  0  0  0  0  0  0
   -7.9339    9.5545  -14.6490 C   0  0  0  0  0  0  0  0  0  0  0  0
   -7.1947    9.6696  -15.9010 N   0  0  0  0  0  0  0  0  0  0  0  0
   -6.2424    9.4201  -15.9061 H   0  0  0  0  0  0  0  0  0  0  0  0
   -9.3240    8.6704  -19.9108 O   0  0  0  0  0  0  0  0  0  0  0  0
  -10.6595    8.9373  -20.3406 C   0  0  0  0  0  0  0  0  0  0  0  0
  -10.8119    8.3107  -21.7314 C   0  0  0  0  0  0  0  0  0  0  0  0
  -11.1796    6.9428  -21.5996 O   0  0  0  0  0  0  0  0  0  0  0  0
  -10.1982    5.9453  -21.9393 C   0  0  0  0  0  0  0  0  0  0  0  0
   -8.6489   14.1215  -19.7649 C   0  0  0  0  0  0  0  0  0  0  0  0
   -7.7155   14.2624  -20.9259 C   0  0  0  0  0  0  0  0  0  0  0  0
   -8.1504   14.7236  -22.1595 C   0  0  0  0  0  0  0  0  0  0  0  0
   -7.2506   14.8051  -23.2148 C   0  0  0  0  0  0  0  0  0  0  0  0
   -5.9355   14.4187  -23.0309 C   0  0  0  0  0  0  0  0  0  0  0  0
   -5.5172   13.9478  -21.8044 C   0  0  0  0  0  0  0  0  0  0  0  0
   -6.4067   13.8611  -20.7468 C   0  0  0  0  0  0  0  0  0  0  0  0
 12 13  1  0  0  0
 13  1  1  0  0  0
  1  2  1  0  0  0
  1 10  2  0  0  0
  2  3  2  0  0  0
  3 15  1  0  0  0
  3  4  1  0  0  0
 15 16  1  0  0  0
 16 17  1  0  0  0
 17 18  1  0  0  0
 18 19  1  0  0  0
  4  5  2  0  0  0
  5  6  1  0  0  0
  5 10  1  0  0  0
  6 20  1  0  0  0
  6  7  1  0  0  0
 20 21  1  0  0  0
 21 22  1  0  0  0
 21 26  2  0  0  0
 22 23  2  0  0  0
 23 24  1  0  0  0
 24 25  2  0  0  0
 25 26  1  0  0  0
  7  8  2  0  0  0
  7  9  1  0  0  0
  9 10  1  0  0  0
 13 14  1  0  0  0
  9 11  1  0  0  0
M  END
> <minimizedAffinity>
-8.27748

$$$$
5ANT_RJE_A_1157


 26 28  0  0  0  0  0  0  0  0999 V2000
   -8.2807   13.5575  -21.2481 C   0  0  0  0  0  0  0  0  0  0  0  0
   -7.5478   13.1681  -20.2161 N   0  0  0  0  0  0  0  0  0  0  0  0
   -7.7796   12.0243  -19.5768 C   0  0  0  0  0  0  0  0  0  0  0  0
   -8.7532   11.2098  -19.9614 N   0  0  0  0  0  0  0  0  0  0  0  0
   -9.5409   11.5300  -20.9865 C   0  0  0  0  0  0  0  0  0  0  0  0
  -10.5906   10.9093  -21.6219 N   0  0  0  0  0  0  0  0  0  0  0  0
  -10.9966   11.6825  -22.6388 C   0  0  0  0  0  0  0  0  0  0  0  0
  -11.9002   11.4015  -23.4195 O   0  0  0  0  0  0  0  0  0  0  0  0
  -10.2689   12.8130  -22.6744 N   0  0  0  0  0  0  0  0  0  0  0  0
   -9.3307   12.7401  -21.6519 C   0  0  0  0  0  0  0  0  0  0  0  0
  -10.3806   13.5570  -23.3094 H   0  0  0  0  0  0  0  0  0  0  0  0
   -7.0148   14.9089  -22.9345 C   0  0  0  0  0  0  0  0  0  0  0  0
   -8.0237   14.7586  -21.8921 N   0  0  0  0  0  0  0  0  0  0  0  0
   -8.5488   15.5498  -21.6323 H   0  0  0  0  0  0  0  0  0  0  0  0
   -6.9527   11.7418  -18.5212 O   0  0  0  0  0  0  0  0  0  0  0  0
   -7.6772   11.4946  -17.3157 C   0  0  0  0  0  0  0  0  0  0  0  0
   -7.3876   10.0440  -16.9130 C   0  0  0  0  0  0  0  0  0  0  0  0
   -7.6699    9.8685  -15.5298 O   0  0  0  0  0  0  0  0  0  0  0  0
   -8.8584   10.4860  -15.0008 C   0  0  0  0  0  0  0  0  0  0  0  0
  -11.1122    9.5574  -21.3705 C   0  0  0  0  0  0  0  0  0  0  0  0
  -10.4272    8.3619  -21.9542 C   0  0  0  0  0  0  0  0  0  0  0  0
   -9.5245    7.6076  -21.2196 C   0  0  0  0  0  0  0  0  0  0  0  0
   -8.8906    6.5261  -21.8184 C   0  0  0  0  0  0  0  0  0  0  0  0
   -9.1565    6.2163  -23.1397 C   0  0  0  0  0  0  0  0  0  0  0  0
  -10.0447    6.9817  -23.8652 C   0  0  0  0  0  0  0  0  0  0  0  0
  -10.6803    8.0627  -23.2780 C   0  0  0  0  0  0  0  0  0  0  0  0
 12 13  1  0  0  0
 13  1  1  0  0  0
  1  2  1  0  0  0
  1 10  2  0  0  0
  2  3  2  0  0  0
  3 15  1  0  0  0
  3  4  1  0  0  0
 15 16  1  0  0  0
 16 17  1  0  0  0
 17 18  1  0  0  0
 18 19  1  0  0  0
  4  5  2  0  0  0
  5  6  1  0  0  0
  5 10  1  0  0  0
  6 20  1  0  0  0
  6  7  1  0  0  0
 20 21  1  0  0  0
 21 22  1  0  0  0
 21 26  2  0  0  0
 22 23  2  0  0  0
 23 24  1  0  0  0
 24 25  2  0  0  0
 25 26  1  0  0  0
  7  8  2  0  0  0
  7  9  1  0  0  0
  9 10  1  0  0  0
 13 14  1  0  0  0
  9 11  1  0  0  0
M  END
> <minimizedAffinity>
-8.11201

$$$$
5ANT_RJE_A_1157


 26 28  0  0  0  0  0  0  0  0999 V2000
   -8.0240   10.2018  -17.0321 C   0  0  0  0  0  0  0  0  0  0  0  0
   -8.5353    9.3222  -17.8800 N   0  0  0  0  0  0  0  0  0  0  0  0
   -8.7889    9.6300  -19.1495 C   0  0  0  0  0  0  0  0  0  0  0  0
   -8.5212   10.8377  -19.6281 N   0  0  0  0  0  0  0  0  0  0  0  0
   -8.0120   11.7827  -18.8398 C   0  0  0  0  0  0  0  0  0  0  0  0
   -7.6175   13.0858  -19.0336 N   0  0  0  0  0  0  0  0  0  0  0  0
   -7.1339   13.5656  -17.8792 C   0  0  0  0  0  0  0  0  0  0  0  0
   -6.6759   14.6928  -17.7225 O   0  0  0  0  0  0  0  0  0  0  0  0
   -7.2281   12.6297  -16.9180 N   0  0  0  0  0  0  0  0  0  0  0  0
   -7.7655   11.4865  -17.4972 C   0  0  0  0  0  0  0  0  0  0  0  0
   -6.9643   12.7353  -15.9754 H   0  0  0  0  0  0  0  0  0  0  0  0
   -8.6888   10.1724  -14.6176 C   0  0  0  0  0  0  0  0  0  0  0  0
   -7.7768    9.8581  -15.7115 N   0  0  0  0  0  0  0  0  0  0  0  0
   -6.9435    9.3776  -15.5017 H   0  0  0  0  0  0  0  0  0  0  0  0
   -9.3237    8.6309  -19.9200 O   0  0  0  0  0  0  0  0  0  0  0  0
  -10.6498    8.9327  -20.3556 C   0  0  0  0  0  0  0  0  0  0  0  0
  -10.8194    8.2930  -21.7384 C   0  0  0  0  0  0  0  0  0  0  0  0
  -11.2049    6.9318  -21.5892 O   0  0  0  0  0  0  0  0  0  0  0  0
  -10.2265    5.9177  -21.8860 C   0  0  0  0  0  0  0  0  0  0  0  0
   -7.5644   13.8220  -20.3055 C   0  0  0  0  0  0  0  0  0  0  0  0
   -8.6675   13.6823  -21.3069 C   0  0  0  0  0  0  0  0  0  0  0  0
   -8.4425   13.8392  -22.6664 C   0  0  0  0  0  0  0  0  0  0  0  0
   -9.5071   13.7317  -23.5524 C   0  0  0  0  0  0  0  0  0  0  0  0
  -10.7797   13.4793  -23.0735 C   0  0  0  0  0  0  0  0  0  0  0  0
  -10.9947   13.3396  -21.7188 C   0  0  0  0  0  0  0  0  0  0  0  0
   -9.9405   13.4466  -20.8275 C   0  0  0  0  0  0  0  0  0  0  0  0
 12 13  1  0  0  0
 13  1  1  0  0  0
  1  2  1  0  0  0
  1 10  2  0  0  0
  2  3  2  0  0  0
  3 15  1  0  0  0
  3  4  1  0  0  0
 15 16  1  0  0  0
 16 17  1  0  0  0
 17 18  1  0  0  0
 18 19  1  0  0  0
  4  5  2  0  0  0
  5  6  1  0  0  0
  5 10  1  0  0  0
  6 20  1  0  0  0
  6  7  1  0  0  0
 20 21  1  0  0  0
 21 22  1  0  0  0
 21 26  2  0  0  0
 22 23  2  0  0  0
 23 24  1  0  0  0
 24 25  2  0  0  0
 25 26  1  0  0  0
  7  8  2  0  0  0
  7  9  1  0  0  0
  9 10  1  0  0  0
 13 14  1  0  0  0
  9 11  1  0  0  0
M  END
> <minimizedAffinity>
-8.04569

$$$$
5ANT_RJE_A_1157


 26 28  0  0  0  0  0  0  0  0999 V2000
   -9.9651    7.9984  -20.9269 C   0  0  0  0  0  0  0  0  0  0  0  0
   -9.5426    8.2706  -19.7016 N   0  0  0  0  0  0  0  0  0  0  0  0
   -9.3250    9.5173  -19.2903 C   0  0  0  0  0  0  0  0  0  0  0  0
   -9.5412   10.5509  -20.0928 N   0  0  0  0  0  0  0  0  0  0  0  0
   -9.9603   10.3636  -21.3431 C   0  0  0  0  0  0  0  0  0  0  0  0
  -10.2852   11.2023  -22.3832 N   0  0  0  0  0  0  0  0  0  0  0  0
  -10.6908   10.4610  -23.4238 C   0  0  0  0  0  0  0  0  0  0  0  0
  -11.0747   10.9084  -24.4995 O   0  0  0  0  0  0  0  0  0  0  0  0
  -10.6114    9.1544  -23.1148 N   0  0  0  0  0  0  0  0  0  0  0  0
  -10.1670    9.0604  -21.8015 C   0  0  0  0  0  0  0  0  0  0  0  0
  -10.8286    8.4015  -23.7108 H   0  0  0  0  0  0  0  0  0  0  0  0
  -10.4471    6.3140  -22.7166 C   0  0  0  0  0  0  0  0  0  0  0  0
  -10.1763    6.6895  -21.3335 N   0  0  0  0  0  0  0  0  0  0  0  0
  -10.1416    5.9777  -20.6543 H   0  0  0  0  0  0  0  0  0  0  0  0
   -8.8828    9.6616  -18.0013 O   0  0  0  0  0  0  0  0  0  0  0  0
   -7.5600   10.1961  -17.9382 C   0  0  0  0  0  0  0  0  0  0  0  0
   -7.6490   11.5101  -17.1536 C   0  0  0  0  0  0  0  0  0  0  0  0
   -6.4385   12.2408  -17.3099 O   0  0  0  0  0  0  0  0  0  0  0  0
   -6.5324   13.6305  -17.6752 C   0  0  0  0  0  0  0  0  0  0  0  0
  -10.3485   12.6714  -22.3583 C   0  0  0  0  0  0  0  0  0  0  0  0
   -9.0911   13.4824  -22.3444 C   0  0  0  0  0  0  0  0  0  0  0  0
   -8.1062   13.2846  -21.3882 C   0  0  0  0  0  0  0  0  0  0  0  0
   -6.9718   14.0864  -21.3992 C   0  0  0  0  0  0  0  0  0  0  0  0
   -6.8376   15.0778  -22.3540 C   0  0  0  0  0  0  0  0  0  0  0  0
   -7.8295   15.2755  -23.2911 C   0  0  0  0  0  0  0  0  0  0  0  0
   -8.9648   14.4828  -23.2875 C   0  0  0  0  0  0  0  0  0  0  0  0
 12 13  1  0  0  0
 13  1  1  0  0  0
  1  2  1  0  0  0
  1 10  2  0  0  0
  2  3  2  0  0  0
  3 15  1  0  0  0
  3  4  1  0  0  0
 15 16  1  0  0  0
 16 17  1  0  0  0
 17 18  1  0  0  0
 18 19  1  0  0  0
  4  5  2  0  0  0
  5  6  1  0  0  0
  5 10  1  0  0  0
  6 20  1  0  0  0
  6  7  1  0  0  0
 20 21  1  0  0  0
 21 22  1  0  0  0
 21 26  2  0  0  0
 22 23  2  0  0  0
 23 24  1  0  0  0
 24 25  2  0  0  0
 25 26  1  0  0  0
  7  8  2  0  0  0
  7  9  1  0  0  0
  9 10  1  0  0  0
 13 14  1  0  0  0
  9 11  1  0  0  0
M  END
> <minimizedAffinity>
-7.79810

$$$$
5ANT_RJE_A_1157


 26 28  0  0  0  0  0  0  0  0999 V2000
   -8.4442   10.5190  -19.0736 C   0  0  0  0  0  0  0  0  0  0  0  0
   -8.8600    9.2873  -19.3267 N   0  0  0  0  0  0  0  0  0  0  0  0
   -9.7111    9.0180  -20.3135 C   0  0  0  0  0  0  0  0  0  0  0  0
  -10.1695    9.9793  -21.1041 N   0  0  0  0  0  0  0  0  0  0  0  0
   -9.8059   11.2463  -20.9132 C   0  0  0  0  0  0  0  0  0  0  0  0
  -10.0817   12.4317  -21.5533 N   0  0  0  0  0  0  0  0  0  0  0  0
   -9.4034   13.4164  -20.9474 C   0  0  0  0  0  0  0  0  0  0  0  0
   -9.4132   14.5935  -21.2924 O   0  0  0  0  0  0  0  0  0  0  0  0
   -8.7133   12.9232  -19.9036 N   0  0  0  0  0  0  0  0  0  0  0  0
   -8.9353   11.5519  -19.8645 C   0  0  0  0  0  0  0  0  0  0  0  0
   -8.1528   13.4397  -19.2806 H   0  0  0  0  0  0  0  0  0  0  0  0
   -7.9126   10.6052  -16.6277 C   0  0  0  0  0  0  0  0  0  0  0  0
   -7.5631   10.7742  -18.0335 N   0  0  0  0  0  0  0  0  0  0  0  0
   -6.6557   11.0852  -18.2553 H   0  0  0  0  0  0  0  0  0  0  0  0
  -10.0668    7.7034  -20.4649 O   0  0  0  0  0  0  0  0  0  0  0  0
   -9.3726    7.0742  -21.5427 C   0  0  0  0  0  0  0  0  0  0  0  0
   -9.8374    5.6138  -21.5779 C   0  0  0  0  0  0  0  0  0  0  0  0
  -10.3882    5.3202  -22.8563 O   0  0  0  0  0  0  0  0  0  0  0  0
  -10.0535    6.1936  -23.9511 C   0  0  0  0  0  0  0  0  0  0  0  0
  -10.8531   12.6187  -22.7913 C   0  0  0  0  0  0  0  0  0  0  0  0
  -10.5026   11.8472  -24.0246 C   0  0  0  0  0  0  0  0  0  0  0  0
  -11.0203   10.5834  -24.2660 C   0  0  0  0  0  0  0  0  0  0  0  0
  -10.6378    9.8951  -25.4106 C   0  0  0  0  0  0  0  0  0  0  0  0
   -9.7404   10.4690  -26.2925 C   0  0  0  0  0  0  0  0  0  0  0  0
   -9.2206   11.7199  -26.0354 C   0  0  0  0  0  0  0  0  0  0  0  0
   -9.5942   12.4133  -24.8966 C   0  0  0  0  0  0  0  0  0  0  0  0
 12 13  1  0  0  0
 13  1  1  0  0  0
  1  2  1  0  0  0
  1 10  2  0  0  0
  2  3  2  0  0  0
  3 15  1  0  0  0
  3  4  1  0  0  0
 15 16  1  0  0  0
 16 17  1  0  0  0
 17 18  1  0  0  0
 18 19  1  0  0  0
  4  5  2  0  0  0
  5  6  1  0  0  0
  5 10  1  0  0  0
  6 20  1  0  0  0
  6  7  1  0  0  0
 20 21  1  0  0  0
 21 22  1  0  0  0
 21 26  2  0  0  0
 22 23  2  0  0  0
 23 24  1  0  0  0
 24 25  2  0  0  0
 25 26  1  0  0  0
  7  8  2  0  0  0
  7  9  1  0  0  0
  9 10  1  0  0  0
 13 14  1  0  0  0
  9 11  1  0  0  0
M  END
> <minimizedAffinity>
-7.62266

$$$$
5ANT_RJE_A_1157


 26 28  0  0  0  0  0  0  0  0999 V2000
  -10.9593    9.4261  -24.2423 C   0  0  0  0  0  0  0  0  0  0  0  0
  -11.4282   10.6570  -24.1049 N   0  0  0  0  0  0  0  0  0  0  0  0
  -11.4221   11.2884  -22.9336 C   0  0  0  0  0  0  0  0  0  0  0  0
  -10.9248   10.7121  -21.8474 N   0  0  0  0  0  0  0  0  0  0  0  0
  -10.4394    9.4729  -21.8982 C   0  0  0  0  0  0  0  0  0  0  0  0
   -9.8543    8.6320  -20.9809 N   0  0  0  0  0  0  0  0  0  0  0  0
   -9.5153    7.4910  -21.5974 C   0  0  0  0  0  0  0  0  0  0  0  0
   -8.9499    6.5430  -21.0622 O   0  0  0  0  0  0  0  0  0  0  0  0
   -9.8898    7.5383  -22.8883 N   0  0  0  0  0  0  0  0  0  0  0  0
  -10.4635    8.7838  -23.1131 C   0  0  0  0  0  0  0  0  0  0  0  0
   -9.7777    6.8209  -23.5531 H   0  0  0  0  0  0  0  0  0  0  0  0
  -10.6506    9.4508  -26.7277 C   0  0  0  0  0  0  0  0  0  0  0  0
  -10.9849    8.7869  -25.4728 N   0  0  0  0  0  0  0  0  0  0  0  0
  -11.2418    7.8369  -25.5007 H   0  0  0  0  0  0  0  0  0  0  0  0
  -11.9424   12.5561  -22.9259 O   0  0  0  0  0  0  0  0  0  0  0  0
  -11.0949   13.4862  -22.2506 C   0  0  0  0  0  0  0  0  0  0  0  0
   -9.9889   13.8769  -23.2377 C   0  0  0  0  0  0  0  0  0  0  0  0
   -8.7257   13.8147  -22.5863 O   0  0  0  0  0  0  0  0  0  0  0  0
   -7.7630   14.8436  -22.8829 C   0  0  0  0  0  0  0  0  0  0  0  0
   -9.4931    8.9422  -19.5895 C   0  0  0  0  0  0  0  0  0  0  0  0
   -8.6119   10.1113  -19.2795 C   0  0  0  0  0  0  0  0  0  0  0  0
   -7.9959   10.8461  -20.2815 C   0  0  0  0  0  0  0  0  0  0  0  0
   -7.1610   11.9026  -19.9397 C   0  0  0  0  0  0  0  0  0  0  0  0
   -6.9439   12.2066  -18.6081 C   0  0  0  0  0  0  0  0  0  0  0  0
   -7.5498   11.4603  -17.6197 C   0  0  0  0  0  0  0  0  0  0  0  0
   -8.3823   10.4044  -17.9501 C   0  0  0  0  0  0  0  0  0  0  0  0
 12 13  1  0  0  0
 13  1  1  0  0  0
  1  2  1  0  0  0
  1 10  2  0  0  0
  2  3  2  0  0  0
  3 15  1  0  0  0
  3  4  1  0  0  0
 15 16  1  0  0  0
 16 17  1  0  0  0
 17 18  1  0  0  0
 18 19  1  0  0  0
  4  5  2  0  0  0
  5  6  1  0  0  0
  5 10  1  0  0  0
  6 20  1  0  0  0
  6  7  1  0  0  0
 20 21  1  0  0  0
 21 22  1  0  0  0
 21 26  2  0  0  0
 22 23  2  0  0  0
 23 24  1  0  0  0
 24 25  2  0  0  0
 25 26  1  0  0  0
  7  8  2  0  0  0
  7  9  1  0  0  0
  9 10  1  0  0  0
 13 14  1  0  0  0
  9 11  1  0  0  0
M  END
> <minimizedAffinity>
-7.44188

$$$$
