6EXI_ADN_A_502
  RCSB PDB09151803313D
Coordinates from PDB:6EXI:A:502 Model:1 without hydrogens
 19 21  0  0  0  0            999 V2000
  -13.1710   64.7330   22.1520   O 0  0  0  0  0  0  0  0  0  0  0  0
  -13.9790   64.1560   21.1410   C 0  0  0  0  0  0  0  0  0  0  0  0
  -14.2060   65.0990   19.9680   C 0  0  0  0  0  0  0  0  0  0  0  0
  -15.2140   66.0810   20.3040   O 0  0  0  0  0  0  0  0  0  0  0  0
  -13.0140   65.8920   19.4500   C 0  0  0  0  0  0  0  0  0  0  0  0
  -13.2140   66.1370   18.0610   O 0  0  0  0  0  0  0  0  0  0  0  0
  -13.1310   67.2180   20.2020   C 0  0  0  0  0  0  0  0  0  0  0  0
  -12.5760   68.3370   19.5460   O 0  0  0  0  0  0  0  0  0  0  0  0
  -14.6540   67.3840   20.3420   C 0  0  0  0  0  0  0  0  0  0  0  0
  -15.0350   67.9460   21.6410   N 0  0  0  0  0  0  0  0  0  0  0  0
  -14.5730   67.4690   22.7770   C 0  0  0  0  0  0  0  0  0  0  0  0
  -15.1540   68.1430   23.8450   N 0  0  0  0  0  0  0  0  0  0  0  0
  -16.0010   69.0770   23.3120   C 0  0  0  0  0  0  0  0  0  0  0  0
  -16.8390   70.0570   23.8850   C 0  0  0  0  0  0  0  0  0  0  0  0
  -16.8910   70.2180   25.2940   N 0  0  0  0  0  0  0  0  0  0  0  0
  -17.5810   70.8380   23.0930   N 0  0  0  0  0  0  0  0  0  0  0  0
  -17.5150   70.7130   21.7470   C 0  0  0  0  0  0  0  0  0  0  0  0
  -16.7470   69.8100   21.1500   N 0  0  0  0  0  0  0  0  0  0  0  0
  -15.9650   68.9720   21.9000   C 0  0  0  0  0  0  0  0  0  0  0  0
  1  2  1  0  0  0  0
  2  3  1  0  0  0  0
  3  4  1  0  0  0  0
  3  5  1  0  0  0  0
  4  9  1  0  0  0  0
  5  6  1  0  0  0  0
  5  7  1  0  0  0  0
  7  8  1  0  0  0  0
  7  9  1  0  0  0  0
  9 10  1  0  0  0  0
 10 11  1  0  0  0  0
 10 19  1  0  0  0  0
 11 12  2  0  0  0  0
 12 13  1  0  0  0  0
 13 14  1  0  0  0  0
 13 19  2  0  0  0  0
 14 15  1  0  0  0  0
 14 16  2  0  0  0  0
 16 17  1  0  0  0  0
 17 18  2  0  0  0  0
 18 19  1  0  0  0  0
A    1
O5'
A    2
C5'
A    3
C4'
A    4
O4'
A    5
C3'
A    6
O3'
A    7
C2'
A    8
O2'
A    9
C1'
A   10
N9
A   11
C8
A   12
N7
A   13
C5
A   14
C6
A   15
N6
A   16
N1
A   17
C2
A   18
N3
A   19
C4
M  END
>  <InstanceId>
6EXI_ADN_A_502

>  <ChemCompId>
ADN

>  <PdbId>
6EXI

>  <ChainId>
A

>  <ResidueNumber>
502

>  <InsertionCode>


>  <Model>
1

>  <AltIds>


>  <MissingHeavyAtoms>
0

>  <ObservedFormula>
C10 N5 O4

>  <Name>
ADENOSINE

>  <SystematicName>
(2R,3R,4S,5R)-2-(6-aminopurin-9-yl)-5-(hydroxymethyl)oxolane-3,4-diol

>  <Synonyms>


>  <Type>
NON-POLYMER

>  <Formula>
C10 H13 N5 O4

>  <MolecularWeight>
267.241

>  <ModifiedDate>
2011-06-04

>  <Parent>


>  <OneLetterCode>


>  <SubcomponentList>


>  <AmbiguousFlag>
N

>  <InChI>
InChI=1S/C10H13N5O4/c11-8-5-9(13-2-12-8)15(3-14-5)10-7(18)6(17)4(1-16)19-10/h2-4,6-7,10,16-18H,1H2,(H2,11,12,13)/t4-,6-,7-,10-/m1/s1

>  <InChIKey>
OIRDTQYFTABQOQ-KQYNXXCUSA-N

>  <SMILES>
c1nc(c2c(n1)n(cn2)[C@H]3[C@@H]([C@@H]([C@H](O3)CO)O)O)N

$$$$
