2UXZ_HI1_A_1100


 52 55  0  0  0  0  0  0  0  0999 V2000
   12.6615   23.1991    4.3134 C   0  0  0  0  0  0  0  0  0  0  0  0
   13.2315   23.6696    5.6806 C   0  0  0  0  0  0  0  0  0  0  0  0
   14.4608   22.8784    6.1988 C   0  0  0  0  0  0  0  0  0  0  0  0
   15.5662   23.5755    5.6342 O   0  0  0  0  0  0  0  0  0  0  0  0
   15.5078   24.5157    5.8657 H   0  0  0  0  0  0  0  0  0  0  0  0
   14.5118   21.3657    5.8538 C   0  0  0  0  0  0  0  0  0  0  0  0
   13.5471   20.6163    6.0641 O   0  0  0  0  0  0  0  0  0  0  0  0
   15.6966   20.9317    5.3538 N   0  0  0  0  0  0  0  0  0  0  0  0
   16.4230   21.5820    5.2167 H   0  0  0  0  0  0  0  0  0  0  0  0
   15.9341   19.4945    5.0037 C   0  0  0  0  0  0  0  0  0  0  0  0
   15.8070   19.1821    3.5502 C   0  0  0  0  0  0  0  0  0  0  0  0
   16.8761   18.2940    3.2228 C   0  0  0  0  0  0  0  0  0  0  0  0
   14.8436   19.6224    2.5625 C   0  0  0  0  0  0  0  0  0  0  0  0
   14.9985   19.1317    1.1980 C   0  0  0  0  0  0  0  0  0  0  0  0
   16.0933   18.2259    0.8667 C   0  0  0  0  0  0  0  0  0  0  0  0
   17.3992   19.2098    5.3835 C   0  0  0  0  0  0  0  0  0  0  0  0
   18.2876   20.2691    4.9907 O   0  0  0  0  0  0  0  0  0  0  0  0
   17.0470   17.7966    1.8813 C   0  0  0  0  0  0  0  0  0  0  0  0
   17.7253   18.0088    4.4609 C   0  0  0  0  0  0  0  0  0  0  0  0
   18.2071   20.4213    4.0361 H   0  0  0  0  0  0  0  0  0  0  0  0
   14.5708   23.0070    7.7570 C   0  0  0  0  0  0  0  0  0  0  0  0
   15.6565   22.0907    8.3824 C   0  0  0  0  0  0  0  0  0  0  0  0
   17.0625   22.3714    8.2467 C   0  0  0  0  0  0  0  0  0  0  0  0
   18.0348   21.4873    8.8101 C   0  0  0  0  0  0  0  0  0  0  0  0
   17.6093   20.3108    9.5068 C   0  0  0  0  0  0  0  0  0  0  0  0
   16.2100   20.0229    9.6509 C   0  0  0  0  0  0  0  0  0  0  0  0
   15.2336   20.9058    9.0892 C   0  0  0  0  0  0  0  0  0  0  0  0
   12.0396   24.3274    3.4898 C   0  0  0  0  0  0  0  0  0  0  0  0
   10.6171   24.3099    3.6318 N   0  0  0  0  0  0  0  0  0  0  0  0
    9.8748   25.1127    5.8969 C   0  0  0  0  0  0  0  0  0  0  0  0
    9.8021   23.9497    6.3341 O   0  0  0  0  0  0  0  0  0  0  0  0
   10.2508   25.3935    4.6382 N   0  0  0  0  0  0  0  0  0  0  0  0
   10.2913   26.3356    4.3552 H   0  0  0  0  0  0  0  0  0  0  0  0
    9.5232   26.2896    6.7972 C   0  0  0  0  0  0  0  0  0  0  0  0
    7.9545   27.7611    4.8085 O   0  0  0  0  0  0  0  0  0  0  0  0
    8.0695   26.2650    6.5490 N   0  0  0  0  0  0  0  0  0  0  0  0
    7.4517   26.9793    5.6132 C   0  0  0  0  0  0  0  0  0  0  0  0
    7.5181   25.6787    7.1160 H   0  0  0  0  0  0  0  0  0  0  0  0
    5.1647   27.6131    5.0355 C   0  0  0  0  0  0  0  0  0  0  0  0
    6.0733   26.6985    5.6664 O   0  0  0  0  0  0  0  0  0  0  0  0
    9.8817   26.3827    8.3234 C   0  0  0  0  0  0  0  0  0  0  0  0
    9.6552   27.8185    8.8089 C   0  0  0  0  0  0  0  0  0  0  0  0
    8.9801   25.4836    9.1625 C   0  0  0  0  0  0  0  0  0  0  0  0
   11.3415   26.0856    8.6079 C   0  0  0  0  0  0  0  0  0  0  0  0
    9.9766   24.6537    2.3778 C   0  0  0  0  0  0  0  0  0  0  0  0
    8.4452   24.6508    2.4895 C   0  0  0  0  0  0  0  0  0  0  0  0
    7.8047   23.6281    3.2657 C   0  0  0  0  0  0  0  0  0  0  0  0
    6.3895   23.6158    3.3963 C   0  0  0  0  0  0  0  0  0  0  0  0
    5.6114   24.6294    2.7543 C   0  0  0  0  0  0  0  0  0  0  0  0
    6.2371   25.6586    1.9715 C   0  0  0  0  0  0  0  0  0  0  0  0
    7.6706   25.6692    1.8399 C   0  0  0  0  0  0  0  0  0  0  0  0
    3.7807   24.5751    2.9596 Br  0  0  0  0  0  0  0  0  0  0  0  0
 21 22  1  0  0  0
  1  2  1  0  0  0
 22 23  1  0  0  0
  2  3  1  0  0  0
 23 24  2  0  0  0
 24 25  1  0  0  0
 25 26  2  0  0  0
 22 27  2  0  0  0
 26 27  1  0  0  0
 45 46  1  0  0  0
 46 47  1  0  0  0
 47 48  2  0  0  0
 48 49  1  0  0  0
 49 50  2  0  0  0
 46 51  2  0  0  0
 50 51  1  0  0  0
 29 45  1  0  0  0
  1 28  1  0  0  0
 37 35  2  0  0  0
 37 36  1  0  0  0
  3 21  1  0  0  0
  3  4  1  0  0  0
 39 40  1  0  0  0
  3  6  1  0  0  0
  8  6  1  0  0  0
  6  7  2  0  0  0
  8 10  1  0  0  0
 10 11  1  0  0  0
 11 12  2  0  0  0
 18 12  1  0  0  0
 11 13  1  0  0  0
 13 14  2  0  0  0
 14 15  1  0  0  0
 10 16  1  0  0  0
 19 16  1  0  0  0
 16 17  1  0  0  0
 40 37  1  0  0  0
 15 18  2  0  0  0
 12 19  1  0  0  0
 41 34  1  0  0  0
 36 34  1  0  0  0
 41 42  1  0  0  0
 30 31  2  0  0  0
 29 32  1  0  0  0
 30 32  1  0  0  0
 49 52  1  0  0  0
 41 44  1  0  0  0
 41 43  1  0  0  0
 34 30  1  0  0  0
 28 29  1  0  0  0
 36 38  1  0  0  0
  4  5  1  0  0  0
  8  9  1  0  0  0
 17 20  1  0  0  0
 32 33  1  0  0  0
M  END
> <minimizedAffinity>
-11.64657

$$$$
2UXZ_HI1_A_1100


 52 55  0  0  0  0  0  0  0  0999 V2000
   13.0496   23.2817    4.3609 C   0  0  0  0  0  0  0  0  0  0  0  0
   11.9306   22.8801    5.3620 C   0  0  0  0  0  0  0  0  0  0  0  0
   10.6430   23.7430    5.3046 C   0  0  0  0  0  0  0  0  0  0  0  0
    9.9317   23.3558    6.4753 O   0  0  0  0  0  0  0  0  0  0  0  0
   10.5055   23.4574    7.2507 H   0  0  0  0  0  0  0  0  0  0  0  0
    9.7622   23.5969    4.0347 C   0  0  0  0  0  0  0  0  0  0  0  0
    9.6780   22.5238    3.4199 O   0  0  0  0  0  0  0  0  0  0  0  0
    9.1393   24.7347    3.6355 N   0  0  0  0  0  0  0  0  0  0  0  0
    9.2544   25.5537    4.1696 H   0  0  0  0  0  0  0  0  0  0  0  0
    8.2820   24.7839    2.4078 C   0  0  0  0  0  0  0  0  0  0  0  0
    6.8299   24.5476    2.6567 C   0  0  0  0  0  0  0  0  0  0  0  0
    6.1142   25.4871    1.8543 C   0  0  0  0  0  0  0  0  0  0  0  0
    6.1533   23.5937    3.5111 C   0  0  0  0  0  0  0  0  0  0  0  0
    4.6955   23.6207    3.5366 C   0  0  0  0  0  0  0  0  0  0  0  0
    3.9676   24.5834    2.7169 C   0  0  0  0  0  0  0  0  0  0  0  0
    8.4032   26.2229    1.8724 C   0  0  0  0  0  0  0  0  0  0  0  0
    8.3342   27.2083    2.9164 O   0  0  0  0  0  0  0  0  0  0  0  0
    4.6740   25.5303    1.8638 C   0  0  0  0  0  0  0  0  0  0  0  0
    7.0891   26.3586    1.0634 C   0  0  0  0  0  0  0  0  0  0  0  0
    7.5071   27.0980    3.4110 H   0  0  0  0  0  0  0  0  0  0  0  0
   11.0011   25.2617    5.4535 C   0  0  0  0  0  0  0  0  0  0  0  0
   10.8246   25.8045    6.8971 C   0  0  0  0  0  0  0  0  0  0  0  0
    9.6466   26.5273    7.3017 C   0  0  0  0  0  0  0  0  0  0  0  0
    9.5328   27.0396    8.6318 C   0  0  0  0  0  0  0  0  0  0  0  0
   10.5998   26.8402    9.5659 C   0  0  0  0  0  0  0  0  0  0  0  0
   11.7775   26.1182    9.1741 C   0  0  0  0  0  0  0  0  0  0  0  0
   11.8949   25.6032    7.8439 C   0  0  0  0  0  0  0  0  0  0  0  0
   14.3611   23.6808    5.0383 C   0  0  0  0  0  0  0  0  0  0  0  0
   14.8092   22.6279    5.8953 N   0  0  0  0  0  0  0  0  0  0  0  0
   15.5019   20.4137    4.9237 C   0  0  0  0  0  0  0  0  0  0  0  0
   14.5360   19.8309    5.4493 O   0  0  0  0  0  0  0  0  0  0  0  0
   15.7221   21.7310    5.0685 N   0  0  0  0  0  0  0  0  0  0  0  0
   16.5033   22.1322    4.6234 H   0  0  0  0  0  0  0  0  0  0  0  0
   16.4990   19.6301    4.0806 C   0  0  0  0  0  0  0  0  0  0  0  0
   18.9842   19.9794    5.5914 O   0  0  0  0  0  0  0  0  0  0  0  0
   17.0468   18.8139    5.1802 N   0  0  0  0  0  0  0  0  0  0  0  0
   18.1952   19.0605    5.8031 C   0  0  0  0  0  0  0  0  0  0  0  0
   16.5257   18.0318    5.4734 H   0  0  0  0  0  0  0  0  0  0  0  0
   18.7376   16.7502    6.3811 C   0  0  0  0  0  0  0  0  0  0  0  0
   18.3916   18.0804    6.7943 O   0  0  0  0  0  0  0  0  0  0  0  0
   16.1219   18.7785    2.8160 C   0  0  0  0  0  0  0  0  0  0  0  0
   15.7692   17.3528    3.2536 C   0  0  0  0  0  0  0  0  0  0  0  0
   14.8928   19.3428    2.1116 C   0  0  0  0  0  0  0  0  0  0  0  0
   17.2722   18.6283    1.8389 C   0  0  0  0  0  0  0  0  0  0  0  0
   15.6028   23.1616    6.9845 C   0  0  0  0  0  0  0  0  0  0  0  0
   16.1238   22.0584    7.9166 C   0  0  0  0  0  0  0  0  0  0  0  0
   15.1874   21.1483    8.5113 C   0  0  0  0  0  0  0  0  0  0  0  0
   15.6491   20.1092    9.3641 C   0  0  0  0  0  0  0  0  0  0  0  0
   17.0494   19.9751    9.6209 C   0  0  0  0  0  0  0  0  0  0  0  0
   17.9996   20.8796    9.0354 C   0  0  0  0  0  0  0  0  0  0  0  0
   17.5301   21.9317    8.1722 C   0  0  0  0  0  0  0  0  0  0  0  0
   17.5994   18.6076   10.7272 Br  0  0  0  0  0  0  0  0  0  0  0  0
 21 22  1  0  0  0
  1  2  1  0  0  0
 22 23  1  0  0  0
  2  3  1  0  0  0
 23 24  2  0  0  0
 24 25  1  0  0  0
 25 26  2  0  0  0
 22 27  2  0  0  0
 26 27  1  0  0  0
 45 46  1  0  0  0
 46 47  1  0  0  0
 47 48  2  0  0  0
 48 49  1  0  0  0
 49 50  2  0  0  0
 46 51  2  0  0  0
 50 51  1  0  0  0
 29 45  1  0  0  0
  1 28  1  0  0  0
 37 35  2  0  0  0
 37 36  1  0  0  0
  3 21  1  0  0  0
  3  4  1  0  0  0
 39 40  1  0  0  0
  3  6  1  0  0  0
  8  6  1  0  0  0
  6  7  2  0  0  0
  8 10  1  0  0  0
 10 11  1  0  0  0
 11 12  2  0  0  0
 18 12  1  0  0  0
 11 13  1  0  0  0
 13 14  2  0  0  0
 14 15  1  0  0  0
 10 16  1  0  0  0
 19 16  1  0  0  0
 16 17  1  0  0  0
 40 37  1  0  0  0
 15 18  2  0  0  0
 12 19  1  0  0  0
 41 34  1  0  0  0
 36 34  1  0  0  0
 41 42  1  0  0  0
 30 31  2  0  0  0
 29 32  1  0  0  0
 30 32  1  0  0  0
 49 52  1  0  0  0
 41 44  1  0  0  0
 41 43  1  0  0  0
 34 30  1  0  0  0
 28 29  1  0  0  0
 36 38  1  0  0  0
  4  5  1  0  0  0
  8  9  1  0  0  0
 17 20  1  0  0  0
 32 33  1  0  0  0
M  END
> <minimizedAffinity>
-10.65519

$$$$
2UXZ_HI1_A_1100


 52 55  0  0  0  0  0  0  0  0999 V2000
   12.2720   24.4768    5.3394 C   0  0  0  0  0  0  0  0  0  0  0  0
   13.4197   23.8846    4.4746 C   0  0  0  0  0  0  0  0  0  0  0  0
   14.5026   23.0939    5.2543 C   0  0  0  0  0  0  0  0  0  0  0  0
   15.7239   23.6643    4.7966 O   0  0  0  0  0  0  0  0  0  0  0  0
   15.6968   24.6264    4.9176 H   0  0  0  0  0  0  0  0  0  0  0  0
   14.4999   21.5513    5.0800 C   0  0  0  0  0  0  0  0  0  0  0  0
   13.4509   20.8923    5.1237 O   0  0  0  0  0  0  0  0  0  0  0  0
   15.7258   20.9903    4.9240 N   0  0  0  0  0  0  0  0  0  0  0  0
   16.5182   21.5742    4.9033 H   0  0  0  0  0  0  0  0  0  0  0  0
   15.9115   19.5104    4.7822 C   0  0  0  0  0  0  0  0  0  0  0  0
   15.8954   19.0164    3.3744 C   0  0  0  0  0  0  0  0  0  0  0  0
   16.9372   18.0461    3.2643 C   0  0  0  0  0  0  0  0  0  0  0  0
   15.0492   19.3663    2.2523 C   0  0  0  0  0  0  0  0  0  0  0  0
   15.2956   18.6947    0.9815 C   0  0  0  0  0  0  0  0  0  0  0  0
   16.3623   17.7053    0.8723 C   0  0  0  0  0  0  0  0  0  0  0  0
   17.3191   19.2126    5.3318 C   0  0  0  0  0  0  0  0  0  0  0  0
   18.2970   20.1706    4.8942 O   0  0  0  0  0  0  0  0  0  0  0  0
   17.1972   17.3702    2.0186 C   0  0  0  0  0  0  0  0  0  0  0  0
   17.6566   17.8878    4.6033 C   0  0  0  0  0  0  0  0  0  0  0  0
   18.3096   20.1999    3.9247 H   0  0  0  0  0  0  0  0  0  0  0  0
   14.3915   23.3917    6.7892 C   0  0  0  0  0  0  0  0  0  0  0  0
   15.2572   22.4514    7.6702 C   0  0  0  0  0  0  0  0  0  0  0  0
   14.6820   21.3647    8.4200 C   0  0  0  0  0  0  0  0  0  0  0  0
   15.5068   20.5385    9.2455 C   0  0  0  0  0  0  0  0  0  0  0  0
   16.9125   20.7973    9.3345 C   0  0  0  0  0  0  0  0  0  0  0  0
   17.4969   21.8762    8.5886 C   0  0  0  0  0  0  0  0  0  0  0  0
   16.6750   22.7049    7.7605 C   0  0  0  0  0  0  0  0  0  0  0  0
   10.9085   24.4473    4.6480 C   0  0  0  0  0  0  0  0  0  0  0  0
    9.9331   25.1033    5.4618 N   0  0  0  0  0  0  0  0  0  0  0  0
    7.8069   25.9105    4.3876 C   0  0  0  0  0  0  0  0  0  0  0  0
    8.1453   27.1019    4.5102 O   0  0  0  0  0  0  0  0  0  0  0  0
    8.5770   24.8903    4.8007 N   0  0  0  0  0  0  0  0  0  0  0  0
    8.2528   23.9698    4.6713 H   0  0  0  0  0  0  0  0  0  0  0  0
    6.4676   25.5592    3.7537 C   0  0  0  0  0  0  0  0  0  0  0  0
    4.1028   26.1438    5.3808 O   0  0  0  0  0  0  0  0  0  0  0  0
    5.8105   26.8532    4.0164 N   0  0  0  0  0  0  0  0  0  0  0  0
    4.7307   27.0107    4.7760 C   0  0  0  0  0  0  0  0  0  0  0  0
    6.1987   27.6566    3.6003 H   0  0  0  0  0  0  0  0  0  0  0  0
    3.2659   28.7864    5.5929 C   0  0  0  0  0  0  0  0  0  0  0  0
    4.3908   28.3765    4.8012 O   0  0  0  0  0  0  0  0  0  0  0  0
    6.2833   25.0691    2.2730 C   0  0  0  0  0  0  0  0  0  0  0  0
    6.6523   26.2066    1.3147 C   0  0  0  0  0  0  0  0  0  0  0  0
    7.2113   23.9020    1.9537 C   0  0  0  0  0  0  0  0  0  0  0  0
    4.8469   24.7119    1.9420 C   0  0  0  0  0  0  0  0  0  0  0  0
    9.8719   24.4921    6.7746 C   0  0  0  0  0  0  0  0  0  0  0  0
    9.6904   25.5317    7.8899 C   0  0  0  0  0  0  0  0  0  0  0  0
    8.3797   26.0546    8.1490 C   0  0  0  0  0  0  0  0  0  0  0  0
    8.1857   27.0054    9.1874 C   0  0  0  0  0  0  0  0  0  0  0  0
    9.3020   27.4324    9.9725 C   0  0  0  0  0  0  0  0  0  0  0  0
   10.6211   26.9206    9.7242 C   0  0  0  0  0  0  0  0  0  0  0  0
   10.8157   25.9579    8.6716 C   0  0  0  0  0  0  0  0  0  0  0  0
    8.9985   28.6611   11.3123 Br  0  0  0  0  0  0  0  0  0  0  0  0
 21 22  1  0  0  0
  1  2  1  0  0  0
 22 23  1  0  0  0
  2  3  1  0  0  0
 23 24  2  0  0  0
 24 25  1  0  0  0
 25 26  2  0  0  0
 22 27  2  0  0  0
 26 27  1  0  0  0
 45 46  1  0  0  0
 46 47  1  0  0  0
 47 48  2  0  0  0
 48 49  1  0  0  0
 49 50  2  0  0  0
 46 51  2  0  0  0
 50 51  1  0  0  0
 29 45  1  0  0  0
  1 28  1  0  0  0
 37 35  2  0  0  0
 37 36  1  0  0  0
  3 21  1  0  0  0
  3  4  1  0  0  0
 39 40  1  0  0  0
  3  6  1  0  0  0
  8  6  1  0  0  0
  6  7  2  0  0  0
  8 10  1  0  0  0
 10 11  1  0  0  0
 11 12  2  0  0  0
 18 12  1  0  0  0
 11 13  1  0  0  0
 13 14  2  0  0  0
 14 15  1  0  0  0
 10 16  1  0  0  0
 19 16  1  0  0  0
 16 17  1  0  0  0
 40 37  1  0  0  0
 15 18  2  0  0  0
 12 19  1  0  0  0
 41 34  1  0  0  0
 36 34  1  0  0  0
 41 42  1  0  0  0
 30 31  2  0  0  0
 29 32  1  0  0  0
 30 32  1  0  0  0
 49 52  1  0  0  0
 41 44  1  0  0  0
 41 43  1  0  0  0
 34 30  1  0  0  0
 28 29  1  0  0  0
 36 38  1  0  0  0
  4  5  1  0  0  0
  8  9  1  0  0  0
 17 20  1  0  0  0
 32 33  1  0  0  0
M  END
> <minimizedAffinity>
-10.53659

$$$$
2UXZ_HI1_A_1100


 52 55  0  0  0  0  0  0  0  0999 V2000
   11.3770   22.9120    3.3043 C   0  0  0  0  0  0  0  0  0  0  0  0
   11.6496   22.1704    4.6426 C   0  0  0  0  0  0  0  0  0  0  0  0
   13.0777   22.3440    5.2226 C   0  0  0  0  0  0  0  0  0  0  0  0
   13.0930   23.6961    5.6675 O   0  0  0  0  0  0  0  0  0  0  0  0
   12.3445   23.8483    6.2654 H   0  0  0  0  0  0  0  0  0  0  0  0
   14.2607   22.0528    4.2606 C   0  0  0  0  0  0  0  0  0  0  0  0
   15.1345   22.9003    4.0269 O   0  0  0  0  0  0  0  0  0  0  0  0
   14.2331   20.8300    3.6723 N   0  0  0  0  0  0  0  0  0  0  0  0
   13.5055   20.2074    3.9008 H   0  0  0  0  0  0  0  0  0  0  0  0
   15.2748   20.3976    2.6861 C   0  0  0  0  0  0  0  0  0  0  0  0
   16.1421   19.2768    3.1530 C   0  0  0  0  0  0  0  0  0  0  0  0
   16.3047   18.3904    2.0454 C   0  0  0  0  0  0  0  0  0  0  0  0
   16.7581   19.0217    4.4386 C   0  0  0  0  0  0  0  0  0  0  0  0
   17.5591   17.8112    4.5787 C   0  0  0  0  0  0  0  0  0  0  0  0
   17.7215   16.9067    3.4454 C   0  0  0  0  0  0  0  0  0  0  0  0
   14.4988   19.8681    1.4656 C   0  0  0  0  0  0  0  0  0  0  0  0
   13.3811   19.0444    1.8367 O   0  0  0  0  0  0  0  0  0  0  0  0
   17.0925   17.1896    2.1618 C   0  0  0  0  0  0  0  0  0  0  0  0
   15.5433   18.9173    0.8296 C   0  0  0  0  0  0  0  0  0  0  0  0
   13.6905   18.3089    2.3882 H   0  0  0  0  0  0  0  0  0  0  0  0
   13.2650   21.4325    6.4840 C   0  0  0  0  0  0  0  0  0  0  0  0
   14.6452   21.6005    7.1742 C   0  0  0  0  0  0  0  0  0  0  0  0
   15.0692   22.8567    7.7365 C   0  0  0  0  0  0  0  0  0  0  0  0
   16.3608   22.9818    8.3371 C   0  0  0  0  0  0  0  0  0  0  0  0
   17.2422   21.8538    8.3730 C   0  0  0  0  0  0  0  0  0  0  0  0
   16.8285   20.5957    7.8183 C   0  0  0  0  0  0  0  0  0  0  0  0
   15.5362   20.4661    7.2170 C   0  0  0  0  0  0  0  0  0  0  0  0
   11.1193   24.4093    3.4770 C   0  0  0  0  0  0  0  0  0  0  0  0
    9.7580   24.6313    3.8530 N   0  0  0  0  0  0  0  0  0  0  0  0
    9.7353   25.2132    6.2999 C   0  0  0  0  0  0  0  0  0  0  0  0
    9.7022   24.0137    6.6301 O   0  0  0  0  0  0  0  0  0  0  0  0
    9.7662   25.6133    5.0179 N   0  0  0  0  0  0  0  0  0  0  0  0
    9.7952   26.5780    4.8236 H   0  0  0  0  0  0  0  0  0  0  0  0
    9.7349   26.2987    7.3679 C   0  0  0  0  0  0  0  0  0  0  0  0
    7.9419   28.5969    7.6582 O   0  0  0  0  0  0  0  0  0  0  0  0
    8.2761   26.3246    7.5834 N   0  0  0  0  0  0  0  0  0  0  0  0
    7.5507   27.4323    7.7042 C   0  0  0  0  0  0  0  0  0  0  0  0
    7.8065   25.4612    7.6419 H   0  0  0  0  0  0  0  0  0  0  0  0
    5.2281   27.5557    6.9586 C   0  0  0  0  0  0  0  0  0  0  0  0
    6.2032   27.0720    7.8942 O   0  0  0  0  0  0  0  0  0  0  0  0
   10.5501   26.2306    8.7086 C   0  0  0  0  0  0  0  0  0  0  0  0
   10.7199   27.6467    9.2693 C   0  0  0  0  0  0  0  0  0  0  0  0
    9.8116   25.4200    9.7682 C   0  0  0  0  0  0  0  0  0  0  0  0
   11.9582   25.6997    8.5190 C   0  0  0  0  0  0  0  0  0  0  0  0
    9.0264   25.2564    2.7691 C   0  0  0  0  0  0  0  0  0  0  0  0
    7.5626   24.7961    2.7169 C   0  0  0  0  0  0  0  0  0  0  0  0
    7.1271   23.7547    3.6027 C   0  0  0  0  0  0  0  0  0  0  0  0
    5.7727   23.3245    3.5831 C   0  0  0  0  0  0  0  0  0  0  0  0
    4.8490   23.9379    2.6801 C   0  0  0  0  0  0  0  0  0  0  0  0
    5.2696   24.9798    1.7850 C   0  0  0  0  0  0  0  0  0  0  0  0
    6.6420   25.4141    1.8060 C   0  0  0  0  0  0  0  0  0  0  0  0
    3.1022   23.3507    2.6975 Br  0  0  0  0  0  0  0  0  0  0  0  0
 21 22  1  0  0  0
  1  2  1  0  0  0
 22 23  1  0  0  0
  2  3  1  0  0  0
 23 24  2  0  0  0
 24 25  1  0  0  0
 25 26  2  0  0  0
 22 27  2  0  0  0
 26 27  1  0  0  0
 45 46  1  0  0  0
 46 47  1  0  0  0
 47 48  2  0  0  0
 48 49  1  0  0  0
 49 50  2  0  0  0
 46 51  2  0  0  0
 50 51  1  0  0  0
 29 45  1  0  0  0
  1 28  1  0  0  0
 37 35  2  0  0  0
 37 36  1  0  0  0
  3 21  1  0  0  0
  3  4  1  0  0  0
 39 40  1  0  0  0
  3  6  1  0  0  0
  8  6  1  0  0  0
  6  7  2  0  0  0
  8 10  1  0  0  0
 10 11  1  0  0  0
 11 12  2  0  0  0
 18 12  1  0  0  0
 11 13  1  0  0  0
 13 14  2  0  0  0
 14 15  1  0  0  0
 10 16  1  0  0  0
 19 16  1  0  0  0
 16 17  1  0  0  0
 40 37  1  0  0  0
 15 18  2  0  0  0
 12 19  1  0  0  0
 41 34  1  0  0  0
 36 34  1  0  0  0
 41 42  1  0  0  0
 30 31  2  0  0  0
 29 32  1  0  0  0
 30 32  1  0  0  0
 49 52  1  0  0  0
 41 44  1  0  0  0
 41 43  1  0  0  0
 34 30  1  0  0  0
 28 29  1  0  0  0
 36 38  1  0  0  0
  4  5  1  0  0  0
  8  9  1  0  0  0
 17 20  1  0  0  0
 32 33  1  0  0  0
M  END
> <minimizedAffinity>
-10.50707

$$$$
2UXZ_HI1_A_1100


 52 55  0  0  0  0  0  0  0  0999 V2000
   12.1527   22.4062    4.7991 C   0  0  0  0  0  0  0  0  0  0  0  0
   11.7721   22.7939    3.3429 C   0  0  0  0  0  0  0  0  0  0  0  0
   10.6860   23.8930    3.2074 C   0  0  0  0  0  0  0  0  0  0  0  0
   11.4377   25.0701    2.9317 O   0  0  0  0  0  0  0  0  0  0  0  0
   12.0152   24.9135    2.1682 H   0  0  0  0  0  0  0  0  0  0  0  0
    9.7448   24.0966    4.4250 C   0  0  0  0  0  0  0  0  0  0  0  0
    8.9438   23.2210    4.7832 O   0  0  0  0  0  0  0  0  0  0  0  0
    9.8393   25.3100    5.0255 N   0  0  0  0  0  0  0  0  0  0  0  0
   10.4951   25.9606    4.6851 H   0  0  0  0  0  0  0  0  0  0  0  0
    8.9771   25.6909    6.1901 C   0  0  0  0  0  0  0  0  0  0  0  0
    9.7276   26.1914    7.3786 C   0  0  0  0  0  0  0  0  0  0  0  0
    9.0000   27.3101    7.8865 C   0  0  0  0  0  0  0  0  0  0  0  0
   10.9535   25.7278    7.9949 C   0  0  0  0  0  0  0  0  0  0  0  0
   11.4389   26.4488    9.1658 C   0  0  0  0  0  0  0  0  0  0  0  0
   10.6939   27.5926    9.6808 C   0  0  0  0  0  0  0  0  0  0  0  0
    8.1078   26.8635    5.6989 C   0  0  0  0  0  0  0  0  0  0  0  0
    8.8550   27.8212    4.9308 O   0  0  0  0  0  0  0  0  0  0  0  0
    9.4613   28.0360    9.0426 C   0  0  0  0  0  0  0  0  0  0  0  0
    7.7559   27.5627    7.0357 C   0  0  0  0  0  0  0  0  0  0  0  0
    9.6004   28.1482    5.4585 H   0  0  0  0  0  0  0  0  0  0  0  0
    9.7816   23.6103    1.9588 C   0  0  0  0  0  0  0  0  0  0  0  0
    8.4924   24.4739    1.9154 C   0  0  0  0  0  0  0  0  0  0  0  0
    7.1815   23.8958    2.0610 C   0  0  0  0  0  0  0  0  0  0  0  0
    6.0148   24.7188    1.9844 C   0  0  0  0  0  0  0  0  0  0  0  0
    6.1491   26.1257    1.7533 C   0  0  0  0  0  0  0  0  0  0  0  0
    7.4514   26.7131    1.6100 C   0  0  0  0  0  0  0  0  0  0  0  0
    8.6217   25.8929    1.6868 C   0  0  0  0  0  0  0  0  0  0  0  0
   13.4102   23.1102    5.3100 C   0  0  0  0  0  0  0  0  0  0  0  0
   14.2121   22.1954    6.0609 N   0  0  0  0  0  0  0  0  0  0  0  0
   15.3095   20.1925    5.0072 C   0  0  0  0  0  0  0  0  0  0  0  0
   14.6661   19.4064    5.7263 O   0  0  0  0  0  0  0  0  0  0  0  0
   15.1694   21.5264    5.0825 N   0  0  0  0  0  0  0  0  0  0  0  0
   15.7058   22.0934    4.4825 H   0  0  0  0  0  0  0  0  0  0  0  0
   16.3107   19.6540    3.9939 C   0  0  0  0  0  0  0  0  0  0  0  0
   18.8632   20.1330    5.3490 O   0  0  0  0  0  0  0  0  0  0  0  0
   17.0493   18.7857    4.9297 N   0  0  0  0  0  0  0  0  0  0  0  0
   18.2119   19.1003    5.4931 C   0  0  0  0  0  0  0  0  0  0  0  0
   16.6539   17.9122    5.1529 H   0  0  0  0  0  0  0  0  0  0  0  0
   18.5325   16.7002    5.8136 C   0  0  0  0  0  0  0  0  0  0  0  0
   18.6127   18.0386    6.3259 O   0  0  0  0  0  0  0  0  0  0  0  0
   15.9225   18.9237    2.6588 C   0  0  0  0  0  0  0  0  0  0  0  0
   15.6183   17.4518    2.9579 C   0  0  0  0  0  0  0  0  0  0  0  0
   14.6611   19.5209    2.0443 C   0  0  0  0  0  0  0  0  0  0  0  0
   17.0502   18.9051    1.6446 C   0  0  0  0  0  0  0  0  0  0  0  0
   15.0186   22.9058    7.0335 C   0  0  0  0  0  0  0  0  0  0  0  0
   15.7923   21.9505    7.9533 C   0  0  0  0  0  0  0  0  0  0  0  0
   15.0660   20.9768    8.7169 C   0  0  0  0  0  0  0  0  0  0  0  0
   15.7631   20.0715    9.5621 C   0  0  0  0  0  0  0  0  0  0  0  0
   17.1894   20.1350    9.6425 C   0  0  0  0  0  0  0  0  0  0  0  0
   17.9312   21.1056    8.8866 C   0  0  0  0  0  0  0  0  0  0  0  0
   17.2234   22.0220    8.0313 C   0  0  0  0  0  0  0  0  0  0  0  0
   18.0483   18.9350   10.7465 Br  0  0  0  0  0  0  0  0  0  0  0  0
 21 22  1  0  0  0
  1  2  1  0  0  0
 22 23  1  0  0  0
  2  3  1  0  0  0
 23 24  2  0  0  0
 24 25  1  0  0  0
 25 26  2  0  0  0
 22 27  2  0  0  0
 26 27  1  0  0  0
 45 46  1  0  0  0
 46 47  1  0  0  0
 47 48  2  0  0  0
 48 49  1  0  0  0
 49 50  2  0  0  0
 46 51  2  0  0  0
 50 51  1  0  0  0
 29 45  1  0  0  0
  1 28  1  0  0  0
 37 35  2  0  0  0
 37 36  1  0  0  0
  3 21  1  0  0  0
  3  4  1  0  0  0
 39 40  1  0  0  0
  3  6  1  0  0  0
  8  6  1  0  0  0
  6  7  2  0  0  0
  8 10  1  0  0  0
 10 11  1  0  0  0
 11 12  2  0  0  0
 18 12  1  0  0  0
 11 13  1  0  0  0
 13 14  2  0  0  0
 14 15  1  0  0  0
 10 16  1  0  0  0
 19 16  1  0  0  0
 16 17  1  0  0  0
 40 37  1  0  0  0
 15 18  2  0  0  0
 12 19  1  0  0  0
 41 34  1  0  0  0
 36 34  1  0  0  0
 41 42  1  0  0  0
 30 31  2  0  0  0
 29 32  1  0  0  0
 30 32  1  0  0  0
 49 52  1  0  0  0
 41 44  1  0  0  0
 41 43  1  0  0  0
 34 30  1  0  0  0
 28 29  1  0  0  0
 36 38  1  0  0  0
  4  5  1  0  0  0
  8  9  1  0  0  0
 17 20  1  0  0  0
 32 33  1  0  0  0
M  END
> <minimizedAffinity>
-10.45798

$$$$
2UXZ_HI1_A_1100


 52 55  0  0  0  0  0  0  0  0999 V2000
   11.9253   24.6898    4.5937 C   0  0  0  0  0  0  0  0  0  0  0  0
   12.6706   23.4657    3.9923 C   0  0  0  0  0  0  0  0  0  0  0  0
   13.8656   22.9360    4.8273 C   0  0  0  0  0  0  0  0  0  0  0  0
   14.9895   23.5944    4.2529 O   0  0  0  0  0  0  0  0  0  0  0  0
   14.8354   24.5521    4.2478 H   0  0  0  0  0  0  0  0  0  0  0  0
   14.0674   21.3970    4.8568 C   0  0  0  0  0  0  0  0  0  0  0  0
   13.1248   20.6200    5.0674 O   0  0  0  0  0  0  0  0  0  0  0  0
   15.3481   20.9836    4.6808 N   0  0  0  0  0  0  0  0  0  0  0  0
   16.0488   21.6569    4.5227 H   0  0  0  0  0  0  0  0  0  0  0  0
   15.7293   19.5352    4.7197 C   0  0  0  0  0  0  0  0  0  0  0  0
   15.8937   18.9021    3.3786 C   0  0  0  0  0  0  0  0  0  0  0  0
   17.0546   18.0739    3.4516 C   0  0  0  0  0  0  0  0  0  0  0  0
   15.1077   19.0189    2.1679 C   0  0  0  0  0  0  0  0  0  0  0  0
   15.5424   18.2599    1.0010 C   0  0  0  0  0  0  0  0  0  0  0  0
   16.7303   17.4162    1.0787 C   0  0  0  0  0  0  0  0  0  0  0  0
   17.1119   19.4864    5.3965 C   0  0  0  0  0  0  0  0  0  0  0  0
   17.9951   20.5167    4.9236 O   0  0  0  0  0  0  0  0  0  0  0  0
   17.5011   17.3150    2.3111 C   0  0  0  0  0  0  0  0  0  0  0  0
   17.6730   18.1512    4.8470 C   0  0  0  0  0  0  0  0  0  0  0  0
   18.0855   20.4481    3.9603 H   0  0  0  0  0  0  0  0  0  0  0  0
   13.7461   23.4208    6.3130 C   0  0  0  0  0  0  0  0  0  0  0  0
   14.7020   22.6822    7.2879 C   0  0  0  0  0  0  0  0  0  0  0  0
   14.2444   21.6216    8.1480 C   0  0  0  0  0  0  0  0  0  0  0  0
   15.1474   20.9853    9.0557 C   0  0  0  0  0  0  0  0  0  0  0  0
   16.5137   21.4099    9.1167 C   0  0  0  0  0  0  0  0  0  0  0  0
   16.9814   22.4641    8.2615 C   0  0  0  0  0  0  0  0  0  0  0  0
   16.0809   23.1031    7.3509 C   0  0  0  0  0  0  0  0  0  0  0  0
   10.4079   24.6292    4.4153 C   0  0  0  0  0  0  0  0  0  0  0  0
    9.7677   25.4607    5.3862 N   0  0  0  0  0  0  0  0  0  0  0  0
    7.7876   26.9275    4.8820 C   0  0  0  0  0  0  0  0  0  0  0  0
    8.3944   27.9493    5.2519 O   0  0  0  0  0  0  0  0  0  0  0  0
    8.3437   25.7048    4.9024 N   0  0  0  0  0  0  0  0  0  0  0  0
    7.8107   24.9372    4.5928 H   0  0  0  0  0  0  0  0  0  0  0  0
    6.3513   27.0307    4.3866 C   0  0  0  0  0  0  0  0  0  0  0  0
    6.8860   27.4548    1.5378 O   0  0  0  0  0  0  0  0  0  0  0  0
    6.4744   26.0397    3.3012 N   0  0  0  0  0  0  0  0  0  0  0  0
    6.7194   26.3402    2.0294 C   0  0  0  0  0  0  0  0  0  0  0  0
    6.3676   25.0893    3.5347 H   0  0  0  0  0  0  0  0  0  0  0  0
    6.9435   23.9083    1.9902 C   0  0  0  0  0  0  0  0  0  0  0  0
    6.7727   25.1467    1.2849 O   0  0  0  0  0  0  0  0  0  0  0  0
    5.0810   26.8029    5.2816 C   0  0  0  0  0  0  0  0  0  0  0  0
    5.4826   26.8827    6.7584 C   0  0  0  0  0  0  0  0  0  0  0  0
    4.0341   27.8868    5.0479 C   0  0  0  0  0  0  0  0  0  0  0  0
    4.4699   25.4264    5.1029 C   0  0  0  0  0  0  0  0  0  0  0  0
    9.6772   24.7769    6.6610 C   0  0  0  0  0  0  0  0  0  0  0  0
    9.5657   25.7570    7.8376 C   0  0  0  0  0  0  0  0  0  0  0  0
    8.2660   26.0952    8.3427 C   0  0  0  0  0  0  0  0  0  0  0  0
    8.1401   26.9874    9.4418 C   0  0  0  0  0  0  0  0  0  0  0  0
    9.3145   27.5405   10.0415 C   0  0  0  0  0  0  0  0  0  0  0  0
   10.6229   27.2142    9.5461 C   0  0  0  0  0  0  0  0  0  0  0  0
   10.7484   26.3106    8.4325 C   0  0  0  0  0  0  0  0  0  0  0  0
    9.0997   28.6865   11.4688 Br  0  0  0  0  0  0  0  0  0  0  0  0
 21 22  1  0  0  0
  1  2  1  0  0  0
 22 23  1  0  0  0
  2  3  1  0  0  0
 23 24  2  0  0  0
 24 25  1  0  0  0
 25 26  2  0  0  0
 22 27  2  0  0  0
 26 27  1  0  0  0
 45 46  1  0  0  0
 46 47  1  0  0  0
 47 48  2  0  0  0
 48 49  1  0  0  0
 49 50  2  0  0  0
 46 51  2  0  0  0
 50 51  1  0  0  0
 29 45  1  0  0  0
  1 28  1  0  0  0
 37 35  2  0  0  0
 37 36  1  0  0  0
  3 21  1  0  0  0
  3  4  1  0  0  0
 39 40  1  0  0  0
  3  6  1  0  0  0
  8  6  1  0  0  0
  6  7  2  0  0  0
  8 10  1  0  0  0
 10 11  1  0  0  0
 11 12  2  0  0  0
 18 12  1  0  0  0
 11 13  1  0  0  0
 13 14  2  0  0  0
 14 15  1  0  0  0
 10 16  1  0  0  0
 19 16  1  0  0  0
 16 17  1  0  0  0
 40 37  1  0  0  0
 15 18  2  0  0  0
 12 19  1  0  0  0
 41 34  1  0  0  0
 36 34  1  0  0  0
 41 42  1  0  0  0
 30 31  2  0  0  0
 29 32  1  0  0  0
 30 32  1  0  0  0
 49 52  1  0  0  0
 41 44  1  0  0  0
 41 43  1  0  0  0
 34 30  1  0  0  0
 28 29  1  0  0  0
 36 38  1  0  0  0
  4  5  1  0  0  0
  8  9  1  0  0  0
 17 20  1  0  0  0
 32 33  1  0  0  0
M  END
> <minimizedAffinity>
-9.94419

$$$$
2UXZ_HI1_A_1100


 52 55  0  0  0  0  0  0  0  0999 V2000
    8.9562   23.1292    3.7887 C   0  0  0  0  0  0  0  0  0  0  0  0
    8.1999   24.3750    4.3286 C   0  0  0  0  0  0  0  0  0  0  0  0
    7.5907   25.3058    3.2477 C   0  0  0  0  0  0  0  0  0  0  0  0
    8.7308   25.9263    2.6633 O   0  0  0  0  0  0  0  0  0  0  0  0
    9.3544   25.2444    2.3682 H   0  0  0  0  0  0  0  0  0  0  0  0
    6.5621   26.3610    3.7361 C   0  0  0  0  0  0  0  0  0  0  0  0
    6.1445   27.2584    2.9899 O   0  0  0  0  0  0  0  0  0  0  0  0
    6.1996   26.2474    5.0391 N   0  0  0  0  0  0  0  0  0  0  0  0
    6.5746   25.5121    5.5758 H   0  0  0  0  0  0  0  0  0  0  0  0
    5.2470   27.2055    5.6866 C   0  0  0  0  0  0  0  0  0  0  0  0
    3.8380   26.7207    5.7635 C   0  0  0  0  0  0  0  0  0  0  0  0
    3.3479   27.0764    7.0566 C   0  0  0  0  0  0  0  0  0  0  0  0
    3.0180   26.0204    4.7966 C   0  0  0  0  0  0  0  0  0  0  0  0
    1.6555   25.6758    5.1856 C   0  0  0  0  0  0  0  0  0  0  0  0
    1.1588   26.0391    6.5085 C   0  0  0  0  0  0  0  0  0  0  0  0
    5.7341   27.3594    7.1396 C   0  0  0  0  0  0  0  0  0  0  0  0
    6.1079   26.1047    7.7327 O   0  0  0  0  0  0  0  0  0  0  0  0
    2.0048   26.7464    7.4610 C   0  0  0  0  0  0  0  0  0  0  0  0
    4.4320   27.8026    7.8521 C   0  0  0  0  0  0  0  0  0  0  0  0
    5.3587   25.4902    7.6885 H   0  0  0  0  0  0  0  0  0  0  0  0
    6.8941   24.4557    2.1302 C   0  0  0  0  0  0  0  0  0  0  0  0
    5.5171   23.8782    2.5544 C   0  0  0  0  0  0  0  0  0  0  0  0
    5.3557   23.0889    3.7481 C   0  0  0  0  0  0  0  0  0  0  0  0
    4.0775   22.5472    4.0904 C   0  0  0  0  0  0  0  0  0  0  0  0
    2.9518   22.7835    3.2374 C   0  0  0  0  0  0  0  0  0  0  0  0
    3.1007   23.5717    2.0465 C   0  0  0  0  0  0  0  0  0  0  0  0
    4.3782   24.1163    1.7007 C   0  0  0  0  0  0  0  0  0  0  0  0
   10.4760   23.2970    3.7718 C   0  0  0  0  0  0  0  0  0  0  0  0
   10.9369   23.7101    5.0605 N   0  0  0  0  0  0  0  0  0  0  0  0
   12.3207   21.8535    6.0425 C   0  0  0  0  0  0  0  0  0  0  0  0
   11.3183   21.3114    6.5430 O   0  0  0  0  0  0  0  0  0  0  0  0
   12.2513   22.9858    5.3231 N   0  0  0  0  0  0  0  0  0  0  0  0
   13.0817   23.3620    4.9512 H   0  0  0  0  0  0  0  0  0  0  0  0
   13.6995   21.2379    6.2404 C   0  0  0  0  0  0  0  0  0  0  0  0
   15.4561   19.2910    4.9348 O   0  0  0  0  0  0  0  0  0  0  0  0
   14.0235   21.0835    4.8099 N   0  0  0  0  0  0  0  0  0  0  0  0
   14.8420   20.1588    4.3172 C   0  0  0  0  0  0  0  0  0  0  0  0
   13.6046   21.7090    4.1754 H   0  0  0  0  0  0  0  0  0  0  0  0
   13.8240   20.9765    2.2530 C   0  0  0  0  0  0  0  0  0  0  0  0
   14.9072   20.3111    2.9193 O   0  0  0  0  0  0  0  0  0  0  0  0
   14.8618   21.9006    7.0628 C   0  0  0  0  0  0  0  0  0  0  0  0
   14.2726   22.9379    8.0248 C   0  0  0  0  0  0  0  0  0  0  0  0
   15.5964   20.8720    7.9159 C   0  0  0  0  0  0  0  0  0  0  0  0
   15.8407   22.6662    6.1933 C   0  0  0  0  0  0  0  0  0  0  0  0
   11.2206   25.1315    5.0677 C   0  0  0  0  0  0  0  0  0  0  0  0
   10.7791   25.8039    6.3755 C   0  0  0  0  0  0  0  0  0  0  0  0
    9.6737   26.7183    6.3508 C   0  0  0  0  0  0  0  0  0  0  0  0
    9.2374   27.3394    7.5524 C   0  0  0  0  0  0  0  0  0  0  0  0
    9.9034   27.0442    8.7830 C   0  0  0  0  0  0  0  0  0  0  0  0
   11.0133   26.1332    8.8243 C   0  0  0  0  0  0  0  0  0  0  0  0
   11.4540   25.5053    7.6061 C   0  0  0  0  0  0  0  0  0  0  0  0
    9.2961   27.8689   10.3152 Br  0  0  0  0  0  0  0  0  0  0  0  0
 21 22  1  0  0  0
  1  2  1  0  0  0
 22 23  1  0  0  0
  2  3  1  0  0  0
 23 24  2  0  0  0
 24 25  1  0  0  0
 25 26  2  0  0  0
 22 27  2  0  0  0
 26 27  1  0  0  0
 45 46  1  0  0  0
 46 47  1  0  0  0
 47 48  2  0  0  0
 48 49  1  0  0  0
 49 50  2  0  0  0
 46 51  2  0  0  0
 50 51  1  0  0  0
 29 45  1  0  0  0
  1 28  1  0  0  0
 37 35  2  0  0  0
 37 36  1  0  0  0
  3 21  1  0  0  0
  3  4  1  0  0  0
 39 40  1  0  0  0
  3  6  1  0  0  0
  8  6  1  0  0  0
  6  7  2  0  0  0
  8 10  1  0  0  0
 10 11  1  0  0  0
 11 12  2  0  0  0
 18 12  1  0  0  0
 11 13  1  0  0  0
 13 14  2  0  0  0
 14 15  1  0  0  0
 10 16  1  0  0  0
 19 16  1  0  0  0
 16 17  1  0  0  0
 40 37  1  0  0  0
 15 18  2  0  0  0
 12 19  1  0  0  0
 41 34  1  0  0  0
 36 34  1  0  0  0
 41 42  1  0  0  0
 30 31  2  0  0  0
 29 32  1  0  0  0
 30 32  1  0  0  0
 49 52  1  0  0  0
 41 44  1  0  0  0
 41 43  1  0  0  0
 34 30  1  0  0  0
 28 29  1  0  0  0
 36 38  1  0  0  0
  4  5  1  0  0  0
  8  9  1  0  0  0
 17 20  1  0  0  0
 32 33  1  0  0  0
M  END
> <minimizedAffinity>
-9.83207

$$$$
2UXZ_HI1_A_1100


 52 55  0  0  0  0  0  0  0  0999 V2000
   12.2909   24.8106    6.1421 C   0  0  0  0  0  0  0  0  0  0  0  0
   11.1660   25.8767    6.2586 C   0  0  0  0  0  0  0  0  0  0  0  0
    9.7189   25.3388    6.1080 C   0  0  0  0  0  0  0  0  0  0  0  0
    9.8870   24.1388    5.3610 O   0  0  0  0  0  0  0  0  0  0  0  0
   10.5334   23.5687    5.8061 H   0  0  0  0  0  0  0  0  0  0  0  0
    8.6906   26.2851    5.4320 C   0  0  0  0  0  0  0  0  0  0  0  0
    8.8939   27.5038    5.3319 O   0  0  0  0  0  0  0  0  0  0  0  0
    7.5504   25.6831    5.0081 N   0  0  0  0  0  0  0  0  0  0  0  0
    7.4536   24.7103    5.1239 H   0  0  0  0  0  0  0  0  0  0  0  0
    6.4344   26.4522    4.3695 C   0  0  0  0  0  0  0  0  0  0  0  0
    5.5372   25.6354    3.5011 C   0  0  0  0  0  0  0  0  0  0  0  0
    4.2009   26.0598    3.7716 C   0  0  0  0  0  0  0  0  0  0  0  0
    5.8333   24.5949    2.5383 C   0  0  0  0  0  0  0  0  0  0  0  0
    4.7114   23.9753    1.8426 C   0  0  0  0  0  0  0  0  0  0  0  0
    3.3471   24.4100    2.1229 C   0  0  0  0  0  0  0  0  0  0  0  0
    5.5647   26.9668    5.5318 C   0  0  0  0  0  0  0  0  0  0  0  0
    5.3502   25.9698    6.5446 O   0  0  0  0  0  0  0  0  0  0  0  0
    3.0781   25.4617    3.0950 C   0  0  0  0  0  0  0  0  0  0  0  0
    4.2001   27.1657    4.8263 C   0  0  0  0  0  0  0  0  0  0  0  0
    4.9506   25.1822    6.1436 H   0  0  0  0  0  0  0  0  0  0  0  0
    9.1394   24.9424    7.5093 C   0  0  0  0  0  0  0  0  0  0  0  0
    9.1935   26.0902    8.5530 C   0  0  0  0  0  0  0  0  0  0  0  0
   10.3935   26.3977    9.2875 C   0  0  0  0  0  0  0  0  0  0  0  0
   10.3969   27.4423   10.2638 C   0  0  0  0  0  0  0  0  0  0  0  0
    9.1982   28.1828   10.5195 C   0  0  0  0  0  0  0  0  0  0  0  0
    7.9970   27.8868    9.7906 C   0  0  0  0  0  0  0  0  0  0  0  0
    7.9895   26.8425    8.8120 C   0  0  0  0  0  0  0  0  0  0  0  0
   12.7976   24.3068    7.4939 C   0  0  0  0  0  0  0  0  0  0  0  0
   13.5819   23.1253    7.3130 N   0  0  0  0  0  0  0  0  0  0  0  0
   12.6744   21.7300    5.4273 C   0  0  0  0  0  0  0  0  0  0  0  0
   11.9707   21.0588    6.2039 O   0  0  0  0  0  0  0  0  0  0  0  0
   13.4688   22.7290    5.8462 N   0  0  0  0  0  0  0  0  0  0  0  0
   13.9982   23.2241    5.1799 H   0  0  0  0  0  0  0  0  0  0  0  0
   12.6640   21.4284    3.9346 C   0  0  0  0  0  0  0  0  0  0  0  0
   10.4061   22.0425    2.1724 O   0  0  0  0  0  0  0  0  0  0  0  0
   12.1475   22.7396    3.4999 N   0  0  0  0  0  0  0  0  0  0  0  0
   11.1074   22.9099    2.6894 C   0  0  0  0  0  0  0  0  0  0  0  0
   12.6049   23.5452    3.8331 H   0  0  0  0  0  0  0  0  0  0  0  0
    9.5953   24.7403    2.1159 C   0  0  0  0  0  0  0  0  0  0  0  0
   10.9028   24.2897    2.4999 O   0  0  0  0  0  0  0  0  0  0  0  0
   13.9167   20.9607    3.1109 C   0  0  0  0  0  0  0  0  0  0  0  0
   13.4550   20.0766    1.9474 C   0  0  0  0  0  0  0  0  0  0  0  0
   14.6555   22.1467    2.5003 C   0  0  0  0  0  0  0  0  0  0  0  0
   14.8691   20.1002    3.9189 C   0  0  0  0  0  0  0  0  0  0  0  0
   14.9806   23.3978    7.5779 C   0  0  0  0  0  0  0  0  0  0  0  0
   15.6910   22.2018    8.2278 C   0  0  0  0  0  0  0  0  0  0  0  0
   17.1237   22.1995    8.3047 C   0  0  0  0  0  0  0  0  0  0  0  0
   17.8014   21.1105    8.9169 C   0  0  0  0  0  0  0  0  0  0  0  0
   17.0472   20.0226    9.4579 C   0  0  0  0  0  0  0  0  0  0  0  0
   15.6125   20.0084    9.3866 C   0  0  0  0  0  0  0  0  0  0  0  0
   14.9278   21.1122    8.7658 C   0  0  0  0  0  0  0  0  0  0  0  0
   17.9710   18.6375   10.2483 Br  0  0  0  0  0  0  0  0  0  0  0  0
 21 22  1  0  0  0
  1  2  1  0  0  0
 22 23  1  0  0  0
  2  3  1  0  0  0
 23 24  2  0  0  0
 24 25  1  0  0  0
 25 26  2  0  0  0
 22 27  2  0  0  0
 26 27  1  0  0  0
 45 46  1  0  0  0
 46 47  1  0  0  0
 47 48  2  0  0  0
 48 49  1  0  0  0
 49 50  2  0  0  0
 46 51  2  0  0  0
 50 51  1  0  0  0
 29 45  1  0  0  0
  1 28  1  0  0  0
 37 35  2  0  0  0
 37 36  1  0  0  0
  3 21  1  0  0  0
  3  4  1  0  0  0
 39 40  1  0  0  0
  3  6  1  0  0  0
  8  6  1  0  0  0
  6  7  2  0  0  0
  8 10  1  0  0  0
 10 11  1  0  0  0
 11 12  2  0  0  0
 18 12  1  0  0  0
 11 13  1  0  0  0
 13 14  2  0  0  0
 14 15  1  0  0  0
 10 16  1  0  0  0
 19 16  1  0  0  0
 16 17  1  0  0  0
 40 37  1  0  0  0
 15 18  2  0  0  0
 12 19  1  0  0  0
 41 34  1  0  0  0
 36 34  1  0  0  0
 41 42  1  0  0  0
 30 31  2  0  0  0
 29 32  1  0  0  0
 30 32  1  0  0  0
 49 52  1  0  0  0
 41 44  1  0  0  0
 41 43  1  0  0  0
 34 30  1  0  0  0
 28 29  1  0  0  0
 36 38  1  0  0  0
  4  5  1  0  0  0
  8  9  1  0  0  0
 17 20  1  0  0  0
 32 33  1  0  0  0
M  END
> <minimizedAffinity>
-9.82707

$$$$
2UXZ_HI1_A_1100


 52 55  0  0  0  0  0  0  0  0999 V2000
    9.4703   23.8730    2.9298 C   0  0  0  0  0  0  0  0  0  0  0  0
    8.6961   25.0003    3.6682 C   0  0  0  0  0  0  0  0  0  0  0  0
    7.8980   25.9689    2.7568 C   0  0  0  0  0  0  0  0  0  0  0  0
    8.9141   26.6818    2.0599 O   0  0  0  0  0  0  0  0  0  0  0  0
    9.5134   26.0522    1.6293 H   0  0  0  0  0  0  0  0  0  0  0  0
    6.9124   26.9378    3.4638 C   0  0  0  0  0  0  0  0  0  0  0  0
    6.4128   27.9057    2.8720 O   0  0  0  0  0  0  0  0  0  0  0  0
    6.6833   26.6669    4.7738 N   0  0  0  0  0  0  0  0  0  0  0  0
    7.1178   25.8832    5.1815 H   0  0  0  0  0  0  0  0  0  0  0  0
    5.7902   27.5227    5.6191 C   0  0  0  0  0  0  0  0  0  0  0  0
    4.4048   26.9948    5.7872 C   0  0  0  0  0  0  0  0  0  0  0  0
    4.0492   27.1940    7.1557 C   0  0  0  0  0  0  0  0  0  0  0  0
    3.4977   26.3824    4.8386 C   0  0  0  0  0  0  0  0  0  0  0  0
    2.1895   25.9610    5.3260 C   0  0  0  0  0  0  0  0  0  0  0  0
    1.8303   26.1643    6.7254 C   0  0  0  0  0  0  0  0  0  0  0  0
    6.4262   27.5302    7.0218 C   0  0  0  0  0  0  0  0  0  0  0  0
    6.8798   26.2289    7.4296 O   0  0  0  0  0  0  0  0  0  0  0  0
    2.7617   26.7860    7.6578 C   0  0  0  0  0  0  0  0  0  0  0  0
    5.2003   27.8580    7.9103 C   0  0  0  0  0  0  0  0  0  0  0  0
    6.1395   25.6030    7.3952 H   0  0  0  0  0  0  0  0  0  0  0  0
    7.0778   25.1607    1.6934 C   0  0  0  0  0  0  0  0  0  0  0  0
    5.8220   24.4593    2.2772 C   0  0  0  0  0  0  0  0  0  0  0  0
    5.8932   23.6083    3.4367 C   0  0  0  0  0  0  0  0  0  0  0  0
    4.7204   22.9539    3.9274 C   0  0  0  0  0  0  0  0  0  0  0  0
    3.4682   23.1387    3.2576 C   0  0  0  0  0  0  0  0  0  0  0  0
    3.3852   23.9876    2.1026 C   0  0  0  0  0  0  0  0  0  0  0  0
    4.5566   24.6450    1.6088 C   0  0  0  0  0  0  0  0  0  0  0  0
   10.8671   24.2916    2.4694 C   0  0  0  0  0  0  0  0  0  0  0  0
   11.8547   23.4629    3.0874 N   0  0  0  0  0  0  0  0  0  0  0  0
   12.1689   24.4455    5.3814 C   0  0  0  0  0  0  0  0  0  0  0  0
   12.9221   25.3353    4.9453 O   0  0  0  0  0  0  0  0  0  0  0  0
   11.6103   23.5144    4.5904 N   0  0  0  0  0  0  0  0  0  0  0  0
   11.0204   22.8395    4.9975 H   0  0  0  0  0  0  0  0  0  0  0  0
   11.8519   24.3760    6.8692 C   0  0  0  0  0  0  0  0  0  0  0  0
   13.6382   22.1209    7.4210 O   0  0  0  0  0  0  0  0  0  0  0  0
   13.2491   24.3843    7.3413 N   0  0  0  0  0  0  0  0  0  0  0  0
   13.9769   23.2941    7.5637 C   0  0  0  0  0  0  0  0  0  0  0  0
   13.6725   25.2583    7.5031 H   0  0  0  0  0  0  0  0  0  0  0  0
   16.2971   22.6980    8.0401 C   0  0  0  0  0  0  0  0  0  0  0  0
   15.2567   23.6859    7.9999 O   0  0  0  0  0  0  0  0  0  0  0  0
   10.9412   25.4008    7.6354 C   0  0  0  0  0  0  0  0  0  0  0  0
    9.7709   24.6517    8.2819 C   0  0  0  0  0  0  0  0  0  0  0  0
   11.7040   26.0886    8.7625 C   0  0  0  0  0  0  0  0  0  0  0  0
   10.3059   26.4289    6.7190 C   0  0  0  0  0  0  0  0  0  0  0  0
   11.6930   22.0835    2.6727 C   0  0  0  0  0  0  0  0  0  0  0  0
   12.9937   21.2799    2.8136 C   0  0  0  0  0  0  0  0  0  0  0  0
   13.7249   21.3474    4.0463 C   0  0  0  0  0  0  0  0  0  0  0  0
   14.9226   20.5988    4.2047 C   0  0  0  0  0  0  0  0  0  0  0  0
   15.3899   19.7771    3.1317 C   0  0  0  0  0  0  0  0  0  0  0  0
   14.6710   19.7006    1.8903 C   0  0  0  0  0  0  0  0  0  0  0  0
   13.4582   20.4598    1.7315 C   0  0  0  0  0  0  0  0  0  0  0  0
   16.9437   18.8197    3.3880 Br  0  0  0  0  0  0  0  0  0  0  0  0
 21 22  1  0  0  0
  1  2  1  0  0  0
 22 23  1  0  0  0
  2  3  1  0  0  0
 23 24  2  0  0  0
 24 25  1  0  0  0
 25 26  2  0  0  0
 22 27  2  0  0  0
 26 27  1  0  0  0
 45 46  1  0  0  0
 46 47  1  0  0  0
 47 48  2  0  0  0
 48 49  1  0  0  0
 49 50  2  0  0  0
 46 51  2  0  0  0
 50 51  1  0  0  0
 29 45  1  0  0  0
  1 28  1  0  0  0
 37 35  2  0  0  0
 37 36  1  0  0  0
  3 21  1  0  0  0
  3  4  1  0  0  0
 39 40  1  0  0  0
  3  6  1  0  0  0
  8  6  1  0  0  0
  6  7  2  0  0  0
  8 10  1  0  0  0
 10 11  1  0  0  0
 11 12  2  0  0  0
 18 12  1  0  0  0
 11 13  1  0  0  0
 13 14  2  0  0  0
 14 15  1  0  0  0
 10 16  1  0  0  0
 19 16  1  0  0  0
 16 17  1  0  0  0
 40 37  1  0  0  0
 15 18  2  0  0  0
 12 19  1  0  0  0
 41 34  1  0  0  0
 36 34  1  0  0  0
 41 42  1  0  0  0
 30 31  2  0  0  0
 29 32  1  0  0  0
 30 32  1  0  0  0
 49 52  1  0  0  0
 41 44  1  0  0  0
 41 43  1  0  0  0
 34 30  1  0  0  0
 28 29  1  0  0  0
 36 38  1  0  0  0
  4  5  1  0  0  0
  8  9  1  0  0  0
 17 20  1  0  0  0
 32 33  1  0  0  0
M  END
> <minimizedAffinity>
-9.80174

$$$$
2UXZ_HI1_A_1100


 52 55  0  0  0  0  0  0  0  0999 V2000
    8.1735   26.2127    3.8944 C   0  0  0  0  0  0  0  0  0  0  0  0
    8.6021   24.9804    4.7389 C   0  0  0  0  0  0  0  0  0  0  0  0
    9.8949   25.1625    5.5762 C   0  0  0  0  0  0  0  0  0  0  0  0
   10.0551   26.5758    5.6362 O   0  0  0  0  0  0  0  0  0  0  0  0
    9.2407   26.9794    5.9750 H   0  0  0  0  0  0  0  0  0  0  0  0
   11.1768   24.4715    5.0383 C   0  0  0  0  0  0  0  0  0  0  0  0
   11.5080   24.5496    3.8463 O   0  0  0  0  0  0  0  0  0  0  0  0
   11.8673   23.7499    5.9573 N   0  0  0  0  0  0  0  0  0  0  0  0
   11.5438   23.7277    6.8869 H   0  0  0  0  0  0  0  0  0  0  0  0
   13.1062   22.9860    5.6019 C   0  0  0  0  0  0  0  0  0  0  0  0
   13.9879   22.6623    6.7613 C   0  0  0  0  0  0  0  0  0  0  0  0
   14.4347   21.3184    6.5788 C   0  0  0  0  0  0  0  0  0  0  0  0
   14.3893   23.4574    7.9032 C   0  0  0  0  0  0  0  0  0  0  0  0
   15.2734   22.8382    8.8838 C   0  0  0  0  0  0  0  0  0  0  0  0
   15.7263   21.4642    8.6951 C   0  0  0  0  0  0  0  0  0  0  0  0
   12.6175   21.6390    5.0373 C   0  0  0  0  0  0  0  0  0  0  0  0
   11.5427   21.0749    5.8068 O   0  0  0  0  0  0  0  0  0  0  0  0
   15.3090   20.6877    7.5348 C   0  0  0  0  0  0  0  0  0  0  0  0
   13.8505   20.7366    5.2920 C   0  0  0  0  0  0  0  0  0  0  0  0
   11.8236   20.9749    6.7298 H   0  0  0  0  0  0  0  0  0  0  0  0
    9.6683   24.6530    7.0411 C   0  0  0  0  0  0  0  0  0  0  0  0
    9.4674   25.7947    8.0735 C   0  0  0  0  0  0  0  0  0  0  0  0
    8.1857   26.4170    8.2832 C   0  0  0  0  0  0  0  0  0  0  0  0
    8.0455   27.4874    9.2207 C   0  0  0  0  0  0  0  0  0  0  0  0
    9.1875   27.9499    9.9504 C   0  0  0  0  0  0  0  0  0  0  0  0
   10.4695   27.3345    9.7516 C   0  0  0  0  0  0  0  0  0  0  0  0
   10.6140   26.2623    8.8147 C   0  0  0  0  0  0  0  0  0  0  0  0
    6.9324   26.9229    4.4361 C   0  0  0  0  0  0  0  0  0  0  0  0
    5.8065   26.0430    4.3908 N   0  0  0  0  0  0  0  0  0  0  0  0
    3.9011   26.6853    5.9019 C   0  0  0  0  0  0  0  0  0  0  0  0
    4.2320   25.8388    6.7521 O   0  0  0  0  0  0  0  0  0  0  0  0
    4.5765   26.8652    4.7546 N   0  0  0  0  0  0  0  0  0  0  0  0
    4.2646   27.5547    4.1249 H   0  0  0  0  0  0  0  0  0  0  0  0
    2.6811   27.5658    6.1367 C   0  0  0  0  0  0  0  0  0  0  0  0
    3.4719   29.1966    8.4380 O   0  0  0  0  0  0  0  0  0  0  0  0
    3.4027   28.8517    6.1670 N   0  0  0  0  0  0  0  0  0  0  0  0
    3.7140   29.5162    7.2758 C   0  0  0  0  0  0  0  0  0  0  0  0
    3.6728   29.2455    5.3061 H   0  0  0  0  0  0  0  0  0  0  0  0
    3.6644   31.9234    6.8648 C   0  0  0  0  0  0  0  0  0  0  0  0
    4.4007   30.6925    6.9202 O   0  0  0  0  0  0  0  0  0  0  0  0
    1.4132   27.5976    5.2104 C   0  0  0  0  0  0  0  0  0  0  0  0
    0.1705   27.8730    6.0640 C   0  0  0  0  0  0  0  0  0  0  0  0
    1.5028   28.7209    4.1829 C   0  0  0  0  0  0  0  0  0  0  0  0
    1.1468   26.2709    4.5254 C   0  0  0  0  0  0  0  0  0  0  0  0
    5.6061   25.5423    3.0453 C   0  0  0  0  0  0  0  0  0  0  0  0
    4.6251   24.3619    3.0065 C   0  0  0  0  0  0  0  0  0  0  0  0
    4.5547   23.4763    4.1332 C   0  0  0  0  0  0  0  0  0  0  0  0
    3.6421   22.3869    4.1257 C   0  0  0  0  0  0  0  0  0  0  0  0
    2.7940   22.1828    2.9926 C   0  0  0  0  0  0  0  0  0  0  0  0
    2.8540   23.0587    1.8555 C   0  0  0  0  0  0  0  0  0  0  0  0
    3.7793   24.1614    1.8647 C   0  0  0  0  0  0  0  0  0  0  0  0
    1.6222   20.7610    3.0334 Br  0  0  0  0  0  0  0  0  0  0  0  0
 21 22  1  0  0  0
  1  2  1  0  0  0
 22 23  1  0  0  0
  2  3  1  0  0  0
 23 24  2  0  0  0
 24 25  1  0  0  0
 25 26  2  0  0  0
 22 27  2  0  0  0
 26 27  1  0  0  0
 45 46  1  0  0  0
 46 47  1  0  0  0
 47 48  2  0  0  0
 48 49  1  0  0  0
 49 50  2  0  0  0
 46 51  2  0  0  0
 50 51  1  0  0  0
 29 45  1  0  0  0
  1 28  1  0  0  0
 37 35  2  0  0  0
 37 36  1  0  0  0
  3 21  1  0  0  0
  3  4  1  0  0  0
 39 40  1  0  0  0
  3  6  1  0  0  0
  8  6  1  0  0  0
  6  7  2  0  0  0
  8 10  1  0  0  0
 10 11  1  0  0  0
 11 12  2  0  0  0
 18 12  1  0  0  0
 11 13  1  0  0  0
 13 14  2  0  0  0
 14 15  1  0  0  0
 10 16  1  0  0  0
 19 16  1  0  0  0
 16 17  1  0  0  0
 40 37  1  0  0  0
 15 18  2  0  0  0
 12 19  1  0  0  0
 41 34  1  0  0  0
 36 34  1  0  0  0
 41 42  1  0  0  0
 30 31  2  0  0  0
 29 32  1  0  0  0
 30 32  1  0  0  0
 49 52  1  0  0  0
 41 44  1  0  0  0
 41 43  1  0  0  0
 34 30  1  0  0  0
 28 29  1  0  0  0
 36 38  1  0  0  0
  4  5  1  0  0  0
  8  9  1  0  0  0
 17 20  1  0  0  0
 32 33  1  0  0  0
M  END
> <minimizedAffinity>
-9.49939

$$$$
