2UXZ_HI1_A_1100
  RCSB PDB12061707003D
Coordinates from PDB:2UXZ:A:1100 Model:1 without hydrogens
 47 50  0  0  0  0            999 V2000
   15.7540   22.3630    8.0910   C 0  0  0  0  0  0  0  0  0  0  0  0
   12.8380   23.2090    3.8820   C 0  0  0  0  0  0  0  0  0  0  0  0
   13.3760   23.7450    5.2380   C 0  0  0  0  0  0  0  0  0  0  0  0
   17.1530   22.6110    7.8560   C 0  0  0  0  0  0  0  0  0  0  0  0
   14.5670   22.9560    5.8420   C 0  0  0  0  0  0  0  0  0  0  0  0
   18.1480   21.8080    8.4960   C 0  0  0  0  0  0  0  0  0  0  0  0
   17.7520   20.7450    9.3700   C 0  0  0  0  0  0  0  0  0  0  0  0
   16.3600   20.4910    9.6140   C 0  0  0  0  0  0  0  0  0  0  0  0
   15.3610   21.2930    8.9760   C 0  0  0  0  0  0  0  0  0  0  0  0
    8.2410   24.1530    2.7100   C 0  0  0  0  0  0  0  0  0  0  0  0
    7.7800   23.1110    3.5820   C 0  0  0  0  0  0  0  0  0  0  0  0
    6.4090   23.0470    3.9510   C 0  0  0  0  0  0  0  0  0  0  0  0
    5.4960   24.0280    3.4520   C 0  0  0  0  0  0  0  0  0  0  0  0
    5.9410   25.0760    2.5760   C 0  0  0  0  0  0  0  0  0  0  0  0
    7.3300   25.1390    2.2030   C 0  0  0  0  0  0  0  0  0  0  0  0
    9.7300   24.2120    2.3400   C 0  0  0  0  0  0  0  0  0  0  0  0
    5.3530   27.7850    5.8960   C 0  0  0  0  0  0  0  0  0  0  0  0
   11.9590   24.2120    3.1340   C 0  0  0  0  0  0  0  0  0  0  0  0
    8.2340   28.0370    5.0920   O 0  0  0  0  0  0  0  0  0  0  0  0
    8.1990   26.0930    6.3170   N 0  0  0  0  0  0  0  0  0  0  0  0
   14.6430   23.1900    7.3900   C 0  0  0  0  0  0  0  0  0  0  0  0
   15.7070   23.5790    5.2600   O 0  0  0  0  0  0  0  0  0  0  0  0
    6.2900   26.8060    5.4230   O 0  0  0  0  0  0  0  0  0  0  0  0
   14.5790   21.4220    5.6040   C 0  0  0  0  0  0  0  0  0  0  0  0
   13.5820   20.7200    5.8270   O 0  0  0  0  0  0  0  0  0  0  0  0
   15.7660   20.9170    5.1820   N 0  0  0  0  0  0  0  0  0  0  0  0
   15.9670   19.4520    4.9410   C 0  0  0  0  0  0  0  0  0  0  0  0
   15.9850   19.0580    3.5020   C 0  0  0  0  0  0  0  0  0  0  0  0
   17.0370   18.1050    3.3470   C 0  0  0  0  0  0  0  0  0  0  0  0
   15.1600   19.4800    2.3890   C 0  0  0  0  0  0  0  0  0  0  0  0
   15.4390   18.9010    1.0800   C 0  0  0  0  0  0  0  0  0  0  0  0
   16.5160   17.9290    0.9250   C 0  0  0  0  0  0  0  0  0  0  0  0
   17.3650   19.1260    5.4990   C 0  0  0  0  0  0  0  0  0  0  0  0
   18.3440   20.1190    5.1510   O 0  0  0  0  0  0  0  0  0  0  0  0
    7.6650   27.0630    5.5810   C 0  0  0  0  0  0  0  0  0  0  0  0
   17.3290   17.5200    2.0630   C 0  0  0  0  0  0  0  0  0  0  0  0
   17.7290   17.8580    4.6870   C 0  0  0  0  0  0  0  0  0  0  0  0
    9.6230   26.0150    6.6930   C 0  0  0  0  0  0  0  0  0  0  0  0
    9.8480   26.0480    8.2470   C 0  0  0  0  0  0  0  0  0  0  0  0
    9.3780   27.3990    8.7970   C 0  0  0  0  0  0  0  0  0  0  0  0
    9.0270   24.9730    8.9510   C 0  0  0  0  0  0  0  0  0  0  0  0
    9.9780   24.8390    5.7930   C 0  0  0  0  0  0  0  0  0  0  0  0
   10.5880   24.0240    3.4930   N 0  0  0  0  0  0  0  0  0  0  0  0
   10.0170   23.6860    6.2600   O 0  0  0  0  0  0  0  0  0  0  0  0
   10.2330   25.1090    4.5020   N 0  0  0  0  0  0  0  0  0  0  0  0
    3.7300   23.9070    3.9650  Br 0  0  0  0  0  0  0  0  0  0  0  0
   11.3100   25.9400    8.6360   C 0  0  0  0  0  0  0  0  0  0  0  0
 21  1  1  0  0  0  0
  2  3  1  0  0  0  0
  1  4  1  0  0  0  0
  3  5  1  0  0  0  0
  4  6  2  0  0  0  0
  6  7  1  0  0  0  0
  7  8  2  0  0  0  0
  1  9  2  0  0  0  0
  8  9  1  0  0  0  0
 16 10  1  0  0  0  0
 10 11  1  0  0  0  0
 11 12  2  0  0  0  0
 12 13  1  0  0  0  0
 13 14  2  0  0  0  0
 10 15  2  0  0  0  0
 14 15  1  0  0  0  0
 43 16  1  0  0  0  0
  2 18  1  0  0  0  0
 35 19  2  0  0  0  0
 35 20  1  0  0  0  0
  5 21  1  0  0  0  0
  5 22  1  0  0  0  0
 17 23  1  0  0  0  0
  5 24  1  0  0  0  0
 26 24  1  0  0  0  0
 24 25  2  0  0  0  0
 26 27  1  0  0  0  0
 27 28  1  0  0  0  0
 28 29  2  0  0  0  0
 36 29  1  0  0  0  0
 28 30  1  0  0  0  0
 30 31  2  0  0  0  0
 31 32  1  0  0  0  0
 27 33  1  0  0  0  0
 37 33  1  0  0  0  0
 33 34  1  0  0  0  0
 23 35  1  0  0  0  0
 32 36  2  0  0  0  0
 29 37  1  0  0  0  0
 39 38  1  0  0  0  0
 20 38  1  0  0  0  0
 39 40  1  0  0  0  0
 42 44  2  0  0  0  0
 43 45  1  0  0  0  0
 42 45  1  0  0  0  0
 13 46  1  0  0  0  0
 39 47  1  0  0  0  0
 39 41  1  0  0  0  0
 38 42  1  0  0  0  0
 18 43  1  0  0  0  0
A    1
C23
A    2
C40
A    3
C14
A    4
C24
A    5
C1
A    6
C25
A    7
C26
A    8
C27
A    9
C28
A   10
C33
A   11
C34
A   12
C35
A   13
C36
A   14
C37
A   15
C38
A   16
C32
A   17
C7
A   18
C4
A   19
O3
A   20
N1
A   21
C22
A   22
O6
A   23
O8
A   24
C10
A   25
O11
A   26
N12
A   27
C51
A   28
C52
A   29
C57
A   30
C53
A   31
C54
A   32
C55
A   33
C59
A   34
O60
A   35
C30
A   36
C56
A   37
C58
A   38
C41
A   39
C42
A   40
C43
A   41
C44
A   42
C45
A   43
N24
A   44
O46
A   45
N47
A   46
BR
A   47
C86
M  END
>  <InstanceId>
2UXZ_HI1_A_1100

>  <ChemCompId>
HI1

>  <PdbId>
2UXZ

>  <ChainId>
A

>  <ResidueNumber>
1100

>  <InsertionCode>


>  <Model>
1

>  <AltIds>


>  <MissingHeavyAtoms>
0

>  <ObservedFormula>
C36 N4 O6 Br

>  <Name>
METHYL [(1S)-1-({2-[(4R)-4-BENZYL-4-HYDROXY-5-{[(1S,2R)-2-HYDROXY-2,3-DIHYDRO-1H-INDEN-1-YL]AMINO}-5-OXOPENTYL]-2-(4-BROMOBENZYL)HYDRAZINO}CARBONYL)-2,2-DIMETHYLPROPYL]CARBAMATE

>  <SystematicName>
methyl N-[(2S)-1-[2-[(4-bromophenyl)methyl]-2-[(4R)-4-hydroxy-5-[[(1S,2R)-2-hydroxy-2,3-dihydro-1H-inden-1-yl]amino]-5-oxo-4-(phenylmethyl)pentyl]hydrazinyl]-3,3-dimethyl-1-oxo-butan-2-yl]carbamate

>  <Synonyms>


>  <Type>
NON-POLYMER

>  <Formula>
C36 H45 Br N4 O6

>  <MolecularWeight>
709.67

>  <ModifiedDate>
2011-06-04

>  <Parent>


>  <OneLetterCode>


>  <SubcomponentList>


>  <AmbiguousFlag>


>  <InChI>
InChI=1S/C36H45BrN4O6/c1-35(2,3)31(39-34(45)47-4)32(43)40-41(23-25-15-17-27(37)18-16-25)20-10-19-36(46,22-24-11-6-5-7-12-24)33(44)38-30-28-14-9-8-13-26(28)21-29(30)42/h5-9,11-18,29-31,42,46H,10,19-23H2,1-4H3,(H,38,44)(H,39,45)(H,40,43)/t29-,30+,31-,36-/m1/s1

>  <InChIKey>
BUXZHPPMFKNUOP-LCNNHFSHSA-N

>  <SMILES>
CC(C)(C)[C@@H](C(=O)N[N@](CCC[C@@](Cc1ccccc1)(C(=O)N[C@H]2c3ccccc3C[C@H]2O)O)Cc4ccc(cc4)Br)NC(=O)OC

$$$$
