5TUZ_7L6_A_3006


 29 32  0  0  0  0  0  0  0  0999 V2000
  -20.9525  -14.6934    3.0324 C   0  0  0  0  0  0  0  0  0  0  0  0
  -21.2113  -13.4698    2.4191 C   0  0  0  0  0  0  0  0  0  0  0  0
  -22.0143  -12.5429    3.0837 C   0  0  0  0  0  0  0  0  0  0  0  0
  -22.5242  -12.8553    4.2884 N   0  0  0  0  0  0  0  0  0  0  0  0
  -21.4875  -14.9630    4.2427 N   0  0  0  0  0  0  0  0  0  0  0  0
  -22.2652  -14.0484    4.8620 C   0  0  0  0  0  0  0  0  0  0  0  0
  -20.1550  -15.6458    2.3946 C   0  0  0  0  0  0  0  0  0  0  0  0
  -19.6181  -15.3597    1.1415 C   0  0  0  0  0  0  0  0  0  0  0  0
  -19.8733  -14.1489    0.5290 C   0  0  0  0  0  0  0  0  0  0  0  0
  -20.6602  -13.1860    1.1699 C   0  0  0  0  0  0  0  0  0  0  0  0
  -24.7395  -13.5455    7.2672 C   0  0  0  0  0  0  0  0  0  0  0  0
  -24.4051  -15.8534    6.9529 C   0  0  0  0  0  0  0  0  0  0  0  0
  -22.9327  -15.6760    6.6062 C   0  0  0  0  0  0  0  0  0  0  0  0
  -22.8262  -14.3137    6.1115 N   0  0  0  0  0  0  0  0  0  0  0  0
  -23.3018  -13.1929    6.9103 C   0  0  0  0  0  0  0  0  0  0  0  0
  -24.7869  -14.8354    7.8783 O   0  0  0  0  0  0  0  0  0  0  0  0
  -18.8156  -16.2708    0.5060 O   0  0  0  0  0  0  0  0  0  0  0  0
  -18.9813  -17.6574    0.8054 C   0  0  0  0  0  0  0  0  0  0  0  0
  -19.3143  -13.9020   -0.6996 O   0  0  0  0  0  0  0  0  0  0  0  0
  -19.9357  -12.9797   -1.5909 C   0  0  0  0  0  0  0  0  0  0  0  0
  -22.2988  -11.3354    2.5574 N   0  0  0  0  0  0  0  0  0  0  0  0
  -21.9692  -11.0931    1.6619 H   0  0  0  0  0  0  0  0  0  0  0  0
  -23.0988  -10.3927    3.3265 C   0  0  0  0  0  0  0  0  0  0  0  0
  -24.4821  -10.2506    2.7001 C   0  0  0  0  0  0  0  0  0  0  0  0
  -22.4068   -9.0370    3.3731 C   0  0  0  0  0  0  0  0  0  0  0  0
  -23.3067   -7.9641    3.9824 C   0  0  0  0  0  0  0  0  0  0  0  0
  -24.5502   -7.8761    3.2030 N   0  0  0  0  0  0  0  0  0  0  0  0
  -25.3792   -6.7744    3.7060 C   0  0  0  0  0  0  0  0  0  0  0  0
  -25.2885   -9.1317    3.3554 C   0  0  0  0  0  0  0  0  0  0  0  0
 20 19  1  0  0  0
 19  9  1  0  0  0
  9  8  2  0  0  0
  9 10  1  0  0  0
 17 18  1  0  0  0
 17  8  1  0  0  0
  8  7  1  0  0  0
 10  2  2  0  0  0
  2  1  1  0  0  0
  2  3  1  0  0  0
  7  1  2  0  0  0
 21  3  1  0  0  0
 21 23  1  0  0  0
 24 23  1  0  0  0
 24 29  1  0  0  0
  1  5  1  0  0  0
  3  4  2  0  0  0
 27 29  1  0  0  0
 27 28  1  0  0  0
 27 26  1  0  0  0
 25 23  1  0  0  0
 25 26  1  0  0  0
  5  6  2  0  0  0
  4  6  1  0  0  0
  6 14  1  0  0  0
 14 15  1  0  0  0
 14 13  1  0  0  0
 15 11  1  0  0  0
 13 12  1  0  0  0
 12 16  1  0  0  0
 11 16  1  0  0  0
 21 22  1  0  0  0
M  END
> <minimizedAffinity>
-8.10694

$$$$
5TUZ_7L6_A_3006


 29 32  0  0  0  0  0  0  0  0999 V2000
  -22.8361  -14.7493    5.4943 C   0  0  0  0  0  0  0  0  0  0  0  0
  -23.3668  -13.4663    5.6067 C   0  0  0  0  0  0  0  0  0  0  0  0
  -22.9509  -12.4871    4.7045 C   0  0  0  0  0  0  0  0  0  0  0  0
  -22.0459  -12.8010    3.7604 N   0  0  0  0  0  0  0  0  0  0  0  0
  -21.9287  -15.0173    4.5307 N   0  0  0  0  0  0  0  0  0  0  0  0
  -21.5407  -14.0488    3.6728 C   0  0  0  0  0  0  0  0  0  0  0  0
  -23.2277  -15.7533    6.3822 C   0  0  0  0  0  0  0  0  0  0  0  0
  -24.1562  -15.4611    7.3786 C   0  0  0  0  0  0  0  0  0  0  0  0
  -24.6837  -14.1905    7.4949 C   0  0  0  0  0  0  0  0  0  0  0  0
  -24.3049  -13.1847    6.5993 C   0  0  0  0  0  0  0  0  0  0  0  0
  -19.9844  -16.2302    1.4414 C   0  0  0  0  0  0  0  0  0  0  0  0
  -20.6021  -14.2595    0.3137 C   0  0  0  0  0  0  0  0  0  0  0  0
  -20.4296  -13.3967    1.5570 C   0  0  0  0  0  0  0  0  0  0  0  0
  -20.6030  -14.3104    2.6736 N   0  0  0  0  0  0  0  0  0  0  0  0
  -19.7997  -15.5208    2.7760 C   0  0  0  0  0  0  0  0  0  0  0  0
  -19.6707  -15.3401    0.3695 O   0  0  0  0  0  0  0  0  0  0  0  0
  -24.5710  -16.4358    8.2480 O   0  0  0  0  0  0  0  0  0  0  0  0
  -25.5332  -17.3911    7.7993 C   0  0  0  0  0  0  0  0  0  0  0  0
  -25.6054  -13.9481    8.4821 O   0  0  0  0  0  0  0  0  0  0  0  0
  -26.9972  -13.9701    8.1761 C   0  0  0  0  0  0  0  0  0  0  0  0
  -23.4286  -11.2277    4.7453 N   0  0  0  0  0  0  0  0  0  0  0  0
  -23.9377  -10.9140    5.5274 H   0  0  0  0  0  0  0  0  0  0  0  0
  -23.1843  -10.3354    3.6209 C   0  0  0  0  0  0  0  0  0  0  0  0
  -23.0011   -8.9060    4.1201 C   0  0  0  0  0  0  0  0  0  0  0  0
  -24.3481  -10.3993    2.6410 C   0  0  0  0  0  0  0  0  0  0  0  0
  -24.2367   -9.3257    1.5606 C   0  0  0  0  0  0  0  0  0  0  0  0
  -24.1780   -8.0022    2.1982 N   0  0  0  0  0  0  0  0  0  0  0  0
  -24.1830   -6.9522    1.1729 C   0  0  0  0  0  0  0  0  0  0  0  0
  -22.9351   -7.9072    2.9669 C   0  0  0  0  0  0  0  0  0  0  0  0
 20 19  1  0  0  0
 19  9  1  0  0  0
  9  8  2  0  0  0
  9 10  1  0  0  0
 17 18  1  0  0  0
 17  8  1  0  0  0
  8  7  1  0  0  0
 10  2  2  0  0  0
  2  1  1  0  0  0
  2  3  1  0  0  0
  7  1  2  0  0  0
 21  3  1  0  0  0
 21 23  1  0  0  0
 24 23  1  0  0  0
 24 29  1  0  0  0
  1  5  1  0  0  0
  3  4  2  0  0  0
 27 29  1  0  0  0
 27 28  1  0  0  0
 27 26  1  0  0  0
 25 23  1  0  0  0
 25 26  1  0  0  0
  5  6  2  0  0  0
  4  6  1  0  0  0
  6 14  1  0  0  0
 14 15  1  0  0  0
 14 13  1  0  0  0
 15 11  1  0  0  0
 13 12  1  0  0  0
 12 16  1  0  0  0
 11 16  1  0  0  0
 21 22  1  0  0  0
M  END
> <minimizedAffinity>
-7.15480

$$$$
5TUZ_7L6_A_3006


 29 32  0  0  0  0  0  0  0  0999 V2000
  -21.4717  -14.4203    3.8193 C   0  0  0  0  0  0  0  0  0  0  0  0
  -21.9845  -13.2457    3.2736 C   0  0  0  0  0  0  0  0  0  0  0  0
  -23.0127  -12.5863    3.9472 C   0  0  0  0  0  0  0  0  0  0  0  0
  -23.4879  -13.1029    5.0944 N   0  0  0  0  0  0  0  0  0  0  0  0
  -21.9815  -14.9017    4.9733 N   0  0  0  0  0  0  0  0  0  0  0  0
  -22.9802  -14.2448    5.6026 C   0  0  0  0  0  0  0  0  0  0  0  0
  -20.4441  -15.1079    3.1703 C   0  0  0  0  0  0  0  0  0  0  0  0
  -19.9344  -14.6066    1.9748 C   0  0  0  0  0  0  0  0  0  0  0  0
  -20.4406  -13.4437    1.4294 C   0  0  0  0  0  0  0  0  0  0  0  0
  -21.4607  -12.7438    2.0827 C   0  0  0  0  0  0  0  0  0  0  0  0
  -25.5966  -14.4939    7.8944 C   0  0  0  0  0  0  0  0  0  0  0  0
  -24.7543  -16.6404    7.4253 C   0  0  0  0  0  0  0  0  0  0  0  0
  -23.3438  -16.1221    7.1774 C   0  0  0  0  0  0  0  0  0  0  0  0
  -23.5181  -14.7311    6.7944 N   0  0  0  0  0  0  0  0  0  0  0  0
  -24.2578  -13.8117    7.6477 C   0  0  0  0  0  0  0  0  0  0  0  0
  -25.3850  -15.8119    8.4021 O   0  0  0  0  0  0  0  0  0  0  0  0
  -18.9117  -15.2532    1.3312 O   0  0  0  0  0  0  0  0  0  0  0  0
  -19.1653  -16.5355    0.7557 C   0  0  0  0  0  0  0  0  0  0  0  0
  -19.9013  -12.9773    0.2570 O   0  0  0  0  0  0  0  0  0  0  0  0
  -20.4842  -13.3466   -0.9900 C   0  0  0  0  0  0  0  0  0  0  0  0
  -23.5506  -11.4402    3.4855 N   0  0  0  0  0  0  0  0  0  0  0  0
  -22.9849  -10.6467    3.3449 H   0  0  0  0  0  0  0  0  0  0  0  0
  -24.9767  -11.3871    3.1969 C   0  0  0  0  0  0  0  0  0  0  0  0
  -25.4470  -12.7289    2.6450 C   0  0  0  0  0  0  0  0  0  0  0  0
  -25.2652  -10.2809    2.1910 C   0  0  0  0  0  0  0  0  0  0  0  0
  -26.7095  -10.3286    1.6973 C   0  0  0  0  0  0  0  0  0  0  0  0
  -26.9725  -11.6450    1.0979 N   0  0  0  0  0  0  0  0  0  0  0  0
  -28.3206  -11.6707    0.5183 C   0  0  0  0  0  0  0  0  0  0  0  0
  -26.8891  -12.6629    2.1476 C   0  0  0  0  0  0  0  0  0  0  0  0
 20 19  1  0  0  0
 19  9  1  0  0  0
  9  8  2  0  0  0
  9 10  1  0  0  0
 17 18  1  0  0  0
 17  8  1  0  0  0
  8  7  1  0  0  0
 10  2  2  0  0  0
  2  1  1  0  0  0
  2  3  1  0  0  0
  7  1  2  0  0  0
 21  3  1  0  0  0
 21 23  1  0  0  0
 24 23  1  0  0  0
 24 29  1  0  0  0
  1  5  1  0  0  0
  3  4  2  0  0  0
 27 29  1  0  0  0
 27 28  1  0  0  0
 27 26  1  0  0  0
 25 23  1  0  0  0
 25 26  1  0  0  0
  5  6  2  0  0  0
  4  6  1  0  0  0
  6 14  1  0  0  0
 14 15  1  0  0  0
 14 13  1  0  0  0
 15 11  1  0  0  0
 13 12  1  0  0  0
 12 16  1  0  0  0
 11 16  1  0  0  0
 21 22  1  0  0  0
M  END
> <minimizedAffinity>
-7.06024

$$$$
5TUZ_7L6_A_3006


 29 32  0  0  0  0  0  0  0  0999 V2000
  -21.1825  -12.9866    2.2440 C   0  0  0  0  0  0  0  0  0  0  0  0
  -21.2945  -13.8006    3.3688 C   0  0  0  0  0  0  0  0  0  0  0  0
  -22.0384  -13.3431    4.4564 C   0  0  0  0  0  0  0  0  0  0  0  0
  -22.6172  -12.1305    4.3970 N   0  0  0  0  0  0  0  0  0  0  0  0
  -21.7804  -11.7759    2.2306 N   0  0  0  0  0  0  0  0  0  0  0  0
  -22.4915  -11.3560    3.2996 C   0  0  0  0  0  0  0  0  0  0  0  0
  -20.4433  -13.4117    1.1382 C   0  0  0  0  0  0  0  0  0  0  0  0
  -19.8222  -14.6582    1.1690 C   0  0  0  0  0  0  0  0  0  0  0  0
  -19.9291  -15.4677    2.2823 C   0  0  0  0  0  0  0  0  0  0  0  0
  -20.6800  -15.0523    3.3872 C   0  0  0  0  0  0  0  0  0  0  0  0
  -22.4955   -7.9466    2.5677 C   0  0  0  0  0  0  0  0  0  0  0  0
  -24.4989   -8.9174    1.8056 C   0  0  0  0  0  0  0  0  0  0  0  0
  -24.5054   -9.9675    2.9087 C   0  0  0  0  0  0  0  0  0  0  0  0
  -23.1130  -10.1071    3.3009 N   0  0  0  0  0  0  0  0  0  0  0  0
  -22.3343   -8.9451    3.7060 C   0  0  0  0  0  0  0  0  0  0  0  0
  -23.8821   -7.7298    2.3031 O   0  0  0  0  0  0  0  0  0  0  0  0
  -19.1091  -15.1049    0.0874 O   0  0  0  0  0  0  0  0  0  0  0  0
  -17.6892  -14.9511    0.0909 C   0  0  0  0  0  0  0  0  0  0  0  0
  -19.3129  -16.6936    2.2663 O   0  0  0  0  0  0  0  0  0  0  0  0
  -19.8327  -17.7399    1.4502 C   0  0  0  0  0  0  0  0  0  0  0  0
  -22.1996  -14.0795    5.5734 N   0  0  0  0  0  0  0  0  0  0  0  0
  -21.4173  -14.3597    6.1015 H   0  0  0  0  0  0  0  0  0  0  0  0
  -23.5424  -14.4567    5.9914 C   0  0  0  0  0  0  0  0  0  0  0  0
  -24.0057  -13.5557    7.1314 C   0  0  0  0  0  0  0  0  0  0  0  0
  -23.5607  -15.9123    6.4383 C   0  0  0  0  0  0  0  0  0  0  0  0
  -24.8920  -16.2881    7.0852 C   0  0  0  0  0  0  0  0  0  0  0  0
  -25.1416  -15.3995    8.2296 N   0  0  0  0  0  0  0  0  0  0  0  0
  -26.3614  -15.8170    8.9307 C   0  0  0  0  0  0  0  0  0  0  0  0
  -25.3256  -14.0346    7.7315 C   0  0  0  0  0  0  0  0  0  0  0  0
 20 19  1  0  0  0
 19  9  1  0  0  0
  9  8  2  0  0  0
  9 10  1  0  0  0
 17 18  1  0  0  0
 17  8  1  0  0  0
  8  7  1  0  0  0
 10  2  2  0  0  0
  2  1  1  0  0  0
  2  3  1  0  0  0
  7  1  2  0  0  0
 21  3  1  0  0  0
 21 23  1  0  0  0
 24 23  1  0  0  0
 24 29  1  0  0  0
  1  5  1  0  0  0
  3  4  2  0  0  0
 27 29  1  0  0  0
 27 28  1  0  0  0
 27 26  1  0  0  0
 25 23  1  0  0  0
 25 26  1  0  0  0
  5  6  2  0  0  0
  4  6  1  0  0  0
  6 14  1  0  0  0
 14 15  1  0  0  0
 14 13  1  0  0  0
 15 11  1  0  0  0
 13 12  1  0  0  0
 12 16  1  0  0  0
 11 16  1  0  0  0
 21 22  1  0  0  0
M  END
> <minimizedAffinity>
-6.89442

$$$$
5TUZ_7L6_A_3006


 29 32  0  0  0  0  0  0  0  0999 V2000
  -25.0524  -11.4725    3.3171 C   0  0  0  0  0  0  0  0  0  0  0  0
  -23.8952  -12.2329    3.4688 C   0  0  0  0  0  0  0  0  0  0  0  0
  -22.6971  -11.7414    2.9503 C   0  0  0  0  0  0  0  0  0  0  0  0
  -22.6905  -10.5577    2.3118 N   0  0  0  0  0  0  0  0  0  0  0  0
  -24.9972  -10.2900    2.6673 N   0  0  0  0  0  0  0  0  0  0  0  0
  -23.8240   -9.8400    2.1715 C   0  0  0  0  0  0  0  0  0  0  0  0
  -26.2697  -11.9351    3.8212 C   0  0  0  0  0  0  0  0  0  0  0  0
  -26.3153  -13.1617    4.4799 C   0  0  0  0  0  0  0  0  0  0  0  0
  -25.1712  -13.9195    4.6311 C   0  0  0  0  0  0  0  0  0  0  0  0
  -23.9466  -13.4541    4.1400 C   0  0  0  0  0  0  0  0  0  0  0  0
  -22.1220   -6.9193    1.3154 C   0  0  0  0  0  0  0  0  0  0  0  0
  -22.9982   -7.9176   -0.6269 C   0  0  0  0  0  0  0  0  0  0  0  0
  -24.1900   -8.5078    0.1153 C   0  0  0  0  0  0  0  0  0  0  0  0
  -23.7521   -8.6213    1.4964 N   0  0  0  0  0  0  0  0  0  0  0  0
  -23.2289   -7.4637    2.2083 C   0  0  0  0  0  0  0  0  0  0  0  0
  -22.6270   -6.6895   -0.0005 O   0  0  0  0  0  0  0  0  0  0  0  0
  -27.4946  -13.6260    5.0011 O   0  0  0  0  0  0  0  0  0  0  0  0
  -28.1376  -12.8671    6.0260 C   0  0  0  0  0  0  0  0  0  0  0  0
  -25.2572  -15.1157    5.2979 O   0  0  0  0  0  0  0  0  0  0  0  0
  -24.2616  -15.4697    6.2542 C   0  0  0  0  0  0  0  0  0  0  0  0
  -21.5365  -12.4160    3.0684 N   0  0  0  0  0  0  0  0  0  0  0  0
  -20.8514  -12.1184    3.7097 H   0  0  0  0  0  0  0  0  0  0  0  0
  -21.3060  -13.5895    2.2378 C   0  0  0  0  0  0  0  0  0  0  0  0
  -20.6202  -14.6796    3.0547 C   0  0  0  0  0  0  0  0  0  0  0  0
  -20.4448  -13.2190    1.0378 C   0  0  0  0  0  0  0  0  0  0  0  0
  -19.9998  -14.4547    0.2586 C   0  0  0  0  0  0  0  0  0  0  0  0
  -19.2624  -15.3540    1.1580 N   0  0  0  0  0  0  0  0  0  0  0  0
  -18.7313  -16.4937    0.4011 C   0  0  0  0  0  0  0  0  0  0  0  0
  -20.1845  -15.8533    2.1805 C   0  0  0  0  0  0  0  0  0  0  0  0
 20 19  1  0  0  0
 19  9  1  0  0  0
  9  8  2  0  0  0
  9 10  1  0  0  0
 17 18  1  0  0  0
 17  8  1  0  0  0
  8  7  1  0  0  0
 10  2  2  0  0  0
  2  1  1  0  0  0
  2  3  1  0  0  0
  7  1  2  0  0  0
 21  3  1  0  0  0
 21 23  1  0  0  0
 24 23  1  0  0  0
 24 29  1  0  0  0
  1  5  1  0  0  0
  3  4  2  0  0  0
 27 29  1  0  0  0
 27 28  1  0  0  0
 27 26  1  0  0  0
 25 23  1  0  0  0
 25 26  1  0  0  0
  5  6  2  0  0  0
  4  6  1  0  0  0
  6 14  1  0  0  0
 14 15  1  0  0  0
 14 13  1  0  0  0
 15 11  1  0  0  0
 13 12  1  0  0  0
 12 16  1  0  0  0
 11 16  1  0  0  0
 21 22  1  0  0  0
M  END
> <minimizedAffinity>
-6.45452

$$$$
5TUZ_7L6_A_3006


 29 32  0  0  0  0  0  0  0  0999 V2000
  -25.0993  -13.1660    4.5383 C   0  0  0  0  0  0  0  0  0  0  0  0
  -23.7635  -13.5468    4.4341 C   0  0  0  0  0  0  0  0  0  0  0  0
  -22.9191  -12.8110    3.6026 C   0  0  0  0  0  0  0  0  0  0  0  0
  -23.4146  -11.7646    2.9182 N   0  0  0  0  0  0  0  0  0  0  0  0
  -25.5519  -12.1085    3.8308 N   0  0  0  0  0  0  0  0  0  0  0  0
  -24.7131  -11.4161    3.0298 C   0  0  0  0  0  0  0  0  0  0  0  0
  -25.9733  -13.8816    5.3592 C   0  0  0  0  0  0  0  0  0  0  0  0
  -25.4964  -14.9771    6.0752 C   0  0  0  0  0  0  0  0  0  0  0  0
  -24.1736  -15.3593    5.9738 C   0  0  0  0  0  0  0  0  0  0  0  0
  -23.2907  -14.6373    5.1635 C   0  0  0  0  0  0  0  0  0  0  0  0
  -24.3050   -9.0713    0.4812 C   0  0  0  0  0  0  0  0  0  0  0  0
  -26.4468  -10.0338    0.3294 C   0  0  0  0  0  0  0  0  0  0  0  0
  -26.5443  -10.2534    1.8334 C   0  0  0  0  0  0  0  0  0  0  0  0
  -25.1669  -10.3229    2.2916 N   0  0  0  0  0  0  0  0  0  0  0  0
  -24.2282   -9.2507    1.9914 C   0  0  0  0  0  0  0  0  0  0  0  0
  -25.6614   -8.8671    0.0837 O   0  0  0  0  0  0  0  0  0  0  0  0
  -26.3309  -15.6815    6.9031 O   0  0  0  0  0  0  0  0  0  0  0  0
  -26.7032  -15.1038    8.1550 C   0  0  0  0  0  0  0  0  0  0  0  0
  -23.7415  -16.4362    6.7062 O   0  0  0  0  0  0  0  0  0  0  0  0
  -23.0883  -16.2299    7.9560 C   0  0  0  0  0  0  0  0  0  0  0  0
  -21.6137  -13.1136    3.4603 N   0  0  0  0  0  0  0  0  0  0  0  0
  -20.9385  -12.6854    4.0348 H   0  0  0  0  0  0  0  0  0  0  0  0
  -21.2119  -14.0803    2.4483 C   0  0  0  0  0  0  0  0  0  0  0  0
  -20.3289  -15.1544    3.0751 C   0  0  0  0  0  0  0  0  0  0  0  0
  -20.4600  -13.3787    1.3253 C   0  0  0  0  0  0  0  0  0  0  0  0
  -19.8349  -14.3775    0.3537 C   0  0  0  0  0  0  0  0  0  0  0  0
  -18.9310  -15.2706    1.0932 N   0  0  0  0  0  0  0  0  0  0  0  0
  -18.2367  -16.1649    0.1593 C   0  0  0  0  0  0  0  0  0  0  0  0
  -19.7262  -16.0791    2.0200 C   0  0  0  0  0  0  0  0  0  0  0  0
 20 19  1  0  0  0
 19  9  1  0  0  0
  9  8  2  0  0  0
  9 10  1  0  0  0
 17 18  1  0  0  0
 17  8  1  0  0  0
  8  7  1  0  0  0
 10  2  2  0  0  0
  2  1  1  0  0  0
  2  3  1  0  0  0
  7  1  2  0  0  0
 21  3  1  0  0  0
 21 23  1  0  0  0
 24 23  1  0  0  0
 24 29  1  0  0  0
  1  5  1  0  0  0
  3  4  2  0  0  0
 27 29  1  0  0  0
 27 28  1  0  0  0
 27 26  1  0  0  0
 25 23  1  0  0  0
 25 26  1  0  0  0
  5  6  2  0  0  0
  4  6  1  0  0  0
  6 14  1  0  0  0
 14 15  1  0  0  0
 14 13  1  0  0  0
 15 11  1  0  0  0
 13 12  1  0  0  0
 12 16  1  0  0  0
 11 16  1  0  0  0
 21 22  1  0  0  0
M  END
> <minimizedAffinity>
-6.32956

$$$$
5TUZ_7L6_A_3006


 29 32  0  0  0  0  0  0  0  0999 V2000
  -24.8598  -11.5250    3.5762 C   0  0  0  0  0  0  0  0  0  0  0  0
  -23.5358  -11.6233    3.1548 C   0  0  0  0  0  0  0  0  0  0  0  0
  -22.7940  -12.7435    3.5299 C   0  0  0  0  0  0  0  0  0  0  0  0
  -23.3685  -13.6904    4.2928 N   0  0  0  0  0  0  0  0  0  0  0  0
  -25.3936  -12.5006    4.3423 N   0  0  0  0  0  0  0  0  0  0  0  0
  -24.6510  -13.5727    4.6943 C   0  0  0  0  0  0  0  0  0  0  0  0
  -25.6309  -10.4162    3.2216 C   0  0  0  0  0  0  0  0  0  0  0  0
  -25.0652   -9.4114    2.4401 C   0  0  0  0  0  0  0  0  0  0  0  0
  -23.7527   -9.5037    2.0215 C   0  0  0  0  0  0  0  0  0  0  0  0
  -22.9802  -10.6191    2.3625 C   0  0  0  0  0  0  0  0  0  0  0  0
  -24.7100  -15.4398    7.6388 C   0  0  0  0  0  0  0  0  0  0  0  0
  -26.8900  -14.7244    7.1169 C   0  0  0  0  0  0  0  0  0  0  0  0
  -26.6267  -14.7481    5.6169 C   0  0  0  0  0  0  0  0  0  0  0  0
  -25.1883  -14.5872    5.4868 N   0  0  0  0  0  0  0  0  0  0  0  0
  -24.2738  -15.4834    6.1805 C   0  0  0  0  0  0  0  0  0  0  0  0
  -26.1027  -15.7397    7.7394 O   0  0  0  0  0  0  0  0  0  0  0  0
  -25.8091   -8.3242    2.0625 O   0  0  0  0  0  0  0  0  0  0  0  0
  -26.1025   -7.3220    3.0367 C   0  0  0  0  0  0  0  0  0  0  0  0
  -23.2382   -8.4985    1.2421 O   0  0  0  0  0  0  0  0  0  0  0  0
  -22.4459   -7.4733    1.8359 C   0  0  0  0  0  0  0  0  0  0  0  0
  -21.5118  -12.9120    3.1509 N   0  0  0  0  0  0  0  0  0  0  0  0
  -20.8089  -12.3150    3.4954 H   0  0  0  0  0  0  0  0  0  0  0  0
  -21.1766  -13.9861    2.2267 C   0  0  0  0  0  0  0  0  0  0  0  0
  -20.4422  -15.0997    2.9662 C   0  0  0  0  0  0  0  0  0  0  0  0
  -20.3075  -13.4506    1.0968 C   0  0  0  0  0  0  0  0  0  0  0  0
  -19.7557  -14.5772    0.2259 C   0  0  0  0  0  0  0  0  0  0  0  0
  -18.9854  -15.5053    1.0665 N   0  0  0  0  0  0  0  0  0  0  0  0
  -18.3549  -16.5329    0.2295 C   0  0  0  0  0  0  0  0  0  0  0  0
  -19.9010  -16.1564    2.0060 C   0  0  0  0  0  0  0  0  0  0  0  0
 20 19  1  0  0  0
 19  9  1  0  0  0
  9  8  2  0  0  0
  9 10  1  0  0  0
 17 18  1  0  0  0
 17  8  1  0  0  0
  8  7  1  0  0  0
 10  2  2  0  0  0
  2  1  1  0  0  0
  2  3  1  0  0  0
  7  1  2  0  0  0
 21  3  1  0  0  0
 21 23  1  0  0  0
 24 23  1  0  0  0
 24 29  1  0  0  0
  1  5  1  0  0  0
  3  4  2  0  0  0
 27 29  1  0  0  0
 27 28  1  0  0  0
 27 26  1  0  0  0
 25 23  1  0  0  0
 25 26  1  0  0  0
  5  6  2  0  0  0
  4  6  1  0  0  0
  6 14  1  0  0  0
 14 15  1  0  0  0
 14 13  1  0  0  0
 15 11  1  0  0  0
 13 12  1  0  0  0
 12 16  1  0  0  0
 11 16  1  0  0  0
 21 22  1  0  0  0
M  END
> <minimizedAffinity>
-6.24265

$$$$
5TUZ_7L6_A_3006


 29 32  0  0  0  0  0  0  0  0999 V2000
  -23.4855  -14.9842    5.5920 C   0  0  0  0  0  0  0  0  0  0  0  0
  -24.4260  -13.9706    5.4236 C   0  0  0  0  0  0  0  0  0  0  0  0
  -24.2096  -13.0126    4.4330 C   0  0  0  0  0  0  0  0  0  0  0  0
  -23.1001  -13.0846    3.6763 N   0  0  0  0  0  0  0  0  0  0  0  0
  -22.3858  -15.0150    4.8089 N   0  0  0  0  0  0  0  0  0  0  0  0
  -22.1993  -14.0719    3.8599 C   0  0  0  0  0  0  0  0  0  0  0  0
  -23.6688  -15.9581    6.5757 C   0  0  0  0  0  0  0  0  0  0  0  0
  -24.8020  -15.9088    7.3842 C   0  0  0  0  0  0  0  0  0  0  0  0
  -25.7361  -14.9051    7.2220 C   0  0  0  0  0  0  0  0  0  0  0  0
  -25.5640  -13.9349    6.2289 C   0  0  0  0  0  0  0  0  0  0  0  0
  -19.9459  -15.7574    1.8005 C   0  0  0  0  0  0  0  0  0  0  0  0
  -20.6475  -13.7758    0.7433 C   0  0  0  0  0  0  0  0  0  0  0  0
  -20.8387  -13.0420    2.0643 C   0  0  0  0  0  0  0  0  0  0  0  0
  -21.0673  -14.0899    3.0448 N   0  0  0  0  0  0  0  0  0  0  0  0
  -20.1179  -15.1831    3.2002 C   0  0  0  0  0  0  0  0  0  0  0  0
  -19.5854  -14.7187    0.8891 O   0  0  0  0  0  0  0  0  0  0  0  0
  -25.0132  -16.8658    8.3420 O   0  0  0  0  0  0  0  0  0  0  0  0
  -25.5988  -18.1089    7.9525 C   0  0  0  0  0  0  0  0  0  0  0  0
  -26.8447  -14.9007    8.0306 O   0  0  0  0  0  0  0  0  0  0  0  0
  -26.8349  -14.1567    9.2462 C   0  0  0  0  0  0  0  0  0  0  0  0
  -25.0806  -12.0098    4.2052 N   0  0  0  0  0  0  0  0  0  0  0  0
  -24.9238  -11.1177    4.5911 H   0  0  0  0  0  0  0  0  0  0  0  0
  -26.2558  -12.2590    3.3825 C   0  0  0  0  0  0  0  0  0  0  0  0
  -26.0049  -13.4491    2.4622 C   0  0  0  0  0  0  0  0  0  0  0  0
  -26.5867  -11.0233    2.5566 C   0  0  0  0  0  0  0  0  0  0  0  0
  -27.6758  -11.3084    1.5247 C   0  0  0  0  0  0  0  0  0  0  0  0
  -27.2374  -12.4051    0.6493 N   0  0  0  0  0  0  0  0  0  0  0  0
  -28.2226  -12.6184   -0.4174 C   0  0  0  0  0  0  0  0  0  0  0  0
  -27.1320  -13.6283    1.4478 C   0  0  0  0  0  0  0  0  0  0  0  0
 20 19  1  0  0  0
 19  9  1  0  0  0
  9  8  2  0  0  0
  9 10  1  0  0  0
 17 18  1  0  0  0
 17  8  1  0  0  0
  8  7  1  0  0  0
 10  2  2  0  0  0
  2  1  1  0  0  0
  2  3  1  0  0  0
  7  1  2  0  0  0
 21  3  1  0  0  0
 21 23  1  0  0  0
 24 23  1  0  0  0
 24 29  1  0  0  0
  1  5  1  0  0  0
  3  4  2  0  0  0
 27 29  1  0  0  0
 27 28  1  0  0  0
 27 26  1  0  0  0
 25 23  1  0  0  0
 25 26  1  0  0  0
  5  6  2  0  0  0
  4  6  1  0  0  0
  6 14  1  0  0  0
 14 15  1  0  0  0
 14 13  1  0  0  0
 15 11  1  0  0  0
 13 12  1  0  0  0
 12 16  1  0  0  0
 11 16  1  0  0  0
 21 22  1  0  0  0
M  END
> <minimizedAffinity>
-5.95959

$$$$
5TUZ_7L6_A_3006


 29 32  0  0  0  0  0  0  0  0999 V2000
  -26.3035  -13.5972    2.2286 C   0  0  0  0  0  0  0  0  0  0  0  0
  -26.4215  -12.2344    1.9652 C   0  0  0  0  0  0  0  0  0  0  0  0
  -25.7771  -11.3300    2.8093 C   0  0  0  0  0  0  0  0  0  0  0  0
  -25.0705  -11.7924    3.8561 N   0  0  0  0  0  0  0  0  0  0  0  0
  -25.5841  -14.0145    3.2924 N   0  0  0  0  0  0  0  0  0  0  0  0
  -24.9738  -13.1164    4.0959 C   0  0  0  0  0  0  0  0  0  0  0  0
  -26.9376  -14.5305    1.4059 C   0  0  0  0  0  0  0  0  0  0  0  0
  -27.6858  -14.0866    0.3181 C   0  0  0  0  0  0  0  0  0  0  0  0
  -27.8069  -12.7368    0.0541 C   0  0  0  0  0  0  0  0  0  0  0  0
  -27.1622  -11.7983    0.8671 C   0  0  0  0  0  0  0  0  0  0  0  0
  -23.5621  -15.6332    6.0537 C   0  0  0  0  0  0  0  0  0  0  0  0
  -21.9487  -13.9766    5.6183 C   0  0  0  0  0  0  0  0  0  0  0  0
  -22.9881  -12.8650    5.5555 C   0  0  0  0  0  0  0  0  0  0  0  0
  -24.2289  -13.5326    5.1996 N   0  0  0  0  0  0  0  0  0  0  0  0
  -24.7244  -14.6516    5.9888 C   0  0  0  0  0  0  0  0  0  0  0  0
  -22.3934  -14.9721    6.5401 O   0  0  0  0  0  0  0  0  0  0  0  0
  -28.2996  -14.9851   -0.5150 O   0  0  0  0  0  0  0  0  0  0  0  0
  -27.9468  -16.3654   -0.4146 C   0  0  0  0  0  0  0  0  0  0  0  0
  -28.5422  -12.3424   -1.0352 O   0  0  0  0  0  0  0  0  0  0  0  0
  -27.9419  -11.5325   -2.0426 C   0  0  0  0  0  0  0  0  0  0  0  0
  -25.8373   -9.9984    2.6107 N   0  0  0  0  0  0  0  0  0  0  0  0
  -26.7052   -9.5555    2.4698 H   0  0  0  0  0  0  0  0  0  0  0  0
  -24.6059   -9.2215    2.6065 C   0  0  0  0  0  0  0  0  0  0  0  0
  -24.6703   -8.1368    3.6767 C   0  0  0  0  0  0  0  0  0  0  0  0
  -24.3916   -8.5898    1.2376 C   0  0  0  0  0  0  0  0  0  0  0  0
  -23.2322   -7.5960    1.2493 C   0  0  0  0  0  0  0  0  0  0  0  0
  -23.4959   -6.5569    2.2554 N   0  0  0  0  0  0  0  0  0  0  0  0
  -22.4466   -5.5321    2.2034 C   0  0  0  0  0  0  0  0  0  0  0  0
  -23.4868   -7.1767    3.5823 C   0  0  0  0  0  0  0  0  0  0  0  0
 20 19  1  0  0  0
 19  9  1  0  0  0
  9  8  2  0  0  0
  9 10  1  0  0  0
 17 18  1  0  0  0
 17  8  1  0  0  0
  8  7  1  0  0  0
 10  2  2  0  0  0
  2  1  1  0  0  0
  2  3  1  0  0  0
  7  1  2  0  0  0
 21  3  1  0  0  0
 21 23  1  0  0  0
 24 23  1  0  0  0
 24 29  1  0  0  0
  1  5  1  0  0  0
  3  4  2  0  0  0
 27 29  1  0  0  0
 27 28  1  0  0  0
 27 26  1  0  0  0
 25 23  1  0  0  0
 25 26  1  0  0  0
  5  6  2  0  0  0
  4  6  1  0  0  0
  6 14  1  0  0  0
 14 15  1  0  0  0
 14 13  1  0  0  0
 15 11  1  0  0  0
 13 12  1  0  0  0
 12 16  1  0  0  0
 11 16  1  0  0  0
 21 22  1  0  0  0
M  END
> <minimizedAffinity>
-5.56070

$$$$
5TUZ_7L6_A_3006


 29 32  0  0  0  0  0  0  0  0999 V2000
  -22.7264  -11.9837    3.0777 C   0  0  0  0  0  0  0  0  0  0  0  0
  -23.9381  -12.3569    3.6545 C   0  0  0  0  0  0  0  0  0  0  0  0
  -25.0426  -11.5198    3.4954 C   0  0  0  0  0  0  0  0  0  0  0  0
  -24.9089  -10.3752    2.8021 N   0  0  0  0  0  0  0  0  0  0  0  0
  -22.6398  -10.8241    2.3911 N   0  0  0  0  0  0  0  0  0  0  0  0
  -23.7245  -10.0304    2.2561 C   0  0  0  0  0  0  0  0  0  0  0  0
  -21.5996  -12.7962    3.2192 C   0  0  0  0  0  0  0  0  0  0  0  0
  -21.6994  -13.9845    3.9392 C   0  0  0  0  0  0  0  0  0  0  0  0
  -22.8979  -14.3576    4.5141 C   0  0  0  0  0  0  0  0  0  0  0  0
  -24.0331  -13.5539    4.3635 C   0  0  0  0  0  0  0  0  0  0  0  0
  -25.1424   -7.6161    0.1774 C   0  0  0  0  0  0  0  0  0  0  0  0
  -24.1334   -6.5679    2.0267 C   0  0  0  0  0  0  0  0  0  0  0  0
  -23.0643   -7.6448    2.1576 C   0  0  0  0  0  0  0  0  0  0  0  0
  -23.6496   -8.8288    1.5513 N   0  0  0  0  0  0  0  0  0  0  0  0
  -24.1705   -8.7882    0.1920 C   0  0  0  0  0  0  0  0  0  0  0  0
  -24.4901   -6.4370    0.6505 O   0  0  0  0  0  0  0  0  0  0  0  0
  -20.6122  -14.8079    4.0735 O   0  0  0  0  0  0  0  0  0  0  0  0
  -20.0122  -15.3495    2.8960 C   0  0  0  0  0  0  0  0  0  0  0  0
  -22.9565  -15.5424    5.2038 O   0  0  0  0  0  0  0  0  0  0  0  0
  -23.6505  -15.6076    6.4470 C   0  0  0  0  0  0  0  0  0  0  0  0
  -26.2489  -11.8206    4.0155 N   0  0  0  0  0  0  0  0  0  0  0  0
  -26.4170  -11.7081    4.9790 H   0  0  0  0  0  0  0  0  0  0  0  0
  -27.3010  -12.3137    3.1381 C   0  0  0  0  0  0  0  0  0  0  0  0
  -26.7222  -13.3104    2.1393 C   0  0  0  0  0  0  0  0  0  0  0  0
  -27.9503  -11.1523    2.3975 C   0  0  0  0  0  0  0  0  0  0  0  0
  -28.9074  -11.6391    1.3116 C   0  0  0  0  0  0  0  0  0  0  0  0
  -28.1745  -12.4988    0.3707 N   0  0  0  0  0  0  0  0  0  0  0  0
  -29.0512  -12.8855   -0.7409 C   0  0  0  0  0  0  0  0  0  0  0  0
  -27.7452  -13.7075    1.0776 C   0  0  0  0  0  0  0  0  0  0  0  0
 20 19  1  0  0  0
 19  9  1  0  0  0
  9  8  2  0  0  0
  9 10  1  0  0  0
 17 18  1  0  0  0
 17  8  1  0  0  0
  8  7  1  0  0  0
 10  2  2  0  0  0
  2  1  1  0  0  0
  2  3  1  0  0  0
  7  1  2  0  0  0
 21  3  1  0  0  0
 21 23  1  0  0  0
 24 23  1  0  0  0
 24 29  1  0  0  0
  1  5  1  0  0  0
  3  4  2  0  0  0
 27 29  1  0  0  0
 27 28  1  0  0  0
 27 26  1  0  0  0
 25 23  1  0  0  0
 25 26  1  0  0  0
  5  6  2  0  0  0
  4  6  1  0  0  0
  6 14  1  0  0  0
 14 15  1  0  0  0
 14 13  1  0  0  0
 15 11  1  0  0  0
 13 12  1  0  0  0
 12 16  1  0  0  0
 11 16  1  0  0  0
 21 22  1  0  0  0
M  END
> <minimizedAffinity>
-5.45852

$$$$
