2B7D_C1B_H_258


 50 53  0  0  0  0  0  0  0  0999 V2000
  -15.8971    3.2472   10.0453 C   0  0  0  0  0  0  0  0  0  0  0  0
  -16.6108    3.2237   11.2362 C   0  0  0  0  0  0  0  0  0  0  0  0
  -16.1033    3.7525   12.4091 C   0  0  0  0  0  0  0  0  0  0  0  0
  -14.8342    4.3285   12.4139 C   0  0  0  0  0  0  0  0  0  0  0  0
  -14.0532    4.3894   11.2527 C   0  0  0  0  0  0  0  0  0  0  0  0
  -14.6150    3.8389   10.0757 C   0  0  0  0  0  0  0  0  0  0  0  0
  -13.9099    3.8532    8.8840 O   0  0  0  0  0  0  0  0  0  0  0  0
  -14.2902    3.4864    8.1102 H   0  0  0  0  0  0  0  0  0  0  0  0
  -18.2517    0.4152    5.6156 C   0  0  0  0  0  0  0  0  0  0  0  0
  -17.9582    1.6384    4.9442 C   0  0  0  0  0  0  0  0  0  0  0  0
  -17.3535    2.7151    5.5977 C   0  0  0  0  0  0  0  0  0  0  0  0
  -17.0570    2.5326    6.9113 C   0  0  0  0  0  0  0  0  0  0  0  0
  -17.3116    1.4092    7.5756 C   0  0  0  0  0  0  0  0  0  0  0  0
  -17.9059    0.3190    6.9821 C   0  0  0  0  0  0  0  0  0  0  0  0
  -16.5063    3.3450    7.7492 N   0  0  0  0  0  0  0  0  0  0  0  0
  -16.9347    1.4722    8.8435 N   0  0  0  0  0  0  0  0  0  0  0  0
  -16.4439    2.7028    8.8731 C   0  0  0  0  0  0  0  0  0  0  0  0
  -17.0001    0.7986    9.5585 H   0  0  0  0  0  0  0  0  0  0  0  0
  -18.8587   -0.6371    4.9360 C   0  0  0  0  0  0  0  0  0  0  0  0
  -19.1360   -1.7294    5.6078 N   0  0  0  0  0  0  0  0  0  0  0  0
  -19.1290   -0.5042    3.6479 N   0  0  0  0  0  0  0  0  0  0  0  0
  -18.9179   -1.7866    6.5661 H   0  0  0  0  0  0  0  0  0  0  0  0
  -18.9041    0.3332    3.1816 H   0  0  0  0  0  0  0  0  0  0  0  0
  -19.5551   -1.2426    3.1555 H   0  0  0  0  0  0  0  0  0  0  0  0
  -12.7810    4.9773   11.2937 C   0  0  0  0  0  0  0  0  0  0  0  0
  -12.5353    6.2370   10.7557 C   0  0  0  0  0  0  0  0  0  0  0  0
  -11.3038    6.8233   10.8204 C   0  0  0  0  0  0  0  0  0  0  0  0
  -10.2570    6.1769   11.4170 C   0  0  0  0  0  0  0  0  0  0  0  0
  -10.4271    4.9295   11.9613 C   0  0  0  0  0  0  0  0  0  0  0  0
  -11.6893    4.3289   11.8999 C   0  0  0  0  0  0  0  0  0  0  0  0
  -13.5161    6.9523   10.1010 O   0  0  0  0  0  0  0  0  0  0  0  0
  -14.3811    6.6002   10.0251 H   0  0  0  0  0  0  0  0  0  0  0  0
   -9.2186    4.2597   12.6109 C   0  0  0  0  0  0  0  0  0  0  0  0
   -8.3484    5.3402   13.1307 N   0  0  0  0  0  0  0  0  0  0  0  0
   -7.2218    5.0337   13.7370 C   0  0  0  0  0  0  0  0  0  0  0  0
   -6.8674    3.8790   13.8737 O   0  0  0  0  0  0  0  0  0  0  0  0
   -6.4106    5.9413   14.2251 N   0  0  0  0  0  0  0  0  0  0  0  0
   -8.6118    6.2826   13.0229 H   0  0  0  0  0  0  0  0  0  0  0  0
   -6.6370    6.8963   14.1485 H   0  0  0  0  0  0  0  0  0  0  0  0
   -5.5751    5.6675   14.6682 H   0  0  0  0  0  0  0  0  0  0  0  0
  -16.9770    3.7400   13.6701 C   0  0  0  0  0  0  0  0  0  0  0  0
  -17.0448    2.2585   14.1709 C   0  0  0  0  0  0  0  0  0  0  0  0
  -15.9771    1.7657   14.5227 O   0  0  0  0  0  0  0  0  0  0  0  0
  -18.1104    1.6676   14.1871 O   0  0  0  0  0  0  0  0  0  0  0  0
  -18.8912    2.1018   13.9049 H   0  0  0  0  0  0  0  0  0  0  0  0
  -18.3403    4.4800   13.4118 C   0  0  0  0  0  0  0  0  0  0  0  0
  -18.7631    5.4595   14.5668 C   0  0  0  0  0  0  0  0  0  0  0  0
  -19.0802    5.0580   15.6827 O   0  0  0  0  0  0  0  0  0  0  0  0
  -18.7617    6.6418   14.2809 O   0  0  0  0  0  0  0  0  0  0  0  0
  -19.0707    4.1401   15.8705 H   0  0  0  0  0  0  0  0  0  0  0  0
  9 10  1  0  0  0
  9 14  2  0  0  0
  9 19  1  0  0  0
 10 11  2  0  0  0
 11 12  1  0  0  0
 12 13  2  0  0  0
 12 15  1  0  0  0
 13 14  1  0  0  0
 13 16  1  0  0  0
 19 20  2  0  0  0
 19 21  1  0  0  0
 15 17  2  0  0  0
 16 17  1  0  0  0
 17  1  1  0  0  0
  1  2  2  0  0  0
  1  6  1  0  0  0
  2  3  1  0  0  0
  3 41  1  0  0  0
  3  4  2  0  0  0
 41 42  1  0  0  0
 41 46  1  0  0  0
 42 43  2  0  0  0
 42 44  1  0  0  0
 46 47  1  0  0  0
 47 48  1  0  0  0
 47 49  2  0  0  0
  4  5  1  0  0  0
  5  6  2  0  0  0
  5 25  1  0  0  0
  6  7  1  0  0  0
 25 26  1  0  0  0
 25 30  2  0  0  0
 26 27  2  0  0  0
 26 31  1  0  0  0
 27 28  1  0  0  0
 28 29  2  0  0  0
 29 33  1  0  0  0
 29 30  1  0  0  0
 33 34  1  0  0  0
 34 35  1  0  0  0
 35 36  2  0  0  0
 35 37  1  0  0  0
 20 22  1  0  0  0
 21 23  1  0  0  0
 21 24  1  0  0  0
 16 18  1  0  0  0
 44 45  1  0  0  0
 48 50  1  0  0  0
  7  8  1  0  0  0
 34 38  1  0  0  0
 37 39  1  0  0  0
 37 40  1  0  0  0
 31 32  1  0  0  0
M  END
> <minimizedAffinity>
-9.58353

$$$$
2B7D_C1B_H_258


 50 53  0  0  0  0  0  0  0  0999 V2000
  -15.7676    3.4917    9.7877 C   0  0  0  0  0  0  0  0  0  0  0  0
  -16.6167    3.6759   10.8708 C   0  0  0  0  0  0  0  0  0  0  0  0
  -16.2169    4.3430   12.0145 C   0  0  0  0  0  0  0  0  0  0  0  0
  -14.9218    4.8503   12.1002 C   0  0  0  0  0  0  0  0  0  0  0  0
  -14.0069    4.7042   11.0496 C   0  0  0  0  0  0  0  0  0  0  0  0
  -14.4615    4.0178    9.8980 C   0  0  0  0  0  0  0  0  0  0  0  0
  -13.6214    3.8249    8.8142 O   0  0  0  0  0  0  0  0  0  0  0  0
  -13.9314    3.3693    8.0564 H   0  0  0  0  0  0  0  0  0  0  0  0
  -17.9699    0.2985    5.5286 C   0  0  0  0  0  0  0  0  0  0  0  0
  -17.1193    1.1301    4.7425 C   0  0  0  0  0  0  0  0  0  0  0  0
  -16.3239    2.1264    5.3142 C   0  0  0  0  0  0  0  0  0  0  0  0
  -16.4030    2.2592    6.6643 C   0  0  0  0  0  0  0  0  0  0  0  0
  -17.1810    1.5051    7.4352 C   0  0  0  0  0  0  0  0  0  0  0  0
  -17.9847    0.5112    6.9253 C   0  0  0  0  0  0  0  0  0  0  0  0
  -15.7913    3.0846    7.4453 N   0  0  0  0  0  0  0  0  0  0  0  0
  -17.0890    1.8247    8.7170 N   0  0  0  0  0  0  0  0  0  0  0  0
  -16.2075    2.8112    8.6418 C   0  0  0  0  0  0  0  0  0  0  0  0
  -17.5445    1.4401    9.5005 H   0  0  0  0  0  0  0  0  0  0  0  0
  -18.7531   -0.6825    4.9269 C   0  0  0  0  0  0  0  0  0  0  0  0
  -19.1259   -1.7088    5.6543 N   0  0  0  0  0  0  0  0  0  0  0  0
  -19.0883   -0.5512    3.6540 N   0  0  0  0  0  0  0  0  0  0  0  0
  -18.8541   -1.7675    6.5987 H   0  0  0  0  0  0  0  0  0  0  0  0
  -18.7871    0.2353    3.1443 H   0  0  0  0  0  0  0  0  0  0  0  0
  -19.6390   -1.2401    3.2164 H   0  0  0  0  0  0  0  0  0  0  0  0
  -12.7121    5.2284   11.1696 C   0  0  0  0  0  0  0  0  0  0  0  0
  -12.3910    6.5053   10.7188 C   0  0  0  0  0  0  0  0  0  0  0  0
  -11.1378    7.0284   10.8610 C   0  0  0  0  0  0  0  0  0  0  0  0
  -10.1433    6.2992   11.4516 C   0  0  0  0  0  0  0  0  0  0  0  0
  -10.3886    5.0307   11.9118 C   0  0  0  0  0  0  0  0  0  0  0  0
  -11.6732    4.4945   11.7711 C   0  0  0  0  0  0  0  0  0  0  0  0
  -13.3144    7.3037   10.0769 O   0  0  0  0  0  0  0  0  0  0  0  0
  -14.1909    6.9976    9.9503 H   0  0  0  0  0  0  0  0  0  0  0  0
   -9.2357    4.2673   12.5592 C   0  0  0  0  0  0  0  0  0  0  0  0
   -8.2426    5.2725   13.0042 N   0  0  0  0  0  0  0  0  0  0  0  0
   -7.2202    4.8956   13.7414 C   0  0  0  0  0  0  0  0  0  0  0  0
   -7.0612    3.7336   14.0607 O   0  0  0  0  0  0  0  0  0  0  0  0
   -6.3102    5.7357   14.1729 N   0  0  0  0  0  0  0  0  0  0  0  0
   -8.3471    6.2178   12.7495 H   0  0  0  0  0  0  0  0  0  0  0  0
   -6.3785    6.6924   13.9505 H   0  0  0  0  0  0  0  0  0  0  0  0
   -5.5589    5.4098   14.7192 H   0  0  0  0  0  0  0  0  0  0  0  0
  -17.2321    4.5559   13.1449 C   0  0  0  0  0  0  0  0  0  0  0  0
  -17.5326    6.0906   13.2135 C   0  0  0  0  0  0  0  0  0  0  0  0
  -17.1726    6.6585   14.2404 O   0  0  0  0  0  0  0  0  0  0  0  0
  -18.0967    6.6444   12.2861 O   0  0  0  0  0  0  0  0  0  0  0  0
  -18.3460    6.1526   11.5285 H   0  0  0  0  0  0  0  0  0  0  0  0
  -16.7512    3.8526   14.4667 C   0  0  0  0  0  0  0  0  0  0  0  0
  -16.8515    2.2840   14.4273 C   0  0  0  0  0  0  0  0  0  0  0  0
  -17.9278    1.6983   14.3515 O   0  0  0  0  0  0  0  0  0  0  0  0
  -15.7930    1.6875   14.4831 O   0  0  0  0  0  0  0  0  0  0  0  0
  -18.7257    2.1879   14.3101 H   0  0  0  0  0  0  0  0  0  0  0  0
  9 10  1  0  0  0
  9 14  2  0  0  0
  9 19  1  0  0  0
 10 11  2  0  0  0
 11 12  1  0  0  0
 12 13  2  0  0  0
 12 15  1  0  0  0
 13 14  1  0  0  0
 13 16  1  0  0  0
 19 20  2  0  0  0
 19 21  1  0  0  0
 15 17  2  0  0  0
 16 17  1  0  0  0
 17  1  1  0  0  0
  1  2  2  0  0  0
  1  6  1  0  0  0
  2  3  1  0  0  0
  3 41  1  0  0  0
  3  4  2  0  0  0
 41 42  1  0  0  0
 41 46  1  0  0  0
 42 43  2  0  0  0
 42 44  1  0  0  0
 46 47  1  0  0  0
 47 48  1  0  0  0
 47 49  2  0  0  0
  4  5  1  0  0  0
  5  6  2  0  0  0
  5 25  1  0  0  0
  6  7  1  0  0  0
 25 26  1  0  0  0
 25 30  2  0  0  0
 26 27  2  0  0  0
 26 31  1  0  0  0
 27 28  1  0  0  0
 28 29  2  0  0  0
 29 33  1  0  0  0
 29 30  1  0  0  0
 33 34  1  0  0  0
 34 35  1  0  0  0
 35 36  2  0  0  0
 35 37  1  0  0  0
 20 22  1  0  0  0
 21 23  1  0  0  0
 21 24  1  0  0  0
 16 18  1  0  0  0
 44 45  1  0  0  0
 48 50  1  0  0  0
  7  8  1  0  0  0
 34 38  1  0  0  0
 37 39  1  0  0  0
 37 40  1  0  0  0
 31 32  1  0  0  0
M  END
> <minimizedAffinity>
-9.52793

$$$$
2B7D_C1B_H_258


 50 53  0  0  0  0  0  0  0  0999 V2000
  -12.9438    4.0674   10.1099 C   0  0  0  0  0  0  0  0  0  0  0  0
  -12.8620    3.1044    9.1130 C   0  0  0  0  0  0  0  0  0  0  0  0
  -13.9730    2.6792    8.4074 C   0  0  0  0  0  0  0  0  0  0  0  0
  -15.2234    3.2227    8.6962 C   0  0  0  0  0  0  0  0  0  0  0  0
  -15.3866    4.1981    9.6882 C   0  0  0  0  0  0  0  0  0  0  0  0
  -14.2213    4.6048   10.3815 C   0  0  0  0  0  0  0  0  0  0  0  0
  -14.2926    5.5612   11.3804 O   0  0  0  0  0  0  0  0  0  0  0  0
  -13.5158    5.8239   11.8337 H   0  0  0  0  0  0  0  0  0  0  0  0
   -8.1726    5.0662   13.1800 C   0  0  0  0  0  0  0  0  0  0  0  0
   -8.3981    6.3946   12.7137 C   0  0  0  0  0  0  0  0  0  0  0  0
   -9.4786    6.7162   11.8883 C   0  0  0  0  0  0  0  0  0  0  0  0
  -10.3070    5.6919   11.5546 C   0  0  0  0  0  0  0  0  0  0  0  0
  -10.1351    4.4398   11.9677 C   0  0  0  0  0  0  0  0  0  0  0  0
   -9.0886    4.0675   12.7801 C   0  0  0  0  0  0  0  0  0  0  0  0
  -11.3654    5.6993   10.8161 N   0  0  0  0  0  0  0  0  0  0  0  0
  -11.0692    3.6207   11.5091 N   0  0  0  0  0  0  0  0  0  0  0  0
  -11.7951    4.4767   10.8046 C   0  0  0  0  0  0  0  0  0  0  0  0
  -11.1897    2.6539   11.6508 H   0  0  0  0  0  0  0  0  0  0  0  0
   -7.0837    4.7786   13.9981 C   0  0  0  0  0  0  0  0  0  0  0  0
   -6.9605    3.5557   14.4570 N   0  0  0  0  0  0  0  0  0  0  0  0
   -6.2206    5.7388   14.2863 N   0  0  0  0  0  0  0  0  0  0  0  0
   -7.6260    2.8708   14.2177 H   0  0  0  0  0  0  0  0  0  0  0  0
   -6.3504    6.6435   13.9206 H   0  0  0  0  0  0  0  0  0  0  0  0
   -5.4483    5.5486   14.8666 H   0  0  0  0  0  0  0  0  0  0  0  0
  -16.6594    4.7239    9.9515 C   0  0  0  0  0  0  0  0  0  0  0  0
  -17.1903    5.7726    9.2065 C   0  0  0  0  0  0  0  0  0  0  0  0
  -18.4411    6.2667    9.4428 C   0  0  0  0  0  0  0  0  0  0  0  0
  -19.2180    5.7440   10.4391 C   0  0  0  0  0  0  0  0  0  0  0  0
  -18.7540    4.7140   11.2169 C   0  0  0  0  0  0  0  0  0  0  0  0
  -17.4743    4.2033   10.9736 C   0  0  0  0  0  0  0  0  0  0  0  0
  -16.4708    6.3911    8.2055 O   0  0  0  0  0  0  0  0  0  0  0  0
  -15.6062    6.0951    7.9985 H   0  0  0  0  0  0  0  0  0  0  0  0
  -19.6686    4.1761   12.3147 C   0  0  0  0  0  0  0  0  0  0  0  0
  -18.8057    3.8181   13.4645 N   0  0  0  0  0  0  0  0  0  0  0  0
  -18.4402    2.5664   13.6393 C   0  0  0  0  0  0  0  0  0  0  0  0
  -18.7852    1.6905   12.8704 O   0  0  0  0  0  0  0  0  0  0  0  0
  -17.6835    2.1826   14.6393 N   0  0  0  0  0  0  0  0  0  0  0  0
  -18.5073    4.5132   14.0946 H   0  0  0  0  0  0  0  0  0  0  0  0
  -17.3685    2.8415   15.2995 H   0  0  0  0  0  0  0  0  0  0  0  0
  -17.4304    1.2355   14.7299 H   0  0  0  0  0  0  0  0  0  0  0  0
  -13.7914    1.6533    7.2811 C   0  0  0  0  0  0  0  0  0  0  0  0
  -12.4328    1.9780    6.5747 C   0  0  0  0  0  0  0  0  0  0  0  0
  -12.5132    2.6391    5.5436 O   0  0  0  0  0  0  0  0  0  0  0  0
  -11.3858    1.5739    7.0494 O   0  0  0  0  0  0  0  0  0  0  0  0
  -11.3930    1.0730    7.8413 H   0  0  0  0  0  0  0  0  0  0  0  0
  -15.0774    1.5814    6.3790 C   0  0  0  0  0  0  0  0  0  0  0  0
  -16.0450    0.3962    6.7412 C   0  0  0  0  0  0  0  0  0  0  0  0
  -16.3959    0.1665    7.8949 O   0  0  0  0  0  0  0  0  0  0  0  0
  -16.4190   -0.2829    5.8040 O   0  0  0  0  0  0  0  0  0  0  0  0
  -16.0896    0.7092    8.5946 H   0  0  0  0  0  0  0  0  0  0  0  0
  9 10  1  0  0  0
  9 14  2  0  0  0
  9 19  1  0  0  0
 10 11  2  0  0  0
 11 12  1  0  0  0
 12 13  2  0  0  0
 12 15  1  0  0  0
 13 14  1  0  0  0
 13 16  1  0  0  0
 19 20  2  0  0  0
 19 21  1  0  0  0
 15 17  2  0  0  0
 16 17  1  0  0  0
 17  1  1  0  0  0
  1  2  2  0  0  0
  1  6  1  0  0  0
  2  3  1  0  0  0
  3 41  1  0  0  0
  3  4  2  0  0  0
 41 42  1  0  0  0
 41 46  1  0  0  0
 42 43  2  0  0  0
 42 44  1  0  0  0
 46 47  1  0  0  0
 47 48  1  0  0  0
 47 49  2  0  0  0
  4  5  1  0  0  0
  5  6  2  0  0  0
  5 25  1  0  0  0
  6  7  1  0  0  0
 25 26  1  0  0  0
 25 30  2  0  0  0
 26 27  2  0  0  0
 26 31  1  0  0  0
 27 28  1  0  0  0
 28 29  2  0  0  0
 29 33  1  0  0  0
 29 30  1  0  0  0
 33 34  1  0  0  0
 34 35  1  0  0  0
 35 36  2  0  0  0
 35 37  1  0  0  0
 20 22  1  0  0  0
 21 23  1  0  0  0
 21 24  1  0  0  0
 16 18  1  0  0  0
 44 45  1  0  0  0
 48 50  1  0  0  0
  7  8  1  0  0  0
 34 38  1  0  0  0
 37 39  1  0  0  0
 37 40  1  0  0  0
 31 32  1  0  0  0
M  END
> <minimizedAffinity>
-9.50142

$$$$
2B7D_C1B_H_258


 50 53  0  0  0  0  0  0  0  0999 V2000
  -13.6062    3.9999   10.1923 C   0  0  0  0  0  0  0  0  0  0  0  0
  -14.8310    4.3327   10.7554 C   0  0  0  0  0  0  0  0  0  0  0  0
  -16.0314    3.9395   10.1920 C   0  0  0  0  0  0  0  0  0  0  0  0
  -16.0293    3.1870    9.0190 C   0  0  0  0  0  0  0  0  0  0  0  0
  -14.8345    2.8124    8.3912 C   0  0  0  0  0  0  0  0  0  0  0  0
  -13.6310    3.2343    9.0057 C   0  0  0  0  0  0  0  0  0  0  0  0
  -12.4044    2.9115    8.4499 O   0  0  0  0  0  0  0  0  0  0  0  0
  -11.6132    3.1953    8.8639 H   0  0  0  0  0  0  0  0  0  0  0  0
   -8.6419    5.0374   12.9245 C   0  0  0  0  0  0  0  0  0  0  0  0
   -8.8420    6.3330   12.3641 C   0  0  0  0  0  0  0  0  0  0  0  0
   -9.9526    6.6334   11.5714 C   0  0  0  0  0  0  0  0  0  0  0  0
  -10.8359    5.6216   11.3644 C   0  0  0  0  0  0  0  0  0  0  0  0
  -10.6892    4.3999   11.8685 C   0  0  0  0  0  0  0  0  0  0  0  0
   -9.6151    4.0494   12.6542 C   0  0  0  0  0  0  0  0  0  0  0  0
  -11.9316    5.6149   10.6826 N   0  0  0  0  0  0  0  0  0  0  0  0
  -11.6769    3.5870   11.5260 N   0  0  0  0  0  0  0  0  0  0  0  0
  -12.4071    4.4143   10.7922 C   0  0  0  0  0  0  0  0  0  0  0  0
  -11.8259    2.6403   11.7516 H   0  0  0  0  0  0  0  0  0  0  0  0
   -7.5219    4.7700   13.7069 C   0  0  0  0  0  0  0  0  0  0  0  0
   -7.3962    3.5677   14.2168 N   0  0  0  0  0  0  0  0  0  0  0  0
   -6.6331    5.7281   13.9118 N   0  0  0  0  0  0  0  0  0  0  0  0
   -8.0815    2.8836   14.0392 H   0  0  0  0  0  0  0  0  0  0  0  0
   -6.7660    6.6170   13.5100 H   0  0  0  0  0  0  0  0  0  0  0  0
   -5.8386    5.5522   14.4660 H   0  0  0  0  0  0  0  0  0  0  0  0
  -14.8698    2.0540    7.2126 C   0  0  0  0  0  0  0  0  0  0  0  0
  -15.2077    0.7040    7.2167 C   0  0  0  0  0  0  0  0  0  0  0  0
  -15.2708   -0.0292    6.0665 C   0  0  0  0  0  0  0  0  0  0  0  0
  -14.9911    0.5475    4.8586 C   0  0  0  0  0  0  0  0  0  0  0  0
  -14.6438    1.8722    4.7826 C   0  0  0  0  0  0  0  0  0  0  0  0
  -14.5828    2.6262    5.9596 C   0  0  0  0  0  0  0  0  0  0  0  0
  -15.4702    0.0233    8.3872 O   0  0  0  0  0  0  0  0  0  0  0  0
  -15.4417    0.4744    9.2079 H   0  0  0  0  0  0  0  0  0  0  0  0
  -14.3410    2.4562    3.4048 C   0  0  0  0  0  0  0  0  0  0  0  0
  -13.1420    1.7557    2.8883 N   0  0  0  0  0  0  0  0  0  0  0  0
  -11.9681    2.3468    2.9446 C   0  0  0  0  0  0  0  0  0  0  0  0
  -11.8378    3.4568    3.4227 O   0  0  0  0  0  0  0  0  0  0  0  0
  -10.8700    1.7847    2.4993 N   0  0  0  0  0  0  0  0  0  0  0  0
  -13.2234    0.8526    2.5050 H   0  0  0  0  0  0  0  0  0  0  0  0
  -10.9044    0.8857    2.0995 H   0  0  0  0  0  0  0  0  0  0  0  0
  -10.0113    2.2618    2.5648 H   0  0  0  0  0  0  0  0  0  0  0  0
  -17.3412    4.2979   10.9060 C   0  0  0  0  0  0  0  0  0  0  0  0
  -17.1952    3.8417   12.3963 C   0  0  0  0  0  0  0  0  0  0  0  0
  -16.6843    2.7389   12.5682 O   0  0  0  0  0  0  0  0  0  0  0  0
  -17.5841    4.5644   13.2970 O   0  0  0  0  0  0  0  0  0  0  0  0
  -17.9660    5.3966   13.0982 H   0  0  0  0  0  0  0  0  0  0  0  0
  -18.5806    3.7591   10.1021 C   0  0  0  0  0  0  0  0  0  0  0  0
  -19.1616    2.4072   10.6563 C   0  0  0  0  0  0  0  0  0  0  0  0
  -18.5629    1.3416   10.5423 O   0  0  0  0  0  0  0  0  0  0  0  0
  -20.2466    2.4846   11.2005 O   0  0  0  0  0  0  0  0  0  0  0  0
  -17.7282    1.3162   10.1174 H   0  0  0  0  0  0  0  0  0  0  0  0
  9 10  1  0  0  0
  9 14  2  0  0  0
  9 19  1  0  0  0
 10 11  2  0  0  0
 11 12  1  0  0  0
 12 13  2  0  0  0
 12 15  1  0  0  0
 13 14  1  0  0  0
 13 16  1  0  0  0
 19 20  2  0  0  0
 19 21  1  0  0  0
 15 17  2  0  0  0
 16 17  1  0  0  0
 17  1  1  0  0  0
  1  2  2  0  0  0
  1  6  1  0  0  0
  2  3  1  0  0  0
  3 41  1  0  0  0
  3  4  2  0  0  0
 41 42  1  0  0  0
 41 46  1  0  0  0
 42 43  2  0  0  0
 42 44  1  0  0  0
 46 47  1  0  0  0
 47 48  1  0  0  0
 47 49  2  0  0  0
  4  5  1  0  0  0
  5  6  2  0  0  0
  5 25  1  0  0  0
  6  7  1  0  0  0
 25 26  1  0  0  0
 25 30  2  0  0  0
 26 27  2  0  0  0
 26 31  1  0  0  0
 27 28  1  0  0  0
 28 29  2  0  0  0
 29 33  1  0  0  0
 29 30  1  0  0  0
 33 34  1  0  0  0
 34 35  1  0  0  0
 35 36  2  0  0  0
 35 37  1  0  0  0
 20 22  1  0  0  0
 21 23  1  0  0  0
 21 24  1  0  0  0
 16 18  1  0  0  0
 44 45  1  0  0  0
 48 50  1  0  0  0
  7  8  1  0  0  0
 34 38  1  0  0  0
 37 39  1  0  0  0
 37 40  1  0  0  0
 31 32  1  0  0  0
M  END
> <minimizedAffinity>
-9.49750

$$$$
2B7D_C1B_H_258


 50 53  0  0  0  0  0  0  0  0999 V2000
  -12.4151    5.2305   10.3451 C   0  0  0  0  0  0  0  0  0  0  0  0
  -11.1804    4.8017   10.8137 C   0  0  0  0  0  0  0  0  0  0  0  0
  -10.3077    5.6495   11.4714 C   0  0  0  0  0  0  0  0  0  0  0  0
  -10.6625    6.9816   11.6758 C   0  0  0  0  0  0  0  0  0  0  0  0
  -11.8904    7.4890   11.2320 C   0  0  0  0  0  0  0  0  0  0  0  0
  -12.7524    6.5839   10.5673 C   0  0  0  0  0  0  0  0  0  0  0  0
  -13.9839    7.0025   10.0922 O   0  0  0  0  0  0  0  0  0  0  0  0
  -14.5476    6.3960    9.6535 H   0  0  0  0  0  0  0  0  0  0  0  0
  -15.3769    1.3770    7.2524 C   0  0  0  0  0  0  0  0  0  0  0  0
  -16.4555    1.8848    8.0344 C   0  0  0  0  0  0  0  0  0  0  0  0
  -16.2696    2.8869    8.9901 C   0  0  0  0  0  0  0  0  0  0  0  0
  -15.0018    3.3546    9.1332 C   0  0  0  0  0  0  0  0  0  0  0  0
  -13.9677    2.9110    8.4247 C   0  0  0  0  0  0  0  0  0  0  0  0
  -14.0936    1.9259    7.4720 C   0  0  0  0  0  0  0  0  0  0  0  0
  -14.5468    4.2631    9.9289 N   0  0  0  0  0  0  0  0  0  0  0  0
  -12.8348    3.5174    8.7450 N   0  0  0  0  0  0  0  0  0  0  0  0
  -13.2767    4.3421    9.6834 C   0  0  0  0  0  0  0  0  0  0  0  0
  -11.9258    3.3917    8.3885 H   0  0  0  0  0  0  0  0  0  0  0  0
  -15.5955    0.3750    6.3111 C   0  0  0  0  0  0  0  0  0  0  0  0
  -14.6648    0.1564    5.4126 N   0  0  0  0  0  0  0  0  0  0  0  0
  -16.7245   -0.3135    6.3505 N   0  0  0  0  0  0  0  0  0  0  0  0
  -13.8389    0.6922    5.4191 H   0  0  0  0  0  0  0  0  0  0  0  0
  -17.3969   -0.1171    7.0422 H   0  0  0  0  0  0  0  0  0  0  0  0
  -16.8922   -1.0223    5.6882 H   0  0  0  0  0  0  0  0  0  0  0  0
  -12.2151    8.8344   11.4558 C   0  0  0  0  0  0  0  0  0  0  0  0
  -11.9888    9.8152   10.4948 C   0  0  0  0  0  0  0  0  0  0  0  0
  -12.3309   11.1211   10.6999 C   0  0  0  0  0  0  0  0  0  0  0  0
  -12.9068   11.5120   11.8768 C   0  0  0  0  0  0  0  0  0  0  0  0
  -13.1513   10.5984   12.8702 C   0  0  0  0  0  0  0  0  0  0  0  0
  -12.8055    9.2590   12.6603 C   0  0  0  0  0  0  0  0  0  0  0  0
  -11.3795    9.5277    9.2914 O   0  0  0  0  0  0  0  0  0  0  0  0
  -11.1222    8.6484    9.0948 H   0  0  0  0  0  0  0  0  0  0  0  0
  -13.7941   11.0983   14.1617 C   0  0  0  0  0  0  0  0  0  0  0  0
  -13.5134   10.0877   15.2080 N   0  0  0  0  0  0  0  0  0  0  0  0
  -14.3328    9.9635   16.2297 C   0  0  0  0  0  0  0  0  0  0  0  0
  -15.3280   10.6538   16.3337 O   0  0  0  0  0  0  0  0  0  0  0  0
  -14.1384    9.0939   17.1920 N   0  0  0  0  0  0  0  0  0  0  0  0
  -12.7178    9.5119   15.1390 H   0  0  0  0  0  0  0  0  0  0  0  0
  -13.3512    8.5030   17.1698 H   0  0  0  0  0  0  0  0  0  0  0  0
  -14.7795    9.0320   17.9365 H   0  0  0  0  0  0  0  0  0  0  0  0
   -8.9866    5.0855   12.0101 C   0  0  0  0  0  0  0  0  0  0  0  0
   -9.0256    3.5350   11.7992 C   0  0  0  0  0  0  0  0  0  0  0  0
   -9.2061    2.8641   12.8111 O   0  0  0  0  0  0  0  0  0  0  0  0
   -8.8746    3.0664   10.6845 O   0  0  0  0  0  0  0  0  0  0  0  0
   -8.7406    3.6346    9.9516 H   0  0  0  0  0  0  0  0  0  0  0  0
   -8.7075    5.6114   13.4656 C   0  0  0  0  0  0  0  0  0  0  0  0
   -7.2109    6.0211   13.7196 C   0  0  0  0  0  0  0  0  0  0  0  0
   -6.7937    7.1526   13.4897 O   0  0  0  0  0  0  0  0  0  0  0  0
   -6.4910    5.1419   14.1533 O   0  0  0  0  0  0  0  0  0  0  0  0
   -7.3748    7.8073   13.1557 H   0  0  0  0  0  0  0  0  0  0  0  0
  9 10  1  0  0  0
  9 14  2  0  0  0
  9 19  1  0  0  0
 10 11  2  0  0  0
 11 12  1  0  0  0
 12 13  2  0  0  0
 12 15  1  0  0  0
 13 14  1  0  0  0
 13 16  1  0  0  0
 19 20  2  0  0  0
 19 21  1  0  0  0
 15 17  2  0  0  0
 16 17  1  0  0  0
 17  1  1  0  0  0
  1  2  2  0  0  0
  1  6  1  0  0  0
  2  3  1  0  0  0
  3 41  1  0  0  0
  3  4  2  0  0  0
 41 42  1  0  0  0
 41 46  1  0  0  0
 42 43  2  0  0  0
 42 44  1  0  0  0
 46 47  1  0  0  0
 47 48  1  0  0  0
 47 49  2  0  0  0
  4  5  1  0  0  0
  5  6  2  0  0  0
  5 25  1  0  0  0
  6  7  1  0  0  0
 25 26  1  0  0  0
 25 30  2  0  0  0
 26 27  2  0  0  0
 26 31  1  0  0  0
 27 28  1  0  0  0
 28 29  2  0  0  0
 29 33  1  0  0  0
 29 30  1  0  0  0
 33 34  1  0  0  0
 34 35  1  0  0  0
 35 36  2  0  0  0
 35 37  1  0  0  0
 20 22  1  0  0  0
 21 23  1  0  0  0
 21 24  1  0  0  0
 16 18  1  0  0  0
 44 45  1  0  0  0
 48 50  1  0  0  0
  7  8  1  0  0  0
 34 38  1  0  0  0
 37 39  1  0  0  0
 37 40  1  0  0  0
 31 32  1  0  0  0
M  END
> <minimizedAffinity>
-9.43566

$$$$
2B7D_C1B_H_258


 50 53  0  0  0  0  0  0  0  0999 V2000
  -14.3081    4.1934   11.5698 C   0  0  0  0  0  0  0  0  0  0  0  0
  -15.3059    4.1267   12.5332 C   0  0  0  0  0  0  0  0  0  0  0  0
  -16.5992    3.7427   12.2281 C   0  0  0  0  0  0  0  0  0  0  0  0
  -16.9291    3.4119   10.9152 C   0  0  0  0  0  0  0  0  0  0  0  0
  -15.9780    3.4552    9.8878 C   0  0  0  0  0  0  0  0  0  0  0  0
  -14.6671    3.8503   10.2476 C   0  0  0  0  0  0  0  0  0  0  0  0
  -13.6659    3.9243    9.2939 O   0  0  0  0  0  0  0  0  0  0  0  0
  -12.8012    4.1869    9.5417 H   0  0  0  0  0  0  0  0  0  0  0  0
   -8.7743    5.1190   12.8759 C   0  0  0  0  0  0  0  0  0  0  0  0
   -9.2617    6.4398   13.1013 C   0  0  0  0  0  0  0  0  0  0  0  0
  -10.6058    6.7744   12.9179 C   0  0  0  0  0  0  0  0  0  0  0  0
  -11.4267    5.7694   12.5142 C   0  0  0  0  0  0  0  0  0  0  0  0
  -11.0150    4.5244   12.2938 C   0  0  0  0  0  0  0  0  0  0  0  0
   -9.7037    4.1405   12.4578 C   0  0  0  0  0  0  0  0  0  0  0  0
  -12.6934    5.7925   12.2688 N   0  0  0  0  0  0  0  0  0  0  0  0
  -11.9973    3.7257   11.9054 N   0  0  0  0  0  0  0  0  0  0  0  0
  -13.0056    4.5854   11.9153 C   0  0  0  0  0  0  0  0  0  0  0  0
  -11.9827    2.7686   11.6754 H   0  0  0  0  0  0  0  0  0  0  0  0
   -7.4278    4.8199   13.0640 C   0  0  0  0  0  0  0  0  0  0  0  0
   -6.9005    3.8600   12.3415 N   0  0  0  0  0  0  0  0  0  0  0  0
   -6.7328    5.5032   13.9585 N   0  0  0  0  0  0  0  0  0  0  0  0
   -7.4538    3.3763   11.6865 H   0  0  0  0  0  0  0  0  0  0  0  0
   -7.1677    6.2162   14.4797 H   0  0  0  0  0  0  0  0  0  0  0  0
   -5.7807    5.2986   14.1029 H   0  0  0  0  0  0  0  0  0  0  0  0
  -16.3448    3.1144    8.5782 C   0  0  0  0  0  0  0  0  0  0  0  0
  -16.6722    4.0803    7.6313 C   0  0  0  0  0  0  0  0  0  0  0  0
  -17.0016    3.7520    6.3475 C   0  0  0  0  0  0  0  0  0  0  0  0
  -17.0285    2.4440    5.9499 C   0  0  0  0  0  0  0  0  0  0  0  0
  -16.7240    1.4405    6.8338 C   0  0  0  0  0  0  0  0  0  0  0  0
  -16.3819    1.7751    8.1486 C   0  0  0  0  0  0  0  0  0  0  0  0
  -16.7102    5.4229    7.9448 O   0  0  0  0  0  0  0  0  0  0  0  0
  -16.4941    5.7081    8.8108 H   0  0  0  0  0  0  0  0  0  0  0  0
  -16.7746    0.0005    6.3290 C   0  0  0  0  0  0  0  0  0  0  0  0
  -17.4481    0.0244    5.0097 N   0  0  0  0  0  0  0  0  0  0  0  0
  -18.6050   -0.5834    4.8582 C   0  0  0  0  0  0  0  0  0  0  0  0
  -19.1459   -1.1594    5.7819 O   0  0  0  0  0  0  0  0  0  0  0  0
  -19.2494   -0.6052    3.7162 N   0  0  0  0  0  0  0  0  0  0  0  0
  -17.0320    0.4927    4.2502 H   0  0  0  0  0  0  0  0  0  0  0  0
  -18.8674   -0.1578    2.9268 H   0  0  0  0  0  0  0  0  0  0  0  0
  -20.1152   -1.0690    3.6483 H   0  0  0  0  0  0  0  0  0  0  0  0
  -17.6306    3.6383   13.3591 C   0  0  0  0  0  0  0  0  0  0  0  0
  -17.7625    2.1223   13.7260 C   0  0  0  0  0  0  0  0  0  0  0  0
  -16.9194    1.6875   14.5050 O   0  0  0  0  0  0  0  0  0  0  0  0
  -18.6566    1.4520   13.2401 O   0  0  0  0  0  0  0  0  0  0  0  0
  -19.2695    1.8453   12.6505 H   0  0  0  0  0  0  0  0  0  0  0  0
  -18.9488    4.4099   12.9852 C   0  0  0  0  0  0  0  0  0  0  0  0
  -19.3501    5.5248   14.0188 C   0  0  0  0  0  0  0  0  0  0  0  0
  -20.1016    5.3019   14.9635 O   0  0  0  0  0  0  0  0  0  0  0  0
  -18.8722    6.6251   13.8179 O   0  0  0  0  0  0  0  0  0  0  0  0
  -20.4530    4.4426   15.0901 H   0  0  0  0  0  0  0  0  0  0  0  0
  9 10  1  0  0  0
  9 14  2  0  0  0
  9 19  1  0  0  0
 10 11  2  0  0  0
 11 12  1  0  0  0
 12 13  2  0  0  0
 12 15  1  0  0  0
 13 14  1  0  0  0
 13 16  1  0  0  0
 19 20  2  0  0  0
 19 21  1  0  0  0
 15 17  2  0  0  0
 16 17  1  0  0  0
 17  1  1  0  0  0
  1  2  2  0  0  0
  1  6  1  0  0  0
  2  3  1  0  0  0
  3 41  1  0  0  0
  3  4  2  0  0  0
 41 42  1  0  0  0
 41 46  1  0  0  0
 42 43  2  0  0  0
 42 44  1  0  0  0
 46 47  1  0  0  0
 47 48  1  0  0  0
 47 49  2  0  0  0
  4  5  1  0  0  0
  5  6  2  0  0  0
  5 25  1  0  0  0
  6  7  1  0  0  0
 25 26  1  0  0  0
 25 30  2  0  0  0
 26 27  2  0  0  0
 26 31  1  0  0  0
 27 28  1  0  0  0
 28 29  2  0  0  0
 29 33  1  0  0  0
 29 30  1  0  0  0
 33 34  1  0  0  0
 34 35  1  0  0  0
 35 36  2  0  0  0
 35 37  1  0  0  0
 20 22  1  0  0  0
 21 23  1  0  0  0
 21 24  1  0  0  0
 16 18  1  0  0  0
 44 45  1  0  0  0
 48 50  1  0  0  0
  7  8  1  0  0  0
 34 38  1  0  0  0
 37 39  1  0  0  0
 37 40  1  0  0  0
 31 32  1  0  0  0
M  END
> <minimizedAffinity>
-9.38759

$$$$
2B7D_C1B_H_258


 50 53  0  0  0  0  0  0  0  0999 V2000
  -12.8202    4.4230   10.7619 C   0  0  0  0  0  0  0  0  0  0  0  0
  -11.4451    4.4587   10.9512 C   0  0  0  0  0  0  0  0  0  0  0  0
  -10.8603    5.1982   11.9632 C   0  0  0  0  0  0  0  0  0  0  0  0
  -11.6629    5.9400   12.8279 C   0  0  0  0  0  0  0  0  0  0  0  0
  -13.0578    5.9550   12.7008 C   0  0  0  0  0  0  0  0  0  0  0  0
  -13.6117    5.1807   11.6531 C   0  0  0  0  0  0  0  0  0  0  0  0
  -14.9814    5.1418   11.4530 O   0  0  0  0  0  0  0  0  0  0  0  0
  -15.3387    4.6263   10.7569 H   0  0  0  0  0  0  0  0  0  0  0  0
  -15.7561    1.4954    6.7624 C   0  0  0  0  0  0  0  0  0  0  0  0
  -14.4388    1.1262    6.3609 C   0  0  0  0  0  0  0  0  0  0  0  0
  -13.3035    1.5890    7.0309 C   0  0  0  0  0  0  0  0  0  0  0  0
  -13.5230    2.4106    8.0908 C   0  0  0  0  0  0  0  0  0  0  0  0
  -14.7334    2.7790    8.5001 C   0  0  0  0  0  0  0  0  0  0  0  0
  -15.8845    2.3542    7.8770 C   0  0  0  0  0  0  0  0  0  0  0  0
  -12.6736    2.9789    8.8788 N   0  0  0  0  0  0  0  0  0  0  0  0
  -14.6912    3.5848    9.5502 N   0  0  0  0  0  0  0  0  0  0  0  0
  -13.3798    3.6600    9.7255 C   0  0  0  0  0  0  0  0  0  0  0  0
  -15.4234    4.0066   10.0553 H   0  0  0  0  0  0  0  0  0  0  0  0
  -16.8664    1.0198    6.0703 C   0  0  0  0  0  0  0  0  0  0  0  0
  -17.7141    1.8953    5.5842 N   0  0  0  0  0  0  0  0  0  0  0  0
  -17.0306   -0.2853    5.9308 N   0  0  0  0  0  0  0  0  0  0  0  0
  -17.5538    2.8584    5.7108 H   0  0  0  0  0  0  0  0  0  0  0  0
  -16.3699   -0.9081    6.3115 H   0  0  0  0  0  0  0  0  0  0  0  0
  -17.8136   -0.6340    5.4463 H   0  0  0  0  0  0  0  0  0  0  0  0
  -13.8346    6.7118   13.5894 C   0  0  0  0  0  0  0  0  0  0  0  0
  -14.2017    8.0249   13.3104 C   0  0  0  0  0  0  0  0  0  0  0  0
  -14.9822    8.7538   14.1612 C   0  0  0  0  0  0  0  0  0  0  0  0
  -15.4261    8.2103   15.3348 C   0  0  0  0  0  0  0  0  0  0  0  0
  -15.0955    6.9237   15.6760 C   0  0  0  0  0  0  0  0  0  0  0  0
  -14.2994    6.1736   14.8034 C   0  0  0  0  0  0  0  0  0  0  0  0
  -13.7734    8.6736   12.1711 O   0  0  0  0  0  0  0  0  0  0  0  0
  -13.2349    8.2236   11.5502 H   0  0  0  0  0  0  0  0  0  0  0  0
  -15.6203    6.3758   17.0009 C   0  0  0  0  0  0  0  0  0  0  0  0
  -16.6277    7.3392   17.5027 N   0  0  0  0  0  0  0  0  0  0  0  0
  -17.8335    6.9163   17.8158 C   0  0  0  0  0  0  0  0  0  0  0  0
  -18.1424    5.7451   17.7141 O   0  0  0  0  0  0  0  0  0  0  0  0
  -18.7723    7.7178   18.2589 N   0  0  0  0  0  0  0  0  0  0  0  0
  -16.3961    8.2910   17.6013 H   0  0  0  0  0  0  0  0  0  0  0  0
  -18.5890    8.6792   18.3652 H   0  0  0  0  0  0  0  0  0  0  0  0
  -19.6603    7.3580   18.4852 H   0  0  0  0  0  0  0  0  0  0  0  0
   -9.3378    5.1400   12.1427 C   0  0  0  0  0  0  0  0  0  0  0  0
   -8.9194    3.6340   12.0577 C   0  0  0  0  0  0  0  0  0  0  0  0
   -8.8265    3.0456   13.1309 O   0  0  0  0  0  0  0  0  0  0  0  0
   -8.7025    3.1208   10.9741 O   0  0  0  0  0  0  0  0  0  0  0  0
   -8.7915    3.6261   10.1901 H   0  0  0  0  0  0  0  0  0  0  0  0
   -8.8953    5.9433   13.4202 C   0  0  0  0  0  0  0  0  0  0  0  0
   -7.3406    6.1443   13.5404 C   0  0  0  0  0  0  0  0  0  0  0  0
   -6.8027    7.2286   13.3351 O   0  0  0  0  0  0  0  0  0  0  0  0
   -6.7038    5.1536   13.8442 O   0  0  0  0  0  0  0  0  0  0  0  0
   -7.3223    7.9728   13.1025 H   0  0  0  0  0  0  0  0  0  0  0  0
  9 10  1  0  0  0
  9 14  2  0  0  0
  9 19  1  0  0  0
 10 11  2  0  0  0
 11 12  1  0  0  0
 12 13  2  0  0  0
 12 15  1  0  0  0
 13 14  1  0  0  0
 13 16  1  0  0  0
 19 20  2  0  0  0
 19 21  1  0  0  0
 15 17  2  0  0  0
 16 17  1  0  0  0
 17  1  1  0  0  0
  1  2  2  0  0  0
  1  6  1  0  0  0
  2  3  1  0  0  0
  3 41  1  0  0  0
  3  4  2  0  0  0
 41 42  1  0  0  0
 41 46  1  0  0  0
 42 43  2  0  0  0
 42 44  1  0  0  0
 46 47  1  0  0  0
 47 48  1  0  0  0
 47 49  2  0  0  0
  4  5  1  0  0  0
  5  6  2  0  0  0
  5 25  1  0  0  0
  6  7  1  0  0  0
 25 26  1  0  0  0
 25 30  2  0  0  0
 26 27  2  0  0  0
 26 31  1  0  0  0
 27 28  1  0  0  0
 28 29  2  0  0  0
 29 33  1  0  0  0
 29 30  1  0  0  0
 33 34  1  0  0  0
 34 35  1  0  0  0
 35 36  2  0  0  0
 35 37  1  0  0  0
 20 22  1  0  0  0
 21 23  1  0  0  0
 21 24  1  0  0  0
 16 18  1  0  0  0
 44 45  1  0  0  0
 48 50  1  0  0  0
  7  8  1  0  0  0
 34 38  1  0  0  0
 37 39  1  0  0  0
 37 40  1  0  0  0
 31 32  1  0  0  0
M  END
> <minimizedAffinity>
-9.28278

$$$$
2B7D_C1B_H_258


 50 53  0  0  0  0  0  0  0  0999 V2000
  -12.8575    4.2722   10.7319 C   0  0  0  0  0  0  0  0  0  0  0  0
  -11.4851    4.3923   10.9061 C   0  0  0  0  0  0  0  0  0  0  0  0
  -10.9350    5.0070   12.0163 C   0  0  0  0  0  0  0  0  0  0  0  0
  -11.7714    5.5313   13.0000 C   0  0  0  0  0  0  0  0  0  0  0  0
  -13.1659    5.4495   12.8956 C   0  0  0  0  0  0  0  0  0  0  0  0
  -13.6834    4.8088   11.7442 C   0  0  0  0  0  0  0  0  0  0  0  0
  -15.0503    4.6878   11.5587 O   0  0  0  0  0  0  0  0  0  0  0  0
  -15.3834    4.2620   10.7934 H   0  0  0  0  0  0  0  0  0  0  0  0
  -15.6127    2.0405    6.1916 C   0  0  0  0  0  0  0  0  0  0  0  0
  -14.3751    1.3487    6.0407 C   0  0  0  0  0  0  0  0  0  0  0  0
  -13.3085    1.5382    6.9231 C   0  0  0  0  0  0  0  0  0  0  0  0
  -13.5156    2.4183    7.9376 C   0  0  0  0  0  0  0  0  0  0  0  0
  -14.6531    3.0833    8.1165 C   0  0  0  0  0  0  0  0  0  0  0  0
  -15.7342    2.9358    7.2779 C   0  0  0  0  0  0  0  0  0  0  0  0
  -12.7172    2.7834    8.8835 N   0  0  0  0  0  0  0  0  0  0  0  0
  -14.6133    3.8836    9.1708 N   0  0  0  0  0  0  0  0  0  0  0  0
  -13.3812    3.6404    9.5935 C   0  0  0  0  0  0  0  0  0  0  0  0
  -15.3013    4.4860    9.5356 H   0  0  0  0  0  0  0  0  0  0  0  0
  -16.6544    1.8318    5.2921 C   0  0  0  0  0  0  0  0  0  0  0  0
  -17.8494    2.2638    5.6184 N   0  0  0  0  0  0  0  0  0  0  0  0
  -16.4084    1.2075    4.1520 N   0  0  0  0  0  0  0  0  0  0  0  0
  -17.9889    2.7239    6.4775 H   0  0  0  0  0  0  0  0  0  0  0  0
  -15.4963    0.8994    3.9463 H   0  0  0  0  0  0  0  0  0  0  0  0
  -17.1375    1.0510    3.5093 H   0  0  0  0  0  0  0  0  0  0  0  0
  -13.9771    5.9869   13.9050 C   0  0  0  0  0  0  0  0  0  0  0  0
  -14.7880    5.1845   14.7020 C   0  0  0  0  0  0  0  0  0  0  0  0
  -15.5566    5.7028   15.7044 C   0  0  0  0  0  0  0  0  0  0  0  0
  -15.5596    7.0473   15.9535 C   0  0  0  0  0  0  0  0  0  0  0  0
  -14.7895    7.8971   15.2011 C   0  0  0  0  0  0  0  0  0  0  0  0
  -13.9978    7.3674   14.1763 C   0  0  0  0  0  0  0  0  0  0  0  0
  -14.8824    3.8227   14.5050 O   0  0  0  0  0  0  0  0  0  0  0  0
  -14.3782    3.4107   13.8312 H   0  0  0  0  0  0  0  0  0  0  0  0
  -14.8387    9.3878   15.5274 C   0  0  0  0  0  0  0  0  0  0  0  0
  -14.5934   10.1192   14.2626 N   0  0  0  0  0  0  0  0  0  0  0  0
  -13.7884   11.1597   14.2580 C   0  0  0  0  0  0  0  0  0  0  0  0
  -13.2273   11.5335   15.2694 O   0  0  0  0  0  0  0  0  0  0  0  0
  -13.5343   11.8538   13.1746 N   0  0  0  0  0  0  0  0  0  0  0  0
  -15.0305    9.8281   13.4299 H   0  0  0  0  0  0  0  0  0  0  0  0
  -13.9559   11.6050   12.3204 H   0  0  0  0  0  0  0  0  0  0  0  0
  -12.9219   12.6236   13.2154 H   0  0  0  0  0  0  0  0  0  0  0  0
   -9.4085    5.0486   12.1637 C   0  0  0  0  0  0  0  0  0  0  0  0
   -8.9111    3.5666   12.2434 C   0  0  0  0  0  0  0  0  0  0  0  0
   -8.7431    3.0024   11.1663 O   0  0  0  0  0  0  0  0  0  0  0  0
   -8.7222    3.0434   13.3275 O   0  0  0  0  0  0  0  0  0  0  0  0
   -8.8693    3.5300   14.1146 H   0  0  0  0  0  0  0  0  0  0  0  0
   -8.9865    6.0175   13.3282 C   0  0  0  0  0  0  0  0  0  0  0  0
   -7.4310    6.1532   13.5129 C   0  0  0  0  0  0  0  0  0  0  0  0
   -6.8339    7.2020   13.2881 O   0  0  0  0  0  0  0  0  0  0  0  0
   -6.8559    5.1490   13.8874 O   0  0  0  0  0  0  0  0  0  0  0  0
   -7.3069    7.9581   13.0006 H   0  0  0  0  0  0  0  0  0  0  0  0
  9 10  1  0  0  0
  9 14  2  0  0  0
  9 19  1  0  0  0
 10 11  2  0  0  0
 11 12  1  0  0  0
 12 13  2  0  0  0
 12 15  1  0  0  0
 13 14  1  0  0  0
 13 16  1  0  0  0
 19 20  2  0  0  0
 19 21  1  0  0  0
 15 17  2  0  0  0
 16 17  1  0  0  0
 17  1  1  0  0  0
  1  2  2  0  0  0
  1  6  1  0  0  0
  2  3  1  0  0  0
  3 41  1  0  0  0
  3  4  2  0  0  0
 41 42  1  0  0  0
 41 46  1  0  0  0
 42 43  2  0  0  0
 42 44  1  0  0  0
 46 47  1  0  0  0
 47 48  1  0  0  0
 47 49  2  0  0  0
  4  5  1  0  0  0
  5  6  2  0  0  0
  5 25  1  0  0  0
  6  7  1  0  0  0
 25 26  1  0  0  0
 25 30  2  0  0  0
 26 27  2  0  0  0
 26 31  1  0  0  0
 27 28  1  0  0  0
 28 29  2  0  0  0
 29 33  1  0  0  0
 29 30  1  0  0  0
 33 34  1  0  0  0
 34 35  1  0  0  0
 35 36  2  0  0  0
 35 37  1  0  0  0
 20 22  1  0  0  0
 21 23  1  0  0  0
 21 24  1  0  0  0
 16 18  1  0  0  0
 44 45  1  0  0  0
 48 50  1  0  0  0
  7  8  1  0  0  0
 34 38  1  0  0  0
 37 39  1  0  0  0
 37 40  1  0  0  0
 31 32  1  0  0  0
M  END
> <minimizedAffinity>
-9.28185

$$$$
2B7D_C1B_H_258


 50 53  0  0  0  0  0  0  0  0999 V2000
  -13.0619    5.4385   10.3539 C   0  0  0  0  0  0  0  0  0  0  0  0
  -13.5858    6.7024   10.1170 C   0  0  0  0  0  0  0  0  0  0  0  0
  -14.8059    6.8884    9.4927 C   0  0  0  0  0  0  0  0  0  0  0  0
  -15.5448    5.7817    9.0787 C   0  0  0  0  0  0  0  0  0  0  0  0
  -15.0829    4.4750    9.2818 C   0  0  0  0  0  0  0  0  0  0  0  0
  -13.8312    4.3335    9.9277 C   0  0  0  0  0  0  0  0  0  0  0  0
  -13.2978    3.0777   10.1647 O   0  0  0  0  0  0  0  0  0  0  0  0
  -12.4685    2.9942   10.5930 H   0  0  0  0  0  0  0  0  0  0  0  0
   -8.0755    5.4739   13.2385 C   0  0  0  0  0  0  0  0  0  0  0  0
   -7.9518    4.1899   12.6313 C   0  0  0  0  0  0  0  0  0  0  0  0
   -8.9397    3.6699   11.7911 C   0  0  0  0  0  0  0  0  0  0  0  0
  -10.0272    4.4573   11.5813 C   0  0  0  0  0  0  0  0  0  0  0  0
  -10.1827    5.6605   12.1258 C   0  0  0  0  0  0  0  0  0  0  0  0
   -9.2426    6.2201   12.9607 C   0  0  0  0  0  0  0  0  0  0  0  0
  -11.0766    4.2338   10.8642 N   0  0  0  0  0  0  0  0  0  0  0  0
  -11.3242    6.2331   11.7754 N   0  0  0  0  0  0  0  0  0  0  0  0
  -11.8211    5.2869   10.9920 C   0  0  0  0  0  0  0  0  0  0  0  0
  -11.6965    7.1096   12.0250 H   0  0  0  0  0  0  0  0  0  0  0  0
   -7.0743    5.9609   14.0742 C   0  0  0  0  0  0  0  0  0  0  0  0
   -6.8892    7.2587   14.1267 N   0  0  0  0  0  0  0  0  0  0  0  0
   -6.3474    5.1079   14.7770 N   0  0  0  0  0  0  0  0  0  0  0  0
   -7.4530    7.8586   13.5868 H   0  0  0  0  0  0  0  0  0  0  0  0
   -6.5196    4.1410   14.7081 H   0  0  0  0  0  0  0  0  0  0  0  0
   -5.6342    5.4399   15.3689 H   0  0  0  0  0  0  0  0  0  0  0  0
  -15.8532    3.3847    8.8533 C   0  0  0  0  0  0  0  0  0  0  0  0
  -16.8735    2.8524    9.6358 C   0  0  0  0  0  0  0  0  0  0  0  0
  -17.6437    1.8092    9.2080 C   0  0  0  0  0  0  0  0  0  0  0  0
  -17.4268    1.2419    7.9830 C   0  0  0  0  0  0  0  0  0  0  0  0
  -16.4327    1.7122    7.1634 C   0  0  0  0  0  0  0  0  0  0  0  0
  -15.6452    2.7839    7.5981 C   0  0  0  0  0  0  0  0  0  0  0  0
  -17.1453    3.3307   10.9006 O   0  0  0  0  0  0  0  0  0  0  0  0
  -16.6490    4.0457   11.2477 H   0  0  0  0  0  0  0  0  0  0  0  0
  -16.2393    1.0344    5.8090 C   0  0  0  0  0  0  0  0  0  0  0  0
  -17.0185   -0.2253    5.8367 N   0  0  0  0  0  0  0  0  0  0  0  0
  -17.9985   -0.4036    4.9773 C   0  0  0  0  0  0  0  0  0  0  0  0
  -18.2770    0.4396    4.1473 O   0  0  0  0  0  0  0  0  0  0  0  0
  -18.7300   -1.4918    4.9532 N   0  0  0  0  0  0  0  0  0  0  0  0
  -16.8040   -0.9254    6.4948 H   0  0  0  0  0  0  0  0  0  0  0  0
  -18.5577   -2.2153    5.5984 H   0  0  0  0  0  0  0  0  0  0  0  0
  -19.4515   -1.5853    4.2899 H   0  0  0  0  0  0  0  0  0  0  0  0
  -15.3430    8.3149    9.3191 C   0  0  0  0  0  0  0  0  0  0  0  0
  -14.4064    9.0404    8.2961 C   0  0  0  0  0  0  0  0  0  0  0  0
  -14.7868    9.0355    7.1292 O   0  0  0  0  0  0  0  0  0  0  0  0
  -13.3708    9.5577    8.6769 O   0  0  0  0  0  0  0  0  0  0  0  0
  -13.1373    9.5264    9.5837 H   0  0  0  0  0  0  0  0  0  0  0  0
  -15.5602    9.0033   10.7162 C   0  0  0  0  0  0  0  0  0  0  0  0
  -15.8315   10.5496   10.6300 C   0  0  0  0  0  0  0  0  0  0  0  0
  -16.9226   11.0057   10.3004 O   0  0  0  0  0  0  0  0  0  0  0  0
  -14.8876   11.2656   10.9053 O   0  0  0  0  0  0  0  0  0  0  0  0
  -17.6297   10.4263   10.0946 H   0  0  0  0  0  0  0  0  0  0  0  0
  9 10  1  0  0  0
  9 14  2  0  0  0
  9 19  1  0  0  0
 10 11  2  0  0  0
 11 12  1  0  0  0
 12 13  2  0  0  0
 12 15  1  0  0  0
 13 14  1  0  0  0
 13 16  1  0  0  0
 19 20  2  0  0  0
 19 21  1  0  0  0
 15 17  2  0  0  0
 16 17  1  0  0  0
 17  1  1  0  0  0
  1  2  2  0  0  0
  1  6  1  0  0  0
  2  3  1  0  0  0
  3 41  1  0  0  0
  3  4  2  0  0  0
 41 42  1  0  0  0
 41 46  1  0  0  0
 42 43  2  0  0  0
 42 44  1  0  0  0
 46 47  1  0  0  0
 47 48  1  0  0  0
 47 49  2  0  0  0
  4  5  1  0  0  0
  5  6  2  0  0  0
  5 25  1  0  0  0
  6  7  1  0  0  0
 25 26  1  0  0  0
 25 30  2  0  0  0
 26 27  2  0  0  0
 26 31  1  0  0  0
 27 28  1  0  0  0
 28 29  2  0  0  0
 29 33  1  0  0  0
 29 30  1  0  0  0
 33 34  1  0  0  0
 34 35  1  0  0  0
 35 36  2  0  0  0
 35 37  1  0  0  0
 20 22  1  0  0  0
 21 23  1  0  0  0
 21 24  1  0  0  0
 16 18  1  0  0  0
 44 45  1  0  0  0
 48 50  1  0  0  0
  7  8  1  0  0  0
 34 38  1  0  0  0
 37 39  1  0  0  0
 37 40  1  0  0  0
 31 32  1  0  0  0
M  END
> <minimizedAffinity>
-9.05434

$$$$
2B7D_C1B_H_258


 50 53  0  0  0  0  0  0  0  0999 V2000
  -13.8045    4.5094   11.8244 C   0  0  0  0  0  0  0  0  0  0  0  0
  -14.7265    4.8581   12.8024 C   0  0  0  0  0  0  0  0  0  0  0  0
  -16.0907    4.8022   12.5813 C   0  0  0  0  0  0  0  0  0  0  0  0
  -16.5722    4.3876   11.3410 C   0  0  0  0  0  0  0  0  0  0  0  0
  -15.7050    4.0201   10.3042 C   0  0  0  0  0  0  0  0  0  0  0  0
  -14.3177    4.0897   10.5774 C   0  0  0  0  0  0  0  0  0  0  0  0
  -13.3899    3.7484    9.6077 O   0  0  0  0  0  0  0  0  0  0  0  0
  -12.4737    3.7977    9.7980 H   0  0  0  0  0  0  0  0  0  0  0  0
   -8.2855    5.4137   13.2063 C   0  0  0  0  0  0  0  0  0  0  0  0
   -8.1257    4.1701   12.5275 C   0  0  0  0  0  0  0  0  0  0  0  0
   -9.2093    3.4855   11.9713 C   0  0  0  0  0  0  0  0  0  0  0  0
  -10.4274    4.0717   12.1105 C   0  0  0  0  0  0  0  0  0  0  0  0
  -10.6214    5.2301   12.7340 C   0  0  0  0  0  0  0  0  0  0  0  0
   -9.5912    5.9454   13.3003 C   0  0  0  0  0  0  0  0  0  0  0  0
  -11.5838    3.6685   11.7037 N   0  0  0  0  0  0  0  0  0  0  0  0
  -11.8943    5.5952   12.7429 N   0  0  0  0  0  0  0  0  0  0  0  0
  -12.4269    4.5763   12.0841 C   0  0  0  0  0  0  0  0  0  0  0  0
  -12.3220    6.3939   13.1282 H   0  0  0  0  0  0  0  0  0  0  0  0
   -7.1852    6.0681   13.7529 C   0  0  0  0  0  0  0  0  0  0  0  0
   -6.9146    7.2809   13.3319 N   0  0  0  0  0  0  0  0  0  0  0  0
   -6.4537    5.4503   14.6658 N   0  0  0  0  0  0  0  0  0  0  0  0
   -7.4854    7.7041   12.6505 H   0  0  0  0  0  0  0  0  0  0  0  0
   -6.6920    4.5395   14.9537 H   0  0  0  0  0  0  0  0  0  0  0  0
   -5.6711    5.9014   15.0573 H   0  0  0  0  0  0  0  0  0  0  0  0
  -16.2244    3.6067    9.0692 C   0  0  0  0  0  0  0  0  0  0  0  0
  -16.4947    4.5099    8.0457 C   0  0  0  0  0  0  0  0  0  0  0  0
  -16.9733    4.1059    6.8323 C   0  0  0  0  0  0  0  0  0  0  0  0
  -17.2132    2.7826    6.5857 C   0  0  0  0  0  0  0  0  0  0  0  0
  -16.9761    1.8392    7.5527 C   0  0  0  0  0  0  0  0  0  0  0  0
  -16.4815    2.2508    8.7951 C   0  0  0  0  0  0  0  0  0  0  0  0
  -16.3212    5.8684    8.2095 O   0  0  0  0  0  0  0  0  0  0  0  0
  -15.9955    6.2045    9.0213 H   0  0  0  0  0  0  0  0  0  0  0  0
  -17.2666    0.3786    7.2162 C   0  0  0  0  0  0  0  0  0  0  0  0
  -17.7678    0.3437    5.8225 N   0  0  0  0  0  0  0  0  0  0  0  0
  -18.7147   -0.5077    5.4923 C   0  0  0  0  0  0  0  0  0  0  0  0
  -19.2013   -1.2651    6.3092 O   0  0  0  0  0  0  0  0  0  0  0  0
  -19.1973   -0.5937    4.2759 N   0  0  0  0  0  0  0  0  0  0  0  0
  -17.3940    0.9545    5.1468 H   0  0  0  0  0  0  0  0  0  0  0  0
  -18.8477   -0.0090    3.5652 H   0  0  0  0  0  0  0  0  0  0  0  0
  -19.9091   -1.2430    4.0734 H   0  0  0  0  0  0  0  0  0  0  0  0
  -17.0455    5.1484   13.7312 C   0  0  0  0  0  0  0  0  0  0  0  0
  -16.7752    6.6395   14.1236 C   0  0  0  0  0  0  0  0  0  0  0  0
  -16.6839    7.4285   13.1878 O   0  0  0  0  0  0  0  0  0  0  0  0
  -16.6624    6.9514   15.2961 O   0  0  0  0  0  0  0  0  0  0  0  0
  -16.7431    6.2995   15.9642 H   0  0  0  0  0  0  0  0  0  0  0  0
  -16.9567    4.0716   14.8737 C   0  0  0  0  0  0  0  0  0  0  0  0
  -17.2222    2.6007   14.3858 C   0  0  0  0  0  0  0  0  0  0  0  0
  -18.3116    2.2427   13.9474 O   0  0  0  0  0  0  0  0  0  0  0  0
  -16.2792    1.8379   14.4767 O   0  0  0  0  0  0  0  0  0  0  0  0
  -19.0180    2.8556   13.8905 H   0  0  0  0  0  0  0  0  0  0  0  0
  9 10  1  0  0  0
  9 14  2  0  0  0
  9 19  1  0  0  0
 10 11  2  0  0  0
 11 12  1  0  0  0
 12 13  2  0  0  0
 12 15  1  0  0  0
 13 14  1  0  0  0
 13 16  1  0  0  0
 19 20  2  0  0  0
 19 21  1  0  0  0
 15 17  2  0  0  0
 16 17  1  0  0  0
 17  1  1  0  0  0
  1  2  2  0  0  0
  1  6  1  0  0  0
  2  3  1  0  0  0
  3 41  1  0  0  0
  3  4  2  0  0  0
 41 42  1  0  0  0
 41 46  1  0  0  0
 42 43  2  0  0  0
 42 44  1  0  0  0
 46 47  1  0  0  0
 47 48  1  0  0  0
 47 49  2  0  0  0
  4  5  1  0  0  0
  5  6  2  0  0  0
  5 25  1  0  0  0
  6  7  1  0  0  0
 25 26  1  0  0  0
 25 30  2  0  0  0
 26 27  2  0  0  0
 26 31  1  0  0  0
 27 28  1  0  0  0
 28 29  2  0  0  0
 29 33  1  0  0  0
 29 30  1  0  0  0
 33 34  1  0  0  0
 34 35  1  0  0  0
 35 36  2  0  0  0
 35 37  1  0  0  0
 20 22  1  0  0  0
 21 23  1  0  0  0
 21 24  1  0  0  0
 16 18  1  0  0  0
 44 45  1  0  0  0
 48 50  1  0  0  0
  7  8  1  0  0  0
 34 38  1  0  0  0
 37 39  1  0  0  0
 37 40  1  0  0  0
 31 32  1  0  0  0
M  END
> <minimizedAffinity>
-9.04799

$$$$
