5F2P_5TY_A_201


 15 16  0  0  0  0  0  0  0  0999 V2000
  -24.8024   -5.3303  -10.5097 C   0  0  0  0  0  0  0  0  0  0  0  0
  -25.5162   -4.0718  -10.3628 C   0  0  0  0  0  0  0  0  0  0  0  0
  -22.8098   -6.6001  -10.5428 C   0  0  0  0  0  0  0  0  0  0  0  0
  -22.7547   -1.6520   -9.9304 C   0  0  0  0  0  0  0  0  0  0  0  0
  -23.4028   -5.3430  -10.4263 C   0  0  0  0  0  0  0  0  0  0  0  0
  -22.6756   -4.0768  -10.2261 C   0  0  0  0  0  0  0  0  0  0  0  0
  -24.8287   -7.6096  -10.8171 C   0  0  0  0  0  0  0  0  0  0  0  0
  -25.5265   -6.4528  -10.6995 N   0  0  0  0  0  0  0  0  0  0  0  0
  -23.4558   -2.9226  -10.1201 N   0  0  0  0  0  0  0  0  0  0  0  0
  -23.4864   -7.7357  -10.7527 N   0  0  0  0  0  0  0  0  0  0  0  0
  -24.8258   -2.9420  -10.2007 C   0  0  0  0  0  0  0  0  0  0  0  0
  -21.4612   -4.0083  -10.1531 O   0  0  0  0  0  0  0  0  0  0  0  0
  -26.9703   -8.7098  -11.2799 C   0  0  0  0  0  0  0  0  0  0  0  0
  -25.5403   -8.7432  -11.0036 N   0  0  0  0  0  0  0  0  0  0  0  0
  -24.9078  -10.0535  -10.9681 C   0  0  0  0  0  0  0  0  0  0  0  0
 13 14  1  0  0  0
 15 14  1  0  0  0
 14  7  1  0  0  0
  7  8  2  0  0  0
  7 10  1  0  0  0
  8  1  1  0  0  0
 10  3  2  0  0  0
  1  2  1  0  0  0
  1  5  2  0  0  0
  2 11  2  0  0  0
 11  9  1  0  0  0
  3  5  1  0  0  0
  5  6  1  0  0  0
  9  6  1  0  0  0
  9  4  1  0  0  0
  6 12  2  0  0  0
M  END
> <minimizedAffinity>
-6.23267

$$$$
5F2P_5TY_A_201


 15 16  0  0  0  0  0  0  0  0999 V2000
  -24.8079   -5.1270  -10.4277 C   0  0  0  0  0  0  0  0  0  0  0  0
  -26.2386   -5.0108  -10.6608 C   0  0  0  0  0  0  0  0  0  0  0  0
  -22.8162   -6.3928  -10.3049 C   0  0  0  0  0  0  0  0  0  0  0  0
  -27.2230   -8.5251  -11.2512 C   0  0  0  0  0  0  0  0  0  0  0  0
  -24.1962   -6.3862  -10.5074 C   0  0  0  0  0  0  0  0  0  0  0  0
  -25.0181   -7.5761  -10.7917 C   0  0  0  0  0  0  0  0  0  0  0  0
  -22.7799   -4.1446   -9.9665 C   0  0  0  0  0  0  0  0  0  0  0  0
  -24.1138   -4.0006  -10.1635 N   0  0  0  0  0  0  0  0  0  0  0  0
  -26.3854   -7.3566  -10.9771 N   0  0  0  0  0  0  0  0  0  0  0  0
  -22.0914   -5.3044  -10.0197 N   0  0  0  0  0  0  0  0  0  0  0  0
  -26.9553   -6.1105  -10.8979 C   0  0  0  0  0  0  0  0  0  0  0  0
  -24.5592   -8.7024  -10.8670 O   0  0  0  0  0  0  0  0  0  0  0  0
  -20.7373   -3.0851   -9.1200 C   0  0  0  0  0  0  0  0  0  0  0  0
  -22.0702   -3.0247   -9.7049 N   0  0  0  0  0  0  0  0  0  0  0  0
  -22.5896   -1.7028  -10.0227 C   0  0  0  0  0  0  0  0  0  0  0  0
 13 14  1  0  0  0
 15 14  1  0  0  0
 14  7  1  0  0  0
  7  8  2  0  0  0
  7 10  1  0  0  0
  8  1  1  0  0  0
 10  3  2  0  0  0
  1  2  1  0  0  0
  1  5  2  0  0  0
  2 11  2  0  0  0
 11  9  1  0  0  0
  3  5  1  0  0  0
  5  6  1  0  0  0
  9  6  1  0  0  0
  9  4  1  0  0  0
  6 12  2  0  0  0
M  END
> <minimizedAffinity>
-5.97727

$$$$
5F2P_5TY_A_201


 15 16  0  0  0  0  0  0  0  0999 V2000
  -23.4913   -5.9563  -10.4324 C   0  0  0  0  0  0  0  0  0  0  0  0
  -23.2226   -7.3733  -10.6187 C   0  0  0  0  0  0  0  0  0  0  0  0
  -24.9701   -4.1165  -10.3208 C   0  0  0  0  0  0  0  0  0  0  0  0
  -26.5740   -8.7049  -11.4329 C   0  0  0  0  0  0  0  0  0  0  0  0
  -24.8054   -5.4821  -10.5522 C   0  0  0  0  0  0  0  0  0  0  0  0
  -25.8874   -6.4207  -10.8991 C   0  0  0  0  0  0  0  0  0  0  0  0
  -22.7454   -3.8361   -9.9436 C   0  0  0  0  0  0  0  0  0  0  0  0
  -22.4554   -5.1483  -10.1250 N   0  0  0  0  0  0  0  0  0  0  0  0
  -25.5175   -7.7560  -11.0785 N   0  0  0  0  0  0  0  0  0  0  0  0
  -23.9696   -3.2749  -10.0345 N   0  0  0  0  0  0  0  0  0  0  0  0
  -24.2224   -8.1919  -10.9495 C   0  0  0  0  0  0  0  0  0  0  0  0
  -27.0504   -6.0809  -11.0293 O   0  0  0  0  0  0  0  0  0  0  0  0
  -21.8476   -1.5661   -9.7156 C   0  0  0  0  0  0  0  0  0  0  0  0
  -21.7188   -3.0147   -9.6310 N   0  0  0  0  0  0  0  0  0  0  0  0
  -20.4422   -3.5354   -9.1648 C   0  0  0  0  0  0  0  0  0  0  0  0
 13 14  1  0  0  0
 15 14  1  0  0  0
 14  7  1  0  0  0
  7  8  2  0  0  0
  7 10  1  0  0  0
  8  1  1  0  0  0
 10  3  2  0  0  0
  1  2  1  0  0  0
  1  5  2  0  0  0
  2 11  2  0  0  0
 11  9  1  0  0  0
  3  5  1  0  0  0
  5  6  1  0  0  0
  9  6  1  0  0  0
  9  4  1  0  0  0
  6 12  2  0  0  0
M  END
> <minimizedAffinity>
-5.95986

$$$$
5F2P_5TY_A_201


 15 16  0  0  0  0  0  0  0  0999 V2000
  -22.2460   -4.7533   -9.7469 C   0  0  0  0  0  0  0  0  0  0  0  0
  -20.8832   -4.6193   -9.2574 C   0  0  0  0  0  0  0  0  0  0  0  0
  -24.3097   -3.8298  -10.4342 C   0  0  0  0  0  0  0  0  0  0  0  0
  -20.5908   -0.9695   -8.7458 C   0  0  0  0  0  0  0  0  0  0  0  0
  -23.0300   -3.6048   -9.9271 C   0  0  0  0  0  0  0  0  0  0  0  0
  -22.4728   -2.2840   -9.5848 C   0  0  0  0  0  0  0  0  0  0  0  0
  -23.9688   -6.0769  -10.5021 C   0  0  0  0  0  0  0  0  0  0  0  0
  -22.6991   -5.9913  -10.0337 N   0  0  0  0  0  0  0  0  0  0  0  0
  -21.1620   -2.2693   -9.1013 N   0  0  0  0  0  0  0  0  0  0  0  0
  -24.8076   -5.0406  -10.7125 N   0  0  0  0  0  0  0  0  0  0  0  0
  -20.4167   -3.4106   -8.9403 C   0  0  0  0  0  0  0  0  0  0  0  0
  -23.0964   -1.2442   -9.7057 O   0  0  0  0  0  0  0  0  0  0  0  0
  -23.5360   -8.4372  -11.0050 C   0  0  0  0  0  0  0  0  0  0  0  0
  -24.4357   -7.3102  -10.7978 N   0  0  0  0  0  0  0  0  0  0  0  0
  -25.8623   -7.5812  -10.8940 C   0  0  0  0  0  0  0  0  0  0  0  0
 13 14  1  0  0  0
 15 14  1  0  0  0
 14  7  1  0  0  0
  7  8  2  0  0  0
  7 10  1  0  0  0
  8  1  1  0  0  0
 10  3  2  0  0  0
  1  2  1  0  0  0
  1  5  2  0  0  0
  2 11  2  0  0  0
 11  9  1  0  0  0
  3  5  1  0  0  0
  5  6  1  0  0  0
  9  6  1  0  0  0
  9  4  1  0  0  0
  6 12  2  0  0  0
M  END
> <minimizedAffinity>
-5.80301

$$$$
5F2P_5TY_A_201


 15 16  0  0  0  0  0  0  0  0999 V2000
  -23.7056   -6.1938  -10.4825 C   0  0  0  0  0  0  0  0  0  0  0  0
  -22.4006   -5.5993  -10.2408 C   0  0  0  0  0  0  0  0  0  0  0  0
  -26.0382   -6.0245  -10.8206 C   0  0  0  0  0  0  0  0  0  0  0  0
  -23.2298   -2.0157   -9.8696 C   0  0  0  0  0  0  0  0  0  0  0  0
  -24.8374   -5.3688  -10.5491 C   0  0  0  0  0  0  0  0  0  0  0  0
  -24.6916   -3.9174  -10.3386 C   0  0  0  0  0  0  0  0  0  0  0  0
  -25.0028   -8.0475  -10.8965 C   0  0  0  0  0  0  0  0  0  0  0  0
  -23.7723   -7.5298  -10.6583 N   0  0  0  0  0  0  0  0  0  0  0  0
  -23.3975   -3.4527  -10.0911 N   0  0  0  0  0  0  0  0  0  0  0  0
  -26.1542   -7.3482  -10.9808 N   0  0  0  0  0  0  0  0  0  0  0  0
  -22.3071   -4.2845  -10.0368 C   0  0  0  0  0  0  0  0  0  0  0  0
  -25.6294   -3.1400  -10.3724 O   0  0  0  0  0  0  0  0  0  0  0  0
  -26.2436   -9.9973  -11.7148 C   0  0  0  0  0  0  0  0  0  0  0  0
  -25.0853   -9.3840  -11.0788 N   0  0  0  0  0  0  0  0  0  0  0  0
  -24.0073  -10.2751  -10.6765 C   0  0  0  0  0  0  0  0  0  0  0  0
 13 14  1  0  0  0
 15 14  1  0  0  0
 14  7  1  0  0  0
  7  8  2  0  0  0
  7 10  1  0  0  0
  8  1  1  0  0  0
 10  3  2  0  0  0
  1  2  1  0  0  0
  1  5  2  0  0  0
  2 11  2  0  0  0
 11  9  1  0  0  0
  3  5  1  0  0  0
  5  6  1  0  0  0
  9  6  1  0  0  0
  9  4  1  0  0  0
  6 12  2  0  0  0
M  END
> <minimizedAffinity>
-5.79381

$$$$
5F2P_5TY_A_201


 15 16  0  0  0  0  0  0  0  0999 V2000
  -24.7452   -5.0337  -10.3299 C   0  0  0  0  0  0  0  0  0  0  0  0
  -23.5954   -5.8712  -10.0276 C   0  0  0  0  0  0  0  0  0  0  0  0
  -25.7410   -2.9234  -10.7030 C   0  0  0  0  0  0  0  0  0  0  0  0
  -20.9331   -3.3698   -9.4594 C   0  0  0  0  0  0  0  0  0  0  0  0
  -24.5921   -3.6405  -10.3693 C   0  0  0  0  0  0  0  0  0  0  0  0
  -23.2774   -3.0455  -10.0697 C   0  0  0  0  0  0  0  0  0  0  0  0
  -26.9693   -4.8288  -10.8793 C   0  0  0  0  0  0  0  0  0  0  0  0
  -25.9229   -5.6400  -10.5864 N   0  0  0  0  0  0  0  0  0  0  0  0
  -22.2456   -3.9384   -9.7695 N   0  0  0  0  0  0  0  0  0  0  0  0
  -26.9336   -3.4811  -10.9442 N   0  0  0  0  0  0  0  0  0  0  0  0
  -22.4245   -5.2990   -9.7436 C   0  0  0  0  0  0  0  0  0  0  0  0
  -23.0707   -1.8447  -10.0754 O   0  0  0  0  0  0  0  0  0  0  0  0
  -29.3853   -4.6500  -11.2561 C   0  0  0  0  0  0  0  0  0  0  0  0
  -28.1549   -5.4216  -11.1426 N   0  0  0  0  0  0  0  0  0  0  0  0
  -28.2570   -6.8575  -11.3565 C   0  0  0  0  0  0  0  0  0  0  0  0
 13 14  1  0  0  0
 15 14  1  0  0  0
 14  7  1  0  0  0
  7  8  2  0  0  0
  7 10  1  0  0  0
  8  1  1  0  0  0
 10  3  2  0  0  0
  1  2  1  0  0  0
  1  5  2  0  0  0
  2 11  2  0  0  0
 11  9  1  0  0  0
  3  5  1  0  0  0
  5  6  1  0  0  0
  9  6  1  0  0  0
  9  4  1  0  0  0
  6 12  2  0  0  0
M  END
> <minimizedAffinity>
-5.79011

$$$$
5F2P_5TY_A_201


 15 16  0  0  0  0  0  0  0  0999 V2000
  -24.6282   -3.5817  -10.3662 C   0  0  0  0  0  0  0  0  0  0  0  0
  -23.9698   -2.2924  -10.2283 C   0  0  0  0  0  0  0  0  0  0  0  0
  -24.6350   -5.9402  -10.2192 C   0  0  0  0  0  0  0  0  0  0  0  0
  -20.5386   -3.2659   -9.2551 C   0  0  0  0  0  0  0  0  0  0  0  0
  -23.9100   -4.7551  -10.0951 C   0  0  0  0  0  0  0  0  0  0  0  0
  -22.4906   -4.6650   -9.7088 C   0  0  0  0  0  0  0  0  0  0  0  0
  -26.5122   -4.8148  -10.8354 C   0  0  0  0  0  0  0  0  0  0  0  0
  -25.9269   -3.5960  -10.7316 N   0  0  0  0  0  0  0  0  0  0  0  0
  -21.9494   -3.3795   -9.6278 N   0  0  0  0  0  0  0  0  0  0  0  0
  -25.9169   -6.0029  -10.5989 N   0  0  0  0  0  0  0  0  0  0  0  0
  -22.6792   -2.2480   -9.8944 C   0  0  0  0  0  0  0  0  0  0  0  0
  -21.8008   -5.6401   -9.4672 O   0  0  0  0  0  0  0  0  0  0  0  0
  -28.5202   -3.6394  -11.6084 C   0  0  0  0  0  0  0  0  0  0  0  0
  -27.8141   -4.8453  -11.1966 N   0  0  0  0  0  0  0  0  0  0  0  0
  -28.5682   -6.0898  -11.2217 C   0  0  0  0  0  0  0  0  0  0  0  0
 13 14  1  0  0  0
 15 14  1  0  0  0
 14  7  1  0  0  0
  7  8  2  0  0  0
  7 10  1  0  0  0
  8  1  1  0  0  0
 10  3  2  0  0  0
  1  2  1  0  0  0
  1  5  2  0  0  0
  2 11  2  0  0  0
 11  9  1  0  0  0
  3  5  1  0  0  0
  5  6  1  0  0  0
  9  6  1  0  0  0
  9  4  1  0  0  0
  6 12  2  0  0  0
M  END
> <minimizedAffinity>
-5.75045

$$$$
5F2P_5TY_A_201


 15 16  0  0  0  0  0  0  0  0999 V2000
  -23.6946   -6.8984  -10.6254 C   0  0  0  0  0  0  0  0  0  0  0  0
  -22.7884   -5.7862  -10.3874 C   0  0  0  0  0  0  0  0  0  0  0  0
  -25.8618   -7.7839  -10.9466 C   0  0  0  0  0  0  0  0  0  0  0  0
  -25.1227   -2.9483   -9.9806 C   0  0  0  0  0  0  0  0  0  0  0  0
  -25.0759   -6.6634  -10.6775 C   0  0  0  0  0  0  0  0  0  0  0  0
  -25.5895   -5.2999  -10.4558 C   0  0  0  0  0  0  0  0  0  0  0  0
  -24.0348   -9.1339  -11.0464 C   0  0  0  0  0  0  0  0  0  0  0  0
  -23.1612   -8.1236  -10.8120 N   0  0  0  0  0  0  0  0  0  0  0  0
  -24.6353   -4.3087  -10.2130 N   0  0  0  0  0  0  0  0  0  0  0  0
  -25.3779   -9.0201  -11.1171 N   0  0  0  0  0  0  0  0  0  0  0  0
  -23.2881   -4.5682  -10.1730 C   0  0  0  0  0  0  0  0  0  0  0  0
  -26.7756   -5.0212  -10.4768 O   0  0  0  0  0  0  0  0  0  0  0  0
  -24.2218  -11.5674  -10.8135 C   0  0  0  0  0  0  0  0  0  0  0  0
  -23.5154  -10.3665  -11.2393 N   0  0  0  0  0  0  0  0  0  0  0  0
  -22.2380  -10.5578  -11.9099 C   0  0  0  0  0  0  0  0  0  0  0  0
 13 14  1  0  0  0
 15 14  1  0  0  0
 14  7  1  0  0  0
  7  8  2  0  0  0
  7 10  1  0  0  0
  8  1  1  0  0  0
 10  3  2  0  0  0
  1  2  1  0  0  0
  1  5  2  0  0  0
  2 11  2  0  0  0
 11  9  1  0  0  0
  3  5  1  0  0  0
  5  6  1  0  0  0
  9  6  1  0  0  0
  9  4  1  0  0  0
  6 12  2  0  0  0
M  END
> <minimizedAffinity>
-5.58848

$$$$
5F2P_5TY_A_201


 15 16  0  0  0  0  0  0  0  0999 V2000
  -23.9289   -7.2706  -10.8234 C   0  0  0  0  0  0  0  0  0  0  0  0
  -23.3456   -8.5830  -11.0516 C   0  0  0  0  0  0  0  0  0  0  0  0
  -25.7902   -5.8342  -10.5860 C   0  0  0  0  0  0  0  0  0  0  0  0
  -26.3330  -10.6692  -11.6770 C   0  0  0  0  0  0  0  0  0  0  0  0
  -25.3228   -7.1212  -10.8517 C   0  0  0  0  0  0  0  0  0  0  0  0
  -26.1725   -8.2887  -11.1466 C   0  0  0  0  0  0  0  0  0  0  0  0
  -23.6751   -5.0353  -10.3445 C   0  0  0  0  0  0  0  0  0  0  0  0
  -23.0956   -6.2408  -10.5673 N   0  0  0  0  0  0  0  0  0  0  0  0
  -25.5099   -9.4978  -11.3729 N   0  0  0  0  0  0  0  0  0  0  0  0
  -25.0005   -4.7801  -10.3481 N   0  0  0  0  0  0  0  0  0  0  0  0
  -24.1429   -9.6145  -11.3335 C   0  0  0  0  0  0  0  0  0  0  0  0
  -27.3888   -8.2340  -11.1973 O   0  0  0  0  0  0  0  0  0  0  0  0
  -23.1746   -2.6412  -10.5155 C   0  0  0  0  0  0  0  0  0  0  0  0
  -22.8536   -3.9947  -10.0825 N   0  0  0  0  0  0  0  0  0  0  0  0
  -21.6215   -4.1689   -9.3278 C   0  0  0  0  0  0  0  0  0  0  0  0
 13 14  1  0  0  0
 15 14  1  0  0  0
 14  7  1  0  0  0
  7  8  2  0  0  0
  7 10  1  0  0  0
  8  1  1  0  0  0
 10  3  2  0  0  0
  1  2  1  0  0  0
  1  5  2  0  0  0
  2 11  2  0  0  0
 11  9  1  0  0  0
  3  5  1  0  0  0
  5  6  1  0  0  0
  9  6  1  0  0  0
  9  4  1  0  0  0
  6 12  2  0  0  0
M  END
> <minimizedAffinity>
-5.40646

$$$$
5F2P_5TY_A_201


 15 16  0  0  0  0  0  0  0  0999 V2000
  -23.8645   -3.6520   -9.8436 C   0  0  0  0  0  0  0  0  0  0  0  0
  -25.2547   -3.7713  -10.2535 C   0  0  0  0  0  0  0  0  0  0  0  0
  -21.7167   -4.5681   -9.4806 C   0  0  0  0  0  0  0  0  0  0  0  0
  -25.5468   -7.3832  -10.9866 C   0  0  0  0  0  0  0  0  0  0  0  0
  -23.0424   -4.7877   -9.8546 C   0  0  0  0  0  0  0  0  0  0  0  0
  -23.6086   -6.0904  -10.2477 C   0  0  0  0  0  0  0  0  0  0  0  0
  -22.1052   -2.3561   -9.1251 C   0  0  0  0  0  0  0  0  0  0  0  0
  -23.4099   -2.4328   -9.4868 N   0  0  0  0  0  0  0  0  0  0  0  0
  -24.9602   -6.0987  -10.6016 N   0  0  0  0  0  0  0  0  0  0  0  0
  -21.2282   -3.3818   -9.0994 N   0  0  0  0  0  0  0  0  0  0  0  0
  -25.7392   -4.9688  -10.5861 C   0  0  0  0  0  0  0  0  0  0  0  0
  -22.9590   -7.1211  -10.2725 O   0  0  0  0  0  0  0  0  0  0  0  0
  -22.5275   -0.0131   -8.5394 C   0  0  0  0  0  0  0  0  0  0  0  0
  -21.6340   -1.1406   -8.7690 N   0  0  0  0  0  0  0  0  0  0  0  0
  -20.2122   -0.9047   -8.5669 C   0  0  0  0  0  0  0  0  0  0  0  0
 13 14  1  0  0  0
 15 14  1  0  0  0
 14  7  1  0  0  0
  7  8  2  0  0  0
  7 10  1  0  0  0
  8  1  1  0  0  0
 10  3  2  0  0  0
  1  2  1  0  0  0
  1  5  2  0  0  0
  2 11  2  0  0  0
 11  9  1  0  0  0
  3  5  1  0  0  0
  5  6  1  0  0  0
  9  6  1  0  0  0
  9  4  1  0  0  0
  6 12  2  0  0  0
M  END
> <minimizedAffinity>
-5.15421

$$$$
