1PPC_MID_E_5


 42 45  0  0  0  0  0  0  0  0999 V2000
   -1.3464    4.0069   21.8469 C   0  0  0  0  0  0  0  0  0  0  0  0
   -0.4904    2.7599   22.0700 C   0  0  0  0  0  0  0  0  0  0  0  0
   -0.3729    1.9125   21.1784 O   0  0  0  0  0  0  0  0  0  0  0  0
    0.1432    2.6069   23.2442 N   0  0  0  0  0  0  0  0  0  0  0  0
    0.2130    3.6544   24.2501 C   0  0  0  0  0  0  0  0  0  0  0  0
   -0.3805    3.0951   25.5214 C   0  0  0  0  0  0  0  0  0  0  0  0
    0.5211    1.9628   25.9885 C   0  0  0  0  0  0  0  0  0  0  0  0
    0.5311    0.9174   24.8768 C   0  0  0  0  0  0  0  0  0  0  0  0
    0.9980    1.4668   23.5447 C   0  0  0  0  0  0  0  0  0  0  0  0
   -3.2974    4.5239   23.3155 C   0  0  0  0  0  0  0  0  0  0  0  0
   -2.9463    5.6512   23.6843 O   0  0  0  0  0  0  0  0  0  0  0  0
   -2.6548    3.7433   22.4295 N   0  0  0  0  0  0  0  0  0  0  0  0
   -3.1108    2.9172   22.1486 H   0  0  0  0  0  0  0  0  0  0  0  0
   -4.6199    3.8974   23.7411 C   0  0  0  0  0  0  0  0  0  0  0  0
   -5.5801    4.8420   24.2590 N   0  0  0  0  0  0  0  0  0  0  0  0
   -6.4192    4.7991   23.6807 H   0  0  0  0  0  0  0  0  0  0  0  0
   -6.0129    4.5512   25.8343 S   0  0  0  0  0  0  0  0  0  0  0  0
   -7.4951    4.8796   26.0556 O   0  0  0  0  0  0  0  0  0  0  0  0
   -5.7929    3.0467   25.9650 O   0  0  0  0  0  0  0  0  0  0  0  0
   -3.6910    5.4801   27.0795 C   0  0  0  0  0  0  0  0  0  0  0  0
   -5.0610    5.4773   27.0399 C   0  0  0  0  0  0  0  0  0  0  0  0
   -5.7553    6.1702   27.9925 C   0  0  0  0  0  0  0  0  0  0  0  0
   -5.0846    6.8107   29.0088 C   0  0  0  0  0  0  0  0  0  0  0  0
   -3.0644    7.4666   30.0586 C   0  0  0  0  0  0  0  0  0  0  0  0
   -1.6819    7.4939   30.0773 C   0  0  0  0  0  0  0  0  0  0  0  0
   -0.9612    6.8226   29.1072 C   0  0  0  0  0  0  0  0  0  0  0  0
   -1.6131    6.1220   28.1044 C   0  0  0  0  0  0  0  0  0  0  0  0
   -2.9935    6.1406   28.0686 C   0  0  0  0  0  0  0  0  0  0  0  0
   -3.7088    6.7966   29.0395 C   0  0  0  0  0  0  0  0  0  0  0  0
   -1.4511    4.3221   20.3462 C   0  0  0  0  0  0  0  0  0  0  0  0
   -2.0268    5.6948   20.0636 C   0  0  0  0  0  0  0  0  0  0  0  0
   -3.3936    5.8738   19.9453 C   0  0  0  0  0  0  0  0  0  0  0  0
   -1.1911    6.7857   20.0132 C   0  0  0  0  0  0  0  0  0  0  0  0
   -3.9225    7.1338   19.7404 C   0  0  0  0  0  0  0  0  0  0  0  0
   -1.7250    8.0412   19.8028 C   0  0  0  0  0  0  0  0  0  0  0  0
   -3.0957    8.2384   19.6850 C   0  0  0  0  0  0  0  0  0  0  0  0
   -3.6093    9.5353   19.5431 C   0  0  0  0  0  0  0  0  0  0  0  0
   -2.8178   10.5522   19.1536 N   0  0  0  0  0  0  0  0  0  0  0  0
   -4.9191    9.7244   19.7415 N   0  0  0  0  0  0  0  0  0  0  0  0
   -1.8557   10.4003   19.0110 H   0  0  0  0  0  0  0  0  0  0  0  0
   -5.4874    8.9726   20.0263 H   0  0  0  0  0  0  0  0  0  0  0  0
   -5.3144   10.6153   19.6027 H   0  0  0  0  0  0  0  0  0  0  0  0
 17 18  2  0  0  0
 17 19  2  0  0  0
 17 21  1  0  0  0
 20 21  2  0  0  0
 20 28  1  0  0  0
 21 22  1  0  0  0
 22 23  2  0  0  0
 23 29  1  0  0  0
 24 25  2  0  0  0
 24 29  1  0  0  0
 25 26  1  0  0  0
 26 27  2  0  0  0
 27 28  1  0  0  0
 28 29  2  0  0  0
 15 14  1  0  0  0
 14 10  1  0  0  0
 10 11  2  0  0  0
 12  1  1  0  0  0
  1  2  1  0  0  0
  1 30  1  0  0  0
  2  3  2  0  0  0
 30 31  1  0  0  0
 31 32  2  0  0  0
 31 33  1  0  0  0
 32 34  1  0  0  0
 33 35  2  0  0  0
 34 36  2  0  0  0
 35 36  1  0  0  0
 36 37  1  0  0  0
 37 38  2  0  0  0
 37 39  1  0  0  0
  4  5  1  0  0  0
  4  9  1  0  0  0
  5  6  1  0  0  0
  6  7  1  0  0  0
  7  8  1  0  0  0
  8  9  1  0  0  0
 17 15  1  0  0  0
 10 12  1  0  0  0
  2  4  1  0  0  0
 15 16  1  0  0  0
 12 13  1  0  0  0
 38 40  1  0  0  0
 39 41  1  0  0  0
 39 42  1  0  0  0
M  END
> <minimizedAffinity>
-9.48626

$$$$
1PPC_MID_E_5


 42 45  0  0  0  0  0  0  0  0999 V2000
   -1.7052    3.4858   21.9669 C   0  0  0  0  0  0  0  0  0  0  0  0
   -0.7760    2.2983   22.2202 C   0  0  0  0  0  0  0  0  0  0  0  0
   -0.7629    1.3363   21.4449 O   0  0  0  0  0  0  0  0  0  0  0  0
    0.0356    2.3236   23.2899 N   0  0  0  0  0  0  0  0  0  0  0  0
    0.2169    3.5032   24.1202 C   0  0  0  0  0  0  0  0  0  0  0  0
   -0.1520    3.1176   25.5331 C   0  0  0  0  0  0  0  0  0  0  0  0
    0.8550    2.0788   26.0023 C   0  0  0  0  0  0  0  0  0  0  0  0
    0.7362    0.8878   25.0557 C   0  0  0  0  0  0  0  0  0  0  0  0
    0.9712    1.2528   23.6045 C   0  0  0  0  0  0  0  0  0  0  0  0
   -3.7593    3.8494   23.3377 C   0  0  0  0  0  0  0  0  0  0  0  0
   -3.5087    4.9955   23.7298 O   0  0  0  0  0  0  0  0  0  0  0  0
   -3.0189    3.1245   22.4812 N   0  0  0  0  0  0  0  0  0  0  0  0
   -3.3999    2.2706   22.1732 H   0  0  0  0  0  0  0  0  0  0  0  0
   -5.0532    3.1266   23.6925 C   0  0  0  0  0  0  0  0  0  0  0  0
   -5.4220    3.2268   25.0840 N   0  0  0  0  0  0  0  0  0  0  0  0
   -6.4166    3.0173   25.1700 H   0  0  0  0  0  0  0  0  0  0  0  0
   -4.5802    2.1906   26.0694 S   0  0  0  0  0  0  0  0  0  0  0  0
   -5.5442    1.3102   26.8751 O   0  0  0  0  0  0  0  0  0  0  0  0
   -3.8129    1.3323   25.0676 O   0  0  0  0  0  0  0  0  0  0  0  0
   -3.3499    4.3708   27.3096 C   0  0  0  0  0  0  0  0  0  0  0  0
   -3.4856    3.0092   27.2310 C   0  0  0  0  0  0  0  0  0  0  0  0
   -2.7168    2.2166   28.0373 C   0  0  0  0  0  0  0  0  0  0  0  0
   -1.7796    2.7807   28.8717 C   0  0  0  0  0  0  0  0  0  0  0  0
   -0.7163    4.6860   29.7952 C   0  0  0  0  0  0  0  0  0  0  0  0
   -0.6044    6.0607   29.8951 C   0  0  0  0  0  0  0  0  0  0  0  0
   -1.3924    6.8802   29.1084 C   0  0  0  0  0  0  0  0  0  0  0  0
   -2.3047    6.3361   28.2181 C   0  0  0  0  0  0  0  0  0  0  0  0
   -2.4410    4.9630   28.1606 C   0  0  0  0  0  0  0  0  0  0  0  0
   -1.6494    4.1494   28.9326 C   0  0  0  0  0  0  0  0  0  0  0  0
   -1.7582    3.8126   20.4660 C   0  0  0  0  0  0  0  0  0  0  0  0
   -2.1604    5.2454   20.1812 C   0  0  0  0  0  0  0  0  0  0  0  0
   -3.4915    5.5817   20.0104 C   0  0  0  0  0  0  0  0  0  0  0  0
   -1.2038    6.2333   20.1812 C   0  0  0  0  0  0  0  0  0  0  0  0
   -3.8635    6.8963   19.8033 C   0  0  0  0  0  0  0  0  0  0  0  0
   -1.5811    7.5440   19.9685 C   0  0  0  0  0  0  0  0  0  0  0  0
   -2.9140    7.8989   19.7982 C   0  0  0  0  0  0  0  0  0  0  0  0
   -3.2692    9.2477   19.6553 C   0  0  0  0  0  0  0  0  0  0  0  0
   -4.5604    9.6142   19.5528 N   0  0  0  0  0  0  0  0  0  0  0  0
   -2.2971   10.1669   19.6886 N   0  0  0  0  0  0  0  0  0  0  0  0
   -5.2663    8.9284   19.5293 H   0  0  0  0  0  0  0  0  0  0  0  0
   -1.3565    9.8861   19.7638 H   0  0  0  0  0  0  0  0  0  0  0  0
   -2.5226   11.1239   19.6379 H   0  0  0  0  0  0  0  0  0  0  0  0
 17 18  2  0  0  0
 17 19  2  0  0  0
 17 21  1  0  0  0
 20 21  2  0  0  0
 20 28  1  0  0  0
 21 22  1  0  0  0
 22 23  2  0  0  0
 23 29  1  0  0  0
 24 25  2  0  0  0
 24 29  1  0  0  0
 25 26  1  0  0  0
 26 27  2  0  0  0
 27 28  1  0  0  0
 28 29  2  0  0  0
 15 14  1  0  0  0
 14 10  1  0  0  0
 10 11  2  0  0  0
 12  1  1  0  0  0
  1  2  1  0  0  0
  1 30  1  0  0  0
  2  3  2  0  0  0
 30 31  1  0  0  0
 31 32  2  0  0  0
 31 33  1  0  0  0
 32 34  1  0  0  0
 33 35  2  0  0  0
 34 36  2  0  0  0
 35 36  1  0  0  0
 36 37  1  0  0  0
 37 38  2  0  0  0
 37 39  1  0  0  0
  4  5  1  0  0  0
  4  9  1  0  0  0
  5  6  1  0  0  0
  6  7  1  0  0  0
  7  8  1  0  0  0
  8  9  1  0  0  0
 17 15  1  0  0  0
 10 12  1  0  0  0
  2  4  1  0  0  0
 15 16  1  0  0  0
 12 13  1  0  0  0
 38 40  1  0  0  0
 39 41  1  0  0  0
 39 42  1  0  0  0
M  END
> <minimizedAffinity>
-8.74457

$$$$
1PPC_MID_E_5


 42 45  0  0  0  0  0  0  0  0999 V2000
   -2.2707    2.7869   20.6159 C   0  0  0  0  0  0  0  0  0  0  0  0
   -2.5546    1.3232   20.2776 C   0  0  0  0  0  0  0  0  0  0  0  0
   -3.5975    0.7823   20.6607 O   0  0  0  0  0  0  0  0  0  0  0  0
   -1.6603    0.6390   19.5459 N   0  0  0  0  0  0  0  0  0  0  0  0
   -0.5214    1.2665   18.8955 C   0  0  0  0  0  0  0  0  0  0  0  0
    0.7223    0.5827   19.4121 C   0  0  0  0  0  0  0  0  0  0  0  0
    0.6782   -0.8636   18.9435 C   0  0  0  0  0  0  0  0  0  0  0  0
   -0.5818   -1.4841   19.5403 C   0  0  0  0  0  0  0  0  0  0  0  0
   -1.8494   -0.7507   19.1534 C   0  0  0  0  0  0  0  0  0  0  0  0
   -0.5766    3.3433   22.3626 C   0  0  0  0  0  0  0  0  0  0  0  0
    0.2049    3.9863   21.6514 O   0  0  0  0  0  0  0  0  0  0  0  0
   -1.7553    2.8241   21.9774 N   0  0  0  0  0  0  0  0  0  0  0  0
   -2.3224    2.4328   22.6807 H   0  0  0  0  0  0  0  0  0  0  0  0
   -0.3550    3.1518   23.8582 C   0  0  0  0  0  0  0  0  0  0  0  0
   -0.8075    1.8780   24.3629 N   0  0  0  0  0  0  0  0  0  0  0  0
   -0.0246    1.4188   24.8284 H   0  0  0  0  0  0  0  0  0  0  0  0
   -2.0617    2.0002   25.4426 S   0  0  0  0  0  0  0  0  0  0  0  0
   -3.3114    2.5655   24.7555 O   0  0  0  0  0  0  0  0  0  0  0  0
   -2.3025    0.5452   25.8351 O   0  0  0  0  0  0  0  0  0  0  0  0
   -2.2062    4.2972   27.0261 C   0  0  0  0  0  0  0  0  0  0  0  0
   -1.7062    3.0310   26.8668 C   0  0  0  0  0  0  0  0  0  0  0  0
   -0.8497    2.5310   27.8079 C   0  0  0  0  0  0  0  0  0  0  0  0
   -0.4520    3.3136   28.8673 C   0  0  0  0  0  0  0  0  0  0  0  0
   -0.5558    5.3386   30.0928 C   0  0  0  0  0  0  0  0  0  0  0  0
   -1.0867    6.6035   30.2674 C   0  0  0  0  0  0  0  0  0  0  0  0
   -1.9759    7.1169   29.3415 C   0  0  0  0  0  0  0  0  0  0  0  0
   -2.3492    6.3705   28.2349 C   0  0  0  0  0  0  0  0  0  0  0  0
   -1.8490    5.0908   28.0955 C   0  0  0  0  0  0  0  0  0  0  0  0
   -0.9563    4.5864   29.0083 C   0  0  0  0  0  0  0  0  0  0  0  0
   -3.5505    3.6263   20.4749 C   0  0  0  0  0  0  0  0  0  0  0  0
   -3.2775    5.1076   20.3109 C   0  0  0  0  0  0  0  0  0  0  0  0
   -2.0967    5.5462   19.7387 C   0  0  0  0  0  0  0  0  0  0  0  0
   -4.2484    6.0200   20.6513 C   0  0  0  0  0  0  0  0  0  0  0  0
   -1.8699    6.8947   19.5405 C   0  0  0  0  0  0  0  0  0  0  0  0
   -4.0138    7.3662   20.4558 C   0  0  0  0  0  0  0  0  0  0  0  0
   -2.8344    7.8230   19.8796 C   0  0  0  0  0  0  0  0  0  0  0  0
   -2.6583    9.1915   19.6302 C   0  0  0  0  0  0  0  0  0  0  0  0
   -3.7161    9.9948   19.4116 N   0  0  0  0  0  0  0  0  0  0  0  0
   -1.4178    9.6910   19.6792 N   0  0  0  0  0  0  0  0  0  0  0  0
   -4.6239    9.6152   19.3777 H   0  0  0  0  0  0  0  0  0  0  0  0
   -0.6524    9.0930   19.8398 H   0  0  0  0  0  0  0  0  0  0  0  0
   -1.2706   10.6564   19.5546 H   0  0  0  0  0  0  0  0  0  0  0  0
 17 18  2  0  0  0
 17 19  2  0  0  0
 17 21  1  0  0  0
 20 21  2  0  0  0
 20 28  1  0  0  0
 21 22  1  0  0  0
 22 23  2  0  0  0
 23 29  1  0  0  0
 24 25  2  0  0  0
 24 29  1  0  0  0
 25 26  1  0  0  0
 26 27  2  0  0  0
 27 28  1  0  0  0
 28 29  2  0  0  0
 15 14  1  0  0  0
 14 10  1  0  0  0
 10 11  2  0  0  0
 12  1  1  0  0  0
  1  2  1  0  0  0
  1 30  1  0  0  0
  2  3  2  0  0  0
 30 31  1  0  0  0
 31 32  2  0  0  0
 31 33  1  0  0  0
 32 34  1  0  0  0
 33 35  2  0  0  0
 34 36  2  0  0  0
 35 36  1  0  0  0
 36 37  1  0  0  0
 37 38  2  0  0  0
 37 39  1  0  0  0
  4  5  1  0  0  0
  4  9  1  0  0  0
  5  6  1  0  0  0
  6  7  1  0  0  0
  7  8  1  0  0  0
  8  9  1  0  0  0
 17 15  1  0  0  0
 10 12  1  0  0  0
  2  4  1  0  0  0
 15 16  1  0  0  0
 12 13  1  0  0  0
 38 40  1  0  0  0
 39 41  1  0  0  0
 39 42  1  0  0  0
M  END
> <minimizedAffinity>
-8.37261

$$$$
1PPC_MID_E_5


 42 45  0  0  0  0  0  0  0  0999 V2000
   -3.1246    4.2688   25.4727 C   0  0  0  0  0  0  0  0  0  0  0  0
   -1.8564    4.2641   24.6187 C   0  0  0  0  0  0  0  0  0  0  0  0
   -1.8200    4.8785   23.5473 O   0  0  0  0  0  0  0  0  0  0  0  0
   -0.7785    3.5942   25.0579 N   0  0  0  0  0  0  0  0  0  0  0  0
   -0.6873    3.0267   26.3934 C   0  0  0  0  0  0  0  0  0  0  0  0
   -0.4265    1.5475   26.2347 C   0  0  0  0  0  0  0  0  0  0  0  0
    0.9398    1.3901   25.5854 C   0  0  0  0  0  0  0  0  0  0  0  0
    0.8686    2.0871   24.2297 C   0  0  0  0  0  0  0  0  0  0  0  0
    0.4815    3.5481   24.3290 C   0  0  0  0  0  0  0  0  0  0  0  0
   -4.3012    2.3465   24.3998 C   0  0  0  0  0  0  0  0  0  0  0  0
   -3.6115    1.4335   24.8698 O   0  0  0  0  0  0  0  0  0  0  0  0
   -4.1817    3.6558   24.6805 N   0  0  0  0  0  0  0  0  0  0  0  0
   -4.8726    4.2556   24.3170 H   0  0  0  0  0  0  0  0  0  0  0  0
   -5.5027    2.0856   23.4994 C   0  0  0  0  0  0  0  0  0  0  0  0
   -5.8086    3.1684   22.5959 N   0  0  0  0  0  0  0  0  0  0  0  0
   -5.4575    4.0360   23.0015 H   0  0  0  0  0  0  0  0  0  0  0  0
   -5.1382    2.9843   21.0892 S   0  0  0  0  0  0  0  0  0  0  0  0
   -4.4190    1.6335   20.9805 O   0  0  0  0  0  0  0  0  0  0  0  0
   -6.3635    2.9910   20.1795 O   0  0  0  0  0  0  0  0  0  0  0  0
   -4.3001    5.5906   20.5330 C   0  0  0  0  0  0  0  0  0  0  0  0
   -3.9647    4.2666   20.6464 C   0  0  0  0  0  0  0  0  0  0  0  0
   -2.6853    3.8778   20.3611 C   0  0  0  0  0  0  0  0  0  0  0  0
   -1.7668    4.7975   19.9101 C   0  0  0  0  0  0  0  0  0  0  0  0
   -1.1724    7.0240   19.3595 C   0  0  0  0  0  0  0  0  0  0  0  0
   -1.5052    8.3636   19.2769 C   0  0  0  0  0  0  0  0  0  0  0  0
   -2.7861    8.7811   19.5876 C   0  0  0  0  0  0  0  0  0  0  0  0
   -3.7465    7.8664   19.9900 C   0  0  0  0  0  0  0  0  0  0  0  0
   -3.3900    6.5379   20.1141 C   0  0  0  0  0  0  0  0  0  0  0  0
   -2.1217    6.1220   19.7932 C   0  0  0  0  0  0  0  0  0  0  0  0
   -3.4882    5.7050   25.8821 C   0  0  0  0  0  0  0  0  0  0  0  0
   -3.1304    6.0243   27.3194 C   0  0  0  0  0  0  0  0  0  0  0  0
   -1.8136    5.9851   27.7420 C   0  0  0  0  0  0  0  0  0  0  0  0
   -4.1112    6.4431   28.1876 C   0  0  0  0  0  0  0  0  0  0  0  0
   -1.4809    6.3275   29.0387 C   0  0  0  0  0  0  0  0  0  0  0  0
   -3.7733    6.7787   29.4833 C   0  0  0  0  0  0  0  0  0  0  0  0
   -2.4552    6.7475   29.9226 C   0  0  0  0  0  0  0  0  0  0  0  0
   -2.1383    7.1628   31.2238 C   0  0  0  0  0  0  0  0  0  0  0  0
   -3.0981    7.2985   32.1579 N   0  0  0  0  0  0  0  0  0  0  0  0
   -0.8508    7.3584   31.5317 N   0  0  0  0  0  0  0  0  0  0  0  0
   -4.0418    7.1519   31.9188 H   0  0  0  0  0  0  0  0  0  0  0  0
   -0.1581    7.2562   30.8396 H   0  0  0  0  0  0  0  0  0  0  0  0
   -0.5962    7.6044   32.4503 H   0  0  0  0  0  0  0  0  0  0  0  0
 17 18  2  0  0  0
 17 19  2  0  0  0
 17 21  1  0  0  0
 20 21  2  0  0  0
 20 28  1  0  0  0
 21 22  1  0  0  0
 22 23  2  0  0  0
 23 29  1  0  0  0
 24 25  2  0  0  0
 24 29  1  0  0  0
 25 26  1  0  0  0
 26 27  2  0  0  0
 27 28  1  0  0  0
 28 29  2  0  0  0
 15 14  1  0  0  0
 14 10  1  0  0  0
 10 11  2  0  0  0
 12  1  1  0  0  0
  1  2  1  0  0  0
  1 30  1  0  0  0
  2  3  2  0  0  0
 30 31  1  0  0  0
 31 32  2  0  0  0
 31 33  1  0  0  0
 32 34  1  0  0  0
 33 35  2  0  0  0
 34 36  2  0  0  0
 35 36  1  0  0  0
 36 37  1  0  0  0
 37 38  2  0  0  0
 37 39  1  0  0  0
  4  5  1  0  0  0
  4  9  1  0  0  0
  5  6  1  0  0  0
  6  7  1  0  0  0
  7  8  1  0  0  0
  8  9  1  0  0  0
 17 15  1  0  0  0
 10 12  1  0  0  0
  2  4  1  0  0  0
 15 16  1  0  0  0
 12 13  1  0  0  0
 38 40  1  0  0  0
 39 41  1  0  0  0
 39 42  1  0  0  0
M  END
> <minimizedAffinity>
-8.32869

$$$$
1PPC_MID_E_5


 42 45  0  0  0  0  0  0  0  0999 V2000
   -1.8044    3.7963   21.6717 C   0  0  0  0  0  0  0  0  0  0  0  0
   -0.5555    3.1393   22.2598 C   0  0  0  0  0  0  0  0  0  0  0  0
    0.2057    2.4837   21.5404 O   0  0  0  0  0  0  0  0  0  0  0  0
   -0.2909    3.2978   23.5669 N   0  0  0  0  0  0  0  0  0  0  0  0
   -1.0266    4.2178   24.4191 C   0  0  0  0  0  0  0  0  0  0  0  0
   -1.6080    3.4091   25.5546 C   0  0  0  0  0  0  0  0  0  0  0  0
   -0.4462    2.8689   26.3742 C   0  0  0  0  0  0  0  0  0  0  0  0
    0.3846    1.9929   25.4408 C   0  0  0  0  0  0  0  0  0  0  0  0
    0.8833    2.7311   24.2157 C   0  0  0  0  0  0  0  0  0  0  0  0
   -3.9721    2.8104   22.4199 C   0  0  0  0  0  0  0  0  0  0  0  0
   -4.3468    3.7394   23.1457 O   0  0  0  0  0  0  0  0  0  0  0  0
   -2.8593    2.7923   21.6658 N   0  0  0  0  0  0  0  0  0  0  0  0
   -2.7471    2.0299   21.0531 H   0  0  0  0  0  0  0  0  0  0  0  0
   -4.8171    1.5649   22.1814 C   0  0  0  0  0  0  0  0  0  0  0  0
   -4.8709    1.1442   20.8020 N   0  0  0  0  0  0  0  0  0  0  0  0
   -4.3342    1.8062   20.2416 H   0  0  0  0  0  0  0  0  0  0  0  0
   -4.2577   -0.3766   20.5482 S   0  0  0  0  0  0  0  0  0  0  0  0
   -3.6438   -0.9328   21.8395 O   0  0  0  0  0  0  0  0  0  0  0  0
   -5.5036   -1.1783   20.1823 O   0  0  0  0  0  0  0  0  0  0  0  0
   -3.1156   -1.2480   18.1521 C   0  0  0  0  0  0  0  0  0  0  0  0
   -3.0050   -0.4584   19.2669 C   0  0  0  0  0  0  0  0  0  0  0  0
   -1.8649    0.2727   19.4536 C   0  0  0  0  0  0  0  0  0  0  0  0
   -0.8220    0.1683   18.5622 C   0  0  0  0  0  0  0  0  0  0  0  0
    0.1090   -0.7026   16.5652 C   0  0  0  0  0  0  0  0  0  0  0  0
   -0.0185   -1.4752   15.4254 C   0  0  0  0  0  0  0  0  0  0  0  0
   -1.1745   -2.2006   15.2042 C   0  0  0  0  0  0  0  0  0  0  0  0
   -2.2179   -2.1573   16.1155 C   0  0  0  0  0  0  0  0  0  0  0  0
   -2.0983   -1.3458   17.2266 C   0  0  0  0  0  0  0  0  0  0  0  0
   -0.9453   -0.6358   17.4522 C   0  0  0  0  0  0  0  0  0  0  0  0
   -1.5168    4.3195   20.2553 C   0  0  0  0  0  0  0  0  0  0  0  0
   -2.0930    5.6973   19.9998 C   0  0  0  0  0  0  0  0  0  0  0  0
   -3.4598    5.9073   20.0422 C   0  0  0  0  0  0  0  0  0  0  0  0
   -1.2463    6.7647   19.8127 C   0  0  0  0  0  0  0  0  0  0  0  0
   -3.9824    7.1736   19.8617 C   0  0  0  0  0  0  0  0  0  0  0  0
   -1.7747    8.0264   19.6275 C   0  0  0  0  0  0  0  0  0  0  0  0
   -3.1449    8.2548   19.6703 C   0  0  0  0  0  0  0  0  0  0  0  0
   -3.6439    9.5595   19.5493 C   0  0  0  0  0  0  0  0  0  0  0  0
   -2.8567   10.5620   19.1163 N   0  0  0  0  0  0  0  0  0  0  0  0
   -4.9388    9.7707   19.8127 N   0  0  0  0  0  0  0  0  0  0  0  0
   -1.9055   10.3938   18.9259 H   0  0  0  0  0  0  0  0  0  0  0  0
   -5.5041    9.0293   20.1288 H   0  0  0  0  0  0  0  0  0  0  0  0
   -5.3261   10.6675   19.6904 H   0  0  0  0  0  0  0  0  0  0  0  0
 17 18  2  0  0  0
 17 19  2  0  0  0
 17 21  1  0  0  0
 20 21  2  0  0  0
 20 28  1  0  0  0
 21 22  1  0  0  0
 22 23  2  0  0  0
 23 29  1  0  0  0
 24 25  2  0  0  0
 24 29  1  0  0  0
 25 26  1  0  0  0
 26 27  2  0  0  0
 27 28  1  0  0  0
 28 29  2  0  0  0
 15 14  1  0  0  0
 14 10  1  0  0  0
 10 11  2  0  0  0
 12  1  1  0  0  0
  1  2  1  0  0  0
  1 30  1  0  0  0
  2  3  2  0  0  0
 30 31  1  0  0  0
 31 32  2  0  0  0
 31 33  1  0  0  0
 32 34  1  0  0  0
 33 35  2  0  0  0
 34 36  2  0  0  0
 35 36  1  0  0  0
 36 37  1  0  0  0
 37 38  2  0  0  0
 37 39  1  0  0  0
  4  5  1  0  0  0
  4  9  1  0  0  0
  5  6  1  0  0  0
  6  7  1  0  0  0
  7  8  1  0  0  0
  8  9  1  0  0  0
 17 15  1  0  0  0
 10 12  1  0  0  0
  2  4  1  0  0  0
 15 16  1  0  0  0
 12 13  1  0  0  0
 38 40  1  0  0  0
 39 41  1  0  0  0
 39 42  1  0  0  0
M  END
> <minimizedAffinity>
-8.28412

$$$$
1PPC_MID_E_5


 42 45  0  0  0  0  0  0  0  0999 V2000
   -2.4400    3.5950   21.5539 C   0  0  0  0  0  0  0  0  0  0  0  0
   -2.6058    2.0792   21.6648 C   0  0  0  0  0  0  0  0  0  0  0  0
   -3.7271    1.5647   21.5969 O   0  0  0  0  0  0  0  0  0  0  0  0
   -1.5129    1.3148   21.8227 N   0  0  0  0  0  0  0  0  0  0  0  0
   -0.1594    1.8324   21.7056 C   0  0  0  0  0  0  0  0  0  0  0  0
    0.5470    1.5384   23.0079 C   0  0  0  0  0  0  0  0  0  0  0  0
    0.6538    0.0270   23.1401 C   0  0  0  0  0  0  0  0  0  0  0  0
   -0.7713   -0.5185   23.1492 C   0  0  0  0  0  0  0  0  0  0  0  0
   -1.5643   -0.1377   21.9161 C   0  0  0  0  0  0  0  0  0  0  0  0
   -2.2572    4.5514   23.8522 C   0  0  0  0  0  0  0  0  0  0  0  0
   -1.0231    4.5797   23.9335 O   0  0  0  0  0  0  0  0  0  0  0  0
   -2.9729    4.1791   22.7769 N   0  0  0  0  0  0  0  0  0  0  0  0
   -3.9472    4.3136   22.8201 H   0  0  0  0  0  0  0  0  0  0  0  0
   -3.1635    5.0709   24.9617 C   0  0  0  0  0  0  0  0  0  0  0  0
   -3.4718    4.0933   25.9774 N   0  0  0  0  0  0  0  0  0  0  0  0
   -3.2163    3.1707   25.6254 H   0  0  0  0  0  0  0  0  0  0  0  0
   -2.6718    4.3491   27.4085 S   0  0  0  0  0  0  0  0  0  0  0  0
   -2.0043    5.7304   27.4136 O   0  0  0  0  0  0  0  0  0  0  0  0
   -3.8051    4.3201   28.4302 O   0  0  0  0  0  0  0  0  0  0  0  0
   -0.3578    2.8576   26.9332 C   0  0  0  0  0  0  0  0  0  0  0  0
   -1.4080    3.1289   27.7711 C   0  0  0  0  0  0  0  0  0  0  0  0
   -1.5431    2.4059   28.9236 C   0  0  0  0  0  0  0  0  0  0  0  0
   -0.6685    1.3816   29.2046 C   0  0  0  0  0  0  0  0  0  0  0  0
    1.2488    0.0972   28.6687 C   0  0  0  0  0  0  0  0  0  0  0  0
    2.3253   -0.1527   27.8373 C   0  0  0  0  0  0  0  0  0  0  0  0
    2.4954    0.5859   26.6810 C   0  0  0  0  0  0  0  0  0  0  0  0
    1.5961    1.5859   26.3457 C   0  0  0  0  0  0  0  0  0  0  0  0
    0.5515    1.8580   27.2071 C   0  0  0  0  0  0  0  0  0  0  0  0
    0.3757    1.1159   28.3485 C   0  0  0  0  0  0  0  0  0  0  0  0
   -3.1737    4.1235   20.3110 C   0  0  0  0  0  0  0  0  0  0  0  0
   -2.8993    5.5877   20.0338 C   0  0  0  0  0  0  0  0  0  0  0  0
   -3.9425    6.4883   19.9130 C   0  0  0  0  0  0  0  0  0  0  0  0
   -1.6014    6.0403   19.9909 C   0  0  0  0  0  0  0  0  0  0  0  0
   -3.6913    7.8323   19.7130 C   0  0  0  0  0  0  0  0  0  0  0  0
   -1.3569    7.3833   19.7855 C   0  0  0  0  0  0  0  0  0  0  0  0
   -2.3934    8.3013   19.6652 C   0  0  0  0  0  0  0  0  0  0  0  0
   -2.1094    9.6676   19.5285 C   0  0  0  0  0  0  0  0  0  0  0  0
   -3.0526   10.5294   19.1046 N   0  0  0  0  0  0  0  0  0  0  0  0
   -0.8974   10.1033   19.8917 N   0  0  0  0  0  0  0  0  0  0  0  0
   -3.9406   10.1964   18.8401 H   0  0  0  0  0  0  0  0  0  0  0  0
   -0.2161    9.4629   20.2000 H   0  0  0  0  0  0  0  0  0  0  0  0
   -0.6870   11.0641   19.8506 H   0  0  0  0  0  0  0  0  0  0  0  0
 17 18  2  0  0  0
 17 19  2  0  0  0
 17 21  1  0  0  0
 20 21  2  0  0  0
 20 28  1  0  0  0
 21 22  1  0  0  0
 22 23  2  0  0  0
 23 29  1  0  0  0
 24 25  2  0  0  0
 24 29  1  0  0  0
 25 26  1  0  0  0
 26 27  2  0  0  0
 27 28  1  0  0  0
 28 29  2  0  0  0
 15 14  1  0  0  0
 14 10  1  0  0  0
 10 11  2  0  0  0
 12  1  1  0  0  0
  1  2  1  0  0  0
  1 30  1  0  0  0
  2  3  2  0  0  0
 30 31  1  0  0  0
 31 32  2  0  0  0
 31 33  1  0  0  0
 32 34  1  0  0  0
 33 35  2  0  0  0
 34 36  2  0  0  0
 35 36  1  0  0  0
 36 37  1  0  0  0
 37 38  2  0  0  0
 37 39  1  0  0  0
  4  5  1  0  0  0
  4  9  1  0  0  0
  5  6  1  0  0  0
  6  7  1  0  0  0
  7  8  1  0  0  0
  8  9  1  0  0  0
 17 15  1  0  0  0
 10 12  1  0  0  0
  2  4  1  0  0  0
 15 16  1  0  0  0
 12 13  1  0  0  0
 38 40  1  0  0  0
 39 41  1  0  0  0
 39 42  1  0  0  0
M  END
> <minimizedAffinity>
-8.21689

$$$$
1PPC_MID_E_5


 42 45  0  0  0  0  0  0  0  0999 V2000
   -1.9825    3.5405   21.3927 C   0  0  0  0  0  0  0  0  0  0  0  0
   -0.7283    2.9637   22.0498 C   0  0  0  0  0  0  0  0  0  0  0  0
    0.0274    2.2211   21.4139 O   0  0  0  0  0  0  0  0  0  0  0  0
   -0.4531    3.2881   23.3235 N   0  0  0  0  0  0  0  0  0  0  0  0
   -1.1823    4.3099   24.0570 C   0  0  0  0  0  0  0  0  0  0  0  0
   -1.7537    3.6535   25.2915 C   0  0  0  0  0  0  0  0  0  0  0  0
   -0.5848    3.2222   26.1638 C   0  0  0  0  0  0  0  0  0  0  0  0
    0.2388    2.2336   25.3434 C   0  0  0  0  0  0  0  0  0  0  0  0
    0.7269    2.8087   24.0298 C   0  0  0  0  0  0  0  0  0  0  0  0
   -3.8198    1.9877   22.0588 C   0  0  0  0  0  0  0  0  0  0  0  0
   -4.1147    2.5164   23.1375 O   0  0  0  0  0  0  0  0  0  0  0  0
   -2.9065    2.4351   21.1797 N   0  0  0  0  0  0  0  0  0  0  0  0
   -2.8577    1.9729   20.3118 H   0  0  0  0  0  0  0  0  0  0  0  0
   -4.5679    0.7803   21.5064 C   0  0  0  0  0  0  0  0  0  0  0  0
   -4.4709    0.6312   20.0744 N   0  0  0  0  0  0  0  0  0  0  0  0
   -3.8940    1.3891   19.7094 H   0  0  0  0  0  0  0  0  0  0  0  0
   -3.8021   -0.8120   19.6018 S   0  0  0  0  0  0  0  0  0  0  0  0
   -4.1721   -1.9266   20.5889 O   0  0  0  0  0  0  0  0  0  0  0  0
   -4.4805   -1.0663   18.2587 O   0  0  0  0  0  0  0  0  0  0  0  0
   -1.1677   -1.0971   20.4871 C   0  0  0  0  0  0  0  0  0  0  0  0
   -2.0145   -0.7800   19.4570 C   0  0  0  0  0  0  0  0  0  0  0  0
   -1.4866   -0.3667   18.2655 C   0  0  0  0  0  0  0  0  0  0  0  0
   -0.1261   -0.2161   18.1262 C   0  0  0  0  0  0  0  0  0  0  0  0
    2.0710   -0.3900   18.9956 C   0  0  0  0  0  0  0  0  0  0  0  0
    2.9237   -0.7411   20.0261 C   0  0  0  0  0  0  0  0  0  0  0  0
    2.4107   -1.1877   21.2298 C   0  0  0  0  0  0  0  0  0  0  0  0
    1.0413   -1.2944   21.4153 C   0  0  0  0  0  0  0  0  0  0  0  0
    0.2010   -0.9858   20.3636 C   0  0  0  0  0  0  0  0  0  0  0  0
    0.7103   -0.5302   19.1730 C   0  0  0  0  0  0  0  0  0  0  0  0
   -1.6217    4.2359   20.0703 C   0  0  0  0  0  0  0  0  0  0  0  0
   -2.1303    5.6608   19.9874 C   0  0  0  0  0  0  0  0  0  0  0  0
   -1.3526    6.6533   19.4180 C   0  0  0  0  0  0  0  0  0  0  0  0
   -3.4096    5.9515   20.3998 C   0  0  0  0  0  0  0  0  0  0  0  0
   -1.8368    7.9415   19.2942 C   0  0  0  0  0  0  0  0  0  0  0  0
   -3.8856    7.2415   20.2784 C   0  0  0  0  0  0  0  0  0  0  0  0
   -3.1184    8.2492   19.7061 C   0  0  0  0  0  0  0  0  0  0  0  0
   -3.6587    9.5315   19.5334 C   0  0  0  0  0  0  0  0  0  0  0  0
   -4.9437    9.7863   19.8432 N   0  0  0  0  0  0  0  0  0  0  0  0
   -2.8483   10.5105   19.1144 N   0  0  0  0  0  0  0  0  0  0  0  0
   -5.5299    9.0574   20.1503 H   0  0  0  0  0  0  0  0  0  0  0  0
   -1.9105   10.3113   18.8908 H   0  0  0  0  0  0  0  0  0  0  0  0
   -3.1900   11.4299   19.0297 H   0  0  0  0  0  0  0  0  0  0  0  0
 17 18  2  0  0  0
 17 19  2  0  0  0
 17 21  1  0  0  0
 20 21  2  0  0  0
 20 28  1  0  0  0
 21 22  1  0  0  0
 22 23  2  0  0  0
 23 29  1  0  0  0
 24 25  2  0  0  0
 24 29  1  0  0  0
 25 26  1  0  0  0
 26 27  2  0  0  0
 27 28  1  0  0  0
 28 29  2  0  0  0
 15 14  1  0  0  0
 14 10  1  0  0  0
 10 11  2  0  0  0
 12  1  1  0  0  0
  1  2  1  0  0  0
  1 30  1  0  0  0
  2  3  2  0  0  0
 30 31  1  0  0  0
 31 32  2  0  0  0
 31 33  1  0  0  0
 32 34  1  0  0  0
 33 35  2  0  0  0
 34 36  2  0  0  0
 35 36  1  0  0  0
 36 37  1  0  0  0
 37 38  2  0  0  0
 37 39  1  0  0  0
  4  5  1  0  0  0
  4  9  1  0  0  0
  5  6  1  0  0  0
  6  7  1  0  0  0
  7  8  1  0  0  0
  8  9  1  0  0  0
 17 15  1  0  0  0
 10 12  1  0  0  0
  2  4  1  0  0  0
 15 16  1  0  0  0
 12 13  1  0  0  0
 38 40  1  0  0  0
 39 41  1  0  0  0
 39 42  1  0  0  0
M  END
> <minimizedAffinity>
-8.03918

$$$$
1PPC_MID_E_5


 42 45  0  0  0  0  0  0  0  0999 V2000
   -1.9589    3.4900   20.9548 C   0  0  0  0  0  0  0  0  0  0  0  0
   -0.9876    3.5559   22.1337 C   0  0  0  0  0  0  0  0  0  0  0  0
    0.1322    3.0399   22.0528 O   0  0  0  0  0  0  0  0  0  0  0  0
   -1.3648    4.1953   23.2528 N   0  0  0  0  0  0  0  0  0  0  0  0
   -2.5769    4.9934   23.3400 C   0  0  0  0  0  0  0  0  0  0  0  0
   -3.4113    4.4199   24.4608 C   0  0  0  0  0  0  0  0  0  0  0  0
   -2.6427    4.6274   25.7567 C   0  0  0  0  0  0  0  0  0  0  0  0
   -1.3212    3.8779   25.6125 C   0  0  0  0  0  0  0  0  0  0  0  0
   -0.5046    4.3314   24.4201 C   0  0  0  0  0  0  0  0  0  0  0  0
   -2.9983    1.2223   21.0426 C   0  0  0  0  0  0  0  0  0  0  0  0
   -3.9595    1.4973   21.7710 O   0  0  0  0  0  0  0  0  0  0  0  0
   -2.0838    2.0897   20.5750 N   0  0  0  0  0  0  0  0  0  0  0  0
   -1.4391    1.7465   19.9149 H   0  0  0  0  0  0  0  0  0  0  0  0
   -2.7852   -0.1686   20.4574 C   0  0  0  0  0  0  0  0  0  0  0  0
   -1.4809   -0.7262   20.7224 N   0  0  0  0  0  0  0  0  0  0  0  0
   -0.8069    0.0379   20.7698 H   0  0  0  0  0  0  0  0  0  0  0  0
   -1.4022   -1.5844   22.1404 S   0  0  0  0  0  0  0  0  0  0  0  0
   -2.8111   -1.9226   22.6447 O   0  0  0  0  0  0  0  0  0  0  0  0
   -0.6864   -2.8628   21.7135 O   0  0  0  0  0  0  0  0  0  0  0  0
   -1.0689   -0.5413   24.7106 C   0  0  0  0  0  0  0  0  0  0  0  0
   -0.5357   -0.7380   23.4634 C   0  0  0  0  0  0  0  0  0  0  0  0
    0.6994   -0.2247   23.1796 C   0  0  0  0  0  0  0  0  0  0  0  0
    1.3679    0.5284   24.1170 C   0  0  0  0  0  0  0  0  0  0  0  0
    1.5194    1.4653   26.2879 C   0  0  0  0  0  0  0  0  0  0  0  0
    0.9928    1.6348   27.5553 C   0  0  0  0  0  0  0  0  0  0  0  0
   -0.2424    1.1001   27.8709 C   0  0  0  0  0  0  0  0  0  0  0  0
   -0.9623    0.3852   26.9265 C   0  0  0  0  0  0  0  0  0  0  0  0
   -0.4058    0.1823   25.6789 C   0  0  0  0  0  0  0  0  0  0  0  0
    0.8150    0.7243   25.3620 C   0  0  0  0  0  0  0  0  0  0  0  0
   -1.4421    4.3463   19.7878 C   0  0  0  0  0  0  0  0  0  0  0  0
   -2.0085    5.7516   19.7822 C   0  0  0  0  0  0  0  0  0  0  0  0
   -1.1860    6.8408   19.5559 C   0  0  0  0  0  0  0  0  0  0  0  0
   -3.3645    5.9390   19.9142 C   0  0  0  0  0  0  0  0  0  0  0  0
   -1.7105    8.1179   19.4981 C   0  0  0  0  0  0  0  0  0  0  0  0
   -3.8817    7.2177   19.8609 C   0  0  0  0  0  0  0  0  0  0  0  0
   -3.0697    8.3220   19.6313 C   0  0  0  0  0  0  0  0  0  0  0  0
   -3.6370    9.5987   19.5123 C   0  0  0  0  0  0  0  0  0  0  0  0
   -4.9241    9.8153   19.8415 N   0  0  0  0  0  0  0  0  0  0  0  0
   -2.8498   10.6093   19.1253 N   0  0  0  0  0  0  0  0  0  0  0  0
   -5.4930    9.0634   20.1247 H   0  0  0  0  0  0  0  0  0  0  0  0
   -1.9101   10.4380   18.8871 H   0  0  0  0  0  0  0  0  0  0  0  0
   -3.2105   11.5242   19.0788 H   0  0  0  0  0  0  0  0  0  0  0  0
 17 18  2  0  0  0
 17 19  2  0  0  0
 17 21  1  0  0  0
 20 21  2  0  0  0
 20 28  1  0  0  0
 21 22  1  0  0  0
 22 23  2  0  0  0
 23 29  1  0  0  0
 24 25  2  0  0  0
 24 29  1  0  0  0
 25 26  1  0  0  0
 26 27  2  0  0  0
 27 28  1  0  0  0
 28 29  2  0  0  0
 15 14  1  0  0  0
 14 10  1  0  0  0
 10 11  2  0  0  0
 12  1  1  0  0  0
  1  2  1  0  0  0
  1 30  1  0  0  0
  2  3  2  0  0  0
 30 31  1  0  0  0
 31 32  2  0  0  0
 31 33  1  0  0  0
 32 34  1  0  0  0
 33 35  2  0  0  0
 34 36  2  0  0  0
 35 36  1  0  0  0
 36 37  1  0  0  0
 37 38  2  0  0  0
 37 39  1  0  0  0
  4  5  1  0  0  0
  4  9  1  0  0  0
  5  6  1  0  0  0
  6  7  1  0  0  0
  7  8  1  0  0  0
  8  9  1  0  0  0
 17 15  1  0  0  0
 10 12  1  0  0  0
  2  4  1  0  0  0
 15 16  1  0  0  0
 12 13  1  0  0  0
 38 40  1  0  0  0
 39 41  1  0  0  0
 39 42  1  0  0  0
M  END
> <minimizedAffinity>
-7.99518

$$$$
1PPC_MID_E_5


 42 45  0  0  0  0  0  0  0  0999 V2000
   -4.6924    4.3558   24.6561 C   0  0  0  0  0  0  0  0  0  0  0  0
   -6.0622    4.1240   25.2944 C   0  0  0  0  0  0  0  0  0  0  0  0
   -6.8870    3.3786   24.7550 O   0  0  0  0  0  0  0  0  0  0  0  0
   -6.3495    4.7314   26.4571 N   0  0  0  0  0  0  0  0  0  0  0  0
   -5.3595    5.4510   27.2419 C   0  0  0  0  0  0  0  0  0  0  0  0
   -5.8643    6.8642   27.4129 C   0  0  0  0  0  0  0  0  0  0  0  0
   -7.1360    6.7990   28.2447 C   0  0  0  0  0  0  0  0  0  0  0  0
   -8.1326    5.9471   27.4638 C   0  0  0  0  0  0  0  0  0  0  0  0
   -7.6162    4.5571   27.1544 C   0  0  0  0  0  0  0  0  0  0  0  0
   -5.1466    4.1525   22.2101 C   0  0  0  0  0  0  0  0  0  0  0  0
   -5.3217    2.9288   22.1647 O   0  0  0  0  0  0  0  0  0  0  0  0
   -4.9223    4.8810   23.3174 N   0  0  0  0  0  0  0  0  0  0  0  0
   -4.9127    5.8600   23.2138 H   0  0  0  0  0  0  0  0  0  0  0  0
   -5.2885    5.0466   20.9842 C   0  0  0  0  0  0  0  0  0  0  0  0
   -4.2719    4.8381   19.9815 N   0  0  0  0  0  0  0  0  0  0  0  0
   -4.5296    5.3643   19.1465 H   0  0  0  0  0  0  0  0  0  0  0  0
   -2.7588    5.3221   20.4607 S   0  0  0  0  0  0  0  0  0  0  0  0
   -1.8947    5.6749   19.2431 O   0  0  0  0  0  0  0  0  0  0  0  0
   -3.0552    6.5842   21.2659 O   0  0  0  0  0  0  0  0  0  0  0  0
   -1.0301    4.4222   22.4624 C   0  0  0  0  0  0  0  0  0  0  0  0
   -1.8695    4.1008   21.4278 C   0  0  0  0  0  0  0  0  0  0  0  0
   -2.0089    2.7893   21.0674 C   0  0  0  0  0  0  0  0  0  0  0  0
   -1.2697    1.8157   21.6987 C   0  0  0  0  0  0  0  0  0  0  0  0
    0.2868    1.1547   23.3582 C   0  0  0  0  0  0  0  0  0  0  0  0
    1.1084    1.4787   24.4223 C   0  0  0  0  0  0  0  0  0  0  0  0
    1.2418    2.7960   24.8202 C   0  0  0  0  0  0  0  0  0  0  0  0
    0.5516    3.8030   24.1639 C   0  0  0  0  0  0  0  0  0  0  0  0
   -0.3020    3.4624   23.1331 C   0  0  0  0  0  0  0  0  0  0  0  0
   -0.4244    2.1559   22.7301 C   0  0  0  0  0  0  0  0  0  0  0  0
   -3.8920    3.0442   24.6168 C   0  0  0  0  0  0  0  0  0  0  0  0
   -2.8116    2.9725   25.6766 C   0  0  0  0  0  0  0  0  0  0  0  0
   -2.3581    4.1226   26.2978 C   0  0  0  0  0  0  0  0  0  0  0  0
   -2.3420    1.7471   26.0876 C   0  0  0  0  0  0  0  0  0  0  0  0
   -1.4110    4.0527   27.3015 C   0  0  0  0  0  0  0  0  0  0  0  0
   -1.3920    1.6841   27.0871 C   0  0  0  0  0  0  0  0  0  0  0  0
   -0.9283    2.8295   27.7232 C   0  0  0  0  0  0  0  0  0  0  0  0
   -0.0160    2.7243   28.7827 C   0  0  0  0  0  0  0  0  0  0  0  0
   -0.1077    3.5326   29.8552 N   0  0  0  0  0  0  0  0  0  0  0  0
    0.9080    1.7576   28.7309 N   0  0  0  0  0  0  0  0  0  0  0  0
   -0.7918    4.2401   29.8813 H   0  0  0  0  0  0  0  0  0  0  0  0
    0.9649    1.1729   27.9409 H   0  0  0  0  0  0  0  0  0  0  0  0
    1.5309    1.6312   29.4827 H   0  0  0  0  0  0  0  0  0  0  0  0
 17 18  2  0  0  0
 17 19  2  0  0  0
 17 21  1  0  0  0
 20 21  2  0  0  0
 20 28  1  0  0  0
 21 22  1  0  0  0
 22 23  2  0  0  0
 23 29  1  0  0  0
 24 25  2  0  0  0
 24 29  1  0  0  0
 25 26  1  0  0  0
 26 27  2  0  0  0
 27 28  1  0  0  0
 28 29  2  0  0  0
 15 14  1  0  0  0
 14 10  1  0  0  0
 10 11  2  0  0  0
 12  1  1  0  0  0
  1  2  1  0  0  0
  1 30  1  0  0  0
  2  3  2  0  0  0
 30 31  1  0  0  0
 31 32  2  0  0  0
 31 33  1  0  0  0
 32 34  1  0  0  0
 33 35  2  0  0  0
 34 36  2  0  0  0
 35 36  1  0  0  0
 36 37  1  0  0  0
 37 38  2  0  0  0
 37 39  1  0  0  0
  4  5  1  0  0  0
  4  9  1  0  0  0
  5  6  1  0  0  0
  6  7  1  0  0  0
  7  8  1  0  0  0
  8  9  1  0  0  0
 17 15  1  0  0  0
 10 12  1  0  0  0
  2  4  1  0  0  0
 15 16  1  0  0  0
 12 13  1  0  0  0
 38 40  1  0  0  0
 39 41  1  0  0  0
 39 42  1  0  0  0
M  END
> <minimizedAffinity>
-7.92122

$$$$
1PPC_MID_E_5


 42 45  0  0  0  0  0  0  0  0999 V2000
   -2.0231    3.4101   22.3649 C   0  0  0  0  0  0  0  0  0  0  0  0
   -1.3158    4.2621   21.3106 C   0  0  0  0  0  0  0  0  0  0  0  0
   -0.0931    4.1777   21.1538 O   0  0  0  0  0  0  0  0  0  0  0  0
   -2.0457    5.0925   20.5483 N   0  0  0  0  0  0  0  0  0  0  0  0
   -3.4996    5.0899   20.5402 C   0  0  0  0  0  0  0  0  0  0  0  0
   -3.9521    6.4819   20.9128 C   0  0  0  0  0  0  0  0  0  0  0  0
   -3.4984    7.4226   19.8070 C   0  0  0  0  0  0  0  0  0  0  0  0
   -1.9761    7.3340   19.7474 C   0  0  0  0  0  0  0  0  0  0  0  0
   -1.4689    5.9277   19.5038 C   0  0  0  0  0  0  0  0  0  0  0  0
   -3.1737    4.5934   24.2374 C   0  0  0  0  0  0  0  0  0  0  0  0
   -4.3350    4.2648   23.9662 O   0  0  0  0  0  0  0  0  0  0  0  0
   -2.0644    4.1896   23.5943 N   0  0  0  0  0  0  0  0  0  0  0  0
   -1.2002    4.4443   23.9912 H   0  0  0  0  0  0  0  0  0  0  0  0
   -2.8244    5.4350   25.4589 C   0  0  0  0  0  0  0  0  0  0  0  0
   -3.9349    5.6705   26.3498 N   0  0  0  0  0  0  0  0  0  0  0  0
   -4.7872    5.3397   25.8975 H   0  0  0  0  0  0  0  0  0  0  0  0
   -3.7853    4.9028   27.8133 S   0  0  0  0  0  0  0  0  0  0  0  0
   -5.1647    4.5176   28.3635 O   0  0  0  0  0  0  0  0  0  0  0  0
   -3.0059    3.6429   27.4471 O   0  0  0  0  0  0  0  0  0  0  0  0
   -3.4072    6.0059   30.3519 C   0  0  0  0  0  0  0  0  0  0  0  0
   -2.9464    5.8718   29.0681 C   0  0  0  0  0  0  0  0  0  0  0  0
   -1.8176    6.5458   28.6929 C   0  0  0  0  0  0  0  0  0  0  0  0
   -1.1903    7.3919   29.5781 C   0  0  0  0  0  0  0  0  0  0  0  0
   -1.0070    8.3613   31.7322 C   0  0  0  0  0  0  0  0  0  0  0  0
   -1.4560    8.4695   33.0356 C   0  0  0  0  0  0  0  0  0  0  0  0
   -2.5797    7.7745   33.4427 C   0  0  0  0  0  0  0  0  0  0  0  0
   -3.2634    6.9593   32.5544 C   0  0  0  0  0  0  0  0  0  0  0  0
   -2.7789    6.8222   31.2684 C   0  0  0  0  0  0  0  0  0  0  0  0
   -1.6706    7.5224   30.8611 C   0  0  0  0  0  0  0  0  0  0  0  0
   -1.2784    2.0806   22.5655 C   0  0  0  0  0  0  0  0  0  0  0  0
   -0.6603    1.9448   23.9422 C   0  0  0  0  0  0  0  0  0  0  0  0
    0.5798    2.4946   24.2140 C   0  0  0  0  0  0  0  0  0  0  0  0
   -1.3764    1.3484   24.9535 C   0  0  0  0  0  0  0  0  0  0  0  0
    1.1203    2.4170   25.4833 C   0  0  0  0  0  0  0  0  0  0  0  0
   -0.8288    1.2692   26.2181 C   0  0  0  0  0  0  0  0  0  0  0  0
    0.4143    1.8189   26.5084 C   0  0  0  0  0  0  0  0  0  0  0  0
    0.9094    1.7832   27.8196 C   0  0  0  0  0  0  0  0  0  0  0  0
    1.9481    0.9907   28.1437 N   0  0  0  0  0  0  0  0  0  0  0  0
    0.3659    2.6044   28.7258 N   0  0  0  0  0  0  0  0  0  0  0  0
    2.3392    0.3909   27.4681 H   0  0  0  0  0  0  0  0  0  0  0  0
   -0.3935    3.1791   28.4764 H   0  0  0  0  0  0  0  0  0  0  0  0
    0.7255    2.6338   29.6418 H   0  0  0  0  0  0  0  0  0  0  0  0
 17 18  2  0  0  0
 17 19  2  0  0  0
 17 21  1  0  0  0
 20 21  2  0  0  0
 20 28  1  0  0  0
 21 22  1  0  0  0
 22 23  2  0  0  0
 23 29  1  0  0  0
 24 25  2  0  0  0
 24 29  1  0  0  0
 25 26  1  0  0  0
 26 27  2  0  0  0
 27 28  1  0  0  0
 28 29  2  0  0  0
 15 14  1  0  0  0
 14 10  1  0  0  0
 10 11  2  0  0  0
 12  1  1  0  0  0
  1  2  1  0  0  0
  1 30  1  0  0  0
  2  3  2  0  0  0
 30 31  1  0  0  0
 31 32  2  0  0  0
 31 33  1  0  0  0
 32 34  1  0  0  0
 33 35  2  0  0  0
 34 36  2  0  0  0
 35 36  1  0  0  0
 36 37  1  0  0  0
 37 38  2  0  0  0
 37 39  1  0  0  0
  4  5  1  0  0  0
  4  9  1  0  0  0
  5  6  1  0  0  0
  6  7  1  0  0  0
  7  8  1  0  0  0
  8  9  1  0  0  0
 17 15  1  0  0  0
 10 12  1  0  0  0
  2  4  1  0  0  0
 15 16  1  0  0  0
 12 13  1  0  0  0
 38 40  1  0  0  0
 39 41  1  0  0  0
 39 42  1  0  0  0
M  END
> <minimizedAffinity>
-7.90907

$$$$
