4OC2_2QQ_A_821


 34 34  0  0  0  0  0  0  0  0999 V2000
   19.8983   45.0873   44.5730 C   0  0  0  0  0  0  0  0  0  0  0  0
   18.9978   45.5510   43.5056 N   0  0  0  0  0  0  0  0  0  0  0  0
   17.9772   44.8339   43.0727 C   0  0  0  0  0  0  0  0  0  0  0  0
   17.7338   43.6948   43.5195 O   0  0  0  0  0  0  0  0  0  0  0  0
   17.1822   45.3826   42.1258 N   0  0  0  0  0  0  0  0  0  0  0  0
   19.1630   46.4317   43.0976 H   0  0  0  0  0  0  0  0  0  0  0  0
   17.2583   46.3263   41.8557 H   0  0  0  0  0  0  0  0  0  0  0  0
   16.1962   44.4698   41.5287 C   0  0  0  0  0  0  0  0  0  0  0  0
   16.6649   44.1765   40.0433 C   0  0  0  0  0  0  0  0  0  0  0  0
   15.8813   43.5352   39.3008 O   0  0  0  0  0  0  0  0  0  0  0  0
   17.8113   44.5684   39.6768 O   0  0  0  0  0  0  0  0  0  0  0  0
   18.3562   45.0442   40.2723 H   0  0  0  0  0  0  0  0  0  0  0  0
   14.7720   45.0698   41.4674 C   0  0  0  0  0  0  0  0  0  0  0  0
   14.6389   46.4215   40.9545 C   0  0  0  0  0  0  0  0  0  0  0  0
   14.5309   47.5243   40.5472 C   0  0  0  0  0  0  0  0  0  0  0  0
   20.0003   46.1853   45.6185 C   0  0  0  0  0  0  0  0  0  0  0  0
   20.9026   46.0997   46.5126 O   0  0  0  0  0  0  0  0  0  0  0  0
   19.1752   47.1077   45.4585 O   0  0  0  0  0  0  0  0  0  0  0  0
   18.5521   47.0630   44.7601 H   0  0  0  0  0  0  0  0  0  0  0  0
   21.3059   44.9052   43.9029 C   0  0  0  0  0  0  0  0  0  0  0  0
   21.6135   45.9190   42.7642 C   0  0  0  0  0  0  0  0  0  0  0  0
   23.1670   46.0534   42.5471 C   0  0  0  0  0  0  0  0  0  0  0  0
   23.7032   47.4952   42.5996 C   0  0  0  0  0  0  0  0  0  0  0  0
   23.1053   48.9094   44.5463 C   0  0  0  0  0  0  0  0  0  0  0  0
   22.1240   49.3024   43.9017 O   0  0  0  0  0  0  0  0  0  0  0  0
   23.9051   47.9751   43.9853 N   0  0  0  0  0  0  0  0  0  0  0  0
   24.6459   47.6018   44.5154 H   0  0  0  0  0  0  0  0  0  0  0  0
   23.5044   48.3343   47.0617 C   0  0  0  0  0  0  0  0  0  0  0  0
   23.5959   48.6189   48.4595 C   0  0  0  0  0  0  0  0  0  0  0  0
   23.4322   49.8924   49.0514 C   0  0  0  0  0  0  0  0  0  0  0  0
   23.5813   50.2251   51.2865 I   0  0  0  0  0  0  0  0  0  0  0  0
   23.1665   50.8644   48.0398 C   0  0  0  0  0  0  0  0  0  0  0  0
   23.0534   50.6035   46.6330 C   0  0  0  0  0  0  0  0  0  0  0  0
   23.2533   49.3005   46.0820 C   0  0  0  0  0  0  0  0  0  0  0  0
 10  9  2  0  0  0
  9 11  1  0  0  0
  9  8  1  0  0  0
 15 14  3  0  0  0
 14 13  1  0  0  0
 13  8  1  0  0  0
  8  5  1  0  0  0
  4  3  2  0  0  0
 22 23  1  0  0  0
 22 21  1  0  0  0
 23 26  1  0  0  0
  5  3  1  0  0  0
  3  2  1  0  0  0
 20 21  1  0  0  0
 20  1  1  0  0  0
  2  1  1  0  0  0
 25 24  2  0  0  0
 26 24  1  0  0  0
  1 16  1  0  0  0
 24 34  1  0  0  0
 16 17  2  0  0  0
 16 18  1  0  0  0
 34 33  2  0  0  0
 34 28  1  0  0  0
 33 32  1  0  0  0
 28 29  2  0  0  0
 32 30  2  0  0  0
 29 30  1  0  0  0
 30 31  1  0  0  0
 26 27  1  0  0  0
 18 19  1  0  0  0
  2  6  1  0  0  0
  5  7  1  0  0  0
 11 12  1  0  0  0
M  END
> <minimizedAffinity>
-10.69085

$$$$
4OC2_2QQ_A_821


 34 34  0  0  0  0  0  0  0  0999 V2000
   19.8335   44.6644   44.5781 C   0  0  0  0  0  0  0  0  0  0  0  0
   18.9120   45.2557   43.5949 N   0  0  0  0  0  0  0  0  0  0  0  0
   17.8935   44.5898   43.0827 C   0  0  0  0  0  0  0  0  0  0  0  0
   17.6698   43.3978   43.3749 O   0  0  0  0  0  0  0  0  0  0  0  0
   17.0782   45.2505   42.2291 N   0  0  0  0  0  0  0  0  0  0  0  0
   19.0610   46.1854   43.3075 H   0  0  0  0  0  0  0  0  0  0  0  0
   17.1395   46.2228   42.0878 H   0  0  0  0  0  0  0  0  0  0  0  0
   16.0940   44.4133   41.5273 C   0  0  0  0  0  0  0  0  0  0  0  0
   16.6158   44.2162   40.0437 C   0  0  0  0  0  0  0  0  0  0  0  0
   15.8825   43.5798   39.2477 O   0  0  0  0  0  0  0  0  0  0  0  0
   17.7531   44.6756   39.7311 O   0  0  0  0  0  0  0  0  0  0  0  0
   18.2596   45.1440   40.3652 H   0  0  0  0  0  0  0  0  0  0  0  0
   14.6899   45.0578   41.4549 C   0  0  0  0  0  0  0  0  0  0  0  0
   14.6021   46.4091   40.9310 C   0  0  0  0  0  0  0  0  0  0  0  0
   14.5255   47.5041   40.4968 C   0  0  0  0  0  0  0  0  0  0  0  0
   19.7188   45.4541   45.8713 C   0  0  0  0  0  0  0  0  0  0  0  0
   19.5378   46.7127   45.8080 O   0  0  0  0  0  0  0  0  0  0  0  0
   19.7828   44.7469   46.8975 O   0  0  0  0  0  0  0  0  0  0  0  0
   19.9203   43.8231   46.8220 H   0  0  0  0  0  0  0  0  0  0  0  0
   21.2767   44.8689   43.9960 C   0  0  0  0  0  0  0  0  0  0  0  0
   22.4186   44.3143   44.8947 C   0  0  0  0  0  0  0  0  0  0  0  0
   23.7648   44.2193   44.0841 C   0  0  0  0  0  0  0  0  0  0  0  0
   24.7719   45.3471   44.3718 C   0  0  0  0  0  0  0  0  0  0  0  0
   23.8372   47.5901   43.8797 C   0  0  0  0  0  0  0  0  0  0  0  0
   24.0717   47.3752   42.6832 O   0  0  0  0  0  0  0  0  0  0  0  0
   24.1105   46.6102   44.7698 N   0  0  0  0  0  0  0  0  0  0  0  0
   23.8616   46.7408   45.7133 H   0  0  0  0  0  0  0  0  0  0  0  0
   23.5775   49.9233   45.0226 C   0  0  0  0  0  0  0  0  0  0  0  0
   22.8609   51.0743   45.4751 C   0  0  0  0  0  0  0  0  0  0  0  0
   21.4802   51.3107   45.2837 C   0  0  0  0  0  0  0  0  0  0  0  0
   20.4428   53.1671   46.0621 I   0  0  0  0  0  0  0  0  0  0  0  0
   20.9005   50.2253   44.5593 C   0  0  0  0  0  0  0  0  0  0  0  0
   21.5925   49.0519   44.1078 C   0  0  0  0  0  0  0  0  0  0  0  0
   22.9963   48.8729   44.3048 C   0  0  0  0  0  0  0  0  0  0  0  0
 10  9  2  0  0  0
  9 11  1  0  0  0
  9  8  1  0  0  0
 15 14  3  0  0  0
 14 13  1  0  0  0
 13  8  1  0  0  0
  8  5  1  0  0  0
  4  3  2  0  0  0
 22 23  1  0  0  0
 22 21  1  0  0  0
 23 26  1  0  0  0
  5  3  1  0  0  0
  3  2  1  0  0  0
 20 21  1  0  0  0
 20  1  1  0  0  0
  2  1  1  0  0  0
 25 24  2  0  0  0
 26 24  1  0  0  0
  1 16  1  0  0  0
 24 34  1  0  0  0
 16 17  2  0  0  0
 16 18  1  0  0  0
 34 33  2  0  0  0
 34 28  1  0  0  0
 33 32  1  0  0  0
 28 29  2  0  0  0
 32 30  2  0  0  0
 29 30  1  0  0  0
 30 31  1  0  0  0
 26 27  1  0  0  0
 18 19  1  0  0  0
  2  6  1  0  0  0
  5  7  1  0  0  0
 11 12  1  0  0  0
M  END
> <minimizedAffinity>
-9.30200

$$$$
4OC2_2QQ_A_821


 34 34  0  0  0  0  0  0  0  0999 V2000
   25.0315   45.9807   44.8065 C   0  0  0  0  0  0  0  0  0  0  0  0
   24.6778   47.4043   44.6907 N   0  0  0  0  0  0  0  0  0  0  0  0
   23.8909   48.0158   45.5567 C   0  0  0  0  0  0  0  0  0  0  0  0
   23.3650   47.4110   46.5127 O   0  0  0  0  0  0  0  0  0  0  0  0
   23.6780   49.3404   45.3838 N   0  0  0  0  0  0  0  0  0  0  0  0
   25.0428   47.9218   43.9369 H   0  0  0  0  0  0  0  0  0  0  0  0
   24.1856   49.8751   44.7313 H   0  0  0  0  0  0  0  0  0  0  0  0
   22.6349   49.9249   46.2394 C   0  0  0  0  0  0  0  0  0  0  0  0
   21.7135   50.8218   45.3128 C   0  0  0  0  0  0  0  0  0  0  0  0
   21.2244   50.2890   44.2864 O   0  0  0  0  0  0  0  0  0  0  0  0
   21.5340   52.0358   45.6230 O   0  0  0  0  0  0  0  0  0  0  0  0
   21.9229   52.3828   46.4017 H   0  0  0  0  0  0  0  0  0  0  0  0
   23.2032   50.8273   47.3597 C   0  0  0  0  0  0  0  0  0  0  0  0
   23.3018   50.2562   48.6909 C   0  0  0  0  0  0  0  0  0  0  0  0
   23.3904   49.7866   49.7703 C   0  0  0  0  0  0  0  0  0  0  0  0
   26.4617   45.8058   44.3239 C   0  0  0  0  0  0  0  0  0  0  0  0
   27.2061   44.9528   44.9062 O   0  0  0  0  0  0  0  0  0  0  0  0
   26.7515   46.5238   43.3452 O   0  0  0  0  0  0  0  0  0  0  0  0
   26.1180   47.1205   42.9980 H   0  0  0  0  0  0  0  0  0  0  0  0
   24.0769   45.2162   43.8226 C   0  0  0  0  0  0  0  0  0  0  0  0
   23.8662   43.7140   44.1663 C   0  0  0  0  0  0  0  0  0  0  0  0
   23.7005   43.5192   45.7196 C   0  0  0  0  0  0  0  0  0  0  0  0
   22.4036   42.8083   46.1459 C   0  0  0  0  0  0  0  0  0  0  0  0
   20.3704   44.0111   45.3931 C   0  0  0  0  0  0  0  0  0  0  0  0
   20.5245   44.7785   46.3522 O   0  0  0  0  0  0  0  0  0  0  0  0
   21.2912   43.0411   45.1973 N   0  0  0  0  0  0  0  0  0  0  0  0
   21.2198   42.4709   44.3979 H   0  0  0  0  0  0  0  0  0  0  0  0
   19.4507   45.3672   43.3602 C   0  0  0  0  0  0  0  0  0  0  0  0
   18.4790   45.7365   42.3792 C   0  0  0  0  0  0  0  0  0  0  0  0
   17.2096   45.1366   42.2132 C   0  0  0  0  0  0  0  0  0  0  0  0
   15.7383   45.8167   40.6316 I   0  0  0  0  0  0  0  0  0  0  0  0
   17.0397   44.0929   43.1727 C   0  0  0  0  0  0  0  0  0  0  0  0
   17.9911   43.7127   44.1777 C   0  0  0  0  0  0  0  0  0  0  0  0
   19.2726   44.3350   44.2870 C   0  0  0  0  0  0  0  0  0  0  0  0
 10  9  2  0  0  0
  9 11  1  0  0  0
  9  8  1  0  0  0
 15 14  3  0  0  0
 14 13  1  0  0  0
 13  8  1  0  0  0
  8  5  1  0  0  0
  4  3  2  0  0  0
 22 23  1  0  0  0
 22 21  1  0  0  0
 23 26  1  0  0  0
  5  3  1  0  0  0
  3  2  1  0  0  0
 20 21  1  0  0  0
 20  1  1  0  0  0
  2  1  1  0  0  0
 25 24  2  0  0  0
 26 24  1  0  0  0
  1 16  1  0  0  0
 24 34  1  0  0  0
 16 17  2  0  0  0
 16 18  1  0  0  0
 34 33  2  0  0  0
 34 28  1  0  0  0
 33 32  1  0  0  0
 28 29  2  0  0  0
 32 30  2  0  0  0
 29 30  1  0  0  0
 30 31  1  0  0  0
 26 27  1  0  0  0
 18 19  1  0  0  0
  2  6  1  0  0  0
  5  7  1  0  0  0
 11 12  1  0  0  0
M  END
> <minimizedAffinity>
-8.03969

$$$$
4OC2_2QQ_A_821


 34 34  0  0  0  0  0  0  0  0999 V2000
   23.8112   45.3665   43.5713 C   0  0  0  0  0  0  0  0  0  0  0  0
   23.1338   46.1810   44.5926 N   0  0  0  0  0  0  0  0  0  0  0  0
   23.6072   47.3416   45.0076 C   0  0  0  0  0  0  0  0  0  0  0  0
   24.6849   47.8050   44.5834 O   0  0  0  0  0  0  0  0  0  0  0  0
   22.8728   48.0316   45.9100 N   0  0  0  0  0  0  0  0  0  0  0  0
   22.2937   45.8470   44.9822 H   0  0  0  0  0  0  0  0  0  0  0  0
   21.9571   47.7673   46.1570 H   0  0  0  0  0  0  0  0  0  0  0  0
   23.5390   49.2042   46.4957 C   0  0  0  0  0  0  0  0  0  0  0  0
   23.3093   49.1427   48.0627 C   0  0  0  0  0  0  0  0  0  0  0  0
   22.6978   48.1476   48.5235 O   0  0  0  0  0  0  0  0  0  0  0  0
   23.7189   50.1037   48.7774 O   0  0  0  0  0  0  0  0  0  0  0  0
   24.1706   50.8228   48.3813 H   0  0  0  0  0  0  0  0  0  0  0  0
   22.9661   50.5468   45.9843 C   0  0  0  0  0  0  0  0  0  0  0  0
   21.8175   50.4878   45.0981 C   0  0  0  0  0  0  0  0  0  0  0  0
   20.8783   50.4351   44.3850 C   0  0  0  0  0  0  0  0  0  0  0  0
   23.1238   45.6088   42.2379 C   0  0  0  0  0  0  0  0  0  0  0  0
   21.8531   45.5521   42.1831 O   0  0  0  0  0  0  0  0  0  0  0  0
   23.9123   45.8826   41.3102 O   0  0  0  0  0  0  0  0  0  0  0  0
   24.8358   45.8944   41.4684 H   0  0  0  0  0  0  0  0  0  0  0  0
   23.5793   43.8708   43.9867 C   0  0  0  0  0  0  0  0  0  0  0  0
   23.4600   43.6390   45.5201 C   0  0  0  0  0  0  0  0  0  0  0  0
   22.4376   42.4820   45.8274 C   0  0  0  0  0  0  0  0  0  0  0  0
   21.1132   42.9432   46.4618 C   0  0  0  0  0  0  0  0  0  0  0  0
   19.7485   44.4275   45.0191 C   0  0  0  0  0  0  0  0  0  0  0  0
   20.4402   45.3743   45.4167 O   0  0  0  0  0  0  0  0  0  0  0  0
   20.0559   43.1853   45.4545 N   0  0  0  0  0  0  0  0  0  0  0  0
   19.5604   42.4166   45.0899 H   0  0  0  0  0  0  0  0  0  0  0  0
   18.7985   45.7531   42.9800 C   0  0  0  0  0  0  0  0  0  0  0  0
   17.8673   46.0291   41.9313 C   0  0  0  0  0  0  0  0  0  0  0  0
   16.7309   45.2497   41.6151 C   0  0  0  0  0  0  0  0  0  0  0  0
   15.3096   45.7929   39.9378 I   0  0  0  0  0  0  0  0  0  0  0  0
   16.6510   44.1315   42.4996 C   0  0  0  0  0  0  0  0  0  0  0  0
   17.5619   43.8401   43.5696 C   0  0  0  0  0  0  0  0  0  0  0  0
   18.7115   44.6471   43.8318 C   0  0  0  0  0  0  0  0  0  0  0  0
 10  9  2  0  0  0
  9 11  1  0  0  0
  9  8  1  0  0  0
 15 14  3  0  0  0
 14 13  1  0  0  0
 13  8  1  0  0  0
  8  5  1  0  0  0
  4  3  2  0  0  0
 22 23  1  0  0  0
 22 21  1  0  0  0
 23 26  1  0  0  0
  5  3  1  0  0  0
  3  2  1  0  0  0
 20 21  1  0  0  0
 20  1  1  0  0  0
  2  1  1  0  0  0
 25 24  2  0  0  0
 26 24  1  0  0  0
  1 16  1  0  0  0
 24 34  1  0  0  0
 16 17  2  0  0  0
 16 18  1  0  0  0
 34 33  2  0  0  0
 34 28  1  0  0  0
 33 32  1  0  0  0
 28 29  2  0  0  0
 32 30  2  0  0  0
 29 30  1  0  0  0
 30 31  1  0  0  0
 26 27  1  0  0  0
 18 19  1  0  0  0
  2  6  1  0  0  0
  5  7  1  0  0  0
 11 12  1  0  0  0
M  END
> <minimizedAffinity>
-8.03554

$$$$
