2YIX_YIX_A_1355


 28 30  0  0  0  0  0  0  0  0999 V2000
    5.4821   13.4493   30.7739 C   0  0  0  0  0  0  0  0  0  0  0  0
    6.8560   13.0581   30.6353 C   0  0  0  0  0  0  0  0  0  0  0  0
    7.2144   12.1038   29.6688 C   0  0  0  0  0  0  0  0  0  0  0  0
    6.2214   11.5283   28.8370 C   0  0  0  0  0  0  0  0  0  0  0  0
    4.8763   11.8927   28.9623 C   0  0  0  0  0  0  0  0  0  0  0  0
    4.4833   12.8551   29.9355 C   0  0  0  0  0  0  0  0  0  0  0  0
    5.0152   14.4598   31.8486 C   0  0  0  0  0  0  0  0  0  0  0  0
    6.9740   16.0719   34.6021 N   0  0  0  0  0  0  0  0  0  0  0  0
    5.9221   15.4682   33.9705 C   0  0  0  0  0  0  0  0  0  0  0  0
    4.8903   15.2765   34.5483 O   0  0  0  0  0  0  0  0  0  0  0  0
    6.0539   15.0989   32.6652 N   0  0  0  0  0  0  0  0  0  0  0  0
    7.7953   16.2121   34.0775 H   0  0  0  0  0  0  0  0  0  0  0  0
    6.9205   15.2759   32.2329 H   0  0  0  0  0  0  0  0  0  0  0  0
    8.4062   17.1145   36.2555 C   0  0  0  0  0  0  0  0  0  0  0  0
    6.9804   16.5262   35.9909 C   0  0  0  0  0  0  0  0  0  0  0  0
    2.7281   13.2977   30.1499 S   0  0  0  0  0  0  0  0  0  0  0  0
    2.1055   11.7793   30.7734 C   0  0  0  0  0  0  0  0  0  0  0  0
    2.8502   10.9469   31.7049 C   0  0  0  0  0  0  0  0  0  0  0  0
    2.2730    9.7499   32.1662 C   0  0  0  0  0  0  0  0  0  0  0  0
    0.9509    9.3471   31.6980 C   0  0  0  0  0  0  0  0  0  0  0  0
    0.1338    8.2806   31.9139 N   0  0  0  0  0  0  0  0  0  0  0  0
   -0.9480    8.4484   31.2256 N   0  0  0  0  0  0  0  0  0  0  0  0
   -0.9084    9.5780   30.5293 C   0  0  0  0  0  0  0  0  0  0  0  0
    0.2753   10.1811   30.7972 N   0  0  0  0  0  0  0  0  0  0  0  0
    0.8324   11.3850   30.3543 C   0  0  0  0  0  0  0  0  0  0  0  0
   -1.9537   10.1748   29.6005 C   0  0  0  0  0  0  0  0  0  0  0  0
   -1.8802    9.6035   28.1969 C   0  0  0  0  0  0  0  0  0  0  0  0
   -3.3602    9.9240   30.0891 C   0  0  0  0  0  0  0  0  0  0  0  0
 14 15  1  0  0  0
 15  8  1  0  0  0
  8  9  1  0  0  0
  9 10  2  0  0  0
  9 11  1  0  0  0
 11  7  1  0  0  0
  7  1  1  0  0  0
  1  2  1  0  0  0
  1  6  2  0  0  0
  2  3  2  0  0  0
  3  4  1  0  0  0
  4  5  2  0  0  0
  5  6  1  0  0  0
  6 16  1  0  0  0
 16 17  1  0  0  0
 17 18  1  0  0  0
 17 25  2  0  0  0
 18 19  2  0  0  0
 19 20  1  0  0  0
 20 21  2  0  0  0
 20 24  1  0  0  0
 21 22  1  0  0  0
 22 23  2  0  0  0
 23 26  1  0  0  0
 23 24  1  0  0  0
 26 27  1  0  0  0
 26 28  1  0  0  0
 24 25  1  0  0  0
  8 12  1  0  0  0
 11 13  1  0  0  0
M  END
> <minimizedAffinity>
-11.66277

$$$$
2YIX_YIX_A_1355


 28 30  0  0  0  0  0  0  0  0999 V2000
    5.2104   13.3881   30.6895 C   0  0  0  0  0  0  0  0  0  0  0  0
    6.6152   13.1382   30.8446 C   0  0  0  0  0  0  0  0  0  0  0  0
    7.2562   12.2164   30.0004 C   0  0  0  0  0  0  0  0  0  0  0  0
    6.5163   11.5345   29.0021 C   0  0  0  0  0  0  0  0  0  0  0  0
    5.1451   11.7605   28.8404 C   0  0  0  0  0  0  0  0  0  0  0  0
    4.4682   12.6868   29.6840 C   0  0  0  0  0  0  0  0  0  0  0  0
    4.4361   14.3556   31.6158 C   0  0  0  0  0  0  0  0  0  0  0  0
    2.5438   17.4238   30.6046 N   0  0  0  0  0  0  0  0  0  0  0  0
    2.7989   16.2263   31.2134 C   0  0  0  0  0  0  0  0  0  0  0  0
    1.9599   15.6866   31.8769 O   0  0  0  0  0  0  0  0  0  0  0  0
    4.0183   15.6414   31.0446 N   0  0  0  0  0  0  0  0  0  0  0  0
    3.2662   17.8187   30.0647 H   0  0  0  0  0  0  0  0  0  0  0  0
    4.6754   16.1229   30.4918 H   0  0  0  0  0  0  0  0  0  0  0  0
    1.5168   19.5084   29.9173 C   0  0  0  0  0  0  0  0  0  0  0  0
    1.2878   18.1661   30.6886 C   0  0  0  0  0  0  0  0  0  0  0  0
    2.6715   12.9495   29.5240 S   0  0  0  0  0  0  0  0  0  0  0  0
    2.0799   11.5444   30.3944 C   0  0  0  0  0  0  0  0  0  0  0  0
    2.8693   10.8531   31.4015 C   0  0  0  0  0  0  0  0  0  0  0  0
    2.3152    9.7416   32.0620 C   0  0  0  0  0  0  0  0  0  0  0  0
    0.9716    9.2840   31.7231 C   0  0  0  0  0  0  0  0  0  0  0  0
    0.1659    8.2670   32.1336 N   0  0  0  0  0  0  0  0  0  0  0  0
   -0.9482    8.3394   31.4813 N   0  0  0  0  0  0  0  0  0  0  0  0
   -0.9426    9.3536   30.6246 C   0  0  0  0  0  0  0  0  0  0  0  0
    0.2529    9.9808   30.7428 N   0  0  0  0  0  0  0  0  0  0  0  0
    0.7878   11.1020   30.1004 C   0  0  0  0  0  0  0  0  0  0  0  0
   -2.0322    9.8145   29.6696 C   0  0  0  0  0  0  0  0  0  0  0  0
   -2.4097    8.7483   28.6583 C   0  0  0  0  0  0  0  0  0  0  0  0
   -3.3048   10.1851   30.3928 C   0  0  0  0  0  0  0  0  0  0  0  0
 14 15  1  0  0  0
 15  8  1  0  0  0
  8  9  1  0  0  0
  9 10  2  0  0  0
  9 11  1  0  0  0
 11  7  1  0  0  0
  7  1  1  0  0  0
  1  2  1  0  0  0
  1  6  2  0  0  0
  2  3  2  0  0  0
  3  4  1  0  0  0
  4  5  2  0  0  0
  5  6  1  0  0  0
  6 16  1  0  0  0
 16 17  1  0  0  0
 17 18  1  0  0  0
 17 25  2  0  0  0
 18 19  2  0  0  0
 19 20  1  0  0  0
 20 21  2  0  0  0
 20 24  1  0  0  0
 21 22  1  0  0  0
 22 23  2  0  0  0
 23 26  1  0  0  0
 23 24  1  0  0  0
 26 27  1  0  0  0
 26 28  1  0  0  0
 24 25  1  0  0  0
  8 12  1  0  0  0
 11 13  1  0  0  0
M  END
> <minimizedAffinity>
-9.70876

$$$$
2YIX_YIX_A_1355


 28 30  0  0  0  0  0  0  0  0999 V2000
    5.0109   13.3972   30.8958 C   0  0  0  0  0  0  0  0  0  0  0  0
    6.2237   13.5135   30.1371 C   0  0  0  0  0  0  0  0  0  0  0  0
    6.5224   12.5591   29.1506 C   0  0  0  0  0  0  0  0  0  0  0  0
    5.6301   11.4845   28.9092 C   0  0  0  0  0  0  0  0  0  0  0  0
    4.4465   11.3515   29.6434 C   0  0  0  0  0  0  0  0  0  0  0  0
    4.1194   12.3021   30.6519 C   0  0  0  0  0  0  0  0  0  0  0  0
    4.6459   14.3879   32.0268 C   0  0  0  0  0  0  0  0  0  0  0  0
    6.9106   16.1308   34.4456 N   0  0  0  0  0  0  0  0  0  0  0  0
    5.8232   15.4383   33.9895 C   0  0  0  0  0  0  0  0  0  0  0  0
    4.9360   15.1331   34.7345 O   0  0  0  0  0  0  0  0  0  0  0  0
    5.7504   15.1105   32.6686 N   0  0  0  0  0  0  0  0  0  0  0  0
    7.6062   16.3627   33.7887 H   0  0  0  0  0  0  0  0  0  0  0  0
    6.5037   15.3817   32.0956 H   0  0  0  0  0  0  0  0  0  0  0  0
    8.6376   16.9441   35.9383 C   0  0  0  0  0  0  0  0  0  0  0  0
    7.1258   16.5552   35.8273 C   0  0  0  0  0  0  0  0  0  0  0  0
    2.6101   12.1107   31.6560 S   0  0  0  0  0  0  0  0  0  0  0  0
    1.4494   11.7387   30.3927 C   0  0  0  0  0  0  0  0  0  0  0  0
    1.6929   12.0326   28.9892 C   0  0  0  0  0  0  0  0  0  0  0  0
    0.7148   11.6902   28.0380 C   0  0  0  0  0  0  0  0  0  0  0  0
   -0.5327   11.0642   28.4640 C   0  0  0  0  0  0  0  0  0  0  0  0
   -1.6623   10.6377   27.8364 N   0  0  0  0  0  0  0  0  0  0  0  0
   -2.4639   10.1484   28.7253 N   0  0  0  0  0  0  0  0  0  0  0  0
   -1.9445   10.2324   29.9441 C   0  0  0  0  0  0  0  0  0  0  0  0
   -0.7219   10.8054   29.8279 N   0  0  0  0  0  0  0  0  0  0  0  0
    0.2570   11.1198   30.7761 C   0  0  0  0  0  0  0  0  0  0  0  0
   -2.5264    9.7777   31.2732 C   0  0  0  0  0  0  0  0  0  0  0  0
   -1.7022    8.6843   31.9265 C   0  0  0  0  0  0  0  0  0  0  0  0
   -2.6089   10.9048   32.2746 C   0  0  0  0  0  0  0  0  0  0  0  0
 14 15  1  0  0  0
 15  8  1  0  0  0
  8  9  1  0  0  0
  9 10  2  0  0  0
  9 11  1  0  0  0
 11  7  1  0  0  0
  7  1  1  0  0  0
  1  2  1  0  0  0
  1  6  2  0  0  0
  2  3  2  0  0  0
  3  4  1  0  0  0
  4  5  2  0  0  0
  5  6  1  0  0  0
  6 16  1  0  0  0
 16 17  1  0  0  0
 17 18  1  0  0  0
 17 25  2  0  0  0
 18 19  2  0  0  0
 19 20  1  0  0  0
 20 21  2  0  0  0
 20 24  1  0  0  0
 21 22  1  0  0  0
 22 23  2  0  0  0
 23 26  1  0  0  0
 23 24  1  0  0  0
 26 27  1  0  0  0
 26 28  1  0  0  0
 24 25  1  0  0  0
  8 12  1  0  0  0
 11 13  1  0  0  0
M  END
> <minimizedAffinity>
-9.14965

$$$$
2YIX_YIX_A_1355


 28 30  0  0  0  0  0  0  0  0999 V2000
    0.2625    9.8820   30.1672 C   0  0  0  0  0  0  0  0  0  0  0  0
   -0.1079    8.8550   31.0988 C   0  0  0  0  0  0  0  0  0  0  0  0
    0.6603    8.6560   32.2579 C   0  0  0  0  0  0  0  0  0  0  0  0
    1.7979    9.4651   32.5032 C   0  0  0  0  0  0  0  0  0  0  0  0
    2.1778   10.4667   31.6032 C   0  0  0  0  0  0  0  0  0  0  0  0
    1.4200   10.6888   30.4182 C   0  0  0  0  0  0  0  0  0  0  0  0
   -0.5134   10.1218   28.8503 C   0  0  0  0  0  0  0  0  0  0  0  0
   -3.9548    9.0532   27.8344 N   0  0  0  0  0  0  0  0  0  0  0  0
   -2.8137    9.8054   27.8753 C   0  0  0  0  0  0  0  0  0  0  0  0
   -2.7157   10.8040   27.2207 O   0  0  0  0  0  0  0  0  0  0  0  0
   -1.7890    9.4149   28.6846 N   0  0  0  0  0  0  0  0  0  0  0  0
   -3.9845    8.2469   28.3986 H   0  0  0  0  0  0  0  0  0  0  0  0
   -1.9152    8.5873   29.2026 H   0  0  0  0  0  0  0  0  0  0  0  0
   -5.0282    8.4433   25.7492 C   0  0  0  0  0  0  0  0  0  0  0  0
   -5.1340    9.3466   27.0227 C   0  0  0  0  0  0  0  0  0  0  0  0
    1.9349   11.9508   29.2078 S   0  0  0  0  0  0  0  0  0  0  0  0
    2.9622   12.9466   30.2249 C   0  0  0  0  0  0  0  0  0  0  0  0
    2.4310   13.9186   31.1676 C   0  0  0  0  0  0  0  0  0  0  0  0
    3.3240   14.6680   31.9549 C   0  0  0  0  0  0  0  0  0  0  0  0
    4.7636   14.4789   31.8094 C   0  0  0  0  0  0  0  0  0  0  0  0
    5.8718   15.0312   32.3740 N   0  0  0  0  0  0  0  0  0  0  0  0
    6.9163   14.4693   31.8589 N   0  0  0  0  0  0  0  0  0  0  0  0
    6.5794   13.5625   30.9497 C   0  0  0  0  0  0  0  0  0  0  0  0
    5.2261   13.5335   30.8845 N   0  0  0  0  0  0  0  0  0  0  0  0
    4.3434   12.7669   30.1168 C   0  0  0  0  0  0  0  0  0  0  0  0
    7.4715   12.6633   30.1087 C   0  0  0  0  0  0  0  0  0  0  0  0
    8.3573   11.7669   30.9535 C   0  0  0  0  0  0  0  0  0  0  0  0
    6.6740   11.7489   29.2099 C   0  0  0  0  0  0  0  0  0  0  0  0
 14 15  1  0  0  0
 15  8  1  0  0  0
  8  9  1  0  0  0
  9 10  2  0  0  0
  9 11  1  0  0  0
 11  7  1  0  0  0
  7  1  1  0  0  0
  1  2  1  0  0  0
  1  6  2  0  0  0
  2  3  2  0  0  0
  3  4  1  0  0  0
  4  5  2  0  0  0
  5  6  1  0  0  0
  6 16  1  0  0  0
 16 17  1  0  0  0
 17 18  1  0  0  0
 17 25  2  0  0  0
 18 19  2  0  0  0
 19 20  1  0  0  0
 20 21  2  0  0  0
 20 24  1  0  0  0
 21 22  1  0  0  0
 22 23  2  0  0  0
 23 26  1  0  0  0
 23 24  1  0  0  0
 26 27  1  0  0  0
 26 28  1  0  0  0
 24 25  1  0  0  0
  8 12  1  0  0  0
 11 13  1  0  0  0
M  END
> <minimizedAffinity>
-9.00155

$$$$
2YIX_YIX_A_1355


 28 30  0  0  0  0  0  0  0  0999 V2000
    0.5171   10.0196   30.2732 C   0  0  0  0  0  0  0  0  0  0  0  0
    0.2469    8.9404   31.1800 C   0  0  0  0  0  0  0  0  0  0  0  0
    1.0677    8.7534   32.3046 C   0  0  0  0  0  0  0  0  0  0  0  0
    2.1597    9.6260   32.5394 C   0  0  0  0  0  0  0  0  0  0  0  0
    2.4421   10.6794   31.6629 C   0  0  0  0  0  0  0  0  0  0  0  0
    1.6292   10.8910   30.5130 C   0  0  0  0  0  0  0  0  0  0  0  0
   -0.3198   10.2519   28.9928 C   0  0  0  0  0  0  0  0  0  0  0  0
   -3.7987    9.1947   28.1001 N   0  0  0  0  0  0  0  0  0  0  0  0
   -2.6295    9.9022   28.0522 C   0  0  0  0  0  0  0  0  0  0  0  0
   -2.4926   10.8054   27.2771 O   0  0  0  0  0  0  0  0  0  0  0  0
   -1.6214    9.5787   28.9104 N   0  0  0  0  0  0  0  0  0  0  0  0
   -3.8599    8.4681   28.7616 H   0  0  0  0  0  0  0  0  0  0  0  0
   -1.7799    8.8287   29.5282 H   0  0  0  0  0  0  0  0  0  0  0  0
   -4.8287    8.4488   26.0373 C   0  0  0  0  0  0  0  0  0  0  0  0
   -4.9649    9.4276   27.2509 C   0  0  0  0  0  0  0  0  0  0  0  0
    2.0184   12.2231   29.3311 S   0  0  0  0  0  0  0  0  0  0  0  0
    3.7348   12.4160   29.6446 C   0  0  0  0  0  0  0  0  0  0  0  0
    4.7586   11.7502   28.8546 C   0  0  0  0  0  0  0  0  0  0  0  0
    6.1132   11.9688   29.1645 C   0  0  0  0  0  0  0  0  0  0  0  0
    6.4778   12.8403   30.2767 C   0  0  0  0  0  0  0  0  0  0  0  0
    7.6471   13.2407   30.8462 N   0  0  0  0  0  0  0  0  0  0  0  0
    7.3724   14.0384   31.8262 N   0  0  0  0  0  0  0  0  0  0  0  0
    6.0620   14.1950   31.9702 C   0  0  0  0  0  0  0  0  0  0  0  0
    5.4549   13.4554   31.0105 N   0  0  0  0  0  0  0  0  0  0  0  0
    4.1068   13.2626   30.6918 C   0  0  0  0  0  0  0  0  0  0  0  0
    5.2972   15.0409   32.9757 C   0  0  0  0  0  0  0  0  0  0  0  0
    4.3461   14.2186   33.8249 C   0  0  0  0  0  0  0  0  0  0  0  0
    6.2172   15.7549   33.9368 C   0  0  0  0  0  0  0  0  0  0  0  0
 14 15  1  0  0  0
 15  8  1  0  0  0
  8  9  1  0  0  0
  9 10  2  0  0  0
  9 11  1  0  0  0
 11  7  1  0  0  0
  7  1  1  0  0  0
  1  2  1  0  0  0
  1  6  2  0  0  0
  2  3  2  0  0  0
  3  4  1  0  0  0
  4  5  2  0  0  0
  5  6  1  0  0  0
  6 16  1  0  0  0
 16 17  1  0  0  0
 17 18  1  0  0  0
 17 25  2  0  0  0
 18 19  2  0  0  0
 19 20  1  0  0  0
 20 21  2  0  0  0
 20 24  1  0  0  0
 21 22  1  0  0  0
 22 23  2  0  0  0
 23 26  1  0  0  0
 23 24  1  0  0  0
 26 27  1  0  0  0
 26 28  1  0  0  0
 24 25  1  0  0  0
  8 12  1  0  0  0
 11 13  1  0  0  0
M  END
> <minimizedAffinity>
-8.93811

$$$$
