3GTA_851_A_1


 38 42  0  0  0  0  0  0  0  0999 V2000
   80.3016   61.6746   15.4656 O   0  0  0  0  0  0  0  0  0  0  0  0
   80.6356   62.0444   14.3267 C   0  0  0  0  0  0  0  0  0  0  0  0
   79.9894   63.0780   13.7214 N   0  0  0  0  0  0  0  0  0  0  0  0
   80.3156   63.6960   12.4227 C   0  0  0  0  0  0  0  0  0  0  0  0
   79.7354   65.0981   12.5770 C   0  0  0  0  0  0  0  0  0  0  0  0
   78.4632   64.8583   13.3852 C   0  0  0  0  0  0  0  0  0  0  0  0
   78.8183   63.7118   14.3516 C   0  0  0  0  0  0  0  0  0  0  0  0
   77.6329   62.7905   14.6701 C   0  0  0  0  0  0  0  0  0  0  0  0
   77.0635   62.7698   15.8868 N   0  0  0  0  0  0  0  0  0  0  0  0
   76.0359   61.8493   15.9082 C   0  0  0  0  0  0  0  0  0  0  0  0
   75.1984   61.5551   17.0112 C   0  0  0  0  0  0  0  0  0  0  0  0
   74.1997   60.5611   16.8086 C   0  0  0  0  0  0  0  0  0  0  0  0
   74.0426   59.9065   15.5827 C   0  0  0  0  0  0  0  0  0  0  0  0
   74.8691   60.2016   14.5047 C   0  0  0  0  0  0  0  0  0  0  0  0
   75.8759   61.1895   14.6871 C   0  0  0  0  0  0  0  0  0  0  0  0
   77.0050   61.6994   13.4947 S   0  0  0  0  0  0  0  0  0  0  0  0
   75.3439   62.1930   18.2578 C   0  0  0  0  0  0  0  0  0  0  0  0
   74.2105   62.5377   19.0462 C   0  0  0  0  0  0  0  0  0  0  0  0
   74.3445   63.1722   20.2819 C   0  0  0  0  0  0  0  0  0  0  0  0
   75.6102   63.4913   20.7621 C   0  0  0  0  0  0  0  0  0  0  0  0
   76.7399   63.1719   20.0188 C   0  0  0  0  0  0  0  0  0  0  0  0
   76.6183   62.5341   18.7836 C   0  0  0  0  0  0  0  0  0  0  0  0
   81.7895   61.2353   13.6741 C   0  0  0  0  0  0  0  0  0  0  0  0
   81.2681   60.0765   12.7730 C   0  0  0  0  0  0  0  0  0  0  0  0
   81.9508   59.9697   11.3747 C   0  0  0  0  0  0  0  0  0  0  0  0
   81.3654   58.8096   10.5373 C   0  0  0  0  0  0  0  0  0  0  0  0
   81.5047   57.4666   11.2897 C   0  0  0  0  0  0  0  0  0  0  0  0
   80.8257   57.5175   12.6776 C   0  0  0  0  0  0  0  0  0  0  0  0
   81.3362   58.7066   13.5256 C   0  0  0  0  0  0  0  0  0  0  0  0
   82.7834   60.7548   14.6578 N   0  0  0  0  0  0  0  0  0  0  0  0
   84.0837   61.0539   14.5840 C   0  0  0  0  0  0  0  0  0  0  0  0
   84.5913   61.6313   13.6225 O   0  0  0  0  0  0  0  0  0  0  0  0
   82.4730   60.1887   15.4011 H   0  0  0  0  0  0  0  0  0  0  0  0
   84.9633   60.5909   15.7649 C   0  0  0  0  0  0  0  0  0  0  0  0
   85.0236   61.6333   16.9028 C   0  0  0  0  0  0  0  0  0  0  0  0
   86.2904   60.1724   15.2306 N   0  0  0  0  0  0  0  0  0  0  0  0
   86.3902   58.9250   14.4325 C   0  0  0  0  0  0  0  0  0  0  0  0
   86.9131   60.0642   16.0313 H   0  0  0  0  0  0  0  0  0  0  0  0
  1  2  2  0  0  0
  2 23  1  0  0  0
  2  3  1  0  0  0
 23 24  1  0  0  0
 23 30  1  0  0  0
 24 25  1  0  0  0
 24 29  1  0  0  0
 25 26  1  0  0  0
 26 27  1  0  0  0
 27 28  1  0  0  0
 28 29  1  0  0  0
 30 31  1  0  0  0
 31 32  2  0  0  0
 31 34  1  0  0  0
 34 35  1  0  0  0
 34 36  1  0  0  0
 36 37  1  0  0  0
  3  4  1  0  0  0
  3  7  1  0  0  0
  4  5  1  0  0  0
  5  6  1  0  0  0
  6  7  1  0  0  0
  7  8  1  0  0  0
  8  9  2  0  0  0
  8 16  1  0  0  0
  9 10  1  0  0  0
 10 11  2  0  0  0
 10 15  1  0  0  0
 11 12  1  0  0  0
 11 17  1  0  0  0
 12 13  2  0  0  0
 13 14  1  0  0  0
 14 15  2  0  0  0
 15 16  1  0  0  0
 17 18  2  0  0  0
 17 22  1  0  0  0
 18 19  1  0  0  0
 19 20  2  0  0  0
 20 21  1  0  0  0
 21 22  2  0  0  0
 30 33  1  0  0  0
 36 38  1  0  0  0
M  END
> <minimizedAffinity>
-8.90768

$$$$
3GTA_851_A_1


 38 42  0  0  0  0  0  0  0  0999 V2000
   80.0341   61.3009   14.5801 O   0  0  0  0  0  0  0  0  0  0  0  0
   78.9714   61.1958   13.9437 C   0  0  0  0  0  0  0  0  0  0  0  0
   78.6241   60.0092   13.3750 N   0  0  0  0  0  0  0  0  0  0  0  0
   77.3682   59.6915   12.6702 C   0  0  0  0  0  0  0  0  0  0  0  0
   77.2757   58.1786   12.8402 C   0  0  0  0  0  0  0  0  0  0  0  0
   78.7309   57.7301   12.7379 C   0  0  0  0  0  0  0  0  0  0  0  0
   79.5405   58.8562   13.4093 C   0  0  0  0  0  0  0  0  0  0  0  0
   80.9270   59.0682   12.7865 C   0  0  0  0  0  0  0  0  0  0  0  0
   81.9427   59.5953   13.4905 N   0  0  0  0  0  0  0  0  0  0  0  0
   83.0658   59.6899   12.6946 C   0  0  0  0  0  0  0  0  0  0  0  0
   84.3320   60.1854   13.0891 C   0  0  0  0  0  0  0  0  0  0  0  0
   85.3526   60.1947   12.0967 C   0  0  0  0  0  0  0  0  0  0  0  0
   85.1264   59.7337   10.7958 C   0  0  0  0  0  0  0  0  0  0  0  0
   83.8802   59.2485   10.4169 C   0  0  0  0  0  0  0  0  0  0  0  0
   82.8454   59.2338   11.3925 C   0  0  0  0  0  0  0  0  0  0  0  0
   81.2360   58.6856   11.1359 S   0  0  0  0  0  0  0  0  0  0  0  0
   84.5809   60.6644   14.3894 C   0  0  0  0  0  0  0  0  0  0  0  0
   84.0537   61.9108   14.8293 C   0  0  0  0  0  0  0  0  0  0  0  0
   84.2968   62.3951   16.1154 C   0  0  0  0  0  0  0  0  0  0  0  0
   85.0809   61.6570   16.9957 C   0  0  0  0  0  0  0  0  0  0  0  0
   85.6142   60.4364   16.6003 C   0  0  0  0  0  0  0  0  0  0  0  0
   85.3747   59.9405   15.3181 C   0  0  0  0  0  0  0  0  0  0  0  0
   78.1263   62.4945   13.8371 C   0  0  0  0  0  0  0  0  0  0  0  0
   78.8159   63.5829   12.9616 C   0  0  0  0  0  0  0  0  0  0  0  0
   77.9691   64.0932   11.7552 C   0  0  0  0  0  0  0  0  0  0  0  0
   78.7299   65.1548   10.9282 C   0  0  0  0  0  0  0  0  0  0  0  0
   79.1426   66.3494   11.8182 C   0  0  0  0  0  0  0  0  0  0  0  0
   80.0013   65.8947   13.0206 C   0  0  0  0  0  0  0  0  0  0  0  0
   79.3035   64.7827   13.8393 C   0  0  0  0  0  0  0  0  0  0  0  0
   77.7256   63.0301   15.1559 N   0  0  0  0  0  0  0  0  0  0  0  0
   76.7973   62.4526   15.9243 C   0  0  0  0  0  0  0  0  0  0  0  0
   76.0958   61.5137   15.5474 O   0  0  0  0  0  0  0  0  0  0  0  0
   78.1628   63.8494   15.4827 H   0  0  0  0  0  0  0  0  0  0  0  0
   76.5964   63.0569   17.3304 C   0  0  0  0  0  0  0  0  0  0  0  0
   76.2174   61.9929   18.3837 C   0  0  0  0  0  0  0  0  0  0  0  0
   75.6422   64.1971   17.2234 N   0  0  0  0  0  0  0  0  0  0  0  0
   74.6549   64.4207   18.3087 C   0  0  0  0  0  0  0  0  0  0  0  0
   75.1126   64.0623   16.3621 H   0  0  0  0  0  0  0  0  0  0  0  0
  1  2  2  0  0  0
  2 23  1  0  0  0
  2  3  1  0  0  0
 23 24  1  0  0  0
 23 30  1  0  0  0
 24 25  1  0  0  0
 24 29  1  0  0  0
 25 26  1  0  0  0
 26 27  1  0  0  0
 27 28  1  0  0  0
 28 29  1  0  0  0
 30 31  1  0  0  0
 31 32  2  0  0  0
 31 34  1  0  0  0
 34 35  1  0  0  0
 34 36  1  0  0  0
 36 37  1  0  0  0
  3  4  1  0  0  0
  3  7  1  0  0  0
  4  5  1  0  0  0
  5  6  1  0  0  0
  6  7  1  0  0  0
  7  8  1  0  0  0
  8  9  2  0  0  0
  8 16  1  0  0  0
  9 10  1  0  0  0
 10 11  2  0  0  0
 10 15  1  0  0  0
 11 12  1  0  0  0
 11 17  1  0  0  0
 12 13  2  0  0  0
 13 14  1  0  0  0
 14 15  2  0  0  0
 15 16  1  0  0  0
 17 18  2  0  0  0
 17 22  1  0  0  0
 18 19  1  0  0  0
 19 20  2  0  0  0
 20 21  1  0  0  0
 21 22  2  0  0  0
 30 33  1  0  0  0
 36 38  1  0  0  0
M  END
> <minimizedAffinity>
-7.56766

$$$$
3GTA_851_A_1


 38 42  0  0  0  0  0  0  0  0999 V2000
   80.2656   61.5569   15.4453 O   0  0  0  0  0  0  0  0  0  0  0  0
   80.6324   61.9903   14.3394 C   0  0  0  0  0  0  0  0  0  0  0  0
   79.9952   63.0491   13.7693 N   0  0  0  0  0  0  0  0  0  0  0  0
   80.3567   63.7389   12.5169 C   0  0  0  0  0  0  0  0  0  0  0  0
   79.7570   65.1255   12.7267 C   0  0  0  0  0  0  0  0  0  0  0  0
   78.4619   64.8314   13.4787 C   0  0  0  0  0  0  0  0  0  0  0  0
   78.7977   63.6378   14.3936 C   0  0  0  0  0  0  0  0  0  0  0  0
   77.6125   62.6903   14.6233 C   0  0  0  0  0  0  0  0  0  0  0  0
   77.3054   61.7202   13.7459 N   0  0  0  0  0  0  0  0  0  0  0  0
   76.1950   61.0273   14.1824 C   0  0  0  0  0  0  0  0  0  0  0  0
   75.5825   59.9307   13.5292 C   0  0  0  0  0  0  0  0  0  0  0  0
   74.4377   59.3680   14.1612 C   0  0  0  0  0  0  0  0  0  0  0  0
   73.9392   59.8637   15.3703 C   0  0  0  0  0  0  0  0  0  0  0  0
   74.5470   60.9405   16.0052 C   0  0  0  0  0  0  0  0  0  0  0  0
   75.6903   61.5197   15.3885 C   0  0  0  0  0  0  0  0  0  0  0  0
   76.5854   62.8564   15.9958 S   0  0  0  0  0  0  0  0  0  0  0  0
   76.0594   59.4209   12.3066 C   0  0  0  0  0  0  0  0  0  0  0  0
   75.3716   59.6691   11.0859 C   0  0  0  0  0  0  0  0  0  0  0  0
   75.8352   59.1662    9.8694 C   0  0  0  0  0  0  0  0  0  0  0  0
   76.9906   58.3927    9.8360 C   0  0  0  0  0  0  0  0  0  0  0  0
   77.6876   58.1278   11.0085 C   0  0  0  0  0  0  0  0  0  0  0  0
   77.2355   58.6285   12.2300 C   0  0  0  0  0  0  0  0  0  0  0  0
   81.8153   61.2276   13.6827 C   0  0  0  0  0  0  0  0  0  0  0  0
   81.3360   60.0738   12.7523 C   0  0  0  0  0  0  0  0  0  0  0  0
   82.0010   60.0444   11.3417 C   0  0  0  0  0  0  0  0  0  0  0  0
   81.4589   58.8842   10.4757 C   0  0  0  0  0  0  0  0  0  0  0  0
   81.6743   57.5265   11.1825 C   0  0  0  0  0  0  0  0  0  0  0  0
   81.0156   57.5007   12.5807 C   0  0  0  0  0  0  0  0  0  0  0  0
   81.4816   58.6859   13.4593 C   0  0  0  0  0  0  0  0  0  0  0  0
   82.8121   60.7546   14.6671 N   0  0  0  0  0  0  0  0  0  0  0  0
   84.1157   61.0334   14.5741 C   0  0  0  0  0  0  0  0  0  0  0  0
   84.6217   61.5823   13.5951 O   0  0  0  0  0  0  0  0  0  0  0  0
   82.5013   60.2093   15.4256 H   0  0  0  0  0  0  0  0  0  0  0  0
   85.0005   60.5837   15.7562 C   0  0  0  0  0  0  0  0  0  0  0  0
   85.1070   61.6596   16.8590 C   0  0  0  0  0  0  0  0  0  0  0  0
   86.3072   60.1115   15.2163 N   0  0  0  0  0  0  0  0  0  0  0  0
   86.3541   58.8568   14.4249 C   0  0  0  0  0  0  0  0  0  0  0  0
   86.9304   59.9841   16.0137 H   0  0  0  0  0  0  0  0  0  0  0  0
  1  2  2  0  0  0
  2 23  1  0  0  0
  2  3  1  0  0  0
 23 24  1  0  0  0
 23 30  1  0  0  0
 24 25  1  0  0  0
 24 29  1  0  0  0
 25 26  1  0  0  0
 26 27  1  0  0  0
 27 28  1  0  0  0
 28 29  1  0  0  0
 30 31  1  0  0  0
 31 32  2  0  0  0
 31 34  1  0  0  0
 34 35  1  0  0  0
 34 36  1  0  0  0
 36 37  1  0  0  0
  3  4  1  0  0  0
  3  7  1  0  0  0
  4  5  1  0  0  0
  5  6  1  0  0  0
  6  7  1  0  0  0
  7  8  1  0  0  0
  8  9  2  0  0  0
  8 16  1  0  0  0
  9 10  1  0  0  0
 10 11  2  0  0  0
 10 15  1  0  0  0
 11 12  1  0  0  0
 11 17  1  0  0  0
 12 13  2  0  0  0
 13 14  1  0  0  0
 14 15  2  0  0  0
 15 16  1  0  0  0
 17 18  2  0  0  0
 17 22  1  0  0  0
 18 19  1  0  0  0
 19 20  2  0  0  0
 20 21  1  0  0  0
 21 22  2  0  0  0
 30 33  1  0  0  0
 36 38  1  0  0  0
M  END
> <minimizedAffinity>
-7.48449

$$$$
3GTA_851_A_1


 38 42  0  0  0  0  0  0  0  0999 V2000
   85.0248   58.8837   10.7592 O   0  0  0  0  0  0  0  0  0  0  0  0
   84.7505   58.3545   11.8501 C   0  0  0  0  0  0  0  0  0  0  0  0
   83.6983   57.4976   11.9543 N   0  0  0  0  0  0  0  0  0  0  0  0
   83.2945   56.7209   13.1412 C   0  0  0  0  0  0  0  0  0  0  0  0
   82.5435   55.5478   12.5198 C   0  0  0  0  0  0  0  0  0  0  0  0
   81.8251   56.1866   11.3345 C   0  0  0  0  0  0  0  0  0  0  0  0
   82.8008   57.2581   10.8108 C   0  0  0  0  0  0  0  0  0  0  0  0
   82.0991   58.4907   10.2247 C   0  0  0  0  0  0  0  0  0  0  0  0
   81.5216   59.4138   11.0118 N   0  0  0  0  0  0  0  0  0  0  0  0
   80.9540   60.4033   10.2357 C   0  0  0  0  0  0  0  0  0  0  0  0
   80.2668   61.5472   10.7086 C   0  0  0  0  0  0  0  0  0  0  0  0
   79.7568   62.4396    9.7235 C   0  0  0  0  0  0  0  0  0  0  0  0
   79.9264   62.2087    8.3546 C   0  0  0  0  0  0  0  0  0  0  0  0
   80.6027   61.0831    7.8989 C   0  0  0  0  0  0  0  0  0  0  0  0
   81.1173   60.1768    8.8667 C   0  0  0  0  0  0  0  0  0  0  0  0
   81.9743   58.7262    8.5231 S   0  0  0  0  0  0  0  0  0  0  0  0
   80.0744   61.7957   12.0809 C   0  0  0  0  0  0  0  0  0  0  0  0
   80.3743   63.0653   12.6493 C   0  0  0  0  0  0  0  0  0  0  0  0
   80.1892   63.3205   14.0088 C   0  0  0  0  0  0  0  0  0  0  0  0
   79.7107   62.3152   14.8424 C   0  0  0  0  0  0  0  0  0  0  0  0
   79.4090   61.0623   14.3231 C   0  0  0  0  0  0  0  0  0  0  0  0
   79.5866   60.7968   12.9647 C   0  0  0  0  0  0  0  0  0  0  0  0
   85.6619   58.7650   13.0388 C   0  0  0  0  0  0  0  0  0  0  0  0
   84.8964   59.5849   14.1199 C   0  0  0  0  0  0  0  0  0  0  0  0
   85.7654   60.0619   15.3241 C   0  0  0  0  0  0  0  0  0  0  0  0
   84.9295   60.8501   16.3584 C   0  0  0  0  0  0  0  0  0  0  0  0
   84.2439   62.0666   15.6956 C   0  0  0  0  0  0  0  0  0  0  0  0
   83.3547   61.6411   14.5048 C   0  0  0  0  0  0  0  0  0  0  0  0
   84.1376   60.7918   13.4755 C   0  0  0  0  0  0  0  0  0  0  0  0
   86.8964   59.4542   12.6060 N   0  0  0  0  0  0  0  0  0  0  0  0
   88.0590   58.8202   12.4267 C   0  0  0  0  0  0  0  0  0  0  0  0
   88.2431   57.6438   12.7395 O   0  0  0  0  0  0  0  0  0  0  0  0
   86.8602   60.4243   12.4425 H   0  0  0  0  0  0  0  0  0  0  0  0
   89.2148   59.6578   11.8390 C   0  0  0  0  0  0  0  0  0  0  0  0
   90.2930   59.9993   12.8906 C   0  0  0  0  0  0  0  0  0  0  0  0
   88.6343   60.8363   11.1346 N   0  0  0  0  0  0  0  0  0  0  0  0
   88.5227   60.8142    9.6548 C   0  0  0  0  0  0  0  0  0  0  0  0
   89.2104   61.6421   11.3778 H   0  0  0  0  0  0  0  0  0  0  0  0
  1  2  2  0  0  0
  2 23  1  0  0  0
  2  3  1  0  0  0
 23 24  1  0  0  0
 23 30  1  0  0  0
 24 25  1  0  0  0
 24 29  1  0  0  0
 25 26  1  0  0  0
 26 27  1  0  0  0
 27 28  1  0  0  0
 28 29  1  0  0  0
 30 31  1  0  0  0
 31 32  2  0  0  0
 31 34  1  0  0  0
 34 35  1  0  0  0
 34 36  1  0  0  0
 36 37  1  0  0  0
  3  4  1  0  0  0
  3  7  1  0  0  0
  4  5  1  0  0  0
  5  6  1  0  0  0
  6  7  1  0  0  0
  7  8  1  0  0  0
  8  9  2  0  0  0
  8 16  1  0  0  0
  9 10  1  0  0  0
 10 11  2  0  0  0
 10 15  1  0  0  0
 11 12  1  0  0  0
 11 17  1  0  0  0
 12 13  2  0  0  0
 13 14  1  0  0  0
 14 15  2  0  0  0
 15 16  1  0  0  0
 17 18  2  0  0  0
 17 22  1  0  0  0
 18 19  1  0  0  0
 19 20  2  0  0  0
 20 21  1  0  0  0
 21 22  2  0  0  0
 30 33  1  0  0  0
 36 38  1  0  0  0
M  END
> <minimizedAffinity>
-6.65495

$$$$
3GTA_851_A_1


 38 42  0  0  0  0  0  0  0  0999 V2000
   80.1524   61.4357   15.0343 O   0  0  0  0  0  0  0  0  0  0  0  0
   79.0626   61.5689   14.4510 C   0  0  0  0  0  0  0  0  0  0  0  0
   78.5312   60.5366   13.7409 N   0  0  0  0  0  0  0  0  0  0  0  0
   77.2179   60.4975   13.0710 C   0  0  0  0  0  0  0  0  0  0  0  0
   76.9201   59.0022   13.0303 C   0  0  0  0  0  0  0  0  0  0  0  0
   78.2931   58.3833   12.7827 C   0  0  0  0  0  0  0  0  0  0  0  0
   79.2771   59.2793   13.5594 C   0  0  0  0  0  0  0  0  0  0  0  0
   80.6557   59.3939   12.8948 C   0  0  0  0  0  0  0  0  0  0  0  0
   81.7294   59.8358   13.5708 N   0  0  0  0  0  0  0  0  0  0  0  0
   82.8313   59.8549   12.7406 C   0  0  0  0  0  0  0  0  0  0  0  0
   84.1427   60.2500   13.0990 C   0  0  0  0  0  0  0  0  0  0  0  0
   85.1299   60.1939   12.0749 C   0  0  0  0  0  0  0  0  0  0  0  0
   84.8295   59.7656   10.7778 C   0  0  0  0  0  0  0  0  0  0  0  0
   83.5393   59.3791   10.4344 C   0  0  0  0  0  0  0  0  0  0  0  0
   82.5370   59.4310   11.4422 C   0  0  0  0  0  0  0  0  0  0  0  0
   80.8838   59.0076   11.2320 S   0  0  0  0  0  0  0  0  0  0  0  0
   84.4670   60.6946   14.3949 C   0  0  0  0  0  0  0  0  0  0  0  0
   84.0588   61.9767   14.8580 C   0  0  0  0  0  0  0  0  0  0  0  0
   84.3775   62.4272   16.1398 C   0  0  0  0  0  0  0  0  0  0  0  0
   85.1210   61.6181   16.9925 C   0  0  0  0  0  0  0  0  0  0  0  0
   85.5387   60.3607   16.5739 C   0  0  0  0  0  0  0  0  0  0  0  0
   85.2228   59.8983   15.2957 C   0  0  0  0  0  0  0  0  0  0  0  0
   78.4050   62.9702   14.5776 C   0  0  0  0  0  0  0  0  0  0  0  0
   77.0821   62.9345   15.3995 C   0  0  0  0  0  0  0  0  0  0  0  0
   77.2486   62.5471   16.9012 C   0  0  0  0  0  0  0  0  0  0  0  0
   75.8909   62.5163   17.6398 C   0  0  0  0  0  0  0  0  0  0  0  0
   75.1766   63.8826   17.5296 C   0  0  0  0  0  0  0  0  0  0  0  0
   74.9720   64.3018   16.0558 C   0  0  0  0  0  0  0  0  0  0  0  0
   76.2995   64.2821   15.2614 C   0  0  0  0  0  0  0  0  0  0  0  0
   78.2166   63.6375   13.2716 N   0  0  0  0  0  0  0  0  0  0  0  0
   79.1359   64.4380   12.7241 C   0  0  0  0  0  0  0  0  0  0  0  0
   80.1522   64.8038   13.3148 O   0  0  0  0  0  0  0  0  0  0  0  0
   77.3755   63.4851   12.7832 H   0  0  0  0  0  0  0  0  0  0  0  0
   78.8436   64.9431   11.2951 C   0  0  0  0  0  0  0  0  0  0  0  0
   79.0260   66.4706   11.1580 C   0  0  0  0  0  0  0  0  0  0  0  0
   77.5063   64.4340   10.8778 N   0  0  0  0  0  0  0  0  0  0  0  0
   76.6558   65.2696    9.9939 C   0  0  0  0  0  0  0  0  0  0  0  0
   76.9729   64.2642   11.7304 H   0  0  0  0  0  0  0  0  0  0  0  0
  1  2  2  0  0  0
  2 23  1  0  0  0
  2  3  1  0  0  0
 23 24  1  0  0  0
 23 30  1  0  0  0
 24 25  1  0  0  0
 24 29  1  0  0  0
 25 26  1  0  0  0
 26 27  1  0  0  0
 27 28  1  0  0  0
 28 29  1  0  0  0
 30 31  1  0  0  0
 31 32  2  0  0  0
 31 34  1  0  0  0
 34 35  1  0  0  0
 34 36  1  0  0  0
 36 37  1  0  0  0
  3  4  1  0  0  0
  3  7  1  0  0  0
  4  5  1  0  0  0
  5  6  1  0  0  0
  6  7  1  0  0  0
  7  8  1  0  0  0
  8  9  2  0  0  0
  8 16  1  0  0  0
  9 10  1  0  0  0
 10 11  2  0  0  0
 10 15  1  0  0  0
 11 12  1  0  0  0
 11 17  1  0  0  0
 12 13  2  0  0  0
 13 14  1  0  0  0
 14 15  2  0  0  0
 15 16  1  0  0  0
 17 18  2  0  0  0
 17 22  1  0  0  0
 18 19  1  0  0  0
 19 20  2  0  0  0
 20 21  1  0  0  0
 21 22  2  0  0  0
 30 33  1  0  0  0
 36 38  1  0  0  0
M  END
> <minimizedAffinity>
-6.63081

$$$$
3GTA_851_A_1


 38 42  0  0  0  0  0  0  0  0999 V2000
   80.1207   60.9007   15.2870 O   0  0  0  0  0  0  0  0  0  0  0  0
   80.4608   61.2481   14.1428 C   0  0  0  0  0  0  0  0  0  0  0  0
   79.9262   62.3633   13.5747 N   0  0  0  0  0  0  0  0  0  0  0  0
   80.2837   62.9610   12.2747 C   0  0  0  0  0  0  0  0  0  0  0  0
   79.8837   64.4199   12.4686 C   0  0  0  0  0  0  0  0  0  0  0  0
   78.6182   64.3213   13.3159 C   0  0  0  0  0  0  0  0  0  0  0  0
   78.8617   63.1227   14.2531 C   0  0  0  0  0  0  0  0  0  0  0  0
   77.5838   62.3462   14.5983 C   0  0  0  0  0  0  0  0  0  0  0  0
   77.0205   62.4215   15.8158 N   0  0  0  0  0  0  0  0  0  0  0  0
   75.8982   61.6203   15.8638 C   0  0  0  0  0  0  0  0  0  0  0  0
   75.0380   61.4503   16.9754 C   0  0  0  0  0  0  0  0  0  0  0  0
   73.9355   60.5667   16.8016 C   0  0  0  0  0  0  0  0  0  0  0  0
   73.7026   59.8998   15.5945 C   0  0  0  0  0  0  0  0  0  0  0  0
   74.5520   60.0727   14.5079 C   0  0  0  0  0  0  0  0  0  0  0  0
   75.6618   60.9487   14.6617 C   0  0  0  0  0  0  0  0  0  0  0  0
   76.8351   61.2987   13.4544 S   0  0  0  0  0  0  0  0  0  0  0  0
   75.2577   62.1025   18.2036 C   0  0  0  0  0  0  0  0  0  0  0  0
   74.1712   62.4937   19.0351 C   0  0  0  0  0  0  0  0  0  0  0  0
   74.3788   63.1427   20.2531 C   0  0  0  0  0  0  0  0  0  0  0  0
   75.6736   63.4301   20.6720 C   0  0  0  0  0  0  0  0  0  0  0  0
   76.7590   63.0649   19.8852 C   0  0  0  0  0  0  0  0  0  0  0  0
   76.5637   62.4123   18.6673 C   0  0  0  0  0  0  0  0  0  0  0  0
   81.4862   60.3172   13.4400 C   0  0  0  0  0  0  0  0  0  0  0  0
   82.9571   60.6492   13.8314 C   0  0  0  0  0  0  0  0  0  0  0  0
   83.1142   61.6643   15.0053 C   0  0  0  0  0  0  0  0  0  0  0  0
   84.6001   61.9538   15.3186 C   0  0  0  0  0  0  0  0  0  0  0  0
   85.3534   60.6466   15.6548 C   0  0  0  0  0  0  0  0  0  0  0  0
   85.2417   59.6135   14.5103 C   0  0  0  0  0  0  0  0  0  0  0  0
   83.7692   59.3435   14.1194 C   0  0  0  0  0  0  0  0  0  0  0  0
   81.3106   60.2718   11.9725 N   0  0  0  0  0  0  0  0  0  0  0  0
   81.0913   59.1377   11.3006 C   0  0  0  0  0  0  0  0  0  0  0  0
   81.1571   58.0221   11.8171 O   0  0  0  0  0  0  0  0  0  0  0  0
   81.3574   61.1155   11.4674 H   0  0  0  0  0  0  0  0  0  0  0  0
   80.7906   59.2793    9.7932 C   0  0  0  0  0  0  0  0  0  0  0  0
   81.0888   60.6980    9.2607 C   0  0  0  0  0  0  0  0  0  0  0  0
   79.4033   58.7962    9.5402 N   0  0  0  0  0  0  0  0  0  0  0  0
   78.3183   59.1844   10.4757 C   0  0  0  0  0  0  0  0  0  0  0  0
   79.4396   57.7769    9.5328 H   0  0  0  0  0  0  0  0  0  0  0  0
  1  2  2  0  0  0
  2 23  1  0  0  0
  2  3  1  0  0  0
 23 24  1  0  0  0
 23 30  1  0  0  0
 24 25  1  0  0  0
 24 29  1  0  0  0
 25 26  1  0  0  0
 26 27  1  0  0  0
 27 28  1  0  0  0
 28 29  1  0  0  0
 30 31  1  0  0  0
 31 32  2  0  0  0
 31 34  1  0  0  0
 34 35  1  0  0  0
 34 36  1  0  0  0
 36 37  1  0  0  0
  3  4  1  0  0  0
  3  7  1  0  0  0
  4  5  1  0  0  0
  5  6  1  0  0  0
  6  7  1  0  0  0
  7  8  1  0  0  0
  8  9  2  0  0  0
  8 16  1  0  0  0
  9 10  1  0  0  0
 10 11  2  0  0  0
 10 15  1  0  0  0
 11 12  1  0  0  0
 11 17  1  0  0  0
 12 13  2  0  0  0
 13 14  1  0  0  0
 14 15  2  0  0  0
 15 16  1  0  0  0
 17 18  2  0  0  0
 17 22  1  0  0  0
 18 19  1  0  0  0
 19 20  2  0  0  0
 20 21  1  0  0  0
 21 22  2  0  0  0
 30 33  1  0  0  0
 36 38  1  0  0  0
M  END
> <minimizedAffinity>
-6.62044

$$$$
3GTA_851_A_1


 38 42  0  0  0  0  0  0  0  0999 V2000
   80.4848   61.3143   13.2433 O   0  0  0  0  0  0  0  0  0  0  0  0
   79.5858   60.9838   12.4507 C   0  0  0  0  0  0  0  0  0  0  0  0
   79.0686   59.7254   12.4823 N   0  0  0  0  0  0  0  0  0  0  0  0
   77.9464   59.2018   11.6813 C   0  0  0  0  0  0  0  0  0  0  0  0
   77.4332   58.0593   12.5517 C   0  0  0  0  0  0  0  0  0  0  0  0
   78.7119   57.4813   13.1519 C   0  0  0  0  0  0  0  0  0  0  0  0
   79.6285   58.6989   13.3785 C   0  0  0  0  0  0  0  0  0  0  0  0
   81.1203   58.3826   13.2054 C   0  0  0  0  0  0  0  0  0  0  0  0
   82.0689   59.0880   13.8438 N   0  0  0  0  0  0  0  0  0  0  0  0
   83.3177   58.6100   13.5036 C   0  0  0  0  0  0  0  0  0  0  0  0
   84.5586   59.0935   13.9841 C   0  0  0  0  0  0  0  0  0  0  0  0
   85.7294   58.4497   13.4928 C   0  0  0  0  0  0  0  0  0  0  0  0
   85.6663   57.3879   12.5847 C   0  0  0  0  0  0  0  0  0  0  0  0
   84.4436   56.9191   12.1183 C   0  0  0  0  0  0  0  0  0  0  0  0
   83.2616   57.5509   12.5941 C   0  0  0  0  0  0  0  0  0  0  0  0
   81.6548   57.1368   12.1432 S   0  0  0  0  0  0  0  0  0  0  0  0
   84.6479   60.1676   14.8900 C   0  0  0  0  0  0  0  0  0  0  0  0
   85.3368   60.0325   16.1278 C   0  0  0  0  0  0  0  0  0  0  0  0
   85.4288   61.0906   17.0331 C   0  0  0  0  0  0  0  0  0  0  0  0
   84.8279   62.3093   16.7363 C   0  0  0  0  0  0  0  0  0  0  0  0
   84.1449   62.4773   15.5379 C   0  0  0  0  0  0  0  0  0  0  0  0
   84.0497   61.4277   14.6234 C   0  0  0  0  0  0  0  0  0  0  0  0
   79.1457   62.0827   11.4452 C   0  0  0  0  0  0  0  0  0  0  0  0
   79.9872   62.0613   10.1345 C   0  0  0  0  0  0  0  0  0  0  0  0
   80.5655   60.6662    9.7444 C   0  0  0  0  0  0  0  0  0  0  0  0
   81.4013   60.7342    8.4457 C   0  0  0  0  0  0  0  0  0  0  0  0
   80.5555   61.2930    7.2789 C   0  0  0  0  0  0  0  0  0  0  0  0
   79.9744   62.6863    7.6121 C   0  0  0  0  0  0  0  0  0  0  0  0
   79.1838   62.6779    8.9420 C   0  0  0  0  0  0  0  0  0  0  0  0
   79.1103   63.4327   12.0474 N   0  0  0  0  0  0  0  0  0  0  0  0
   77.9820   64.1326   12.1989 C   0  0  0  0  0  0  0  0  0  0  0  0
   76.9004   63.7825   11.7265 O   0  0  0  0  0  0  0  0  0  0  0  0
   79.9565   63.8342   12.3506 H   0  0  0  0  0  0  0  0  0  0  0  0
   78.0979   65.4640   12.9713 C   0  0  0  0  0  0  0  0  0  0  0  0
   79.5100   66.0823   12.8772 C   0  0  0  0  0  0  0  0  0  0  0  0
   77.6016   65.2496   14.3605 N   0  0  0  0  0  0  0  0  0  0  0  0
   76.1816   65.5437   14.6767 C   0  0  0  0  0  0  0  0  0  0  0  0
   78.1703   65.8338   14.9734 H   0  0  0  0  0  0  0  0  0  0  0  0
  1  2  2  0  0  0
  2 23  1  0  0  0
  2  3  1  0  0  0
 23 24  1  0  0  0
 23 30  1  0  0  0
 24 25  1  0  0  0
 24 29  1  0  0  0
 25 26  1  0  0  0
 26 27  1  0  0  0
 27 28  1  0  0  0
 28 29  1  0  0  0
 30 31  1  0  0  0
 31 32  2  0  0  0
 31 34  1  0  0  0
 34 35  1  0  0  0
 34 36  1  0  0  0
 36 37  1  0  0  0
  3  4  1  0  0  0
  3  7  1  0  0  0
  4  5  1  0  0  0
  5  6  1  0  0  0
  6  7  1  0  0  0
  7  8  1  0  0  0
  8  9  2  0  0  0
  8 16  1  0  0  0
  9 10  1  0  0  0
 10 11  2  0  0  0
 10 15  1  0  0  0
 11 12  1  0  0  0
 11 17  1  0  0  0
 12 13  2  0  0  0
 13 14  1  0  0  0
 14 15  2  0  0  0
 15 16  1  0  0  0
 17 18  2  0  0  0
 17 22  1  0  0  0
 18 19  1  0  0  0
 19 20  2  0  0  0
 20 21  1  0  0  0
 21 22  2  0  0  0
 30 33  1  0  0  0
 36 38  1  0  0  0
M  END
> <minimizedAffinity>
-6.33193

$$$$
3GTA_851_A_1


 38 42  0  0  0  0  0  0  0  0999 V2000
   85.3688   58.4526   10.1862 O   0  0  0  0  0  0  0  0  0  0  0  0
   85.2042   58.0686   11.3570 C   0  0  0  0  0  0  0  0  0  0  0  0
   84.1344   57.2932   11.6832 N   0  0  0  0  0  0  0  0  0  0  0  0
   83.8417   56.6824   12.9933 C   0  0  0  0  0  0  0  0  0  0  0  0
   82.9687   55.4927   12.6076 C   0  0  0  0  0  0  0  0  0  0  0  0
   82.1425   56.0336   11.4440 C   0  0  0  0  0  0  0  0  0  0  0  0
   83.0956   56.9785   10.6871 C   0  0  0  0  0  0  0  0  0  0  0  0
   82.3852   58.1756   10.0410 C   0  0  0  0  0  0  0  0  0  0  0  0
   81.7522   59.1022   10.7798 N   0  0  0  0  0  0  0  0  0  0  0  0
   81.1898   60.0552    9.9557 C   0  0  0  0  0  0  0  0  0  0  0  0
   80.4538   61.1914   10.3704 C   0  0  0  0  0  0  0  0  0  0  0  0
   79.9599   62.0435    9.3425 C   0  0  0  0  0  0  0  0  0  0  0  0
   80.1902   61.7822    7.9879 C   0  0  0  0  0  0  0  0  0  0  0  0
   80.9141   60.6645    7.5895 C   0  0  0  0  0  0  0  0  0  0  0  0
   81.4136   59.7981    8.6008 C   0  0  0  0  0  0  0  0  0  0  0  0
   82.3223   58.3636    8.3301 S   0  0  0  0  0  0  0  0  0  0  0  0
   80.2001   61.4697   11.7269 C   0  0  0  0  0  0  0  0  0  0  0  0
   80.5162   62.7373   12.2910 C   0  0  0  0  0  0  0  0  0  0  0  0
   80.2707   63.0218   13.6350 C   0  0  0  0  0  0  0  0  0  0  0  0
   79.7138   62.0484   14.4576 C   0  0  0  0  0  0  0  0  0  0  0  0
   79.3940   60.7983   13.9422 C   0  0  0  0  0  0  0  0  0  0  0  0
   79.6316   60.5038   12.5990 C   0  0  0  0  0  0  0  0  0  0  0  0
   86.2700   58.5573   12.3756 C   0  0  0  0  0  0  0  0  0  0  0  0
   87.3565   57.4787   12.6634 C   0  0  0  0  0  0  0  0  0  0  0  0
   87.4239   56.3167   11.6251 C   0  0  0  0  0  0  0  0  0  0  0  0
   88.5119   55.2816   11.9921 C   0  0  0  0  0  0  0  0  0  0  0  0
   89.8962   55.9598   12.1067 C   0  0  0  0  0  0  0  0  0  0  0  0
   89.8842   57.1093   13.1401 C   0  0  0  0  0  0  0  0  0  0  0  0
   88.7643   58.1359   12.8473 C   0  0  0  0  0  0  0  0  0  0  0  0
   85.6754   59.0779   13.6253 N   0  0  0  0  0  0  0  0  0  0  0  0
   85.2475   60.3369   13.7583 C   0  0  0  0  0  0  0  0  0  0  0  0
   85.4375   61.2089   12.9102 O   0  0  0  0  0  0  0  0  0  0  0  0
   85.5909   58.4693   14.3945 H   0  0  0  0  0  0  0  0  0  0  0  0
   84.5255   60.6813   15.0784 C   0  0  0  0  0  0  0  0  0  0  0  0
   83.3258   61.6306   14.8670 C   0  0  0  0  0  0  0  0  0  0  0  0
   85.5384   61.1642   16.0596 N   0  0  0  0  0  0  0  0  0  0  0  0
   85.1726   62.2476   17.0058 C   0  0  0  0  0  0  0  0  0  0  0  0
   86.3391   61.4962   15.5219 H   0  0  0  0  0  0  0  0  0  0  0  0
  1  2  2  0  0  0
  2 23  1  0  0  0
  2  3  1  0  0  0
 23 24  1  0  0  0
 23 30  1  0  0  0
 24 25  1  0  0  0
 24 29  1  0  0  0
 25 26  1  0  0  0
 26 27  1  0  0  0
 27 28  1  0  0  0
 28 29  1  0  0  0
 30 31  1  0  0  0
 31 32  2  0  0  0
 31 34  1  0  0  0
 34 35  1  0  0  0
 34 36  1  0  0  0
 36 37  1  0  0  0
  3  4  1  0  0  0
  3  7  1  0  0  0
  4  5  1  0  0  0
  5  6  1  0  0  0
  6  7  1  0  0  0
  7  8  1  0  0  0
  8  9  2  0  0  0
  8 16  1  0  0  0
  9 10  1  0  0  0
 10 11  2  0  0  0
 10 15  1  0  0  0
 11 12  1  0  0  0
 11 17  1  0  0  0
 12 13  2  0  0  0
 13 14  1  0  0  0
 14 15  2  0  0  0
 15 16  1  0  0  0
 17 18  2  0  0  0
 17 22  1  0  0  0
 18 19  1  0  0  0
 19 20  2  0  0  0
 20 21  1  0  0  0
 21 22  2  0  0  0
 30 33  1  0  0  0
 36 38  1  0  0  0
M  END
> <minimizedAffinity>
-6.31426

$$$$
3GTA_851_A_1


 38 42  0  0  0  0  0  0  0  0999 V2000
   80.6026   61.5415   14.9464 O   0  0  0  0  0  0  0  0  0  0  0  0
   79.6118   61.2553   14.2523 C   0  0  0  0  0  0  0  0  0  0  0  0
   79.4735   60.0054   13.7321 N   0  0  0  0  0  0  0  0  0  0  0  0
   78.3261   59.4782   12.9700 C   0  0  0  0  0  0  0  0  0  0  0  0
   78.4338   57.9775   13.2203 C   0  0  0  0  0  0  0  0  0  0  0  0
   79.9409   57.7370   13.2342 C   0  0  0  0  0  0  0  0  0  0  0  0
   80.5370   58.9981   13.8890 C   0  0  0  0  0  0  0  0  0  0  0  0
   81.9203   59.3758   13.3423 C   0  0  0  0  0  0  0  0  0  0  0  0
   82.2208   59.2519   12.0386 N   0  0  0  0  0  0  0  0  0  0  0  0
   83.5254   59.6436   11.8186 C   0  0  0  0  0  0  0  0  0  0  0  0
   84.1948   59.6622   10.5712 C   0  0  0  0  0  0  0  0  0  0  0  0
   85.5487   60.1023   10.5784 C   0  0  0  0  0  0  0  0  0  0  0  0
   86.1918   60.5036   11.7537 C   0  0  0  0  0  0  0  0  0  0  0  0
   85.5271   60.4825   12.9743 C   0  0  0  0  0  0  0  0  0  0  0  0
   84.1746   60.0428   12.9896 C   0  0  0  0  0  0  0  0  0  0  0  0
   83.1743   59.9316   14.3838 S   0  0  0  0  0  0  0  0  0  0  0  0
   83.5719   59.2532    9.3767 C   0  0  0  0  0  0  0  0  0  0  0  0
   83.7026   57.9201    8.8963 C   0  0  0  0  0  0  0  0  0  0  0  0
   83.0909   57.5059    7.7122 C   0  0  0  0  0  0  0  0  0  0  0  0
   82.3412   58.4104    6.9677 C   0  0  0  0  0  0  0  0  0  0  0  0
   82.1933   59.7210    7.4048 C   0  0  0  0  0  0  0  0  0  0  0  0
   82.7972   60.1455    8.5890 C   0  0  0  0  0  0  0  0  0  0  0  0
   78.6034   62.4134   14.0194 C   0  0  0  0  0  0  0  0  0  0  0  0
   79.1689   63.5133   13.0722 C   0  0  0  0  0  0  0  0  0  0  0  0
   78.4214   63.6598   11.7111 C   0  0  0  0  0  0  0  0  0  0  0  0
   79.0542   64.7564   10.8240 C   0  0  0  0  0  0  0  0  0  0  0  0
   79.0686   66.1154   11.5602 C   0  0  0  0  0  0  0  0  0  0  0  0
   79.8165   66.0247   12.9101 C   0  0  0  0  0  0  0  0  0  0  0  0
   79.2564   64.8931   13.8043 C   0  0  0  0  0  0  0  0  0  0  0  0
   78.0903   62.9918   15.2799 N   0  0  0  0  0  0  0  0  0  0  0  0
   77.0283   62.5017   15.9261 C   0  0  0  0  0  0  0  0  0  0  0  0
   76.3010   61.6229   15.4630 O   0  0  0  0  0  0  0  0  0  0  0  0
   78.5522   63.7736   15.6603 H   0  0  0  0  0  0  0  0  0  0  0  0
   76.7078   63.1323   17.2981 C   0  0  0  0  0  0  0  0  0  0  0  0
   76.6345   62.0834   18.4293 C   0  0  0  0  0  0  0  0  0  0  0  0
   75.4919   63.9827   17.1554 N   0  0  0  0  0  0  0  0  0  0  0  0
   75.5382   65.1711   16.2675 C   0  0  0  0  0  0  0  0  0  0  0  0
   75.2514   64.3173   18.0885 H   0  0  0  0  0  0  0  0  0  0  0  0
  1  2  2  0  0  0
  2 23  1  0  0  0
  2  3  1  0  0  0
 23 24  1  0  0  0
 23 30  1  0  0  0
 24 25  1  0  0  0
 24 29  1  0  0  0
 25 26  1  0  0  0
 26 27  1  0  0  0
 27 28  1  0  0  0
 28 29  1  0  0  0
 30 31  1  0  0  0
 31 32  2  0  0  0
 31 34  1  0  0  0
 34 35  1  0  0  0
 34 36  1  0  0  0
 36 37  1  0  0  0
  3  4  1  0  0  0
  3  7  1  0  0  0
  4  5  1  0  0  0
  5  6  1  0  0  0
  6  7  1  0  0  0
  7  8  1  0  0  0
  8  9  2  0  0  0
  8 16  1  0  0  0
  9 10  1  0  0  0
 10 11  2  0  0  0
 10 15  1  0  0  0
 11 12  1  0  0  0
 11 17  1  0  0  0
 12 13  2  0  0  0
 13 14  1  0  0  0
 14 15  2  0  0  0
 15 16  1  0  0  0
 17 18  2  0  0  0
 17 22  1  0  0  0
 18 19  1  0  0  0
 19 20  2  0  0  0
 20 21  1  0  0  0
 21 22  2  0  0  0
 30 33  1  0  0  0
 36 38  1  0  0  0
M  END
> <minimizedAffinity>
-6.14914

$$$$
3GTA_851_A_1


 38 42  0  0  0  0  0  0  0  0999 V2000
   76.1383   60.8695   15.2036 O   0  0  0  0  0  0  0  0  0  0  0  0
   75.4330   61.2487   14.2527 C   0  0  0  0  0  0  0  0  0  0  0  0
   75.5254   60.6372   13.0404 N   0  0  0  0  0  0  0  0  0  0  0  0
   74.7047   60.9004   11.8437 C   0  0  0  0  0  0  0  0  0  0  0  0
   74.7975   59.5774   11.0905 C   0  0  0  0  0  0  0  0  0  0  0  0
   76.2320   59.1290   11.3559 C   0  0  0  0  0  0  0  0  0  0  0  0
   76.5303   59.5879   12.7962 C   0  0  0  0  0  0  0  0  0  0  0  0
   77.9963   59.9817   13.0220 C   0  0  0  0  0  0  0  0  0  0  0  0
   78.4362   61.2283   12.7821 N   0  0  0  0  0  0  0  0  0  0  0  0
   79.7870   61.3091   13.0512 C   0  0  0  0  0  0  0  0  0  0  0  0
   80.5977   62.4632   12.9274 C   0  0  0  0  0  0  0  0  0  0  0  0
   81.9748   62.3157   13.2567 C   0  0  0  0  0  0  0  0  0  0  0  0
   82.5080   61.0966   13.6876 C   0  0  0  0  0  0  0  0  0  0  0  0
   81.7048   59.9684   13.8067 C   0  0  0  0  0  0  0  0  0  0  0  0
   80.3264   60.0934   13.4791 C   0  0  0  0  0  0  0  0  0  0  0  0
   79.1630   58.8291   13.5479 S   0  0  0  0  0  0  0  0  0  0  0  0
   80.0862   63.6983   12.4859 C   0  0  0  0  0  0  0  0  0  0  0  0
   79.4878   63.8317   11.2017 C   0  0  0  0  0  0  0  0  0  0  0  0
   78.9801   65.0523   10.7543 C   0  0  0  0  0  0  0  0  0  0  0  0
   79.0642   66.1767   11.5686 C   0  0  0  0  0  0  0  0  0  0  0  0
   79.6438   66.0847   12.8281 C   0  0  0  0  0  0  0  0  0  0  0  0
   80.1514   64.8688   13.2875 C   0  0  0  0  0  0  0  0  0  0  0  0
   74.4974   62.4512   14.5539 C   0  0  0  0  0  0  0  0  0  0  0  0
   74.6184   63.5808   13.4880 C   0  0  0  0  0  0  0  0  0  0  0  0
   73.2677   64.2359   13.0647 C   0  0  0  0  0  0  0  0  0  0  0  0
   73.4721   65.3312   11.9931 C   0  0  0  0  0  0  0  0  0  0  0  0
   74.4433   66.4206   12.5022 C   0  0  0  0  0  0  0  0  0  0  0  0
   75.8061   65.8207   12.9175 C   0  0  0  0  0  0  0  0  0  0  0  0
   75.6422   64.6731   13.9422 C   0  0  0  0  0  0  0  0  0  0  0  0
   74.6607   62.9777   15.9260 N   0  0  0  0  0  0  0  0  0  0  0  0
   73.9157   62.5671   16.9565 C   0  0  0  0  0  0  0  0  0  0  0  0
   72.9402   61.8263   16.8330 O   0  0  0  0  0  0  0  0  0  0  0  0
   75.3498   63.6620   16.0876 H   0  0  0  0  0  0  0  0  0  0  0  0
   74.3061   63.1122   18.3468 C   0  0  0  0  0  0  0  0  0  0  0  0
   74.7668   64.5855   18.2973 C   0  0  0  0  0  0  0  0  0  0  0  0
   75.2840   62.1728   18.9658 N   0  0  0  0  0  0  0  0  0  0  0  0
   76.6945   62.6022   19.1355 C   0  0  0  0  0  0  0  0  0  0  0  0
   75.2961   61.3322   18.3880 H   0  0  0  0  0  0  0  0  0  0  0  0
  1  2  2  0  0  0
  2 23  1  0  0  0
  2  3  1  0  0  0
 23 24  1  0  0  0
 23 30  1  0  0  0
 24 25  1  0  0  0
 24 29  1  0  0  0
 25 26  1  0  0  0
 26 27  1  0  0  0
 27 28  1  0  0  0
 28 29  1  0  0  0
 30 31  1  0  0  0
 31 32  2  0  0  0
 31 34  1  0  0  0
 34 35  1  0  0  0
 34 36  1  0  0  0
 36 37  1  0  0  0
  3  4  1  0  0  0
  3  7  1  0  0  0
  4  5  1  0  0  0
  5  6  1  0  0  0
  6  7  1  0  0  0
  7  8  1  0  0  0
  8  9  2  0  0  0
  8 16  1  0  0  0
  9 10  1  0  0  0
 10 11  2  0  0  0
 10 15  1  0  0  0
 11 12  1  0  0  0
 11 17  1  0  0  0
 12 13  2  0  0  0
 13 14  1  0  0  0
 14 15  2  0  0  0
 15 16  1  0  0  0
 17 18  2  0  0  0
 17 22  1  0  0  0
 18 19  1  0  0  0
 19 20  2  0  0  0
 20 21  1  0  0  0
 21 22  2  0  0  0
 30 33  1  0  0  0
 36 38  1  0  0  0
M  END
> <minimizedAffinity>
-6.08131

$$$$
