3E93_19B_A_361
  RCSB PDB12061708253D
Coordinates from PDB:3E93:A:361 Model:1 without hydrogens
 37 42  0  0  0  0            999 V2000
   41.0000   29.8000   36.2000   O 0  0  0  0  0  0  0  0  0  0  0  0
   40.1650   29.4840   35.3570   C 0  0  0  0  0  0  0  0  0  0  0  0
   39.3020   28.4420   35.5360   N 0  0  0  0  0  0  0  0  0  0  0  0
   39.2780   27.5910   36.6470   C 0  0  0  0  0  0  0  0  0  0  0  0
   39.5450   27.9960   37.9890   C 0  0  0  0  0  0  0  0  0  0  0  0
   39.5250   27.0920   39.0830   C 0  0  0  0  0  0  0  0  0  0  0  0
   39.2210   25.7450   38.7730   C 0  0  0  0  0  0  0  0  0  0  0  0
   38.9480   25.3350   37.4620   C 0  0  0  0  0  0  0  0  0  0  0  0
   38.9790   26.2530   36.4030   C 0  0  0  0  0  0  0  0  0  0  0  0
   39.8530   27.4950   40.3960   N 0  0  0  0  0  0  0  0  0  0  0  0
   40.4560   28.8390   40.5990   C 0  0  0  0  0  0  0  0  0  0  0  0
   40.3240   29.3880   42.0340   C 0  0  0  0  0  0  0  0  0  0  0  0
   40.7020   28.3600   42.9180   O 0  0  0  0  0  0  0  0  0  0  0  0
   39.7690   27.2960   42.9390   C 0  0  0  0  0  0  0  0  0  0  0  0
   39.7280   26.5750   41.5720   C 0  0  0  0  0  0  0  0  0  0  0  0
   40.0370   30.3310   34.1470   C 0  0  0  0  0  0  0  0  0  0  0  0
   38.8300   30.5450   33.4680   C 0  0  0  0  0  0  0  0  0  0  0  0
   38.8000   31.3890   32.3550   C 0  0  0  0  0  0  0  0  0  0  0  0
   39.9600   32.0220   31.9080   C 0  0  0  0  0  0  0  0  0  0  0  0
   39.8990   32.9340   30.6860   C 0  0  0  0  0  0  0  0  0  0  0  0
   41.1550   31.8060   32.5980   C 0  0  0  0  0  0  0  0  0  0  0  0
   41.2020   30.9790   33.7030   C 0  0  0  0  0  0  0  0  0  0  0  0
   42.3860   32.4650   32.1310   C 0  0  0  0  0  0  0  0  0  0  0  0
   43.2440   31.7670   31.2830   C 0  0  0  0  0  0  0  0  0  0  0  0
   44.4020   32.3910   30.8140   C 0  0  0  0  0  0  0  0  0  0  0  0
   44.6680   33.7200   31.2190   C 0  0  0  0  0  0  0  0  0  0  0  0
   43.8040   34.3760   32.0510   C 0  0  0  0  0  0  0  0  0  0  0  0
   44.3090   35.6250   32.2690   O 0  0  0  0  0  0  0  0  0  0  0  0
   42.6640   33.7780   32.5110   C 0  0  0  0  0  0  0  0  0  0  0  0
   45.7300   34.5770   30.9160   C 0  0  0  0  0  0  0  0  0  0  0  0
   45.4450   35.7350   31.5930   N 0  0  0  0  0  0  0  0  0  0  0  0
   46.9380   34.2910   30.0510   C 0  0  0  0  0  0  0  0  0  0  0  0
   47.9210   33.3110   30.7360   C 0  0  0  0  0  0  0  0  0  0  0  0
   48.9430   32.8140   29.7150   C 0  0  0  0  0  0  0  0  0  0  0  0
   49.7120   33.9080   29.1010   N 0  0  0  0  0  0  0  0  0  0  0  0
   48.9620   35.1390   28.7590   C 0  0  0  0  0  0  0  0  0  0  0  0
   47.7790   35.5290   29.6890   C 0  0  0  0  0  0  0  0  0  0  0  0
  1  2  2  0  0  0  0
  2  3  1  0  0  0  0
  2 16  1  0  0  0  0
  3  4  1  0  0  0  0
  4  5  2  0  0  0  0
  4  9  1  0  0  0  0
  5  6  1  0  0  0  0
  6  7  2  0  0  0  0
  6 10  1  0  0  0  0
  7  8  1  0  0  0  0
  8  9  2  0  0  0  0
 10 11  1  0  0  0  0
 10 15  1  0  0  0  0
 11 12  1  0  0  0  0
 12 13  1  0  0  0  0
 13 14  1  0  0  0  0
 14 15  1  0  0  0  0
 16 17  2  0  0  0  0
 16 22  1  0  0  0  0
 17 18  1  0  0  0  0
 18 19  2  0  0  0  0
 19 20  1  0  0  0  0
 19 21  1  0  0  0  0
 21 22  2  0  0  0  0
 21 23  1  0  0  0  0
 23 24  2  0  0  0  0
 23 29  1  0  0  0  0
 24 25  1  0  0  0  0
 25 26  2  0  0  0  0
 26 27  1  0  0  0  0
 26 30  1  0  0  0  0
 27 28  1  0  0  0  0
 27 29  2  0  0  0  0
 28 31  1  0  0  0  0
 30 31  2  0  0  0  0
 30 32  1  0  0  0  0
 32 33  1  0  0  0  0
 32 37  1  0  0  0  0
 33 34  1  0  0  0  0
 34 35  1  0  0  0  0
 35 36  1  0  0  0  0
 36 37  1  0  0  0  0
A    1
O25
A    2
C22
A    3
N24
A    4
C26
A    5
C27
A    6
C29
A    7
C32
A    8
C30
A    9
C28
A   10
N31
A   11
C33
A   12
C35
A   13
O37
A   14
C36
A   15
C34
A   16
C19
A   17
C23
A   18
C20
A   19
C18
A   20
C21
A   21
C15
A   22
C17
A   23
C12
A   24
C9
A   25
C4
A   26
C1
A   27
C3
A   28
O8
A   29
C7
A   30
C2
A   31
N6
A   32
C5
A   33
C10
A   34
C13
A   35
N16
A   36
C14
A   37
C11
M  END
>  <InstanceId>
3E93_19B_A_361

>  <ChemCompId>
19B

>  <PdbId>
3E93

>  <ChainId>
A

>  <ResidueNumber>
361

>  <InsertionCode>


>  <Model>
1

>  <AltIds>


>  <MissingHeavyAtoms>
0

>  <ObservedFormula>
C30 N4 O3

>  <Name>
4-methyl-N-(3-morpholin-4-ylphenyl)-3-(3-piperidin-4-yl-1,2-benzisoxazol-6-yl)benzamide

>  <SystematicName>
4-methyl-N-(3-morpholin-4-ylphenyl)-3-(3-piperidin-4-yl-1,2-benzoxazol-6-yl)benzamide

>  <Synonyms>


>  <Type>
NON-POLYMER

>  <Formula>
C30 H32 N4 O3

>  <MolecularWeight>
496.6

>  <ModifiedDate>
2011-06-04

>  <Parent>


>  <OneLetterCode>


>  <SubcomponentList>


>  <AmbiguousFlag>
N

>  <InChI>
InChI=1S/C30H32N4O3/c1-20-5-6-23(30(35)32-24-3-2-4-25(19-24)34-13-15-36-16-14-34)17-27(20)22-7-8-26-28(18-22)37-33-29(26)21-9-11-31-12-10-21/h2-8,17-19,21,31H,9-16H2,1H3,(H,32,35)

>  <InChIKey>
UVUGBBNUQBSROH-UHFFFAOYSA-N

>  <SMILES>
Cc1ccc(cc1c2ccc3c(c2)onc3C4CCNCC4)C(=O)Nc5cccc(c5)N6CCOCC6

$$$$
