5O5A_9LN_A_802


 31 34  0  0  0  0  0  0  0  0999 V2000
   10.6903  -13.6587    8.2836 C   0  0  0  0  0  0  0  0  0  0  0  0
   11.1052  -11.2629    7.6201 C   0  0  0  0  0  0  0  0  0  0  0  0
   11.4110  -12.3599    8.3943 N   0  0  0  0  0  0  0  0  0  0  0  0
   11.7169  -10.2087    7.7787 O   0  0  0  0  0  0  0  0  0  0  0  0
    8.8933  -10.5473    6.8531 C   0  0  0  0  0  0  0  0  0  0  0  0
    7.8451  -10.5643    5.9160 C   0  0  0  0  0  0  0  0  0  0  0  0
   10.1567  -12.0259    5.4793 C   0  0  0  0  0  0  0  0  0  0  0  0
   10.0602  -11.3017    6.6607 C   0  0  0  0  0  0  0  0  0  0  0  0
    8.2734  -12.8614    2.4650 C   0  0  0  0  0  0  0  0  0  0  0  0
    7.1180  -12.1192    2.6870 C   0  0  0  0  0  0  0  0  0  0  0  0
    9.1190  -12.0625    4.5522 C   0  0  0  0  0  0  0  0  0  0  0  0
    7.9539  -11.3274    4.7472 C   0  0  0  0  0  0  0  0  0  0  0  0
    9.2802  -12.8239    3.4059 N   0  0  0  0  0  0  0  0  0  0  0  0
    6.9749  -11.3639    3.8065 N   0  0  0  0  0  0  0  0  0  0  0  0
    8.4194  -13.5642    1.4564 O   0  0  0  0  0  0  0  0  0  0  0  0
    6.2045  -12.1453    1.8608 O   0  0  0  0  0  0  0  0  0  0  0  0
   10.1094  -13.3354    3.2642 H   0  0  0  0  0  0  0  0  0  0  0  0
    5.7660   -9.1756    3.4605 C   0  0  0  0  0  0  0  0  0  0  0  0
    5.7040  -10.6042    3.9959 C   0  0  0  0  0  0  0  0  0  0  0  0
   12.4986  -12.2650    9.3828 C   0  0  0  0  0  0  0  0  0  0  0  0
   12.5625  -10.6520   11.3454 C   0  0  0  0  0  0  0  0  0  0  0  0
   10.8258  -11.9210   11.2523 C   0  0  0  0  0  0  0  0  0  0  0  0
   11.9650  -11.6113   10.6572 C   0  0  0  0  0  0  0  0  0  0  0  0
   11.7545  -10.3880   12.3736 N   0  0  0  0  0  0  0  0  0  0  0  0
   10.7497  -11.1244   12.3184 N   0  0  0  0  0  0  0  0  0  0  0  0
    7.6196  -11.1556   14.9672 C   0  0  0  0  0  0  0  0  0  0  0  0
    8.3972  -12.2956   14.8004 C   0  0  0  0  0  0  0  0  0  0  0  0
    7.9001  -10.0044   14.2393 C   0  0  0  0  0  0  0  0  0  0  0  0
    9.4570  -12.2836   13.9039 C   0  0  0  0  0  0  0  0  0  0  0  0
    8.9602   -9.9917   13.3423 C   0  0  0  0  0  0  0  0  0  0  0  0
    9.7362  -11.1324   13.1771 C   0  0  0  0  0  0  0  0  0  0  0  0
 16 10  2  0  0  0
 15  9  2  0  0  0
 10  9  1  0  0  0
 10 14  1  0  0  0
  9 13  1  0  0  0
 18 19  1  0  0  0
 19 14  1  0  0  0
 14 12  1  0  0  0
 13 11  1  0  0  0
 12 11  2  0  0  0
 12  6  1  0  0  0
 11  7  1  0  0  0
  6  5  2  0  0  0
  7  8  2  0  0  0
  5  8  1  0  0  0
  8  2  1  0  0  0
  2  4  2  0  0  0
  2  3  1  0  0  0
  1  3  1  0  0  0
  3 20  1  0  0  0
 20 23  1  0  0  0
 23 22  2  0  0  0
 23 21  1  0  0  0
 22 25  1  0  0  0
 21 24  2  0  0  0
 25 24  1  0  0  0
 25 31  1  0  0  0
 29 31  2  0  0  0
 29 27  1  0  0  0
 31 30  1  0  0  0
 27 26  2  0  0  0
 30 28  2  0  0  0
 26 28  1  0  0  0
 13 17  1  0  0  0
M  END
> <minimizedAffinity>
-7.83269

$$$$
5O5A_9LN_A_802


 31 34  0  0  0  0  0  0  0  0999 V2000
   11.0327  -13.5264    8.2850 C   0  0  0  0  0  0  0  0  0  0  0  0
   10.8465  -11.0237    8.0527 C   0  0  0  0  0  0  0  0  0  0  0  0
   11.3793  -12.1310    8.6742 N   0  0  0  0  0  0  0  0  0  0  0  0
   11.1492   -9.8968    8.4388 O   0  0  0  0  0  0  0  0  0  0  0  0
    8.6848  -10.4693    7.0465 C   0  0  0  0  0  0  0  0  0  0  0  0
    7.7427  -10.5715    6.0077 C   0  0  0  0  0  0  0  0  0  0  0  0
   10.1762  -11.8836    5.8444 C   0  0  0  0  0  0  0  0  0  0  0  0
    9.9113  -11.1478    6.9924 C   0  0  0  0  0  0  0  0  0  0  0  0
    8.6734  -12.8925    2.6735 C   0  0  0  0  0  0  0  0  0  0  0  0
    7.4559  -12.2250    2.7586 C   0  0  0  0  0  0  0  0  0  0  0  0
    9.2448  -12.0045    4.8170 C   0  0  0  0  0  0  0  0  0  0  0  0
    8.0209  -11.3452    4.8744 C   0  0  0  0  0  0  0  0  0  0  0  0
    9.5727  -12.7726    3.7115 N   0  0  0  0  0  0  0  0  0  0  0  0
    7.1492  -11.4622    3.8394 N   0  0  0  0  0  0  0  0  0  0  0  0
    8.9682  -13.6009    1.7020 O   0  0  0  0  0  0  0  0  0  0  0  0
    6.6366  -12.3254    1.8440 O   0  0  0  0  0  0  0  0  0  0  0  0
   10.4432  -13.2303    3.6675 H   0  0  0  0  0  0  0  0  0  0  0  0
    5.8577   -9.3429    3.3806 C   0  0  0  0  0  0  0  0  0  0  0  0
    5.8194  -10.7854    3.8798 C   0  0  0  0  0  0  0  0  0  0  0  0
   12.3389  -11.9482    9.7762 C   0  0  0  0  0  0  0  0  0  0  0  0
   11.6456  -10.9312   11.9994 C   0  0  0  0  0  0  0  0  0  0  0  0
   10.7505  -12.8341   11.5379 C   0  0  0  0  0  0  0  0  0  0  0  0
   11.5800  -11.9014   11.1021 C   0  0  0  0  0  0  0  0  0  0  0  0
   10.8330  -11.3005   12.9909 N   0  0  0  0  0  0  0  0  0  0  0  0
   10.3162  -12.4030   12.7222 N   0  0  0  0  0  0  0  0  0  0  0  0
    7.6521  -14.4647   15.0604 C   0  0  0  0  0  0  0  0  0  0  0  0
    8.2434  -15.0894   13.9686 C   0  0  0  0  0  0  0  0  0  0  0  0
    7.9616  -13.1431   15.3627 C   0  0  0  0  0  0  0  0  0  0  0  0
    9.1456  -14.3906   13.1781 C   0  0  0  0  0  0  0  0  0  0  0  0
    8.8641  -12.4434   14.5725 C   0  0  0  0  0  0  0  0  0  0  0  0
    9.4540  -13.0699   13.4815 C   0  0  0  0  0  0  0  0  0  0  0  0
 16 10  2  0  0  0
 15  9  2  0  0  0
 10  9  1  0  0  0
 10 14  1  0  0  0
  9 13  1  0  0  0
 18 19  1  0  0  0
 19 14  1  0  0  0
 14 12  1  0  0  0
 13 11  1  0  0  0
 12 11  2  0  0  0
 12  6  1  0  0  0
 11  7  1  0  0  0
  6  5  2  0  0  0
  7  8  2  0  0  0
  5  8  1  0  0  0
  8  2  1  0  0  0
  2  4  2  0  0  0
  2  3  1  0  0  0
  1  3  1  0  0  0
  3 20  1  0  0  0
 20 23  1  0  0  0
 23 22  2  0  0  0
 23 21  1  0  0  0
 22 25  1  0  0  0
 21 24  2  0  0  0
 25 24  1  0  0  0
 25 31  1  0  0  0
 29 31  2  0  0  0
 29 27  1  0  0  0
 31 30  1  0  0  0
 27 26  2  0  0  0
 30 28  2  0  0  0
 26 28  1  0  0  0
 13 17  1  0  0  0
M  END
> <minimizedAffinity>
-7.79845

$$$$
5O5A_9LN_A_802


 31 34  0  0  0  0  0  0  0  0999 V2000
   12.6857  -13.1678    9.7217 C   0  0  0  0  0  0  0  0  0  0  0  0
   10.8248  -11.6560   10.4987 C   0  0  0  0  0  0  0  0  0  0  0  0
   11.7612  -12.0121    9.5539 N   0  0  0  0  0  0  0  0  0  0  0  0
   10.1098  -10.6733   10.3157 O   0  0  0  0  0  0  0  0  0  0  0  0
   11.0398  -11.7777   12.9343 C   0  0  0  0  0  0  0  0  0  0  0  0
   10.9108  -12.4666   14.1533 C   0  0  0  0  0  0  0  0  0  0  0  0
   10.1602  -13.6586   11.7687 C   0  0  0  0  0  0  0  0  0  0  0  0
   10.6891  -12.3753   11.7145 C   0  0  0  0  0  0  0  0  0  0  0  0
    9.3821  -16.3436   14.1174 C   0  0  0  0  0  0  0  0  0  0  0  0
    9.7541  -15.7364   15.3123 C   0  0  0  0  0  0  0  0  0  0  0  0
   10.0426  -14.3556   12.9679 C   0  0  0  0  0  0  0  0  0  0  0  0
   10.4039  -13.7715   14.1779 C   0  0  0  0  0  0  0  0  0  0  0  0
    9.5246  -15.6403   12.9402 N   0  0  0  0  0  0  0  0  0  0  0  0
   10.2470  -14.4711   15.3314 N   0  0  0  0  0  0  0  0  0  0  0  0
    8.9403  -17.4994   14.0771 O   0  0  0  0  0  0  0  0  0  0  0  0
    9.6404  -16.3513   16.3738 O   0  0  0  0  0  0  0  0  0  0  0  0
    9.2596  -16.0488   12.0845 H   0  0  0  0  0  0  0  0  0  0  0  0
    9.5237  -13.0983   17.3218 C   0  0  0  0  0  0  0  0  0  0  0  0
   10.6454  -13.8812   16.6435 C   0  0  0  0  0  0  0  0  0  0  0  0
   11.8684  -11.2269    8.3125 C   0  0  0  0  0  0  0  0  0  0  0  0
   10.4272  -12.9403    7.1106 C   0  0  0  0  0  0  0  0  0  0  0  0
   10.0727  -10.8895    6.5595 C   0  0  0  0  0  0  0  0  0  0  0  0
   10.7910  -11.6874    7.3310 C   0  0  0  0  0  0  0  0  0  0  0  0
    9.4683  -12.8806    6.1849 N   0  0  0  0  0  0  0  0  0  0  0  0
    9.2650  -11.6922    5.8665 N   0  0  0  0  0  0  0  0  0  0  0  0
    6.5237  -10.3596    3.1234 C   0  0  0  0  0  0  0  0  0  0  0  0
    6.4749   -9.8961    4.4330 C   0  0  0  0  0  0  0  0  0  0  0  0
    7.4996  -11.2732    2.7405 C   0  0  0  0  0  0  0  0  0  0  0  0
    7.4038  -10.3474    5.3605 C   0  0  0  0  0  0  0  0  0  0  0  0
    8.4293  -11.7251    3.6678 C   0  0  0  0  0  0  0  0  0  0  0  0
    8.3786  -11.2604    4.9763 C   0  0  0  0  0  0  0  0  0  0  0  0
 16 10  2  0  0  0
 15  9  2  0  0  0
 10  9  1  0  0  0
 10 14  1  0  0  0
  9 13  1  0  0  0
 18 19  1  0  0  0
 19 14  1  0  0  0
 14 12  1  0  0  0
 13 11  1  0  0  0
 12 11  2  0  0  0
 12  6  1  0  0  0
 11  7  1  0  0  0
  6  5  2  0  0  0
  7  8  2  0  0  0
  5  8  1  0  0  0
  8  2  1  0  0  0
  2  4  2  0  0  0
  2  3  1  0  0  0
  1  3  1  0  0  0
  3 20  1  0  0  0
 20 23  1  0  0  0
 23 22  2  0  0  0
 23 21  1  0  0  0
 22 25  1  0  0  0
 21 24  2  0  0  0
 25 24  1  0  0  0
 25 31  1  0  0  0
 29 31  2  0  0  0
 29 27  1  0  0  0
 31 30  1  0  0  0
 27 26  2  0  0  0
 30 28  2  0  0  0
 26 28  1  0  0  0
 13 17  1  0  0  0
M  END
> <minimizedAffinity>
-7.37169

$$$$
5O5A_9LN_A_802


 31 34  0  0  0  0  0  0  0  0999 V2000
   11.0616  -13.3010    8.7383 C   0  0  0  0  0  0  0  0  0  0  0  0
   10.5170  -10.8612    8.4172 C   0  0  0  0  0  0  0  0  0  0  0  0
   11.0416  -11.8792    9.1819 N   0  0  0  0  0  0  0  0  0  0  0  0
   10.5027   -9.7113    8.8508 O   0  0  0  0  0  0  0  0  0  0  0  0
   10.6993  -11.7343    6.1374 C   0  0  0  0  0  0  0  0  0  0  0  0
   10.1552  -11.9978    4.8679 C   0  0  0  0  0  0  0  0  0  0  0  0
    8.6210  -10.8135    6.8463 C   0  0  0  0  0  0  0  0  0  0  0  0
    9.9449  -11.1115    7.1428 C   0  0  0  0  0  0  0  0  0  0  0  0
    6.1874  -10.9589    4.1283 C   0  0  0  0  0  0  0  0  0  0  0  0
    6.9613  -11.5607    3.1414 C   0  0  0  0  0  0  0  0  0  0  0  0
    8.0766  -11.0556    5.5882 C   0  0  0  0  0  0  0  0  0  0  0  0
    8.8267  -11.6591    4.5838 C   0  0  0  0  0  0  0  0  0  0  0  0
    6.7536  -10.7124    5.3608 N   0  0  0  0  0  0  0  0  0  0  0  0
    8.2528  -11.9072    3.3781 N   0  0  0  0  0  0  0  0  0  0  0  0
    5.0117  -10.6260    3.9298 O   0  0  0  0  0  0  0  0  0  0  0  0
    6.4750  -11.7829    2.0315 O   0  0  0  0  0  0  0  0  0  0  0  0
    6.2208  -10.2947    6.0756 H   0  0  0  0  0  0  0  0  0  0  0  0
    8.8836  -14.0511    2.2051 C   0  0  0  0  0  0  0  0  0  0  0  0
    9.0367  -12.5334    2.2727 C   0  0  0  0  0  0  0  0  0  0  0  0
   11.6153  -11.5681   10.5021 C   0  0  0  0  0  0  0  0  0  0  0  0
   10.0669  -11.4566   12.5140 C   0  0  0  0  0  0  0  0  0  0  0  0
   10.4627  -13.4358   11.7649 C   0  0  0  0  0  0  0  0  0  0  0  0
   10.7151  -12.1497   11.5918 C   0  0  0  0  0  0  0  0  0  0  0  0
    9.4142  -12.3573   13.2505 N   0  0  0  0  0  0  0  0  0  0  0  0
    9.6452  -13.5029   12.8157 N   0  0  0  0  0  0  0  0  0  0  0  0
    8.1425  -17.0060   14.3274 C   0  0  0  0  0  0  0  0  0  0  0  0
    7.4600  -15.8130   14.5345 C   0  0  0  0  0  0  0  0  0  0  0  0
    9.3328  -17.0155   13.6086 C   0  0  0  0  0  0  0  0  0  0  0  0
    7.9693  -14.6278   14.0217 C   0  0  0  0  0  0  0  0  0  0  0  0
    9.8430  -15.8302   13.0952 C   0  0  0  0  0  0  0  0  0  0  0  0
    9.1590  -14.6388   13.3035 C   0  0  0  0  0  0  0  0  0  0  0  0
 16 10  2  0  0  0
 15  9  2  0  0  0
 10  9  1  0  0  0
 10 14  1  0  0  0
  9 13  1  0  0  0
 18 19  1  0  0  0
 19 14  1  0  0  0
 14 12  1  0  0  0
 13 11  1  0  0  0
 12 11  2  0  0  0
 12  6  1  0  0  0
 11  7  1  0  0  0
  6  5  2  0  0  0
  7  8  2  0  0  0
  5  8  1  0  0  0
  8  2  1  0  0  0
  2  4  2  0  0  0
  2  3  1  0  0  0
  1  3  1  0  0  0
  3 20  1  0  0  0
 20 23  1  0  0  0
 23 22  2  0  0  0
 23 21  1  0  0  0
 22 25  1  0  0  0
 21 24  2  0  0  0
 25 24  1  0  0  0
 25 31  1  0  0  0
 29 31  2  0  0  0
 29 27  1  0  0  0
 31 30  1  0  0  0
 27 26  2  0  0  0
 30 28  2  0  0  0
 26 28  1  0  0  0
 13 17  1  0  0  0
M  END
> <minimizedAffinity>
-7.09775

$$$$
5O5A_9LN_A_802


 31 34  0  0  0  0  0  0  0  0999 V2000
   12.7170  -13.2536    9.7246 C   0  0  0  0  0  0  0  0  0  0  0  0
   10.9678  -11.5713   10.4044 C   0  0  0  0  0  0  0  0  0  0  0  0
   11.8620  -12.0592    9.4778 N   0  0  0  0  0  0  0  0  0  0  0  0
   10.3109  -10.5633   10.1534 O   0  0  0  0  0  0  0  0  0  0  0  0
   10.1542  -13.4154   11.7938 C   0  0  0  0  0  0  0  0  0  0  0  0
    9.9902  -14.0439   13.0408 C   0  0  0  0  0  0  0  0  0  0  0  0
   11.3393  -11.6337   12.8382 C   0  0  0  0  0  0  0  0  0  0  0  0
   10.8118  -12.1820   11.6760 C   0  0  0  0  0  0  0  0  0  0  0  0
   11.5667  -12.2118   16.4361 C   0  0  0  0  0  0  0  0  0  0  0  0
   10.8945  -13.4260   16.5299 C   0  0  0  0  0  0  0  0  0  0  0  0
   11.1694  -12.2392   14.0800 C   0  0  0  0  0  0  0  0  0  0  0  0
   10.5043  -13.4551   14.2025 C   0  0  0  0  0  0  0  0  0  0  0  0
   11.7069  -11.6219   15.1979 N   0  0  0  0  0  0  0  0  0  0  0  0
   10.3839  -14.0311   15.4266 N   0  0  0  0  0  0  0  0  0  0  0  0
   12.0306  -11.6387   17.4306 O   0  0  0  0  0  0  0  0  0  0  0  0
   10.7533  -13.9652   17.6286 O   0  0  0  0  0  0  0  0  0  0  0  0
   12.1863  -10.7667   15.1086 H   0  0  0  0  0  0  0  0  0  0  0  0
   10.5572  -16.5489   15.4484 C   0  0  0  0  0  0  0  0  0  0  0  0
    9.6572  -15.3241   15.5949 C   0  0  0  0  0  0  0  0  0  0  0  0
   11.9931  -11.3833    8.1760 C   0  0  0  0  0  0  0  0  0  0  0  0
   10.3540  -13.0394    7.1619 C   0  0  0  0  0  0  0  0  0  0  0  0
   10.1751  -11.0146    6.4524 C   0  0  0  0  0  0  0  0  0  0  0  0
   10.8422  -11.8140    7.2670 C   0  0  0  0  0  0  0  0  0  0  0  0
    9.3723  -12.9611    6.2619 N   0  0  0  0  0  0  0  0  0  0  0  0
    9.2707  -11.7880    5.8517 N   0  0  0  0  0  0  0  0  0  0  0  0
    6.5802  -10.4195    3.0761 C   0  0  0  0  0  0  0  0  0  0  0  0
    7.5845  -11.3004    2.6918 C   0  0  0  0  0  0  0  0  0  0  0  0
    6.4846  -10.0015    4.3990 C   0  0  0  0  0  0  0  0  0  0  0  0
    8.4943  -11.7634    3.6324 C   0  0  0  0  0  0  0  0  0  0  0  0
    7.3944  -10.4644    5.3405 C   0  0  0  0  0  0  0  0  0  0  0  0
    8.3974  -11.3449    4.9541 C   0  0  0  0  0  0  0  0  0  0  0  0
 16 10  2  0  0  0
 15  9  2  0  0  0
 10  9  1  0  0  0
 10 14  1  0  0  0
  9 13  1  0  0  0
 18 19  1  0  0  0
 19 14  1  0  0  0
 14 12  1  0  0  0
 13 11  1  0  0  0
 12 11  2  0  0  0
 12  6  1  0  0  0
 11  7  1  0  0  0
  6  5  2  0  0  0
  7  8  2  0  0  0
  5  8  1  0  0  0
  8  2  1  0  0  0
  2  4  2  0  0  0
  2  3  1  0  0  0
  1  3  1  0  0  0
  3 20  1  0  0  0
 20 23  1  0  0  0
 23 22  2  0  0  0
 23 21  1  0  0  0
 22 25  1  0  0  0
 21 24  2  0  0  0
 25 24  1  0  0  0
 25 31  1  0  0  0
 29 31  2  0  0  0
 29 27  1  0  0  0
 31 30  1  0  0  0
 27 26  2  0  0  0
 30 28  2  0  0  0
 26 28  1  0  0  0
 13 17  1  0  0  0
M  END
> <minimizedAffinity>
-7.09477

$$$$
5O5A_9LN_A_802


 31 34  0  0  0  0  0  0  0  0999 V2000
   10.3705  -10.1710   10.0531 C   0  0  0  0  0  0  0  0  0  0  0  0
   11.6605  -12.2646   10.6054 C   0  0  0  0  0  0  0  0  0  0  0  0
   11.3153  -11.2719    9.7156 N   0  0  0  0  0  0  0  0  0  0  0  0
   12.4232  -13.1636   10.2580 O   0  0  0  0  0  0  0  0  0  0  0  0
   10.0605  -13.1729   12.2203 C   0  0  0  0  0  0  0  0  0  0  0  0
    9.5093  -13.2353   13.5123 C   0  0  0  0  0  0  0  0  0  0  0  0
   11.6338  -11.5464   12.9609 C   0  0  0  0  0  0  0  0  0  0  0  0
   11.1194  -12.3045   11.9168 C   0  0  0  0  0  0  0  0  0  0  0  0
   11.1260  -10.8259   16.5040 C   0  0  0  0  0  0  0  0  0  0  0  0
   10.0637  -11.6817   16.7761 C   0  0  0  0  0  0  0  0  0  0  0  0
   11.0860  -11.5885   14.2399 C   0  0  0  0  0  0  0  0  0  0  0  0
   10.0256  -12.4376   14.5406 C   0  0  0  0  0  0  0  0  0  0  0  0
   11.6403  -10.7879   15.2255 N   0  0  0  0  0  0  0  0  0  0  0  0
    9.5365  -12.4739   15.8072 N   0  0  0  0  0  0  0  0  0  0  0  0
   11.6142  -10.0883   17.3702 O   0  0  0  0  0  0  0  0  0  0  0  0
    9.5862  -11.7247   17.9110 O   0  0  0  0  0  0  0  0  0  0  0  0
   12.3973  -10.1951   15.0140 H   0  0  0  0  0  0  0  0  0  0  0  0
    7.0258  -12.7019   15.9272 C   0  0  0  0  0  0  0  0  0  0  0  0
    8.3855  -13.3576   16.1571 C   0  0  0  0  0  0  0  0  0  0  0  0
   11.8975  -11.2810    8.3628 C   0  0  0  0  0  0  0  0  0  0  0  0
   10.4714  -13.0653    7.2491 C   0  0  0  0  0  0  0  0  0  0  0  0
   10.2051  -11.0677    6.4915 C   0  0  0  0  0  0  0  0  0  0  0  0
   10.8593  -11.8061    7.3716 C   0  0  0  0  0  0  0  0  0  0  0  0
    9.5637  -13.0702    6.2714 N   0  0  0  0  0  0  0  0  0  0  0  0
    9.4114  -11.9127    5.8334 N   0  0  0  0  0  0  0  0  0  0  0  0
    6.8549  -10.7802    2.8340 C   0  0  0  0  0  0  0  0  0  0  0  0
    6.6877  -10.2700    4.1161 C   0  0  0  0  0  0  0  0  0  0  0  0
    7.8866  -11.6729    2.5651 C   0  0  0  0  0  0  0  0  0  0  0  0
    7.5542  -10.6536    5.1305 C   0  0  0  0  0  0  0  0  0  0  0  0
    8.7539  -12.0570    3.5794 C   0  0  0  0  0  0  0  0  0  0  0  0
    8.5850  -11.5457    4.8603 C   0  0  0  0  0  0  0  0  0  0  0  0
 16 10  2  0  0  0
 15  9  2  0  0  0
 10  9  1  0  0  0
 10 14  1  0  0  0
  9 13  1  0  0  0
 18 19  1  0  0  0
 19 14  1  0  0  0
 14 12  1  0  0  0
 13 11  1  0  0  0
 12 11  2  0  0  0
 12  6  1  0  0  0
 11  7  1  0  0  0
  6  5  2  0  0  0
  7  8  2  0  0  0
  5  8  1  0  0  0
  8  2  1  0  0  0
  2  4  2  0  0  0
  2  3  1  0  0  0
  1  3  1  0  0  0
  3 20  1  0  0  0
 20 23  1  0  0  0
 23 22  2  0  0  0
 23 21  1  0  0  0
 22 25  1  0  0  0
 21 24  2  0  0  0
 25 24  1  0  0  0
 25 31  1  0  0  0
 29 31  2  0  0  0
 29 27  1  0  0  0
 31 30  1  0  0  0
 27 26  2  0  0  0
 30 28  2  0  0  0
 26 28  1  0  0  0
 13 17  1  0  0  0
M  END
> <minimizedAffinity>
-7.04019

$$$$
5O5A_9LN_A_802


 31 34  0  0  0  0  0  0  0  0999 V2000
   10.0074   -9.9225    9.8362 C   0  0  0  0  0  0  0  0  0  0  0  0
   11.5433  -11.9191    9.7558 C   0  0  0  0  0  0  0  0  0  0  0  0
   11.0062  -10.7984    9.1627 N   0  0  0  0  0  0  0  0  0  0  0  0
   12.3421  -12.6190    9.1372 O   0  0  0  0  0  0  0  0  0  0  0  0
   11.6724  -11.6494   12.1855 C   0  0  0  0  0  0  0  0  0  0  0  0
   11.3084  -12.0228   13.4913 C   0  0  0  0  0  0  0  0  0  0  0  0
   10.2437  -13.3341   11.2965 C   0  0  0  0  0  0  0  0  0  0  0  0
   11.1631  -12.3193   11.0632 C   0  0  0  0  0  0  0  0  0  0  0  0
    8.5988  -15.1475   14.0051 C   0  0  0  0  0  0  0  0  0  0  0  0
    9.1317  -14.4799   15.1030 C   0  0  0  0  0  0  0  0  0  0  0  0
    9.8881  -13.7225   12.5851 C   0  0  0  0  0  0  0  0  0  0  0  0
   10.4032  -13.0702   13.7009 C   0  0  0  0  0  0  0  0  0  0  0  0
    8.9796  -14.7572   12.7390 N   0  0  0  0  0  0  0  0  0  0  0  0
   10.0102  -13.4570   14.9421 N   0  0  0  0  0  0  0  0  0  0  0  0
    7.8047  -16.0890   14.1302 O   0  0  0  0  0  0  0  0  0  0  0  0
    8.8086  -14.8188   16.2426 O   0  0  0  0  0  0  0  0  0  0  0  0
    8.6080  -15.2112   11.9484 H   0  0  0  0  0  0  0  0  0  0  0  0
    9.6985  -11.6363   16.6620 C   0  0  0  0  0  0  0  0  0  0  0  0
   10.5607  -12.7922   16.1600 C   0  0  0  0  0  0  0  0  0  0  0  0
   11.4270  -10.4313    7.8000 C   0  0  0  0  0  0  0  0  0  0  0  0
    9.0928   -9.9648    6.9103 C   0  0  0  0  0  0  0  0  0  0  0  0
   10.2188  -11.4370    5.8149 C   0  0  0  0  0  0  0  0  0  0  0  0
   10.2474  -10.6078    6.8442 C   0  0  0  0  0  0  0  0  0  0  0  0
    8.3636  -10.4262    5.8928 N   0  0  0  0  0  0  0  0  0  0  0  0
    9.0171  -11.2791    5.2601 N   0  0  0  0  0  0  0  0  0  0  0  0
    7.7504  -13.3300    1.9428 C   0  0  0  0  0  0  0  0  0  0  0  0
    9.0550  -13.4850    2.3968 C   0  0  0  0  0  0  0  0  0  0  0  0
    6.8732  -12.4822    2.6104 C   0  0  0  0  0  0  0  0  0  0  0  0
    9.4824  -12.7907    3.5202 C   0  0  0  0  0  0  0  0  0  0  0  0
    7.3001  -11.7873    3.7344 C   0  0  0  0  0  0  0  0  0  0  0  0
    8.6047  -11.9438    4.1865 C   0  0  0  0  0  0  0  0  0  0  0  0
 16 10  2  0  0  0
 15  9  2  0  0  0
 10  9  1  0  0  0
 10 14  1  0  0  0
  9 13  1  0  0  0
 18 19  1  0  0  0
 19 14  1  0  0  0
 14 12  1  0  0  0
 13 11  1  0  0  0
 12 11  2  0  0  0
 12  6  1  0  0  0
 11  7  1  0  0  0
  6  5  2  0  0  0
  7  8  2  0  0  0
  5  8  1  0  0  0
  8  2  1  0  0  0
  2  4  2  0  0  0
  2  3  1  0  0  0
  1  3  1  0  0  0
  3 20  1  0  0  0
 20 23  1  0  0  0
 23 22  2  0  0  0
 23 21  1  0  0  0
 22 25  1  0  0  0
 21 24  2  0  0  0
 25 24  1  0  0  0
 25 31  1  0  0  0
 29 31  2  0  0  0
 29 27  1  0  0  0
 31 30  1  0  0  0
 27 26  2  0  0  0
 30 28  2  0  0  0
 26 28  1  0  0  0
 13 17  1  0  0  0
M  END
> <minimizedAffinity>
-6.85377

$$$$
5O5A_9LN_A_802


 31 34  0  0  0  0  0  0  0  0999 V2000
   10.7939  -12.5310    9.3501 C   0  0  0  0  0  0  0  0  0  0  0  0
   10.6513  -10.1780    8.4585 C   0  0  0  0  0  0  0  0  0  0  0  0
   10.9699  -11.0568    9.4696 N   0  0  0  0  0  0  0  0  0  0  0  0
   10.7914   -8.9687    8.6280 O   0  0  0  0  0  0  0  0  0  0  0  0
   10.9358  -11.2970    6.2998 C   0  0  0  0  0  0  0  0  0  0  0  0
   10.4308  -11.7601    5.0720 C   0  0  0  0  0  0  0  0  0  0  0  0
    8.7743  -10.4955    6.8960 C   0  0  0  0  0  0  0  0  0  0  0  0
   10.1172  -10.6313    7.2242 C   0  0  0  0  0  0  0  0  0  0  0  0
    6.3912  -11.1912    4.2187 C   0  0  0  0  0  0  0  0  0  0  0  0
    7.2271  -11.8322    3.3101 C   0  0  0  0  0  0  0  0  0  0  0  0
    8.2669  -10.9361    5.6769 C   0  0  0  0  0  0  0  0  0  0  0  0
    9.0795  -11.5831    4.7512 C   0  0  0  0  0  0  0  0  0  0  0  0
    6.9202  -10.7473    5.4119 N   0  0  0  0  0  0  0  0  0  0  0  0
    8.5428  -12.0261    3.5848 N   0  0  0  0  0  0  0  0  0  0  0  0
    5.1917  -10.9954    3.9834 O   0  0  0  0  0  0  0  0  0  0  0  0
    6.7742  -12.2300    2.2357 O   0  0  0  0  0  0  0  0  0  0  0  0
    6.3440  -10.2985    6.0721 H   0  0  0  0  0  0  0  0  0  0  0  0
    9.4825  -14.2164    2.7544 C   0  0  0  0  0  0  0  0  0  0  0  0
    9.3920  -12.7044    2.5616 C   0  0  0  0  0  0  0  0  0  0  0  0
   11.5124  -10.5346   10.7352 C   0  0  0  0  0  0  0  0  0  0  0  0
    9.4984   -9.4130   11.8045 C   0  0  0  0  0  0  0  0  0  0  0  0
   10.1233  -11.2558   12.7257 C   0  0  0  0  0  0  0  0  0  0  0  0
   10.3785  -10.3996   11.7512 C   0  0  0  0  0  0  0  0  0  0  0  0
    8.7022   -9.6945   12.8373 N   0  0  0  0  0  0  0  0  0  0  0  0
    9.0661  -10.7616   13.3699 N   0  0  0  0  0  0  0  0  0  0  0  0
    7.3196  -12.5575   16.6164 C   0  0  0  0  0  0  0  0  0  0  0  0
    6.8307  -11.3426   16.1505 C   0  0  0  0  0  0  0  0  0  0  0  0
    8.3986  -13.1661   15.9847 C   0  0  0  0  0  0  0  0  0  0  0  0
    7.4223  -10.7359   15.0510 C   0  0  0  0  0  0  0  0  0  0  0  0
    8.9910  -12.5598   14.8847 C   0  0  0  0  0  0  0  0  0  0  0  0
    8.5006  -11.3454   14.4206 C   0  0  0  0  0  0  0  0  0  0  0  0
 16 10  2  0  0  0
 15  9  2  0  0  0
 10  9  1  0  0  0
 10 14  1  0  0  0
  9 13  1  0  0  0
 18 19  1  0  0  0
 19 14  1  0  0  0
 14 12  1  0  0  0
 13 11  1  0  0  0
 12 11  2  0  0  0
 12  6  1  0  0  0
 11  7  1  0  0  0
  6  5  2  0  0  0
  7  8  2  0  0  0
  5  8  1  0  0  0
  8  2  1  0  0  0
  2  4  2  0  0  0
  2  3  1  0  0  0
  1  3  1  0  0  0
  3 20  1  0  0  0
 20 23  1  0  0  0
 23 22  2  0  0  0
 23 21  1  0  0  0
 22 25  1  0  0  0
 21 24  2  0  0  0
 25 24  1  0  0  0
 25 31  1  0  0  0
 29 31  2  0  0  0
 29 27  1  0  0  0
 31 30  1  0  0  0
 27 26  2  0  0  0
 30 28  2  0  0  0
 26 28  1  0  0  0
 13 17  1  0  0  0
M  END
> <minimizedAffinity>
-6.74076

$$$$
5O5A_9LN_A_802


 31 34  0  0  0  0  0  0  0  0999 V2000
   10.8847  -12.8981    9.6202 C   0  0  0  0  0  0  0  0  0  0  0  0
   11.5035  -10.5428   10.2697 C   0  0  0  0  0  0  0  0  0  0  0  0
   11.3761  -11.5258    9.3138 N   0  0  0  0  0  0  0  0  0  0  0  0
   11.9431   -9.4376    9.9603 O   0  0  0  0  0  0  0  0  0  0  0  0
   12.1527  -11.2671   12.5163 C   0  0  0  0  0  0  0  0  0  0  0  0
   11.8578  -11.5117   13.8692 C   0  0  0  0  0  0  0  0  0  0  0  0
    9.9230  -10.5121   12.1582 C   0  0  0  0  0  0  0  0  0  0  0  0
   11.1781  -10.7856   11.6296 C   0  0  0  0  0  0  0  0  0  0  0  0
    8.0126  -10.7113   15.2633 C   0  0  0  0  0  0  0  0  0  0  0  0
    8.9911  -11.2065   16.1191 C   0  0  0  0  0  0  0  0  0  0  0  0
    9.6155  -10.7651   13.4920 C   0  0  0  0  0  0  0  0  0  0  0  0
   10.5756  -11.2572   14.3707 C   0  0  0  0  0  0  0  0  0  0  0  0
    8.3353  -10.4857   13.9421 N   0  0  0  0  0  0  0  0  0  0  0  0
   10.2476  -11.4635   15.6724 N   0  0  0  0  0  0  0  0  0  0  0  0
    6.8588  -10.4801   15.6479 O   0  0  0  0  0  0  0  0  0  0  0  0
    8.7199  -11.4209   17.3015 O   0  0  0  0  0  0  0  0  0  0  0  0
    7.6597  -10.1278   13.3218 H   0  0  0  0  0  0  0  0  0  0  0  0
   12.0444  -10.9299   17.3625 C   0  0  0  0  0  0  0  0  0  0  0  0
   11.2481  -12.0110   16.6354 C   0  0  0  0  0  0  0  0  0  0  0  0
   11.7362  -11.2257    7.9177 C   0  0  0  0  0  0  0  0  0  0  0  0
    9.6014   -9.9511    7.3930 C   0  0  0  0  0  0  0  0  0  0  0  0
   10.0538  -11.5789    6.0586 C   0  0  0  0  0  0  0  0  0  0  0  0
   10.4663  -10.9162    7.1256 C   0  0  0  0  0  0  0  0  0  0  0  0
    8.6536  -10.0462    6.4589 N   0  0  0  0  0  0  0  0  0  0  0  0
    8.9170  -10.9899    5.6876 N   0  0  0  0  0  0  0  0  0  0  0  0
    6.6783  -12.1682    2.4603 C   0  0  0  0  0  0  0  0  0  0  0  0
    6.1001  -11.3926    3.4584 C   0  0  0  0  0  0  0  0  0  0  0  0
    8.0137  -12.5453    2.5524 C   0  0  0  0  0  0  0  0  0  0  0  0
    6.8591  -10.9937    4.5501 C   0  0  0  0  0  0  0  0  0  0  0  0
    8.7737  -12.1466    3.6442 C   0  0  0  0  0  0  0  0  0  0  0  0
    8.1936  -11.3713    4.6407 C   0  0  0  0  0  0  0  0  0  0  0  0
 16 10  2  0  0  0
 15  9  2  0  0  0
 10  9  1  0  0  0
 10 14  1  0  0  0
  9 13  1  0  0  0
 18 19  1  0  0  0
 19 14  1  0  0  0
 14 12  1  0  0  0
 13 11  1  0  0  0
 12 11  2  0  0  0
 12  6  1  0  0  0
 11  7  1  0  0  0
  6  5  2  0  0  0
  7  8  2  0  0  0
  5  8  1  0  0  0
  8  2  1  0  0  0
  2  4  2  0  0  0
  2  3  1  0  0  0
  1  3  1  0  0  0
  3 20  1  0  0  0
 20 23  1  0  0  0
 23 22  2  0  0  0
 23 21  1  0  0  0
 22 25  1  0  0  0
 21 24  2  0  0  0
 25 24  1  0  0  0
 25 31  1  0  0  0
 29 31  2  0  0  0
 29 27  1  0  0  0
 31 30  1  0  0  0
 27 26  2  0  0  0
 30 28  2  0  0  0
 26 28  1  0  0  0
 13 17  1  0  0  0
M  END
> <minimizedAffinity>
-6.67106

$$$$
5O5A_9LN_A_802


 31 34  0  0  0  0  0  0  0  0999 V2000
    8.6833   -8.7811    9.8127 C   0  0  0  0  0  0  0  0  0  0  0  0
   10.5139   -8.0350    8.2493 C   0  0  0  0  0  0  0  0  0  0  0  0
    9.2208   -7.9338    8.7120 N   0  0  0  0  0  0  0  0  0  0  0  0
   10.8905   -7.3278    7.3173 O   0  0  0  0  0  0  0  0  0  0  0  0
   12.2421   -8.6234    9.8803 C   0  0  0  0  0  0  0  0  0  0  0  0
   13.1494   -9.5379   10.4437 C   0  0  0  0  0  0  0  0  0  0  0  0
   11.5136  -10.2840    8.3371 C   0  0  0  0  0  0  0  0  0  0  0  0
   11.4246   -8.9760    8.7963 C   0  0  0  0  0  0  0  0  0  0  0  0
   13.3408  -13.3976    8.8830 C   0  0  0  0  0  0  0  0  0  0  0  0
   14.1544  -13.0186    9.9457 C   0  0  0  0  0  0  0  0  0  0  0  0
   12.4191  -11.1930    8.8770 C   0  0  0  0  0  0  0  0  0  0  0  0
   13.2424  -10.8418    9.9422 C   0  0  0  0  0  0  0  0  0  0  0  0
   12.4645  -12.4747    8.3528 N   0  0  0  0  0  0  0  0  0  0  0  0
   14.0924  -11.7644   10.4628 N   0  0  0  0  0  0  0  0  0  0  0  0
   13.3889  -14.5323    8.3904 O   0  0  0  0  0  0  0  0  0  0  0  0
   14.9485  -13.8273   10.4285 O   0  0  0  0  0  0  0  0  0  0  0  0
   11.8742  -12.7251    7.6057 H   0  0  0  0  0  0  0  0  0  0  0  0
   14.3119  -11.4117   12.9522 C   0  0  0  0  0  0  0  0  0  0  0  0
   15.0041  -11.4130   11.5913 C   0  0  0  0  0  0  0  0  0  0  0  0
    8.3120   -6.9473    8.1039 C   0  0  0  0  0  0  0  0  0  0  0  0
    6.6349   -7.0288    6.1965 C   0  0  0  0  0  0  0  0  0  0  0  0
    7.8124   -8.8112    6.4644 C   0  0  0  0  0  0  0  0  0  0  0  0
    7.5871   -7.5917    6.9226 C   0  0  0  0  0  0  0  0  0  0  0  0
    6.2894   -7.9398    5.2851 N   0  0  0  0  0  0  0  0  0  0  0  0
    6.9718   -8.9715    5.4424 N   0  0  0  0  0  0  0  0  0  0  0  0
    6.7486  -12.3880    3.1857 C   0  0  0  0  0  0  0  0  0  0  0  0
    7.9572  -12.0171    3.7633 C   0  0  0  0  0  0  0  0  0  0  0  0
    5.6147  -11.6045    3.3711 C   0  0  0  0  0  0  0  0  0  0  0  0
    8.0314  -10.8607    4.5276 C   0  0  0  0  0  0  0  0  0  0  0  0
    5.6882  -10.4475    4.1356 C   0  0  0  0  0  0  0  0  0  0  0  0
    6.8974  -10.0787    4.7122 C   0  0  0  0  0  0  0  0  0  0  0  0
 16 10  2  0  0  0
 15  9  2  0  0  0
 10  9  1  0  0  0
 10 14  1  0  0  0
  9 13  1  0  0  0
 18 19  1  0  0  0
 19 14  1  0  0  0
 14 12  1  0  0  0
 13 11  1  0  0  0
 12 11  2  0  0  0
 12  6  1  0  0  0
 11  7  1  0  0  0
  6  5  2  0  0  0
  7  8  2  0  0  0
  5  8  1  0  0  0
  8  2  1  0  0  0
  2  4  2  0  0  0
  2  3  1  0  0  0
  1  3  1  0  0  0
  3 20  1  0  0  0
 20 23  1  0  0  0
 23 22  2  0  0  0
 23 21  1  0  0  0
 22 25  1  0  0  0
 21 24  2  0  0  0
 25 24  1  0  0  0
 25 31  1  0  0  0
 29 31  2  0  0  0
 29 27  1  0  0  0
 31 30  1  0  0  0
 27 26  2  0  0  0
 30 28  2  0  0  0
 26 28  1  0  0  0
 13 17  1  0  0  0
M  END
> <minimizedAffinity>
-6.54842

$$$$
