6B97_CZY_A_1003


 25 27  0  0  0  0  0  0  0  0999 V2000
   29.3271   -4.8205   13.2313 N   0  0  0  0  0  0  0  0  0  0  0  0
   28.6115   -5.3199   13.6871 H   0  0  0  0  0  0  0  0  0  0  0  0
   31.3508   -5.7452   14.1670 C   0  0  0  0  0  0  0  0  0  0  0  0
   30.4722   -5.5207   13.0643 C   0  0  0  0  0  0  0  0  0  0  0  0
   33.2027   -6.6549   14.9633 N   0  0  0  0  0  0  0  0  0  0  0  0
   31.5432   -5.4131   15.5272 C   0  0  0  0  0  0  0  0  0  0  0  0
   32.2438   -7.1985   10.0988 Cl  0  0  0  0  0  0  0  0  0  0  0  0
   31.8444   -6.7278   11.7224 C   0  0  0  0  0  0  0  0  0  0  0  0
   32.7344   -7.0717   12.6389 N   0  0  0  0  0  0  0  0  0  0  0  0
   32.4499   -6.5451   13.8456 C   0  0  0  0  0  0  0  0  0  0  0  0
   34.4398   -7.3883   15.1879 C   0  0  0  0  0  0  0  0  0  0  0  0
   32.6452   -5.9520   16.0014 N   0  0  0  0  0  0  0  0  0  0  0  0
   30.7365   -6.0146   11.8422 N   0  0  0  0  0  0  0  0  0  0  0  0
   29.2087   -3.2757   11.3579 C   0  0  0  0  0  0  0  0  0  0  0  0
   28.9583   -3.4467   12.8542 C   0  0  0  0  0  0  0  0  0  0  0  0
   29.7221   -2.4288   13.6846 C   0  0  0  0  0  0  0  0  0  0  0  0
   31.4040   -0.7038   13.8940 C   0  0  0  0  0  0  0  0  0  0  0  0
   30.1618   -1.3856   15.8197 C   0  0  0  0  0  0  0  0  0  0  0  0
   29.4697   -2.3040   15.0470 C   0  0  0  0  0  0  0  0  0  0  0  0
   31.1363   -0.5708   15.2536 C   0  0  0  0  0  0  0  0  0  0  0  0
   30.6995   -1.6120   13.1190 C   0  0  0  0  0  0  0  0  0  0  0  0
   31.8548    0.4530   16.0822 C   0  0  0  0  0  0  0  0  0  0  0  0
   31.0413    1.2147   16.7947 F   0  0  0  0  0  0  0  0  0  0  0  0
   32.6231    1.2488   15.3571 F   0  0  0  0  0  0  0  0  0  0  0  0
   32.6382   -0.0716   16.9965 F   0  0  0  0  0  0  0  0  0  0  0  0
  7  8  1  0  0  0
  8  9  2  0  0  0
  8 13  1  0  0  0
  9 10  1  0  0  0
 13  4  2  0  0  0
 10  5  1  0  0  0
 10  3  2  0  0  0
  4  1  1  0  0  0
  4  3  1  0  0  0
 11  5  1  0  0  0
  5 12  1  0  0  0
  1 15  1  0  0  0
  3  6  1  0  0  0
 19 18  2  0  0  0
 19 16  1  0  0  0
 18 20  1  0  0  0
 12  6  2  0  0  0
 25 22  1  0  0  0
 15 16  1  0  0  0
 15 14  1  0  0  0
 16 21  2  0  0  0
 20 22  1  0  0  0
 20 17  2  0  0  0
 22 24  1  0  0  0
 22 23  1  0  0  0
 21 17  1  0  0  0
  1  2  1  0  0  0
M  END
> <minimizedAffinity>
-9.70309

$$$$
6B97_CZY_A_1003


 25 27  0  0  0  0  0  0  0  0999 V2000
   30.0488   -5.0633   13.3713 N   0  0  0  0  0  0  0  0  0  0  0  0
   29.4484   -4.9170   12.6049 H   0  0  0  0  0  0  0  0  0  0  0  0
   31.3754   -6.2714   11.7569 C   0  0  0  0  0  0  0  0  0  0  0  0
   31.1308   -5.8248   13.0907 C   0  0  0  0  0  0  0  0  0  0  0  0
   32.6615   -7.3640   10.3274 N   0  0  0  0  0  0  0  0  0  0  0  0
   30.8095   -6.2842   10.4620 C   0  0  0  0  0  0  0  0  0  0  0  0
   34.0086   -7.3441   15.1297 Cl  0  0  0  0  0  0  0  0  0  0  0  0
   33.0407   -6.8329   13.7811 C   0  0  0  0  0  0  0  0  0  0  0  0
   33.4430   -7.2809   12.6029 N   0  0  0  0  0  0  0  0  0  0  0  0
   32.5689   -6.9846   11.6218 C   0  0  0  0  0  0  0  0  0  0  0  0
   33.7097   -8.1085    9.6449 C   0  0  0  0  0  0  0  0  0  0  0  0
   31.5725   -6.9351    9.6112 N   0  0  0  0  0  0  0  0  0  0  0  0
   31.9720   -6.1199   14.0970 N   0  0  0  0  0  0  0  0  0  0  0  0
   28.0810   -4.3884   14.6292 C   0  0  0  0  0  0  0  0  0  0  0  0
   29.6074   -4.4141   14.6160 C   0  0  0  0  0  0  0  0  0  0  0  0
   30.2066   -3.0240   14.7490 C   0  0  0  0  0  0  0  0  0  0  0  0
   30.8372   -1.1115   16.0880 C   0  0  0  0  0  0  0  0  0  0  0  0
   31.1961   -1.0715   13.7246 C   0  0  0  0  0  0  0  0  0  0  0  0
   30.6534   -2.3421   13.6216 C   0  0  0  0  0  0  0  0  0  0  0  0
   31.2983   -0.4397   14.9593 C   0  0  0  0  0  0  0  0  0  0  0  0
   30.3091   -2.3891   15.9855 C   0  0  0  0  0  0  0  0  0  0  0  0
   31.9253    0.9183   15.0753 C   0  0  0  0  0  0  0  0  0  0  0  0
   32.9176    0.9641   15.9488 F   0  0  0  0  0  0  0  0  0  0  0  0
   31.0533    1.8569   15.4039 F   0  0  0  0  0  0  0  0  0  0  0  0
   32.4954    1.3268   13.9650 F   0  0  0  0  0  0  0  0  0  0  0  0
  7  8  1  0  0  0
  8  9  2  0  0  0
  8 13  1  0  0  0
  9 10  1  0  0  0
 13  4  2  0  0  0
 10  5  1  0  0  0
 10  3  2  0  0  0
  4  1  1  0  0  0
  4  3  1  0  0  0
 11  5  1  0  0  0
  5 12  1  0  0  0
  1 15  1  0  0  0
  3  6  1  0  0  0
 19 18  2  0  0  0
 19 16  1  0  0  0
 18 20  1  0  0  0
 12  6  2  0  0  0
 25 22  1  0  0  0
 15 16  1  0  0  0
 15 14  1  0  0  0
 16 21  2  0  0  0
 20 22  1  0  0  0
 20 17  2  0  0  0
 22 24  1  0  0  0
 22 23  1  0  0  0
 21 17  1  0  0  0
  1  2  1  0  0  0
M  END
> <minimizedAffinity>
-9.67703

$$$$
6B97_CZY_A_1003


 25 27  0  0  0  0  0  0  0  0999 V2000
   29.5870   -4.6719   14.5008 N   0  0  0  0  0  0  0  0  0  0  0  0
   30.0553   -3.9522   14.0192 H   0  0  0  0  0  0  0  0  0  0  0  0
   27.4315   -4.2183   15.4875 C   0  0  0  0  0  0  0  0  0  0  0  0
   28.2400   -4.6311   14.3856 C   0  0  0  0  0  0  0  0  0  0  0  0
   25.4257   -3.7842   16.3118 N   0  0  0  0  0  0  0  0  0  0  0  0
   27.5034   -3.8570   16.8519 C   0  0  0  0  0  0  0  0  0  0  0  0
   25.7042   -5.4792   11.6292 Cl  0  0  0  0  0  0  0  0  0  0  0  0
   26.3814   -4.8750   13.1102 C   0  0  0  0  0  0  0  0  0  0  0  0
   25.4955   -4.4680   14.0046 N   0  0  0  0  0  0  0  0  0  0  0  0
   26.0691   -4.1612   15.1841 C   0  0  0  0  0  0  0  0  0  0  0  0
   24.0077   -3.5522   16.5451 C   0  0  0  0  0  0  0  0  0  0  0  0
   26.3110   -3.6003   17.3438 N   0  0  0  0  0  0  0  0  0  0  0  0
   27.6983   -4.9637   13.2010 N   0  0  0  0  0  0  0  0  0  0  0  0
   31.1534   -4.8346   16.3528 C   0  0  0  0  0  0  0  0  0  0  0  0
   30.4786   -5.5986   15.2162 C   0  0  0  0  0  0  0  0  0  0  0  0
   31.4865   -6.2276   14.2688 C   0  0  0  0  0  0  0  0  0  0  0  0
   33.5870   -7.3533   13.8579 C   0  0  0  0  0  0  0  0  0  0  0  0
   32.1681   -6.7872   12.0188 C   0  0  0  0  0  0  0  0  0  0  0  0
   31.2563   -6.2240   12.8968 C   0  0  0  0  0  0  0  0  0  0  0  0
   33.3446   -7.3622   12.4871 C   0  0  0  0  0  0  0  0  0  0  0  0
   32.6663   -6.8036   14.7365 C   0  0  0  0  0  0  0  0  0  0  0  0
   34.3108   -8.0099   11.5396 C   0  0  0  0  0  0  0  0  0  0  0  0
   34.0741   -7.7200   10.2709 F   0  0  0  0  0  0  0  0  0  0  0  0
   34.3348   -9.3272   11.6561 F   0  0  0  0  0  0  0  0  0  0  0  0
   35.5507   -7.6095   11.7036 F   0  0  0  0  0  0  0  0  0  0  0  0
  7  8  1  0  0  0
  8  9  2  0  0  0
  8 13  1  0  0  0
  9 10  1  0  0  0
 13  4  2  0  0  0
 10  5  1  0  0  0
 10  3  2  0  0  0
  4  1  1  0  0  0
  4  3  1  0  0  0
 11  5  1  0  0  0
  5 12  1  0  0  0
  1 15  1  0  0  0
  3  6  1  0  0  0
 19 18  2  0  0  0
 19 16  1  0  0  0
 18 20  1  0  0  0
 12  6  2  0  0  0
 25 22  1  0  0  0
 15 16  1  0  0  0
 15 14  1  0  0  0
 16 21  2  0  0  0
 20 22  1  0  0  0
 20 17  2  0  0  0
 22 24  1  0  0  0
 22 23  1  0  0  0
 21 17  1  0  0  0
  1  2  1  0  0  0
M  END
> <minimizedAffinity>
-9.57593

$$$$
6B97_CZY_A_1003


 25 27  0  0  0  0  0  0  0  0999 V2000
   28.6760   -5.7596   14.0629 N   0  0  0  0  0  0  0  0  0  0  0  0
   29.1622   -6.5160   14.4638 H   0  0  0  0  0  0  0  0  0  0  0  0
   26.9947   -4.7063   15.4375 C   0  0  0  0  0  0  0  0  0  0  0  0
   27.3841   -5.6624   14.4514 C   0  0  0  0  0  0  0  0  0  0  0  0
   25.3946   -3.7604   16.6359 N   0  0  0  0  0  0  0  0  0  0  0  0
   27.5208   -3.7460   16.3310 C   0  0  0  0  0  0  0  0  0  0  0  0
   24.1237   -7.4994   13.5892 Cl  0  0  0  0  0  0  0  0  0  0  0  0
   25.2259   -6.3233   14.2366 C   0  0  0  0  0  0  0  0  0  0  0  0
   24.6897   -5.4644   15.0883 N   0  0  0  0  0  0  0  0  0  0  0  0
   25.6181   -4.6833   15.6735 C   0  0  0  0  0  0  0  0  0  0  0  0
   24.1438   -3.3238   17.2391 C   0  0  0  0  0  0  0  0  0  0  0  0
   26.5704   -3.1840   17.0456 N   0  0  0  0  0  0  0  0  0  0  0  0
   26.4862   -6.4713   13.8624 N   0  0  0  0  0  0  0  0  0  0  0  0
   28.5650   -4.3679   12.0727 C   0  0  0  0  0  0  0  0  0  0  0  0
   29.4856   -4.9383   13.1488 C   0  0  0  0  0  0  0  0  0  0  0  0
   30.6294   -5.7453   12.5577 C   0  0  0  0  0  0  0  0  0  0  0  0
   31.6827   -6.8706   10.6942 C   0  0  0  0  0  0  0  0  0  0  0  0
   32.7371   -6.8936   12.8399 C   0  0  0  0  0  0  0  0  0  0  0  0
   31.6897   -6.1517   13.3616 C   0  0  0  0  0  0  0  0  0  0  0  0
   32.7497   -7.2608   11.4986 C   0  0  0  0  0  0  0  0  0  0  0  0
   30.6433   -6.1147   11.2139 C   0  0  0  0  0  0  0  0  0  0  0  0
   33.9050   -8.0271   10.9250 C   0  0  0  0  0  0  0  0  0  0  0  0
   34.0177   -7.9007    9.6132 F   0  0  0  0  0  0  0  0  0  0  0  0
   33.8496   -9.3189   11.2039 F   0  0  0  0  0  0  0  0  0  0  0  0
   35.0732   -7.6131   11.3591 F   0  0  0  0  0  0  0  0  0  0  0  0
  7  8  1  0  0  0
  8  9  2  0  0  0
  8 13  1  0  0  0
  9 10  1  0  0  0
 13  4  2  0  0  0
 10  5  1  0  0  0
 10  3  2  0  0  0
  4  1  1  0  0  0
  4  3  1  0  0  0
 11  5  1  0  0  0
  5 12  1  0  0  0
  1 15  1  0  0  0
  3  6  1  0  0  0
 19 18  2  0  0  0
 19 16  1  0  0  0
 18 20  1  0  0  0
 12  6  2  0  0  0
 25 22  1  0  0  0
 15 16  1  0  0  0
 15 14  1  0  0  0
 16 21  2  0  0  0
 20 22  1  0  0  0
 20 17  2  0  0  0
 22 24  1  0  0  0
 22 23  1  0  0  0
 21 17  1  0  0  0
  1  2  1  0  0  0
M  END
> <minimizedAffinity>
-9.52531

$$$$
6B97_CZY_A_1003


 25 27  0  0  0  0  0  0  0  0999 V2000
   29.0827   -3.6573   13.0164 N   0  0  0  0  0  0  0  0  0  0  0  0
   28.9159   -3.0230   12.2822 H   0  0  0  0  0  0  0  0  0  0  0  0
   30.3390   -1.9750   14.2070 C   0  0  0  0  0  0  0  0  0  0  0  0
   29.4266   -3.0729   14.1867 C   0  0  0  0  0  0  0  0  0  0  0  0
   31.4286   -0.4341   15.3602 N   0  0  0  0  0  0  0  0  0  0  0  0
   31.1854   -1.2107   13.3723 C   0  0  0  0  0  0  0  0  0  0  0  0
   28.5872   -3.6615   17.8876 Cl  0  0  0  0  0  0  0  0  0  0  0  0
   29.1912   -2.9219   16.4367 C   0  0  0  0  0  0  0  0  0  0  0  0
   29.9713   -1.8706   16.6284 N   0  0  0  0  0  0  0  0  0  0  0  0
   30.5330   -1.4396   15.4826 C   0  0  0  0  0  0  0  0  0  0  0  0
   31.9666    0.4657   16.3700 C   0  0  0  0  0  0  0  0  0  0  0  0
   31.8353   -0.2951   14.0571 N   0  0  0  0  0  0  0  0  0  0  0  0
   28.8638   -3.5410   15.3143 N   0  0  0  0  0  0  0  0  0  0  0  0
   28.0255   -5.7405   13.6891 C   0  0  0  0  0  0  0  0  0  0  0  0
   28.9130   -5.0705   12.6430 C   0  0  0  0  0  0  0  0  0  0  0  0
   30.2580   -5.7634   12.5019 C   0  0  0  0  0  0  0  0  0  0  0  0
   31.9347   -6.8743   11.1592 C   0  0  0  0  0  0  0  0  0  0  0  0
   32.2868   -6.6064   13.5088 C   0  0  0  0  0  0  0  0  0  0  0  0
   31.0608   -5.9704   13.6191 C   0  0  0  0  0  0  0  0  0  0  0  0
   32.7421   -7.0645   12.2772 C   0  0  0  0  0  0  0  0  0  0  0  0
   30.7155   -6.2237   11.2685 C   0  0  0  0  0  0  0  0  0  0  0  0
   34.0885   -7.7144   12.1517 C   0  0  0  0  0  0  0  0  0  0  0  0
   34.5530   -7.7221   10.9132 F   0  0  0  0  0  0  0  0  0  0  0  0
   34.0972   -8.9606   12.5949 F   0  0  0  0  0  0  0  0  0  0  0  0
   35.0342   -7.0883   12.8137 F   0  0  0  0  0  0  0  0  0  0  0  0
  7  8  1  0  0  0
  8  9  2  0  0  0
  8 13  1  0  0  0
  9 10  1  0  0  0
 13  4  2  0  0  0
 10  5  1  0  0  0
 10  3  2  0  0  0
  4  1  1  0  0  0
  4  3  1  0  0  0
 11  5  1  0  0  0
  5 12  1  0  0  0
  1 15  1  0  0  0
  3  6  1  0  0  0
 19 18  2  0  0  0
 19 16  1  0  0  0
 18 20  1  0  0  0
 12  6  2  0  0  0
 25 22  1  0  0  0
 15 16  1  0  0  0
 15 14  1  0  0  0
 16 21  2  0  0  0
 20 22  1  0  0  0
 20 17  2  0  0  0
 22 24  1  0  0  0
 22 23  1  0  0  0
 21 17  1  0  0  0
  1  2  1  0  0  0
M  END
> <minimizedAffinity>
-9.29122

$$$$
6B97_CZY_A_1003


 25 27  0  0  0  0  0  0  0  0999 V2000
   28.5811   -5.2150   12.9798 N   0  0  0  0  0  0  0  0  0  0  0  0
   28.1693   -6.1058   12.9019 H   0  0  0  0  0  0  0  0  0  0  0  0
   26.8472   -4.6487   14.5605 C   0  0  0  0  0  0  0  0  0  0  0  0
   28.1776   -4.5103   14.0614 C   0  0  0  0  0  0  0  0  0  0  0  0
   25.3204   -4.1121   16.0679 N   0  0  0  0  0  0  0  0  0  0  0  0
   25.6075   -5.2662   14.2792 C   0  0  0  0  0  0  0  0  0  0  0  0
   29.7789   -1.8973   16.3757 Cl  0  0  0  0  0  0  0  0  0  0  0  0
   28.6576   -3.0598   15.7366 C   0  0  0  0  0  0  0  0  0  0  0  0
   27.4900   -3.1095   16.3569 N   0  0  0  0  0  0  0  0  0  0  0  0
   26.6119   -3.9101   15.7226 C   0  0  0  0  0  0  0  0  0  0  0  0
   24.5654   -3.5988   17.2017 C   0  0  0  0  0  0  0  0  0  0  0  0
   24.6982   -4.9465   15.1740 N   0  0  0  0  0  0  0  0  0  0  0  0
   29.0727   -3.7043   14.6584 N   0  0  0  0  0  0  0  0  0  0  0  0
   28.7777   -4.9670   10.5695 C   0  0  0  0  0  0  0  0  0  0  0  0
   29.5249   -4.8900   11.8986 C   0  0  0  0  0  0  0  0  0  0  0  0
   30.7328   -5.8114   11.9328 C   0  0  0  0  0  0  0  0  0  0  0  0
   32.5626   -6.8573   13.1186 C   0  0  0  0  0  0  0  0  0  0  0  0
   32.2668   -7.2843   10.7849 C   0  0  0  0  0  0  0  0  0  0  0  0
   31.1635   -6.4465   10.7723 C   0  0  0  0  0  0  0  0  0  0  0  0
   32.9799   -7.5038   11.9585 C   0  0  0  0  0  0  0  0  0  0  0  0
   31.4490   -6.0318   13.1080 C   0  0  0  0  0  0  0  0  0  0  0  0
   34.1483   -8.4446   11.9804 C   0  0  0  0  0  0  0  0  0  0  0  0
   34.0305   -9.4459   11.1241 F   0  0  0  0  0  0  0  0  0  0  0  0
   34.3662   -8.9603   13.1787 F   0  0  0  0  0  0  0  0  0  0  0  0
   35.2783   -7.8823   11.6176 F   0  0  0  0  0  0  0  0  0  0  0  0
  7  8  1  0  0  0
  8  9  2  0  0  0
  8 13  1  0  0  0
  9 10  1  0  0  0
 13  4  2  0  0  0
 10  5  1  0  0  0
 10  3  2  0  0  0
  4  1  1  0  0  0
  4  3  1  0  0  0
 11  5  1  0  0  0
  5 12  1  0  0  0
  1 15  1  0  0  0
  3  6  1  0  0  0
 19 18  2  0  0  0
 19 16  1  0  0  0
 18 20  1  0  0  0
 12  6  2  0  0  0
 25 22  1  0  0  0
 15 16  1  0  0  0
 15 14  1  0  0  0
 16 21  2  0  0  0
 20 22  1  0  0  0
 20 17  2  0  0  0
 22 24  1  0  0  0
 22 23  1  0  0  0
 21 17  1  0  0  0
  1  2  1  0  0  0
M  END
> <minimizedAffinity>
-9.26467

$$$$
6B97_CZY_A_1003


 25 27  0  0  0  0  0  0  0  0999 V2000
   29.0159   -4.6261   13.2385 N   0  0  0  0  0  0  0  0  0  0  0  0
   28.2328   -5.2227   13.2338 H   0  0  0  0  0  0  0  0  0  0  0  0
   31.0484   -5.9215   13.1073 C   0  0  0  0  0  0  0  0  0  0  0  0
   30.1056   -5.1462   13.8480 C   0  0  0  0  0  0  0  0  0  0  0  0
   32.9425   -7.0619   13.0540 N   0  0  0  0  0  0  0  0  0  0  0  0
   31.2724   -6.4869   11.8317 C   0  0  0  0  0  0  0  0  0  0  0  0
   31.4808   -5.1748   17.4335 Cl  0  0  0  0  0  0  0  0  0  0  0  0
   31.3763   -5.3772   15.7115 C   0  0  0  0  0  0  0  0  0  0  0  0
   32.3675   -6.0651   15.1686 N   0  0  0  0  0  0  0  0  0  0  0  0
   32.1514   -6.3233   13.8643 C   0  0  0  0  0  0  0  0  0  0  0  0
   34.2202   -7.7034   13.3275 C   0  0  0  0  0  0  0  0  0  0  0  0
   32.3977   -7.1669   11.7991 N   0  0  0  0  0  0  0  0  0  0  0  0
   30.2805   -4.8869   15.1555 N   0  0  0  0  0  0  0  0  0  0  0  0
   29.2097   -3.4522   11.1185 C   0  0  0  0  0  0  0  0  0  0  0  0
   28.7902   -3.3290   12.5813 C   0  0  0  0  0  0  0  0  0  0  0  0
   29.5336   -2.2157   13.3003 C   0  0  0  0  0  0  0  0  0  0  0  0
   31.4718   -0.7941   13.5658 C   0  0  0  0  0  0  0  0  0  0  0  0
   29.6356   -0.5870   15.0829 C   0  0  0  0  0  0  0  0  0  0  0  0
   28.9683   -1.5990   14.4119 C   0  0  0  0  0  0  0  0  0  0  0  0
   30.8951   -0.1685   14.6676 C   0  0  0  0  0  0  0  0  0  0  0  0
   30.7962   -1.7955   12.8859 C   0  0  0  0  0  0  0  0  0  0  0  0
   31.5982    0.9564   15.3684 C   0  0  0  0  0  0  0  0  0  0  0  0
   32.6142    0.5551   16.1144 F   0  0  0  0  0  0  0  0  0  0  0  0
   30.7877    1.6656   16.1362 F   0  0  0  0  0  0  0  0  0  0  0  0
   32.1603    1.8132   14.5471 F   0  0  0  0  0  0  0  0  0  0  0  0
  7  8  1  0  0  0
  8  9  2  0  0  0
  8 13  1  0  0  0
  9 10  1  0  0  0
 13  4  2  0  0  0
 10  5  1  0  0  0
 10  3  2  0  0  0
  4  1  1  0  0  0
  4  3  1  0  0  0
 11  5  1  0  0  0
  5 12  1  0  0  0
  1 15  1  0  0  0
  3  6  1  0  0  0
 19 18  2  0  0  0
 19 16  1  0  0  0
 18 20  1  0  0  0
 12  6  2  0  0  0
 25 22  1  0  0  0
 15 16  1  0  0  0
 15 14  1  0  0  0
 16 21  2  0  0  0
 20 22  1  0  0  0
 20 17  2  0  0  0
 22 24  1  0  0  0
 22 23  1  0  0  0
 21 17  1  0  0  0
  1  2  1  0  0  0
M  END
> <minimizedAffinity>
-9.21093

$$$$
6B97_CZY_A_1003


 25 27  0  0  0  0  0  0  0  0999 V2000
   29.6715   -5.3390   15.3924 N   0  0  0  0  0  0  0  0  0  0  0  0
   28.9786   -6.0251   15.2567 H   0  0  0  0  0  0  0  0  0  0  0  0
   27.9104   -3.6965   15.2298 C   0  0  0  0  0  0  0  0  0  0  0  0
   29.2767   -4.0832   15.0818 C   0  0  0  0  0  0  0  0  0  0  0  0
   26.3564   -2.1288   15.0932 N   0  0  0  0  0  0  0  0  0  0  0  0
   26.6331   -4.2092   15.5506 C   0  0  0  0  0  0  0  0  0  0  0  0
   30.9937   -0.9422   13.6913 Cl  0  0  0  0  0  0  0  0  0  0  0  0
   29.7994   -1.9845   14.4015 C   0  0  0  0  0  0  0  0  0  0  0  0
   28.5964   -1.4493   14.5307 N   0  0  0  0  0  0  0  0  0  0  0  0
   27.6810   -2.3500   14.9371 C   0  0  0  0  0  0  0  0  0  0  0  0
   25.5895   -0.9016   14.9363 C   0  0  0  0  0  0  0  0  0  0  0  0
   25.7077   -3.2782   15.4680 N   0  0  0  0  0  0  0  0  0  0  0  0
   30.2119   -3.2149   14.6590 N   0  0  0  0  0  0  0  0  0  0  0  0
   31.6521   -4.7543   16.6750 C   0  0  0  0  0  0  0  0  0  0  0  0
   30.9502   -5.8644   15.8966 C   0  0  0  0  0  0  0  0  0  0  0  0
   31.8065   -6.3997   14.7611 C   0  0  0  0  0  0  0  0  0  0  0  0
   33.8324   -7.4407   13.9487 C   0  0  0  0  0  0  0  0  0  0  0  0
   32.1360   -6.7826   12.3978 C   0  0  0  0  0  0  0  0  0  0  0  0
   31.3647   -6.3055   13.4452 C   0  0  0  0  0  0  0  0  0  0  0  0
   33.3790   -7.3594   12.6350 C   0  0  0  0  0  0  0  0  0  0  0  0
   33.0527   -6.9774   14.9971 C   0  0  0  0  0  0  0  0  0  0  0  0
   34.1943   -7.9145   11.5045 C   0  0  0  0  0  0  0  0  0  0  0  0
   35.4841   -7.6384   11.6041 F   0  0  0  0  0  0  0  0  0  0  0  0
   33.7803   -7.4925   10.3213 F   0  0  0  0  0  0  0  0  0  0  0  0
   34.1807   -9.2264   11.4459 F   0  0  0  0  0  0  0  0  0  0  0  0
  7  8  1  0  0  0
  8  9  2  0  0  0
  8 13  1  0  0  0
  9 10  1  0  0  0
 13  4  2  0  0  0
 10  5  1  0  0  0
 10  3  2  0  0  0
  4  1  1  0  0  0
  4  3  1  0  0  0
 11  5  1  0  0  0
  5 12  1  0  0  0
  1 15  1  0  0  0
  3  6  1  0  0  0
 19 18  2  0  0  0
 19 16  1  0  0  0
 18 20  1  0  0  0
 12  6  2  0  0  0
 25 22  1  0  0  0
 15 16  1  0  0  0
 15 14  1  0  0  0
 16 21  2  0  0  0
 20 22  1  0  0  0
 20 17  2  0  0  0
 22 24  1  0  0  0
 22 23  1  0  0  0
 21 17  1  0  0  0
  1  2  1  0  0  0
M  END
> <minimizedAffinity>
-8.93167

$$$$
6B97_CZY_A_1003


 25 27  0  0  0  0  0  0  0  0999 V2000
   28.5728   -4.7493   15.5520 N   0  0  0  0  0  0  0  0  0  0  0  0
   28.6129   -5.0517   16.4881 H   0  0  0  0  0  0  0  0  0  0  0  0
   26.8282   -3.2016   14.9299 C   0  0  0  0  0  0  0  0  0  0  0  0
   27.3193   -4.5323   15.0927 C   0  0  0  0  0  0  0  0  0  0  0  0
   25.1987   -1.8435   14.3041 N   0  0  0  0  0  0  0  0  0  0  0  0
   27.1681   -1.8496   15.1616 C   0  0  0  0  0  0  0  0  0  0  0  0
   24.3639   -6.7547   14.0561 Cl  0  0  0  0  0  0  0  0  0  0  0  0
   25.3646   -5.3544   14.2900 C   0  0  0  0  0  0  0  0  0  0  0  0
   24.7770   -4.1978   14.0301 N   0  0  0  0  0  0  0  0  0  0  0  0
   25.5456   -3.1481   14.3791 C   0  0  0  0  0  0  0  0  0  0  0  0
   23.9830   -1.2281   13.7921 C   0  0  0  0  0  0  0  0  0  0  0  0
   26.1992   -1.0410   14.7915 N   0  0  0  0  0  0  0  0  0  0  0  0
   26.5709   -5.6025   14.7734 N   0  0  0  0  0  0  0  0  0  0  0  0
   30.8523   -5.5939   15.5685 C   0  0  0  0  0  0  0  0  0  0  0  0
   29.8874   -4.6147   14.9046 C   0  0  0  0  0  0  0  0  0  0  0  0
   30.3859   -3.1809   14.9737 C   0  0  0  0  0  0  0  0  0  0  0  0
   30.9724   -1.2037   16.2367 C   0  0  0  0  0  0  0  0  0  0  0  0
   31.1354   -1.1760   13.8516 C   0  0  0  0  0  0  0  0  0  0  0  0
   30.6862   -2.4859   13.8065 C   0  0  0  0  0  0  0  0  0  0  0  0
   31.2876   -0.5177   15.0671 C   0  0  0  0  0  0  0  0  0  0  0  0
   30.5383   -2.5195   16.1909 C   0  0  0  0  0  0  0  0  0  0  0  0
   31.8149    0.8860   15.1173 C   0  0  0  0  0  0  0  0  0  0  0  0
   32.9072    1.0090   15.8531 F   0  0  0  0  0  0  0  0  0  0  0  0
   30.9224    1.7507   15.5700 F   0  0  0  0  0  0  0  0  0  0  0  0
   32.1990    1.3416   13.9471 F   0  0  0  0  0  0  0  0  0  0  0  0
  7  8  1  0  0  0
  8  9  2  0  0  0
  8 13  1  0  0  0
  9 10  1  0  0  0
 13  4  2  0  0  0
 10  5  1  0  0  0
 10  3  2  0  0  0
  4  1  1  0  0  0
  4  3  1  0  0  0
 11  5  1  0  0  0
  5 12  1  0  0  0
  1 15  1  0  0  0
  3  6  1  0  0  0
 19 18  2  0  0  0
 19 16  1  0  0  0
 18 20  1  0  0  0
 12  6  2  0  0  0
 25 22  1  0  0  0
 15 16  1  0  0  0
 15 14  1  0  0  0
 16 21  2  0  0  0
 20 22  1  0  0  0
 20 17  2  0  0  0
 22 24  1  0  0  0
 22 23  1  0  0  0
 21 17  1  0  0  0
  1  2  1  0  0  0
M  END
> <minimizedAffinity>
-8.89378

$$$$
6B97_CZY_A_1003


 25 27  0  0  0  0  0  0  0  0999 V2000
   28.3930   -5.3421   11.7272 N   0  0  0  0  0  0  0  0  0  0  0  0
   28.2264   -6.3105   11.7877 H   0  0  0  0  0  0  0  0  0  0  0  0
   27.6524   -4.3395   13.7941 C   0  0  0  0  0  0  0  0  0  0  0  0
   27.4960   -4.5822   12.3959 C   0  0  0  0  0  0  0  0  0  0  0  0
   26.9357   -3.3572   15.6415 N   0  0  0  0  0  0  0  0  0  0  0  0
   28.4492   -4.6926   14.9066 C   0  0  0  0  0  0  0  0  0  0  0  0
   24.2456   -2.7509   11.4854 Cl  0  0  0  0  0  0  0  0  0  0  0  0
   25.6415   -3.2779   12.3746 C   0  0  0  0  0  0  0  0  0  0  0  0
   25.6656   -2.9112   13.6456 N   0  0  0  0  0  0  0  0  0  0  0  0
   26.6852   -3.4787   14.3185 C   0  0  0  0  0  0  0  0  0  0  0  0
   26.2486   -2.5685   16.6537 C   0  0  0  0  0  0  0  0  0  0  0  0
   28.0230   -4.1105   16.0063 N   0  0  0  0  0  0  0  0  0  0  0  0
   26.4784   -4.0479   11.6986 N   0  0  0  0  0  0  0  0  0  0  0  0
   29.1899   -5.0487    9.4493 C   0  0  0  0  0  0  0  0  0  0  0  0
   29.5733   -4.9820   10.9256 C   0  0  0  0  0  0  0  0  0  0  0  0
   30.7522   -5.8828   11.2542 C   0  0  0  0  0  0  0  0  0  0  0  0
   32.3127   -6.8306   12.8400 C   0  0  0  0  0  0  0  0  0  0  0  0
   32.4859   -7.4001   10.5244 C   0  0  0  0  0  0  0  0  0  0  0  0
   31.4053   -6.5799   10.2427 C   0  0  0  0  0  0  0  0  0  0  0  0
   32.9527   -7.5392   11.8270 C   0  0  0  0  0  0  0  0  0  0  0  0
   31.2218   -6.0228   12.5589 C   0  0  0  0  0  0  0  0  0  0  0  0
   34.0954   -8.4608   12.1369 C   0  0  0  0  0  0  0  0  0  0  0  0
   34.1334   -8.8403   13.4034 F   0  0  0  0  0  0  0  0  0  0  0  0
   35.2712   -7.9350   11.8365 F   0  0  0  0  0  0  0  0  0  0  0  0
   34.0344   -9.6032   11.4920 F   0  0  0  0  0  0  0  0  0  0  0  0
  7  8  1  0  0  0
  8  9  2  0  0  0
  8 13  1  0  0  0
  9 10  1  0  0  0
 13  4  2  0  0  0
 10  5  1  0  0  0
 10  3  2  0  0  0
  4  1  1  0  0  0
  4  3  1  0  0  0
 11  5  1  0  0  0
  5 12  1  0  0  0
  1 15  1  0  0  0
  3  6  1  0  0  0
 19 18  2  0  0  0
 19 16  1  0  0  0
 18 20  1  0  0  0
 12  6  2  0  0  0
 25 22  1  0  0  0
 15 16  1  0  0  0
 15 14  1  0  0  0
 16 21  2  0  0  0
 20 22  1  0  0  0
 20 17  2  0  0  0
 22 24  1  0  0  0
 22 23  1  0  0  0
 21 17  1  0  0  0
  1  2  1  0  0  0
M  END
> <minimizedAffinity>
-8.81138

$$$$
