4NJA_2M9_H_501


 33 36  0  0  0  0  0  0  0  0999 V2000
  -32.0609  -17.0930   14.9580 C   0  0  0  0  0  0  0  0  0  0  0  0
  -31.6592  -15.9383   15.6201 C   0  0  0  0  0  0  0  0  0  0  0  0
  -32.4642  -15.3067   16.5882 C   0  0  0  0  0  0  0  0  0  0  0  0
  -33.7314  -15.8632   16.8709 C   0  0  0  0  0  0  0  0  0  0  0  0
  -34.5740  -15.2833   17.8487 C   0  0  0  0  0  0  0  0  0  0  0  0
  -35.8156  -15.8250   18.1687 C   0  0  0  0  0  0  0  0  0  0  0  0
  -33.2935  -17.6370   15.2611 C   0  0  0  0  0  0  0  0  0  0  0  0
  -34.1340  -17.0372   16.2198 C   0  0  0  0  0  0  0  0  0  0  0  0
  -35.3771  -17.5893   16.5313 C   0  0  0  0  0  0  0  0  0  0  0  0
  -36.2179  -16.9943   17.5123 C   0  0  0  0  0  0  0  0  0  0  0  0
  -33.7047  -18.7844   14.5755 C   0  0  0  0  0  0  0  0  0  0  0  0
  -34.9847  -19.3146   14.8678 C   0  0  0  0  0  0  0  0  0  0  0  0
  -35.7991  -18.7517   15.8546 C   0  0  0  0  0  0  0  0  0  0  0  0
  -37.0552  -19.3263   16.1643 C   0  0  0  0  0  0  0  0  0  0  0  0
  -37.8729  -18.7292   17.1322 C   0  0  0  0  0  0  0  0  0  0  0  0
  -37.4768  -17.5642   17.8128 C   0  0  0  0  0  0  0  0  0  0  0  0
  -29.9298  -16.9538   13.4941 O   0  0  0  0  0  0  0  0  0  0  0  0
  -31.1322  -17.8087   13.8403 S   0  0  0  0  0  0  0  0  0  0  0  0
  -30.6287  -19.0915   14.3802 O   0  0  0  0  0  0  0  0  0  0  0  0
  -31.8400  -17.9411   12.5238 O   0  0  0  0  0  0  0  0  0  0  0  0
  -29.3935  -17.4062   12.8244 H   0  0  0  0  0  0  0  0  0  0  0  0
  -31.9445  -13.9592   17.3463 S   0  0  0  0  0  0  0  0  0  0  0  0
  -32.3294  -13.9991   18.7410 O   0  0  0  0  0  0  0  0  0  0  0  0
  -30.5062  -13.8376   17.0477 O   0  0  0  0  0  0  0  0  0  0  0  0
  -32.5172  -12.7572   16.8097 O   0  0  0  0  0  0  0  0  0  0  0  0
  -32.1747  -11.9909   17.2958 H   0  0  0  0  0  0  0  0  0  0  0  0
  -38.5004  -16.9897   18.9619 S   0  0  0  0  0  0  0  0  0  0  0  0
  -39.7241  -17.8257   18.9819 O   0  0  0  0  0  0  0  0  0  0  0  0
  -37.9777  -17.0312   20.3601 O   0  0  0  0  0  0  0  0  0  0  0  0
  -38.9655  -15.6333   18.4970 O   0  0  0  0  0  0  0  0  0  0  0  0
  -38.2089  -15.0274   18.4595 H   0  0  0  0  0  0  0  0  0  0  0  0
  -37.4935  -20.4907   15.5497 O   0  0  0  0  0  0  0  0  0  0  0  0
  -38.8884  -20.8189   15.4634 C   0  0  0  0  0  0  0  0  0  0  0  0
 23 22  2  0  0  0
 20 18  2  0  0  0
 24 22  2  0  0  0
 22 25  1  0  0  0
 22  3  1  0  0  0
  2  3  2  0  0  0
  2  1  1  0  0  0
 19 18  2  0  0  0
 18  1  1  0  0  0
 18 17  1  0  0  0
  3  4  1  0  0  0
  1  7  2  0  0  0
  4  5  2  0  0  0
  4  8  1  0  0  0
  5  6  1  0  0  0
  7  8  1  0  0  0
  7 11  1  0  0  0
  8  9  2  0  0  0
 11 12  2  0  0  0
  6 10  2  0  0  0
  9 10  1  0  0  0
  9 13  1  0  0  0
 12 13  1  0  0  0
 10 16  1  0  0  0
 13 14  2  0  0  0
 29 27  2  0  0  0
 16 27  1  0  0  0
 16 15  2  0  0  0
 14 15  1  0  0  0
 14 32  1  0  0  0
 27 28  2  0  0  0
 27 30  1  0  0  0
 32 33  1  0  0  0
 17 21  1  0  0  0
 25 26  1  0  0  0
 30 31  1  0  0  0
M  END
> <minimizedAffinity>
-9.29425

$$$$
4NJA_2M9_H_501


 33 36  0  0  0  0  0  0  0  0999 V2000
  -32.7458  -14.8348   17.1313 C   0  0  0  0  0  0  0  0  0  0  0  0
  -33.8222  -15.0281   17.9897 C   0  0  0  0  0  0  0  0  0  0  0  0
  -34.6297  -16.1811   17.9371 C   0  0  0  0  0  0  0  0  0  0  0  0
  -34.3390  -17.1573   16.9585 C   0  0  0  0  0  0  0  0  0  0  0  0
  -35.1033  -18.3451   16.8725 C   0  0  0  0  0  0  0  0  0  0  0  0
  -34.8233  -19.3373   15.9373 C   0  0  0  0  0  0  0  0  0  0  0  0
  -32.4613  -15.8084   16.1941 C   0  0  0  0  0  0  0  0  0  0  0  0
  -33.2441  -16.9764   16.1024 C   0  0  0  0  0  0  0  0  0  0  0  0
  -32.9539  -17.9636   15.1600 C   0  0  0  0  0  0  0  0  0  0  0  0
  -33.7328  -19.1511   15.0793 C   0  0  0  0  0  0  0  0  0  0  0  0
  -31.3931  -15.5994   15.3162 C   0  0  0  0  0  0  0  0  0  0  0  0
  -31.1308  -16.5870   14.3359 C   0  0  0  0  0  0  0  0  0  0  0  0
  -31.8733  -17.7697   14.2757 C   0  0  0  0  0  0  0  0  0  0  0  0
  -31.5636  -18.7652   13.3181 C   0  0  0  0  0  0  0  0  0  0  0  0
  -32.3397  -19.9293   13.2499 C   0  0  0  0  0  0  0  0  0  0  0  0
  -33.4279  -20.1397   14.1152 C   0  0  0  0  0  0  0  0  0  0  0  0
  -32.0394  -12.7469   18.4898 O   0  0  0  0  0  0  0  0  0  0  0  0
  -31.8270  -13.5022   17.1933 S   0  0  0  0  0  0  0  0  0  0  0  0
  -30.4013  -13.8954   17.1328 O   0  0  0  0  0  0  0  0  0  0  0  0
  -32.2236  -12.4981   16.1511 O   0  0  0  0  0  0  0  0  0  0  0  0
  -31.4779  -11.9560   18.4989 H   0  0  0  0  0  0  0  0  0  0  0  0
  -35.8756  -16.3677   18.9733 S   0  0  0  0  0  0  0  0  0  0  0  0
  -35.8246  -17.6839   19.5730 O   0  0  0  0  0  0  0  0  0  0  0  0
  -35.8402  -15.2102   19.8852 O   0  0  0  0  0  0  0  0  0  0  0  0
  -37.1569  -16.2713   18.3333 O   0  0  0  0  0  0  0  0  0  0  0  0
  -37.8577  -16.3894   18.9934 H   0  0  0  0  0  0  0  0  0  0  0  0
  -34.2278  -21.5673   13.9709 S   0  0  0  0  0  0  0  0  0  0  0  0
  -33.8206  -22.4644   15.0781 O   0  0  0  0  0  0  0  0  0  0  0  0
  -35.7152  -21.4778   14.0693 O   0  0  0  0  0  0  0  0  0  0  0  0
  -33.7122  -22.2350   12.7217 O   0  0  0  0  0  0  0  0  0  0  0  0
  -33.9448  -21.6977   11.9483 H   0  0  0  0  0  0  0  0  0  0  0  0
  -30.4863  -18.6324   12.4536 O   0  0  0  0  0  0  0  0  0  0  0  0
  -29.2248  -19.2647   12.7178 C   0  0  0  0  0  0  0  0  0  0  0  0
 23 22  2  0  0  0
 20 18  2  0  0  0
 24 22  2  0  0  0
 22 25  1  0  0  0
 22  3  1  0  0  0
  2  3  2  0  0  0
  2  1  1  0  0  0
 19 18  2  0  0  0
 18  1  1  0  0  0
 18 17  1  0  0  0
  3  4  1  0  0  0
  1  7  2  0  0  0
  4  5  2  0  0  0
  4  8  1  0  0  0
  5  6  1  0  0  0
  7  8  1  0  0  0
  7 11  1  0  0  0
  8  9  2  0  0  0
 11 12  2  0  0  0
  6 10  2  0  0  0
  9 10  1  0  0  0
  9 13  1  0  0  0
 12 13  1  0  0  0
 10 16  1  0  0  0
 13 14  2  0  0  0
 29 27  2  0  0  0
 16 27  1  0  0  0
 16 15  2  0  0  0
 14 15  1  0  0  0
 14 32  1  0  0  0
 27 28  2  0  0  0
 27 30  1  0  0  0
 32 33  1  0  0  0
 17 21  1  0  0  0
 25 26  1  0  0  0
 30 31  1  0  0  0
M  END
> <minimizedAffinity>
-8.76136

$$$$
4NJA_2M9_H_501


 33 36  0  0  0  0  0  0  0  0999 V2000
  -32.2396  -15.2324   16.4595 C   0  0  0  0  0  0  0  0  0  0  0  0
  -31.5235  -15.8981   15.4712 C   0  0  0  0  0  0  0  0  0  0  0  0
  -31.9609  -17.1163   14.9154 C   0  0  0  0  0  0  0  0  0  0  0  0
  -33.1592  -17.6825   15.4041 C   0  0  0  0  0  0  0  0  0  0  0  0
  -33.6576  -18.8938   14.8688 C   0  0  0  0  0  0  0  0  0  0  0  0
  -34.8495  -19.4612   15.3103 C   0  0  0  0  0  0  0  0  0  0  0  0
  -33.4204  -15.7880   16.9115 C   0  0  0  0  0  0  0  0  0  0  0  0
  -33.8947  -17.0069   16.3874 C   0  0  0  0  0  0  0  0  0  0  0  0
  -35.0907  -17.5662   16.8390 C   0  0  0  0  0  0  0  0  0  0  0  0
  -35.5791  -18.7874   16.2970 C   0  0  0  0  0  0  0  0  0  0  0  0
  -34.1255  -15.1283   17.9230 C   0  0  0  0  0  0  0  0  0  0  0  0
  -35.3167  -15.7235   18.4046 C   0  0  0  0  0  0  0  0  0  0  0  0
  -35.8163  -16.9058   17.8512 C   0  0  0  0  0  0  0  0  0  0  0  0
  -37.0342  -17.4584   18.3152 C   0  0  0  0  0  0  0  0  0  0  0  0
  -37.5026  -18.6619   17.7727 C   0  0  0  0  0  0  0  0  0  0  0  0
  -36.7908  -19.3428   16.7693 C   0  0  0  0  0  0  0  0  0  0  0  0
  -30.2119  -13.7717   17.1365 O   0  0  0  0  0  0  0  0  0  0  0  0
  -31.7255  -13.8357   17.0988 S   0  0  0  0  0  0  0  0  0  0  0  0
  -32.2000  -12.7153   16.2561 O   0  0  0  0  0  0  0  0  0  0  0  0
  -32.1029  -13.7082   18.5455 O   0  0  0  0  0  0  0  0  0  0  0  0
  -29.9336  -12.9267   17.5231 H   0  0  0  0  0  0  0  0  0  0  0  0
  -31.0912  -17.8545   13.7495 S   0  0  0  0  0  0  0  0  0  0  0  0
  -30.6430  -19.1497   14.2145 O   0  0  0  0  0  0  0  0  0  0  0  0
  -31.9163  -17.8257   12.5284 O   0  0  0  0  0  0  0  0  0  0  0  0
  -29.9060  -17.1290   13.3893 O   0  0  0  0  0  0  0  0  0  0  0  0
  -29.4299  -17.6114   12.6955 H   0  0  0  0  0  0  0  0  0  0  0  0
  -37.4697  -20.7168   16.1777 S   0  0  0  0  0  0  0  0  0  0  0  0
  -38.7726  -20.9402   16.8477 O   0  0  0  0  0  0  0  0  0  0  0  0
  -37.7812  -20.6967   14.7174 O   0  0  0  0  0  0  0  0  0  0  0  0
  -36.6013  -21.8641   16.6269 O   0  0  0  0  0  0  0  0  0  0  0  0
  -35.7232  -21.7824   16.2230 H   0  0  0  0  0  0  0  0  0  0  0  0
  -37.7991  -16.8228   19.2830 O   0  0  0  0  0  0  0  0  0  0  0  0
  -39.0486  -16.1927   18.9630 C   0  0  0  0  0  0  0  0  0  0  0  0
 23 22  2  0  0  0
 20 18  2  0  0  0
 24 22  2  0  0  0
 22 25  1  0  0  0
 22  3  1  0  0  0
  2  3  2  0  0  0
  2  1  1  0  0  0
 19 18  2  0  0  0
 18  1  1  0  0  0
 18 17  1  0  0  0
  3  4  1  0  0  0
  1  7  2  0  0  0
  4  5  2  0  0  0
  4  8  1  0  0  0
  5  6  1  0  0  0
  7  8  1  0  0  0
  7 11  1  0  0  0
  8  9  2  0  0  0
 11 12  2  0  0  0
  6 10  2  0  0  0
  9 10  1  0  0  0
  9 13  1  0  0  0
 12 13  1  0  0  0
 10 16  1  0  0  0
 13 14  2  0  0  0
 29 27  2  0  0  0
 16 27  1  0  0  0
 16 15  2  0  0  0
 14 15  1  0  0  0
 14 32  1  0  0  0
 27 28  2  0  0  0
 27 30  1  0  0  0
 32 33  1  0  0  0
 17 21  1  0  0  0
 25 26  1  0  0  0
 30 31  1  0  0  0
M  END
> <minimizedAffinity>
-8.54163

$$$$
4NJA_2M9_H_501


 33 36  0  0  0  0  0  0  0  0999 V2000
  -35.5106  -16.2241   17.8119 C   0  0  0  0  0  0  0  0  0  0  0  0
  -34.5800  -15.2058   17.9854 C   0  0  0  0  0  0  0  0  0  0  0  0
  -33.3427  -15.1937   17.3123 C   0  0  0  0  0  0  0  0  0  0  0  0
  -33.0392  -16.2712   16.4509 C   0  0  0  0  0  0  0  0  0  0  0  0
  -31.8204  -16.3018   15.7328 C   0  0  0  0  0  0  0  0  0  0  0  0
  -31.5057  -17.3358   14.8557 C   0  0  0  0  0  0  0  0  0  0  0  0
  -35.2080  -17.2596   16.9498 C   0  0  0  0  0  0  0  0  0  0  0  0
  -33.9809  -17.2913   16.2581 C   0  0  0  0  0  0  0  0  0  0  0  0
  -33.6766  -18.3339   15.3821 C   0  0  0  0  0  0  0  0  0  0  0  0
  -32.4455  -18.3567   14.6698 C   0  0  0  0  0  0  0  0  0  0  0  0
  -36.1359  -18.2946   16.7965 C   0  0  0  0  0  0  0  0  0  0  0  0
  -35.8019  -19.3696   15.9375 C   0  0  0  0  0  0  0  0  0  0  0  0
  -34.6078  -19.3783   15.2110 C   0  0  0  0  0  0  0  0  0  0  0  0
  -34.3152  -20.4398   14.3212 C   0  0  0  0  0  0  0  0  0  0  0  0
  -33.0987  -20.4492   13.6269 C   0  0  0  0  0  0  0  0  0  0  0  0
  -32.1510  -19.4233   13.7892 C   0  0  0  0  0  0  0  0  0  0  0  0
  -37.9547  -17.0768   17.8660 O   0  0  0  0  0  0  0  0  0  0  0  0
  -36.9280  -16.2343   18.5959 S   0  0  0  0  0  0  0  0  0  0  0  0
  -36.7336  -16.8286   19.9375 O   0  0  0  0  0  0  0  0  0  0  0  0
  -37.5652  -14.8761   18.6211 O   0  0  0  0  0  0  0  0  0  0  0  0
  -38.7911  -17.0646   18.3571 H   0  0  0  0  0  0  0  0  0  0  0  0
  -32.2877  -13.9707   17.5403 S   0  0  0  0  0  0  0  0  0  0  0  0
  -30.9340  -14.4458   17.3494 O   0  0  0  0  0  0  0  0  0  0  0  0
  -32.7394  -12.8610   16.6818 O   0  0  0  0  0  0  0  0  0  0  0  0
  -32.3356  -13.4287   18.8687 O   0  0  0  0  0  0  0  0  0  0  0  0
  -31.6908  -12.7083   18.9474 H   0  0  0  0  0  0  0  0  0  0  0  0
  -30.7859  -19.5210   12.8806 S   0  0  0  0  0  0  0  0  0  0  0  0
  -31.1077  -20.1803   11.5928 O   0  0  0  0  0  0  0  0  0  0  0  0
  -30.1743  -18.2114   12.5054 O   0  0  0  0  0  0  0  0  0  0  0  0
  -29.8578  -20.4778   13.5843 O   0  0  0  0  0  0  0  0  0  0  0  0
  -29.6029  -20.1077   14.4440 H   0  0  0  0  0  0  0  0  0  0  0  0
  -35.2186  -21.4683   14.0942 O   0  0  0  0  0  0  0  0  0  0  0  0
  -34.8212  -22.6962   13.4657 C   0  0  0  0  0  0  0  0  0  0  0  0
 23 22  2  0  0  0
 20 18  2  0  0  0
 24 22  2  0  0  0
 22 25  1  0  0  0
 22  3  1  0  0  0
  2  3  2  0  0  0
  2  1  1  0  0  0
 19 18  2  0  0  0
 18  1  1  0  0  0
 18 17  1  0  0  0
  3  4  1  0  0  0
  1  7  2  0  0  0
  4  5  2  0  0  0
  4  8  1  0  0  0
  5  6  1  0  0  0
  7  8  1  0  0  0
  7 11  1  0  0  0
  8  9  2  0  0  0
 11 12  2  0  0  0
  6 10  2  0  0  0
  9 10  1  0  0  0
  9 13  1  0  0  0
 12 13  1  0  0  0
 10 16  1  0  0  0
 13 14  2  0  0  0
 29 27  2  0  0  0
 16 27  1  0  0  0
 16 15  2  0  0  0
 14 15  1  0  0  0
 14 32  1  0  0  0
 27 28  2  0  0  0
 27 30  1  0  0  0
 32 33  1  0  0  0
 17 21  1  0  0  0
 25 26  1  0  0  0
 30 31  1  0  0  0
M  END
> <minimizedAffinity>
-8.03406

$$$$
4NJA_2M9_H_501


 33 36  0  0  0  0  0  0  0  0999 V2000
  -37.0624  -17.2674   18.6470 C   0  0  0  0  0  0  0  0  0  0  0  0
  -37.6652  -18.3650   18.0431 C   0  0  0  0  0  0  0  0  0  0  0  0
  -37.0859  -19.0339   16.9471 C   0  0  0  0  0  0  0  0  0  0  0  0
  -35.8606  -18.5486   16.4388 C   0  0  0  0  0  0  0  0  0  0  0  0
  -35.2223  -19.1930   15.3527 C   0  0  0  0  0  0  0  0  0  0  0  0
  -34.0012  -18.7550   14.8483 C   0  0  0  0  0  0  0  0  0  0  0  0
  -35.8540  -16.8182   18.1520 C   0  0  0  0  0  0  0  0  0  0  0  0
  -35.2394  -17.4537   17.0549 C   0  0  0  0  0  0  0  0  0  0  0  0
  -34.0154  -17.0046   16.5576 C   0  0  0  0  0  0  0  0  0  0  0  0
  -33.3858  -17.6572   15.4617 C   0  0  0  0  0  0  0  0  0  0  0  0
  -35.2626  -15.6989   18.7462 C   0  0  0  0  0  0  0  0  0  0  0  0
  -34.0413  -15.2244   18.2094 C   0  0  0  0  0  0  0  0  0  0  0  0
  -33.4038  -15.8832   17.1542 C   0  0  0  0  0  0  0  0  0  0  0  0
  -32.1593  -15.4198   16.6641 C   0  0  0  0  0  0  0  0  0  0  0  0
  -31.5513  -16.0721   15.5839 C   0  0  0  0  0  0  0  0  0  0  0  0
  -32.1475  -17.1862   14.9672 C   0  0  0  0  0  0  0  0  0  0  0  0
  -39.0616  -17.1313   20.2866 O   0  0  0  0  0  0  0  0  0  0  0  0
  -37.7392  -16.4991   19.9023 S   0  0  0  0  0  0  0  0  0  0  0  0
  -36.8384  -16.5992   21.0724 O   0  0  0  0  0  0  0  0  0  0  0  0
  -38.1282  -15.0920   19.5554 O   0  0  0  0  0  0  0  0  0  0  0  0
  -39.4427  -16.6519   21.0388 H   0  0  0  0  0  0  0  0  0  0  0  0
  -37.8264  -20.3247   16.2790 S   0  0  0  0  0  0  0  0  0  0  0  0
  -36.9505  -21.4758   16.3296 O   0  0  0  0  0  0  0  0  0  0  0  0
  -39.1374  -20.4462   16.9417 O   0  0  0  0  0  0  0  0  0  0  0  0
  -38.1498  -20.1313   14.8939 O   0  0  0  0  0  0  0  0  0  0  0  0
  -38.5861  -20.9263   14.5497 H   0  0  0  0  0  0  0  0  0  0  0  0
  -31.3113  -17.8954   13.7439 S   0  0  0  0  0  0  0  0  0  0  0  0
  -30.0563  -17.1411   13.5145 O   0  0  0  0  0  0  0  0  0  0  0  0
  -30.8792  -19.3020   13.9981 O   0  0  0  0  0  0  0  0  0  0  0  0
  -32.1187  -17.6956   12.4867 O   0  0  0  0  0  0  0  0  0  0  0  0
  -32.9630  -18.1665   12.5664 H   0  0  0  0  0  0  0  0  0  0  0  0
  -31.5042  -14.3433   17.2453 O   0  0  0  0  0  0  0  0  0  0  0  0
  -31.6551  -13.0074   16.7417 C   0  0  0  0  0  0  0  0  0  0  0  0
 23 22  2  0  0  0
 20 18  2  0  0  0
 24 22  2  0  0  0
 22 25  1  0  0  0
 22  3  1  0  0  0
  2  3  2  0  0  0
  2  1  1  0  0  0
 19 18  2  0  0  0
 18  1  1  0  0  0
 18 17  1  0  0  0
  3  4  1  0  0  0
  1  7  2  0  0  0
  4  5  2  0  0  0
  4  8  1  0  0  0
  5  6  1  0  0  0
  7  8  1  0  0  0
  7 11  1  0  0  0
  8  9  2  0  0  0
 11 12  2  0  0  0
  6 10  2  0  0  0
  9 10  1  0  0  0
  9 13  1  0  0  0
 12 13  1  0  0  0
 10 16  1  0  0  0
 13 14  2  0  0  0
 29 27  2  0  0  0
 16 27  1  0  0  0
 16 15  2  0  0  0
 14 15  1  0  0  0
 14 32  1  0  0  0
 27 28  2  0  0  0
 27 30  1  0  0  0
 32 33  1  0  0  0
 17 21  1  0  0  0
 25 26  1  0  0  0
 30 31  1  0  0  0
M  END
> <minimizedAffinity>
-7.77963

$$$$
4NJA_2M9_H_501


 33 36  0  0  0  0  0  0  0  0999 V2000
  -36.5943  -19.3717   16.6760 C   0  0  0  0  0  0  0  0  0  0  0  0
  -37.1838  -18.9247   17.8531 C   0  0  0  0  0  0  0  0  0  0  0  0
  -36.7048  -17.8021   18.5562 C   0  0  0  0  0  0  0  0  0  0  0  0
  -35.5711  -17.1290   18.0493 C   0  0  0  0  0  0  0  0  0  0  0  0
  -35.0584  -15.9831   18.7022 C   0  0  0  0  0  0  0  0  0  0  0  0
  -33.9603  -15.2828   18.2114 C   0  0  0  0  0  0  0  0  0  0  0  0
  -35.4997  -18.6899   16.1816 C   0  0  0  0  0  0  0  0  0  0  0  0
  -34.9836  -17.5640   16.8534 C   0  0  0  0  0  0  0  0  0  0  0  0
  -33.8815  -16.8707   16.3518 C   0  0  0  0  0  0  0  0  0  0  0  0
  -33.3716  -15.7231   17.0199 C   0  0  0  0  0  0  0  0  0  0  0  0
  -34.8942  -19.1569   15.0108 C   0  0  0  0  0  0  0  0  0  0  0  0
  -33.7513  -18.4724   14.5309 C   0  0  0  0  0  0  0  0  0  0  0  0
  -33.2681  -17.3252   15.1666 C   0  0  0  0  0  0  0  0  0  0  0  0
  -32.1527  -16.6285   14.6427 C   0  0  0  0  0  0  0  0  0  0  0  0
  -31.6611  -15.5004   15.3118 C   0  0  0  0  0  0  0  0  0  0  0  0
  -32.2509  -15.0348   16.5003 C   0  0  0  0  0  0  0  0  0  0  0  0
  -38.0774  -20.2661   14.7514 O   0  0  0  0  0  0  0  0  0  0  0  0
  -37.1468  -20.6683   15.8777 S   0  0  0  0  0  0  0  0  0  0  0  0
  -36.0023  -21.3892   15.2767 O   0  0  0  0  0  0  0  0  0  0  0  0
  -38.0194  -21.5299   16.7424 O   0  0  0  0  0  0  0  0  0  0  0  0
  -38.3918  -21.0606   14.2923 H   0  0  0  0  0  0  0  0  0  0  0  0
  -37.4373  -17.3093   19.9278 S   0  0  0  0  0  0  0  0  0  0  0  0
  -36.5142  -17.3990   21.0389 O   0  0  0  0  0  0  0  0  0  0  0  0
  -38.0193  -15.9859   19.6408 O   0  0  0  0  0  0  0  0  0  0  0  0
  -38.5674  -18.1202   20.2829 O   0  0  0  0  0  0  0  0  0  0  0  0
  -38.9624  -17.7833   21.1023 H   0  0  0  0  0  0  0  0  0  0  0  0
  -31.6154  -13.6720   17.1618 S   0  0  0  0  0  0  0  0  0  0  0  0
  -31.9637  -12.5117   16.3081 O   0  0  0  0  0  0  0  0  0  0  0  0
  -32.1281  -13.3236   18.5204 O   0  0  0  0  0  0  0  0  0  0  0  0
  -30.1164  -13.7922   17.0595 O   0  0  0  0  0  0  0  0  0  0  0  0
  -29.8143  -14.5395   17.5991 H   0  0  0  0  0  0  0  0  0  0  0  0
  -31.5419  -17.0188   13.4594 O   0  0  0  0  0  0  0  0  0  0  0  0
  -30.2772  -17.6980   13.4517 C   0  0  0  0  0  0  0  0  0  0  0  0
 23 22  2  0  0  0
 20 18  2  0  0  0
 24 22  2  0  0  0
 22 25  1  0  0  0
 22  3  1  0  0  0
  2  3  2  0  0  0
  2  1  1  0  0  0
 19 18  2  0  0  0
 18  1  1  0  0  0
 18 17  1  0  0  0
  3  4  1  0  0  0
  1  7  2  0  0  0
  4  5  2  0  0  0
  4  8  1  0  0  0
  5  6  1  0  0  0
  7  8  1  0  0  0
  7 11  1  0  0  0
  8  9  2  0  0  0
 11 12  2  0  0  0
  6 10  2  0  0  0
  9 10  1  0  0  0
  9 13  1  0  0  0
 12 13  1  0  0  0
 10 16  1  0  0  0
 13 14  2  0  0  0
 29 27  2  0  0  0
 16 27  1  0  0  0
 16 15  2  0  0  0
 14 15  1  0  0  0
 14 32  1  0  0  0
 27 28  2  0  0  0
 27 30  1  0  0  0
 32 33  1  0  0  0
 17 21  1  0  0  0
 25 26  1  0  0  0
 30 31  1  0  0  0
M  END
> <minimizedAffinity>
-7.75812

$$$$
4NJA_2M9_H_501


 33 36  0  0  0  0  0  0  0  0999 V2000
  -36.5251  -19.0520   16.1790 C   0  0  0  0  0  0  0  0  0  0  0  0
  -36.2667  -17.8463   16.8212 C   0  0  0  0  0  0  0  0  0  0  0  0
  -35.0410  -17.1664   16.6818 C   0  0  0  0  0  0  0  0  0  0  0  0
  -34.0390  -17.7519   15.8765 C   0  0  0  0  0  0  0  0  0  0  0  0
  -32.7960  -17.1039   15.6836 C   0  0  0  0  0  0  0  0  0  0  0  0
  -31.8003  -17.6424   14.8737 C   0  0  0  0  0  0  0  0  0  0  0  0
  -35.5431  -19.6008   15.3779 C   0  0  0  0  0  0  0  0  0  0  0  0
  -34.3003  -18.9580   15.2122 C   0  0  0  0  0  0  0  0  0  0  0  0
  -33.3095  -19.5084   14.3982 C   0  0  0  0  0  0  0  0  0  0  0  0
  -32.0616  -18.8504   14.2162 C   0  0  0  0  0  0  0  0  0  0  0  0
  -35.7972  -20.8259   14.7531 C   0  0  0  0  0  0  0  0  0  0  0  0
  -34.7716  -21.3979   13.9621 C   0  0  0  0  0  0  0  0  0  0  0  0
  -33.5570  -20.7380   13.7546 C   0  0  0  0  0  0  0  0  0  0  0  0
  -32.5634  -21.3056   12.9212 C   0  0  0  0  0  0  0  0  0  0  0  0
  -31.3390  -20.6466   12.7517 C   0  0  0  0  0  0  0  0  0  0  0  0
  -31.0666  -19.4244   13.3913 C   0  0  0  0  0  0  0  0  0  0  0  0
  -38.4956  -20.2569   15.0090 O   0  0  0  0  0  0  0  0  0  0  0  0
  -37.9346  -19.8314   16.3509 S   0  0  0  0  0  0  0  0  0  0  0  0
  -37.7147  -21.0560   17.1526 O   0  0  0  0  0  0  0  0  0  0  0  0
  -39.0086  -18.9356   16.8946 O   0  0  0  0  0  0  0  0  0  0  0  0
  -39.3374  -20.7199   15.1425 H   0  0  0  0  0  0  0  0  0  0  0  0
  -34.7889  -15.7481   17.4471 S   0  0  0  0  0  0  0  0  0  0  0  0
  -36.0559  -15.1647   17.8333 O   0  0  0  0  0  0  0  0  0  0  0  0
  -33.8162  -16.0177   18.5213 O   0  0  0  0  0  0  0  0  0  0  0  0
  -34.1371  -14.7724   16.6201 O   0  0  0  0  0  0  0  0  0  0  0  0
  -34.0130  -13.9527   17.1237 H   0  0  0  0  0  0  0  0  0  0  0  0
  -29.6150  -18.7250   13.0719 S   0  0  0  0  0  0  0  0  0  0  0  0
  -29.7950  -17.2568   12.9793 O   0  0  0  0  0  0  0  0  0  0  0  0
  -28.5674  -18.9236   14.1174 O   0  0  0  0  0  0  0  0  0  0  0  0
  -29.2167  -19.1548   11.6831 O   0  0  0  0  0  0  0  0  0  0  0  0
  -29.0806  -20.1151   11.6684 H   0  0  0  0  0  0  0  0  0  0  0  0
  -32.7788  -22.4947   12.2392 O   0  0  0  0  0  0  0  0  0  0  0  0
  -31.7476  -23.1109   11.4532 C   0  0  0  0  0  0  0  0  0  0  0  0
 23 22  2  0  0  0
 20 18  2  0  0  0
 24 22  2  0  0  0
 22 25  1  0  0  0
 22  3  1  0  0  0
  2  3  2  0  0  0
  2  1  1  0  0  0
 19 18  2  0  0  0
 18  1  1  0  0  0
 18 17  1  0  0  0
  3  4  1  0  0  0
  1  7  2  0  0  0
  4  5  2  0  0  0
  4  8  1  0  0  0
  5  6  1  0  0  0
  7  8  1  0  0  0
  7 11  1  0  0  0
  8  9  2  0  0  0
 11 12  2  0  0  0
  6 10  2  0  0  0
  9 10  1  0  0  0
  9 13  1  0  0  0
 12 13  1  0  0  0
 10 16  1  0  0  0
 13 14  2  0  0  0
 29 27  2  0  0  0
 16 27  1  0  0  0
 16 15  2  0  0  0
 14 15  1  0  0  0
 14 32  1  0  0  0
 27 28  2  0  0  0
 27 30  1  0  0  0
 32 33  1  0  0  0
 17 21  1  0  0  0
 25 26  1  0  0  0
 30 31  1  0  0  0
M  END
> <minimizedAffinity>
-7.13281

$$$$
4NJA_2M9_H_501


 33 36  0  0  0  0  0  0  0  0999 V2000
  -35.3899  -20.6428   14.8704 C   0  0  0  0  0  0  0  0  0  0  0  0
  -34.2483  -20.7769   14.0883 C   0  0  0  0  0  0  0  0  0  0  0  0
  -33.1995  -19.8372   14.1196 C   0  0  0  0  0  0  0  0  0  0  0  0
  -33.3346  -18.7117   14.9624 C   0  0  0  0  0  0  0  0  0  0  0  0
  -32.3040  -17.7460   15.0500 C   0  0  0  0  0  0  0  0  0  0  0  0
  -32.3965  -16.6417   15.8922 C   0  0  0  0  0  0  0  0  0  0  0  0
  -35.4975  -19.5481   15.7053 C   0  0  0  0  0  0  0  0  0  0  0  0
  -34.4750  -18.5806   15.7666 C   0  0  0  0  0  0  0  0  0  0  0  0
  -34.5797  -17.4772   16.6142 C   0  0  0  0  0  0  0  0  0  0  0  0
  -33.5395  -16.5099   16.6898 C   0  0  0  0  0  0  0  0  0  0  0  0
  -36.6579  -19.4036   16.4722 C   0  0  0  0  0  0  0  0  0  0  0  0
  -36.7744  -18.2599   17.2988 C   0  0  0  0  0  0  0  0  0  0  0  0
  -35.7401  -17.3252   17.4002 C   0  0  0  0  0  0  0  0  0  0  0  0
  -35.8578  -16.2138   18.2691 C   0  0  0  0  0  0  0  0  0  0  0  0
  -34.8257  -15.2690   18.3326 C   0  0  0  0  0  0  0  0  0  0  0  0
  -33.6637  -15.3951   17.5510 C   0  0  0  0  0  0  0  0  0  0  0  0
  -36.4511  -22.6568   13.6369 O   0  0  0  0  0  0  0  0  0  0  0  0
  -36.5950  -21.7242   14.8227 S   0  0  0  0  0  0  0  0  0  0  0  0
  -36.5513  -22.5505   16.0499 O   0  0  0  0  0  0  0  0  0  0  0  0
  -37.9243  -21.0726   14.5777 O   0  0  0  0  0  0  0  0  0  0  0  0
  -37.1845  -23.2917   13.6340 H   0  0  0  0  0  0  0  0  0  0  0  0
  -31.8744  -20.0437   13.1911 S   0  0  0  0  0  0  0  0  0  0  0  0
  -31.6487  -18.8630   12.3850 O   0  0  0  0  0  0  0  0  0  0  0  0
  -30.7879  -20.4590   14.0965 O   0  0  0  0  0  0  0  0  0  0  0  0
  -32.0001  -21.1369   12.2692 O   0  0  0  0  0  0  0  0  0  0  0  0
  -31.1872  -21.2132   11.7454 H   0  0  0  0  0  0  0  0  0  0  0  0
  -32.5031  -14.2502   17.7533 S   0  0  0  0  0  0  0  0  0  0  0  0
  -32.7847  -13.1104   16.8488 O   0  0  0  0  0  0  0  0  0  0  0  0
  -32.4275  -13.6532   19.1200 O   0  0  0  0  0  0  0  0  0  0  0  0
  -31.2123  -14.8390   17.2443 O   0  0  0  0  0  0  0  0  0  0  0  0
  -30.9639  -15.5981   17.7948 H   0  0  0  0  0  0  0  0  0  0  0  0
  -36.9655  -16.0450   19.0877 O   0  0  0  0  0  0  0  0  0  0  0  0
  -36.9145  -16.3300   20.4938 C   0  0  0  0  0  0  0  0  0  0  0  0
 23 22  2  0  0  0
 20 18  2  0  0  0
 24 22  2  0  0  0
 22 25  1  0  0  0
 22  3  1  0  0  0
  2  3  2  0  0  0
  2  1  1  0  0  0
 19 18  2  0  0  0
 18  1  1  0  0  0
 18 17  1  0  0  0
  3  4  1  0  0  0
  1  7  2  0  0  0
  4  5  2  0  0  0
  4  8  1  0  0  0
  5  6  1  0  0  0
  7  8  1  0  0  0
  7 11  1  0  0  0
  8  9  2  0  0  0
 11 12  2  0  0  0
  6 10  2  0  0  0
  9 10  1  0  0  0
  9 13  1  0  0  0
 12 13  1  0  0  0
 10 16  1  0  0  0
 13 14  2  0  0  0
 29 27  2  0  0  0
 16 27  1  0  0  0
 16 15  2  0  0  0
 14 15  1  0  0  0
 14 32  1  0  0  0
 27 28  2  0  0  0
 27 30  1  0  0  0
 32 33  1  0  0  0
 17 21  1  0  0  0
 25 26  1  0  0  0
 30 31  1  0  0  0
M  END
> <minimizedAffinity>
-7.12122

$$$$
4NJA_2M9_H_501


 33 36  0  0  0  0  0  0  0  0999 V2000
  -35.6610  -17.2897   16.8969 C   0  0  0  0  0  0  0  0  0  0  0  0
  -36.7002  -18.1420   17.2526 C   0  0  0  0  0  0  0  0  0  0  0  0
  -36.8173  -19.4453   16.7311 C   0  0  0  0  0  0  0  0  0  0  0  0
  -35.8511  -19.8815   15.7975 C   0  0  0  0  0  0  0  0  0  0  0  0
  -35.9067  -21.1878   15.2563 C   0  0  0  0  0  0  0  0  0  0  0  0
  -34.9535  -21.6553   14.3562 C   0  0  0  0  0  0  0  0  0  0  0  0
  -34.7123  -17.7387   15.9994 C   0  0  0  0  0  0  0  0  0  0  0  0
  -34.7912  -19.0334   15.4490 C   0  0  0  0  0  0  0  0  0  0  0  0
  -33.8299  -19.4903   14.5467 C   0  0  0  0  0  0  0  0  0  0  0  0
  -33.8992  -20.8038   14.0050 C   0  0  0  0  0  0  0  0  0  0  0  0
  -33.6822  -16.8701   15.6250 C   0  0  0  0  0  0  0  0  0  0  0  0
  -32.7342  -17.3270   14.6777 C   0  0  0  0  0  0  0  0  0  0  0  0
  -32.7806  -18.6280   14.1689 C   0  0  0  0  0  0  0  0  0  0  0  0
  -31.7949  -19.0799   13.2589 C   0  0  0  0  0  0  0  0  0  0  0  0
  -31.8763  -20.3757   12.7331 C   0  0  0  0  0  0  0  0  0  0  0  0
  -32.9191  -21.2495   13.0882 C   0  0  0  0  0  0  0  0  0  0  0  0
  -36.8194  -15.3650   18.1842 O   0  0  0  0  0  0  0  0  0  0  0  0
  -35.5381  -15.7895   17.4954 S   0  0  0  0  0  0  0  0  0  0  0  0
  -34.4561  -15.7595   18.5049 O   0  0  0  0  0  0  0  0  0  0  0  0
  -35.3842  -14.7637   16.4112 O   0  0  0  0  0  0  0  0  0  0  0  0
  -36.7168  -14.4652   18.5318 H   0  0  0  0  0  0  0  0  0  0  0  0
  -38.0490  -20.4124   17.1874 S   0  0  0  0  0  0  0  0  0  0  0  0
  -38.9480  -20.6241   16.0732 O   0  0  0  0  0  0  0  0  0  0  0  0
  -37.4401  -21.6078   17.7981 O   0  0  0  0  0  0  0  0  0  0  0  0
  -38.8455  -19.8478   18.2398 O   0  0  0  0  0  0  0  0  0  0  0  0
  -39.5597  -20.4625   18.4701 H   0  0  0  0  0  0  0  0  0  0  0  0
  -32.8754  -22.7603   12.4445 S   0  0  0  0  0  0  0  0  0  0  0  0
  -32.1421  -23.6586   13.3674 O   0  0  0  0  0  0  0  0  0  0  0  0
  -34.2062  -23.4079   12.2463 O   0  0  0  0  0  0  0  0  0  0  0  0
  -32.0139  -22.6865   11.2097 O   0  0  0  0  0  0  0  0  0  0  0  0
  -32.4363  -22.1090   10.5548 H   0  0  0  0  0  0  0  0  0  0  0  0
  -30.7247  -18.2779   12.8888 O   0  0  0  0  0  0  0  0  0  0  0  0
  -29.3677  -18.6567   13.1643 C   0  0  0  0  0  0  0  0  0  0  0  0
 23 22  2  0  0  0
 20 18  2  0  0  0
 24 22  2  0  0  0
 22 25  1  0  0  0
 22  3  1  0  0  0
  2  3  2  0  0  0
  2  1  1  0  0  0
 19 18  2  0  0  0
 18  1  1  0  0  0
 18 17  1  0  0  0
  3  4  1  0  0  0
  1  7  2  0  0  0
  4  5  2  0  0  0
  4  8  1  0  0  0
  5  6  1  0  0  0
  7  8  1  0  0  0
  7 11  1  0  0  0
  8  9  2  0  0  0
 11 12  2  0  0  0
  6 10  2  0  0  0
  9 10  1  0  0  0
  9 13  1  0  0  0
 12 13  1  0  0  0
 10 16  1  0  0  0
 13 14  2  0  0  0
 29 27  2  0  0  0
 16 27  1  0  0  0
 16 15  2  0  0  0
 14 15  1  0  0  0
 14 32  1  0  0  0
 27 28  2  0  0  0
 27 30  1  0  0  0
 32 33  1  0  0  0
 17 21  1  0  0  0
 25 26  1  0  0  0
 30 31  1  0  0  0
M  END
> <minimizedAffinity>
-6.72262

$$$$
4NJA_2M9_H_501


 33 36  0  0  0  0  0  0  0  0999 V2000
  -31.7216  -17.6810   15.7080 C   0  0  0  0  0  0  0  0  0  0  0  0
  -30.9067  -18.7654   16.0127 C   0  0  0  0  0  0  0  0  0  0  0  0
  -31.1307  -19.5830   17.1377 C   0  0  0  0  0  0  0  0  0  0  0  0
  -32.2109  -19.2659   17.9908 C   0  0  0  0  0  0  0  0  0  0  0  0
  -32.4961  -20.0641   19.1238 C   0  0  0  0  0  0  0  0  0  0  0  0
  -33.5700  -19.7930   19.9667 C   0  0  0  0  0  0  0  0  0  0  0  0
  -32.7866  -17.3968   16.5400 C   0  0  0  0  0  0  0  0  0  0  0  0
  -33.0467  -18.1849   17.6787 C   0  0  0  0  0  0  0  0  0  0  0  0
  -34.1260  -17.9025   18.5167 C   0  0  0  0  0  0  0  0  0  0  0  0
  -34.3996  -18.7089   19.6561 C   0  0  0  0  0  0  0  0  0  0  0  0
  -33.5895  -16.2907   16.2441 C   0  0  0  0  0  0  0  0  0  0  0  0
  -34.6578  -15.9865   17.1223 C   0  0  0  0  0  0  0  0  0  0  0  0
  -34.9491  -16.7961   18.2238 C   0  0  0  0  0  0  0  0  0  0  0  0
  -36.0512  -16.5009   19.0618 C   0  0  0  0  0  0  0  0  0  0  0  0
  -36.3081  -17.3034   20.1807 C   0  0  0  0  0  0  0  0  0  0  0  0
  -35.4950  -18.4059   20.4976 C   0  0  0  0  0  0  0  0  0  0  0  0
  -30.1183  -17.0598   13.7722 O   0  0  0  0  0  0  0  0  0  0  0  0
  -31.4524  -16.7411   14.4165 S   0  0  0  0  0  0  0  0  0  0  0  0
  -32.5072  -16.9914   13.4088 O   0  0  0  0  0  0  0  0  0  0  0  0
  -31.3058  -15.2964   14.7946 O   0  0  0  0  0  0  0  0  0  0  0  0
  -29.9844  -16.4832   13.0038 H   0  0  0  0  0  0  0  0  0  0  0  0
  -30.1530  -20.8514   17.4476 S   0  0  0  0  0  0  0  0  0  0  0  0
  -30.9147  -22.0814   17.4098 O   0  0  0  0  0  0  0  0  0  0  0  0
  -29.0113  -20.7375   16.5222 O   0  0  0  0  0  0  0  0  0  0  0  0
  -29.5551  -20.7935   18.7514 O   0  0  0  0  0  0  0  0  0  0  0  0
  -28.9866  -21.5687   18.8811 H   0  0  0  0  0  0  0  0  0  0  0  0
  -35.9302  -19.2997   21.8054 S   0  0  0  0  0  0  0  0  0  0  0  0
  -37.1954  -18.7625   22.3596 O   0  0  0  0  0  0  0  0  0  0  0  0
  -36.2069  -20.7410   21.5295 O   0  0  0  0  0  0  0  0  0  0  0  0
  -34.8992  -19.0436   22.8748 O   0  0  0  0  0  0  0  0  0  0  0  0
  -34.0365  -19.3730   22.5778 H   0  0  0  0  0  0  0  0  0  0  0  0
  -36.9090  -15.4445   18.7898 O   0  0  0  0  0  0  0  0  0  0  0  0
  -38.3115  -15.5159   19.0879 C   0  0  0  0  0  0  0  0  0  0  0  0
 23 22  2  0  0  0
 20 18  2  0  0  0
 24 22  2  0  0  0
 22 25  1  0  0  0
 22  3  1  0  0  0
  2  3  2  0  0  0
  2  1  1  0  0  0
 19 18  2  0  0  0
 18  1  1  0  0  0
 18 17  1  0  0  0
  3  4  1  0  0  0
  1  7  2  0  0  0
  4  5  2  0  0  0
  4  8  1  0  0  0
  5  6  1  0  0  0
  7  8  1  0  0  0
  7 11  1  0  0  0
  8  9  2  0  0  0
 11 12  2  0  0  0
  6 10  2  0  0  0
  9 10  1  0  0  0
  9 13  1  0  0  0
 12 13  1  0  0  0
 10 16  1  0  0  0
 13 14  2  0  0  0
 29 27  2  0  0  0
 16 27  1  0  0  0
 16 15  2  0  0  0
 14 15  1  0  0  0
 14 32  1  0  0  0
 27 28  2  0  0  0
 27 30  1  0  0  0
 32 33  1  0  0  0
 17 21  1  0  0  0
 25 26  1  0  0  0
 30 31  1  0  0  0
M  END
> <minimizedAffinity>
-6.52098

$$$$
