4Q83_3FH_A_302


 13 13  0  0  0  0  0  0  0  0999 V2000
   16.5442    2.0734   14.2917 S   0  0  0  0  0  0  0  0  0  0  0  0
   15.8436    2.0999   15.8904 C   0  0  0  0  0  0  0  0  0  0  0  0
   15.1870    3.3463   16.4027 C   0  0  0  0  0  0  0  0  0  0  0  0
   14.6400    3.3516   17.5816 C   0  0  0  0  0  0  0  0  0  0  0  0
   14.6230    2.1690   18.3583 C   0  0  0  0  0  0  0  0  0  0  0  0
   15.2777    0.9935   17.8840 C   0  0  0  0  0  0  0  0  0  0  0  0
   15.8269    0.9751   16.6373 N   0  0  0  0  0  0  0  0  0  0  0  0
   16.4225   -0.1294   16.1908 O   0  0  0  0  0  0  0  0  0  0  0  0
   16.4111   -0.9100   16.7089 H   0  0  0  0  0  0  0  0  0  0  0  0
   15.2331    4.6736   15.5513 C   0  0  0  0  0  0  0  0  0  0  0  0
   14.5269    4.5058   14.4300 F   0  0  0  0  0  0  0  0  0  0  0  0
   14.7336    5.6303   16.2275 F   0  0  0  0  0  0  0  0  0  0  0  0
   16.5584    4.9758   15.2260 F   0  0  0  0  0  0  0  0  0  0  0  0
  6  5  2  0  0  0
  6  7  1  0  0  0
  5  4  1  0  0  0
  8  7  1  0  0  0
  7  2  1  0  0  0
  4  3  2  0  0  0
  2  3  1  0  0  0
  2  1  2  0  0  0
  3 10  1  0  0  0
 12 10  1  0  0  0
 11 10  1  0  0  0
 10 13  1  0  0  0
  8  9  1  0  0  0
M  END
> <minimizedAffinity>
-6.70604

$$$$
4Q83_3FH_A_302


 13 13  0  0  0  0  0  0  0  0999 V2000
   16.7464    0.5382   15.6442 S   0  0  0  0  0  0  0  0  0  0  0  0
   16.1716    2.1812   15.7759 C   0  0  0  0  0  0  0  0  0  0  0  0
   15.1768    2.5468   16.8361 C   0  0  0  0  0  0  0  0  0  0  0  0
   14.7752    3.7776   16.9493 C   0  0  0  0  0  0  0  0  0  0  0  0
   15.3128    4.7773   16.1046 C   0  0  0  0  0  0  0  0  0  0  0  0
   16.2335    4.4224   15.0743 C   0  0  0  0  0  0  0  0  0  0  0  0
   16.6790    3.1391   14.9706 N   0  0  0  0  0  0  0  0  0  0  0  0
   17.5517    2.8144   14.0182 O   0  0  0  0  0  0  0  0  0  0  0  0
   17.9040    3.4788   13.4592 H   0  0  0  0  0  0  0  0  0  0  0  0
   14.5533    1.4281   17.7572 C   0  0  0  0  0  0  0  0  0  0  0  0
   15.5181    0.5965   18.1594 F   0  0  0  0  0  0  0  0  0  0  0  0
   14.0090    1.9688   18.7738 F   0  0  0  0  0  0  0  0  0  0  0  0
   13.5910    0.7126   17.0393 F   0  0  0  0  0  0  0  0  0  0  0  0
  6  5  2  0  0  0
  6  7  1  0  0  0
  5  4  1  0  0  0
  8  7  1  0  0  0
  7  2  1  0  0  0
  4  3  2  0  0  0
  2  3  1  0  0  0
  2  1  2  0  0  0
  3 10  1  0  0  0
 12 10  1  0  0  0
 11 10  1  0  0  0
 10 13  1  0  0  0
  8  9  1  0  0  0
M  END
> <minimizedAffinity>
-6.37626

$$$$
4Q83_3FH_A_302


 13 13  0  0  0  0  0  0  0  0999 V2000
   16.3968    3.8176   13.3220 S   0  0  0  0  0  0  0  0  0  0  0  0
   16.2651    2.6855   14.6443 C   0  0  0  0  0  0  0  0  0  0  0  0
   15.5615    3.0830   15.9068 C   0  0  0  0  0  0  0  0  0  0  0  0
   15.4396    2.2264   16.8766 C   0  0  0  0  0  0  0  0  0  0  0  0
   15.9279    0.9076   16.7205 C   0  0  0  0  0  0  0  0  0  0  0  0
   16.6270    0.5408   15.5322 C   0  0  0  0  0  0  0  0  0  0  0  0
   16.7317    1.4263   14.5021 N   0  0  0  0  0  0  0  0  0  0  0  0
   17.3703    1.0750   13.3872 O   0  0  0  0  0  0  0  0  0  0  0  0
   17.6942    0.2014   13.2883 H   0  0  0  0  0  0  0  0  0  0  0  0
   15.0450    4.5619   16.0943 C   0  0  0  0  0  0  0  0  0  0  0  0
   16.0887    5.3947   16.1298 F   0  0  0  0  0  0  0  0  0  0  0  0
   14.2867    4.8742   15.1200 F   0  0  0  0  0  0  0  0  0  0  0  0
   14.3298    4.6602   17.2910 F   0  0  0  0  0  0  0  0  0  0  0  0
  6  5  2  0  0  0
  6  7  1  0  0  0
  5  4  1  0  0  0
  8  7  1  0  0  0
  7  2  1  0  0  0
  4  3  2  0  0  0
  2  3  1  0  0  0
  2  1  2  0  0  0
  3 10  1  0  0  0
 12 10  1  0  0  0
 11 10  1  0  0  0
 10 13  1  0  0  0
  8  9  1  0  0  0
M  END
> <minimizedAffinity>
-5.69106

$$$$
4Q83_3FH_A_302


 13 13  0  0  0  0  0  0  0  0999 V2000
   14.6923    4.6606   14.2157 S   0  0  0  0  0  0  0  0  0  0  0  0
   15.4755    3.1536   14.6192 C   0  0  0  0  0  0  0  0  0  0  0  0
   15.4193    2.6296   16.0226 C   0  0  0  0  0  0  0  0  0  0  0  0
   15.9779    1.4921   16.3111 C   0  0  0  0  0  0  0  0  0  0  0  0
   16.5952    0.7289   15.2920 C   0  0  0  0  0  0  0  0  0  0  0  0
   16.6776    1.2444   13.9643 C   0  0  0  0  0  0  0  0  0  0  0  0
   16.0685    2.4223   13.6513 N   0  0  0  0  0  0  0  0  0  0  0  0
   16.1328    2.8925   12.4068 O   0  0  0  0  0  0  0  0  0  0  0  0
   16.5443    2.3853   11.7350 H   0  0  0  0  0  0  0  0  0  0  0  0
   14.7594    3.4940   17.1654 C   0  0  0  0  0  0  0  0  0  0  0  0
   15.1801    4.7577   17.0644 F   0  0  0  0  0  0  0  0  0  0  0  0
   13.4919    3.4586   17.0474 F   0  0  0  0  0  0  0  0  0  0  0  0
   15.1254    2.9797   18.4125 F   0  0  0  0  0  0  0  0  0  0  0  0
  6  5  2  0  0  0
  6  7  1  0  0  0
  5  4  1  0  0  0
  8  7  1  0  0  0
  7  2  1  0  0  0
  4  3  2  0  0  0
  2  3  1  0  0  0
  2  1  2  0  0  0
  3 10  1  0  0  0
 12 10  1  0  0  0
 11 10  1  0  0  0
 10 13  1  0  0  0
  8  9  1  0  0  0
M  END
> <minimizedAffinity>
-5.68538

$$$$
4Q83_3FH_A_302


 13 13  0  0  0  0  0  0  0  0999 V2000
   17.0569    0.7631   15.4299 S   0  0  0  0  0  0  0  0  0  0  0  0
   16.1270    1.9956   16.2445 C   0  0  0  0  0  0  0  0  0  0  0  0
   16.0282    3.3723   15.6595 C   0  0  0  0  0  0  0  0  0  0  0  0
   15.3098    4.2776   16.2539 C   0  0  0  0  0  0  0  0  0  0  0  0
   14.5847    3.9491   17.4237 C   0  0  0  0  0  0  0  0  0  0  0  0
   14.7065    2.6488   17.9979 C   0  0  0  0  0  0  0  0  0  0  0  0
   15.4351    1.6886   17.3627 N   0  0  0  0  0  0  0  0  0  0  0  0
   15.5330    0.4706   17.8927 O   0  0  0  0  0  0  0  0  0  0  0  0
   15.0530    0.2573   18.6687 H   0  0  0  0  0  0  0  0  0  0  0  0
   16.8610    3.7485   14.3736 C   0  0  0  0  0  0  0  0  0  0  0  0
   16.5595    4.9947   13.9991 F   0  0  0  0  0  0  0  0  0  0  0  0
   18.1051    3.6741   14.6357 F   0  0  0  0  0  0  0  0  0  0  0  0
   16.5497    2.8629   13.3381 F   0  0  0  0  0  0  0  0  0  0  0  0
  6  5  2  0  0  0
  6  7  1  0  0  0
  5  4  1  0  0  0
  8  7  1  0  0  0
  7  2  1  0  0  0
  4  3  2  0  0  0
  2  3  1  0  0  0
  2  1  2  0  0  0
  3 10  1  0  0  0
 12 10  1  0  0  0
 11 10  1  0  0  0
 10 13  1  0  0  0
  8  9  1  0  0  0
M  END
> <minimizedAffinity>
-5.51559

$$$$
4Q83_3FH_A_302


 13 13  0  0  0  0  0  0  0  0999 V2000
   16.7135    1.7207   13.4125 S   0  0  0  0  0  0  0  0  0  0  0  0
   16.0615    3.1334   14.2039 C   0  0  0  0  0  0  0  0  0  0  0  0
   15.7925    3.1119   15.6785 C   0  0  0  0  0  0  0  0  0  0  0  0
   15.3357    4.1761   16.2683 C   0  0  0  0  0  0  0  0  0  0  0  0
   15.1391    5.3656   15.5275 C   0  0  0  0  0  0  0  0  0  0  0  0
   15.3631    5.3748   14.1187 C   0  0  0  0  0  0  0  0  0  0  0  0
   15.8691    4.2706   13.5016 N   0  0  0  0  0  0  0  0  0  0  0  0
   16.0931    4.2880   12.1887 O   0  0  0  0  0  0  0  0  0  0  0  0
   15.9598    5.0770   11.7011 H   0  0  0  0  0  0  0  0  0  0  0  0
   15.9811    1.7778   16.4991 C   0  0  0  0  0  0  0  0  0  0  0  0
   15.6056    1.9791   17.7650 F   0  0  0  0  0  0  0  0  0  0  0  0
   15.2652    0.8580   15.9859 F   0  0  0  0  0  0  0  0  0  0  0  0
   17.3248    1.3942   16.4673 F   0  0  0  0  0  0  0  0  0  0  0  0
  6  5  2  0  0  0
  6  7  1  0  0  0
  5  4  1  0  0  0
  8  7  1  0  0  0
  7  2  1  0  0  0
  4  3  2  0  0  0
  2  3  1  0  0  0
  2  1  2  0  0  0
  3 10  1  0  0  0
 12 10  1  0  0  0
 11 10  1  0  0  0
 10 13  1  0  0  0
  8  9  1  0  0  0
M  END
> <minimizedAffinity>
-5.43048

$$$$
4Q83_3FH_A_302


 13 13  0  0  0  0  0  0  0  0999 V2000
   16.1459    2.1372   12.8678 S   0  0  0  0  0  0  0  0  0  0  0  0
   17.7016    1.9406   12.1009 C   0  0  0  0  0  0  0  0  0  0  0  0
   18.0816    0.6212   11.4990 C   0  0  0  0  0  0  0  0  0  0  0  0
   19.2286    0.4888   10.9024 C   0  0  0  0  0  0  0  0  0  0  0  0
   20.0945    1.6011   10.7801 C   0  0  0  0  0  0  0  0  0  0  0  0
   19.7467    2.8466   11.3826 C   0  0  0  0  0  0  0  0  0  0  0  0
   18.5334    2.9978   11.9836 N   0  0  0  0  0  0  0  0  0  0  0  0
   18.2048    4.1671   12.5304 O   0  0  0  0  0  0  0  0  0  0  0  0
   18.7818    4.9009   12.4491 H   0  0  0  0  0  0  0  0  0  0  0  0
   17.1312   -0.6274   11.6624 C   0  0  0  0  0  0  0  0  0  0  0  0
   16.7992   -0.7663   12.9487 F   0  0  0  0  0  0  0  0  0  0  0  0
   16.0772   -0.4532   10.9691 F   0  0  0  0  0  0  0  0  0  0  0  0
   17.7913   -1.7790   11.2248 F   0  0  0  0  0  0  0  0  0  0  0  0
  6  5  2  0  0  0
  6  7  1  0  0  0
  5  4  1  0  0  0
  8  7  1  0  0  0
  7  2  1  0  0  0
  4  3  2  0  0  0
  2  3  1  0  0  0
  2  1  2  0  0  0
  3 10  1  0  0  0
 12 10  1  0  0  0
 11 10  1  0  0  0
 10 13  1  0  0  0
  8  9  1  0  0  0
M  END
> <minimizedAffinity>
-5.41139

$$$$
4Q83_3FH_A_302


 13 13  0  0  0  0  0  0  0  0999 V2000
   16.9247    3.5551   12.4002 S   0  0  0  0  0  0  0  0  0  0  0  0
   16.6846    2.7022   13.9042 C   0  0  0  0  0  0  0  0  0  0  0  0
   16.7470    1.2048   13.9374 C   0  0  0  0  0  0  0  0  0  0  0  0
   16.5979    0.5760   15.0650 C   0  0  0  0  0  0  0  0  0  0  0  0
   16.4252    1.3066   16.2644 C   0  0  0  0  0  0  0  0  0  0  0  0
   16.3321    2.7297   16.2267 C   0  0  0  0  0  0  0  0  0  0  0  0
   16.5166    3.3940   15.0517 N   0  0  0  0  0  0  0  0  0  0  0  0
   16.4459    4.7238   15.0229 O   0  0  0  0  0  0  0  0  0  0  0  0
   16.3293    5.2041   15.8189 H   0  0  0  0  0  0  0  0  0  0  0  0
   16.9077    0.3885   12.5971 C   0  0  0  0  0  0  0  0  0  0  0  0
   18.1048    0.6446   12.0629 F   0  0  0  0  0  0  0  0  0  0  0  0
   16.8114   -0.8572   12.8436 F   0  0  0  0  0  0  0  0  0  0  0  0
   15.9063    0.7637   11.6971 F   0  0  0  0  0  0  0  0  0  0  0  0
  6  5  2  0  0  0
  6  7  1  0  0  0
  5  4  1  0  0  0
  8  7  1  0  0  0
  7  2  1  0  0  0
  4  3  2  0  0  0
  2  3  1  0  0  0
  2  1  2  0  0  0
  3 10  1  0  0  0
 12 10  1  0  0  0
 11 10  1  0  0  0
 10 13  1  0  0  0
  8  9  1  0  0  0
M  END
> <minimizedAffinity>
-5.30386

$$$$
4Q83_3FH_A_302


 13 13  0  0  0  0  0  0  0  0999 V2000
   17.4054    3.1150   13.7237 S   0  0  0  0  0  0  0  0  0  0  0  0
   16.2813    3.6480   14.9483 C   0  0  0  0  0  0  0  0  0  0  0  0
   15.9059    2.7319   16.0739 C   0  0  0  0  0  0  0  0  0  0  0  0
   15.0923    3.1443   16.9996 C   0  0  0  0  0  0  0  0  0  0  0  0
   14.6009    4.4708   16.9694 C   0  0  0  0  0  0  0  0  0  0  0  0
   14.9318    5.3303   15.8798 C   0  0  0  0  0  0  0  0  0  0  0  0
   15.8069    4.9120   14.9230 N   0  0  0  0  0  0  0  0  0  0  0  0
   16.1269    5.7231   13.9162 O   0  0  0  0  0  0  0  0  0  0  0  0
   15.7979    6.6003   13.8984 H   0  0  0  0  0  0  0  0  0  0  0  0
   16.4278    1.2432   16.0916 C   0  0  0  0  0  0  0  0  0  0  0  0
   16.1642    0.6671   14.9157 F   0  0  0  0  0  0  0  0  0  0  0  0
   17.6849    1.2356   16.2949 F   0  0  0  0  0  0  0  0  0  0  0  0
   15.7869    0.5342   17.1115 F   0  0  0  0  0  0  0  0  0  0  0  0
  6  5  2  0  0  0
  6  7  1  0  0  0
  5  4  1  0  0  0
  8  7  1  0  0  0
  7  2  1  0  0  0
  4  3  2  0  0  0
  2  3  1  0  0  0
  2  1  2  0  0  0
  3 10  1  0  0  0
 12 10  1  0  0  0
 11 10  1  0  0  0
 10 13  1  0  0  0
  8  9  1  0  0  0
M  END
> <minimizedAffinity>
-5.25661

$$$$
4Q83_3FH_A_302


 13 13  0  0  0  0  0  0  0  0999 V2000
   19.1952    3.4195   11.5655 S   0  0  0  0  0  0  0  0  0  0  0  0
   18.4354    1.8496   11.6381 C   0  0  0  0  0  0  0  0  0  0  0  0
   17.2276    1.6384   12.5005 C   0  0  0  0  0  0  0  0  0  0  0  0
   16.6474    0.4757   12.5275 C   0  0  0  0  0  0  0  0  0  0  0  0
   17.1272   -0.5730   11.7077 C   0  0  0  0  0  0  0  0  0  0  0  0
   18.2966   -0.3807   10.9135 C   0  0  0  0  0  0  0  0  0  0  0  0
   18.8905    0.8443   10.8600 N   0  0  0  0  0  0  0  0  0  0  0  0
   19.9723    1.0249   10.1042 O   0  0  0  0  0  0  0  0  0  0  0  0
   20.2884    0.3274    9.5642 H   0  0  0  0  0  0  0  0  0  0  0  0
   16.7112    2.7969   13.4386 C   0  0  0  0  0  0  0  0  0  0  0  0
   16.3549    3.8459   12.6923 F   0  0  0  0  0  0  0  0  0  0  0  0
   15.7048    2.3888   14.1038 F   0  0  0  0  0  0  0  0  0  0  0  0
   17.7286    3.1757   14.3188 F   0  0  0  0  0  0  0  0  0  0  0  0
  6  5  2  0  0  0
  6  7  1  0  0  0
  5  4  1  0  0  0
  8  7  1  0  0  0
  7  2  1  0  0  0
  4  3  2  0  0  0
  2  3  1  0  0  0
  2  1  2  0  0  0
  3 10  1  0  0  0
 12 10  1  0  0  0
 11 10  1  0  0  0
 10 13  1  0  0  0
  8  9  1  0  0  0
M  END
> <minimizedAffinity>
-5.08227

$$$$
