4Q83_3FH_A_302
  RCSB PDB12061714223D
Coordinates from PDB:4Q83:A:302 Model:1 without hydrogens
 12 12  0  0  0  0            999 V2000
   14.8020    0.2060   16.9560   S 0  0  0  0  0  0  0  0  0  0  0  0
   15.6310    1.2120   15.7950   C 0  0  0  0  0  0  0  0  0  0  0  0
   15.5700    2.7050   15.9150   C 0  0  0  0  0  0  0  0  0  0  0  0
   14.6590    3.3750   17.0150   C 0  0  0  0  0  0  0  0  0  0  0  0
   14.8010    4.7020   16.9600   F 0  0  0  0  0  0  0  0  0  0  0  0
   13.4410    3.0700   16.8020   F 0  0  0  0  0  0  0  0  0  0  0  0
   15.0390    2.9180   18.2800   F 0  0  0  0  0  0  0  0  0  0  0  0
   16.2140    3.4490   15.0660   C 0  0  0  0  0  0  0  0  0  0  0  0
   17.0090    2.8490   14.0610   C 0  0  0  0  0  0  0  0  0  0  0  0
   17.0390    1.4290   13.9270   C 0  0  0  0  0  0  0  0  0  0  0  0
   16.3890    0.6450   14.8320   N 0  0  0  0  0  0  0  0  0  0  0  0
   16.4330   -0.6810   14.7140   O 0  0  0  0  0  0  0  0  0  0  0  0
 10  9  2  0  0  0  0
 10 11  1  0  0  0  0
  9  8  1  0  0  0  0
 12 11  1  0  0  0  0
 11  2  1  0  0  0  0
  8  3  2  0  0  0  0
  2  3  1  0  0  0  0
  2  1  2  0  0  0  0
  3  4  1  0  0  0  0
  6  4  1  0  0  0  0
  5  4  1  0  0  0  0
  4  7  1  0  0  0  0
A    1
S1
A    2
C1
A    3
C2
A    4
C6
A    5
F1
A    6
F2
A    7
F3
A    8
C3
A    9
C4
A   10
C5
A   11
N1
A   12
O1
M  END
>  <InstanceId>
4Q83_3FH_A_302

>  <ChemCompId>
3FH

>  <PdbId>
4Q83

>  <ChainId>
A

>  <ResidueNumber>
302

>  <InsertionCode>


>  <Model>
1

>  <AltIds>


>  <MissingHeavyAtoms>
0

>  <ObservedFormula>
C6 N O S F3

>  <Name>
1-hydroxy-3-(trifluoromethyl)pyridine-2(1H)-thione

>  <SystematicName>
1-oxidanyl-3-(trifluoromethyl)pyridine-2-thione

>  <Synonyms>


>  <Type>
NON-POLYMER

>  <Formula>
C6 H4 F3 N O S

>  <MolecularWeight>
195.162

>  <ModifiedDate>
2015-03-06

>  <Parent>


>  <OneLetterCode>


>  <SubcomponentList>


>  <AmbiguousFlag>
N

>  <InChI>
InChI=1S/C6H4F3NOS/c7-6(8,9)4-2-1-3-10(11)5(4)12/h1-3,11H

>  <InChIKey>
IILCCFILLZAKJZ-UHFFFAOYSA-N

>  <SMILES>
C1=CN(C(=S)C(=C1)C(F)(F)F)O

$$$$
