6DH6_017_A_104
  RCSB PDB01051901473D
Coordinates from PDB:6DH6:A:104 Model:1 without hydrogens
 38 41  0  0  0  0            999 V2000
   65.4310   51.8590   12.5960   N 0  0  0  0  0  0  0  0  0  0  0  0
   66.3830   52.5490   13.5180   C 0  0  0  0  0  0  0  0  0  0  0  0
   67.4560   51.8520   14.0380   C 0  0  0  0  0  0  0  0  0  0  0  0
   68.3360   52.4820   14.8860   C 0  0  0  0  0  0  0  0  0  0  0  0
   68.1280   53.8210   15.2210   C 0  0  0  0  0  0  0  0  0  0  0  0
   67.0740   54.5150   14.7060   C 0  0  0  0  0  0  0  0  0  0  0  0
   66.1830   53.8770   13.8480   C 0  0  0  0  0  0  0  0  0  0  0  0
   69.2900   54.6940   16.3360   S 0  0  0  0  0  0  0  0  0  0  0  0
   69.7860   53.8810   17.4250   O 0  0  0  0  0  0  0  0  0  0  0  0
   68.5870   55.8150   17.0120   O 0  0  0  0  0  0  0  0  0  0  0  0
   70.5730   55.2720   15.3360   N 0  0  0  0  0  0  0  0  0  0  0  0
   71.3580   54.2490   14.6140   C 0  0  0  0  0  0  0  0  0  0  0  0
   72.8450   54.6130   14.5740   C 0  0  0  0  0  0  0  0  0  0  0  0
   73.4440   54.6890   16.0200   C 0  0  0  0  0  0  0  0  0  0  0  0
   73.6110   53.6150   13.6720   C 0  0  0  0  0  0  0  0  0  0  0  0
   70.2770   56.6030   14.6190   C 0  0  0  0  0  0  0  0  0  0  0  0
   71.2230   57.7160   15.1630   C 0  0  0  0  0  0  0  0  0  0  0  0
   71.1190   58.8110   14.3310   O 0  0  0  0  0  0  0  0  0  0  0  0
   70.8590   58.0780   16.6180   C 0  0  0  0  0  0  0  0  0  0  0  0
   71.8240   59.0390   17.0860   N 0  0  0  0  0  0  0  0  0  0  0  0
   72.8470   58.6940   18.0730   C 0  0  0  0  0  0  0  0  0  0  0  0
   72.8580   57.6390   18.6340   O 0  0  0  0  0  0  0  0  0  0  0  0
   73.7860   59.6950   18.3150   O 0  0  0  0  0  0  0  0  0  0  0  0
   74.5000   59.6650   19.5340   C 0  0  0  0  0  0  0  0  0  0  0  0
   75.9810   60.3180   19.1940   C 0  0  0  0  0  0  0  0  0  0  0  0
   75.7190   61.6200   19.0360   O 0  0  0  0  0  0  0  0  0  0  0  0
   74.6180   61.9190   20.1170   C 0  0  0  0  0  0  0  0  0  0  0  0
   73.6960   62.6260   19.6410   O 0  0  0  0  0  0  0  0  0  0  0  0
   72.3200   61.7490   19.6610   C 0  0  0  0  0  0  0  0  0  0  0  0
   72.5240   60.7130   20.4460   C 0  0  0  0  0  0  0  0  0  0  0  0
   74.0070   60.4950   20.4730   C 0  0  0  0  0  0  0  0  0  0  0  0
   69.4990   58.7570   16.7390   C 0  0  0  0  0  0  0  0  0  0  0  0
   68.9230   58.3910   19.1650   C 0  0  0  0  0  0  0  0  0  0  0  0
   68.6880   58.8560   20.4710   C 0  0  0  0  0  0  0  0  0  0  0  0
   68.7700   60.2320   20.7560   C 0  0  0  0  0  0  0  0  0  0  0  0
   69.0860   61.1210   19.7520   C 0  0  0  0  0  0  0  0  0  0  0  0
   69.3250   60.6590   18.4490   C 0  0  0  0  0  0  0  0  0  0  0  0
   69.2400   59.2740   18.1600   C 0  0  0  0  0  0  0  0  0  0  0  0
  1  2  1  0  0  0  0
  2  3  2  0  0  0  0
  2  7  1  0  0  0  0
  3  4  1  0  0  0  0
  4  5  2  0  0  0  0
  5  6  1  0  0  0  0
  5  8  1  0  0  0  0
  6  7  2  0  0  0  0
  8  9  2  0  0  0  0
  8 10  2  0  0  0  0
  8 11  1  0  0  0  0
 11 12  1  0  0  0  0
 11 16  1  0  0  0  0
 12 13  1  0  0  0  0
 13 14  1  0  0  0  0
 13 15  1  0  0  0  0
 16 17  1  0  0  0  0
 17 18  1  0  0  0  0
 17 19  1  0  0  0  0
 19 20  1  0  0  0  0
 19 32  1  0  0  0  0
 20 21  1  0  0  0  0
 21 22  2  0  0  0  0
 21 23  1  0  0  0  0
 23 24  1  0  0  0  0
 24 25  1  0  0  0  0
 24 31  1  0  0  0  0
 25 26  1  0  0  0  0
 26 27  1  0  0  0  0
 27 28  1  0  0  0  0
 27 31  1  0  0  0  0
 28 29  1  0  0  0  0
 29 30  1  0  0  0  0
 30 31  1  0  0  0  0
 32 38  1  0  0  0  0
 33 34  2  0  0  0  0
 33 38  1  0  0  0  0
 34 35  1  0  0  0  0
 35 36  2  0  0  0  0
 36 37  1  0  0  0  0
 37 38  2  0  0  0  0
A    1
N1
A    2
C2
A    3
C3
A    4
C4
A    5
C5
A    6
C6
A    7
C7
A    8
S8
A    9
O9
A   10
O10
A   11
N11
A   12
C12
A   13
C13
A   14
C14
A   15
C15
A   16
C16
A   17
C17
A   18
O18
A   19
C19
A   20
N20
A   21
C21
A   22
O22
A   23
O23
A   24
C24
A   25
C25
A   26
O26
A   27
C27
A   28
O28
A   29
C29
A   30
C30
A   31
C31
A   32
C32
A   33
C33
A   34
C34
A   35
C35
A   36
C36
A   37
C37
A   38
C38
M  END
>  <InstanceId>
6DH6_017_A_104

>  <ChemCompId>
017

>  <PdbId>
6DH6

>  <ChainId>
A

>  <ResidueNumber>
104

>  <InsertionCode>


>  <Model>
1

>  <AltIds>


>  <MissingHeavyAtoms>
0

>  <ObservedFormula>
C27 N3 O7 S

>  <Name>
(3R,3AS,6AR)-HEXAHYDROFURO[2,3-B]FURAN-3-YL(1S,2R)-3-[[(4-AMINOPHENYL)SULFONYL](ISOBUTYL)AMINO]-1-BENZYL-2-HYDROXYPROPYLCARBAMATE

>  <SystematicName>
[(3R,3aS,6aR)-2,3,3a,4,5,6a-hexahydrofuro[2,3-b]furan-3-yl] N-[(2S,3R)-4-[(4-aminophenyl)sulfonyl-(2-methylpropyl)amino]-3-hydroxy-1-phenyl-butan-2-yl]carbamate

>  <Synonyms>
Darunavir, TMC114, UIC-94017

>  <Type>
NON-POLYMER

>  <Formula>
C27 H37 N3 O7 S

>  <MolecularWeight>
547.664

>  <ModifiedDate>
2011-06-04

>  <Parent>


>  <OneLetterCode>


>  <SubcomponentList>


>  <AmbiguousFlag>
N

>  <InChI>
InChI=1S/C27H37N3O7S/c1-18(2)15-30(38(33,34)21-10-8-20(28)9-11-21)16-24(31)23(14-19-6-4-3-5-7-19)29-27(32)37-25-17-36-26-22(25)12-13-35-26/h3-11,18,22-26,31H,12-17,28H2,1-2H3,(H,29,32)/t22-,23-,24+,25-,26+/m0/s1

>  <InChIKey>
CJBJHOAVZSMMDJ-HEXNFIEUSA-N

>  <SMILES>
CC(C)C[N@@](C[C@H]([C@H](Cc1ccccc1)NC(=O)O[C@H]2CO[C@@H]3[C@H]2CCO3)O)S(=O)(=O)c4ccc(cc4)N

$$$$
