5KBE_IPH_A_602


  8  8  0  0  0  0  0  0  0  0999 V2000
   28.9425    2.7545  -13.1686 C   0  0  0  0  0  0  0  0  0  0  0  0
   29.2421    2.9557  -14.5209 C   0  0  0  0  0  0  0  0  0  0  0  0
   30.5361    3.1397  -14.9238 C   0  0  0  0  0  0  0  0  0  0  0  0
   31.5937    3.1009  -13.9908 C   0  0  0  0  0  0  0  0  0  0  0  0
   31.3249    2.9143  -12.6429 C   0  0  0  0  0  0  0  0  0  0  0  0
   29.9983    2.7334  -12.2440 C   0  0  0  0  0  0  0  0  0  0  0  0
   27.6179    2.6156  -12.7552 O   0  0  0  0  0  0  0  0  0  0  0  0
   26.9258    2.6321  -13.3867 H   0  0  0  0  0  0  0  0  0  0  0  0
  1  2  2  0  0  0
  1  6  1  0  0  0
  1  7  1  0  0  0
  2  3  1  0  0  0
  3  4  2  0  0  0
  4  5  1  0  0  0
  5  6  2  0  0  0
  7  8  1  0  0  0
M  END
> <minimizedAffinity>
-6.49667

$$$$
5KBE_IPH_A_602


  8  8  0  0  0  0  0  0  0  0999 V2000
   28.9388    2.7892  -13.1633 C   0  0  0  0  0  0  0  0  0  0  0  0
   29.9853    2.7638  -12.2342 C   0  0  0  0  0  0  0  0  0  0  0  0
   31.2816    2.9045  -12.6470 C   0  0  0  0  0  0  0  0  0  0  0  0
   31.5859    3.1068  -14.0097 C   0  0  0  0  0  0  0  0  0  0  0  0
   30.5697    3.1252  -14.9535 C   0  0  0  0  0  0  0  0  0  0  0  0
   29.2505    2.9746  -14.5192 C   0  0  0  0  0  0  0  0  0  0  0  0
   27.6224    2.5972  -12.7448 O   0  0  0  0  0  0  0  0  0  0  0  0
   27.4331    2.4750  -11.8353 H   0  0  0  0  0  0  0  0  0  0  0  0
  1  2  2  0  0  0
  1  6  1  0  0  0
  1  7  1  0  0  0
  2  3  1  0  0  0
  3  4  2  0  0  0
  4  5  1  0  0  0
  5  6  2  0  0  0
  7  8  1  0  0  0
M  END
> <minimizedAffinity>
-6.47157

$$$$
5KBE_IPH_A_602


  8  8  0  0  0  0  0  0  0  0999 V2000
   29.8556    2.3919  -12.4529 C   0  0  0  0  0  0  0  0  0  0  0  0
   28.6897    2.4313  -13.2261 C   0  0  0  0  0  0  0  0  0  0  0  0
   28.7248    2.9050  -14.5087 C   0  0  0  0  0  0  0  0  0  0  0  0
   29.9388    3.3342  -15.0853 C   0  0  0  0  0  0  0  0  0  0  0  0
   31.1074    3.3166  -14.3384 C   0  0  0  0  0  0  0  0  0  0  0  0
   31.0566    2.8358  -13.0277 C   0  0  0  0  0  0  0  0  0  0  0  0
   29.8071    1.9537  -11.1298 O   0  0  0  0  0  0  0  0  0  0  0  0
   28.9963    1.6608  -10.7627 H   0  0  0  0  0  0  0  0  0  0  0  0
  1  2  2  0  0  0
  1  6  1  0  0  0
  1  7  1  0  0  0
  2  3  1  0  0  0
  3  4  2  0  0  0
  4  5  1  0  0  0
  5  6  2  0  0  0
  7  8  1  0  0  0
M  END
> <minimizedAffinity>
-6.10812

$$$$
5KBE_IPH_A_602


  8  8  0  0  0  0  0  0  0  0999 V2000
   31.0746    3.3723  -13.8440 C   0  0  0  0  0  0  0  0  0  0  0  0
   30.0169    3.1573  -14.7351 C   0  0  0  0  0  0  0  0  0  0  0  0
   28.8868    2.5055  -14.3244 C   0  0  0  0  0  0  0  0  0  0  0  0
   28.7537    2.0647  -12.9908 C   0  0  0  0  0  0  0  0  0  0  0  0
   29.7905    2.2545  -12.0893 C   0  0  0  0  0  0  0  0  0  0  0  0
   30.9416    2.9165  -12.5232 C   0  0  0  0  0  0  0  0  0  0  0  0
   32.2447    3.9942  -14.2788 O   0  0  0  0  0  0  0  0  0  0  0  0
   32.3156    4.2921  -15.1643 H   0  0  0  0  0  0  0  0  0  0  0  0
  1  2  2  0  0  0
  1  6  1  0  0  0
  1  7  1  0  0  0
  2  3  1  0  0  0
  3  4  2  0  0  0
  4  5  1  0  0  0
  5  6  2  0  0  0
  7  8  1  0  0  0
M  END
> <minimizedAffinity>
-6.05735

$$$$
5KBE_IPH_A_602


  8  8  0  0  0  0  0  0  0  0999 V2000
   30.7280    3.3835  -14.1656 C   0  0  0  0  0  0  0  0  0  0  0  0
   30.9118    2.9772  -12.8389 C   0  0  0  0  0  0  0  0  0  0  0  0
   29.9165    2.3171  -12.1724 C   0  0  0  0  0  0  0  0  0  0  0  0
   28.7000    2.0080  -12.8167 C   0  0  0  0  0  0  0  0  0  0  0  0
   28.4863    2.4083  -14.1274 C   0  0  0  0  0  0  0  0  0  0  0  0
   29.5090    3.0868  -14.7948 C   0  0  0  0  0  0  0  0  0  0  0  0
   31.7263    4.0986  -14.8265 O   0  0  0  0  0  0  0  0  0  0  0  0
   32.5340    4.2875  -14.3906 H   0  0  0  0  0  0  0  0  0  0  0  0
  1  2  2  0  0  0
  1  6  1  0  0  0
  1  7  1  0  0  0
  2  3  1  0  0  0
  3  4  2  0  0  0
  4  5  1  0  0  0
  5  6  2  0  0  0
  7  8  1  0  0  0
M  END
> <minimizedAffinity>
-6.04197

$$$$
