4EMR_MGP_A_301
  RCSB PDB12061712243D
Coordinates from PDB:4EMR:A:301 Model:1 without hydrogens
 33 35  0  0  0  0            999 V2000
  -15.5330  -16.1350   -5.0460   P 0  0  0  0  0  0  0  0  0  0  0  0
  -15.4690  -17.6200   -4.7220   O 0  0  0  0  0  0  0  0  0  0  0  0
  -14.8290  -15.0580   -4.3620   O 0  0  0  0  0  0  0  0  0  0  0  0
  -17.0570  -15.6620   -5.0840   O 0  0  0  0  0  0  0  0  0  0  0  0
  -15.0760  -15.8790   -6.5540   O 0  0  0  0  0  0  0  0  0  0  0  0
  -18.0860  -15.3040   -3.9230   P 0  0  0  0  0  0  0  0  0  0  0  0
  -17.5510  -15.2160   -2.5060   O 0  0  0  0  0  0  0  0  0  0  0  0
  -18.7950  -14.0690   -4.4180   O 0  0  0  0  0  0  0  0  0  0  0  0
  -18.9640  -16.6540   -3.9980   O 0  0  0  0  0  0  0  0  0  0  0  0
  -20.5000  -16.9010   -4.5510   P 0  0  0  0  0  0  0  0  0  0  0  0
  -20.6030  -18.3800   -4.2180   O 0  0  0  0  0  0  0  0  0  0  0  0
  -20.4230  -16.7570   -6.0790   O 0  0  0  0  0  0  0  0  0  0  0  0
  -21.6160  -16.1230   -3.7680   O 0  0  0  0  0  0  0  0  0  0  0  0
  -15.3230  -14.6970   -7.4000   C 0  0  0  0  0  0  0  0  0  0  0  0
  -16.1700  -14.8600   -8.6490   C 0  0  0  0  0  0  0  0  0  0  0  0
  -15.8090  -16.0990   -9.3170   O 0  0  0  0  0  0  0  0  0  0  0  0
  -17.6740  -14.8040   -8.2940   C 0  0  0  0  0  0  0  0  0  0  0  0
  -18.4940  -14.3670   -9.4330   O 0  0  0  0  0  0  0  0  0  0  0  0
  -17.9630  -16.2550   -8.0890   C 0  0  0  0  0  0  0  0  0  0  0  0
  -19.3470  -16.5730   -8.3570   O 0  0  0  0  0  0  0  0  0  0  0  0
  -16.9960  -16.8840   -9.0870   C 0  0  0  0  0  0  0  0  0  0  0  0
  -16.3930  -18.0950   -8.5170   N 0  0  0  0  0  0  0  0  0  0  0  0
  -16.6260  -18.7650   -7.3800   C 0  0  0  0  0  0  0  0  0  0  0  0
  -15.7650  -19.8260   -7.2980   N 0  3  0  0  0  0  0  0  0  0  0  0
  -15.7540  -20.7990   -6.1450   C 0  0  0  0  0  0  0  0  0  0  0  0
  -14.9900  -19.7500   -8.4000   C 0  0  0  0  0  0  0  0  0  0  0  0
  -13.9170  -20.5760   -8.9370   C 0  0  0  0  0  0  0  0  0  0  0  0
  -13.5400  -21.5660   -8.2890   O 0  0  0  0  0  0  0  0  0  0  0  0
  -13.3780  -20.2250  -10.1240   N 0  0  0  0  0  0  0  0  0  0  0  0
  -13.8000  -19.1300  -10.8500   C 0  0  0  0  0  0  0  0  0  0  0  0
  -13.2090  -18.8580  -12.0240   N 0  0  0  0  0  0  0  0  0  0  0  0
  -14.8190  -18.3420  -10.4320   N 0  0  0  0  0  0  0  0  0  0  0  0
  -15.4060  -18.6190   -9.2140   C 0  0  0  0  0  0  0  0  0  0  0  0
  1  2  1  0  0  0  0
  1  3  2  0  0  0  0
  1  4  1  0  0  0  0
  1  5  1  0  0  0  0
  4  6  1  0  0  0  0
  5 14  1  0  0  0  0
  6  7  1  0  0  0  0
  6  8  2  0  0  0  0
  6  9  1  0  0  0  0
  9 10  1  0  0  0  0
 10 11  1  0  0  0  0
 10 12  2  0  0  0  0
 10 13  1  0  0  0  0
 14 15  1  0  0  0  0
 15 16  1  0  0  0  0
 15 17  1  0  0  0  0
 16 21  1  0  0  0  0
 17 18  1  0  0  0  0
 17 19  1  0  0  0  0
 19 20  1  0  0  0  0
 19 21  1  0  0  0  0
 21 22  1  0  0  0  0
 22 23  1  0  0  0  0
 22 33  1  0  0  0  0
 23 24  2  0  0  0  0
 24 25  1  0  0  0  0
 24 26  1  0  0  0  0
 26 27  1  0  0  0  0
 26 33  2  0  0  0  0
 27 28  2  0  0  0  0
 27 29  1  0  0  0  0
 29 30  1  0  0  0  0
 30 31  1  0  0  0  0
 30 32  2  0  0  0  0
 32 33  1  0  0  0  0
M  CHG  1  24   1
A    1
PA
A    2
O1A
A    3
O2A
A    4
O3A
A    5
O5'
A    6
PB
A    7
O1B
A    8
O2B
A    9
O3B
A   10
PC
A   11
O1C
A   12
O2C
A   13
O3C
A   14
C5'
A   15
C4'
A   16
O4'
A   17
C3'
A   18
O3'
A   19
C2'
A   20
O2'
A   21
C1'
A   22
N9
A   23
C8
A   24
N7
A   25
CM7
A   26
C5
A   27
C6
A   28
O6
A   29
N1
A   30
C2
A   31
N2
A   32
N3
A   33
C4
M  END
>  <InstanceId>
4EMR_MGP_A_301

>  <ChemCompId>
MGP

>  <PdbId>
4EMR

>  <ChainId>
A

>  <ResidueNumber>
301

>  <InsertionCode>


>  <Model>
1

>  <AltIds>


>  <MissingHeavyAtoms>
0

>  <ObservedFormula>
C11 N5 O14 P3

>  <Name>
7-METHYL-GUANOSINE-5'-TRIPHOSPHATE

>  <SystematicName>
[(2R,3S,4R,5R)-5-(2-amino-7-methyl-6-oxo-1H-purin-7-ium-9-yl)-3,4-dihydroxy-oxolan-2-yl]methyl (hydroxy-phosphonooxy-phosphoryl) hydrogen phosphate

>  <Synonyms>


>  <Type>
NON-POLYMER

>  <Formula>
C11 H19 N5 O14 P3

>  <MolecularWeight>
538.215

>  <ModifiedDate>
2011-06-04

>  <Parent>


>  <OneLetterCode>


>  <SubcomponentList>


>  <AmbiguousFlag>
N

>  <InChI>
InChI=1S/C11H18N5O14P3/c1-15-3-16(8-5(15)9(19)14-11(12)13-8)10-7(18)6(17)4(28-10)2-27-32(23,24)30-33(25,26)29-31(20,21)22/h3-4,6-7,10,17-18H,2H2,1H3,(H6-,12,13,14,19,20,21,22,23,24,25,26)/p+1/t4-,6-,7-,10-/m1/s1

>  <InChIKey>
DKVRNHPCAOHRSI-KQYNXXCUSA-O

>  <SMILES>
C[n+]1cn(c2c1C(=O)NC(=N2)N)[C@H]3[C@@H]([C@@H]([C@H](O3)CO[P@@](=O)(O)O[P@@](=O)(O)OP(=O)(O)O)O)O

$$$$
