4EMR_MGP_A_301


 42 44  0  0  0  0  0  0  0  0999 V2000
  -18.0162  -15.5228   -6.7893 C   0  0  0  0  0  0  0  0  0  0  0  0
  -16.6737  -16.0564   -6.6319 O   0  0  0  0  0  0  0  0  0  0  0  0
  -18.4219  -15.3900   -8.2755 C   0  0  0  0  0  0  0  0  0  0  0  0
  -17.9149  -14.1484   -8.8772 O   0  0  0  0  0  0  0  0  0  0  0  0
  -17.6371  -16.5097   -8.8766 C   0  0  0  0  0  0  0  0  0  0  0  0
  -17.3217  -16.2634  -10.2652 O   0  0  0  0  0  0  0  0  0  0  0  0
  -16.4090  -16.5173   -7.9719 C   0  0  0  0  0  0  0  0  0  0  0  0
  -16.9519  -14.1063   -8.7687 H   0  0  0  0  0  0  0  0  0  0  0  0
  -16.8486  -15.4203  -10.3448 H   0  0  0  0  0  0  0  0  0  0  0  0
  -15.9943  -17.8967   -7.6887 N   0  0  0  0  0  0  0  0  0  0  0  0
  -16.2263  -18.7090   -6.6485 C   0  0  0  0  0  0  0  0  0  0  0  0
  -15.5849  -19.9004   -6.8556 N   0  0  0  0  0  0  0  0  0  0  0  0
  -15.6364  -21.0513   -5.8814 C   0  0  0  0  0  0  0  0  0  0  0  0
  -14.9364  -19.7635   -8.0310 C   0  0  0  0  0  0  0  0  0  0  0  0
  -14.1109  -20.6530   -8.8367 C   0  0  0  0  0  0  0  0  0  0  0  0
  -13.8648  -21.7933   -8.4108 O   0  0  0  0  0  0  0  0  0  0  0  0
  -13.6483  -20.1937  -10.0189 N   0  0  0  0  0  0  0  0  0  0  0  0
  -13.9264  -18.9300  -10.4984 C   0  0  0  0  0  0  0  0  0  0  0  0
  -13.4270  -18.5584  -11.6876 N   0  0  0  0  0  0  0  0  0  0  0  0
  -14.7198  -18.0652   -9.8225 N   0  0  0  0  0  0  0  0  0  0  0  0
  -15.2114  -18.4502   -8.5917 C   0  0  0  0  0  0  0  0  0  0  0  0
  -13.0855  -20.7888  -10.5652 H   0  0  0  0  0  0  0  0  0  0  0  0
  -12.8484  -19.1744  -12.1926 H   0  0  0  0  0  0  0  0  0  0  0  0
  -13.6394  -17.6700  -12.0548 H   0  0  0  0  0  0  0  0  0  0  0  0
  -18.9997  -16.4094   -6.0473 C   0  0  0  0  0  0  0  0  0  0  0  0
  -19.9435  -15.7831   -5.1035 O   0  0  0  0  0  0  0  0  0  0  0  0
  -20.5987  -16.4102   -3.7898 P   0  0  0  0  0  0  0  0  0  0  0  0
  -21.9967  -15.8482   -3.5797 O   0  0  0  0  0  0  0  0  0  0  0  0
  -20.2324  -17.8119   -3.9458 O   0  0  0  0  0  0  0  0  0  0  0  0
  -22.3842  -16.2361   -2.7795 H   0  0  0  0  0  0  0  0  0  0  0  0
  -19.6260  -15.8625   -2.6489 O   0  0  0  0  0  0  0  0  0  0  0  0
  -18.6052  -14.6410   -2.6213 P   0  0  0  0  0  0  0  0  0  0  0  0
  -18.8554  -13.4884   -3.5757 O   0  0  0  0  0  0  0  0  0  0  0  0
  -18.5161  -14.2595   -1.1655 O   0  0  0  0  0  0  0  0  0  0  0  0
  -19.6256  -12.9811   -3.2750 H   0  0  0  0  0  0  0  0  0  0  0  0
  -17.3181  -15.4312   -3.1851 O   0  0  0  0  0  0  0  0  0  0  0  0
  -16.6712  -16.8814   -2.7327 P   0  0  0  0  0  0  0  0  0  0  0  0
  -17.0381  -16.8195   -1.2595 O   0  0  0  0  0  0  0  0  0  0  0  0
  -15.1483  -16.7170   -2.8557 O   0  0  0  0  0  0  0  0  0  0  0  0
  -17.3560  -18.1386   -3.3764 O   0  0  0  0  0  0  0  0  0  0  0  0
  -16.6184  -16.0446   -0.8541 H   0  0  0  0  0  0  0  0  0  0  0  0
  -18.3122  -18.1030   -3.2172 H   0  0  0  0  0  0  0  0  0  0  0  0
 27 28  1  0  0  0
 27 29  2  0  0  0
 27 31  1  0  0  0
 27 26  1  0  0  0
 31 32  1  0  0  0
 26 25  1  0  0  0
 32 33  1  0  0  0
 32 34  2  0  0  0
 32 36  1  0  0  0
 36 37  1  0  0  0
 37 38  1  0  0  0
 37 39  2  0  0  0
 37 40  1  0  0  0
 25  1  1  0  0  0
  1  2  1  0  0  0
  1  3  1  0  0  0
  2  7  1  0  0  0
  3  4  1  0  0  0
  3  5  1  0  0  0
  5  6  1  0  0  0
  5  7  1  0  0  0
  7 10  1  0  0  0
 10 11  1  0  0  0
 10 21  1  0  0  0
 11 12  2  0  0  0
 12 13  1  0  0  0
 12 14  1  0  0  0
 14 15  1  0  0  0
 14 21  2  0  0  0
 15 16  2  0  0  0
 15 17  1  0  0  0
 17 18  1  0  0  0
 18 19  1  0  0  0
 18 20  2  0  0  0
 20 21  1  0  0  0
 28 30  1  0  0  0
 33 35  1  0  0  0
 38 41  1  0  0  0
 40 42  1  0  0  0
  4  8  1  0  0  0
  6  9  1  0  0  0
 17 22  1  0  0  0
 19 23  1  0  0  0
 19 24  1  0  0  0
M  CHG 1  12   1
M  END
> <minimizedAffinity>
-8.86176

$$$$
4EMR_MGP_A_301


 42 44  0  0  0  0  0  0  0  0999 V2000
  -17.8295  -15.0091   -5.9287 C   0  0  0  0  0  0  0  0  0  0  0  0
  -16.9235  -15.3936   -6.9978 O   0  0  0  0  0  0  0  0  0  0  0  0
  -19.2779  -15.4830   -6.1911 C   0  0  0  0  0  0  0  0  0  0  0  0
  -20.0095  -14.5606   -7.0713 O   0  0  0  0  0  0  0  0  0  0  0  0
  -19.0228  -16.7221   -6.9853 C   0  0  0  0  0  0  0  0  0  0  0  0
  -20.1204  -17.0296   -7.8736 O   0  0  0  0  0  0  0  0  0  0  0  0
  -17.7436  -16.3338   -7.7199 C   0  0  0  0  0  0  0  0  0  0  0  0
  -19.5190  -14.4475   -7.9005 H   0  0  0  0  0  0  0  0  0  0  0  0
  -20.2904  -16.2700   -8.4524 H   0  0  0  0  0  0  0  0  0  0  0  0
  -16.8250  -17.4772   -7.7811 N   0  0  0  0  0  0  0  0  0  0  0  0
  -16.6105  -18.5031   -6.9459 C   0  0  0  0  0  0  0  0  0  0  0  0
  -15.6142  -19.2943   -7.4510 N   0  0  0  0  0  0  0  0  0  0  0  0
  -15.1192  -20.5443   -6.7663 C   0  0  0  0  0  0  0  0  0  0  0  0
  -15.2175  -18.6934   -8.5922 C   0  0  0  0  0  0  0  0  0  0  0  0
  -14.2381  -19.0246   -9.6183 C   0  0  0  0  0  0  0  0  0  0  0  0
  -13.5432  -20.0442   -9.4780 O   0  0  0  0  0  0  0  0  0  0  0  0
  -14.1304  -18.2020  -10.6834 N   0  0  0  0  0  0  0  0  0  0  0  0
  -14.9065  -17.0726  -10.8459 C   0  0  0  0  0  0  0  0  0  0  0  0
  -14.7340  -16.3139  -11.9396 N   0  0  0  0  0  0  0  0  0  0  0  0
  -15.8641  -16.7261   -9.9532 N   0  0  0  0  0  0  0  0  0  0  0  0
  -16.0191  -17.5021   -8.8225 C   0  0  0  0  0  0  0  0  0  0  0  0
  -13.4664  -18.4182  -11.3774 H   0  0  0  0  0  0  0  0  0  0  0  0
  -14.0425  -16.5509  -12.5991 H   0  0  0  0  0  0  0  0  0  0  0  0
  -15.2990  -15.5204  -12.0824 H   0  0  0  0  0  0  0  0  0  0  0  0
  -17.3188  -15.5659   -4.6122 C   0  0  0  0  0  0  0  0  0  0  0  0
  -17.9981  -15.1685   -3.3654 O   0  0  0  0  0  0  0  0  0  0  0  0
  -17.3533  -14.8513   -1.9399 P   0  0  0  0  0  0  0  0  0  0  0  0
  -18.1196  -13.7304   -1.2538 O   0  0  0  0  0  0  0  0  0  0  0  0
  -17.1347  -16.2004   -1.4341 O   0  0  0  0  0  0  0  0  0  0  0  0
  -17.7192  -13.5468   -0.3896 H   0  0  0  0  0  0  0  0  0  0  0  0
  -15.9004  -14.3323   -2.3490 O   0  0  0  0  0  0  0  0  0  0  0  0
  -14.4693  -14.5544   -1.6875 P   0  0  0  0  0  0  0  0  0  0  0  0
  -14.4172  -15.1929   -0.3122 O   0  0  0  0  0  0  0  0  0  0  0  0
  -13.6695  -15.2607   -2.7526 O   0  0  0  0  0  0  0  0  0  0  0  0
  -14.6405  -16.1341   -0.3840 H   0  0  0  0  0  0  0  0  0  0  0  0
  -14.0887  -13.0008   -1.4859 O   0  0  0  0  0  0  0  0  0  0  0  0
  -14.7647  -11.8524   -0.5111 P   0  0  0  0  0  0  0  0  0  0  0  0
  -13.8126  -10.7154   -0.8423 O   0  0  0  0  0  0  0  0  0  0  0  0
  -14.4851  -12.3087    0.9294 O   0  0  0  0  0  0  0  0  0  0  0  0
  -16.2233  -11.4275   -0.9059 O   0  0  0  0  0  0  0  0  0  0  0  0
  -12.9083  -10.9703   -0.6011 H   0  0  0  0  0  0  0  0  0  0  0  0
  -16.2425  -11.1668   -1.8400 H   0  0  0  0  0  0  0  0  0  0  0  0
 27 28  1  0  0  0
 27 29  2  0  0  0
 27 31  1  0  0  0
 27 26  1  0  0  0
 31 32  1  0  0  0
 26 25  1  0  0  0
 32 33  1  0  0  0
 32 34  2  0  0  0
 32 36  1  0  0  0
 36 37  1  0  0  0
 37 38  1  0  0  0
 37 39  2  0  0  0
 37 40  1  0  0  0
 25  1  1  0  0  0
  1  2  1  0  0  0
  1  3  1  0  0  0
  2  7  1  0  0  0
  3  4  1  0  0  0
  3  5  1  0  0  0
  5  6  1  0  0  0
  5  7  1  0  0  0
  7 10  1  0  0  0
 10 11  1  0  0  0
 10 21  1  0  0  0
 11 12  2  0  0  0
 12 13  1  0  0  0
 12 14  1  0  0  0
 14 15  1  0  0  0
 14 21  2  0  0  0
 15 16  2  0  0  0
 15 17  1  0  0  0
 17 18  1  0  0  0
 18 19  1  0  0  0
 18 20  2  0  0  0
 20 21  1  0  0  0
 28 30  1  0  0  0
 33 35  1  0  0  0
 38 41  1  0  0  0
 40 42  1  0  0  0
  4  8  1  0  0  0
  6  9  1  0  0  0
 17 22  1  0  0  0
 19 23  1  0  0  0
 19 24  1  0  0  0
M  CHG 1  12   1
M  END
> <minimizedAffinity>
-8.83831

$$$$
4EMR_MGP_A_301


 42 44  0  0  0  0  0  0  0  0999 V2000
  -15.8397  -20.0089   -5.2009 C   0  0  0  0  0  0  0  0  0  0  0  0
  -16.4373  -19.9637   -6.5247 O   0  0  0  0  0  0  0  0  0  0  0  0
  -14.2944  -20.0186   -5.2572 C   0  0  0  0  0  0  0  0  0  0  0  0
  -13.7589  -21.3680   -5.4872 O   0  0  0  0  0  0  0  0  0  0  0  0
  -14.0595  -19.2441   -6.5126 C   0  0  0  0  0  0  0  0  0  0  0  0
  -12.8108  -19.6052   -7.1441 O   0  0  0  0  0  0  0  0  0  0  0  0
  -15.2850  -19.6422   -7.3289 C   0  0  0  0  0  0  0  0  0  0  0  0
  -14.1443  -21.7349   -6.2983 H   0  0  0  0  0  0  0  0  0  0  0  0
  -12.7982  -20.5603   -7.3130 H   0  0  0  0  0  0  0  0  0  0  0  0
  -15.8044  -18.4832   -8.0650 N   0  0  0  0  0  0  0  0  0  0  0  0
  -16.7698  -17.5979   -7.7817 C   0  0  0  0  0  0  0  0  0  0  0  0
  -16.8898  -16.7146   -8.8205 N   0  0  0  0  0  0  0  0  0  0  0  0
  -17.8819  -15.5780   -8.8334 C   0  0  0  0  0  0  0  0  0  0  0  0
  -15.9935  -17.1182   -9.7450 C   0  0  0  0  0  0  0  0  0  0  0  0
  -15.5886  -16.6068  -11.0475 C   0  0  0  0  0  0  0  0  0  0  0  0
  -16.1655  -15.6070  -11.5055 O   0  0  0  0  0  0  0  0  0  0  0  0
  -14.5968  -17.2479  -11.7017 N   0  0  0  0  0  0  0  0  0  0  0  0
  -13.9487  -18.3544  -11.1920 C   0  0  0  0  0  0  0  0  0  0  0  0
  -12.9700  -18.9263  -11.9107 N   0  0  0  0  0  0  0  0  0  0  0  0
  -14.2445  -18.8592   -9.9706 N   0  0  0  0  0  0  0  0  0  0  0  0
  -15.2661  -18.2757   -9.2490 C   0  0  0  0  0  0  0  0  0  0  0  0
  -14.3227  -16.9097  -12.5847 H   0  0  0  0  0  0  0  0  0  0  0  0
  -12.7416  -18.5724  -12.8005 H   0  0  0  0  0  0  0  0  0  0  0  0
  -12.4805  -19.6996  -11.5480 H   0  0  0  0  0  0  0  0  0  0  0  0
  -16.3341  -18.8281   -4.3854 C   0  0  0  0  0  0  0  0  0  0  0  0
  -17.5493  -18.9933   -3.5670 O   0  0  0  0  0  0  0  0  0  0  0  0
  -19.0649  -19.1194   -4.0522 P   0  0  0  0  0  0  0  0  0  0  0  0
  -19.1371  -19.0661   -5.5708 O   0  0  0  0  0  0  0  0  0  0  0  0
  -19.5378  -20.1948   -3.1900 O   0  0  0  0  0  0  0  0  0  0  0  0
  -20.0618  -19.1436   -5.8535 H   0  0  0  0  0  0  0  0  0  0  0  0
  -19.7130  -17.7954   -3.4400 O   0  0  0  0  0  0  0  0  0  0  0  0
  -19.3764  -16.2538   -3.6519 P   0  0  0  0  0  0  0  0  0  0  0  0
  -20.3970  -15.2355   -3.1791 O   0  0  0  0  0  0  0  0  0  0  0  0
  -17.9930  -16.0893   -3.0756 O   0  0  0  0  0  0  0  0  0  0  0  0
  -20.3978  -15.2047   -2.2096 H   0  0  0  0  0  0  0  0  0  0  0  0
  -19.4346  -16.2464   -5.2629 O   0  0  0  0  0  0  0  0  0  0  0  0
  -20.7028  -15.9784   -6.2857 P   0  0  0  0  0  0  0  0  0  0  0  0
  -21.8127  -16.4637   -5.3684 O   0  0  0  0  0  0  0  0  0  0  0  0
  -20.5430  -16.9960   -7.4261 O   0  0  0  0  0  0  0  0  0  0  0  0
  -20.9569  -14.4706   -6.6404 O   0  0  0  0  0  0  0  0  0  0  0  0
  -21.6629  -17.3955   -5.1444 H   0  0  0  0  0  0  0  0  0  0  0  0
  -21.0358  -13.9550   -5.8226 H   0  0  0  0  0  0  0  0  0  0  0  0
 27 28  1  0  0  0
 27 29  2  0  0  0
 27 31  1  0  0  0
 27 26  1  0  0  0
 31 32  1  0  0  0
 26 25  1  0  0  0
 32 33  1  0  0  0
 32 34  2  0  0  0
 32 36  1  0  0  0
 36 37  1  0  0  0
 37 38  1  0  0  0
 37 39  2  0  0  0
 37 40  1  0  0  0
 25  1  1  0  0  0
  1  2  1  0  0  0
  1  3  1  0  0  0
  2  7  1  0  0  0
  3  4  1  0  0  0
  3  5  1  0  0  0
  5  6  1  0  0  0
  5  7  1  0  0  0
  7 10  1  0  0  0
 10 11  1  0  0  0
 10 21  1  0  0  0
 11 12  2  0  0  0
 12 13  1  0  0  0
 12 14  1  0  0  0
 14 15  1  0  0  0
 14 21  2  0  0  0
 15 16  2  0  0  0
 15 17  1  0  0  0
 17 18  1  0  0  0
 18 19  1  0  0  0
 18 20  2  0  0  0
 20 21  1  0  0  0
 28 30  1  0  0  0
 33 35  1  0  0  0
 38 41  1  0  0  0
 40 42  1  0  0  0
  4  8  1  0  0  0
  6  9  1  0  0  0
 17 22  1  0  0  0
 19 23  1  0  0  0
 19 24  1  0  0  0
M  CHG 1  12   1
M  END
> <minimizedAffinity>
-8.78744

$$$$
4EMR_MGP_A_301


 42 44  0  0  0  0  0  0  0  0999 V2000
  -16.2546  -19.5960   -5.1803 C   0  0  0  0  0  0  0  0  0  0  0  0
  -16.8002  -19.5824   -6.5271 O   0  0  0  0  0  0  0  0  0  0  0  0
  -14.7104  -19.6776   -5.1760 C   0  0  0  0  0  0  0  0  0  0  0  0
  -14.2303  -21.0586   -5.3276 O   0  0  0  0  0  0  0  0  0  0  0  0
  -14.3935  -18.9707   -6.4530 C   0  0  0  0  0  0  0  0  0  0  0  0
  -13.1406  -19.4151   -7.0196 O   0  0  0  0  0  0  0  0  0  0  0  0
  -15.6052  -19.3490   -7.2988 C   0  0  0  0  0  0  0  0  0  0  0  0
  -14.6022  -21.4432   -6.1367 H   0  0  0  0  0  0  0  0  0  0  0  0
  -13.1663  -20.3763   -7.1472 H   0  0  0  0  0  0  0  0  0  0  0  0
  -16.0425  -18.2014   -8.1031 N   0  0  0  0  0  0  0  0  0  0  0  0
  -16.9809  -17.2667   -7.8991 C   0  0  0  0  0  0  0  0  0  0  0  0
  -17.0180  -16.4232   -8.9766 N   0  0  0  0  0  0  0  0  0  0  0  0
  -17.9595  -15.2488   -9.0794 C   0  0  0  0  0  0  0  0  0  0  0  0
  -16.1003  -16.9009   -9.8428 C   0  0  0  0  0  0  0  0  0  0  0  0
  -15.6178  -16.4609  -11.1449 C   0  0  0  0  0  0  0  0  0  0  0  0
  -16.1312  -15.4584  -11.6679 O   0  0  0  0  0  0  0  0  0  0  0  0
  -14.6265  -17.1683  -11.7277 N   0  0  0  0  0  0  0  0  0  0  0  0
  -14.0487  -18.2781  -11.1456 C   0  0  0  0  0  0  0  0  0  0  0  0
  -13.0647  -18.9186  -11.7960 N   0  0  0  0  0  0  0  0  0  0  0  0
  -14.4185  -18.7193   -9.9198 N   0  0  0  0  0  0  0  0  0  0  0  0
  -15.4449  -18.0653   -9.2688 C   0  0  0  0  0  0  0  0  0  0  0  0
  -14.3001  -16.8785  -12.6101 H   0  0  0  0  0  0  0  0  0  0  0  0
  -12.7830  -18.6116  -12.6880 H   0  0  0  0  0  0  0  0  0  0  0  0
  -12.6247  -19.6955  -11.3811 H   0  0  0  0  0  0  0  0  0  0  0  0
  -16.7232  -18.3591   -4.4356 C   0  0  0  0  0  0  0  0  0  0  0  0
  -15.7325  -17.3224   -4.0928 O   0  0  0  0  0  0  0  0  0  0  0  0
  -15.9796  -15.8929   -3.4267 P   0  0  0  0  0  0  0  0  0  0  0  0
  -16.5325  -16.0571   -2.0190 O   0  0  0  0  0  0  0  0  0  0  0  0
  -14.7582  -15.1983   -3.8126 O   0  0  0  0  0  0  0  0  0  0  0  0
  -16.6784  -15.1829   -1.6249 H   0  0  0  0  0  0  0  0  0  0  0  0
  -17.1088  -15.2833   -4.3760 O   0  0  0  0  0  0  0  0  0  0  0  0
  -18.6671  -15.0448   -4.1532 P   0  0  0  0  0  0  0  0  0  0  0  0
  -19.4217  -16.0486   -3.3018 O   0  0  0  0  0  0  0  0  0  0  0  0
  -18.7651  -13.6125   -3.6930 O   0  0  0  0  0  0  0  0  0  0  0  0
  -19.1701  -15.9374   -2.3716 H   0  0  0  0  0  0  0  0  0  0  0  0
  -19.1363  -15.2913   -5.6757 O   0  0  0  0  0  0  0  0  0  0  0  0
  -20.5960  -15.7709   -6.2802 P   0  0  0  0  0  0  0  0  0  0  0  0
  -21.0567  -14.4199   -6.8012 O   0  0  0  0  0  0  0  0  0  0  0  0
  -21.4560  -16.1335   -5.0594 O   0  0  0  0  0  0  0  0  0  0  0  0
  -20.5137  -16.7793   -7.4803 O   0  0  0  0  0  0  0  0  0  0  0  0
  -21.1101  -13.7906   -6.0651 H   0  0  0  0  0  0  0  0  0  0  0  0
  -19.9380  -16.4143   -8.1704 H   0  0  0  0  0  0  0  0  0  0  0  0
 27 28  1  0  0  0
 27 29  2  0  0  0
 27 31  1  0  0  0
 27 26  1  0  0  0
 31 32  1  0  0  0
 26 25  1  0  0  0
 32 33  1  0  0  0
 32 34  2  0  0  0
 32 36  1  0  0  0
 36 37  1  0  0  0
 37 38  1  0  0  0
 37 39  2  0  0  0
 37 40  1  0  0  0
 25  1  1  0  0  0
  1  2  1  0  0  0
  1  3  1  0  0  0
  2  7  1  0  0  0
  3  4  1  0  0  0
  3  5  1  0  0  0
  5  6  1  0  0  0
  5  7  1  0  0  0
  7 10  1  0  0  0
 10 11  1  0  0  0
 10 21  1  0  0  0
 11 12  2  0  0  0
 12 13  1  0  0  0
 12 14  1  0  0  0
 14 15  1  0  0  0
 14 21  2  0  0  0
 15 16  2  0  0  0
 15 17  1  0  0  0
 17 18  1  0  0  0
 18 19  1  0  0  0
 18 20  2  0  0  0
 20 21  1  0  0  0
 28 30  1  0  0  0
 33 35  1  0  0  0
 38 41  1  0  0  0
 40 42  1  0  0  0
  4  8  1  0  0  0
  6  9  1  0  0  0
 17 22  1  0  0  0
 19 23  1  0  0  0
 19 24  1  0  0  0
M  CHG 1  12   1
M  END
> <minimizedAffinity>
-8.73315

$$$$
4EMR_MGP_A_301


 42 44  0  0  0  0  0  0  0  0999 V2000
  -16.4959  -15.0773   -6.8573 C   0  0  0  0  0  0  0  0  0  0  0  0
  -15.7426  -15.9833   -7.7077 O   0  0  0  0  0  0  0  0  0  0  0  0
  -18.0222  -15.2165   -7.0621 C   0  0  0  0  0  0  0  0  0  0  0  0
  -18.4969  -14.4419   -8.2177 O   0  0  0  0  0  0  0  0  0  0  0  0
  -18.1189  -16.6576   -7.4426 C   0  0  0  0  0  0  0  0  0  0  0  0
  -19.2735  -16.9210   -8.2709 O   0  0  0  0  0  0  0  0  0  0  0  0
  -16.7950  -16.8504   -8.1753 C   0  0  0  0  0  0  0  0  0  0  0  0
  -18.0079  -14.7119   -9.0108 H   0  0  0  0  0  0  0  0  0  0  0  0
  -19.2451  -16.3516   -9.0557 H   0  0  0  0  0  0  0  0  0  0  0  0
  -16.2146  -18.1569   -7.8418 N   0  0  0  0  0  0  0  0  0  0  0  0
  -16.3709  -18.9661   -6.7851 C   0  0  0  0  0  0  0  0  0  0  0  0
  -15.5753  -20.0691   -6.9409 N   0  0  0  0  0  0  0  0  0  0  0  0
  -15.5071  -21.1922   -5.9358 C   0  0  0  0  0  0  0  0  0  0  0  0
  -14.9151  -19.8787   -8.1023 C   0  0  0  0  0  0  0  0  0  0  0  0
  -13.9581  -20.6736   -8.8601 C   0  0  0  0  0  0  0  0  0  0  0  0
  -13.5799  -21.7613   -8.3953 O   0  0  0  0  0  0  0  0  0  0  0  0
  -13.5235  -20.1879  -10.0424 N   0  0  0  0  0  0  0  0  0  0  0  0
  -13.9478  -18.9833  -10.5651 C   0  0  0  0  0  0  0  0  0  0  0  0
  -13.4652  -18.5801  -11.7509 N   0  0  0  0  0  0  0  0  0  0  0  0
  -14.8659  -18.2121   -9.9355 N   0  0  0  0  0  0  0  0  0  0  0  0
  -15.3403  -18.6266   -8.7075 C   0  0  0  0  0  0  0  0  0  0  0  0
  -12.8727  -20.7185  -10.5563 H   0  0  0  0  0  0  0  0  0  0  0  0
  -12.7972  -19.1283  -12.2226 H   0  0  0  0  0  0  0  0  0  0  0  0
  -13.7793  -17.7362  -12.1489 H   0  0  0  0  0  0  0  0  0  0  0  0
  -16.1296  -15.3288   -5.4059 C   0  0  0  0  0  0  0  0  0  0  0  0
  -17.1306  -15.0376   -4.3633 O   0  0  0  0  0  0  0  0  0  0  0  0
  -17.9539  -16.0654   -3.4611 P   0  0  0  0  0  0  0  0  0  0  0  0
  -17.7048  -17.4917   -3.9281 O   0  0  0  0  0  0  0  0  0  0  0  0
  -17.7031  -15.5223   -2.1324 O   0  0  0  0  0  0  0  0  0  0  0  0
  -18.2096  -18.1065   -3.3731 H   0  0  0  0  0  0  0  0  0  0  0  0
  -19.4601  -15.6515   -3.7896 O   0  0  0  0  0  0  0  0  0  0  0  0
  -20.7974  -16.5092   -3.8940 P   0  0  0  0  0  0  0  0  0  0  0  0
  -22.1008  -15.8374   -3.5045 O   0  0  0  0  0  0  0  0  0  0  0  0
  -20.7651  -17.0859   -5.2866 O   0  0  0  0  0  0  0  0  0  0  0  0
  -22.3455  -15.1887   -4.1828 H   0  0  0  0  0  0  0  0  0  0  0  0
  -20.4597  -17.5664   -2.7248 O   0  0  0  0  0  0  0  0  0  0  0  0
  -20.9171  -17.5883   -1.1385 P   0  0  0  0  0  0  0  0  0  0  0  0
  -20.0898  -16.4031   -0.6696 O   0  0  0  0  0  0  0  0  0  0  0  0
  -20.3052  -18.8664   -0.5439 O   0  0  0  0  0  0  0  0  0  0  0  0
  -22.4357  -17.2822   -0.8856 O   0  0  0  0  0  0  0  0  0  0  0  0
  -19.1493  -16.5846   -0.8225 H   0  0  0  0  0  0  0  0  0  0  0  0
  -22.6741  -16.4482   -1.3199 H   0  0  0  0  0  0  0  0  0  0  0  0
 27 28  1  0  0  0
 27 29  2  0  0  0
 27 31  1  0  0  0
 27 26  1  0  0  0
 31 32  1  0  0  0
 26 25  1  0  0  0
 32 33  1  0  0  0
 32 34  2  0  0  0
 32 36  1  0  0  0
 36 37  1  0  0  0
 37 38  1  0  0  0
 37 39  2  0  0  0
 37 40  1  0  0  0
 25  1  1  0  0  0
  1  2  1  0  0  0
  1  3  1  0  0  0
  2  7  1  0  0  0
  3  4  1  0  0  0
  3  5  1  0  0  0
  5  6  1  0  0  0
  5  7  1  0  0  0
  7 10  1  0  0  0
 10 11  1  0  0  0
 10 21  1  0  0  0
 11 12  2  0  0  0
 12 13  1  0  0  0
 12 14  1  0  0  0
 14 15  1  0  0  0
 14 21  2  0  0  0
 15 16  2  0  0  0
 15 17  1  0  0  0
 17 18  1  0  0  0
 18 19  1  0  0  0
 18 20  2  0  0  0
 20 21  1  0  0  0
 28 30  1  0  0  0
 33 35  1  0  0  0
 38 41  1  0  0  0
 40 42  1  0  0  0
  4  8  1  0  0  0
  6  9  1  0  0  0
 17 22  1  0  0  0
 19 23  1  0  0  0
 19 24  1  0  0  0
M  CHG 1  12   1
M  END
> <minimizedAffinity>
-8.73164

$$$$
4EMR_MGP_A_301


 42 44  0  0  0  0  0  0  0  0999 V2000
  -17.5824  -15.0449   -6.8791 C   0  0  0  0  0  0  0  0  0  0  0  0
  -16.2980  -15.6871   -7.1018 O   0  0  0  0  0  0  0  0  0  0  0  0
  -18.4990  -15.1244   -8.1219 C   0  0  0  0  0  0  0  0  0  0  0  0
  -18.1990  -14.0666   -9.0975 O   0  0  0  0  0  0  0  0  0  0  0  0
  -18.0342  -16.4091   -8.7255 C   0  0  0  0  0  0  0  0  0  0  0  0
  -18.2402  -16.4395  -10.1556 O   0  0  0  0  0  0  0  0  0  0  0  0
  -16.5613  -16.3961   -8.3290 C   0  0  0  0  0  0  0  0  0  0  0  0
  -17.2624  -14.1120   -9.3458 H   0  0  0  0  0  0  0  0  0  0  0  0
  -17.7961  -15.6792  -10.5624 H   0  0  0  0  0  0  0  0  0  0  0  0
  -16.1268  -17.7438   -7.9419 N   0  0  0  0  0  0  0  0  0  0  0  0
  -16.3864  -18.4966   -6.8640 C   0  0  0  0  0  0  0  0  0  0  0  0
  -15.7076  -19.6807   -6.9675 N   0  0  0  0  0  0  0  0  0  0  0  0
  -15.7757  -20.7705   -5.9263 C   0  0  0  0  0  0  0  0  0  0  0  0
  -15.0096  -19.5989   -8.1194 C   0  0  0  0  0  0  0  0  0  0  0  0
  -14.1268  -20.5138   -8.8306 C   0  0  0  0  0  0  0  0  0  0  0  0
  -13.8729  -21.6186   -8.3236 O   0  0  0  0  0  0  0  0  0  0  0  0
  -13.6219  -20.1157  -10.0177 N   0  0  0  0  0  0  0  0  0  0  0  0
  -13.9082  -18.8919  -10.5872 C   0  0  0  0  0  0  0  0  0  0  0  0
  -13.3642  -18.5809  -11.7742 N   0  0  0  0  0  0  0  0  0  0  0  0
  -14.7524  -18.0089  -10.0026 N   0  0  0  0  0  0  0  0  0  0  0  0
  -15.2903  -18.3305   -8.7729 C   0  0  0  0  0  0  0  0  0  0  0  0
  -13.0205  -20.7280  -10.5002 H   0  0  0  0  0  0  0  0  0  0  0  0
  -12.7484  -19.2109  -12.2136 H   0  0  0  0  0  0  0  0  0  0  0  0
  -13.5809  -17.7228  -12.2053 H   0  0  0  0  0  0  0  0  0  0  0  0
  -18.2600  -15.6791   -5.6779 C   0  0  0  0  0  0  0  0  0  0  0  0
  -19.7252  -15.5715   -5.5542 O   0  0  0  0  0  0  0  0  0  0  0  0
  -20.7614  -16.6665   -5.0290 P   0  0  0  0  0  0  0  0  0  0  0  0
  -21.9359  -15.9903   -4.3379 O   0  0  0  0  0  0  0  0  0  0  0  0
  -20.8177  -17.5608   -6.1781 O   0  0  0  0  0  0  0  0  0  0  0  0
  -22.5580  -16.6648   -4.0235 H   0  0  0  0  0  0  0  0  0  0  0  0
  -19.8857  -17.4503   -3.9490 O   0  0  0  0  0  0  0  0  0  0  0  0
  -20.0317  -17.5991   -2.3705 P   0  0  0  0  0  0  0  0  0  0  0  0
  -21.2329  -16.9518   -1.7073 O   0  0  0  0  0  0  0  0  0  0  0  0
  -19.8795  -19.0775   -2.1175 O   0  0  0  0  0  0  0  0  0  0  0  0
  -22.0335  -17.4526   -1.9287 H   0  0  0  0  0  0  0  0  0  0  0  0
  -18.7486  -16.7147   -1.9575 O   0  0  0  0  0  0  0  0  0  0  0  0
  -18.5934  -15.0826   -1.7615 P   0  0  0  0  0  0  0  0  0  0  0  0
  -19.6443  -14.6534   -2.7716 O   0  0  0  0  0  0  0  0  0  0  0  0
  -17.2099  -14.7231   -2.3256 O   0  0  0  0  0  0  0  0  0  0  0  0
  -19.0002  -14.5469   -0.3433 O   0  0  0  0  0  0  0  0  0  0  0  0
  -19.3999  -14.9809   -3.6513 H   0  0  0  0  0  0  0  0  0  0  0  0
  -19.8941  -14.8545   -0.1257 H   0  0  0  0  0  0  0  0  0  0  0  0
 27 28  1  0  0  0
 27 29  2  0  0  0
 27 31  1  0  0  0
 27 26  1  0  0  0
 31 32  1  0  0  0
 26 25  1  0  0  0
 32 33  1  0  0  0
 32 34  2  0  0  0
 32 36  1  0  0  0
 36 37  1  0  0  0
 37 38  1  0  0  0
 37 39  2  0  0  0
 37 40  1  0  0  0
 25  1  1  0  0  0
  1  2  1  0  0  0
  1  3  1  0  0  0
  2  7  1  0  0  0
  3  4  1  0  0  0
  3  5  1  0  0  0
  5  6  1  0  0  0
  5  7  1  0  0  0
  7 10  1  0  0  0
 10 11  1  0  0  0
 10 21  1  0  0  0
 11 12  2  0  0  0
 12 13  1  0  0  0
 12 14  1  0  0  0
 14 15  1  0  0  0
 14 21  2  0  0  0
 15 16  2  0  0  0
 15 17  1  0  0  0
 17 18  1  0  0  0
 18 19  1  0  0  0
 18 20  2  0  0  0
 20 21  1  0  0  0
 28 30  1  0  0  0
 33 35  1  0  0  0
 38 41  1  0  0  0
 40 42  1  0  0  0
  4  8  1  0  0  0
  6  9  1  0  0  0
 17 22  1  0  0  0
 19 23  1  0  0  0
 19 24  1  0  0  0
M  CHG 1  12   1
M  END
> <minimizedAffinity>
-8.70367

$$$$
4EMR_MGP_A_301


 42 44  0  0  0  0  0  0  0  0999 V2000
  -16.2042  -15.1246   -6.8601 C   0  0  0  0  0  0  0  0  0  0  0  0
  -15.5125  -16.0592   -7.7317 O   0  0  0  0  0  0  0  0  0  0  0  0
  -17.7401  -15.2015   -7.0219 C   0  0  0  0  0  0  0  0  0  0  0  0
  -18.2153  -14.4066   -8.1634 O   0  0  0  0  0  0  0  0  0  0  0  0
  -17.9059  -16.6369   -7.4000 C   0  0  0  0  0  0  0  0  0  0  0  0
  -19.0930  -16.8520   -8.1956 O   0  0  0  0  0  0  0  0  0  0  0  0
  -16.6121  -16.8822   -8.1698 C   0  0  0  0  0  0  0  0  0  0  0  0
  -17.7602  -14.6949   -8.9700 H   0  0  0  0  0  0  0  0  0  0  0  0
  -19.0637  -16.2830   -8.9806 H   0  0  0  0  0  0  0  0  0  0  0  0
  -16.0760  -18.2116   -7.8532 N   0  0  0  0  0  0  0  0  0  0  0  0
  -16.2515  -19.0242   -6.8020 C   0  0  0  0  0  0  0  0  0  0  0  0
  -15.4977  -20.1536   -6.9751 N   0  0  0  0  0  0  0  0  0  0  0  0
  -15.4606  -21.2874   -5.9804 C   0  0  0  0  0  0  0  0  0  0  0  0
  -14.8420  -19.9767   -8.1411 C   0  0  0  0  0  0  0  0  0  0  0  0
  -13.9214  -20.7986   -8.9150 C   0  0  0  0  0  0  0  0  0  0  0  0
  -13.5783  -21.9033   -8.4633 O   0  0  0  0  0  0  0  0  0  0  0  0
  -13.4807  -20.3183  -10.0973 N   0  0  0  0  0  0  0  0  0  0  0  0
  -13.8662  -19.0946  -10.6054 C   0  0  0  0  0  0  0  0  0  0  0  0
  -13.3805  -18.6984  -11.7923 N   0  0  0  0  0  0  0  0  0  0  0  0
  -14.7499  -18.2966   -9.9603 N   0  0  0  0  0  0  0  0  0  0  0  0
  -15.2274  -18.7047   -8.7314 C   0  0  0  0  0  0  0  0  0  0  0  0
  -12.8543  -20.8674  -10.6220 H   0  0  0  0  0  0  0  0  0  0  0  0
  -12.7372  -19.2659  -12.2752 H   0  0  0  0  0  0  0  0  0  0  0  0
  -13.6677  -17.8402  -12.1799 H   0  0  0  0  0  0  0  0  0  0  0  0
  -15.8077  -15.3929   -5.4197 C   0  0  0  0  0  0  0  0  0  0  0  0
  -16.2289  -16.6602   -4.7948 O   0  0  0  0  0  0  0  0  0  0  0  0
  -16.6003  -16.9402   -3.2676 P   0  0  0  0  0  0  0  0  0  0  0  0
  -17.5709  -18.1074   -3.1680 O   0  0  0  0  0  0  0  0  0  0  0  0
  -15.2868  -16.8375   -2.6451 O   0  0  0  0  0  0  0  0  0  0  0  0
  -17.7890  -18.2679   -2.2365 H   0  0  0  0  0  0  0  0  0  0  0  0
  -17.3469  -15.5889   -2.8623 O   0  0  0  0  0  0  0  0  0  0  0  0
  -18.8853  -15.1794   -2.8832 P   0  0  0  0  0  0  0  0  0  0  0  0
  -19.6992  -15.4228   -1.6261 O   0  0  0  0  0  0  0  0  0  0  0  0
  -18.8880  -13.7569   -3.3828 O   0  0  0  0  0  0  0  0  0  0  0  0
  -19.4364  -14.7867   -0.9426 H   0  0  0  0  0  0  0  0  0  0  0  0
  -19.3771  -16.2687   -3.9652 O   0  0  0  0  0  0  0  0  0  0  0  0
  -20.8114  -16.4020   -4.7720 P   0  0  0  0  0  0  0  0  0  0  0  0
  -20.7255  -15.1055   -5.5597 O   0  0  0  0  0  0  0  0  0  0  0  0
  -21.9073  -16.2448   -3.7063 O   0  0  0  0  0  0  0  0  0  0  0  0
  -20.8935  -17.6049   -5.7770 O   0  0  0  0  0  0  0  0  0  0  0  0
  -20.6744  -14.3566   -4.9453 H   0  0  0  0  0  0  0  0  0  0  0  0
  -20.1380  -17.5709   -6.3845 H   0  0  0  0  0  0  0  0  0  0  0  0
 27 28  1  0  0  0
 27 29  2  0  0  0
 27 31  1  0  0  0
 27 26  1  0  0  0
 31 32  1  0  0  0
 26 25  1  0  0  0
 32 33  1  0  0  0
 32 34  2  0  0  0
 32 36  1  0  0  0
 36 37  1  0  0  0
 37 38  1  0  0  0
 37 39  2  0  0  0
 37 40  1  0  0  0
 25  1  1  0  0  0
  1  2  1  0  0  0
  1  3  1  0  0  0
  2  7  1  0  0  0
  3  4  1  0  0  0
  3  5  1  0  0  0
  5  6  1  0  0  0
  5  7  1  0  0  0
  7 10  1  0  0  0
 10 11  1  0  0  0
 10 21  1  0  0  0
 11 12  2  0  0  0
 12 13  1  0  0  0
 12 14  1  0  0  0
 14 15  1  0  0  0
 14 21  2  0  0  0
 15 16  2  0  0  0
 15 17  1  0  0  0
 17 18  1  0  0  0
 18 19  1  0  0  0
 18 20  2  0  0  0
 20 21  1  0  0  0
 28 30  1  0  0  0
 33 35  1  0  0  0
 38 41  1  0  0  0
 40 42  1  0  0  0
  4  8  1  0  0  0
  6  9  1  0  0  0
 17 22  1  0  0  0
 19 23  1  0  0  0
 19 24  1  0  0  0
M  CHG 1  12   1
M  END
> <minimizedAffinity>
-8.31116

$$$$
4EMR_MGP_A_301


 42 44  0  0  0  0  0  0  0  0999 V2000
  -18.1998  -14.9955   -5.4858 C   0  0  0  0  0  0  0  0  0  0  0  0
  -17.2766  -15.2481   -6.5792 O   0  0  0  0  0  0  0  0  0  0  0  0
  -19.6354  -15.4688   -5.8116 C   0  0  0  0  0  0  0  0  0  0  0  0
  -20.3789  -14.4749   -6.5990 O   0  0  0  0  0  0  0  0  0  0  0  0
  -19.3471  -16.6131   -6.7274 C   0  0  0  0  0  0  0  0  0  0  0  0
  -20.4303  -16.8487   -7.6546 O   0  0  0  0  0  0  0  0  0  0  0  0
  -18.0703  -16.1245   -7.4039 C   0  0  0  0  0  0  0  0  0  0  0  0
  -19.8838  -14.2662   -7.4066 H   0  0  0  0  0  0  0  0  0  0  0  0
  -20.6115  -16.0366   -8.1532 H   0  0  0  0  0  0  0  0  0  0  0  0
  -17.1271  -17.2365   -7.5737 N   0  0  0  0  0  0  0  0  0  0  0  0
  -16.8283  -18.2877   -6.7980 C   0  0  0  0  0  0  0  0  0  0  0  0
  -15.8473  -19.0279   -7.4009 N   0  0  0  0  0  0  0  0  0  0  0  0
  -15.2729  -20.2885   -6.8032 C   0  0  0  0  0  0  0  0  0  0  0  0
  -15.5457  -18.3708   -8.5402 C   0  0  0  0  0  0  0  0  0  0  0  0
  -14.6297  -18.6316   -9.6423 C   0  0  0  0  0  0  0  0  0  0  0  0
  -13.8992  -19.6345   -9.5911 O   0  0  0  0  0  0  0  0  0  0  0  0
  -14.6172  -17.7646  -10.6772 N   0  0  0  0  0  0  0  0  0  0  0  0
  -15.4332  -16.6536  -10.7405 C   0  0  0  0  0  0  0  0  0  0  0  0
  -15.3563  -15.8474  -11.8110 N   0  0  0  0  0  0  0  0  0  0  0  0
  -16.3370  -16.3716   -9.7723 N   0  0  0  0  0  0  0  0  0  0  0  0
  -16.3935  -17.1960   -8.6668 C   0  0  0  0  0  0  0  0  0  0  0  0
  -13.9963  -17.9332  -11.4224 H   0  0  0  0  0  0  0  0  0  0  0  0
  -14.7051  -16.0373  -12.5244 H   0  0  0  0  0  0  0  0  0  0  0  0
  -15.9513  -15.0663  -11.8826 H   0  0  0  0  0  0  0  0  0  0  0  0
  -17.6886  -15.6758   -4.2289 C   0  0  0  0  0  0  0  0  0  0  0  0
  -17.9277  -15.0271   -2.9267 O   0  0  0  0  0  0  0  0  0  0  0  0
  -18.2474  -15.7102   -1.5197 P   0  0  0  0  0  0  0  0  0  0  0  0
  -19.3609  -14.9552   -0.8095 O   0  0  0  0  0  0  0  0  0  0  0  0
  -18.2444  -17.1184   -1.8943 O   0  0  0  0  0  0  0  0  0  0  0  0
  -19.5462  -15.3790    0.0431 H   0  0  0  0  0  0  0  0  0  0  0  0
  -16.8735  -15.4972   -0.7358 O   0  0  0  0  0  0  0  0  0  0  0  0
  -15.8330  -14.2920   -0.7267 P   0  0  0  0  0  0  0  0  0  0  0  0
  -15.6060  -13.5438   -2.0269 O   0  0  0  0  0  0  0  0  0  0  0  0
  -16.2605  -13.4364    0.4387 O   0  0  0  0  0  0  0  0  0  0  0  0
  -16.3846  -13.0014   -2.2280 H   0  0  0  0  0  0  0  0  0  0  0  0
  -14.5038  -15.1652   -0.4627 O   0  0  0  0  0  0  0  0  0  0  0  0
  -13.6241  -16.1110   -1.4912 P   0  0  0  0  0  0  0  0  0  0  0  0
  -13.3236  -15.0516   -2.5383 O   0  0  0  0  0  0  0  0  0  0  0  0
  -14.6209  -17.1131   -2.0943 O   0  0  0  0  0  0  0  0  0  0  0  0
  -12.2705  -16.6441   -0.9021 O   0  0  0  0  0  0  0  0  0  0  0  0
  -14.1558  -14.7168   -2.9076 H   0  0  0  0  0  0  0  0  0  0  0  0
  -11.7508  -15.8996   -0.5607 H   0  0  0  0  0  0  0  0  0  0  0  0
 27 28  1  0  0  0
 27 29  2  0  0  0
 27 31  1  0  0  0
 27 26  1  0  0  0
 31 32  1  0  0  0
 26 25  1  0  0  0
 32 33  1  0  0  0
 32 34  2  0  0  0
 32 36  1  0  0  0
 36 37  1  0  0  0
 37 38  1  0  0  0
 37 39  2  0  0  0
 37 40  1  0  0  0
 25  1  1  0  0  0
  1  2  1  0  0  0
  1  3  1  0  0  0
  2  7  1  0  0  0
  3  4  1  0  0  0
  3  5  1  0  0  0
  5  6  1  0  0  0
  5  7  1  0  0  0
  7 10  1  0  0  0
 10 11  1  0  0  0
 10 21  1  0  0  0
 11 12  2  0  0  0
 12 13  1  0  0  0
 12 14  1  0  0  0
 14 15  1  0  0  0
 14 21  2  0  0  0
 15 16  2  0  0  0
 15 17  1  0  0  0
 17 18  1  0  0  0
 18 19  1  0  0  0
 18 20  2  0  0  0
 20 21  1  0  0  0
 28 30  1  0  0  0
 33 35  1  0  0  0
 38 41  1  0  0  0
 40 42  1  0  0  0
  4  8  1  0  0  0
  6  9  1  0  0  0
 17 22  1  0  0  0
 19 23  1  0  0  0
 19 24  1  0  0  0
M  CHG 1  12   1
M  END
> <minimizedAffinity>
-8.18303

$$$$
4EMR_MGP_A_301


 42 44  0  0  0  0  0  0  0  0999 V2000
  -18.7004  -15.0252   -5.4198 C   0  0  0  0  0  0  0  0  0  0  0  0
  -17.6703  -15.2497   -6.4198 O   0  0  0  0  0  0  0  0  0  0  0  0
  -20.0827  -15.5458   -5.8775 C   0  0  0  0  0  0  0  0  0  0  0  0
  -20.7801  -14.5781   -6.7365 O   0  0  0  0  0  0  0  0  0  0  0  0
  -19.6723  -16.6818   -6.7562 C   0  0  0  0  0  0  0  0  0  0  0  0
  -20.6547  -16.9544   -7.7804 O   0  0  0  0  0  0  0  0  0  0  0  0
  -18.3536  -16.1531   -7.3114 C   0  0  0  0  0  0  0  0  0  0  0  0
  -20.2179  -14.3549   -7.4948 H   0  0  0  0  0  0  0  0  0  0  0  0
  -20.8140  -16.1496   -8.2980 H   0  0  0  0  0  0  0  0  0  0  0  0
  -17.3631  -17.2340   -7.3858 N   0  0  0  0  0  0  0  0  0  0  0  0
  -17.0599  -18.2341   -6.5467 C   0  0  0  0  0  0  0  0  0  0  0  0
  -16.0265  -18.9634   -7.0702 N   0  0  0  0  0  0  0  0  0  0  0  0
  -15.4323  -20.1701   -6.3869 C   0  0  0  0  0  0  0  0  0  0  0  0
  -15.6997  -18.3505   -8.2271 C   0  0  0  0  0  0  0  0  0  0  0  0
  -14.7270  -18.6278   -9.2753 C   0  0  0  0  0  0  0  0  0  0  0  0
  -13.9626  -19.5976   -9.1435 O   0  0  0  0  0  0  0  0  0  0  0  0
  -14.7013  -17.8119  -10.3506 N   0  0  0  0  0  0  0  0  0  0  0  0
  -15.5544  -16.7381  -10.5035 C   0  0  0  0  0  0  0  0  0  0  0  0
  -15.4606  -15.9820  -11.6085 N   0  0  0  0  0  0  0  0  0  0  0  0
  -16.5099  -16.4456   -9.5894 N   0  0  0  0  0  0  0  0  0  0  0  0
  -16.5842  -17.2173   -8.4476 C   0  0  0  0  0  0  0  0  0  0  0  0
  -14.0423  -17.9915  -11.0596 H   0  0  0  0  0  0  0  0  0  0  0  0
  -14.7719  -16.1802  -12.2836 H   0  0  0  0  0  0  0  0  0  0  0  0
  -16.0804  -15.2292  -11.7440 H   0  0  0  0  0  0  0  0  0  0  0  0
  -18.2888  -15.6861   -4.1168 C   0  0  0  0  0  0  0  0  0  0  0  0
  -17.3316  -14.9862   -3.2406 O   0  0  0  0  0  0  0  0  0  0  0  0
  -15.7461  -15.1560   -3.1643 P   0  0  0  0  0  0  0  0  0  0  0  0
  -15.1722  -15.3663   -4.5574 O   0  0  0  0  0  0  0  0  0  0  0  0
  -15.4037  -14.0942   -2.2269 O   0  0  0  0  0  0  0  0  0  0  0  0
  -14.2093  -15.4681   -4.4984 H   0  0  0  0  0  0  0  0  0  0  0  0
  -15.6043  -16.5028   -2.3195 O   0  0  0  0  0  0  0  0  0  0  0  0
  -16.0412  -16.8746   -0.8343 P   0  0  0  0  0  0  0  0  0  0  0  0
  -16.1164  -15.7515    0.1829 O   0  0  0  0  0  0  0  0  0  0  0  0
  -17.3102  -17.6705   -1.0049 O   0  0  0  0  0  0  0  0  0  0  0  0
  -16.8849  -15.1918   -0.0096 H   0  0  0  0  0  0  0  0  0  0  0  0
  -14.7467  -17.7550   -0.4496 O   0  0  0  0  0  0  0  0  0  0  0  0
  -13.1921  -17.6669   -0.9989 P   0  0  0  0  0  0  0  0  0  0  0  0
  -13.3663  -18.5175   -2.2459 O   0  0  0  0  0  0  0  0  0  0  0  0
  -12.3463  -18.4604    0.0094 O   0  0  0  0  0  0  0  0  0  0  0  0
  -12.7228  -16.2303   -1.4228 O   0  0  0  0  0  0  0  0  0  0  0  0
  -13.6564  -19.4076   -1.9923 H   0  0  0  0  0  0  0  0  0  0  0  0
  -13.3535  -15.8588   -2.0592 H   0  0  0  0  0  0  0  0  0  0  0  0
 27 28  1  0  0  0
 27 29  2  0  0  0
 27 31  1  0  0  0
 27 26  1  0  0  0
 31 32  1  0  0  0
 26 25  1  0  0  0
 32 33  1  0  0  0
 32 34  2  0  0  0
 32 36  1  0  0  0
 36 37  1  0  0  0
 37 38  1  0  0  0
 37 39  2  0  0  0
 37 40  1  0  0  0
 25  1  1  0  0  0
  1  2  1  0  0  0
  1  3  1  0  0  0
  2  7  1  0  0  0
  3  4  1  0  0  0
  3  5  1  0  0  0
  5  6  1  0  0  0
  5  7  1  0  0  0
  7 10  1  0  0  0
 10 11  1  0  0  0
 10 21  1  0  0  0
 11 12  2  0  0  0
 12 13  1  0  0  0
 12 14  1  0  0  0
 14 15  1  0  0  0
 14 21  2  0  0  0
 15 16  2  0  0  0
 15 17  1  0  0  0
 17 18  1  0  0  0
 18 19  1  0  0  0
 18 20  2  0  0  0
 20 21  1  0  0  0
 28 30  1  0  0  0
 33 35  1  0  0  0
 38 41  1  0  0  0
 40 42  1  0  0  0
  4  8  1  0  0  0
  6  9  1  0  0  0
 17 22  1  0  0  0
 19 23  1  0  0  0
 19 24  1  0  0  0
M  CHG 1  12   1
M  END
> <minimizedAffinity>
-7.81977

$$$$
4EMR_MGP_A_301


 42 44  0  0  0  0  0  0  0  0999 V2000
  -18.5425  -14.8352   -5.5747 C   0  0  0  0  0  0  0  0  0  0  0  0
  -17.5861  -15.1458   -6.6237 O   0  0  0  0  0  0  0  0  0  0  0  0
  -19.9578  -15.3681   -5.8974 C   0  0  0  0  0  0  0  0  0  0  0  0
  -20.7043  -14.4554   -6.7751 O   0  0  0  0  0  0  0  0  0  0  0  0
  -19.6194  -16.5702   -6.7168 C   0  0  0  0  0  0  0  0  0  0  0  0
  -20.6727  -16.9023   -7.6487 O   0  0  0  0  0  0  0  0  0  0  0  0
  -18.3376  -16.1016   -7.3981 C   0  0  0  0  0  0  0  0  0  0  0  0
  -20.1939  -14.2954   -7.5844 H   0  0  0  0  0  0  0  0  0  0  0  0
  -20.8603  -16.1349   -8.2116 H   0  0  0  0  0  0  0  0  0  0  0  0
  -17.3644  -17.1988   -7.4609 N   0  0  0  0  0  0  0  0  0  0  0  0
  -17.0882  -18.2040   -6.6187 C   0  0  0  0  0  0  0  0  0  0  0  0
  -16.0607  -18.9502   -7.1299 N   0  0  0  0  0  0  0  0  0  0  0  0
  -15.4951  -20.1669   -6.4399 C   0  0  0  0  0  0  0  0  0  0  0  0
  -15.7096  -18.3425   -8.2823 C   0  0  0  0  0  0  0  0  0  0  0  0
  -14.7288  -18.6357   -9.3187 C   0  0  0  0  0  0  0  0  0  0  0  0
  -13.9824  -19.6181   -9.1780 O   0  0  0  0  0  0  0  0  0  0  0  0
  -14.6764  -17.8199  -10.3932 N   0  0  0  0  0  0  0  0  0  0  0  0
  -15.5096  -16.7320  -10.5560 C   0  0  0  0  0  0  0  0  0  0  0  0
  -15.3897  -15.9773  -11.6594 N   0  0  0  0  0  0  0  0  0  0  0  0
  -16.4712  -16.4240   -9.6535 N   0  0  0  0  0  0  0  0  0  0  0  0
  -16.5723  -17.1948   -8.5131 C   0  0  0  0  0  0  0  0  0  0  0  0
  -14.0119  -18.0103  -11.0942 H   0  0  0  0  0  0  0  0  0  0  0  0
  -14.6962  -16.1867  -12.3261 H   0  0  0  0  0  0  0  0  0  0  0  0
  -15.9952  -15.2143  -11.8020 H   0  0  0  0  0  0  0  0  0  0  0  0
  -18.0475  -15.4059   -4.2581 C   0  0  0  0  0  0  0  0  0  0  0  0
  -19.0199  -15.6223   -3.1712 O   0  0  0  0  0  0  0  0  0  0  0  0
  -19.4189  -16.9907   -2.4524 P   0  0  0  0  0  0  0  0  0  0  0  0
  -19.3424  -16.8327   -0.9412 O   0  0  0  0  0  0  0  0  0  0  0  0
  -20.5855  -17.3787   -3.2347 O   0  0  0  0  0  0  0  0  0  0  0  0
  -19.5867  -17.6696   -0.5159 H   0  0  0  0  0  0  0  0  0  0  0  0
  -18.2573  -17.9676   -2.9465 O   0  0  0  0  0  0  0  0  0  0  0  0
  -17.7212  -19.3532   -2.3741 P   0  0  0  0  0  0  0  0  0  0  0  0
  -16.5723  -20.0231   -3.1043 O   0  0  0  0  0  0  0  0  0  0  0  0
  -17.4809  -19.0861   -0.9099 O   0  0  0  0  0  0  0  0  0  0  0  0
  -15.7545  -19.5266   -2.9449 H   0  0  0  0  0  0  0  0  0  0  0  0
  -19.0365  -20.2315   -2.6862 O   0  0  0  0  0  0  0  0  0  0  0  0
  -19.4800  -21.0438   -4.0536 P   0  0  0  0  0  0  0  0  0  0  0  0
  -19.7936  -19.8344   -4.9185 O   0  0  0  0  0  0  0  0  0  0  0  0
  -20.8034  -21.7464   -3.7124 O   0  0  0  0  0  0  0  0  0  0  0  0
  -18.3310  -21.8712   -4.7311 O   0  0  0  0  0  0  0  0  0  0  0  0
  -20.5033  -19.3174   -4.5063 H   0  0  0  0  0  0  0  0  0  0  0  0
  -17.5651  -21.2960   -4.8838 H   0  0  0  0  0  0  0  0  0  0  0  0
 27 28  1  0  0  0
 27 29  2  0  0  0
 27 31  1  0  0  0
 27 26  1  0  0  0
 31 32  1  0  0  0
 26 25  1  0  0  0
 32 33  1  0  0  0
 32 34  2  0  0  0
 32 36  1  0  0  0
 36 37  1  0  0  0
 37 38  1  0  0  0
 37 39  2  0  0  0
 37 40  1  0  0  0
 25  1  1  0  0  0
  1  2  1  0  0  0
  1  3  1  0  0  0
  2  7  1  0  0  0
  3  4  1  0  0  0
  3  5  1  0  0  0
  5  6  1  0  0  0
  5  7  1  0  0  0
  7 10  1  0  0  0
 10 11  1  0  0  0
 10 21  1  0  0  0
 11 12  2  0  0  0
 12 13  1  0  0  0
 12 14  1  0  0  0
 14 15  1  0  0  0
 14 21  2  0  0  0
 15 16  2  0  0  0
 15 17  1  0  0  0
 17 18  1  0  0  0
 18 19  1  0  0  0
 18 20  2  0  0  0
 20 21  1  0  0  0
 28 30  1  0  0  0
 33 35  1  0  0  0
 38 41  1  0  0  0
 40 42  1  0  0  0
  4  8  1  0  0  0
  6  9  1  0  0  0
 17 22  1  0  0  0
 19 23  1  0  0  0
 19 24  1  0  0  0
M  CHG 1  12   1
M  END
> <minimizedAffinity>
-7.79978

$$$$
