5UF0_89J_A_501


 17 18  0  0  0  0  0  0  0  0999 V2000
  -11.3168   12.7924   -0.3772 C   0  0  0  0  0  0  0  0  0  0  0  0
  -13.0160   11.1749    0.1774 C   0  0  0  0  0  0  0  0  0  0  0  0
  -10.7064   11.7264   -1.1987 C   0  0  0  0  0  0  0  0  0  0  0  0
  -12.4241   12.5204    0.3385 C   0  0  0  0  0  0  0  0  0  0  0  0
  -10.7287    9.3941   -1.8613 C   0  0  0  0  0  0  0  0  0  0  0  0
  -12.4898   10.2381   -0.5288 N   0  0  0  0  0  0  0  0  0  0  0  0
  -11.3085   10.5015   -1.1364 N   0  0  0  0  0  0  0  0  0  0  0  0
   -9.6658   11.9635   -1.8166 O   0  0  0  0  0  0  0  0  0  0  0  0
  -14.4629   10.6153    2.0953 C   0  0  0  0  0  0  0  0  0  0  0  0
  -15.4366   10.8018   -0.1031 C   0  0  0  0  0  0  0  0  0  0  0  0
  -14.3402   10.8734    0.7444 C   0  0  0  0  0  0  0  0  0  0  0  0
  -16.8097   10.2419    1.7686 C   0  0  0  0  0  0  0  0  0  0  0  0
  -15.7129   10.3065    2.6099 C   0  0  0  0  0  0  0  0  0  0  0  0
  -16.6812   10.4870    0.4157 C   0  0  0  0  0  0  0  0  0  0  0  0
  -12.3350   14.0709    2.2199 C   0  0  0  0  0  0  0  0  0  0  0  0
  -13.0716   13.4112    1.1708 N   0  0  0  0  0  0  0  0  0  0  0  0
  -14.0310   13.5949    1.0487 H   0  0  0  0  0  0  0  0  0  0  0  0
  5  7  1  0  0  0
  8  3  2  0  0  0
  7  3  1  0  0  0
  7  6  1  0  0  0
  3  1  1  0  0  0
  6  2  2  0  0  0
  1  4  2  0  0  0
 10 14  2  0  0  0
 10 11  1  0  0  0
  2  4  1  0  0  0
  2 11  1  0  0  0
  4 16  1  0  0  0
 14 12  1  0  0  0
 11  9  2  0  0  0
 16 15  1  0  0  0
 12 13  2  0  0  0
  9 13  1  0  0  0
 16 17  1  0  0  0
M  END
> <minimizedAffinity>
-6.51359

$$$$
5UF0_89J_A_501


 17 18  0  0  0  0  0  0  0  0999 V2000
  -16.1999   10.3158    2.3168 C   0  0  0  0  0  0  0  0  0  0  0  0
  -14.6404   10.5639    0.4954 C   0  0  0  0  0  0  0  0  0  0  0  0
  -17.2046    9.9857    1.2846 C   0  0  0  0  0  0  0  0  0  0  0  0
  -14.9506   10.6459    1.9389 C   0  0  0  0  0  0  0  0  0  0  0  0
  -17.7319    9.8371   -1.0774 C   0  0  0  0  0  0  0  0  0  0  0  0
  -15.5079   10.2847   -0.4115 N   0  0  0  0  0  0  0  0  0  0  0  0
  -16.7860   10.0809   -0.0125 N   0  0  0  0  0  0  0  0  0  0  0  0
  -18.3605    9.7294    1.6294 O   0  0  0  0  0  0  0  0  0  0  0  0
  -12.7033   11.9422   -0.1630 C   0  0  0  0  0  0  0  0  0  0  0  0
  -12.5327    9.5389   -0.2690 C   0  0  0  0  0  0  0  0  0  0  0  0
  -13.2511   10.6888    0.0262 C   0  0  0  0  0  0  0  0  0  0  0  0
  -10.6804   10.8985   -0.9191 C   0  0  0  0  0  0  0  0  0  0  0  0
  -11.4021   12.0435   -0.6311 C   0  0  0  0  0  0  0  0  0  0  0  0
  -11.2358    9.6467   -0.7419 C   0  0  0  0  0  0  0  0  0  0  0  0
  -13.9691   10.5799    4.1713 C   0  0  0  0  0  0  0  0  0  0  0  0
  -13.9305   11.0083    2.7953 N   0  0  0  0  0  0  0  0  0  0  0  0
  -13.1808   11.5562    2.4682 H   0  0  0  0  0  0  0  0  0  0  0  0
  5  7  1  0  0  0
  8  3  2  0  0  0
  7  3  1  0  0  0
  7  6  1  0  0  0
  3  1  1  0  0  0
  6  2  2  0  0  0
  1  4  2  0  0  0
 10 14  2  0  0  0
 10 11  1  0  0  0
  2  4  1  0  0  0
  2 11  1  0  0  0
  4 16  1  0  0  0
 14 12  1  0  0  0
 11  9  2  0  0  0
 16 15  1  0  0  0
 12 13  2  0  0  0
  9 13  1  0  0  0
 16 17  1  0  0  0
M  END
> <minimizedAffinity>
-6.49368

$$$$
5UF0_89J_A_501


 17 18  0  0  0  0  0  0  0  0999 V2000
  -16.2301   10.7600    1.9000 C   0  0  0  0  0  0  0  0  0  0  0  0
  -13.8851   10.8233    1.3448 C   0  0  0  0  0  0  0  0  0  0  0  0
  -15.8218   11.1814    3.2562 C   0  0  0  0  0  0  0  0  0  0  0  0
  -15.2857   10.5367    0.9669 C   0  0  0  0  0  0  0  0  0  0  0  0
  -14.0009   11.6205    4.7960 C   0  0  0  0  0  0  0  0  0  0  0  0
  -13.5180   11.1835    2.5232 N   0  0  0  0  0  0  0  0  0  0  0  0
  -14.4766   11.2776    3.4752 N   0  0  0  0  0  0  0  0  0  0  0  0
  -16.6846   11.3399    4.1230 O   0  0  0  0  0  0  0  0  0  0  0  0
  -12.3353    9.6208   -0.1509 C   0  0  0  0  0  0  0  0  0  0  0  0
  -12.2993   12.0317   -0.1050 C   0  0  0  0  0  0  0  0  0  0  0  0
  -12.8252   10.8214    0.3238 C   0  0  0  0  0  0  0  0  0  0  0  0
  -10.7967   10.8408   -1.5284 C   0  0  0  0  0  0  0  0  0  0  0  0
  -11.3181    9.6352   -1.0930 C   0  0  0  0  0  0  0  0  0  0  0  0
  -11.2794   12.0394   -1.0415 C   0  0  0  0  0  0  0  0  0  0  0  0
  -16.8858    9.9960   -0.7935 C   0  0  0  0  0  0  0  0  0  0  0  0
  -15.5278   10.1074   -0.3225 N   0  0  0  0  0  0  0  0  0  0  0  0
  -14.7773    9.8785   -0.9171 H   0  0  0  0  0  0  0  0  0  0  0  0
  5  7  1  0  0  0
  8  3  2  0  0  0
  7  3  1  0  0  0
  7  6  1  0  0  0
  3  1  1  0  0  0
  6  2  2  0  0  0
  1  4  2  0  0  0
 10 14  2  0  0  0
 10 11  1  0  0  0
  2  4  1  0  0  0
  2 11  1  0  0  0
  4 16  1  0  0  0
 14 12  1  0  0  0
 11  9  2  0  0  0
 16 15  1  0  0  0
 12 13  2  0  0  0
  9 13  1  0  0  0
 16 17  1  0  0  0
M  END
> <minimizedAffinity>
-6.34171

$$$$
5UF0_89J_A_501


 17 18  0  0  0  0  0  0  0  0999 V2000
  -14.6446   14.0487    3.1522 C   0  0  0  0  0  0  0  0  0  0  0  0
  -13.9024   12.9849    1.1203 C   0  0  0  0  0  0  0  0  0  0  0  0
  -16.0037   13.9847    2.5754 C   0  0  0  0  0  0  0  0  0  0  0  0
  -13.6000   13.6034    2.4290 C   0  0  0  0  0  0  0  0  0  0  0  0
  -17.3810   13.4692    0.6476 C   0  0  0  0  0  0  0  0  0  0  0  0
  -15.0795   12.9301    0.6060 N   0  0  0  0  0  0  0  0  0  0  0  0
  -16.0926   13.4998    1.3011 N   0  0  0  0  0  0  0  0  0  0  0  0
  -16.9533   14.4360    3.2198 O   0  0  0  0  0  0  0  0  0  0  0  0
  -11.9690   12.9919   -0.4118 C   0  0  0  0  0  0  0  0  0  0  0  0
  -12.7995   10.8906    0.4313 C   0  0  0  0  0  0  0  0  0  0  0  0
  -12.8509   12.2760    0.3734 C   0  0  0  0  0  0  0  0  0  0  0  0
  -10.9420   10.9263   -1.0689 C   0  0  0  0  0  0  0  0  0  0  0  0
  -11.0008   12.3076   -1.1306 C   0  0  0  0  0  0  0  0  0  0  0  0
  -11.8341   10.2124   -0.2936 C   0  0  0  0  0  0  0  0  0  0  0  0
  -11.6568   14.9050    3.1227 C   0  0  0  0  0  0  0  0  0  0  0  0
  -12.2807   13.6379    2.8334 N   0  0  0  0  0  0  0  0  0  0  0  0
  -11.7686   12.8019    2.9237 H   0  0  0  0  0  0  0  0  0  0  0  0
  5  7  1  0  0  0
  8  3  2  0  0  0
  7  3  1  0  0  0
  7  6  1  0  0  0
  3  1  1  0  0  0
  6  2  2  0  0  0
  1  4  2  0  0  0
 10 14  2  0  0  0
 10 11  1  0  0  0
  2  4  1  0  0  0
  2 11  1  0  0  0
  4 16  1  0  0  0
 14 12  1  0  0  0
 11  9  2  0  0  0
 16 15  1  0  0  0
 12 13  2  0  0  0
  9 13  1  0  0  0
 16 17  1  0  0  0
M  END
> <minimizedAffinity>
-6.21690

$$$$
5UF0_89J_A_501


 17 18  0  0  0  0  0  0  0  0999 V2000
  -16.2541   10.6045    2.4318 C   0  0  0  0  0  0  0  0  0  0  0  0
  -14.7514   10.7949    0.5566 C   0  0  0  0  0  0  0  0  0  0  0  0
  -17.3085   10.3240    1.4350 C   0  0  0  0  0  0  0  0  0  0  0  0
  -15.0060   10.8822    2.0106 C   0  0  0  0  0  0  0  0  0  0  0  0
  -17.9258   10.2117   -0.9071 C   0  0  0  0  0  0  0  0  0  0  0  0
  -15.6621   10.5587   -0.3197 N   0  0  0  0  0  0  0  0  0  0  0  0
  -16.9327   10.4083    0.1242 N   0  0  0  0  0  0  0  0  0  0  0  0
  -18.4614   10.1162    1.8202 O   0  0  0  0  0  0  0  0  0  0  0  0
  -12.6531    9.6983   -0.1360 C   0  0  0  0  0  0  0  0  0  0  0  0
  -12.8103   12.1034   -0.2161 C   0  0  0  0  0  0  0  0  0  0  0  0
  -13.3756   10.8620    0.0383 C   0  0  0  0  0  0  0  0  0  0  0  0
  -10.7847   11.0159   -0.8616 C   0  0  0  0  0  0  0  0  0  0  0  0
  -11.3489    9.7797   -0.5996 C   0  0  0  0  0  0  0  0  0  0  0  0
  -11.5054   12.1786   -0.6733 C   0  0  0  0  0  0  0  0  0  0  0  0
  -14.0393   12.3191    3.7289 C   0  0  0  0  0  0  0  0  0  0  0  0
  -13.9411   11.1952    2.8313 N   0  0  0  0  0  0  0  0  0  0  0  0
  -13.1192   10.6539    2.8038 H   0  0  0  0  0  0  0  0  0  0  0  0
  5  7  1  0  0  0
  8  3  2  0  0  0
  7  3  1  0  0  0
  7  6  1  0  0  0
  3  1  1  0  0  0
  6  2  2  0  0  0
  1  4  2  0  0  0
 10 14  2  0  0  0
 10 11  1  0  0  0
  2  4  1  0  0  0
  2 11  1  0  0  0
  4 16  1  0  0  0
 14 12  1  0  0  0
 11  9  2  0  0  0
 16 15  1  0  0  0
 12 13  2  0  0  0
  9 13  1  0  0  0
 16 17  1  0  0  0
M  END
> <minimizedAffinity>
-6.16259

$$$$
5UF0_89J_A_501


 17 18  0  0  0  0  0  0  0  0999 V2000
  -11.3459   12.6583    0.5250 C   0  0  0  0  0  0  0  0  0  0  0  0
  -13.6722   12.2650    1.0197 C   0  0  0  0  0  0  0  0  0  0  0  0
  -11.3551   11.3244   -0.1111 C   0  0  0  0  0  0  0  0  0  0  0  0
  -12.4638   13.1110    1.1231 C   0  0  0  0  0  0  0  0  0  0  0  0
  -12.5819    9.2789   -0.5469 C   0  0  0  0  0  0  0  0  0  0  0  0
  -13.6898   11.1004    0.4750 N   0  0  0  0  0  0  0  0  0  0  0  0
  -12.5197   10.6177   -0.0064 N   0  0  0  0  0  0  0  0  0  0  0  0
  -10.3172   10.8914   -0.6173 O   0  0  0  0  0  0  0  0  0  0  0  0
  -15.3823   12.6307    2.7595 C   0  0  0  0  0  0  0  0  0  0  0  0
  -15.8130   13.3742    0.5062 C   0  0  0  0  0  0  0  0  0  0  0  0
  -14.9811   12.7844    1.4472 C   0  0  0  0  0  0  0  0  0  0  0  0
  -17.4584   13.6971    2.2064 C   0  0  0  0  0  0  0  0  0  0  0  0
  -16.6295   13.1014    3.1408 C   0  0  0  0  0  0  0  0  0  0  0  0
  -17.0598   13.8370    0.8917 C   0  0  0  0  0  0  0  0  0  0  0  0
  -12.0010   14.4734    3.0932 C   0  0  0  0  0  0  0  0  0  0  0  0
  -12.5798   14.3184    1.7819 N   0  0  0  0  0  0  0  0  0  0  0  0
  -13.0552   15.0695    1.3587 H   0  0  0  0  0  0  0  0  0  0  0  0
  5  7  1  0  0  0
  8  3  2  0  0  0
  7  3  1  0  0  0
  7  6  1  0  0  0
  3  1  1  0  0  0
  6  2  2  0  0  0
  1  4  2  0  0  0
 10 14  2  0  0  0
 10 11  1  0  0  0
  2  4  1  0  0  0
  2 11  1  0  0  0
  4 16  1  0  0  0
 14 12  1  0  0  0
 11  9  2  0  0  0
 16 15  1  0  0  0
 12 13  2  0  0  0
  9 13  1  0  0  0
 16 17  1  0  0  0
M  END
> <minimizedAffinity>
-6.06945

$$$$
5UF0_89J_A_501


 17 18  0  0  0  0  0  0  0  0999 V2000
  -12.6496   12.9307    0.2941 C   0  0  0  0  0  0  0  0  0  0  0  0
  -14.1722   11.0620    0.3168 C   0  0  0  0  0  0  0  0  0  0  0  0
  -11.6489   11.9851   -0.2429 C   0  0  0  0  0  0  0  0  0  0  0  0
  -13.8766   12.4798    0.6155 C   0  0  0  0  0  0  0  0  0  0  0  0
  -11.0996    9.6884   -0.7928 C   0  0  0  0  0  0  0  0  0  0  0  0
  -13.3077   10.2291   -0.1436 N   0  0  0  0  0  0  0  0  0  0  0  0
  -12.0460   10.6813   -0.3384 N   0  0  0  0  0  0  0  0  0  0  0  0
  -10.5111   12.3897   -0.4925 O   0  0  0  0  0  0  0  0  0  0  0  0
  -16.0170   10.1094    1.6490 C   0  0  0  0  0  0  0  0  0  0  0  0
  -16.3326   10.4729   -0.7141 C   0  0  0  0  0  0  0  0  0  0  0  0
  -15.5479   10.5509    0.4276 C   0  0  0  0  0  0  0  0  0  0  0  0
  -18.0941    9.5338    0.5964 C   0  0  0  0  0  0  0  0  0  0  0  0
  -17.3062    9.6058    1.7318 C   0  0  0  0  0  0  0  0  0  0  0  0
  -17.6171    9.9634   -0.6262 C   0  0  0  0  0  0  0  0  0  0  0  0
  -14.8045   13.6703    2.5321 C   0  0  0  0  0  0  0  0  0  0  0  0
  -14.8889   13.2464    1.1568 N   0  0  0  0  0  0  0  0  0  0  0  0
  -15.6642   13.5023    0.6066 H   0  0  0  0  0  0  0  0  0  0  0  0
  5  7  1  0  0  0
  8  3  2  0  0  0
  7  3  1  0  0  0
  7  6  1  0  0  0
  3  1  1  0  0  0
  6  2  2  0  0  0
  1  4  2  0  0  0
 10 14  2  0  0  0
 10 11  1  0  0  0
  2  4  1  0  0  0
  2 11  1  0  0  0
  4 16  1  0  0  0
 14 12  1  0  0  0
 11  9  2  0  0  0
 16 15  1  0  0  0
 12 13  2  0  0  0
  9 13  1  0  0  0
 16 17  1  0  0  0
M  END
> <minimizedAffinity>
-6.05254

$$$$
5UF0_89J_A_501


 17 18  0  0  0  0  0  0  0  0999 V2000
  -13.2420    9.7473   -0.1331 C   0  0  0  0  0  0  0  0  0  0  0  0
  -14.0656   11.9293    0.4765 C   0  0  0  0  0  0  0  0  0  0  0  0
  -11.9807   10.4294   -0.4910 C   0  0  0  0  0  0  0  0  0  0  0  0
  -14.2868   10.4780    0.2991 C   0  0  0  0  0  0  0  0  0  0  0  0
  -10.8090   12.5317   -0.7848 C   0  0  0  0  0  0  0  0  0  0  0  0
  -12.9753   12.5339    0.1621 N   0  0  0  0  0  0  0  0  0  0  0  0
  -11.9854   11.7918   -0.3889 N   0  0  0  0  0  0  0  0  0  0  0  0
  -11.0403    9.7642   -0.9313 O   0  0  0  0  0  0  0  0  0  0  0  0
  -15.0133   12.9334    2.5207 C   0  0  0  0  0  0  0  0  0  0  0  0
  -16.1104   13.3044    0.4054 C   0  0  0  0  0  0  0  0  0  0  0  0
  -15.0770   12.7575    1.1526 C   0  0  0  0  0  0  0  0  0  0  0  0
  -17.0165   14.2475    2.4033 C   0  0  0  0  0  0  0  0  0  0  0  0
  -15.9889   13.6943    3.1468 C   0  0  0  0  0  0  0  0  0  0  0  0
  -17.0850   14.0582    1.0371 C   0  0  0  0  0  0  0  0  0  0  0  0
  -16.5550    9.8861   -0.3764 C   0  0  0  0  0  0  0  0  0  0  0  0
  -15.5275    9.9724    0.6312 N   0  0  0  0  0  0  0  0  0  0  0  0
  -15.7097    9.6723    1.5510 H   0  0  0  0  0  0  0  0  0  0  0  0
  5  7  1  0  0  0
  8  3  2  0  0  0
  7  3  1  0  0  0
  7  6  1  0  0  0
  3  1  1  0  0  0
  6  2  2  0  0  0
  1  4  2  0  0  0
 10 14  2  0  0  0
 10 11  1  0  0  0
  2  4  1  0  0  0
  2 11  1  0  0  0
  4 16  1  0  0  0
 14 12  1  0  0  0
 11  9  2  0  0  0
 16 15  1  0  0  0
 12 13  2  0  0  0
  9 13  1  0  0  0
 16 17  1  0  0  0
M  END
> <minimizedAffinity>
-5.80708

$$$$
5UF0_89J_A_501


 17 18  0  0  0  0  0  0  0  0999 V2000
  -16.0849   12.2821    2.9160 C   0  0  0  0  0  0  0  0  0  0  0  0
  -13.9469   11.6530    1.9973 C   0  0  0  0  0  0  0  0  0  0  0  0
  -15.6208   11.6574    4.1722 C   0  0  0  0  0  0  0  0  0  0  0  0
  -15.2912   12.2457    1.8293 C   0  0  0  0  0  0  0  0  0  0  0  0
  -13.9135   10.3504    5.2930 C   0  0  0  0  0  0  0  0  0  0  0  0
  -13.5354   11.1007    3.0831 N   0  0  0  0  0  0  0  0  0  0  0  0
  -14.4030   11.0400    4.1212 N   0  0  0  0  0  0  0  0  0  0  0  0
  -16.3681   11.6501    5.1532 O   0  0  0  0  0  0  0  0  0  0  0  0
  -12.5686   10.6575    0.2099 C   0  0  0  0  0  0  0  0  0  0  0  0
  -12.3488   13.0087    0.6991 C   0  0  0  0  0  0  0  0  0  0  0  0
  -12.9423   11.7757    0.9288 C   0  0  0  0  0  0  0  0  0  0  0  0
  -11.0131   12.0140   -1.0122 C   0  0  0  0  0  0  0  0  0  0  0  0
  -11.6014   10.7841   -0.7755 C   0  0  0  0  0  0  0  0  0  0  0  0
  -11.3792   13.1276   -0.2822 C   0  0  0  0  0  0  0  0  0  0  0  0
  -16.7692   13.6129    0.4516 C   0  0  0  0  0  0  0  0  0  0  0  0
  -15.6166   12.7578    0.5894 N   0  0  0  0  0  0  0  0  0  0  0  0
  -15.0648   12.5404   -0.1963 H   0  0  0  0  0  0  0  0  0  0  0  0
  5  7  1  0  0  0
  8  3  2  0  0  0
  7  3  1  0  0  0
  7  6  1  0  0  0
  3  1  1  0  0  0
  6  2  2  0  0  0
  1  4  2  0  0  0
 10 14  2  0  0  0
 10 11  1  0  0  0
  2  4  1  0  0  0
  2 11  1  0  0  0
  4 16  1  0  0  0
 14 12  1  0  0  0
 11  9  2  0  0  0
 16 15  1  0  0  0
 12 13  2  0  0  0
  9 13  1  0  0  0
 16 17  1  0  0  0
M  END
> <minimizedAffinity>
-5.76913

$$$$
5UF0_89J_A_501


 17 18  0  0  0  0  0  0  0  0999 V2000
  -16.5208   13.6207    1.8525 C   0  0  0  0  0  0  0  0  0  0  0  0
  -14.2665   12.8156    1.5681 C   0  0  0  0  0  0  0  0  0  0  0  0
  -16.0359   14.2513    3.0980 C   0  0  0  0  0  0  0  0  0  0  0  0
  -15.6736   12.8760    1.1176 C   0  0  0  0  0  0  0  0  0  0  0  0
  -14.2139   14.5192    4.6752 C   0  0  0  0  0  0  0  0  0  0  0  0
  -13.8354   13.3543    2.6531 N   0  0  0  0  0  0  0  0  0  0  0  0
  -14.7382   13.9906    3.4368 N   0  0  0  0  0  0  0  0  0  0  0  0
  -16.8250   14.8940    3.7944 O   0  0  0  0  0  0  0  0  0  0  0  0
  -13.1130   10.8400    0.6454 C   0  0  0  0  0  0  0  0  0  0  0  0
  -12.3698   13.0446    0.0101 C   0  0  0  0  0  0  0  0  0  0  0  0
  -13.2361   12.2140    0.7065 C   0  0  0  0  0  0  0  0  0  0  0  0
  -11.2593   11.1143   -0.8519 C   0  0  0  0  0  0  0  0  0  0  0  0
  -12.1200   10.2888   -0.1501 C   0  0  0  0  0  0  0  0  0  0  0  0
  -11.3764   12.4883   -0.7779 C   0  0  0  0  0  0  0  0  0  0  0  0
  -16.8436   11.0349    0.0253 C   0  0  0  0  0  0  0  0  0  0  0  0
  -16.0056   12.2061   -0.0427 N   0  0  0  0  0  0  0  0  0  0  0  0
  -15.6720   12.5262   -0.9119 H   0  0  0  0  0  0  0  0  0  0  0  0
  5  7  1  0  0  0
  8  3  2  0  0  0
  7  3  1  0  0  0
  7  6  1  0  0  0
  3  1  1  0  0  0
  6  2  2  0  0  0
  1  4  2  0  0  0
 10 14  2  0  0  0
 10 11  1  0  0  0
  2  4  1  0  0  0
  2 11  1  0  0  0
  4 16  1  0  0  0
 14 12  1  0  0  0
 11  9  2  0  0  0
 16 15  1  0  0  0
 12 13  2  0  0  0
  9 13  1  0  0  0
 16 17  1  0  0  0
M  END
> <minimizedAffinity>
-5.73795

$$$$
