3IES_M24_A_552


 48 53  0  0  0  0  0  0  0  0999 V2000
  -29.4765   10.0295   -8.4813 P   0  0  0  0  0  0  0  0  0  0  0  0
  -28.1584    9.6333   -9.1307 O   0  0  0  0  0  0  0  0  0  0  0  0
  -29.5130   10.7140   -7.1549 O   0  0  0  0  0  0  0  0  0  0  0  0
  -29.0653   11.5719   -7.2213 H   0  0  0  0  0  0  0  0  0  0  0  0
  -30.2683    8.6760   -8.0770 O   0  0  0  0  0  0  0  0  0  0  0  0
  -29.7122    7.5343   -7.4172 C   0  0  0  0  0  0  0  0  0  0  0  0
  -29.5146    7.5816   -6.2153 O   0  0  0  0  0  0  0  0  0  0  0  0
  -29.4208    6.3335   -8.2962 C   0  0  0  0  0  0  0  0  0  0  0  0
  -29.4206    6.5283   -9.6783 C   0  0  0  0  0  0  0  0  0  0  0  0
  -29.1539    5.4878  -10.5519 C   0  0  0  0  0  0  0  0  0  0  0  0
  -28.9102    4.2245  -10.0570 C   0  0  0  0  0  0  0  0  0  0  0  0
  -28.8958    4.0303   -8.6955 C   0  0  0  0  0  0  0  0  0  0  0  0
  -29.1642    5.0726   -7.8006 C   0  0  0  0  0  0  0  0  0  0  0  0
  -28.6180    2.6632   -8.2078 C   0  0  0  0  0  0  0  0  0  0  0  0
  -28.7584    2.3302   -6.9297 N   0  0  0  0  0  0  0  0  0  0  0  0
  -28.4412    1.0349   -6.8551 O   0  0  0  0  0  0  0  0  0  0  0  0
  -28.1055    0.5429   -8.0461 C   0  0  0  0  0  0  0  0  0  0  0  0
  -28.2236    1.5653   -8.9270 N   0  0  0  0  0  0  0  0  0  0  0  0
  -27.6631   -0.8302   -8.2672 C   0  0  0  0  0  0  0  0  0  0  0  0
  -26.3874   -1.1101   -8.6996 C   0  0  0  0  0  0  0  0  0  0  0  0
  -26.0386   -2.4381   -8.9153 C   0  0  0  0  0  0  0  0  0  0  0  0
  -26.9846   -3.4396   -8.7210 C   0  0  0  0  0  0  0  0  0  0  0  0
  -28.2783   -3.1229   -8.3249 C   0  0  0  0  0  0  0  0  0  0  0  0
  -28.6109   -1.8056   -8.0965 C   0  0  0  0  0  0  0  0  0  0  0  0
  -29.8286   -1.4081   -7.7032 F   0  0  0  0  0  0  0  0  0  0  0  0
  -30.4363   10.6874   -9.5933 O   0  0  0  0  0  0  0  0  0  0  0  0
  -29.9467   11.6892  -10.4933 C   0  0  0  0  0  0  0  0  0  0  0  0
  -31.5236   10.6230  -13.5220 C   0  0  0  0  0  0  0  0  0  0  0  0
  -32.7794   10.7356  -12.6687 C   0  0  0  0  0  0  0  0  0  0  0  0
  -33.5066   11.8522  -13.1585 O   0  0  0  0  0  0  0  0  0  0  0  0
  -32.2656   11.0783  -11.2930 C   0  0  0  0  0  0  0  0  0  0  0  0
  -33.2378   11.8548  -10.5727 O   0  0  0  0  0  0  0  0  0  0  0  0
  -30.9890   11.8570  -11.5878 C   0  0  0  0  0  0  0  0  0  0  0  0
  -30.4898   11.3307  -12.8383 O   0  0  0  0  0  0  0  0  0  0  0  0
  -32.9388   12.6385  -13.1458 H   0  0  0  0  0  0  0  0  0  0  0  0
  -33.4577   12.6505  -11.0820 H   0  0  0  0  0  0  0  0  0  0  0  0
  -30.8640    6.8135  -16.9683 N   0  0  0  0  0  0  0  0  0  0  0  0
  -31.3180    8.0690  -17.1368 C   0  0  0  0  0  0  0  0  0  0  0  0
  -31.4207    8.9387  -16.1226 N   0  0  0  0  0  0  0  0  0  0  0  0
  -31.0890    8.5728  -14.8563 C   0  0  0  0  0  0  0  0  0  0  0  0
  -30.6146    7.3090  -14.6064 C   0  0  0  0  0  0  0  0  0  0  0  0
  -30.4884    6.3827  -15.7452 C   0  0  0  0  0  0  0  0  0  0  0  0
  -30.0370    5.1076  -15.5534 N   0  0  0  0  0  0  0  0  0  0  0  0
  -30.3616    7.2096  -13.2722 N   0  0  0  0  0  0  0  0  0  0  0  0
  -30.6541    8.4139  -12.7370 C   0  0  0  0  0  0  0  0  0  0  0  0
  -31.1072    9.2208  -13.6966 N   0  0  0  0  0  0  0  0  0  0  0  0
  -29.9551    4.4940  -16.3189 H   0  0  0  0  0  0  0  0  0  0  0  0
  -29.7935    4.8024  -14.6496 H   0  0  0  0  0  0  0  0  0  0  0  0
 26  1  1  0  0  0
  1  2  2  0  0  0
  1  5  1  0  0  0
  1  3  1  0  0  0
 38 37  2  0  0  0
 37 42  1  0  0  0
 38 39  1  0  0  0
 39 40  2  0  0  0
 40 41  1  0  0  0
 40 46  1  0  0  0
 42 41  2  0  0  0
 41 44  1  0  0  0
 42 43  1  0  0  0
 44 45  2  0  0  0
 46 45  1  0  0  0
 46 28  1  0  0  0
 29 28  1  0  0  0
 28 34  1  0  0  0
 30 29  1  0  0  0
 29 31  1  0  0  0
  7  6  2  0  0  0
  6  8  1  0  0  0
  6  5  1  0  0  0
 13  8  2  0  0  0
  8  9  1  0  0  0
  9 10  2  0  0  0
 11 10  1  0  0  0
 12 11  2  0  0  0
 31 32  1  0  0  0
 31 33  1  0  0  0
 14 12  1  0  0  0
 13 12  1  0  0  0
 15 14  2  0  0  0
 14 18  1  0  0  0
 16 15  1  0  0  0
 16 17  1  0  0  0
 19 17  1  0  0  0
 17 18  2  0  0  0
 20 19  2  0  0  0
 19 24  1  0  0  0
 20 21  1  0  0  0
 21 22  2  0  0  0
 34 33  1  0  0  0
 33 27  1  0  0  0
 22 23  1  0  0  0
 24 23  2  0  0  0
 24 25  1  0  0  0
 27 26  1  0  0  0
 43 47  1  0  0  0
 43 48  1  0  0  0
 30 35  1  0  0  0
 32 36  1  0  0  0
  3  4  1  0  0  0
M  END
> <minimizedAffinity>
-12.42379

$$$$
3IES_M24_A_552


 48 53  0  0  0  0  0  0  0  0999 V2000
  -30.3471   11.7213   -8.5433 P   0  0  0  0  0  0  0  0  0  0  0  0
  -29.0630   12.4601   -8.1949 O   0  0  0  0  0  0  0  0  0  0  0  0
  -31.6418   12.0615   -7.8822 O   0  0  0  0  0  0  0  0  0  0  0  0
  -31.8825   12.9769   -8.0945 H   0  0  0  0  0  0  0  0  0  0  0  0
  -30.2067   10.1925   -8.0282 O   0  0  0  0  0  0  0  0  0  0  0  0
  -29.3198    9.1997   -8.5534 C   0  0  0  0  0  0  0  0  0  0  0  0
  -28.5648    9.4998   -9.4621 O   0  0  0  0  0  0  0  0  0  0  0  0
  -29.3957    7.8300   -7.9071 C   0  0  0  0  0  0  0  0  0  0  0  0
  -29.7730    7.7682   -6.5647 C   0  0  0  0  0  0  0  0  0  0  0  0
  -29.8772    6.5574   -5.9012 C   0  0  0  0  0  0  0  0  0  0  0  0
  -29.5769    5.3864   -6.5636 C   0  0  0  0  0  0  0  0  0  0  0  0
  -29.2178    5.4409   -7.8901 C   0  0  0  0  0  0  0  0  0  0  0  0
  -29.1079    6.6576   -8.5734 C   0  0  0  0  0  0  0  0  0  0  0  0
  -28.9168    4.1610   -8.5650 C   0  0  0  0  0  0  0  0  0  0  0  0
  -28.9368    4.0415   -9.8877 N   0  0  0  0  0  0  0  0  0  0  0  0
  -28.6072    2.7725  -10.1425 O   0  0  0  0  0  0  0  0  0  0  0  0
  -28.3806    2.0902   -9.0216 C   0  0  0  0  0  0  0  0  0  0  0  0
  -28.5616    2.9633   -8.0017 N   0  0  0  0  0  0  0  0  0  0  0  0
  -28.0513    0.6689   -8.9832 C   0  0  0  0  0  0  0  0  0  0  0  0
  -28.4557   -0.1313   -7.9398 C   0  0  0  0  0  0  0  0  0  0  0  0
  -28.0861   -1.4712   -7.9521 C   0  0  0  0  0  0  0  0  0  0  0  0
  -27.2997   -1.9599   -8.9905 C   0  0  0  0  0  0  0  0  0  0  0  0
  -26.8705   -1.1176  -10.0090 C   0  0  0  0  0  0  0  0  0  0  0  0
  -27.2556    0.2051   -9.9984 C   0  0  0  0  0  0  0  0  0  0  0  0
  -26.8986    1.0866  -10.9424 F   0  0  0  0  0  0  0  0  0  0  0  0
  -30.4427   11.5535  -10.1412 O   0  0  0  0  0  0  0  0  0  0  0  0
  -29.8891   12.5385  -11.0225 C   0  0  0  0  0  0  0  0  0  0  0  0
  -31.3113   11.2018  -14.0203 C   0  0  0  0  0  0  0  0  0  0  0  0
  -32.6153   11.5358  -13.3091 C   0  0  0  0  0  0  0  0  0  0  0  0
  -33.1904   12.6314  -14.0050 O   0  0  0  0  0  0  0  0  0  0  0  0
  -32.1837   12.0203  -11.9478 C   0  0  0  0  0  0  0  0  0  0  0  0
  -33.1321   12.9675  -11.4278 O   0  0  0  0  0  0  0  0  0  0  0  0
  -30.8189   12.6410  -12.2214 C   0  0  0  0  0  0  0  0  0  0  0  0
  -30.2731   11.9075  -13.3413 O   0  0  0  0  0  0  0  0  0  0  0  0
  -32.5529   13.3616  -14.0418 H   0  0  0  0  0  0  0  0  0  0  0  0
  -33.2331   13.7011  -12.0542 H   0  0  0  0  0  0  0  0  0  0  0  0
  -30.9458    6.8722  -16.8390 N   0  0  0  0  0  0  0  0  0  0  0  0
  -31.2847    8.1219  -17.2054 C   0  0  0  0  0  0  0  0  0  0  0  0
  -31.3235    9.1406  -16.3359 N   0  0  0  0  0  0  0  0  0  0  0  0
  -31.0422    8.9437  -15.0208 C   0  0  0  0  0  0  0  0  0  0  0  0
  -30.6848    7.6964  -14.5721 C   0  0  0  0  0  0  0  0  0  0  0  0
  -30.6260    6.6010  -15.5558 C   0  0  0  0  0  0  0  0  0  0  0  0
  -30.2916    5.3358  -15.1634 N   0  0  0  0  0  0  0  0  0  0  0  0
  -30.4591    7.7789  -13.2319 N   0  0  0  0  0  0  0  0  0  0  0  0
  -30.6511    9.0708  -12.8909 C   0  0  0  0  0  0  0  0  0  0  0  0
  -31.0183    9.7589  -13.9721 N   0  0  0  0  0  0  0  0  0  0  0  0
  -30.2543    4.6087  -15.8260 H   0  0  0  0  0  0  0  0  0  0  0  0
  -30.0881    5.1513  -14.2181 H   0  0  0  0  0  0  0  0  0  0  0  0
 26  1  1  0  0  0
  1  2  2  0  0  0
  1  5  1  0  0  0
  1  3  1  0  0  0
 38 37  2  0  0  0
 37 42  1  0  0  0
 38 39  1  0  0  0
 39 40  2  0  0  0
 40 41  1  0  0  0
 40 46  1  0  0  0
 42 41  2  0  0  0
 41 44  1  0  0  0
 42 43  1  0  0  0
 44 45  2  0  0  0
 46 45  1  0  0  0
 46 28  1  0  0  0
 29 28  1  0  0  0
 28 34  1  0  0  0
 30 29  1  0  0  0
 29 31  1  0  0  0
  7  6  2  0  0  0
  6  8  1  0  0  0
  6  5  1  0  0  0
 13  8  2  0  0  0
  8  9  1  0  0  0
  9 10  2  0  0  0
 11 10  1  0  0  0
 12 11  2  0  0  0
 31 32  1  0  0  0
 31 33  1  0  0  0
 14 12  1  0  0  0
 13 12  1  0  0  0
 15 14  2  0  0  0
 14 18  1  0  0  0
 16 15  1  0  0  0
 16 17  1  0  0  0
 19 17  1  0  0  0
 17 18  2  0  0  0
 20 19  2  0  0  0
 19 24  1  0  0  0
 20 21  1  0  0  0
 21 22  2  0  0  0
 34 33  1  0  0  0
 33 27  1  0  0  0
 22 23  1  0  0  0
 24 23  2  0  0  0
 24 25  1  0  0  0
 27 26  1  0  0  0
 43 47  1  0  0  0
 43 48  1  0  0  0
 30 35  1  0  0  0
 32 36  1  0  0  0
  3  4  1  0  0  0
M  END
> <minimizedAffinity>
-12.25456

$$$$
3IES_M24_A_552


 48 53  0  0  0  0  0  0  0  0999 V2000
  -29.1034    4.7558   -9.4012 P   0  0  0  0  0  0  0  0  0  0  0  0
  -29.3854    4.9869  -10.8787 O   0  0  0  0  0  0  0  0  0  0  0  0
  -30.2128    4.6220   -8.4112 O   0  0  0  0  0  0  0  0  0  0  0  0
  -30.7486    3.8434   -8.6291 H   0  0  0  0  0  0  0  0  0  0  0  0
  -28.4062    6.0902   -8.8046 O   0  0  0  0  0  0  0  0  0  0  0  0
  -28.9522    6.9565   -7.8050 C   0  0  0  0  0  0  0  0  0  0  0  0
  -29.0449    6.5546   -6.6580 O   0  0  0  0  0  0  0  0  0  0  0  0
  -29.3679    8.3370   -8.2752 C   0  0  0  0  0  0  0  0  0  0  0  0
  -29.5166    9.3323   -7.3080 C   0  0  0  0  0  0  0  0  0  0  0  0
  -29.8833   10.6221   -7.6528 C   0  0  0  0  0  0  0  0  0  0  0  0
  -30.1360   10.9319   -8.9721 C   0  0  0  0  0  0  0  0  0  0  0  0
  -29.9775    9.9582   -9.9304 C   0  0  0  0  0  0  0  0  0  0  0  0
  -29.6080    8.6501   -9.5964 C   0  0  0  0  0  0  0  0  0  0  0  0
  -30.2466   10.3367  -11.3334 C   0  0  0  0  0  0  0  0  0  0  0  0
  -30.1537   11.5934  -11.7532 N   0  0  0  0  0  0  0  0  0  0  0  0
  -30.4460   11.5635  -13.0561 O   0  0  0  0  0  0  0  0  0  0  0  0
  -30.7200   10.3275  -13.4689 C   0  0  0  0  0  0  0  0  0  0  0  0
  -30.5862    9.5261  -12.3849 N   0  0  0  0  0  0  0  0  0  0  0  0
  -31.1230    9.9920  -14.8309 C   0  0  0  0  0  0  0  0  0  0  0  0
  -31.7030   10.9273  -15.6563 C   0  0  0  0  0  0  0  0  0  0  0  0
  -32.0870   10.5350  -16.9333 C   0  0  0  0  0  0  0  0  0  0  0  0
  -31.9067    9.2144  -17.3322 C   0  0  0  0  0  0  0  0  0  0  0  0
  -31.3570    8.2815  -16.4612 C   0  0  0  0  0  0  0  0  0  0  0  0
  -30.9631    8.6826  -15.2034 C   0  0  0  0  0  0  0  0  0  0  0  0
  -30.4153    7.8563  -14.3019 F   0  0  0  0  0  0  0  0  0  0  0  0
  -27.9445    3.6489   -9.2518 O   0  0  0  0  0  0  0  0  0  0  0  0
  -28.0001    2.4171   -9.9818 C   0  0  0  0  0  0  0  0  0  0  0  0
  -28.5691   -0.8314   -8.5962 C   0  0  0  0  0  0  0  0  0  0  0  0
  -28.6920   -0.0359   -7.3040 C   0  0  0  0  0  0  0  0  0  0  0  0
  -30.0600   -0.0786   -6.9272 O   0  0  0  0  0  0  0  0  0  0  0  0
  -28.3608    1.3796   -7.7051 C   0  0  0  0  0  0  0  0  0  0  0  0
  -29.0497    2.3157   -6.8587 O   0  0  0  0  0  0  0  0  0  0  0  0
  -28.8248    1.4427   -9.1554 C   0  0  0  0  0  0  0  0  0  0  0  0
  -28.6779    0.1004   -9.6718 O   0  0  0  0  0  0  0  0  0  0  0  0
  -30.6069    0.2513   -7.6572 H   0  0  0  0  0  0  0  0  0  0  0  0
  -30.0038    2.1456   -6.8981 H   0  0  0  0  0  0  0  0  0  0  0  0
  -26.2326   -5.4536   -8.5965 N   0  0  0  0  0  0  0  0  0  0  0  0
  -27.5328   -5.1370   -8.4550 C   0  0  0  0  0  0  0  0  0  0  0  0
  -27.9722   -3.8715   -8.4860 N   0  0  0  0  0  0  0  0  0  0  0  0
  -27.1036   -2.8372   -8.6384 C   0  0  0  0  0  0  0  0  0  0  0  0
  -25.7615   -3.0817   -8.7923 C   0  0  0  0  0  0  0  0  0  0  0  0
  -25.3108   -4.4844   -8.7796 C   0  0  0  0  0  0  0  0  0  0  0  0
  -23.9851   -4.7865   -8.9125 N   0  0  0  0  0  0  0  0  0  0  0  0
  -25.1271   -1.8843   -8.9249 N   0  0  0  0  0  0  0  0  0  0  0  0
  -26.0871   -0.9363   -8.8807 C   0  0  0  0  0  0  0  0  0  0  0  0
  -27.2704   -1.5202   -8.6908 N   0  0  0  0  0  0  0  0  0  0  0  0
  -23.6910   -5.7260   -8.9031 H   0  0  0  0  0  0  0  0  0  0  0  0
  -23.3239   -4.0647   -9.0177 H   0  0  0  0  0  0  0  0  0  0  0  0
 26  1  1  0  0  0
  1  2  2  0  0  0
  1  5  1  0  0  0
  1  3  1  0  0  0
 38 37  2  0  0  0
 37 42  1  0  0  0
 38 39  1  0  0  0
 39 40  2  0  0  0
 40 41  1  0  0  0
 40 46  1  0  0  0
 42 41  2  0  0  0
 41 44  1  0  0  0
 42 43  1  0  0  0
 44 45  2  0  0  0
 46 45  1  0  0  0
 46 28  1  0  0  0
 29 28  1  0  0  0
 28 34  1  0  0  0
 30 29  1  0  0  0
 29 31  1  0  0  0
  7  6  2  0  0  0
  6  8  1  0  0  0
  6  5  1  0  0  0
 13  8  2  0  0  0
  8  9  1  0  0  0
  9 10  2  0  0  0
 11 10  1  0  0  0
 12 11  2  0  0  0
 31 32  1  0  0  0
 31 33  1  0  0  0
 14 12  1  0  0  0
 13 12  1  0  0  0
 15 14  2  0  0  0
 14 18  1  0  0  0
 16 15  1  0  0  0
 16 17  1  0  0  0
 19 17  1  0  0  0
 17 18  2  0  0  0
 20 19  2  0  0  0
 19 24  1  0  0  0
 20 21  1  0  0  0
 21 22  2  0  0  0
 34 33  1  0  0  0
 33 27  1  0  0  0
 22 23  1  0  0  0
 24 23  2  0  0  0
 24 25  1  0  0  0
 27 26  1  0  0  0
 43 47  1  0  0  0
 43 48  1  0  0  0
 30 35  1  0  0  0
 32 36  1  0  0  0
  3  4  1  0  0  0
M  END
> <minimizedAffinity>
-11.89252

$$$$
3IES_M24_A_552


 48 53  0  0  0  0  0  0  0  0999 V2000
  -29.9233   10.7981  -10.2532 P   0  0  0  0  0  0  0  0  0  0  0  0
  -28.6862   11.6833  -10.2991 O   0  0  0  0  0  0  0  0  0  0  0  0
  -31.1341   11.1966   -9.4759 O   0  0  0  0  0  0  0  0  0  0  0  0
  -31.4980   12.0175   -9.8426 H   0  0  0  0  0  0  0  0  0  0  0  0
  -29.5489    9.4472   -9.4424 O   0  0  0  0  0  0  0  0  0  0  0  0
  -29.6458    9.2540   -8.0277 C   0  0  0  0  0  0  0  0  0  0  0  0
  -29.7670   10.2266   -7.3030 O   0  0  0  0  0  0  0  0  0  0  0  0
  -29.5975    7.8166   -7.5471 C   0  0  0  0  0  0  0  0  0  0  0  0
  -29.9155    7.5703   -6.2105 C   0  0  0  0  0  0  0  0  0  0  0  0
  -29.9061    6.2861   -5.6932 C   0  0  0  0  0  0  0  0  0  0  0  0
  -29.5495    5.2263   -6.4994 C   0  0  0  0  0  0  0  0  0  0  0  0
  -29.2485    5.4622   -7.8206 C   0  0  0  0  0  0  0  0  0  0  0  0
  -29.2534    6.7550   -8.3570 C   0  0  0  0  0  0  0  0  0  0  0  0
  -28.8837    4.2962   -8.6522 C   0  0  0  0  0  0  0  0  0  0  0  0
  -28.8958    4.3474   -9.9794 N   0  0  0  0  0  0  0  0  0  0  0  0
  -28.5037    3.1394  -10.3928 O   0  0  0  0  0  0  0  0  0  0  0  0
  -28.2456    2.3300   -9.3673 C   0  0  0  0  0  0  0  0  0  0  0  0
  -28.4710    3.0545   -8.2450 N   0  0  0  0  0  0  0  0  0  0  0  0
  -27.8468    0.9334   -9.5097 C   0  0  0  0  0  0  0  0  0  0  0  0
  -27.1912    0.4875  -10.6340 C   0  0  0  0  0  0  0  0  0  0  0  0
  -26.8628   -0.8605  -10.7172 C   0  0  0  0  0  0  0  0  0  0  0  0
  -27.2270   -1.7235   -9.6885 C   0  0  0  0  0  0  0  0  0  0  0  0
  -27.9266   -1.2519   -8.5844 C   0  0  0  0  0  0  0  0  0  0  0  0
  -28.2330    0.0887   -8.5016 C   0  0  0  0  0  0  0  0  0  0  0  0
  -28.8947    0.6335   -7.4717 F   0  0  0  0  0  0  0  0  0  0  0  0
  -30.2367   10.2516  -11.7343 O   0  0  0  0  0  0  0  0  0  0  0  0
  -31.5728   10.2437  -12.2522 C   0  0  0  0  0  0  0  0  0  0  0  0
  -32.1921   13.7569  -12.5175 C   0  0  0  0  0  0  0  0  0  0  0  0
  -30.9027   13.7171  -13.3260 C   0  0  0  0  0  0  0  0  0  0  0  0
  -31.2611   13.9615  -14.6778 O   0  0  0  0  0  0  0  0  0  0  0  0
  -30.4381   12.2866  -13.2161 C   0  0  0  0  0  0  0  0  0  0  0  0
  -29.6918   11.9096  -14.3857 O   0  0  0  0  0  0  0  0  0  0  0  0
  -31.7430   11.5122  -13.0735 C   0  0  0  0  0  0  0  0  0  0  0  0
  -32.6628   12.4134  -12.4165 O   0  0  0  0  0  0  0  0  0  0  0  0
  -31.9313   13.3179  -14.9560 H   0  0  0  0  0  0  0  0  0  0  0  0
  -30.2364   12.0502  -15.1760 H   0  0  0  0  0  0  0  0  0  0  0  0
  -34.5112   15.2381   -8.1298 N   0  0  0  0  0  0  0  0  0  0  0  0
  -35.0392   14.7898   -9.2835 C   0  0  0  0  0  0  0  0  0  0  0  0
  -34.2825   14.4396  -10.3325 N   0  0  0  0  0  0  0  0  0  0  0  0
  -32.9288   14.5496  -10.2811 C   0  0  0  0  0  0  0  0  0  0  0  0
  -32.3169   14.9962   -9.1362 C   0  0  0  0  0  0  0  0  0  0  0  0
  -33.1731   15.3497   -7.9904 C   0  0  0  0  0  0  0  0  0  0  0  0
  -32.6201   15.8147   -6.8309 N   0  0  0  0  0  0  0  0  0  0  0  0
  -30.9728   15.0087   -9.3536 N   0  0  0  0  0  0  0  0  0  0  0  0
  -30.7842   14.5446  -10.6071 C   0  0  0  0  0  0  0  0  0  0  0  0
  -31.9690   14.2879  -11.1617 N   0  0  0  0  0  0  0  0  0  0  0  0
  -33.1982   16.0490   -6.0692 H   0  0  0  0  0  0  0  0  0  0  0  0
  -31.6436   15.9154   -6.7570 H   0  0  0  0  0  0  0  0  0  0  0  0
 26  1  1  0  0  0
  1  2  2  0  0  0
  1  5  1  0  0  0
  1  3  1  0  0  0
 38 37  2  0  0  0
 37 42  1  0  0  0
 38 39  1  0  0  0
 39 40  2  0  0  0
 40 41  1  0  0  0
 40 46  1  0  0  0
 42 41  2  0  0  0
 41 44  1  0  0  0
 42 43  1  0  0  0
 44 45  2  0  0  0
 46 45  1  0  0  0
 46 28  1  0  0  0
 29 28  1  0  0  0
 28 34  1  0  0  0
 30 29  1  0  0  0
 29 31  1  0  0  0
  7  6  2  0  0  0
  6  8  1  0  0  0
  6  5  1  0  0  0
 13  8  2  0  0  0
  8  9  1  0  0  0
  9 10  2  0  0  0
 11 10  1  0  0  0
 12 11  2  0  0  0
 31 32  1  0  0  0
 31 33  1  0  0  0
 14 12  1  0  0  0
 13 12  1  0  0  0
 15 14  2  0  0  0
 14 18  1  0  0  0
 16 15  1  0  0  0
 16 17  1  0  0  0
 19 17  1  0  0  0
 17 18  2  0  0  0
 20 19  2  0  0  0
 19 24  1  0  0  0
 20 21  1  0  0  0
 21 22  2  0  0  0
 34 33  1  0  0  0
 33 27  1  0  0  0
 22 23  1  0  0  0
 24 23  2  0  0  0
 24 25  1  0  0  0
 27 26  1  0  0  0
 43 47  1  0  0  0
 43 48  1  0  0  0
 30 35  1  0  0  0
 32 36  1  0  0  0
  3  4  1  0  0  0
M  END
> <minimizedAffinity>
-11.29145

$$$$
3IES_M24_A_552


 48 53  0  0  0  0  0  0  0  0999 V2000
  -30.6666   11.8153   -8.8735 P   0  0  0  0  0  0  0  0  0  0  0  0
  -29.3899   12.6216   -8.6838 O   0  0  0  0  0  0  0  0  0  0  0  0
  -31.9192   12.1614   -8.1386 O   0  0  0  0  0  0  0  0  0  0  0  0
  -32.2116   13.0492   -8.3981 H   0  0  0  0  0  0  0  0  0  0  0  0
  -30.4266   10.3362   -8.2595 O   0  0  0  0  0  0  0  0  0  0  0  0
  -29.4007    9.4156   -8.6442 C   0  0  0  0  0  0  0  0  0  0  0  0
  -28.5692    9.7629   -9.4650 O   0  0  0  0  0  0  0  0  0  0  0  0
  -29.4372    8.0579   -7.9696 C   0  0  0  0  0  0  0  0  0  0  0  0
  -29.7695    8.0176   -6.6146 C   0  0  0  0  0  0  0  0  0  0  0  0
  -29.8357    6.8188   -5.9250 C   0  0  0  0  0  0  0  0  0  0  0  0
  -29.5418    5.6389   -6.5745 C   0  0  0  0  0  0  0  0  0  0  0  0
  -29.2272    5.6721   -7.9129 C   0  0  0  0  0  0  0  0  0  0  0  0
  -29.1558    6.8764   -8.6225 C   0  0  0  0  0  0  0  0  0  0  0  0
  -28.9314    4.3831   -8.5728 C   0  0  0  0  0  0  0  0  0  0  0  0
  -28.9193    4.2562   -9.8949 N   0  0  0  0  0  0  0  0  0  0  0  0
  -28.6056    2.9801  -10.1341 O   0  0  0  0  0  0  0  0  0  0  0  0
  -28.4204    2.3005   -9.0040 C   0  0  0  0  0  0  0  0  0  0  0  0
  -28.6123    3.1827   -7.9940 N   0  0  0  0  0  0  0  0  0  0  0  0
  -28.1174    0.8739   -8.9494 C   0  0  0  0  0  0  0  0  0  0  0  0
  -28.5253    0.0959   -7.8907 C   0  0  0  0  0  0  0  0  0  0  0  0
  -28.1811   -1.2508   -7.8883 C   0  0  0  0  0  0  0  0  0  0  0  0
  -27.4153   -1.7684   -8.9282 C   0  0  0  0  0  0  0  0  0  0  0  0
  -26.9815   -0.9484   -9.9628 C   0  0  0  0  0  0  0  0  0  0  0  0
  -27.3417    0.3813   -9.9665 C   0  0  0  0  0  0  0  0  0  0  0  0
  -26.9785    1.2428  -10.9264 F   0  0  0  0  0  0  0  0  0  0  0  0
  -30.8778   11.5221  -10.4420 O   0  0  0  0  0  0  0  0  0  0  0  0
  -32.1888   11.4998  -11.0200 C   0  0  0  0  0  0  0  0  0  0  0  0
  -32.1236   10.5631  -14.4717 C   0  0  0  0  0  0  0  0  0  0  0  0
  -30.9431    9.7194  -14.0107 C   0  0  0  0  0  0  0  0  0  0  0  0
  -31.3630    8.3645  -14.0679 O   0  0  0  0  0  0  0  0  0  0  0  0
  -30.7621   10.0927  -12.5609 C   0  0  0  0  0  0  0  0  0  0  0  0
  -30.2099    8.9890  -11.8232 O   0  0  0  0  0  0  0  0  0  0  0  0
  -32.1766   10.4492  -12.1193 C   0  0  0  0  0  0  0  0  0  0  0  0
  -32.8395   10.9541  -13.3006 O   0  0  0  0  0  0  0  0  0  0  0  0
  -32.1688    8.2531  -13.5395 H   0  0  0  0  0  0  0  0  0  0  0  0
  -30.7831    8.2131  -11.9250 H   0  0  0  0  0  0  0  0  0  0  0  0
  -32.0863   12.9783  -19.0531 N   0  0  0  0  0  0  0  0  0  0  0  0
  -32.5888   11.7790  -18.7069 C   0  0  0  0  0  0  0  0  0  0  0  0
  -32.5162   11.3027  -17.4566 N   0  0  0  0  0  0  0  0  0  0  0  0
  -31.8983   12.0132  -16.4764 C   0  0  0  0  0  0  0  0  0  0  0  0
  -31.3642   13.2474  -16.7526 C   0  0  0  0  0  0  0  0  0  0  0  0
  -31.4815   13.7563  -18.1303 C   0  0  0  0  0  0  0  0  0  0  0  0
  -30.9547   14.9712  -18.4665 N   0  0  0  0  0  0  0  0  0  0  0  0
  -30.8133   13.7346  -15.6067 N   0  0  0  0  0  0  0  0  0  0  0  0
  -31.0442   12.8116  -14.6492 C   0  0  0  0  0  0  0  0  0  0  0  0
  -31.6825   11.7725  -15.1878 N   0  0  0  0  0  0  0  0  0  0  0  0
  -31.0368   15.3051  -19.3890 H   0  0  0  0  0  0  0  0  0  0  0  0
  -30.4930   15.5127  -17.7862 H   0  0  0  0  0  0  0  0  0  0  0  0
 26  1  1  0  0  0
  1  2  2  0  0  0
  1  5  1  0  0  0
  1  3  1  0  0  0
 38 37  2  0  0  0
 37 42  1  0  0  0
 38 39  1  0  0  0
 39 40  2  0  0  0
 40 41  1  0  0  0
 40 46  1  0  0  0
 42 41  2  0  0  0
 41 44  1  0  0  0
 42 43  1  0  0  0
 44 45  2  0  0  0
 46 45  1  0  0  0
 46 28  1  0  0  0
 29 28  1  0  0  0
 28 34  1  0  0  0
 30 29  1  0  0  0
 29 31  1  0  0  0
  7  6  2  0  0  0
  6  8  1  0  0  0
  6  5  1  0  0  0
 13  8  2  0  0  0
  8  9  1  0  0  0
  9 10  2  0  0  0
 11 10  1  0  0  0
 12 11  2  0  0  0
 31 32  1  0  0  0
 31 33  1  0  0  0
 14 12  1  0  0  0
 13 12  1  0  0  0
 15 14  2  0  0  0
 14 18  1  0  0  0
 16 15  1  0  0  0
 16 17  1  0  0  0
 19 17  1  0  0  0
 17 18  2  0  0  0
 20 19  2  0  0  0
 19 24  1  0  0  0
 20 21  1  0  0  0
 21 22  2  0  0  0
 34 33  1  0  0  0
 33 27  1  0  0  0
 22 23  1  0  0  0
 24 23  2  0  0  0
 24 25  1  0  0  0
 27 26  1  0  0  0
 43 47  1  0  0  0
 43 48  1  0  0  0
 30 35  1  0  0  0
 32 36  1  0  0  0
  3  4  1  0  0  0
M  END
> <minimizedAffinity>
-11.18780

$$$$
3IES_M24_A_552


 48 53  0  0  0  0  0  0  0  0999 V2000
  -28.1457   14.6430  -13.4562 P   0  0  0  0  0  0  0  0  0  0  0  0
  -26.9234   14.6833  -14.3620 O   0  0  0  0  0  0  0  0  0  0  0  0
  -28.3308   15.6373  -12.3581 O   0  0  0  0  0  0  0  0  0  0  0  0
  -28.4008   16.5277  -12.7366 H   0  0  0  0  0  0  0  0  0  0  0  0
  -28.0634   13.2999  -12.5552 O   0  0  0  0  0  0  0  0  0  0  0  0
  -27.5969   13.2128  -11.2051 C   0  0  0  0  0  0  0  0  0  0  0  0
  -26.4724   13.6015  -10.9397 O   0  0  0  0  0  0  0  0  0  0  0  0
  -28.5746   12.6382  -10.1984 C   0  0  0  0  0  0  0  0  0  0  0  0
  -29.5795   13.4801   -9.7193 C   0  0  0  0  0  0  0  0  0  0  0  0
  -30.5192   13.0324   -8.8064 C   0  0  0  0  0  0  0  0  0  0  0  0
  -30.4520   11.7390   -8.3340 C   0  0  0  0  0  0  0  0  0  0  0  0
  -29.4719   10.9016   -8.8133 C   0  0  0  0  0  0  0  0  0  0  0  0
  -28.5151   11.3406   -9.7358 C   0  0  0  0  0  0  0  0  0  0  0  0
  -29.4441    9.5198   -8.2896 C   0  0  0  0  0  0  0  0  0  0  0  0
  -29.7965    9.2334   -7.0414 N   0  0  0  0  0  0  0  0  0  0  0  0
  -29.6654    7.9096   -6.9219 O   0  0  0  0  0  0  0  0  0  0  0  0
  -29.2415    7.3545   -8.0557 C   0  0  0  0  0  0  0  0  0  0  0  0
  -29.1053    8.3659   -8.9466 N   0  0  0  0  0  0  0  0  0  0  0  0
  -28.9582    5.9314   -8.2121 C   0  0  0  0  0  0  0  0  0  0  0  0
  -28.4844    5.4224   -9.3991 C   0  0  0  0  0  0  0  0  0  0  0  0
  -28.2598    4.0537   -9.4891 C   0  0  0  0  0  0  0  0  0  0  0  0
  -28.5448    3.2353   -8.4007 C   0  0  0  0  0  0  0  0  0  0  0  0
  -29.0631    3.7727   -7.2287 C   0  0  0  0  0  0  0  0  0  0  0  0
  -29.2663    5.1325   -7.1417 C   0  0  0  0  0  0  0  0  0  0  0  0
  -29.7519    5.7390   -6.0499 F   0  0  0  0  0  0  0  0  0  0  0  0
  -29.4590   14.3930  -14.3525 O   0  0  0  0  0  0  0  0  0  0  0  0
  -29.7196   13.1129  -14.9414 C   0  0  0  0  0  0  0  0  0  0  0  0
  -32.2662   10.6663  -14.3714 C   0  0  0  0  0  0  0  0  0  0  0  0
  -32.3917   11.4020  -13.0444 C   0  0  0  0  0  0  0  0  0  0  0  0
  -33.6302   12.0950  -13.0778 O   0  0  0  0  0  0  0  0  0  0  0  0
  -31.2826   12.4232  -13.0783 C   0  0  0  0  0  0  0  0  0  0  0  0
  -31.6419   13.5807  -12.3049 O   0  0  0  0  0  0  0  0  0  0  0  0
  -31.1416   12.7272  -14.5651 C   0  0  0  0  0  0  0  0  0  0  0  0
  -31.5285   11.5146  -15.2506 O   0  0  0  0  0  0  0  0  0  0  0  0
  -33.6595   12.6674  -13.8604 H   0  0  0  0  0  0  0  0  0  0  0  0
  -32.4763   13.9461  -12.6383 H   0  0  0  0  0  0  0  0  0  0  0  0
  -30.5669    6.4586  -16.8678 N   0  0  0  0  0  0  0  0  0  0  0  0
  -31.2707    7.5126  -17.3201 C   0  0  0  0  0  0  0  0  0  0  0  0
  -31.6271    8.5327  -16.5278 N   0  0  0  0  0  0  0  0  0  0  0  0
  -31.3087    8.5312  -15.2064 C   0  0  0  0  0  0  0  0  0  0  0  0
  -30.5886    7.4914  -14.6725 C   0  0  0  0  0  0  0  0  0  0  0  0
  -30.1887    6.3961  -15.5733 C   0  0  0  0  0  0  0  0  0  0  0  0
  -29.4847    5.3280  -15.0939 N   0  0  0  0  0  0  0  0  0  0  0  0
  -30.4092    7.7399  -13.3459 N   0  0  0  0  0  0  0  0  0  0  0  0
  -30.9914    8.9323  -13.0983 C   0  0  0  0  0  0  0  0  0  0  0  0
  -31.5443    9.3909  -14.2213 N   0  0  0  0  0  0  0  0  0  0  0  0
  -29.2208    4.5997  -15.7014 H   0  0  0  0  0  0  0  0  0  0  0  0
  -29.2413    5.2866  -14.1409 H   0  0  0  0  0  0  0  0  0  0  0  0
 26  1  1  0  0  0
  1  2  2  0  0  0
  1  5  1  0  0  0
  1  3  1  0  0  0
 38 37  2  0  0  0
 37 42  1  0  0  0
 38 39  1  0  0  0
 39 40  2  0  0  0
 40 41  1  0  0  0
 40 46  1  0  0  0
 42 41  2  0  0  0
 41 44  1  0  0  0
 42 43  1  0  0  0
 44 45  2  0  0  0
 46 45  1  0  0  0
 46 28  1  0  0  0
 29 28  1  0  0  0
 28 34  1  0  0  0
 30 29  1  0  0  0
 29 31  1  0  0  0
  7  6  2  0  0  0
  6  8  1  0  0  0
  6  5  1  0  0  0
 13  8  2  0  0  0
  8  9  1  0  0  0
  9 10  2  0  0  0
 11 10  1  0  0  0
 12 11  2  0  0  0
 31 32  1  0  0  0
 31 33  1  0  0  0
 14 12  1  0  0  0
 13 12  1  0  0  0
 15 14  2  0  0  0
 14 18  1  0  0  0
 16 15  1  0  0  0
 16 17  1  0  0  0
 19 17  1  0  0  0
 17 18  2  0  0  0
 20 19  2  0  0  0
 19 24  1  0  0  0
 20 21  1  0  0  0
 21 22  2  0  0  0
 34 33  1  0  0  0
 33 27  1  0  0  0
 22 23  1  0  0  0
 24 23  2  0  0  0
 24 25  1  0  0  0
 27 26  1  0  0  0
 43 47  1  0  0  0
 43 48  1  0  0  0
 30 35  1  0  0  0
 32 36  1  0  0  0
  3  4  1  0  0  0
M  END
> <minimizedAffinity>
-10.67715

$$$$
3IES_M24_A_552


 48 53  0  0  0  0  0  0  0  0999 V2000
  -29.9036   10.4179  -10.2220 P   0  0  0  0  0  0  0  0  0  0  0  0
  -28.7303   11.3839  -10.3011 O   0  0  0  0  0  0  0  0  0  0  0  0
  -31.1426   10.7624   -9.4637 O   0  0  0  0  0  0  0  0  0  0  0  0
  -31.5606   11.5409   -9.8639 H   0  0  0  0  0  0  0  0  0  0  0  0
  -29.4406    9.1297   -9.3567 O   0  0  0  0  0  0  0  0  0  0  0  0
  -29.5810    8.9645   -7.9421 C   0  0  0  0  0  0  0  0  0  0  0  0
  -29.7192    9.9516   -7.2404 O   0  0  0  0  0  0  0  0  0  0  0  0
  -29.5541    7.5366   -7.4324 C   0  0  0  0  0  0  0  0  0  0  0  0
  -29.9082    7.3185   -6.1001 C   0  0  0  0  0  0  0  0  0  0  0  0
  -29.9201    6.0446   -5.5577 C   0  0  0  0  0  0  0  0  0  0  0  0
  -29.5492    4.9672   -6.3335 C   0  0  0  0  0  0  0  0  0  0  0  0
  -29.2126    5.1754   -7.6507 C   0  0  0  0  0  0  0  0  0  0  0  0
  -29.1955    6.4574   -8.2122 C   0  0  0  0  0  0  0  0  0  0  0  0
  -28.8336    3.9912   -8.4496 C   0  0  0  0  0  0  0  0  0  0  0  0
  -28.6160    4.0655   -9.7578 N   0  0  0  0  0  0  0  0  0  0  0  0
  -28.2850    2.8297  -10.1415 O   0  0  0  0  0  0  0  0  0  0  0  0
  -28.2879    1.9805   -9.1158 C   0  0  0  0  0  0  0  0  0  0  0  0
  -28.6245    2.7060   -8.0224 N   0  0  0  0  0  0  0  0  0  0  0  0
  -28.0155    0.5519   -9.2377 C   0  0  0  0  0  0  0  0  0  0  0  0
  -28.4874   -0.3482   -8.3104 C   0  0  0  0  0  0  0  0  0  0  0  0
  -28.1699   -1.6917   -8.4716 C   0  0  0  0  0  0  0  0  0  0  0  0
  -27.3665   -2.0872   -9.5364 C   0  0  0  0  0  0  0  0  0  0  0  0
  -26.8690   -1.1495  -10.4331 C   0  0  0  0  0  0  0  0  0  0  0  0
  -27.2027    0.1779  -10.2761 C   0  0  0  0  0  0  0  0  0  0  0  0
  -26.7785    1.1488  -11.0965 F   0  0  0  0  0  0  0  0  0  0  0  0
  -30.1715    9.7921  -11.6805 O   0  0  0  0  0  0  0  0  0  0  0  0
  -31.3088   10.1878  -12.4572 C   0  0  0  0  0  0  0  0  0  0  0  0
  -31.0372   12.9632  -14.6977 C   0  0  0  0  0  0  0  0  0  0  0  0
  -32.2010   13.4865  -13.8674 C   0  0  0  0  0  0  0  0  0  0  0  0
  -31.7008   14.5732  -13.1031 O   0  0  0  0  0  0  0  0  0  0  0  0
  -32.5214   12.3567  -12.9213 C   0  0  0  0  0  0  0  0  0  0  0  0
  -33.0678   12.8690  -11.6941 O   0  0  0  0  0  0  0  0  0  0  0  0
  -31.1706   11.6777  -12.7281 C   0  0  0  0  0  0  0  0  0  0  0  0
  -30.4432   11.8968  -13.9580 O   0  0  0  0  0  0  0  0  0  0  0  0
  -30.9359   14.2786  -12.5843 H   0  0  0  0  0  0  0  0  0  0  0  0
  -32.4446   13.5001  -11.3013 H   0  0  0  0  0  0  0  0  0  0  0  0
  -31.6176   14.1039  -19.7163 N   0  0  0  0  0  0  0  0  0  0  0  0
  -31.1668   14.8611  -18.6993 C   0  0  0  0  0  0  0  0  0  0  0  0
  -31.0747   14.3993  -17.4448 N   0  0  0  0  0  0  0  0  0  0  0  0
  -31.4640   13.1334  -17.1393 C   0  0  0  0  0  0  0  0  0  0  0  0
  -31.9316   12.2998  -18.1247 C   0  0  0  0  0  0  0  0  0  0  0  0
  -31.9978   12.8268  -19.4990 C   0  0  0  0  0  0  0  0  0  0  0  0
  -32.4696   12.0475  -20.5171 N   0  0  0  0  0  0  0  0  0  0  0  0
  -32.2467   11.1052  -17.5523 N   0  0  0  0  0  0  0  0  0  0  0  0
  -31.9408   11.2167  -16.2423 C   0  0  0  0  0  0  0  0  0  0  0  0
  -31.4868   12.4469  -16.0021 N   0  0  0  0  0  0  0  0  0  0  0  0
  -32.5111   12.4061  -21.4330 H   0  0  0  0  0  0  0  0  0  0  0  0
  -32.7682   11.1272  -20.3348 H   0  0  0  0  0  0  0  0  0  0  0  0
 26  1  1  0  0  0
  1  2  2  0  0  0
  1  5  1  0  0  0
  1  3  1  0  0  0
 38 37  2  0  0  0
 37 42  1  0  0  0
 38 39  1  0  0  0
 39 40  2  0  0  0
 40 41  1  0  0  0
 40 46  1  0  0  0
 42 41  2  0  0  0
 41 44  1  0  0  0
 42 43  1  0  0  0
 44 45  2  0  0  0
 46 45  1  0  0  0
 46 28  1  0  0  0
 29 28  1  0  0  0
 28 34  1  0  0  0
 30 29  1  0  0  0
 29 31  1  0  0  0
  7  6  2  0  0  0
  6  8  1  0  0  0
  6  5  1  0  0  0
 13  8  2  0  0  0
  8  9  1  0  0  0
  9 10  2  0  0  0
 11 10  1  0  0  0
 12 11  2  0  0  0
 31 32  1  0  0  0
 31 33  1  0  0  0
 14 12  1  0  0  0
 13 12  1  0  0  0
 15 14  2  0  0  0
 14 18  1  0  0  0
 16 15  1  0  0  0
 16 17  1  0  0  0
 19 17  1  0  0  0
 17 18  2  0  0  0
 20 19  2  0  0  0
 19 24  1  0  0  0
 20 21  1  0  0  0
 21 22  2  0  0  0
 34 33  1  0  0  0
 33 27  1  0  0  0
 22 23  1  0  0  0
 24 23  2  0  0  0
 24 25  1  0  0  0
 27 26  1  0  0  0
 43 47  1  0  0  0
 43 48  1  0  0  0
 30 35  1  0  0  0
 32 36  1  0  0  0
  3  4  1  0  0  0
M  END
> <minimizedAffinity>
-10.59156

$$$$
3IES_M24_A_552


 48 53  0  0  0  0  0  0  0  0999 V2000
  -31.7763   14.3559   -8.0105 P   0  0  0  0  0  0  0  0  0  0  0  0
  -32.8412   13.3998   -8.5281 O   0  0  0  0  0  0  0  0  0  0  0  0
  -32.0012   15.1777   -6.7845 O   0  0  0  0  0  0  0  0  0  0  0  0
  -32.1224   14.5924   -6.0206 H   0  0  0  0  0  0  0  0  0  0  0  0
  -31.6130   15.5592   -9.0819 O   0  0  0  0  0  0  0  0  0  0  0  0
  -32.2449   15.6443  -10.3631 C   0  0  0  0  0  0  0  0  0  0  0  0
  -33.2947   16.2548  -10.4674 O   0  0  0  0  0  0  0  0  0  0  0  0
  -31.5258   14.9563  -11.5072 C   0  0  0  0  0  0  0  0  0  0  0  0
  -30.4239   15.6076  -12.0637 C   0  0  0  0  0  0  0  0  0  0  0  0
  -29.7048   15.0445  -13.1043 C   0  0  0  0  0  0  0  0  0  0  0  0
  -30.0944   13.8297  -13.6265 C   0  0  0  0  0  0  0  0  0  0  0  0
  -31.1713   13.1776  -13.0726 C   0  0  0  0  0  0  0  0  0  0  0  0
  -31.9078   13.7349  -12.0209 C   0  0  0  0  0  0  0  0  0  0  0  0
  -31.5469   11.8721  -13.6546 C   0  0  0  0  0  0  0  0  0  0  0  0
  -32.7814   11.3904  -13.5636 N   0  0  0  0  0  0  0  0  0  0  0  0
  -32.7616   10.2180  -14.2032 O   0  0  0  0  0  0  0  0  0  0  0  0
  -31.5535    9.9471  -14.6934 C   0  0  0  0  0  0  0  0  0  0  0  0
  -30.7650   10.9982  -14.3637 N   0  0  0  0  0  0  0  0  0  0  0  0
  -31.2154    8.7140  -15.3969 C   0  0  0  0  0  0  0  0  0  0  0  0
  -31.4452    8.5739  -16.7461 C   0  0  0  0  0  0  0  0  0  0  0  0
  -31.1238    7.3638  -17.3496 C   0  0  0  0  0  0  0  0  0  0  0  0
  -30.6122    6.3239  -16.5798 C   0  0  0  0  0  0  0  0  0  0  0  0
  -30.4309    6.4806  -15.2110 C   0  0  0  0  0  0  0  0  0  0  0  0
  -30.7356    7.6890  -14.6237 C   0  0  0  0  0  0  0  0  0  0  0  0
  -30.5837    7.9339  -13.3151 F   0  0  0  0  0  0  0  0  0  0  0  0
  -30.3414   13.6288   -8.0671 O   0  0  0  0  0  0  0  0  0  0  0  0
  -30.1933   12.2549   -7.6880 C   0  0  0  0  0  0  0  0  0  0  0  0
  -29.0840    9.2906   -9.3547 C   0  0  0  0  0  0  0  0  0  0  0  0
  -30.3989    9.4630  -10.1024 C   0  0  0  0  0  0  0  0  0  0  0  0
  -30.0670    9.8471  -11.4282 O   0  0  0  0  0  0  0  0  0  0  0  0
  -31.0606   10.6375   -9.4264 C   0  0  0  0  0  0  0  0  0  0  0  0
  -31.9029   11.3420  -10.3543 O   0  0  0  0  0  0  0  0  0  0  0  0
  -29.8766   11.4722   -8.9527 C   0  0  0  0  0  0  0  0  0  0  0  0
  -28.8088   10.5302   -8.7032 O   0  0  0  0  0  0  0  0  0  0  0  0
  -29.5095   10.6406  -11.4049 H   0  0  0  0  0  0  0  0  0  0  0  0
  -31.3780   11.6188  -11.1216 H   0  0  0  0  0  0  0  0  0  0  0  0
  -28.7591    4.1838   -8.5550 N   0  0  0  0  0  0  0  0  0  0  0  0
  -28.6473    4.8943   -9.6923 C   0  0  0  0  0  0  0  0  0  0  0  0
  -28.7539    6.2297   -9.7193 N   0  0  0  0  0  0  0  0  0  0  0  0
  -29.0094    6.9302   -8.5829 C   0  0  0  0  0  0  0  0  0  0  0  0
  -29.1329    6.2749   -7.3829 C   0  0  0  0  0  0  0  0  0  0  0  0
  -28.9856    4.8089   -7.3801 C   0  0  0  0  0  0  0  0  0  0  0  0
  -29.1143    4.1027   -6.2177 N   0  0  0  0  0  0  0  0  0  0  0  0
  -29.3830    7.2035   -6.4190 N   0  0  0  0  0  0  0  0  0  0  0  0
  -29.3783    8.4046   -7.0351 C   0  0  0  0  0  0  0  0  0  0  0  0
  -29.1696    8.2264   -8.3397 N   0  0  0  0  0  0  0  0  0  0  0  0
  -29.0146    3.1233   -6.2231 H   0  0  0  0  0  0  0  0  0  0  0  0
  -29.3067    4.5733   -5.3746 H   0  0  0  0  0  0  0  0  0  0  0  0
 26  1  1  0  0  0
  1  2  2  0  0  0
  1  5  1  0  0  0
  1  3  1  0  0  0
 38 37  2  0  0  0
 37 42  1  0  0  0
 38 39  1  0  0  0
 39 40  2  0  0  0
 40 41  1  0  0  0
 40 46  1  0  0  0
 42 41  2  0  0  0
 41 44  1  0  0  0
 42 43  1  0  0  0
 44 45  2  0  0  0
 46 45  1  0  0  0
 46 28  1  0  0  0
 29 28  1  0  0  0
 28 34  1  0  0  0
 30 29  1  0  0  0
 29 31  1  0  0  0
  7  6  2  0  0  0
  6  8  1  0  0  0
  6  5  1  0  0  0
 13  8  2  0  0  0
  8  9  1  0  0  0
  9 10  2  0  0  0
 11 10  1  0  0  0
 12 11  2  0  0  0
 31 32  1  0  0  0
 31 33  1  0  0  0
 14 12  1  0  0  0
 13 12  1  0  0  0
 15 14  2  0  0  0
 14 18  1  0  0  0
 16 15  1  0  0  0
 16 17  1  0  0  0
 19 17  1  0  0  0
 17 18  2  0  0  0
 20 19  2  0  0  0
 19 24  1  0  0  0
 20 21  1  0  0  0
 21 22  2  0  0  0
 34 33  1  0  0  0
 33 27  1  0  0  0
 22 23  1  0  0  0
 24 23  2  0  0  0
 24 25  1  0  0  0
 27 26  1  0  0  0
 43 47  1  0  0  0
 43 48  1  0  0  0
 30 35  1  0  0  0
 32 36  1  0  0  0
  3  4  1  0  0  0
M  END
> <minimizedAffinity>
-10.03352

$$$$
3IES_M24_A_552


 48 53  0  0  0  0  0  0  0  0999 V2000
  -32.1205   13.7960  -12.0095 P   0  0  0  0  0  0  0  0  0  0  0  0
  -32.6109   13.9365  -13.4433 O   0  0  0  0  0  0  0  0  0  0  0  0
  -32.6456   14.6720  -10.9205 O   0  0  0  0  0  0  0  0  0  0  0  0
  -33.5978   14.5204  -10.8143 H   0  0  0  0  0  0  0  0  0  0  0  0
  -30.5674   14.2517  -11.9590 O   0  0  0  0  0  0  0  0  0  0  0  0
  -29.4705   13.4698  -11.4760 C   0  0  0  0  0  0  0  0  0  0  0  0
  -28.5157   13.2715  -12.2074 O   0  0  0  0  0  0  0  0  0  0  0  0
  -29.5953   12.9533  -10.0557 C   0  0  0  0  0  0  0  0  0  0  0  0
  -29.8141   13.8895   -9.0438 C   0  0  0  0  0  0  0  0  0  0  0  0
  -29.9501   13.5018   -7.7216 C   0  0  0  0  0  0  0  0  0  0  0  0
  -29.8407   12.1696   -7.3846 C   0  0  0  0  0  0  0  0  0  0  0  0
  -29.6387   11.2419   -8.3797 C   0  0  0  0  0  0  0  0  0  0  0  0
  -29.4987   11.6193   -9.7203 C   0  0  0  0  0  0  0  0  0  0  0  0
  -29.5400    9.8238   -7.9757 C   0  0  0  0  0  0  0  0  0  0  0  0
  -29.7149    9.4371   -6.7171 N   0  0  0  0  0  0  0  0  0  0  0  0
  -29.5703    8.1093   -6.7218 O   0  0  0  0  0  0  0  0  0  0  0  0
  -29.3098    7.6488   -7.9438 C   0  0  0  0  0  0  0  0  0  0  0  0
  -29.2980    8.7281   -8.7624 N   0  0  0  0  0  0  0  0  0  0  0  0
  -29.0532    6.2451   -8.2498 C   0  0  0  0  0  0  0  0  0  0  0  0
  -28.7041    5.8415   -9.5178 C   0  0  0  0  0  0  0  0  0  0  0  0
  -28.4990    4.4861   -9.7476 C   0  0  0  0  0  0  0  0  0  0  0  0
  -28.6790    3.5762   -8.7106 C   0  0  0  0  0  0  0  0  0  0  0  0
  -29.0737    4.0093   -7.4506 C   0  0  0  0  0  0  0  0  0  0  0  0
  -29.2580    5.3561   -7.2268 C   0  0  0  0  0  0  0  0  0  0  0  0
  -29.6276    5.8650   -6.0437 F   0  0  0  0  0  0  0  0  0  0  0  0
  -32.0482   12.2342  -11.6270 O   0  0  0  0  0  0  0  0  0  0  0  0
  -33.1185   11.3413  -11.9592 C   0  0  0  0  0  0  0  0  0  0  0  0
  -31.6599   10.2444  -15.0358 C   0  0  0  0  0  0  0  0  0  0  0  0
  -30.6012    9.6812  -14.0979 C   0  0  0  0  0  0  0  0  0  0  0  0
  -30.7396    8.2687  -14.1277 O   0  0  0  0  0  0  0  0  0  0  0  0
  -31.0192   10.1639  -12.7317 C   0  0  0  0  0  0  0  0  0  0  0  0
  -30.5933    9.2362  -11.7192 O   0  0  0  0  0  0  0  0  0  0  0  0
  -32.5360   10.2544  -12.8491 C   0  0  0  0  0  0  0  0  0  0  0  0
  -32.8039   10.5494  -14.2387 O   0  0  0  0  0  0  0  0  0  0  0  0
  -31.6507    8.0281  -13.8979 H   0  0  0  0  0  0  0  0  0  0  0  0
  -30.9531    8.3568  -11.9146 H   0  0  0  0  0  0  0  0  0  0  0  0
  -32.1832   13.2171  -19.2446 N   0  0  0  0  0  0  0  0  0  0  0  0
  -32.7750   12.0517  -18.9245 C   0  0  0  0  0  0  0  0  0  0  0  0
  -32.5255   11.4104  -17.7747 N   0  0  0  0  0  0  0  0  0  0  0  0
  -31.6295   11.9072  -16.8816 C   0  0  0  0  0  0  0  0  0  0  0  0
  -30.9880   13.0938  -17.1368 C   0  0  0  0  0  0  0  0  0  0  0  0
  -31.3015   13.7893  -18.3974 C   0  0  0  0  0  0  0  0  0  0  0  0
  -30.6818   14.9657  -18.7112 N   0  0  0  0  0  0  0  0  0  0  0  0
  -30.1563   13.3571  -16.0914 N   0  0  0  0  0  0  0  0  0  0  0  0
  -30.3237   12.3509  -15.2072 C   0  0  0  0  0  0  0  0  0  0  0  0
  -31.1995   11.4755  -15.7010 N   0  0  0  0  0  0  0  0  0  0  0  0
  -30.8961   15.4250  -19.5553 H   0  0  0  0  0  0  0  0  0  0  0  0
  -30.0210   15.3541  -18.0934 H   0  0  0  0  0  0  0  0  0  0  0  0
 26  1  1  0  0  0
  1  2  2  0  0  0
  1  5  1  0  0  0
  1  3  1  0  0  0
 38 37  2  0  0  0
 37 42  1  0  0  0
 38 39  1  0  0  0
 39 40  2  0  0  0
 40 41  1  0  0  0
 40 46  1  0  0  0
 42 41  2  0  0  0
 41 44  1  0  0  0
 42 43  1  0  0  0
 44 45  2  0  0  0
 46 45  1  0  0  0
 46 28  1  0  0  0
 29 28  1  0  0  0
 28 34  1  0  0  0
 30 29  1  0  0  0
 29 31  1  0  0  0
  7  6  2  0  0  0
  6  8  1  0  0  0
  6  5  1  0  0  0
 13  8  2  0  0  0
  8  9  1  0  0  0
  9 10  2  0  0  0
 11 10  1  0  0  0
 12 11  2  0  0  0
 31 32  1  0  0  0
 31 33  1  0  0  0
 14 12  1  0  0  0
 13 12  1  0  0  0
 15 14  2  0  0  0
 14 18  1  0  0  0
 16 15  1  0  0  0
 16 17  1  0  0  0
 19 17  1  0  0  0
 17 18  2  0  0  0
 20 19  2  0  0  0
 19 24  1  0  0  0
 20 21  1  0  0  0
 21 22  2  0  0  0
 34 33  1  0  0  0
 33 27  1  0  0  0
 22 23  1  0  0  0
 24 23  2  0  0  0
 24 25  1  0  0  0
 27 26  1  0  0  0
 43 47  1  0  0  0
 43 48  1  0  0  0
 30 35  1  0  0  0
 32 36  1  0  0  0
  3  4  1  0  0  0
M  END
> <minimizedAffinity>
-9.80184

$$$$
3IES_M24_A_552


 48 53  0  0  0  0  0  0  0  0999 V2000
  -33.2482   14.4178   -9.3935 P   0  0  0  0  0  0  0  0  0  0  0  0
  -34.1837   15.3181   -8.5996 O   0  0  0  0  0  0  0  0  0  0  0  0
  -33.3608   12.9306   -9.3271 O   0  0  0  0  0  0  0  0  0  0  0  0
  -34.2268   12.6564   -9.6674 H   0  0  0  0  0  0  0  0  0  0  0  0
  -31.7563   14.5749   -8.7833 O   0  0  0  0  0  0  0  0  0  0  0  0
  -31.1182   13.6816   -7.8654 C   0  0  0  0  0  0  0  0  0  0  0  0
  -31.2969   13.8327   -6.6691 O   0  0  0  0  0  0  0  0  0  0  0  0
  -30.2622   12.5924   -8.4823 C   0  0  0  0  0  0  0  0  0  0  0  0
  -29.4273   12.9485   -9.5427 C   0  0  0  0  0  0  0  0  0  0  0  0
  -28.6057   12.0179  -10.1559 C   0  0  0  0  0  0  0  0  0  0  0  0
  -28.6265   10.7051   -9.7361 C   0  0  0  0  0  0  0  0  0  0  0  0
  -29.4374   10.3521   -8.6827 C   0  0  0  0  0  0  0  0  0  0  0  0
  -30.2735   11.2819   -8.0538 C   0  0  0  0  0  0  0  0  0  0  0  0
  -29.4194    8.9369   -8.2570 C   0  0  0  0  0  0  0  0  0  0  0  0
  -29.8432    8.5581   -7.0565 N   0  0  0  0  0  0  0  0  0  0  0  0
  -29.6982    7.2307   -7.0227 O   0  0  0  0  0  0  0  0  0  0  0  0
  -29.1964    6.7630   -8.1640 C   0  0  0  0  0  0  0  0  0  0  0  0
  -29.0222    7.8369   -8.9712 N   0  0  0  0  0  0  0  0  0  0  0  0
  -28.8810    5.3581   -8.4022 C   0  0  0  0  0  0  0  0  0  0  0  0
  -28.5375    4.9044   -9.6547 C   0  0  0  0  0  0  0  0  0  0  0  0
  -28.2742    3.5494   -9.8182 C   0  0  0  0  0  0  0  0  0  0  0  0
  -28.3926    2.6882   -8.7319 C   0  0  0  0  0  0  0  0  0  0  0  0
  -28.7831    3.1689   -7.4879 C   0  0  0  0  0  0  0  0  0  0  0  0
  -29.0253    4.5160   -7.3304 C   0  0  0  0  0  0  0  0  0  0  0  0
  -29.3958    5.0694   -6.1677 F   0  0  0  0  0  0  0  0  0  0  0  0
  -33.0892   15.0046  -10.8838 O   0  0  0  0  0  0  0  0  0  0  0  0
  -31.9828   14.6276  -11.7128 C   0  0  0  0  0  0  0  0  0  0  0  0
  -31.8236   12.7081  -14.7271 C   0  0  0  0  0  0  0  0  0  0  0  0
  -31.6771   11.5544  -13.7445 C   0  0  0  0  0  0  0  0  0  0  0  0
  -32.8825   10.8073  -13.8100 O   0  0  0  0  0  0  0  0  0  0  0  0
  -31.6124   12.2215  -12.3936 C   0  0  0  0  0  0  0  0  0  0  0  0
  -32.1420   11.3522  -11.3783 O   0  0  0  0  0  0  0  0  0  0  0  0
  -32.4517   13.4783  -12.5913 C   0  0  0  0  0  0  0  0  0  0  0  0
  -32.3113   13.8268  -13.9872 O   0  0  0  0  0  0  0  0  0  0  0  0
  -33.6357   11.3929  -13.6347 H   0  0  0  0  0  0  0  0  0  0  0  0
  -33.0492   11.0991  -11.6103 H   0  0  0  0  0  0  0  0  0  0  0  0
  -29.5631   14.6722  -18.9528 N   0  0  0  0  0  0  0  0  0  0  0  0
  -30.8616   14.4322  -18.6937 C   0  0  0  0  0  0  0  0  0  0  0  0
  -31.2794   13.9186  -17.5287 N   0  0  0  0  0  0  0  0  0  0  0  0
  -30.3902   13.5897  -16.5548 C   0  0  0  0  0  0  0  0  0  0  0  0
  -29.0483   13.8087  -16.7447 C   0  0  0  0  0  0  0  0  0  0  0  0
  -28.6209   14.3982  -18.0257 C   0  0  0  0  0  0  0  0  0  0  0  0
  -27.2969   14.6238  -18.2760 N   0  0  0  0  0  0  0  0  0  0  0  0
  -28.3909   13.3956  -15.6262 N   0  0  0  0  0  0  0  0  0  0  0  0
  -29.3363   12.9622  -14.7656 C   0  0  0  0  0  0  0  0  0  0  0  0
  -30.5340   13.0677  -15.3416 N   0  0  0  0  0  0  0  0  0  0  0  0
  -27.0184   15.0180  -19.1341 H   0  0  0  0  0  0  0  0  0  0  0  0
  -26.6214   14.3922  -17.5984 H   0  0  0  0  0  0  0  0  0  0  0  0
 26  1  1  0  0  0
  1  2  2  0  0  0
  1  5  1  0  0  0
  1  3  1  0  0  0
 38 37  2  0  0  0
 37 42  1  0  0  0
 38 39  1  0  0  0
 39 40  2  0  0  0
 40 41  1  0  0  0
 40 46  1  0  0  0
 42 41  2  0  0  0
 41 44  1  0  0  0
 42 43  1  0  0  0
 44 45  2  0  0  0
 46 45  1  0  0  0
 46 28  1  0  0  0
 29 28  1  0  0  0
 28 34  1  0  0  0
 30 29  1  0  0  0
 29 31  1  0  0  0
  7  6  2  0  0  0
  6  8  1  0  0  0
  6  5  1  0  0  0
 13  8  2  0  0  0
  8  9  1  0  0  0
  9 10  2  0  0  0
 11 10  1  0  0  0
 12 11  2  0  0  0
 31 32  1  0  0  0
 31 33  1  0  0  0
 14 12  1  0  0  0
 13 12  1  0  0  0
 15 14  2  0  0  0
 14 18  1  0  0  0
 16 15  1  0  0  0
 16 17  1  0  0  0
 19 17  1  0  0  0
 17 18  2  0  0  0
 20 19  2  0  0  0
 19 24  1  0  0  0
 20 21  1  0  0  0
 21 22  2  0  0  0
 34 33  1  0  0  0
 33 27  1  0  0  0
 22 23  1  0  0  0
 24 23  2  0  0  0
 24 25  1  0  0  0
 27 26  1  0  0  0
 43 47  1  0  0  0
 43 48  1  0  0  0
 30 35  1  0  0  0
 32 36  1  0  0  0
  3  4  1  0  0  0
M  END
> <minimizedAffinity>
-9.55598

$$$$
