2Y8C_DUQ_A_400


 41 44  0  0  0  0  0  0  0  0999 V2000
   -8.5853   28.3911   -2.3255 C   0  0  0  0  0  0  0  0  0  0  0  0
   -8.8826   27.5282   -1.0885 C   0  0  0  0  0  0  0  0  0  0  0  0
   -7.7262   27.2166   -0.1828 C   0  0  0  0  0  0  0  0  0  0  0  0
   -7.7848   28.0014    1.1203 C   0  0  0  0  0  0  0  0  0  0  0  0
   -8.6187   27.7300    2.1179 N   0  0  0  0  0  0  0  0  0  0  0  0
   -7.0608   28.9464    1.1630 O   0  0  0  0  0  0  0  0  0  0  0  0
   -9.2425   26.9767    2.0049 H   0  0  0  0  0  0  0  0  0  0  0  0
   -8.6698   28.4826    3.3803 C   0  0  0  0  0  0  0  0  0  0  0  0
   -7.6355   27.8000    4.2708 C   0  0  0  0  0  0  0  0  0  0  0  0
   -6.4382   28.6065    4.2051 O   0  0  0  0  0  0  0  0  0  0  0  0
   -6.1397   28.6678    3.2842 H   0  0  0  0  0  0  0  0  0  0  0  0
   -7.4199   25.7082   -0.0803 C   0  0  0  0  0  0  0  0  0  0  0  0
   -2.0258   24.8525   -0.2680 O   0  0  0  0  0  0  0  0  0  0  0  0
   -3.2582   25.0143   -0.2024 C   0  0  0  0  0  0  0  0  0  0  0  0
   -4.1308   23.9678   -0.1541 N   0  0  0  0  0  0  0  0  0  0  0  0
   -5.4605   24.2040   -0.0815 C   0  0  0  0  0  0  0  0  0  0  0  0
   -6.3365   23.3066   -0.0055 O   0  0  0  0  0  0  0  0  0  0  0  0
   -3.7073   26.3083   -0.1926 C   0  0  0  0  0  0  0  0  0  0  0  0
   -5.0916   26.5499   -0.1544 C   0  0  0  0  0  0  0  0  0  0  0  0
   -5.9450   25.5204   -0.0738 N   0  0  0  0  0  0  0  0  0  0  0  0
   -3.7939   23.0429   -0.1720 H   0  0  0  0  0  0  0  0  0  0  0  0
   -9.1963   27.5780   -3.3631 O   0  0  0  0  0  0  0  0  0  0  0  0
   -8.4841   27.3285   -4.6010 C   0  0  0  0  0  0  0  0  0  0  0  0
   -9.3271   26.2519   -5.2589 C   0  0  0  0  0  0  0  0  0  0  0  0
  -10.3374   25.6065   -4.5144 C   0  0  0  0  0  0  0  0  0  0  0  0
  -11.0957   24.5896   -5.1361 C   0  0  0  0  0  0  0  0  0  0  0  0
  -10.9172   24.2352   -6.4764 C   0  0  0  0  0  0  0  0  0  0  0  0
   -9.9290   24.9066   -7.2155 C   0  0  0  0  0  0  0  0  0  0  0  0
   -9.1821   25.9052   -6.6046 C   0  0  0  0  0  0  0  0  0  0  0  0
   -8.6394   28.5825   -5.4510 C   0  0  0  0  0  0  0  0  0  0  0  0
   -9.8816   29.2723   -5.4375 C   0  0  0  0  0  0  0  0  0  0  0  0
  -10.0745   30.4306   -6.2236 C   0  0  0  0  0  0  0  0  0  0  0  0
   -9.0310   30.8671   -7.0602 C   0  0  0  0  0  0  0  0  0  0  0  0
   -7.7959   30.1826   -7.1030 C   0  0  0  0  0  0  0  0  0  0  0  0
   -7.6033   29.0411   -6.2955 C   0  0  0  0  0  0  0  0  0  0  0  0
   -7.0181   26.8985   -4.2839 C   0  0  0  0  0  0  0  0  0  0  0  0
   -5.9471   27.8147   -4.4265 C   0  0  0  0  0  0  0  0  0  0  0  0
   -4.5757   27.4267   -4.1959 C   0  0  0  0  0  0  0  0  0  0  0  0
   -4.3047   26.1193   -3.7957 C   0  0  0  0  0  0  0  0  0  0  0  0
   -5.3601   25.1795   -3.6525 C   0  0  0  0  0  0  0  0  0  0  0  0
   -6.6939   25.5718   -3.9008 C   0  0  0  0  0  0  0  0  0  0  0  0
 13 14  2  0  0  0
 14 15  1  0  0  0
 14 18  1  0  0  0
 15 16  1  0  0  0
 16 17  2  0  0  0
 16 20  1  0  0  0
 18 19  2  0  0  0
 19 20  1  0  0  0
 20 12  1  0  0  0
 12  3  1  0  0  0
  3  4  1  0  0  0
  3  2  1  0  0  0
  4  5  1  0  0  0
  4  6  2  0  0  0
  5  8  1  0  0  0
  8  9  1  0  0  0
  9 10  1  0  0  0
  2  1  1  0  0  0
  1 22  1  0  0  0
 22 23  1  0  0  0
 23 24  1  0  0  0
 23 30  1  0  0  0
 23 36  1  0  0  0
 24 25  1  0  0  0
 24 29  2  0  0  0
 25 26  2  0  0  0
 26 27  1  0  0  0
 27 28  2  0  0  0
 28 29  1  0  0  0
 30 31  1  0  0  0
 30 35  2  0  0  0
 31 32  2  0  0  0
 32 33  1  0  0  0
 33 34  2  0  0  0
 34 35  1  0  0  0
 36 37  1  0  0  0
 36 41  2  0  0  0
 37 38  2  0  0  0
 38 39  1  0  0  0
 39 40  2  0  0  0
 40 41  1  0  0  0
 15 21  1  0  0  0
  5  7  1  0  0  0
 10 11  1  0  0  0
M  END
> <minimizedAffinity>
-8.35720

$$$$
2Y8C_DUQ_A_400


 41 44  0  0  0  0  0  0  0  0999 V2000
   -9.2858   26.6050   -2.1397 C   0  0  0  0  0  0  0  0  0  0  0  0
   -8.8242   27.7258   -1.1943 C   0  0  0  0  0  0  0  0  0  0  0  0
   -7.7259   27.3902   -0.2269 C   0  0  0  0  0  0  0  0  0  0  0  0
   -7.8451   28.1689    1.0756 C   0  0  0  0  0  0  0  0  0  0  0  0
   -8.6202   27.8084    2.0922 N   0  0  0  0  0  0  0  0  0  0  0  0
   -7.2332   29.1906    1.1004 O   0  0  0  0  0  0  0  0  0  0  0  0
   -9.1561   26.9883    1.9947 H   0  0  0  0  0  0  0  0  0  0  0  0
   -8.7292   28.5558    3.3541 C   0  0  0  0  0  0  0  0  0  0  0  0
   -7.7396   27.8670    4.2894 C   0  0  0  0  0  0  0  0  0  0  0  0
   -6.4965   28.5963    4.1842 O   0  0  0  0  0  0  0  0  0  0  0  0
   -6.1924   28.5857    3.2632 H   0  0  0  0  0  0  0  0  0  0  0  0
   -7.4505   25.8764   -0.1169 C   0  0  0  0  0  0  0  0  0  0  0  0
   -2.0869   24.9180   -0.5381 O   0  0  0  0  0  0  0  0  0  0  0  0
   -3.3127   25.1010   -0.4230 C   0  0  0  0  0  0  0  0  0  0  0  0
   -4.2114   24.0766   -0.4657 N   0  0  0  0  0  0  0  0  0  0  0  0
   -5.5322   24.3351   -0.3329 C   0  0  0  0  0  0  0  0  0  0  0  0
   -6.4297   23.4559   -0.3317 O   0  0  0  0  0  0  0  0  0  0  0  0
   -3.7269   26.3966   -0.2610 C   0  0  0  0  0  0  0  0  0  0  0  0
   -5.1031   26.6655   -0.1604 C   0  0  0  0  0  0  0  0  0  0  0  0
   -5.9813   25.6540   -0.1696 N   0  0  0  0  0  0  0  0  0  0  0  0
   -3.8997   23.1514   -0.5927 H   0  0  0  0  0  0  0  0  0  0  0  0
   -9.5142   27.3672   -3.3553 O   0  0  0  0  0  0  0  0  0  0  0  0
   -8.9125   26.9385   -4.6027 C   0  0  0  0  0  0  0  0  0  0  0  0
   -9.0033   28.1858   -5.4621 C   0  0  0  0  0  0  0  0  0  0  0  0
   -9.3450   29.4187   -4.8664 C   0  0  0  0  0  0  0  0  0  0  0  0
   -9.4487   30.5644   -5.6862 C   0  0  0  0  0  0  0  0  0  0  0  0
   -9.1748   30.5324   -7.0566 C   0  0  0  0  0  0  0  0  0  0  0  0
   -8.8056   29.3051   -7.6320 C   0  0  0  0  0  0  0  0  0  0  0  0
   -8.7050   28.1781   -6.8271 C   0  0  0  0  0  0  0  0  0  0  0  0
   -7.4338   26.7142   -4.3164 C   0  0  0  0  0  0  0  0  0  0  0  0
   -6.5567   27.8322   -4.3158 C   0  0  0  0  0  0  0  0  0  0  0  0
   -5.1747   27.6675   -4.0712 C   0  0  0  0  0  0  0  0  0  0  0  0
   -4.6682   26.3699   -3.8741 C   0  0  0  0  0  0  0  0  0  0  0  0
   -5.5211   25.2438   -3.8917 C   0  0  0  0  0  0  0  0  0  0  0  0
   -6.9040   25.4202   -4.1118 C   0  0  0  0  0  0  0  0  0  0  0  0
   -9.6913   25.7084   -5.1639 C   0  0  0  0  0  0  0  0  0  0  0  0
  -10.9910   25.3974   -4.6939 C   0  0  0  0  0  0  0  0  0  0  0  0
  -11.7099   24.2327   -5.1536 C   0  0  0  0  0  0  0  0  0  0  0  0
  -11.1151   23.4080   -6.1070 C   0  0  0  0  0  0  0  0  0  0  0  0
   -9.8099   23.6940   -6.5890 C   0  0  0  0  0  0  0  0  0  0  0  0
   -9.1140   24.8273   -6.1139 C   0  0  0  0  0  0  0  0  0  0  0  0
 13 14  2  0  0  0
 14 15  1  0  0  0
 14 18  1  0  0  0
 15 16  1  0  0  0
 16 17  2  0  0  0
 16 20  1  0  0  0
 18 19  2  0  0  0
 19 20  1  0  0  0
 20 12  1  0  0  0
 12  3  1  0  0  0
  3  4  1  0  0  0
  3  2  1  0  0  0
  4  5  1  0  0  0
  4  6  2  0  0  0
  5  8  1  0  0  0
  8  9  1  0  0  0
  9 10  1  0  0  0
  2  1  1  0  0  0
  1 22  1  0  0  0
 22 23  1  0  0  0
 23 24  1  0  0  0
 23 30  1  0  0  0
 23 36  1  0  0  0
 24 25  1  0  0  0
 24 29  2  0  0  0
 25 26  2  0  0  0
 26 27  1  0  0  0
 27 28  2  0  0  0
 28 29  1  0  0  0
 30 31  1  0  0  0
 30 35  2  0  0  0
 31 32  2  0  0  0
 32 33  1  0  0  0
 33 34  2  0  0  0
 34 35  1  0  0  0
 36 37  1  0  0  0
 36 41  2  0  0  0
 37 38  2  0  0  0
 38 39  1  0  0  0
 39 40  2  0  0  0
 40 41  1  0  0  0
 15 21  1  0  0  0
  5  7  1  0  0  0
 10 11  1  0  0  0
M  END
> <minimizedAffinity>
-8.06011

$$$$
2Y8C_DUQ_A_400


 41 44  0  0  0  0  0  0  0  0999 V2000
   -8.0502   25.0685   -1.7682 C   0  0  0  0  0  0  0  0  0  0  0  0
   -8.6090   25.8553   -0.5716 C   0  0  0  0  0  0  0  0  0  0  0  0
   -7.6091   26.4605    0.3711 C   0  0  0  0  0  0  0  0  0  0  0  0
   -8.1494   27.7010    1.0686 C   0  0  0  0  0  0  0  0  0  0  0  0
   -9.3310   27.7625    1.6723 N   0  0  0  0  0  0  0  0  0  0  0  0
   -7.4543   28.6639    0.9769 O   0  0  0  0  0  0  0  0  0  0  0  0
   -9.8956   26.9560    1.6631 H   0  0  0  0  0  0  0  0  0  0  0  0
   -9.8498   28.9581    2.3536 C   0  0  0  0  0  0  0  0  0  0  0  0
   -9.4136   28.7863    3.8057 C   0  0  0  0  0  0  0  0  0  0  0  0
   -8.1773   29.5197    3.9545 O   0  0  0  0  0  0  0  0  0  0  0  0
   -7.5180   29.1711    3.3343 H   0  0  0  0  0  0  0  0  0  0  0  0
   -6.8907   25.4172    1.2515 C   0  0  0  0  0  0  0  0  0  0  0  0
   -1.7141   25.1148   -0.4734 O   0  0  0  0  0  0  0  0  0  0  0  0
   -2.8917   25.1444   -0.0711 C   0  0  0  0  0  0  0  0  0  0  0  0
   -3.7371   24.0835   -0.2073 N   0  0  0  0  0  0  0  0  0  0  0  0
   -5.0064   24.1722    0.2508 C   0  0  0  0  0  0  0  0  0  0  0  0
   -5.8468   23.2400    0.1947 O   0  0  0  0  0  0  0  0  0  0  0  0
   -3.3112   26.3105    0.5126 C   0  0  0  0  0  0  0  0  0  0  0  0
   -4.6420   26.4121    0.9543 C   0  0  0  0  0  0  0  0  0  0  0  0
   -5.4607   25.3570    0.8489 N   0  0  0  0  0  0  0  0  0  0  0  0
   -3.4244   23.2553   -0.6380 H   0  0  0  0  0  0  0  0  0  0  0  0
   -8.8267   25.6517   -2.8488 O   0  0  0  0  0  0  0  0  0  0  0  0
   -8.2131   26.6118   -3.7452 C   0  0  0  0  0  0  0  0  0  0  0  0
   -8.8083   26.2390   -5.0904 C   0  0  0  0  0  0  0  0  0  0  0  0
   -9.4175   24.9770   -5.2567 C   0  0  0  0  0  0  0  0  0  0  0  0
   -9.9442   24.6378   -6.5228 C   0  0  0  0  0  0  0  0  0  0  0  0
   -9.9305   25.5257   -7.6023 C   0  0  0  0  0  0  0  0  0  0  0  0
   -9.3487   26.7907   -7.4150 C   0  0  0  0  0  0  0  0  0  0  0  0
   -8.8293   27.1242   -6.1712 C   0  0  0  0  0  0  0  0  0  0  0  0
   -8.7857   27.9746   -3.3789 C   0  0  0  0  0  0  0  0  0  0  0  0
  -10.1023   28.0470   -2.8493 C   0  0  0  0  0  0  0  0  0  0  0  0
  -10.6787   29.2921   -2.5113 C   0  0  0  0  0  0  0  0  0  0  0  0
   -9.9462   30.4689   -2.7514 C   0  0  0  0  0  0  0  0  0  0  0  0
   -8.6439   30.4188   -3.2966 C   0  0  0  0  0  0  0  0  0  0  0  0
   -8.0662   29.1692   -3.6079 C   0  0  0  0  0  0  0  0  0  0  0  0
   -6.6601   26.4828   -3.6670 C   0  0  0  0  0  0  0  0  0  0  0  0
   -5.9792   25.4743   -4.3924 C   0  0  0  0  0  0  0  0  0  0  0  0
   -4.5499   25.2961   -4.2926 C   0  0  0  0  0  0  0  0  0  0  0  0
   -3.8196   26.1604   -3.4786 C   0  0  0  0  0  0  0  0  0  0  0  0
   -4.4795   27.1752   -2.7354 C   0  0  0  0  0  0  0  0  0  0  0  0
   -5.8807   27.3226   -2.8307 C   0  0  0  0  0  0  0  0  0  0  0  0
 13 14  2  0  0  0
 14 15  1  0  0  0
 14 18  1  0  0  0
 15 16  1  0  0  0
 16 17  2  0  0  0
 16 20  1  0  0  0
 18 19  2  0  0  0
 19 20  1  0  0  0
 20 12  1  0  0  0
 12  3  1  0  0  0
  3  4  1  0  0  0
  3  2  1  0  0  0
  4  5  1  0  0  0
  4  6  2  0  0  0
  5  8  1  0  0  0
  8  9  1  0  0  0
  9 10  1  0  0  0
  2  1  1  0  0  0
  1 22  1  0  0  0
 22 23  1  0  0  0
 23 24  1  0  0  0
 23 30  1  0  0  0
 23 36  1  0  0  0
 24 25  1  0  0  0
 24 29  2  0  0  0
 25 26  2  0  0  0
 26 27  1  0  0  0
 27 28  2  0  0  0
 28 29  1  0  0  0
 30 31  1  0  0  0
 30 35  2  0  0  0
 31 32  2  0  0  0
 32 33  1  0  0  0
 33 34  2  0  0  0
 34 35  1  0  0  0
 36 37  1  0  0  0
 36 41  2  0  0  0
 37 38  2  0  0  0
 38 39  1  0  0  0
 39 40  2  0  0  0
 40 41  1  0  0  0
 15 21  1  0  0  0
  5  7  1  0  0  0
 10 11  1  0  0  0
M  END
> <minimizedAffinity>
-8.04679

$$$$
2Y8C_DUQ_A_400


 41 44  0  0  0  0  0  0  0  0999 V2000
   -9.5224   26.7111   -1.6063 C   0  0  0  0  0  0  0  0  0  0  0  0
   -8.7698   25.8373   -0.5899 C   0  0  0  0  0  0  0  0  0  0  0  0
   -7.6865   26.5030    0.2089 C   0  0  0  0  0  0  0  0  0  0  0  0
   -8.1646   27.7856    0.8749 C   0  0  0  0  0  0  0  0  0  0  0  0
   -7.6724   28.9910    0.6122 N   0  0  0  0  0  0  0  0  0  0  0  0
   -8.9859   27.6277    1.7231 O   0  0  0  0  0  0  0  0  0  0  0  0
   -6.9483   29.0584   -0.0515 H   0  0  0  0  0  0  0  0  0  0  0  0
   -8.1397   30.2315    1.2491 C   0  0  0  0  0  0  0  0  0  0  0  0
   -7.0484   30.5733    2.2594 C   0  0  0  0  0  0  0  0  0  0  0  0
   -7.7090   30.7703    3.5294 O   0  0  0  0  0  0  0  0  0  0  0  0
   -8.3625   31.4824    3.4470 H   0  0  0  0  0  0  0  0  0  0  0  0
   -6.8777   25.5195    1.0796 C   0  0  0  0  0  0  0  0  0  0  0  0
   -1.8057   25.3433   -0.9471 O   0  0  0  0  0  0  0  0  0  0  0  0
   -2.9576   25.3445   -0.4753 C   0  0  0  0  0  0  0  0  0  0  0  0
   -3.7735   24.2540   -0.5375 N   0  0  0  0  0  0  0  0  0  0  0  0
   -5.0157   24.3125   -0.0058 C   0  0  0  0  0  0  0  0  0  0  0  0
   -5.8262   23.3527    0.0090 O   0  0  0  0  0  0  0  0  0  0  0  0
   -3.3805   26.5098    0.1073 C   0  0  0  0  0  0  0  0  0  0  0  0
   -4.6853   26.5789    0.6261 C   0  0  0  0  0  0  0  0  0  0  0  0
   -5.4730   25.4958    0.5930 N   0  0  0  0  0  0  0  0  0  0  0  0
   -3.4595   23.4263   -0.9683 H   0  0  0  0  0  0  0  0  0  0  0  0
   -9.0888   26.0967   -2.8494 O   0  0  0  0  0  0  0  0  0  0  0  0
   -8.6629   26.9280   -3.9582 C   0  0  0  0  0  0  0  0  0  0  0  0
   -7.1600   26.7185   -3.9734 C   0  0  0  0  0  0  0  0  0  0  0  0
   -6.3166   27.7572   -4.4221 C   0  0  0  0  0  0  0  0  0  0  0  0
   -4.9218   27.5353   -4.4524 C   0  0  0  0  0  0  0  0  0  0  0  0
   -4.3428   26.3441   -4.0056 C   0  0  0  0  0  0  0  0  0  0  0  0
   -5.1913   25.3293   -3.5324 C   0  0  0  0  0  0  0  0  0  0  0  0
   -6.5626   25.5461   -3.5038 C   0  0  0  0  0  0  0  0  0  0  0  0
   -9.2057   26.2760   -5.2227 C   0  0  0  0  0  0  0  0  0  0  0  0
   -9.8130   24.9947   -5.1288 C   0  0  0  0  0  0  0  0  0  0  0  0
  -10.3153   24.3461   -6.2794 C   0  0  0  0  0  0  0  0  0  0  0  0
  -10.1631   24.9676   -7.5323 C   0  0  0  0  0  0  0  0  0  0  0  0
   -9.5435   26.2319   -7.6486 C   0  0  0  0  0  0  0  0  0  0  0  0
   -9.0672   26.8838   -6.4909 C   0  0  0  0  0  0  0  0  0  0  0  0
   -9.1078   28.4025   -3.7079 C   0  0  0  0  0  0  0  0  0  0  0  0
  -10.2461   28.9367   -4.3604 C   0  0  0  0  0  0  0  0  0  0  0  0
  -10.6457   30.3138   -4.1918 C   0  0  0  0  0  0  0  0  0  0  0  0
   -9.9028   31.1304   -3.3407 C   0  0  0  0  0  0  0  0  0  0  0  0
   -8.7531   30.6208   -2.6803 C   0  0  0  0  0  0  0  0  0  0  0  0
   -8.3662   29.2762   -2.8721 C   0  0  0  0  0  0  0  0  0  0  0  0
 13 14  2  0  0  0
 14 15  1  0  0  0
 14 18  1  0  0  0
 15 16  1  0  0  0
 16 17  2  0  0  0
 16 20  1  0  0  0
 18 19  2  0  0  0
 19 20  1  0  0  0
 20 12  1  0  0  0
 12  3  1  0  0  0
  3  4  1  0  0  0
  3  2  1  0  0  0
  4  5  1  0  0  0
  4  6  2  0  0  0
  5  8  1  0  0  0
  8  9  1  0  0  0
  9 10  1  0  0  0
  2  1  1  0  0  0
  1 22  1  0  0  0
 22 23  1  0  0  0
 23 24  1  0  0  0
 23 30  1  0  0  0
 23 36  1  0  0  0
 24 25  1  0  0  0
 24 29  2  0  0  0
 25 26  2  0  0  0
 26 27  1  0  0  0
 27 28  2  0  0  0
 28 29  1  0  0  0
 30 31  1  0  0  0
 30 35  2  0  0  0
 31 32  2  0  0  0
 32 33  1  0  0  0
 33 34  2  0  0  0
 34 35  1  0  0  0
 36 37  1  0  0  0
 36 41  2  0  0  0
 37 38  2  0  0  0
 38 39  1  0  0  0
 39 40  2  0  0  0
 40 41  1  0  0  0
 15 21  1  0  0  0
  5  7  1  0  0  0
 10 11  1  0  0  0
M  END
> <minimizedAffinity>
-7.89013

$$$$
2Y8C_DUQ_A_400


 41 44  0  0  0  0  0  0  0  0999 V2000
   -8.3867   28.2859   -2.0754 C   0  0  0  0  0  0  0  0  0  0  0  0
   -8.6849   27.4553   -0.8167 C   0  0  0  0  0  0  0  0  0  0  0  0
   -7.5702   27.3036    0.1779 C   0  0  0  0  0  0  0  0  0  0  0  0
   -7.6746   28.3042    1.3203 C   0  0  0  0  0  0  0  0  0  0  0  0
   -7.3589   29.5903    1.2169 N   0  0  0  0  0  0  0  0  0  0  0  0
   -8.0020   27.8328    2.3641 O   0  0  0  0  0  0  0  0  0  0  0  0
   -7.0310   29.9157    0.3475 H   0  0  0  0  0  0  0  0  0  0  0  0
   -7.4676   30.5591    2.3180 C   0  0  0  0  0  0  0  0  0  0  0  0
   -6.0382   30.7142    2.8291 C   0  0  0  0  0  0  0  0  0  0  0  0
   -5.8174   29.6393    3.7693 O   0  0  0  0  0  0  0  0  0  0  0  0
   -6.4673   29.6988    4.4869 H   0  0  0  0  0  0  0  0  0  0  0  0
   -7.2838   25.8354    0.5549 C   0  0  0  0  0  0  0  0  0  0  0  0
   -1.9725   24.7940   -0.1996 O   0  0  0  0  0  0  0  0  0  0  0  0
   -3.1867   24.9941   -0.0125 C   0  0  0  0  0  0  0  0  0  0  0  0
   -4.1169   24.0043   -0.1307 N   0  0  0  0  0  0  0  0  0  0  0  0
   -5.4230   24.2798    0.0865 C   0  0  0  0  0  0  0  0  0  0  0  0
   -6.3459   23.4293    0.0280 O   0  0  0  0  0  0  0  0  0  0  0  0
   -3.5549   26.2733    0.3106 C   0  0  0  0  0  0  0  0  0  0  0  0
   -4.9172   26.5642    0.4994 C   0  0  0  0  0  0  0  0  0  0  0  0
   -5.8253   25.5829    0.4150 N   0  0  0  0  0  0  0  0  0  0  0  0
   -3.8385   23.0917   -0.3734 H   0  0  0  0  0  0  0  0  0  0  0  0
   -9.2119   27.5903   -3.0480 O   0  0  0  0  0  0  0  0  0  0  0  0
   -8.7017   27.3361   -4.3809 C   0  0  0  0  0  0  0  0  0  0  0  0
   -7.2740   26.8972   -4.1128 C   0  0  0  0  0  0  0  0  0  0  0  0
   -7.0303   25.6272   -3.5479 C   0  0  0  0  0  0  0  0  0  0  0  0
   -5.6963   25.2456   -3.2827 C   0  0  0  0  0  0  0  0  0  0  0  0
   -4.6061   26.0581   -3.6069 C   0  0  0  0  0  0  0  0  0  0  0  0
   -4.8605   27.3073   -4.1972 C   0  0  0  0  0  0  0  0  0  0  0  0
   -6.1717   27.6837   -4.4568 C   0  0  0  0  0  0  0  0  0  0  0  0
   -9.4423   26.1120   -4.9026 C   0  0  0  0  0  0  0  0  0  0  0  0
   -8.9825   25.4862   -6.0926 C   0  0  0  0  0  0  0  0  0  0  0  0
   -9.6496   24.3580   -6.6210 C   0  0  0  0  0  0  0  0  0  0  0  0
  -10.8086   23.8888   -5.9763 C   0  0  0  0  0  0  0  0  0  0  0  0
  -11.2932   24.5103   -4.8038 C   0  0  0  0  0  0  0  0  0  0  0  0
  -10.6062   25.6212   -4.2690 C   0  0  0  0  0  0  0  0  0  0  0  0
   -8.8294   28.6286   -5.2457 C   0  0  0  0  0  0  0  0  0  0  0  0
   -9.7507   29.6463   -4.8961 C   0  0  0  0  0  0  0  0  0  0  0  0
   -9.9303   30.8250   -5.7103 C   0  0  0  0  0  0  0  0  0  0  0  0
   -9.1536   30.9743   -6.8582 C   0  0  0  0  0  0  0  0  0  0  0  0
   -8.2278   29.9649   -7.2343 C   0  0  0  0  0  0  0  0  0  0  0  0
   -8.0792   28.8096   -6.4358 C   0  0  0  0  0  0  0  0  0  0  0  0
 13 14  2  0  0  0
 14 15  1  0  0  0
 14 18  1  0  0  0
 15 16  1  0  0  0
 16 17  2  0  0  0
 16 20  1  0  0  0
 18 19  2  0  0  0
 19 20  1  0  0  0
 20 12  1  0  0  0
 12  3  1  0  0  0
  3  4  1  0  0  0
  3  2  1  0  0  0
  4  5  1  0  0  0
  4  6  2  0  0  0
  5  8  1  0  0  0
  8  9  1  0  0  0
  9 10  1  0  0  0
  2  1  1  0  0  0
  1 22  1  0  0  0
 22 23  1  0  0  0
 23 24  1  0  0  0
 23 30  1  0  0  0
 23 36  1  0  0  0
 24 25  1  0  0  0
 24 29  2  0  0  0
 25 26  2  0  0  0
 26 27  1  0  0  0
 27 28  2  0  0  0
 28 29  1  0  0  0
 30 31  1  0  0  0
 30 35  2  0  0  0
 31 32  2  0  0  0
 32 33  1  0  0  0
 33 34  2  0  0  0
 34 35  1  0  0  0
 36 37  1  0  0  0
 36 41  2  0  0  0
 37 38  2  0  0  0
 38 39  1  0  0  0
 39 40  2  0  0  0
 40 41  1  0  0  0
 15 21  1  0  0  0
  5  7  1  0  0  0
 10 11  1  0  0  0
M  END
> <minimizedAffinity>
-7.88500

$$$$
2Y8C_DUQ_A_400


 41 44  0  0  0  0  0  0  0  0999 V2000
   -9.0815   29.1494   -2.7697 C   0  0  0  0  0  0  0  0  0  0  0  0
   -9.6435   29.0700   -1.3410 C   0  0  0  0  0  0  0  0  0  0  0  0
   -8.6616   28.7979   -0.2381 C   0  0  0  0  0  0  0  0  0  0  0  0
   -8.2025   30.0732    0.4548 C   0  0  0  0  0  0  0  0  0  0  0  0
   -8.6470   31.2879    0.1528 N   0  0  0  0  0  0  0  0  0  0  0  0
   -7.3419   29.9161    1.2633 O   0  0  0  0  0  0  0  0  0  0  0  0
   -9.3115   31.3690   -0.5691 H   0  0  0  0  0  0  0  0  0  0  0  0
   -8.2101   32.5193    0.8277 C   0  0  0  0  0  0  0  0  0  0  0  0
   -7.1184   33.0813   -0.0784 C   0  0  0  0  0  0  0  0  0  0  0  0
   -7.7419   33.3591   -1.3521 O   0  0  0  0  0  0  0  0  0  0  0  0
   -8.1249   32.5428   -1.7095 H   0  0  0  0  0  0  0  0  0  0  0  0
   -9.0703   27.6164    0.6656 C   0  0  0  0  0  0  0  0  0  0  0  0
   -5.8962   23.2539   -0.2053 O   0  0  0  0  0  0  0  0  0  0  0  0
   -6.5884   24.2654    0.0122 C   0  0  0  0  0  0  0  0  0  0  0  0
   -6.4533   25.0134    1.1440 N   0  0  0  0  0  0  0  0  0  0  0  0
   -7.2319   26.1041    1.3258 C   0  0  0  0  0  0  0  0  0  0  0  0
   -7.1606   26.8679    2.3208 O   0  0  0  0  0  0  0  0  0  0  0  0
   -7.5134   24.5926   -0.9436 C   0  0  0  0  0  0  0  0  0  0  0  0
   -8.3465   25.7055   -0.7343 C   0  0  0  0  0  0  0  0  0  0  0  0
   -8.1891   26.4576    0.3631 N   0  0  0  0  0  0  0  0  0  0  0  0
   -5.7910   24.7603    1.8269 H   0  0  0  0  0  0  0  0  0  0  0  0
   -9.0440   27.7383   -3.1136 O   0  0  0  0  0  0  0  0  0  0  0  0
   -8.4777   27.3163   -4.3797 C   0  0  0  0  0  0  0  0  0  0  0  0
   -7.1121   26.7923   -3.9755 C   0  0  0  0  0  0  0  0  0  0  0  0
   -6.3472   27.5019   -3.0253 C   0  0  0  0  0  0  0  0  0  0  0  0
   -5.0680   27.0123   -2.6796 C   0  0  0  0  0  0  0  0  0  0  0  0
   -4.5537   25.8235   -3.2049 C   0  0  0  0  0  0  0  0  0  0  0  0
   -5.3380   25.1101   -4.1267 C   0  0  0  0  0  0  0  0  0  0  0  0
   -6.5948   25.5916   -4.4683 C   0  0  0  0  0  0  0  0  0  0  0  0
   -9.2881   26.1109   -4.8370 C   0  0  0  0  0  0  0  0  0  0  0  0
   -9.0751   25.5955   -6.1440 C   0  0  0  0  0  0  0  0  0  0  0  0
   -9.8168   24.4888   -6.6151 C   0  0  0  0  0  0  0  0  0  0  0  0
  -10.8072   23.9307   -5.7864 C   0  0  0  0  0  0  0  0  0  0  0  0
  -11.0481   24.4423   -4.4917 C   0  0  0  0  0  0  0  0  0  0  0  0
  -10.2852   25.5320   -4.0199 C   0  0  0  0  0  0  0  0  0  0  0  0
   -8.4407   28.5253   -5.3654 C   0  0  0  0  0  0  0  0  0  0  0  0
   -9.6350   29.1813   -5.7529 C   0  0  0  0  0  0  0  0  0  0  0  0
   -9.6350   30.2643   -6.7076 C   0  0  0  0  0  0  0  0  0  0  0  0
   -8.4198   30.6910   -7.2408 C   0  0  0  0  0  0  0  0  0  0  0  0
   -7.2091   30.0452   -6.8740 C   0  0  0  0  0  0  0  0  0  0  0  0
   -7.2304   28.9748   -5.9529 C   0  0  0  0  0  0  0  0  0  0  0  0
 13 14  2  0  0  0
 14 15  1  0  0  0
 14 18  1  0  0  0
 15 16  1  0  0  0
 16 17  2  0  0  0
 16 20  1  0  0  0
 18 19  2  0  0  0
 19 20  1  0  0  0
 20 12  1  0  0  0
 12  3  1  0  0  0
  3  4  1  0  0  0
  3  2  1  0  0  0
  4  5  1  0  0  0
  4  6  2  0  0  0
  5  8  1  0  0  0
  8  9  1  0  0  0
  9 10  1  0  0  0
  2  1  1  0  0  0
  1 22  1  0  0  0
 22 23  1  0  0  0
 23 24  1  0  0  0
 23 30  1  0  0  0
 23 36  1  0  0  0
 24 25  1  0  0  0
 24 29  2  0  0  0
 25 26  2  0  0  0
 26 27  1  0  0  0
 27 28  2  0  0  0
 28 29  1  0  0  0
 30 31  1  0  0  0
 30 35  2  0  0  0
 31 32  2  0  0  0
 32 33  1  0  0  0
 33 34  2  0  0  0
 34 35  1  0  0  0
 36 37  1  0  0  0
 36 41  2  0  0  0
 37 38  2  0  0  0
 38 39  1  0  0  0
 39 40  2  0  0  0
 40 41  1  0  0  0
 15 21  1  0  0  0
  5  7  1  0  0  0
 10 11  1  0  0  0
M  END
> <minimizedAffinity>
-7.39003

$$$$
2Y8C_DUQ_A_400


 41 44  0  0  0  0  0  0  0  0999 V2000
   -9.2213   26.4035   -2.1609 C   0  0  0  0  0  0  0  0  0  0  0  0
   -8.4000   27.1384   -1.0892 C   0  0  0  0  0  0  0  0  0  0  0  0
   -7.5571   26.2921   -0.1793 C   0  0  0  0  0  0  0  0  0  0  0  0
   -6.0750   26.3815   -0.5152 C   0  0  0  0  0  0  0  0  0  0  0  0
   -5.1684   25.4889   -0.1337 N   0  0  0  0  0  0  0  0  0  0  0  0
   -5.7580   27.3688   -1.1014 O   0  0  0  0  0  0  0  0  0  0  0  0
   -5.4735   24.7238    0.4055 H   0  0  0  0  0  0  0  0  0  0  0  0
   -3.7378   25.5704   -0.4651 C   0  0  0  0  0  0  0  0  0  0  0  0
   -3.0944   26.1762    0.7788 C   0  0  0  0  0  0  0  0  0  0  0  0
   -3.0993   27.6088    0.5897 O   0  0  0  0  0  0  0  0  0  0  0  0
   -2.6080   27.8302   -0.2168 H   0  0  0  0  0  0  0  0  0  0  0  0
   -7.9484   26.4174    1.3076 C   0  0  0  0  0  0  0  0  0  0  0  0
   -7.9265   31.6328    2.9394 O   0  0  0  0  0  0  0  0  0  0  0  0
   -7.9657   30.4521    2.5474 C   0  0  0  0  0  0  0  0  0  0  0  0
   -9.1388   29.7831    2.3601 N   0  0  0  0  0  0  0  0  0  0  0  0
   -9.1203   28.5009    1.9304 C   0  0  0  0  0  0  0  0  0  0  0  0
  -10.1479   27.8146    1.7036 O   0  0  0  0  0  0  0  0  0  0  0  0
   -6.7610   29.8410    2.3202 C   0  0  0  0  0  0  0  0  0  0  0  0
   -6.7445   28.4967    1.9093 C   0  0  0  0  0  0  0  0  0  0  0  0
   -7.8991   27.8521    1.6944 N   0  0  0  0  0  0  0  0  0  0  0  0
   -9.9969   30.2321    2.5370 H   0  0  0  0  0  0  0  0  0  0  0  0
   -9.1639   27.3719   -3.2425 O   0  0  0  0  0  0  0  0  0  0  0  0
   -8.7004   26.9655   -4.5546 C   0  0  0  0  0  0  0  0  0  0  0  0
   -8.8869   28.2258   -5.3788 C   0  0  0  0  0  0  0  0  0  0  0  0
   -9.2462   29.4305   -4.7375 C   0  0  0  0  0  0  0  0  0  0  0  0
   -9.4395   30.5880   -5.5239 C   0  0  0  0  0  0  0  0  0  0  0  0
   -9.2375   30.5964   -6.9070 C   0  0  0  0  0  0  0  0  0  0  0  0
   -8.8500   29.3980   -7.5293 C   0  0  0  0  0  0  0  0  0  0  0  0
   -8.6613   28.2594   -6.7572 C   0  0  0  0  0  0  0  0  0  0  0  0
   -7.1988   26.7427   -4.4343 C   0  0  0  0  0  0  0  0  0  0  0  0
   -6.7210   25.4471   -4.0991 C   0  0  0  0  0  0  0  0  0  0  0  0
   -5.3365   25.1999   -3.9611 C   0  0  0  0  0  0  0  0  0  0  0  0
   -4.4355   26.2694   -4.1141 C   0  0  0  0  0  0  0  0  0  0  0  0
   -4.8926   27.5690   -4.4270 C   0  0  0  0  0  0  0  0  0  0  0  0
   -6.2755   27.8015   -4.5878 C   0  0  0  0  0  0  0  0  0  0  0  0
   -9.5327   25.7412   -5.0477 C   0  0  0  0  0  0  0  0  0  0  0  0
   -8.9854   24.8179   -5.9724 C   0  0  0  0  0  0  0  0  0  0  0  0
   -9.7535   23.7099   -6.4890 C   0  0  0  0  0  0  0  0  0  0  0  0
  -11.0617   23.5318   -6.0421 C   0  0  0  0  0  0  0  0  0  0  0  0
  -11.6360   24.4476   -5.1206 C   0  0  0  0  0  0  0  0  0  0  0  0
  -10.8759   25.5367   -4.6405 C   0  0  0  0  0  0  0  0  0  0  0  0
 13 14  2  0  0  0
 14 15  1  0  0  0
 14 18  1  0  0  0
 15 16  1  0  0  0
 16 17  2  0  0  0
 16 20  1  0  0  0
 18 19  2  0  0  0
 19 20  1  0  0  0
 20 12  1  0  0  0
 12  3  1  0  0  0
  3  4  1  0  0  0
  3  2  1  0  0  0
  4  5  1  0  0  0
  4  6  2  0  0  0
  5  8  1  0  0  0
  8  9  1  0  0  0
  9 10  1  0  0  0
  2  1  1  0  0  0
  1 22  1  0  0  0
 22 23  1  0  0  0
 23 24  1  0  0  0
 23 30  1  0  0  0
 23 36  1  0  0  0
 24 25  1  0  0  0
 24 29  2  0  0  0
 25 26  2  0  0  0
 26 27  1  0  0  0
 27 28  2  0  0  0
 28 29  1  0  0  0
 30 31  1  0  0  0
 30 35  2  0  0  0
 31 32  2  0  0  0
 32 33  1  0  0  0
 33 34  2  0  0  0
 34 35  1  0  0  0
 36 37  1  0  0  0
 36 41  2  0  0  0
 37 38  2  0  0  0
 38 39  1  0  0  0
 39 40  2  0  0  0
 40 41  1  0  0  0
 15 21  1  0  0  0
  5  7  1  0  0  0
 10 11  1  0  0  0
M  END
> <minimizedAffinity>
-7.29030

$$$$
2Y8C_DUQ_A_400


 41 44  0  0  0  0  0  0  0  0999 V2000
   -8.7548   26.7554   -2.0258 C   0  0  0  0  0  0  0  0  0  0  0  0
   -8.2255   27.9510   -1.2173 C   0  0  0  0  0  0  0  0  0  0  0  0
   -7.9462   27.7168    0.2393 C   0  0  0  0  0  0  0  0  0  0  0  0
   -6.7986   26.7410    0.4582 C   0  0  0  0  0  0  0  0  0  0  0  0
   -5.7421   26.6404   -0.3405 N   0  0  0  0  0  0  0  0  0  0  0  0
   -6.9450   26.0023    1.3812 O   0  0  0  0  0  0  0  0  0  0  0  0
   -5.7014   27.2308   -1.1273 H   0  0  0  0  0  0  0  0  0  0  0  0
   -4.6291   25.7037   -0.1247 C   0  0  0  0  0  0  0  0  0  0  0  0
   -3.3839   26.5857   -0.1346 C   0  0  0  0  0  0  0  0  0  0  0  0
   -3.5196   27.5034    0.9733 O   0  0  0  0  0  0  0  0  0  0  0  0
   -4.3321   28.0222    0.8657 H   0  0  0  0  0  0  0  0  0  0  0  0
   -7.9338   29.0135    1.0749 C   0  0  0  0  0  0  0  0  0  0  0  0
  -10.3947   28.2961    5.9013 O   0  0  0  0  0  0  0  0  0  0  0  0
   -9.8025   28.4384    4.8156 C   0  0  0  0  0  0  0  0  0  0  0  0
   -8.4472   28.5616    4.7334 N   0  0  0  0  0  0  0  0  0  0  0  0
   -7.8579   28.7119    3.5255 C   0  0  0  0  0  0  0  0  0  0  0  0
   -6.6175   28.8052    3.3489 O   0  0  0  0  0  0  0  0  0  0  0  0
  -10.5841   28.4782    3.6914 C   0  0  0  0  0  0  0  0  0  0  0  0
   -9.9714   28.6717    2.4410 C   0  0  0  0  0  0  0  0  0  0  0  0
   -8.6371   28.7594    2.3600 N   0  0  0  0  0  0  0  0  0  0  0  0
   -7.8992   28.5411    5.5510 H   0  0  0  0  0  0  0  0  0  0  0  0
   -9.2123   27.4346   -3.2259 O   0  0  0  0  0  0  0  0  0  0  0  0
   -8.5614   27.1785   -4.4957 C   0  0  0  0  0  0  0  0  0  0  0  0
   -9.3925   26.0481   -5.0739 C   0  0  0  0  0  0  0  0  0  0  0  0
   -8.7572   25.0158   -5.7965 C   0  0  0  0  0  0  0  0  0  0  0  0
   -9.5497   23.9848   -6.3483 C   0  0  0  0  0  0  0  0  0  0  0  0
  -10.9335   23.9218   -6.1610 C   0  0  0  0  0  0  0  0  0  0  0  0
  -11.5500   24.9392   -5.4136 C   0  0  0  0  0  0  0  0  0  0  0  0
  -10.7718   25.9537   -4.8722 C   0  0  0  0  0  0  0  0  0  0  0  0
   -8.8195   28.3989   -5.3693 C   0  0  0  0  0  0  0  0  0  0  0  0
   -9.4069   29.5521   -4.7825 C   0  0  0  0  0  0  0  0  0  0  0  0
   -9.6787   30.7005   -5.5597 C   0  0  0  0  0  0  0  0  0  0  0  0
   -9.4025   30.6702   -6.9388 C   0  0  0  0  0  0  0  0  0  0  0  0
   -8.8377   29.5256   -7.5444 C   0  0  0  0  0  0  0  0  0  0  0  0
   -8.5461   28.3920   -6.7557 C   0  0  0  0  0  0  0  0  0  0  0  0
   -7.0624   26.8202   -4.2527 C   0  0  0  0  0  0  0  0  0  0  0  0
   -6.0545   27.8103   -4.3569 C   0  0  0  0  0  0  0  0  0  0  0  0
   -4.6551   27.4942   -4.1943 C   0  0  0  0  0  0  0  0  0  0  0  0
   -4.2920   26.1810   -3.8999 C   0  0  0  0  0  0  0  0  0  0  0  0
   -5.2828   25.1685   -3.7971 C   0  0  0  0  0  0  0  0  0  0  0  0
   -6.6454   25.4925   -3.9781 C   0  0  0  0  0  0  0  0  0  0  0  0
 13 14  2  0  0  0
 14 15  1  0  0  0
 14 18  1  0  0  0
 15 16  1  0  0  0
 16 17  2  0  0  0
 16 20  1  0  0  0
 18 19  2  0  0  0
 19 20  1  0  0  0
 20 12  1  0  0  0
 12  3  1  0  0  0
  3  4  1  0  0  0
  3  2  1  0  0  0
  4  5  1  0  0  0
  4  6  2  0  0  0
  5  8  1  0  0  0
  8  9  1  0  0  0
  9 10  1  0  0  0
  2  1  1  0  0  0
  1 22  1  0  0  0
 22 23  1  0  0  0
 23 24  1  0  0  0
 23 30  1  0  0  0
 23 36  1  0  0  0
 24 25  1  0  0  0
 24 29  2  0  0  0
 25 26  2  0  0  0
 26 27  1  0  0  0
 27 28  2  0  0  0
 28 29  1  0  0  0
 30 31  1  0  0  0
 30 35  2  0  0  0
 31 32  2  0  0  0
 32 33  1  0  0  0
 33 34  2  0  0  0
 34 35  1  0  0  0
 36 37  1  0  0  0
 36 41  2  0  0  0
 37 38  2  0  0  0
 38 39  1  0  0  0
 39 40  2  0  0  0
 40 41  1  0  0  0
 15 21  1  0  0  0
  5  7  1  0  0  0
 10 11  1  0  0  0
M  END
> <minimizedAffinity>
-7.28555

$$$$
2Y8C_DUQ_A_400


 41 44  0  0  0  0  0  0  0  0999 V2000
   -8.4188   26.8515   -1.8273 C   0  0  0  0  0  0  0  0  0  0  0  0
   -8.1299   27.9583   -0.8004 C   0  0  0  0  0  0  0  0  0  0  0  0
   -8.2579   27.5908    0.6499 C   0  0  0  0  0  0  0  0  0  0  0  0
   -7.0153   26.8895    1.1803 C   0  0  0  0  0  0  0  0  0  0  0  0
   -5.8264   26.9294    0.5892 N   0  0  0  0  0  0  0  0  0  0  0  0
   -7.1975   26.2252    2.1521 O   0  0  0  0  0  0  0  0  0  0  0  0
   -5.7452   27.4405   -0.2483 H   0  0  0  0  0  0  0  0  0  0  0  0
   -4.6237   26.2591    1.1058 C   0  0  0  0  0  0  0  0  0  0  0  0
   -3.5034   26.7237    0.1796 C   0  0  0  0  0  0  0  0  0  0  0  0
   -3.0566   28.0028    0.6821 O   0  0  0  0  0  0  0  0  0  0  0  0
   -3.8010   28.6246    0.6909 H   0  0  0  0  0  0  0  0  0  0  0  0
   -8.8493   28.7216    1.5165 C   0  0  0  0  0  0  0  0  0  0  0  0
   -5.2383   32.7561    2.2568 O   0  0  0  0  0  0  0  0  0  0  0  0
   -6.0652   31.8490    2.0498 C   0  0  0  0  0  0  0  0  0  0  0  0
   -7.1199   32.0020    1.1995 N   0  0  0  0  0  0  0  0  0  0  0  0
   -7.9861   30.9804    1.0120 C   0  0  0  0  0  0  0  0  0  0  0  0
   -8.9685   31.0188    0.2298 O   0  0  0  0  0  0  0  0  0  0  0  0
   -5.8736   30.6770    2.7324 C   0  0  0  0  0  0  0  0  0  0  0  0
   -6.7966   29.6301    2.5634 C   0  0  0  0  0  0  0  0  0  0  0  0
   -7.8132   29.7716    1.7024 N   0  0  0  0  0  0  0  0  0  0  0  0
   -7.2506   32.8537    0.7233 H   0  0  0  0  0  0  0  0  0  0  0  0
   -8.7476   27.6559   -2.9917 O   0  0  0  0  0  0  0  0  0  0  0  0
   -8.1534   27.3460   -4.2772 C   0  0  0  0  0  0  0  0  0  0  0  0
   -9.0695   26.2624   -4.8149 C   0  0  0  0  0  0  0  0  0  0  0  0
  -10.1825   25.8494   -4.0518 C   0  0  0  0  0  0  0  0  0  0  0  0
  -11.0102   24.8223   -4.5572 C   0  0  0  0  0  0  0  0  0  0  0  0
  -10.7974   24.2361   -5.8083 C   0  0  0  0  0  0  0  0  0  0  0  0
   -9.7039   24.6776   -6.5718 C   0  0  0  0  0  0  0  0  0  0  0  0
   -8.8889   25.6862   -6.0748 C   0  0  0  0  0  0  0  0  0  0  0  0
   -8.3635   28.5700   -5.1585 C   0  0  0  0  0  0  0  0  0  0  0  0
   -9.5318   29.3575   -4.9736 C   0  0  0  0  0  0  0  0  0  0  0  0
   -9.7746   30.4920   -5.7803 C   0  0  0  0  0  0  0  0  0  0  0  0
   -8.8637   30.8061   -6.8053 C   0  0  0  0  0  0  0  0  0  0  0  0
   -7.7071   30.0232   -7.0181 C   0  0  0  0  0  0  0  0  0  0  0  0
   -7.4596   28.9063   -6.1914 C   0  0  0  0  0  0  0  0  0  0  0  0
   -6.6722   26.8990   -4.0751 C   0  0  0  0  0  0  0  0  0  0  0  0
   -5.6697   27.8424   -3.7406 C   0  0  0  0  0  0  0  0  0  0  0  0
   -4.2826   27.4656   -3.6049 C   0  0  0  0  0  0  0  0  0  0  0  0
   -3.9280   26.1293   -3.7828 C   0  0  0  0  0  0  0  0  0  0  0  0
   -4.9132   25.1652   -4.1256 C   0  0  0  0  0  0  0  0  0  0  0  0
   -6.2624   25.5555   -4.2729 C   0  0  0  0  0  0  0  0  0  0  0  0
 13 14  2  0  0  0
 14 15  1  0  0  0
 14 18  1  0  0  0
 15 16  1  0  0  0
 16 17  2  0  0  0
 16 20  1  0  0  0
 18 19  2  0  0  0
 19 20  1  0  0  0
 20 12  1  0  0  0
 12  3  1  0  0  0
  3  4  1  0  0  0
  3  2  1  0  0  0
  4  5  1  0  0  0
  4  6  2  0  0  0
  5  8  1  0  0  0
  8  9  1  0  0  0
  9 10  1  0  0  0
  2  1  1  0  0  0
  1 22  1  0  0  0
 22 23  1  0  0  0
 23 24  1  0  0  0
 23 30  1  0  0  0
 23 36  1  0  0  0
 24 25  1  0  0  0
 24 29  2  0  0  0
 25 26  2  0  0  0
 26 27  1  0  0  0
 27 28  2  0  0  0
 28 29  1  0  0  0
 30 31  1  0  0  0
 30 35  2  0  0  0
 31 32  2  0  0  0
 32 33  1  0  0  0
 33 34  2  0  0  0
 34 35  1  0  0  0
 36 37  1  0  0  0
 36 41  2  0  0  0
 37 38  2  0  0  0
 38 39  1  0  0  0
 39 40  2  0  0  0
 40 41  1  0  0  0
 15 21  1  0  0  0
  5  7  1  0  0  0
 10 11  1  0  0  0
M  END
> <minimizedAffinity>
-7.26130

$$$$
2Y8C_DUQ_A_400


 41 44  0  0  0  0  0  0  0  0999 V2000
   -8.7047   28.0027   -2.3706 C   0  0  0  0  0  0  0  0  0  0  0  0
   -8.8684   26.8774   -1.3362 C   0  0  0  0  0  0  0  0  0  0  0  0
   -7.8577   26.8208   -0.2271 C   0  0  0  0  0  0  0  0  0  0  0  0
   -6.7065   25.8758   -0.5418 C   0  0  0  0  0  0  0  0  0  0  0  0
   -5.4245   26.1791   -0.3718 N   0  0  0  0  0  0  0  0  0  0  0  0
   -7.0345   24.8400   -1.0301 O   0  0  0  0  0  0  0  0  0  0  0  0
   -5.2048   27.0741   -0.0256 H   0  0  0  0  0  0  0  0  0  0  0  0
   -4.3124   25.2634   -0.6676 C   0  0  0  0  0  0  0  0  0  0  0  0
   -4.2859   24.3035    0.5183 C   0  0  0  0  0  0  0  0  0  0  0  0
   -4.6498   23.0028    0.0043 O   0  0  0  0  0  0  0  0  0  0  0  0
   -5.5286   23.0507   -0.4037 H   0  0  0  0  0  0  0  0  0  0  0  0
   -7.4918   28.2091    0.3370 C   0  0  0  0  0  0  0  0  0  0  0  0
   -9.4561   28.4014    5.4330 O   0  0  0  0  0  0  0  0  0  0  0  0
   -9.0260   28.3934    4.2649 C   0  0  0  0  0  0  0  0  0  0  0  0
   -9.7224   28.9366    3.2263 N   0  0  0  0  0  0  0  0  0  0  0  0
   -9.2043   28.9006    1.9776 C   0  0  0  0  0  0  0  0  0  0  0  0
   -9.7585   29.3981    0.9658 O   0  0  0  0  0  0  0  0  0  0  0  0
   -7.8100   27.7958    4.0632 C   0  0  0  0  0  0  0  0  0  0  0  0
   -7.2915   27.7273    2.7583 C   0  0  0  0  0  0  0  0  0  0  0  0
   -7.9625   28.2909    1.7450 N   0  0  0  0  0  0  0  0  0  0  0  0
  -10.5998   29.3540    3.3849 H   0  0  0  0  0  0  0  0  0  0  0  0
   -9.3631   27.4004   -3.5171 O   0  0  0  0  0  0  0  0  0  0  0  0
   -8.6590   27.2866   -4.7793 C   0  0  0  0  0  0  0  0  0  0  0  0
   -9.4451   26.2092   -5.5031 C   0  0  0  0  0  0  0  0  0  0  0  0
  -10.3214   25.3776   -4.7737 C   0  0  0  0  0  0  0  0  0  0  0  0
  -11.0263   24.3641   -5.4603 C   0  0  0  0  0  0  0  0  0  0  0  0
  -10.9273   24.1881   -6.8435 C   0  0  0  0  0  0  0  0  0  0  0  0
  -10.0750   25.0424   -7.5628 C   0  0  0  0  0  0  0  0  0  0  0  0
   -9.3805   26.0379   -6.8883 C   0  0  0  0  0  0  0  0  0  0  0  0
   -8.9070   28.5864   -5.5330 C   0  0  0  0  0  0  0  0  0  0  0  0
   -7.9116   29.0619   -6.4287 C   0  0  0  0  0  0  0  0  0  0  0  0
   -8.0933   30.2717   -7.1361 C   0  0  0  0  0  0  0  0  0  0  0  0
   -9.2574   31.0270   -6.9051 C   0  0  0  0  0  0  0  0  0  0  0  0
  -10.2489   30.5812   -6.0029 C   0  0  0  0  0  0  0  0  0  0  0  0
  -10.0707   29.3592   -5.3195 C   0  0  0  0  0  0  0  0  0  0  0  0
   -7.1637   26.9283   -4.5141 C   0  0  0  0  0  0  0  0  0  0  0  0
   -6.7520   25.5780   -4.3954 C   0  0  0  0  0  0  0  0  0  0  0  0
   -5.3862   25.2209   -4.0927 C   0  0  0  0  0  0  0  0  0  0  0  0
   -4.4435   26.2362   -3.9401 C   0  0  0  0  0  0  0  0  0  0  0  0
   -4.8322   27.5982   -4.0473 C   0  0  0  0  0  0  0  0  0  0  0  0
   -6.1767   27.9293   -4.3250 C   0  0  0  0  0  0  0  0  0  0  0  0
 13 14  2  0  0  0
 14 15  1  0  0  0
 14 18  1  0  0  0
 15 16  1  0  0  0
 16 17  2  0  0  0
 16 20  1  0  0  0
 18 19  2  0  0  0
 19 20  1  0  0  0
 20 12  1  0  0  0
 12  3  1  0  0  0
  3  4  1  0  0  0
  3  2  1  0  0  0
  4  5  1  0  0  0
  4  6  2  0  0  0
  5  8  1  0  0  0
  8  9  1  0  0  0
  9 10  1  0  0  0
  2  1  1  0  0  0
  1 22  1  0  0  0
 22 23  1  0  0  0
 23 24  1  0  0  0
 23 30  1  0  0  0
 23 36  1  0  0  0
 24 25  1  0  0  0
 24 29  2  0  0  0
 25 26  2  0  0  0
 26 27  1  0  0  0
 27 28  2  0  0  0
 28 29  1  0  0  0
 30 31  1  0  0  0
 30 35  2  0  0  0
 31 32  2  0  0  0
 32 33  1  0  0  0
 33 34  2  0  0  0
 34 35  1  0  0  0
 36 37  1  0  0  0
 36 41  2  0  0  0
 37 38  2  0  0  0
 38 39  1  0  0  0
 39 40  2  0  0  0
 40 41  1  0  0  0
 15 21  1  0  0  0
  5  7  1  0  0  0
 10 11  1  0  0  0
M  END
> <minimizedAffinity>
-7.14685

$$$$
