5EFA_MGT_A_501
  RCSB PDB12061717273D
Coordinates from PDB:5EFA:A:501 Model:1 without hydrogens
 33 35  0  0  0  0            999 V2000
   32.7850   28.3110   22.1440   P 0  0  0  0  0  0  0  0  0  0  0  0
   32.3460   29.3030   21.0910   O 0  0  0  0  0  0  0  0  0  0  0  0
   33.6760   28.9150   23.2030   O 0  0  0  0  0  0  0  0  0  0  0  0
   33.2670   26.9860   21.5990   O 0  0  0  0  0  0  0  0  0  0  0  0
   31.4010   27.9200   22.8800   O 0  0  0  0  0  0  0  0  0  0  0  0
   31.2070   27.9630   24.4780   P 0  0  0  0  0  0  0  0  0  0  0  0
   32.5000   27.6570   25.2120   O 0  0  0  0  0  0  0  0  0  0  0  0
   29.9360   27.2160   24.7930   O 0  0  0  0  0  0  0  0  0  0  0  0
   30.9410   29.5330   24.6380   O 0  0  0  0  0  0  0  0  0  0  0  0
   30.2100   30.1820   25.9060   P 0  0  0  0  0  0  0  0  0  0  0  0
   30.8300   29.6660   27.1830   O 0  0  0  0  0  0  0  0  0  0  0  0
   28.7230   30.0940   25.6360   O 0  0  0  0  0  0  0  0  0  0  0  0
   30.6700   31.7080   25.7170   O 0  0  0  0  0  0  0  0  0  0  0  0
   29.7870   32.6270   25.0800   C 0  0  0  0  0  0  0  0  0  0  0  0
   30.4590   33.2500   23.8570   C 0  0  0  0  0  0  0  0  0  0  0  0
   31.5640   34.0700   24.2490   O 0  0  0  0  0  0  0  0  0  0  0  0
   31.0560   32.1970   22.9440   C 0  0  0  0  0  0  0  0  0  0  0  0
   31.0120   32.7920   21.6460   O 0  0  0  0  0  0  0  0  0  0  0  0
   32.5050   32.0640   23.3690   C 0  0  0  0  0  0  0  0  0  0  0  0
   33.3300   31.7450   22.2500   O 0  0  0  0  0  0  0  0  0  0  0  0
   32.7870   33.4930   23.7770   C 0  0  0  0  0  0  0  0  0  0  0  0
   33.7970   33.7880   24.8140   N 0  0  0  0  0  0  0  0  0  0  0  0
   33.5090   33.3330   26.1880   C 0  0  0  0  0  0  0  0  0  0  0  0
   34.7150   33.9250   26.7720   N 0  0  0  0  0  0  0  0  0  0  0  0
   34.8640   33.7130   28.2480   C 0  0  0  0  0  0  0  0  0  0  0  0
   35.5060   34.5860   25.9180   C 0  0  0  0  0  0  0  0  0  0  0  0
   36.7730   35.3120   26.0540   C 0  0  0  0  0  0  0  0  0  0  0  0
   37.3670   35.4370   27.1400   O 0  0  0  0  0  0  0  0  0  0  0  0
   37.2550   35.8510   24.9290   N 0  0  0  0  0  0  0  0  0  0  0  0
   36.6500   35.7530   23.7280   C 0  0  0  0  0  0  0  0  0  0  0  0
   37.2440   36.3370   22.6550   N 0  0  0  0  0  0  0  0  0  0  0  0
   35.4850   35.0920   23.5420   N 0  0  0  0  0  0  0  0  0  0  0  0
   34.8860   34.5070   24.5940   C 0  0  0  0  0  0  0  0  0  0  0  0
  1  2  2  0  0  0  0
  1  3  1  0  0  0  0
  1  4  1  0  0  0  0
  1  5  1  0  0  0  0
  5  6  1  0  0  0  0
  6  7  2  0  0  0  0
  6  8  1  0  0  0  0
  6  9  1  0  0  0  0
  9 10  1  0  0  0  0
 10 11  2  0  0  0  0
 10 12  1  0  0  0  0
 10 13  1  0  0  0  0
 13 14  1  0  0  0  0
 14 15  1  0  0  0  0
 15 16  1  0  0  0  0
 15 17  1  0  0  0  0
 16 21  1  0  0  0  0
 17 18  1  0  0  0  0
 17 19  1  0  0  0  0
 19 20  1  0  0  0  0
 19 21  1  0  0  0  0
 21 22  1  0  0  0  0
 22 23  1  0  0  0  0
 22 33  1  0  0  0  0
 23 24  1  0  0  0  0
 24 25  1  0  0  0  0
 24 26  1  0  0  0  0
 26 27  1  0  0  0  0
 26 33  2  0  0  0  0
 27 28  2  0  0  0  0
 27 29  1  0  0  0  0
 29 30  1  0  0  0  0
 30 31  1  0  0  0  0
 30 32  2  0  0  0  0
 32 33  1  0  0  0  0
A    1
PG
A    2
O1G
A    3
O2G
A    4
O3G
A    5
O3B
A    6
PB
A    7
O1B
A    8
O2B
A    9
O3A
A   10
PA
A   11
O1A
A   12
O2A
A   13
O5'
A   14
C5'
A   15
C4'
A   16
O4'
A   17
C3'
A   18
O3'
A   19
C2'
A   20
O2'
A   21
C1'
A   22
N9
A   23
C8
A   24
N7
A   25
CM7
A   26
C5
A   27
C6
A   28
O6
A   29
N1
A   30
C2
A   31
N2
A   32
N3
A   33
C4
M  END
>  <InstanceId>
5EFA_MGT_A_501

>  <ChemCompId>
MGT

>  <PdbId>
5EFA

>  <ChainId>
A

>  <ResidueNumber>
501

>  <InsertionCode>


>  <Model>
1

>  <AltIds>


>  <MissingHeavyAtoms>
0

>  <ObservedFormula>
C11 N5 O14 P3

>  <Name>
7N-METHYL-8-HYDROGUANOSINE-5'-TRIPHOSPHATE

>  <SystematicName>
[[(2R,3S,4R,5R)-5-(2-amino-7-methyl-6-oxo-1,8-dihydropurin-9-yl)-3,4-dihydroxy-oxolan-2-yl]methoxy-hydroxy-phosphoryl] phosphono hydrogen phosphate

>  <Synonyms>


>  <Type>
NON-POLYMER

>  <Formula>
C11 H20 N5 O14 P3

>  <MolecularWeight>
539.223

>  <ModifiedDate>
2011-06-04

>  <Parent>
G

>  <OneLetterCode>


>  <SubcomponentList>


>  <AmbiguousFlag>
N

>  <InChI>
InChI=1S/C11H20N5O14P3/c1-15-3-16(8-5(15)9(19)14-11(12)13-8)10-7(18)6(17)4(28-10)2-27-32(23,24)30-33(25,26)29-31(20,21)22/h4,6-7,10,17-18H,2-3H2,1H3,(H,23,24)(H,25,26)(H2,20,21,22)(H3,12,13,14,19)/t4-,6-,7-,10-/m1/s1

>  <InChIKey>
BUJQMJUTTBGELS-KQYNXXCUSA-N

>  <SMILES>
CN1CN(C2=C1C(=O)NC(=N2)N)[C@H]3[C@@H]([C@@H]([C@H](O3)CO[P@](=O)(O)O[P@](=O)(O)OP(=O)(O)O)O)O

$$$$
