5EFA_MGT_A_501


 42 44  0  0  0  0  0  0  0  0999 V2000
   30.8364   32.5191   24.5478 C   0  0  0  0  0  0  0  0  0  0  0  0
   31.7239   33.5849   24.1963 O   0  0  0  0  0  0  0  0  0  0  0  0
   31.4522   31.2770   23.9340 C   0  0  0  0  0  0  0  0  0  0  0  0
   30.9072   31.2304   22.6143 O   0  0  0  0  0  0  0  0  0  0  0  0
   32.9374   31.5645   23.8368 C   0  0  0  0  0  0  0  0  0  0  0  0
   33.5013   30.9176   22.6975 O   0  0  0  0  0  0  0  0  0  0  0  0
   32.8957   33.0525   23.5679 C   0  0  0  0  0  0  0  0  0  0  0  0
   31.0898   32.0674   22.1593 H   0  0  0  0  0  0  0  0  0  0  0  0
   33.0117   31.1790   21.9019 H   0  0  0  0  0  0  0  0  0  0  0  0
   34.0115   33.9204   23.9971 N   0  0  0  0  0  0  0  0  0  0  0  0
   34.7538   34.6390   22.9434 C   0  0  0  0  0  0  0  0  0  0  0  0
   35.7292   35.2341   23.8602 N   0  0  0  0  0  0  0  0  0  0  0  0
   36.7579   36.1022   23.2015 C   0  0  0  0  0  0  0  0  0  0  0  0
   35.5820   34.9100   25.1506 C   0  0  0  0  0  0  0  0  0  0  0  0
   36.3022   35.2602   26.3792 C   0  0  0  0  0  0  0  0  0  0  0  0
   37.2963   36.0081   26.3899 O   0  0  0  0  0  0  0  0  0  0  0  0
   35.8296   34.7116   27.5036 N   0  0  0  0  0  0  0  0  0  0  0  0
   34.7619   33.8895   27.5491 C   0  0  0  0  0  0  0  0  0  0  0  0
   34.3720   33.4018   28.7555 N   0  0  0  0  0  0  0  0  0  0  0  0
   34.0566   33.5368   26.4504 N   0  0  0  0  0  0  0  0  0  0  0  0
   34.4290   34.0131   25.2495 C   0  0  0  0  0  0  0  0  0  0  0  0
   36.2890   34.9206   28.3489 H   0  0  0  0  0  0  0  0  0  0  0  0
   34.8703   33.6449   29.5690 H   0  0  0  0  0  0  0  0  0  0  0  0
   33.5912   32.8053   28.8162 H   0  0  0  0  0  0  0  0  0  0  0  0
   30.7091   32.3996   26.0660 C   0  0  0  0  0  0  0  0  0  0  0  0
   30.4929   31.0419   26.4403 O   0  0  0  0  0  0  0  0  0  0  0  0
   31.3464   30.4163   27.6470 P   0  0  0  0  0  0  0  0  0  0  0  0
   31.8314   31.5563   28.5112 O   0  0  0  0  0  0  0  0  0  0  0  0
   30.5806   29.2403   28.2148 O   0  0  0  0  0  0  0  0  0  0  0  0
   31.0836   28.8499   28.9466 H   0  0  0  0  0  0  0  0  0  0  0  0
   32.5657   29.8029   26.8101 O   0  0  0  0  0  0  0  0  0  0  0  0
   33.9286   29.2936   27.4767 P   0  0  0  0  0  0  0  0  0  0  0  0
   34.7465   28.6488   26.3724 O   0  0  0  0  0  0  0  0  0  0  0  0
   34.5011   30.3989   28.3272 O   0  0  0  0  0  0  0  0  0  0  0  0
   35.3281   30.0977   28.7350 H   0  0  0  0  0  0  0  0  0  0  0  0
   33.3044   28.1974   28.4776 O   0  0  0  0  0  0  0  0  0  0  0  0
   32.8924   26.7058   28.0135 P   0  0  0  0  0  0  0  0  0  0  0  0
   34.0964   25.8793   28.4047 O   0  0  0  0  0  0  0  0  0  0  0  0
   31.6436   26.3486   28.7837 O   0  0  0  0  0  0  0  0  0  0  0  0
   32.6893   26.8567   26.5233 O   0  0  0  0  0  0  0  0  0  0  0  0
   31.3561   25.4556   28.5372 H   0  0  0  0  0  0  0  0  0  0  0  0
   32.4349   26.0012   26.1433 H   0  0  0  0  0  0  0  0  0  0  0  0
 37 38  2  0  0  0
 37 39  1  0  0  0
 37 40  1  0  0  0
 37 36  1  0  0  0
 36 32  1  0  0  0
 32 33  2  0  0  0
 32 34  1  0  0  0
 32 31  1  0  0  0
 31 27  1  0  0  0
 27 28  2  0  0  0
 27 29  1  0  0  0
 27 26  1  0  0  0
 26 25  1  0  0  0
 25  1  1  0  0  0
  1  2  1  0  0  0
  1  3  1  0  0  0
  2  7  1  0  0  0
  3  4  1  0  0  0
  3  5  1  0  0  0
  5  6  1  0  0  0
  5  7  1  0  0  0
  7 10  1  0  0  0
 10 11  1  0  0  0
 10 21  1  0  0  0
 11 12  1  0  0  0
 12 13  1  0  0  0
 12 14  1  0  0  0
 14 15  1  0  0  0
 14 21  2  0  0  0
 15 16  2  0  0  0
 15 17  1  0  0  0
 17 18  1  0  0  0
 18 19  1  0  0  0
 18 20  2  0  0  0
 20 21  1  0  0  0
 39 41  1  0  0  0
 40 42  1  0  0  0
 34 35  1  0  0  0
 29 30  1  0  0  0
  4  8  1  0  0  0
  6  9  1  0  0  0
 17 22  1  0  0  0
 19 23  1  0  0  0
 19 24  1  0  0  0
M  END
> <minimizedAffinity>
-8.01789

$$$$
5EFA_MGT_A_501


 42 44  0  0  0  0  0  0  0  0999 V2000
   31.3266   31.3087   23.9458 C   0  0  0  0  0  0  0  0  0  0  0  0
   31.8472   32.4809   24.5798 O   0  0  0  0  0  0  0  0  0  0  0  0
   31.9450   31.3037   22.5615 C   0  0  0  0  0  0  0  0  0  0  0  0
   31.0397   32.0747   21.7698 O   0  0  0  0  0  0  0  0  0  0  0  0
   33.2471   32.0684   22.6946 C   0  0  0  0  0  0  0  0  0  0  0  0
   33.5442   32.7693   21.4883 O   0  0  0  0  0  0  0  0  0  0  0  0
   32.8470   33.0789   23.7467 C   0  0  0  0  0  0  0  0  0  0  0  0
   30.9136   32.9453   22.1784 H   0  0  0  0  0  0  0  0  0  0  0  0
   32.7940   33.3364   21.2507 H   0  0  0  0  0  0  0  0  0  0  0  0
   33.8576   33.6366   24.6688 N   0  0  0  0  0  0  0  0  0  0  0  0
   33.6972   33.3431   26.1062 C   0  0  0  0  0  0  0  0  0  0  0  0
   34.8414   34.1545   26.5287 N   0  0  0  0  0  0  0  0  0  0  0  0
   35.0866   34.1679   28.0070 C   0  0  0  0  0  0  0  0  0  0  0  0
   35.4974   34.7842   25.5464 C   0  0  0  0  0  0  0  0  0  0  0  0
   36.6632   35.6731   25.5043 C   0  0  0  0  0  0  0  0  0  0  0  0
   37.2864   36.0190   26.5240 O   0  0  0  0  0  0  0  0  0  0  0  0
   37.0164   36.1074   24.2897 N   0  0  0  0  0  0  0  0  0  0  0  0
   36.3733   35.7708   23.1534 C   0  0  0  0  0  0  0  0  0  0  0  0
   36.8340   36.2703   21.9773 N   0  0  0  0  0  0  0  0  0  0  0  0
   35.2977   34.9515   23.1310 N   0  0  0  0  0  0  0  0  0  0  0  0
   34.8311   34.4475   24.2869 C   0  0  0  0  0  0  0  0  0  0  0  0
   37.7927   36.7090   24.2212 H   0  0  0  0  0  0  0  0  0  0  0  0
   37.6157   36.8688   21.9691 H   0  0  0  0  0  0  0  0  0  0  0  0
   36.3862   36.0339   21.1330 H   0  0  0  0  0  0  0  0  0  0  0  0
   31.6967   30.0555   24.7382 C   0  0  0  0  0  0  0  0  0  0  0  0
   31.9121   30.3805   26.1086 O   0  0  0  0  0  0  0  0  0  0  0  0
   33.2099   29.8036   26.8562 P   0  0  0  0  0  0  0  0  0  0  0  0
   34.3519   29.8024   25.8675 O   0  0  0  0  0  0  0  0  0  0  0  0
   33.3152   30.4680   28.2124 O   0  0  0  0  0  0  0  0  0  0  0  0
   34.0959   30.1299   28.6783 H   0  0  0  0  0  0  0  0  0  0  0  0
   32.7105   28.3058   27.1218 O   0  0  0  0  0  0  0  0  0  0  0  0
   33.6148   27.1815   27.8142 P   0  0  0  0  0  0  0  0  0  0  0  0
   34.2694   26.3907   26.6960 O   0  0  0  0  0  0  0  0  0  0  0  0
   34.4383   27.8179   28.9048 O   0  0  0  0  0  0  0  0  0  0  0  0
   34.9896   27.1423   29.3297 H   0  0  0  0  0  0  0  0  0  0  0  0
   32.4403   26.3450   28.5310 O   0  0  0  0  0  0  0  0  0  0  0  0
   32.7155   25.1950   29.6318 P   0  0  0  0  0  0  0  0  0  0  0  0
   31.6052   24.2014   29.3760 O   0  0  0  0  0  0  0  0  0  0  0  0
   34.0915   24.6454   29.3403 O   0  0  0  0  0  0  0  0  0  0  0  0
   32.6025   25.9425   30.9408 O   0  0  0  0  0  0  0  0  0  0  0  0
   34.3028   23.9471   29.9796 H   0  0  0  0  0  0  0  0  0  0  0  0
   32.7541   25.3297   31.6773 H   0  0  0  0  0  0  0  0  0  0  0  0
 37 38  2  0  0  0
 37 39  1  0  0  0
 37 40  1  0  0  0
 37 36  1  0  0  0
 36 32  1  0  0  0
 32 33  2  0  0  0
 32 34  1  0  0  0
 32 31  1  0  0  0
 31 27  1  0  0  0
 27 28  2  0  0  0
 27 29  1  0  0  0
 27 26  1  0  0  0
 26 25  1  0  0  0
 25  1  1  0  0  0
  1  2  1  0  0  0
  1  3  1  0  0  0
  2  7  1  0  0  0
  3  4  1  0  0  0
  3  5  1  0  0  0
  5  6  1  0  0  0
  5  7  1  0  0  0
  7 10  1  0  0  0
 10 11  1  0  0  0
 10 21  1  0  0  0
 11 12  1  0  0  0
 12 13  1  0  0  0
 12 14  1  0  0  0
 14 15  1  0  0  0
 14 21  2  0  0  0
 15 16  2  0  0  0
 15 17  1  0  0  0
 17 18  1  0  0  0
 18 19  1  0  0  0
 18 20  2  0  0  0
 20 21  1  0  0  0
 39 41  1  0  0  0
 40 42  1  0  0  0
 34 35  1  0  0  0
 29 30  1  0  0  0
  4  8  1  0  0  0
  6  9  1  0  0  0
 17 22  1  0  0  0
 19 23  1  0  0  0
 19 24  1  0  0  0
M  END
> <minimizedAffinity>
-7.92857

$$$$
5EFA_MGT_A_501


 42 44  0  0  0  0  0  0  0  0999 V2000
   31.0193   31.7608   23.4880 C   0  0  0  0  0  0  0  0  0  0  0  0
   31.6537   32.8888   24.0980 O   0  0  0  0  0  0  0  0  0  0  0  0
   31.7764   31.5371   22.1935 C   0  0  0  0  0  0  0  0  0  0  0  0
   31.1033   32.3668   21.2453 O   0  0  0  0  0  0  0  0  0  0  0  0
   33.1644   32.0981   22.4317 C   0  0  0  0  0  0  0  0  0  0  0  0
   33.7037   32.6347   21.2251 O   0  0  0  0  0  0  0  0  0  0  0  0
   32.8238   33.2476   23.3541 C   0  0  0  0  0  0  0  0  0  0  0  0
   31.0787   33.2791   21.5739 H   0  0  0  0  0  0  0  0  0  0  0  0
   33.0881   33.2887   20.8586 H   0  0  0  0  0  0  0  0  0  0  0  0
   33.8053   33.7201   24.3520 N   0  0  0  0  0  0  0  0  0  0  0  0
   33.5821   33.3304   25.7578 C   0  0  0  0  0  0  0  0  0  0  0  0
   34.7215   34.0882   26.2809 N   0  0  0  0  0  0  0  0  0  0  0  0
   34.9070   33.9939   27.7649 C   0  0  0  0  0  0  0  0  0  0  0  0
   35.4270   34.7720   25.3718 C   0  0  0  0  0  0  0  0  0  0  0  0
   36.6080   35.6390   25.4380 C   0  0  0  0  0  0  0  0  0  0  0  0
   37.1951   35.9010   26.5032 O   0  0  0  0  0  0  0  0  0  0  0  0
   37.0172   36.1500   24.2718 N   0  0  0  0  0  0  0  0  0  0  0  0
   36.4151   35.9058   23.0903 C   0  0  0  0  0  0  0  0  0  0  0  0
   36.9312   36.4771   21.9712 N   0  0  0  0  0  0  0  0  0  0  0  0
   35.3279   35.1110   22.9682 N   0  0  0  0  0  0  0  0  0  0  0  0
   34.8068   34.5368   24.0666 C   0  0  0  0  0  0  0  0  0  0  0  0
   37.8054   36.7398   24.2763 H   0  0  0  0  0  0  0  0  0  0  0  0
   37.7224   37.0594   22.0358 H   0  0  0  0  0  0  0  0  0  0  0  0
   36.5141   36.3087   21.0954 H   0  0  0  0  0  0  0  0  0  0  0  0
   31.0880   30.5401   24.4049 C   0  0  0  0  0  0  0  0  0  0  0  0
   30.4622   30.8217   25.6535 O   0  0  0  0  0  0  0  0  0  0  0  0
   31.1856   30.3681   27.0126 P   0  0  0  0  0  0  0  0  0  0  0  0
   31.2576   31.5712   27.9229 O   0  0  0  0  0  0  0  0  0  0  0  0
   30.5844   29.0520   27.4579 O   0  0  0  0  0  0  0  0  0  0  0  0
   31.0113   28.7632   28.2796 H   0  0  0  0  0  0  0  0  0  0  0  0
   32.6386   30.0300   26.4313 O   0  0  0  0  0  0  0  0  0  0  0  0
   33.8707   29.5693   27.3429 P   0  0  0  0  0  0  0  0  0  0  0  0
   35.0572   29.3747   26.4162 O   0  0  0  0  0  0  0  0  0  0  0  0
   33.9593   30.4777   28.5427 O   0  0  0  0  0  0  0  0  0  0  0  0
   34.7044   30.2047   29.1006 H   0  0  0  0  0  0  0  0  0  0  0  0
   33.2723   28.1640   27.8527 O   0  0  0  0  0  0  0  0  0  0  0  0
   33.2673   26.8232   26.9515 P   0  0  0  0  0  0  0  0  0  0  0  0
   31.8519   26.3135   27.1015 O   0  0  0  0  0  0  0  0  0  0  0  0
   33.6041   27.2535   25.5438 O   0  0  0  0  0  0  0  0  0  0  0  0
   34.3197   25.9637   27.6140 O   0  0  0  0  0  0  0  0  0  0  0  0
   33.6131   26.4775   24.9619 H   0  0  0  0  0  0  0  0  0  0  0  0
   34.3947   25.1211   27.1394 H   0  0  0  0  0  0  0  0  0  0  0  0
 37 38  2  0  0  0
 37 39  1  0  0  0
 37 40  1  0  0  0
 37 36  1  0  0  0
 36 32  1  0  0  0
 32 33  2  0  0  0
 32 34  1  0  0  0
 32 31  1  0  0  0
 31 27  1  0  0  0
 27 28  2  0  0  0
 27 29  1  0  0  0
 27 26  1  0  0  0
 26 25  1  0  0  0
 25  1  1  0  0  0
  1  2  1  0  0  0
  1  3  1  0  0  0
  2  7  1  0  0  0
  3  4  1  0  0  0
  3  5  1  0  0  0
  5  6  1  0  0  0
  5  7  1  0  0  0
  7 10  1  0  0  0
 10 11  1  0  0  0
 10 21  1  0  0  0
 11 12  1  0  0  0
 12 13  1  0  0  0
 12 14  1  0  0  0
 14 15  1  0  0  0
 14 21  2  0  0  0
 15 16  2  0  0  0
 15 17  1  0  0  0
 17 18  1  0  0  0
 18 19  1  0  0  0
 18 20  2  0  0  0
 20 21  1  0  0  0
 39 41  1  0  0  0
 40 42  1  0  0  0
 34 35  1  0  0  0
 29 30  1  0  0  0
  4  8  1  0  0  0
  6  9  1  0  0  0
 17 22  1  0  0  0
 19 23  1  0  0  0
 19 24  1  0  0  0
M  END
> <minimizedAffinity>
-7.91882

$$$$
5EFA_MGT_A_501


 42 44  0  0  0  0  0  0  0  0999 V2000
   31.2675   30.5857   24.8346 C   0  0  0  0  0  0  0  0  0  0  0  0
   31.7833   31.7928   25.4039 O   0  0  0  0  0  0  0  0  0  0  0  0
   31.3029   30.8121   23.3358 C   0  0  0  0  0  0  0  0  0  0  0  0
   30.0476   31.4286   23.0442 O   0  0  0  0  0  0  0  0  0  0  0  0
   32.4072   31.8242   23.1031 C   0  0  0  0  0  0  0  0  0  0  0  0
   32.0987   32.6574   21.9872 O   0  0  0  0  0  0  0  0  0  0  0  0
   32.2731   32.6480   24.3646 C   0  0  0  0  0  0  0  0  0  0  0  0
   29.9409   32.2208   23.5937 H   0  0  0  0  0  0  0  0  0  0  0  0
   31.2301   33.0681   22.1208 H   0  0  0  0  0  0  0  0  0  0  0  0
   33.4482   33.3393   24.9334 N   0  0  0  0  0  0  0  0  0  0  0  0
   33.6695   33.2131   26.3870 C   0  0  0  0  0  0  0  0  0  0  0  0
   34.8343   34.1011   26.4145 N   0  0  0  0  0  0  0  0  0  0  0  0
   35.4403   34.2960   27.7712 C   0  0  0  0  0  0  0  0  0  0  0  0
   35.1865   34.6289   25.2358 C   0  0  0  0  0  0  0  0  0  0  0  0
   36.2516   35.5395   24.8030 C   0  0  0  0  0  0  0  0  0  0  0  0
   37.0890   36.0211   25.5870 O   0  0  0  0  0  0  0  0  0  0  0  0
   36.2643   35.8373   23.4993 N   0  0  0  0  0  0  0  0  0  0  0  0
   35.3780   35.3507   22.6073 C   0  0  0  0  0  0  0  0  0  0  0  0
   35.5004   35.7208   21.3060 N   0  0  0  0  0  0  0  0  0  0  0  0
   34.3799   34.5041   22.9477 N   0  0  0  0  0  0  0  0  0  0  0  0
   34.2470   34.1269   24.2314 C   0  0  0  0  0  0  0  0  0  0  0  0
   36.9628   36.4486   23.1711 H   0  0  0  0  0  0  0  0  0  0  0  0
   36.2194   36.3362   21.0349 H   0  0  0  0  0  0  0  0  0  0  0  0
   34.8701   35.3736   20.6341 H   0  0  0  0  0  0  0  0  0  0  0  0
   32.1184   29.3857   25.2484 C   0  0  0  0  0  0  0  0  0  0  0  0
   32.5651   29.5343   26.5932 O   0  0  0  0  0  0  0  0  0  0  0  0
   33.9449   28.8477   27.0410 P   0  0  0  0  0  0  0  0  0  0  0  0
   34.4004   27.9471   25.9172 O   0  0  0  0  0  0  0  0  0  0  0  0
   34.8393   29.9150   27.6350 O   0  0  0  0  0  0  0  0  0  0  0  0
   35.6791   29.5160   27.9114 H   0  0  0  0  0  0  0  0  0  0  0  0
   33.4099   27.9691   28.2679 O   0  0  0  0  0  0  0  0  0  0  0  0
   32.7711   26.5114   28.0998 P   0  0  0  0  0  0  0  0  0  0  0  0
   31.8689   26.2835   29.2991 O   0  0  0  0  0  0  0  0  0  0  0  0
   32.2500   26.3640   26.6928 O   0  0  0  0  0  0  0  0  0  0  0  0
   31.8609   25.4822   26.5829 H   0  0  0  0  0  0  0  0  0  0  0  0
   34.1272   25.6486   28.1981 O   0  0  0  0  0  0  0  0  0  0  0  0
   34.4613   24.4072   27.2196 P   0  0  0  0  0  0  0  0  0  0  0  0
   35.5783   23.6901   27.9433 O   0  0  0  0  0  0  0  0  0  0  0  0
   33.1940   23.5928   27.1152 O   0  0  0  0  0  0  0  0  0  0  0  0
   34.8776   25.0880   25.9358 O   0  0  0  0  0  0  0  0  0  0  0  0
   33.3461   22.8312   26.5341 H   0  0  0  0  0  0  0  0  0  0  0  0
   35.1025   24.4171   25.2723 H   0  0  0  0  0  0  0  0  0  0  0  0
 37 38  2  0  0  0
 37 39  1  0  0  0
 37 40  1  0  0  0
 37 36  1  0  0  0
 36 32  1  0  0  0
 32 33  2  0  0  0
 32 34  1  0  0  0
 32 31  1  0  0  0
 31 27  1  0  0  0
 27 28  2  0  0  0
 27 29  1  0  0  0
 27 26  1  0  0  0
 26 25  1  0  0  0
 25  1  1  0  0  0
  1  2  1  0  0  0
  1  3  1  0  0  0
  2  7  1  0  0  0
  3  4  1  0  0  0
  3  5  1  0  0  0
  5  6  1  0  0  0
  5  7  1  0  0  0
  7 10  1  0  0  0
 10 11  1  0  0  0
 10 21  1  0  0  0
 11 12  1  0  0  0
 12 13  1  0  0  0
 12 14  1  0  0  0
 14 15  1  0  0  0
 14 21  2  0  0  0
 15 16  2  0  0  0
 15 17  1  0  0  0
 17 18  1  0  0  0
 18 19  1  0  0  0
 18 20  2  0  0  0
 20 21  1  0  0  0
 39 41  1  0  0  0
 40 42  1  0  0  0
 34 35  1  0  0  0
 29 30  1  0  0  0
  4  8  1  0  0  0
  6  9  1  0  0  0
 17 22  1  0  0  0
 19 23  1  0  0  0
 19 24  1  0  0  0
M  END
> <minimizedAffinity>
-7.61220

$$$$
5EFA_MGT_A_501


 42 44  0  0  0  0  0  0  0  0999 V2000
   32.7236   31.6819   26.9655 C   0  0  0  0  0  0  0  0  0  0  0  0
   31.7349   30.7021   27.2964 O   0  0  0  0  0  0  0  0  0  0  0  0
   34.0110   31.1617   27.5742 C   0  0  0  0  0  0  0  0  0  0  0  0
   34.0074   31.6852   28.9034 O   0  0  0  0  0  0  0  0  0  0  0  0
   33.8489   29.6562   27.6442 C   0  0  0  0  0  0  0  0  0  0  0  0
   34.5372   29.1284   28.7765 O   0  0  0  0  0  0  0  0  0  0  0  0
   32.3618   29.5682   27.9068 C   0  0  0  0  0  0  0  0  0  0  0  0
   33.1872   31.4250   29.3512 H   0  0  0  0  0  0  0  0  0  0  0  0
   34.2331   29.5801   29.5793 H   0  0  0  0  0  0  0  0  0  0  0  0
   31.5920   28.3913   27.4541 N   0  0  0  0  0  0  0  0  0  0  0  0
   30.5294   28.6208   26.4561 C   0  0  0  0  0  0  0  0  0  0  0  0
   30.0715   27.2294   26.4376 N   0  0  0  0  0  0  0  0  0  0  0  0
   28.9254   26.9604   25.5104 C   0  0  0  0  0  0  0  0  0  0  0  0
   30.7220   26.3960   27.2588 C   0  0  0  0  0  0  0  0  0  0  0  0
   30.6085   24.9652   27.5600 C   0  0  0  0  0  0  0  0  0  0  0  0
   29.7653   24.2260   27.0211 O   0  0  0  0  0  0  0  0  0  0  0  0
   31.4683   24.4952   28.4701 N   0  0  0  0  0  0  0  0  0  0  0  0
   32.3965   25.2517   29.0900 C   0  0  0  0  0  0  0  0  0  0  0  0
   33.2200   24.6558   29.9910 N   0  0  0  0  0  0  0  0  0  0  0  0
   32.5507   26.5733   28.8483 N   0  0  0  0  0  0  0  0  0  0  0  0
   31.7444   27.1770   27.9576 C   0  0  0  0  0  0  0  0  0  0  0  0
   31.4208   23.5395   28.7014 H   0  0  0  0  0  0  0  0  0  0  0  0
   33.1263   23.6948   30.1832 H   0  0  0  0  0  0  0  0  0  0  0  0
   33.9106   25.1849   30.4519 H   0  0  0  0  0  0  0  0  0  0  0  0
   32.8369   31.8458   25.4503 C   0  0  0  0  0  0  0  0  0  0  0  0
   32.6902   33.2157   25.0871 O   0  0  0  0  0  0  0  0  0  0  0  0
   31.9995   33.5855   23.6863 P   0  0  0  0  0  0  0  0  0  0  0  0
   31.3390   32.3368   23.1515 O   0  0  0  0  0  0  0  0  0  0  0  0
   31.2487   34.8894   23.8530 O   0  0  0  0  0  0  0  0  0  0  0  0
   30.8245   35.1278   23.0138 H   0  0  0  0  0  0  0  0  0  0  0  0
   33.3114   33.9227   22.8326 O   0  0  0  0  0  0  0  0  0  0  0  0
   34.4210   34.9788   23.2960 P   0  0  0  0  0  0  0  0  0  0  0  0
   33.7151   36.3104   23.4772 O   0  0  0  0  0  0  0  0  0  0  0  0
   35.2403   34.3731   24.4070 O   0  0  0  0  0  0  0  0  0  0  0  0
   35.9157   35.0076   24.6936 H   0  0  0  0  0  0  0  0  0  0  0  0
   35.3316   34.9596   21.9680 O   0  0  0  0  0  0  0  0  0  0  0  0
   36.3992   36.1175   21.6082 P   0  0  0  0  0  0  0  0  0  0  0  0
   37.1730   35.5245   20.4527 O   0  0  0  0  0  0  0  0  0  0  0  0
   35.5944   37.3374   21.2282 O   0  0  0  0  0  0  0  0  0  0  0  0
   37.1902   36.2611   22.8882 O   0  0  0  0  0  0  0  0  0  0  0  0
   36.1958   38.0641   21.0023 H   0  0  0  0  0  0  0  0  0  0  0  0
   37.8691   36.9444   22.7739 H   0  0  0  0  0  0  0  0  0  0  0  0
 37 38  2  0  0  0
 37 39  1  0  0  0
 37 40  1  0  0  0
 37 36  1  0  0  0
 36 32  1  0  0  0
 32 33  2  0  0  0
 32 34  1  0  0  0
 32 31  1  0  0  0
 31 27  1  0  0  0
 27 28  2  0  0  0
 27 29  1  0  0  0
 27 26  1  0  0  0
 26 25  1  0  0  0
 25  1  1  0  0  0
  1  2  1  0  0  0
  1  3  1  0  0  0
  2  7  1  0  0  0
  3  4  1  0  0  0
  3  5  1  0  0  0
  5  6  1  0  0  0
  5  7  1  0  0  0
  7 10  1  0  0  0
 10 11  1  0  0  0
 10 21  1  0  0  0
 11 12  1  0  0  0
 12 13  1  0  0  0
 12 14  1  0  0  0
 14 15  1  0  0  0
 14 21  2  0  0  0
 15 16  2  0  0  0
 15 17  1  0  0  0
 17 18  1  0  0  0
 18 19  1  0  0  0
 18 20  2  0  0  0
 20 21  1  0  0  0
 39 41  1  0  0  0
 40 42  1  0  0  0
 34 35  1  0  0  0
 29 30  1  0  0  0
  4  8  1  0  0  0
  6  9  1  0  0  0
 17 22  1  0  0  0
 19 23  1  0  0  0
 19 24  1  0  0  0
M  END
> <minimizedAffinity>
-7.53519

$$$$
5EFA_MGT_A_501


 42 44  0  0  0  0  0  0  0  0999 V2000
   32.0838   31.6473   27.9262 C   0  0  0  0  0  0  0  0  0  0  0  0
   31.6663   30.3016   28.1747 O   0  0  0  0  0  0  0  0  0  0  0  0
   33.5167   31.5311   27.4445 C   0  0  0  0  0  0  0  0  0  0  0  0
   34.2937   31.5631   28.6428 O   0  0  0  0  0  0  0  0  0  0  0  0
   33.6286   30.1503   26.8292 C   0  0  0  0  0  0  0  0  0  0  0  0
   34.9398   29.6210   27.0165 O   0  0  0  0  0  0  0  0  0  0  0  0
   32.6754   29.3902   27.7246 C   0  0  0  0  0  0  0  0  0  0  0  0
   33.9876   30.8672   29.2453 H   0  0  0  0  0  0  0  0  0  0  0  0
   35.1621   29.6345   27.9606 H   0  0  0  0  0  0  0  0  0  0  0  0
   31.9506   28.2093   27.2121 N   0  0  0  0  0  0  0  0  0  0  0  0
   30.4789   28.2948   27.1458 C   0  0  0  0  0  0  0  0  0  0  0  0
   30.2936   26.9178   26.6814 N   0  0  0  0  0  0  0  0  0  0  0  0
   28.8659   26.5180   26.4636 C   0  0  0  0  0  0  0  0  0  0  0  0
   31.4152   26.2023   26.5329 C   0  0  0  0  0  0  0  0  0  0  0  0
   31.7001   24.8289   26.1045 C   0  0  0  0  0  0  0  0  0  0  0  0
   30.8089   24.0231   25.7815 O   0  0  0  0  0  0  0  0  0  0  0  0
   32.9917   24.4825   26.0922 N   0  0  0  0  0  0  0  0  0  0  0  0
   33.9968   25.3118   26.4389 C   0  0  0  0  0  0  0  0  0  0  0  0
   35.2710   24.8451   26.3766 N   0  0  0  0  0  0  0  0  0  0  0  0
   33.7944   26.5886   26.8358 N   0  0  0  0  0  0  0  0  0  0  0  0
   32.5390   27.0656   26.9005 C   0  0  0  0  0  0  0  0  0  0  0  0
   33.2226   23.5670   25.8133 H   0  0  0  0  0  0  0  0  0  0  0  0
   35.4426   23.9189   26.0904 H   0  0  0  0  0  0  0  0  0  0  0  0
   36.0229   25.4331   26.6177 H   0  0  0  0  0  0  0  0  0  0  0  0
   31.1850   32.3085   26.8820 C   0  0  0  0  0  0  0  0  0  0  0  0
   30.4627   31.3208   26.1522 O   0  0  0  0  0  0  0  0  0  0  0  0
   30.4587   31.3784   24.5482 P   0  0  0  0  0  0  0  0  0  0  0  0
   31.1627   30.1431   24.0385 O   0  0  0  0  0  0  0  0  0  0  0  0
   29.0698   31.7657   24.0872 O   0  0  0  0  0  0  0  0  0  0  0  0
   29.0500   31.8052   23.1182 H   0  0  0  0  0  0  0  0  0  0  0  0
   31.3843   32.6671   24.3338 O   0  0  0  0  0  0  0  0  0  0  0  0
   30.9457   33.9362   23.4629 P   0  0  0  0  0  0  0  0  0  0  0  0
   30.6312   33.4271   22.0678 O   0  0  0  0  0  0  0  0  0  0  0  0
   29.9395   34.7425   24.2439 O   0  0  0  0  0  0  0  0  0  0  0  0
   29.6685   35.5141   23.7223 H   0  0  0  0  0  0  0  0  0  0  0  0
   32.3389   34.7426   23.5061 O   0  0  0  0  0  0  0  0  0  0  0  0
   33.7820   34.0264   23.3859 P   0  0  0  0  0  0  0  0  0  0  0  0
   34.6900   35.1540   22.9501 O   0  0  0  0  0  0  0  0  0  0  0  0
   34.1083   33.4899   24.7591 O   0  0  0  0  0  0  0  0  0  0  0  0
   33.5487   32.9643   22.3360 O   0  0  0  0  0  0  0  0  0  0  0  0
   34.9716   33.0482   24.7370 H   0  0  0  0  0  0  0  0  0  0  0  0
   34.3699   32.4696   22.1884 H   0  0  0  0  0  0  0  0  0  0  0  0
 37 38  2  0  0  0
 37 39  1  0  0  0
 37 40  1  0  0  0
 37 36  1  0  0  0
 36 32  1  0  0  0
 32 33  2  0  0  0
 32 34  1  0  0  0
 32 31  1  0  0  0
 31 27  1  0  0  0
 27 28  2  0  0  0
 27 29  1  0  0  0
 27 26  1  0  0  0
 26 25  1  0  0  0
 25  1  1  0  0  0
  1  2  1  0  0  0
  1  3  1  0  0  0
  2  7  1  0  0  0
  3  4  1  0  0  0
  3  5  1  0  0  0
  5  6  1  0  0  0
  5  7  1  0  0  0
  7 10  1  0  0  0
 10 11  1  0  0  0
 10 21  1  0  0  0
 11 12  1  0  0  0
 12 13  1  0  0  0
 12 14  1  0  0  0
 14 15  1  0  0  0
 14 21  2  0  0  0
 15 16  2  0  0  0
 15 17  1  0  0  0
 17 18  1  0  0  0
 18 19  1  0  0  0
 18 20  2  0  0  0
 20 21  1  0  0  0
 39 41  1  0  0  0
 40 42  1  0  0  0
 34 35  1  0  0  0
 29 30  1  0  0  0
  4  8  1  0  0  0
  6  9  1  0  0  0
 17 22  1  0  0  0
 19 23  1  0  0  0
 19 24  1  0  0  0
M  END
> <minimizedAffinity>
-7.25500

$$$$
5EFA_MGT_A_501


 42 44  0  0  0  0  0  0  0  0999 V2000
   32.6475   32.5107   27.0566 C   0  0  0  0  0  0  0  0  0  0  0  0
   31.6621   31.5164   27.3523 O   0  0  0  0  0  0  0  0  0  0  0  0
   33.9508   31.9396   27.5803 C   0  0  0  0  0  0  0  0  0  0  0  0
   33.9990   32.3670   28.9425 O   0  0  0  0  0  0  0  0  0  0  0  0
   33.7772   30.4340   27.5489 C   0  0  0  0  0  0  0  0  0  0  0  0
   34.5001   29.8222   28.6154 O   0  0  0  0  0  0  0  0  0  0  0  0
   32.2996   30.3376   27.8577 C   0  0  0  0  0  0  0  0  0  0  0  0
   33.1927   32.0811   29.3998 H   0  0  0  0  0  0  0  0  0  0  0  0
   34.2287   30.2176   29.4586 H   0  0  0  0  0  0  0  0  0  0  0  0
   31.5033   29.2013   27.3505 N   0  0  0  0  0  0  0  0  0  0  0  0
   30.3853   29.5119   26.4387 C   0  0  0  0  0  0  0  0  0  0  0  0
   29.9251   28.1257   26.3269 N   0  0  0  0  0  0  0  0  0  0  0  0
   28.7271   27.9333   25.4475 C   0  0  0  0  0  0  0  0  0  0  0  0
   30.6207   27.2271   27.0346 C   0  0  0  0  0  0  0  0  0  0  0  0
   30.5228   25.7753   27.2176 C   0  0  0  0  0  0  0  0  0  0  0  0
   29.6488   25.0821   26.6665 O   0  0  0  0  0  0  0  0  0  0  0  0
   31.4329   25.2319   28.0330 N   0  0  0  0  0  0  0  0  0  0  0  0
   32.3963   25.9356   28.6612 C   0  0  0  0  0  0  0  0  0  0  0  0
   33.2695   25.2674   29.4588 N   0  0  0  0  0  0  0  0  0  0  0  0
   32.5381   27.2736   28.5256 N   0  0  0  0  0  0  0  0  0  0  0  0
   31.6828   27.9488   27.7380 C   0  0  0  0  0  0  0  0  0  0  0  0
   31.3974   24.2596   28.1835 H   0  0  0  0  0  0  0  0  0  0  0  0
   33.1857   24.2931   29.5726 H   0  0  0  0  0  0  0  0  0  0  0  0
   33.9863   25.7573   29.9230 H   0  0  0  0  0  0  0  0  0  0  0  0
   32.7088   32.7814   25.5538 C   0  0  0  0  0  0  0  0  0  0  0  0
   31.4090   33.0745   25.0490 O   0  0  0  0  0  0  0  0  0  0  0  0
   31.2668   33.9496   23.7112 P   0  0  0  0  0  0  0  0  0  0  0  0
   30.0305   34.8066   23.8474 O   0  0  0  0  0  0  0  0  0  0  0  0
   32.6225   34.5337   23.3756 O   0  0  0  0  0  0  0  0  0  0  0  0
   32.5541   35.0666   22.5679 H   0  0  0  0  0  0  0  0  0  0  0  0
   31.0065   32.7717   22.6585 O   0  0  0  0  0  0  0  0  0  0  0  0
   30.1161   31.4808   22.9778 P   0  0  0  0  0  0  0  0  0  0  0  0
   31.0769   30.3333   23.2317 O   0  0  0  0  0  0  0  0  0  0  0  0
   29.0600   31.8514   23.9876 O   0  0  0  0  0  0  0  0  0  0  0  0
   28.5157   31.0736   24.1866 H   0  0  0  0  0  0  0  0  0  0  0  0
   29.3829   31.3432   21.5507 O   0  0  0  0  0  0  0  0  0  0  0  0
   28.7431   32.5971   20.7580 P   0  0  0  0  0  0  0  0  0  0  0  0
   27.7007   31.9498   19.8749 O   0  0  0  0  0  0  0  0  0  0  0  0
   28.1567   33.5113   21.8072 O   0  0  0  0  0  0  0  0  0  0  0  0
   29.9282   33.1717   20.0162 O   0  0  0  0  0  0  0  0  0  0  0  0
   27.7582   34.2838   21.3767 H   0  0  0  0  0  0  0  0  0  0  0  0
   29.6442   33.9427   19.5008 H   0  0  0  0  0  0  0  0  0  0  0  0
 37 38  2  0  0  0
 37 39  1  0  0  0
 37 40  1  0  0  0
 37 36  1  0  0  0
 36 32  1  0  0  0
 32 33  2  0  0  0
 32 34  1  0  0  0
 32 31  1  0  0  0
 31 27  1  0  0  0
 27 28  2  0  0  0
 27 29  1  0  0  0
 27 26  1  0  0  0
 26 25  1  0  0  0
 25  1  1  0  0  0
  1  2  1  0  0  0
  1  3  1  0  0  0
  2  7  1  0  0  0
  3  4  1  0  0  0
  3  5  1  0  0  0
  5  6  1  0  0  0
  5  7  1  0  0  0
  7 10  1  0  0  0
 10 11  1  0  0  0
 10 21  1  0  0  0
 11 12  1  0  0  0
 12 13  1  0  0  0
 12 14  1  0  0  0
 14 15  1  0  0  0
 14 21  2  0  0  0
 15 16  2  0  0  0
 15 17  1  0  0  0
 17 18  1  0  0  0
 18 19  1  0  0  0
 18 20  2  0  0  0
 20 21  1  0  0  0
 39 41  1  0  0  0
 40 42  1  0  0  0
 34 35  1  0  0  0
 29 30  1  0  0  0
  4  8  1  0  0  0
  6  9  1  0  0  0
 17 22  1  0  0  0
 19 23  1  0  0  0
 19 24  1  0  0  0
M  END
> <minimizedAffinity>
-7.02470

$$$$
5EFA_MGT_A_501


 42 44  0  0  0  0  0  0  0  0999 V2000
   34.3105   29.4933   27.4162 C   0  0  0  0  0  0  0  0  0  0  0  0
   34.2117   30.0718   26.1113 O   0  0  0  0  0  0  0  0  0  0  0  0
   33.3264   30.2725   28.2666 C   0  0  0  0  0  0  0  0  0  0  0  0
   34.0843   31.3810   28.7539 O   0  0  0  0  0  0  0  0  0  0  0  0
   32.2753   30.7880   27.3036 C   0  0  0  0  0  0  0  0  0  0  0  0
   31.7696   32.0487   27.7388 O   0  0  0  0  0  0  0  0  0  0  0  0
   33.1351   31.0160   26.0802 C   0  0  0  0  0  0  0  0  0  0  0  0
   34.4751   31.8593   28.0060 H   0  0  0  0  0  0  0  0  0  0  0  0
   32.5064   32.6674   27.8625 H   0  0  0  0  0  0  0  0  0  0  0  0
   32.5506   30.9145   24.7272 N   0  0  0  0  0  0  0  0  0  0  0  0
   32.9172   29.7358   23.9184 C   0  0  0  0  0  0  0  0  0  0  0  0
   32.1770   30.1642   22.7290 N   0  0  0  0  0  0  0  0  0  0  0  0
   32.2639   29.2234   21.5658 C   0  0  0  0  0  0  0  0  0  0  0  0
   31.5427   31.3383   22.8349 C   0  0  0  0  0  0  0  0  0  0  0  0
   30.7072   32.1321   21.9279 C   0  0  0  0  0  0  0  0  0  0  0  0
   30.4424   31.7744   20.7661 O   0  0  0  0  0  0  0  0  0  0  0  0
   30.2491   33.2864   22.4241 N   0  0  0  0  0  0  0  0  0  0  0  0
   30.5106   33.7260   23.6717 C   0  0  0  0  0  0  0  0  0  0  0  0
   29.9794   34.9132   24.0637 N   0  0  0  0  0  0  0  0  0  0  0  0
   31.2689   33.0345   24.5523 N   0  0  0  0  0  0  0  0  0  0  0  0
   31.7999   31.8568   24.1797 C   0  0  0  0  0  0  0  0  0  0  0  0
   29.6871   33.8489   21.8437 H   0  0  0  0  0  0  0  0  0  0  0  0
   29.4241   35.4341   23.4396 H   0  0  0  0  0  0  0  0  0  0  0  0
   30.1498   35.2527   24.9720 H   0  0  0  0  0  0  0  0  0  0  0  0
   33.9710   28.0039   27.3747 C   0  0  0  0  0  0  0  0  0  0  0  0
   33.8159   27.4934   28.6959 O   0  0  0  0  0  0  0  0  0  0  0  0
   33.1842   26.0325   28.9024 P   0  0  0  0  0  0  0  0  0  0  0  0
   32.9743   25.8237   30.3835 O   0  0  0  0  0  0  0  0  0  0  0  0
   32.0708   25.8461   27.8937 O   0  0  0  0  0  0  0  0  0  0  0  0
   31.6774   24.9665   28.0051 H   0  0  0  0  0  0  0  0  0  0  0  0
   34.4141   25.1445   28.3904 O   0  0  0  0  0  0  0  0  0  0  0  0
   34.3949   23.5447   28.3525 P   0  0  0  0  0  0  0  0  0  0  0  0
   35.8398   23.0839   28.4161 O   0  0  0  0  0  0  0  0  0  0  0  0
   33.3724   23.0434   29.3403 O   0  0  0  0  0  0  0  0  0  0  0  0
   33.3547   22.0737   29.3233 H   0  0  0  0  0  0  0  0  0  0  0  0
   33.7694   23.3528   26.8811 O   0  0  0  0  0  0  0  0  0  0  0  0
   34.3991   24.0275   25.5550 P   0  0  0  0  0  0  0  0  0  0  0  0
   33.3635   25.0592   25.1694 O   0  0  0  0  0  0  0  0  0  0  0  0
   35.7207   24.6294   25.9686 O   0  0  0  0  0  0  0  0  0  0  0  0
   34.5119   22.8610   24.6002 O   0  0  0  0  0  0  0  0  0  0  0  0
   36.1393   25.0490   25.2008 H   0  0  0  0  0  0  0  0  0  0  0  0
   34.8861   23.1667   23.7591 H   0  0  0  0  0  0  0  0  0  0  0  0
 37 38  2  0  0  0
 37 39  1  0  0  0
 37 40  1  0  0  0
 37 36  1  0  0  0
 36 32  1  0  0  0
 32 33  2  0  0  0
 32 34  1  0  0  0
 32 31  1  0  0  0
 31 27  1  0  0  0
 27 28  2  0  0  0
 27 29  1  0  0  0
 27 26  1  0  0  0
 26 25  1  0  0  0
 25  1  1  0  0  0
  1  2  1  0  0  0
  1  3  1  0  0  0
  2  7  1  0  0  0
  3  4  1  0  0  0
  3  5  1  0  0  0
  5  6  1  0  0  0
  5  7  1  0  0  0
  7 10  1  0  0  0
 10 11  1  0  0  0
 10 21  1  0  0  0
 11 12  1  0  0  0
 12 13  1  0  0  0
 12 14  1  0  0  0
 14 15  1  0  0  0
 14 21  2  0  0  0
 15 16  2  0  0  0
 15 17  1  0  0  0
 17 18  1  0  0  0
 18 19  1  0  0  0
 18 20  2  0  0  0
 20 21  1  0  0  0
 39 41  1  0  0  0
 40 42  1  0  0  0
 34 35  1  0  0  0
 29 30  1  0  0  0
  4  8  1  0  0  0
  6  9  1  0  0  0
 17 22  1  0  0  0
 19 23  1  0  0  0
 19 24  1  0  0  0
M  END
> <minimizedAffinity>
-6.93438

$$$$
5EFA_MGT_A_501


 42 44  0  0  0  0  0  0  0  0999 V2000
   32.8321   32.4940   23.5044 C   0  0  0  0  0  0  0  0  0  0  0  0
   31.7248   32.1003   22.6884 O   0  0  0  0  0  0  0  0  0  0  0  0
   32.3366   33.6954   24.2854 C   0  0  0  0  0  0  0  0  0  0  0  0
   32.6275   34.8087   23.4389 O   0  0  0  0  0  0  0  0  0  0  0  0
   30.8322   33.5314   24.3734 C   0  0  0  0  0  0  0  0  0  0  0  0
   30.1870   34.8035   24.3761 O   0  0  0  0  0  0  0  0  0  0  0  0
   30.5664   32.8651   23.0417 C   0  0  0  0  0  0  0  0  0  0  0  0
   32.2224   34.6679   22.5689 H   0  0  0  0  0  0  0  0  0  0  0  0
   30.4683   35.3104   23.5984 H   0  0  0  0  0  0  0  0  0  0  0  0
   29.4169   31.9513   22.8801 N   0  0  0  0  0  0  0  0  0  0  0  0
   28.4365   32.2769   21.8263 C   0  0  0  0  0  0  0  0  0  0  0  0
   27.5335   31.1692   22.1479 N   0  0  0  0  0  0  0  0  0  0  0  0
   26.3098   31.0895   21.2865 C   0  0  0  0  0  0  0  0  0  0  0  0
   27.9114   30.3943   23.1720 C   0  0  0  0  0  0  0  0  0  0  0  0
   27.3378   29.2117   23.8227 C   0  0  0  0  0  0  0  0  0  0  0  0
   26.2626   28.6982   23.4647 O   0  0  0  0  0  0  0  0  0  0  0  0
   28.0409   28.7162   24.8466 N   0  0  0  0  0  0  0  0  0  0  0  0
   29.2066   29.2363   25.2810 C   0  0  0  0  0  0  0  0  0  0  0  0
   29.8324   28.6367   26.3271 N   0  0  0  0  0  0  0  0  0  0  0  0
   29.7849   30.3206   24.7167 N   0  0  0  0  0  0  0  0  0  0  0  0
   29.1787   30.9237   23.6792 C   0  0  0  0  0  0  0  0  0  0  0  0
   27.6860   27.9240   25.3112 H   0  0  0  0  0  0  0  0  0  0  0  0
   29.4300   27.8460   26.7538 H   0  0  0  0  0  0  0  0  0  0  0  0
   30.6882   28.9930   26.6585 H   0  0  0  0  0  0  0  0  0  0  0  0
   33.2571   31.3522   24.4270 C   0  0  0  0  0  0  0  0  0  0  0  0
   33.4626   31.8350   25.7517 O   0  0  0  0  0  0  0  0  0  0  0  0
   33.2137   30.8482   26.9928 P   0  0  0  0  0  0  0  0  0  0  0  0
   34.1787   31.2311   28.0898 O   0  0  0  0  0  0  0  0  0  0  0  0
   31.7219   30.7432   27.2284 O   0  0  0  0  0  0  0  0  0  0  0  0
   31.5538   30.1493   27.9767 H   0  0  0  0  0  0  0  0  0  0  0  0
   33.6655   29.4676   26.3196 O   0  0  0  0  0  0  0  0  0  0  0  0
   33.8722   28.1093   27.1403 P   0  0  0  0  0  0  0  0  0  0  0  0
   34.2814   27.0454   26.1378 O   0  0  0  0  0  0  0  0  0  0  0  0
   34.7117   28.3962   28.3592 O   0  0  0  0  0  0  0  0  0  0  0  0
   34.8417   27.5771   28.8624 H   0  0  0  0  0  0  0  0  0  0  0  0
   32.3560   27.9065   27.6434 O   0  0  0  0  0  0  0  0  0  0  0  0
   31.8304   26.5531   28.3518 P   0  0  0  0  0  0  0  0  0  0  0  0
   32.8494   26.3185   29.4437 O   0  0  0  0  0  0  0  0  0  0  0  0
   30.4472   26.8553   28.8768 O   0  0  0  0  0  0  0  0  0  0  0  0
   31.8684   25.5434   27.2275 O   0  0  0  0  0  0  0  0  0  0  0  0
   30.0878   26.0673   29.3135 H   0  0  0  0  0  0  0  0  0  0  0  0
   31.5659   24.6823   27.5559 H   0  0  0  0  0  0  0  0  0  0  0  0
 37 38  2  0  0  0
 37 39  1  0  0  0
 37 40  1  0  0  0
 37 36  1  0  0  0
 36 32  1  0  0  0
 32 33  2  0  0  0
 32 34  1  0  0  0
 32 31  1  0  0  0
 31 27  1  0  0  0
 27 28  2  0  0  0
 27 29  1  0  0  0
 27 26  1  0  0  0
 26 25  1  0  0  0
 25  1  1  0  0  0
  1  2  1  0  0  0
  1  3  1  0  0  0
  2  7  1  0  0  0
  3  4  1  0  0  0
  3  5  1  0  0  0
  5  6  1  0  0  0
  5  7  1  0  0  0
  7 10  1  0  0  0
 10 11  1  0  0  0
 10 21  1  0  0  0
 11 12  1  0  0  0
 12 13  1  0  0  0
 12 14  1  0  0  0
 14 15  1  0  0  0
 14 21  2  0  0  0
 15 16  2  0  0  0
 15 17  1  0  0  0
 17 18  1  0  0  0
 18 19  1  0  0  0
 18 20  2  0  0  0
 20 21  1  0  0  0
 39 41  1  0  0  0
 40 42  1  0  0  0
 34 35  1  0  0  0
 29 30  1  0  0  0
  4  8  1  0  0  0
  6  9  1  0  0  0
 17 22  1  0  0  0
 19 23  1  0  0  0
 19 24  1  0  0  0
M  END
> <minimizedAffinity>
-6.85996

$$$$
5EFA_MGT_A_501


 42 44  0  0  0  0  0  0  0  0999 V2000
   32.1953   32.6038   25.5975 C   0  0  0  0  0  0  0  0  0  0  0  0
   31.9494   31.5732   24.6361 O   0  0  0  0  0  0  0  0  0  0  0  0
   30.8264   32.9764   26.1324 C   0  0  0  0  0  0  0  0  0  0  0  0
   30.3635   33.9891   25.2374 O   0  0  0  0  0  0  0  0  0  0  0  0
   29.9687   31.7396   25.9524 C   0  0  0  0  0  0  0  0  0  0  0  0
   28.6136   32.1009   25.6918 O   0  0  0  0  0  0  0  0  0  0  0  0
   30.5695   31.1915   24.6771 C   0  0  0  0  0  0  0  0  0  0  0  0
   30.3901   33.6535   24.3277 H   0  0  0  0  0  0  0  0  0  0  0  0
   28.5796   32.6999   24.9296 H   0  0  0  0  0  0  0  0  0  0  0  0
   30.5459   29.7398   24.4041 N   0  0  0  0  0  0  0  0  0  0  0  0
   31.8072   29.1135   23.9630 C   0  0  0  0  0  0  0  0  0  0  0  0
   31.2259   27.7829   23.7689 N   0  0  0  0  0  0  0  0  0  0  0  0
   32.1916   26.7426   23.2884 C   0  0  0  0  0  0  0  0  0  0  0  0
   29.9165   27.6811   24.0277 C   0  0  0  0  0  0  0  0  0  0  0  0
   28.9483   26.5808   23.9737 C   0  0  0  0  0  0  0  0  0  0  0  0
   29.2548   25.4275   23.6218 O   0  0  0  0  0  0  0  0  0  0  0  0
   27.6948   26.8953   24.3178 N   0  0  0  0  0  0  0  0  0  0  0  0
   27.3059   28.1287   24.6994 C   0  0  0  0  0  0  0  0  0  0  0  0
   26.0036   28.3215   25.0341 N   0  0  0  0  0  0  0  0  0  0  0  0
   28.1549   29.1786   24.7733 N   0  0  0  0  0  0  0  0  0  0  0  0
   29.4474   29.0030   24.4472 C   0  0  0  0  0  0  0  0  0  0  0  0
   27.0152   26.1835   24.2908 H   0  0  0  0  0  0  0  0  0  0  0  0
   25.3673   27.5717   24.9880 H   0  0  0  0  0  0  0  0  0  0  0  0
   25.6961   29.2111   25.3229 H   0  0  0  0  0  0  0  0  0  0  0  0
   33.1207   32.1011   26.7049 C   0  0  0  0  0  0  0  0  0  0  0  0
   33.5806   30.7856   26.4081 O   0  0  0  0  0  0  0  0  0  0  0  0
   33.3535   29.6150   27.4823 P   0  0  0  0  0  0  0  0  0  0  0  0
   34.2892   29.8624   28.6419 O   0  0  0  0  0  0  0  0  0  0  0  0
   31.8639   29.4226   27.6721 O   0  0  0  0  0  0  0  0  0  0  0  0
   31.7089   28.7172   28.3196 H   0  0  0  0  0  0  0  0  0  0  0  0
   33.8659   28.3684   26.6181 O   0  0  0  0  0  0  0  0  0  0  0  0
   33.7966   26.8521   27.1253 P   0  0  0  0  0  0  0  0  0  0  0  0
   34.6839   26.0366   26.2023 O   0  0  0  0  0  0  0  0  0  0  0  0
   33.9931   26.8258   28.6198 O   0  0  0  0  0  0  0  0  0  0  0  0
   33.9524   25.9094   28.9351 H   0  0  0  0  0  0  0  0  0  0  0  0
   32.2338   26.5828   26.8457 O   0  0  0  0  0  0  0  0  0  0  0  0
   31.2717   25.7943   27.8765 P   0  0  0  0  0  0  0  0  0  0  0  0
   32.1341   24.6418   28.3386 O   0  0  0  0  0  0  0  0  0  0  0  0
   30.9345   26.7707   28.9780 O   0  0  0  0  0  0  0  0  0  0  0  0
   30.0988   25.3955   27.0104 O   0  0  0  0  0  0  0  0  0  0  0  0
   30.3547   26.3401   29.6255 H   0  0  0  0  0  0  0  0  0  0  0  0
   29.4529   24.9078   27.5452 H   0  0  0  0  0  0  0  0  0  0  0  0
 37 38  2  0  0  0
 37 39  1  0  0  0
 37 40  1  0  0  0
 37 36  1  0  0  0
 36 32  1  0  0  0
 32 33  2  0  0  0
 32 34  1  0  0  0
 32 31  1  0  0  0
 31 27  1  0  0  0
 27 28  2  0  0  0
 27 29  1  0  0  0
 27 26  1  0  0  0
 26 25  1  0  0  0
 25  1  1  0  0  0
  1  2  1  0  0  0
  1  3  1  0  0  0
  2  7  1  0  0  0
  3  4  1  0  0  0
  3  5  1  0  0  0
  5  6  1  0  0  0
  5  7  1  0  0  0
  7 10  1  0  0  0
 10 11  1  0  0  0
 10 21  1  0  0  0
 11 12  1  0  0  0
 12 13  1  0  0  0
 12 14  1  0  0  0
 14 15  1  0  0  0
 14 21  2  0  0  0
 15 16  2  0  0  0
 15 17  1  0  0  0
 17 18  1  0  0  0
 18 19  1  0  0  0
 18 20  2  0  0  0
 20 21  1  0  0  0
 39 41  1  0  0  0
 40 42  1  0  0  0
 34 35  1  0  0  0
 29 30  1  0  0  0
  4  8  1  0  0  0
  6  9  1  0  0  0
 17 22  1  0  0  0
 19 23  1  0  0  0
 19 24  1  0  0  0
M  END
> <minimizedAffinity>
-6.77531

$$$$
