1JCX_PAI_A_1300
  RCSB PDB12061702563D
Coordinates from PDB:1JCX:A:1300 Model:1 without hydrogens
 25 24  0  0  0  0            999 V2000
   39.5660   55.8050   15.4410   P 0  0  0  0  0  0  0  0  0  0  0  0
   39.6840   57.2810   15.3430   O 0  0  0  0  0  0  0  0  0  0  0  0
   40.7160   55.1510   16.1060   O 0  0  0  0  0  0  0  0  0  0  0  0
   38.3500   55.6480   16.4610   O 0  0  0  0  0  0  0  0  0  0  0  0
   39.2660   55.1660   14.1350   O 0  0  0  0  0  0  0  0  0  0  0  0
   37.1970   54.8200   16.3180   C 0  0  0  0  0  0  0  0  0  0  0  0
   37.1550   53.5930   17.2280   C 0  0  0  0  0  0  0  0  0  0  0  0
   38.3220   53.4570   18.0460   O 0  0  0  0  0  0  0  0  0  0  0  0
   35.8850   53.7040   18.0840   C 0  0  0  0  0  0  0  0  0  0  0  0
   34.6770   54.0020   17.3690   O 0  0  0  0  0  0  0  0  0  0  0  0
   35.7660   52.4250   18.9310   C 0  0  0  0  0  0  0  0  0  0  0  0
   35.5920   51.2360   18.1490   O 0  0  0  0  0  0  0  0  0  0  0  0
   34.6120   52.6640   19.9040   C 0  0  0  0  0  0  0  0  0  0  0  0
   34.7960   53.7340   20.8260   O 0  0  0  0  0  0  0  0  0  0  0  0
   34.3920   51.4260   20.7650   C 0  0  0  0  0  0  0  0  0  0  0  0
   33.0570   51.3440   21.0400   N 0  0  0  0  0  0  0  0  0  0  0  0
   32.7280   51.5570   22.3570   C 0  0  0  0  0  0  0  0  0  0  0  0
   31.4380   52.1820   22.8710   C 0  0  0  0  0  0  0  0  0  0  0  0
   30.4040   51.4870   22.6190   O 0  0  0  0  0  0  0  0  0  0  0  0
   31.4790   53.2550   23.3760   O 0  0  0  0  0  0  0  0  0  0  0  0
   32.4540   50.2480   20.4700   C 0  0  0  0  0  0  0  0  0  0  0  0
   32.3140   49.4290   19.1640   P 0  0  0  0  0  0  0  0  0  0  0  0
   32.9370   48.2010   19.6490   O 0  0  0  0  0  0  0  0  0  0  0  0
   33.0370   50.0450   18.0160   O 0  0  0  0  0  0  0  0  0  0  0  0
   30.7870   49.4420   18.8480   O 0  0  0  0  0  0  0  0  0  0  0  0
  1  2  2  0  0  0  0
  1  3  1  0  0  0  0
  1  4  1  0  0  0  0
  1  5  1  0  0  0  0
  4  6  1  0  0  0  0
  6  7  1  0  0  0  0
  7  8  1  0  0  0  0
  7  9  1  0  0  0  0
  9 10  1  0  0  0  0
  9 11  1  0  0  0  0
 11 12  1  0  0  0  0
 11 13  1  0  0  0  0
 13 14  1  0  0  0  0
 13 15  1  0  0  0  0
 15 16  1  0  0  0  0
 16 17  1  0  0  0  0
 16 21  1  0  0  0  0
 17 18  1  0  0  0  0
 18 19  1  0  0  0  0
 18 20  1  0  0  0  0
 21 22  1  0  0  0  0
 22 23  2  0  0  0  0
 22 24  1  0  0  0  0
 22 25  1  0  0  0  0
A    1
P1
A    2
O1P
A    3
O2P
A    4
O3P
A    5
O4P
A    6
C6
A    7
C5
A    8
O1
A    9
C4
A   10
O4
A   11
C3
A   12
O3
A   13
C2
A   14
O2
A   15
C1
A   16
N1
A   17
C7
A   18
C8
A   19
O5
A   20
O6
A   21
C9
A   22
P2
A   23
O5P
A   24
O6P
A   25
O7P
M  END
>  <InstanceId>
1JCX_PAI_A_1300

>  <ChemCompId>
PAI

>  <PdbId>
1JCX

>  <ChainId>
A

>  <ResidueNumber>
1300

>  <InsertionCode>


>  <Model>
1

>  <AltIds>


>  <MissingHeavyAtoms>
0

>  <ObservedFormula>
C9 N O13 P2

>  <Name>
{[(2,2-DIHYDROXY-ETHYL)-(2,3,4,5-TETRAHYDROXY-6-PHOSPHONOOXY-HEXYL)-AMINO]-METHYL}-PHOSPHONIC ACID

>  <SystematicName>
[2,2-dihydroxyethyl-[(2R,3R,4R,5R)-2,3,4,5-tetrahydroxy-6-phosphonooxy-hexyl]amino]methylphosphonic acid

>  <Synonyms>


>  <Type>
NON-POLYMER

>  <Formula>
C9 H23 N O13 P2

>  <MolecularWeight>
415.225

>  <ModifiedDate>
2011-06-04

>  <Parent>


>  <OneLetterCode>


>  <SubcomponentList>


>  <AmbiguousFlag>
N

>  <InChI>
InChI=1S/C9H23NO13P2/c11-5(1-10(2-7(13)14)4-24(17,18)19)8(15)9(16)6(12)3-23-25(20,21)22/h5-9,11-16H,1-4H2,(H2,17,18,19)(H2,20,21,22)/t5-,6-,8-,9-/m1/s1

>  <InChIKey>
ATILYNKCRYHYEP-SQEXRHODSA-N

>  <SMILES>
C([C@H]([C@H]([C@@H]([C@@H](COP(=O)(O)O)O)O)O)O)[N@](CC(O)O)CP(=O)(O)O

$$$$
