5G17_6DK_A_373
  RCSB PDB12061717473D
Coordinates from PDB:5G17:A:373 Model:1 without hydrogens
 22 22  0  0  0  0            999 V2000
   11.1610   61.0630   21.5340   N 0  0  0  0  0  0  0  0  0  0  0  0
   13.7560   51.8020   22.7550   C 0  0  0  0  0  0  0  0  0  0  0  0
   12.6000   50.9960   22.8430   O 0  0  0  0  0  0  0  0  0  0  0  0
   13.4460   53.2480   23.1930   C 0  0  0  0  0  0  0  0  0  0  0  0
   14.0500   51.6680   21.3480   O 0  0  0  0  0  0  0  0  0  0  0  0
   12.3620   54.0180   22.4550   C 0  0  0  0  0  0  0  0  0  0  0  0
   12.4240   55.4570   23.0040   C 0  0  0  0  0  0  0  0  0  0  0  0
   11.3150   56.3640   22.5390   C 0  0  0  0  0  0  0  0  0  0  0  0
   11.5880   57.7560   23.1370   C 0  0  0  0  0  0  0  0  0  0  0  0
   10.8330   58.8050   22.3230   C 0  0  0  0  0  0  0  0  0  0  0  0
   11.2970   60.2280   22.5930   C 0  0  0  0  0  0  0  0  0  0  0  0
   11.1810   62.4430   21.5400   C 0  0  0  0  0  0  0  0  0  0  0  0
   10.9740   63.0770   20.2980   C 0  0  0  0  0  0  0  0  0  0  0  0
   10.9840   64.4690   20.1790   C 0  0  0  0  0  0  0  0  0  0  0  0
   11.1970   65.2540   21.3130   C 0  0  0  0  0  0  0  0  0  0  0  0
   11.3990   64.6460   22.5530   C 0  0  0  0  0  0  0  0  0  0  0  0
   11.3870   63.2530   22.6750   C 0  0  0  0  0  0  0  0  0  0  0  0
   15.9860   51.8700   23.4870   F 0  0  0  0  0  0  0  0  0  0  0  0
   14.8560   51.1970   23.6170   C 0  0  0  0  0  0  0  0  0  0  0  0
   14.4570   51.1730   24.8930   F 0  0  0  0  0  0  0  0  0  0  0  0
   15.1590   49.9540   23.2280   F 0  0  0  0  0  0  0  0  0  0  0  0
   11.6730   60.5280   23.7270   O 0  0  0  0  0  0  0  0  0  0  0  0
 15 16  2  0  0  0  0
 15 14  1  0  0  0  0
 16 17  1  0  0  0  0
 14 13  2  0  0  0  0
 17 12  2  0  0  0  0
 13 12  1  0  0  0  0
 12  1  1  0  0  0  0
  1 11  1  0  0  0  0
 11 22  2  0  0  0  0
 11 10  1  0  0  0  0
 10  9  1  0  0  0  0
  9  8  1  0  0  0  0
  8  7  1  0  0  0  0
  7  6  1  0  0  0  0
  6  4  1  0  0  0  0
  4  2  1  0  0  0  0
  3  2  1  0  0  0  0
  2  5  1  0  0  0  0
  2 19  1  0  0  0  0
 20 19  1  0  0  0  0
 19 18  1  0  0  0  0
 19 21  1  0  0  0  0
A    1
N
A    2
C1
A    3
O1
A    4
C2
A    5
O2
A    6
C3
A    7
C4
A    8
C5
A    9
C6
A   10
C7
A   11
C8
A   12
C9
A   13
C10
A   14
C11
A   15
C12
A   16
C13
A   17
C14
A   18
F2
A   19
C
A   20
F
A   21
F1
A   22
O
M  END
>  <InstanceId>
5G17_6DK_A_373

>  <ChemCompId>
6DK

>  <PdbId>
5G17

>  <ChainId>
A

>  <ResidueNumber>
373

>  <InsertionCode>


>  <Model>
1

>  <AltIds>


>  <MissingHeavyAtoms>
22

>  <ObservedFormula>
C15 N O3 F3

>  <Name>
9,9,9-tris(fluoranyl)-8,8-bis(oxidanyl)-~{N}-phenyl-nonanamide

>  <SystematicName>
9,9,9-tris(fluoranyl)-8,8-bis(oxidanyl)-~{N}-phenyl-nonanamide

>  <Synonyms>


>  <Type>
NON-POLYMER

>  <Formula>
C15 H20 F3 N O3

>  <MolecularWeight>
319.319

>  <ModifiedDate>
2016-11-25

>  <Parent>


>  <OneLetterCode>


>  <SubcomponentList>


>  <AmbiguousFlag>
N

>  <InChI>
InChI=1S/C15H20F3NO3/c16-15(17,18)14(21,22)11-7-2-1-6-10-13(20)19-12-8-4-3-5-9-12/h3-5,8-9,21-22H,1-2,6-7,10-11H2,(H,19,20)

>  <InChIKey>
DOVGAPNVSPZBAT-UHFFFAOYSA-N

>  <SMILES>
c1ccc(cc1)NC(=O)CCCCCCC(C(F)(F)F)(O)O

$$$$
