2Q38_LSA_A_503


 13 14  0  0  0  0  0  0  0  0999 V2000
   15.1008    6.8278   15.1687 C   0  0  0  0  0  0  0  0  0  0  0  0
   14.4756    6.0693   16.1643 C   0  0  0  0  0  0  0  0  0  0  0  0
   14.9225    4.7644   16.3704 C   0  0  0  0  0  0  0  0  0  0  0  0
   16.2761    2.8523   16.1493 C   0  0  0  0  0  0  0  0  0  0  0  0
   16.1326    6.2787   14.3916 C   0  0  0  0  0  0  0  0  0  0  0  0
   14.3381    3.5751   17.5438 S   0  0  0  0  0  0  0  0  0  0  0  0
   15.3793    2.4215   16.9673 N   0  0  0  0  0  0  0  0  0  0  0  0
   17.0172    2.0546   15.5864 O   0  0  0  0  0  0  0  0  0  0  0  0
   15.9319    4.2152   15.5921 C   0  0  0  0  0  0  0  0  0  0  0  0
   16.5977    4.9837   14.6378 C   0  0  0  0  0  0  0  0  0  0  0  0
   14.7079    3.9820   18.8864 O   0  0  0  0  0  0  0  0  0  0  0  0
   12.9660    3.2248   17.2500 O   0  0  0  0  0  0  0  0  0  0  0  0
   15.3167    1.4751   17.2311 H   0  0  0  0  0  0  0  0  0  0  0  0
  1  2  2  0  0  0
  1  5  1  0  0  0
  2  3  1  0  0  0
  3  6  1  0  0  0
  3  9  2  0  0  0
  4  7  1  0  0  0
  4  8  2  0  0  0
  4  9  1  0  0  0
  5 10  2  0  0  0
  6  7  1  0  0  0
  6 11  2  0  0  0
  6 12  2  0  0  0
  9 10  1  0  0  0
  7 13  1  0  0  0
M  END
> <minimizedAffinity>
-7.20620

$$$$
2Q38_LSA_A_503


 13 14  0  0  0  0  0  0  0  0999 V2000
   14.3645    7.0099   16.4167 C   0  0  0  0  0  0  0  0  0  0  0  0
   15.0843    6.6251   15.2804 C   0  0  0  0  0  0  0  0  0  0  0  0
   15.5475    5.3113   15.2131 C   0  0  0  0  0  0  0  0  0  0  0  0
   15.8323    3.0556   15.8197 C   0  0  0  0  0  0  0  0  0  0  0  0
   14.1362    6.1014   17.4620 C   0  0  0  0  0  0  0  0  0  0  0  0
   16.4736    4.5376   13.9184 S   0  0  0  0  0  0  0  0  0  0  0  0
   16.5811    3.1221   14.7739 N   0  0  0  0  0  0  0  0  0  0  0  0
   15.9282    2.0946   16.5745 O   0  0  0  0  0  0  0  0  0  0  0  0
   15.3360    4.4167   16.2529 C   0  0  0  0  0  0  0  0  0  0  0  0
   14.5707    4.7766   17.3616 C   0  0  0  0  0  0  0  0  0  0  0  0
   15.6379    4.3709   12.7441 O   0  0  0  0  0  0  0  0  0  0  0  0
   17.7704    5.1660   13.7957 O   0  0  0  0  0  0  0  0  0  0  0  0
   17.1746    2.3851   14.5021 H   0  0  0  0  0  0  0  0  0  0  0  0
  1  2  2  0  0  0
  1  5  1  0  0  0
  2  3  1  0  0  0
  3  6  1  0  0  0
  3  9  2  0  0  0
  4  7  1  0  0  0
  4  8  2  0  0  0
  4  9  1  0  0  0
  5 10  2  0  0  0
  6  7  1  0  0  0
  6 11  2  0  0  0
  6 12  2  0  0  0
  9 10  1  0  0  0
  7 13  1  0  0  0
M  END
> <minimizedAffinity>
-7.06806

$$$$
2Q38_LSA_A_503


 13 14  0  0  0  0  0  0  0  0999 V2000
   15.2635    3.5224   17.2550 C   0  0  0  0  0  0  0  0  0  0  0  0
   15.8904    3.4853   16.0047 C   0  0  0  0  0  0  0  0  0  0  0  0
   15.7213    4.5784   15.1553 C   0  0  0  0  0  0  0  0  0  0  0  0
   15.0596    6.7246   14.4529 C   0  0  0  0  0  0  0  0  0  0  0  0
   14.4738    4.6210   17.6282 C   0  0  0  0  0  0  0  0  0  0  0  0
   16.3837    4.8215   13.5322 S   0  0  0  0  0  0  0  0  0  0  0  0
   15.5925    6.2691   13.3724 N   0  0  0  0  0  0  0  0  0  0  0  0
   14.3601    7.7301   14.4073 O   0  0  0  0  0  0  0  0  0  0  0  0
   14.9279    5.6583   15.5169 C   0  0  0  0  0  0  0  0  0  0  0  0
   14.3477    5.7273   16.7830 C   0  0  0  0  0  0  0  0  0  0  0  0
   17.8187    5.0214   13.6084 O   0  0  0  0  0  0  0  0  0  0  0  0
   15.8416    3.8344   12.6247 O   0  0  0  0  0  0  0  0  0  0  0  0
   15.5340    6.7465   12.5133 H   0  0  0  0  0  0  0  0  0  0  0  0
  1  2  2  0  0  0
  1  5  1  0  0  0
  2  3  1  0  0  0
  3  6  1  0  0  0
  3  9  2  0  0  0
  4  7  1  0  0  0
  4  8  2  0  0  0
  4  9  1  0  0  0
  5 10  2  0  0  0
  6  7  1  0  0  0
  6 11  2  0  0  0
  6 12  2  0  0  0
  9 10  1  0  0  0
  7 13  1  0  0  0
M  END
> <minimizedAffinity>
-6.63743

$$$$
2Q38_LSA_A_503


 13 14  0  0  0  0  0  0  0  0999 V2000
   14.9723    7.1199   14.8446 C   0  0  0  0  0  0  0  0  0  0  0  0
   15.5428    6.3967   13.7916 C   0  0  0  0  0  0  0  0  0  0  0  0
   15.8918    5.0667   14.0247 C   0  0  0  0  0  0  0  0  0  0  0  0
   16.0566    3.0124   15.1605 C   0  0  0  0  0  0  0  0  0  0  0  0
   14.7782    6.5242   16.1006 C   0  0  0  0  0  0  0  0  0  0  0  0
   16.6205    3.9088   12.9019 S   0  0  0  0  0  0  0  0  0  0  0  0
   16.7005    2.7435   14.0779 N   0  0  0  0  0  0  0  0  0  0  0  0
   16.1510    2.2617   16.1249 O   0  0  0  0  0  0  0  0  0  0  0  0
   15.7149    4.4812   15.2707 C   0  0  0  0  0  0  0  0  0  0  0  0
   15.0945    5.1783   16.3068 C   0  0  0  0  0  0  0  0  0  0  0  0
   15.6616    3.5442   11.8759 O   0  0  0  0  0  0  0  0  0  0  0  0
   17.9442    4.3528   12.5248 O   0  0  0  0  0  0  0  0  0  0  0  0
   17.2039    1.9061   13.9575 H   0  0  0  0  0  0  0  0  0  0  0  0
  1  2  2  0  0  0
  1  5  1  0  0  0
  2  3  1  0  0  0
  3  6  1  0  0  0
  3  9  2  0  0  0
  4  7  1  0  0  0
  4  8  2  0  0  0
  4  9  1  0  0  0
  5 10  2  0  0  0
  6  7  1  0  0  0
  6 11  2  0  0  0
  6 12  2  0  0  0
  9 10  1  0  0  0
  7 13  1  0  0  0
M  END
> <minimizedAffinity>
-6.45299

$$$$
2Q38_LSA_A_503


 13 14  0  0  0  0  0  0  0  0999 V2000
   14.2347    4.9360   18.1002 C   0  0  0  0  0  0  0  0  0  0  0  0
   14.3758    5.9708   17.1692 C   0  0  0  0  0  0  0  0  0  0  0  0
   15.0169    5.6840   15.9643 C   0  0  0  0  0  0  0  0  0  0  0  0
   16.0354    4.3981   14.2772 C   0  0  0  0  0  0  0  0  0  0  0  0
   14.7430    3.6557   17.8309 C   0  0  0  0  0  0  0  0  0  0  0  0
   15.3391    6.7709   14.6051 S   0  0  0  0  0  0  0  0  0  0  0  0
   16.1484    5.5816   13.7818 N   0  0  0  0  0  0  0  0  0  0  0  0
   16.6887    3.4764   13.8016 O   0  0  0  0  0  0  0  0  0  0  0  0
   15.5337    4.4226   15.7034 C   0  0  0  0  0  0  0  0  0  0  0  0
   15.3460    3.3729   16.6019 C   0  0  0  0  0  0  0  0  0  0  0  0
   14.0965    7.1095   13.9372 O   0  0  0  0  0  0  0  0  0  0  0  0
   16.2445    7.8210   15.0167 O   0  0  0  0  0  0  0  0  0  0  0  0
   16.6773    5.7666   12.9723 H   0  0  0  0  0  0  0  0  0  0  0  0
  1  2  2  0  0  0
  1  5  1  0  0  0
  2  3  1  0  0  0
  3  6  1  0  0  0
  3  9  2  0  0  0
  4  7  1  0  0  0
  4  8  2  0  0  0
  4  9  1  0  0  0
  5 10  2  0  0  0
  6  7  1  0  0  0
  6 11  2  0  0  0
  6 12  2  0  0  0
  9 10  1  0  0  0
  7 13  1  0  0  0
M  END
> <minimizedAffinity>
-6.02232

$$$$
2Q38_LSA_A_503


 13 14  0  0  0  0  0  0  0  0999 V2000
   15.0061    4.4397   16.6938 C   0  0  0  0  0  0  0  0  0  0  0  0
   15.6325    4.0453   15.5066 C   0  0  0  0  0  0  0  0  0  0  0  0
   15.7630    4.9913   14.4901 C   0  0  0  0  0  0  0  0  0  0  0  0
   15.6776    7.0879   13.4253 C   0  0  0  0  0  0  0  0  0  0  0  0
   14.5089    5.7438   16.8426 C   0  0  0  0  0  0  0  0  0  0  0  0
   16.5028    4.7945   12.8944 S   0  0  0  0  0  0  0  0  0  0  0  0
   16.1042    6.3446   12.4638 N   0  0  0  0  0  0  0  0  0  0  0  0
   15.2542    8.2120   13.1812 O   0  0  0  0  0  0  0  0  0  0  0  0
   15.2579    6.2764   14.6302 C   0  0  0  0  0  0  0  0  0  0  0  0
   14.6842    6.6925   15.8310 C   0  0  0  0  0  0  0  0  0  0  0  0
   17.9399    4.6480   13.0301 O   0  0  0  0  0  0  0  0  0  0  0  0
   15.7516    3.8338   12.1170 O   0  0  0  0  0  0  0  0  0  0  0  0
   16.1874    6.6735   11.5396 H   0  0  0  0  0  0  0  0  0  0  0  0
  1  2  2  0  0  0
  1  5  1  0  0  0
  2  3  1  0  0  0
  3  6  1  0  0  0
  3  9  2  0  0  0
  4  7  1  0  0  0
  4  8  2  0  0  0
  4  9  1  0  0  0
  5 10  2  0  0  0
  6  7  1  0  0  0
  6 11  2  0  0  0
  6 12  2  0  0  0
  9 10  1  0  0  0
  7 13  1  0  0  0
M  END
> <minimizedAffinity>
-5.94067

$$$$
2Q38_LSA_A_503


 13 14  0  0  0  0  0  0  0  0999 V2000
   15.1737    7.2227   14.7308 C   0  0  0  0  0  0  0  0  0  0  0  0
   15.8393    6.9326   13.5348 C   0  0  0  0  0  0  0  0  0  0  0  0
   16.2551    5.6189   13.3194 C   0  0  0  0  0  0  0  0  0  0  0  0
   16.4849    3.3061   13.6875 C   0  0  0  0  0  0  0  0  0  0  0  0
   14.9523    6.2211   15.6887 C   0  0  0  0  0  0  0  0  0  0  0  0
   17.1079    4.9518   11.9193 S   0  0  0  0  0  0  0  0  0  0  0  0
   17.1978    3.4549   12.6251 N   0  0  0  0  0  0  0  0  0  0  0  0
   16.5751    2.2716   14.3388 O   0  0  0  0  0  0  0  0  0  0  0  0
   16.0506    4.6311   14.2727 C   0  0  0  0  0  0  0  0  0  0  0  0
   15.3378    4.9005   15.4404 C   0  0  0  0  0  0  0  0  0  0  0  0
   16.2259    4.9292   10.7676 O   0  0  0  0  0  0  0  0  0  0  0  0
   18.4201    5.5501   11.8094 O   0  0  0  0  0  0  0  0  0  0  0  0
   17.7560    2.7314   12.2587 H   0  0  0  0  0  0  0  0  0  0  0  0
  1  2  2  0  0  0
  1  5  1  0  0  0
  2  3  1  0  0  0
  3  6  1  0  0  0
  3  9  2  0  0  0
  4  7  1  0  0  0
  4  8  2  0  0  0
  4  9  1  0  0  0
  5 10  2  0  0  0
  6  7  1  0  0  0
  6 11  2  0  0  0
  6 12  2  0  0  0
  9 10  1  0  0  0
  7 13  1  0  0  0
M  END
> <minimizedAffinity>
-5.90208

$$$$
2Q38_LSA_A_503


 13 14  0  0  0  0  0  0  0  0999 V2000
   14.4760    6.7723   16.4499 C   0  0  0  0  0  0  0  0  0  0  0  0
   14.9728    5.5117   16.7985 C   0  0  0  0  0  0  0  0  0  0  0  0
   15.4910    4.7088   15.7826 C   0  0  0  0  0  0  0  0  0  0  0  0
   16.2322    4.1021   13.6333 C   0  0  0  0  0  0  0  0  0  0  0  0
   14.4841    7.2011   15.1134 C   0  0  0  0  0  0  0  0  0  0  0  0
   16.1858    3.0861   15.9110 S   0  0  0  0  0  0  0  0  0  0  0  0
   16.4043    2.9961   14.2705 N   0  0  0  0  0  0  0  0  0  0  0  0
   16.2625    4.1074   12.4079 O   0  0  0  0  0  0  0  0  0  0  0  0
   15.4851    5.1253   14.4587 C   0  0  0  0  0  0  0  0  0  0  0  0
   15.0446    6.4023   14.1126 C   0  0  0  0  0  0  0  0  0  0  0  0
   17.4608    3.1471   16.6007 O   0  0  0  0  0  0  0  0  0  0  0  0
   15.1747    2.1493   16.3489 O   0  0  0  0  0  0  0  0  0  0  0  0
   16.6480    2.1576   13.8158 H   0  0  0  0  0  0  0  0  0  0  0  0
  1  2  2  0  0  0
  1  5  1  0  0  0
  2  3  1  0  0  0
  3  6  1  0  0  0
  3  9  2  0  0  0
  4  7  1  0  0  0
  4  8  2  0  0  0
  4  9  1  0  0  0
  5 10  2  0  0  0
  6  7  1  0  0  0
  6 11  2  0  0  0
  6 12  2  0  0  0
  9 10  1  0  0  0
  7 13  1  0  0  0
M  END
> <minimizedAffinity>
-5.87890

$$$$
2Q38_LSA_A_503


 13 14  0  0  0  0  0  0  0  0999 V2000
   14.8545    6.6008   14.8180 C   0  0  0  0  0  0  0  0  0  0  0  0
   14.9711    5.3400   14.2227 C   0  0  0  0  0  0  0  0  0  0  0  0
   16.1087    5.0798   13.4589 C   0  0  0  0  0  0  0  0  0  0  0  0
   18.2370    5.4184   12.5142 C   0  0  0  0  0  0  0  0  0  0  0  0
   15.8468    7.5758   14.6315 C   0  0  0  0  0  0  0  0  0  0  0  0
   16.5360    3.5956   12.5946 S   0  0  0  0  0  0  0  0  0  0  0  0
   17.9166    4.2859   11.9909 N   0  0  0  0  0  0  0  0  0  0  0  0
   19.1778    6.0550   12.0536 O   0  0  0  0  0  0  0  0  0  0  0  0
   17.0829    6.0483   13.2609 C   0  0  0  0  0  0  0  0  0  0  0  0
   17.0008    7.2861   13.8977 C   0  0  0  0  0  0  0  0  0  0  0  0
   16.8543    2.5450   13.5433 O   0  0  0  0  0  0  0  0  0  0  0  0
   15.5796    3.3464   11.5387 O   0  0  0  0  0  0  0  0  0  0  0  0
   18.4531    3.8609   11.2833 H   0  0  0  0  0  0  0  0  0  0  0  0
  1  2  2  0  0  0
  1  5  1  0  0  0
  2  3  1  0  0  0
  3  6  1  0  0  0
  3  9  2  0  0  0
  4  7  1  0  0  0
  4  8  2  0  0  0
  4  9  1  0  0  0
  5 10  2  0  0  0
  6  7  1  0  0  0
  6 11  2  0  0  0
  6 12  2  0  0  0
  9 10  1  0  0  0
  7 13  1  0  0  0
M  END
> <minimizedAffinity>
-5.57159

$$$$
2Q38_LSA_A_503


 13 14  0  0  0  0  0  0  0  0999 V2000
   14.6068    6.1924   16.2936 C   0  0  0  0  0  0  0  0  0  0  0  0
   15.1317    7.2058   15.4843 C   0  0  0  0  0  0  0  0  0  0  0  0
   16.0123    6.8403   14.4665 C   0  0  0  0  0  0  0  0  0  0  0  0
   17.2321    5.4361   13.0250 C   0  0  0  0  0  0  0  0  0  0  0  0
   14.9752    4.8529   16.0938 C   0  0  0  0  0  0  0  0  0  0  0  0
   16.8280    7.8832   13.2919 S   0  0  0  0  0  0  0  0  0  0  0  0
   17.6397    6.5948   12.6374 N   0  0  0  0  0  0  0  0  0  0  0  0
   17.8443    4.4313   12.6814 O   0  0  0  0  0  0  0  0  0  0  0  0
   16.3895    5.5179   14.2780 C   0  0  0  0  0  0  0  0  0  0  0  0
   15.8263    4.4975   15.0433 C   0  0  0  0  0  0  0  0  0  0  0  0
   15.8620    8.4187   12.3512 O   0  0  0  0  0  0  0  0  0  0  0  0
   17.7400    8.7752   13.9734 O   0  0  0  0  0  0  0  0  0  0  0  0
   18.3801    6.7071   11.9984 H   0  0  0  0  0  0  0  0  0  0  0  0
  1  2  2  0  0  0
  1  5  1  0  0  0
  2  3  1  0  0  0
  3  6  1  0  0  0
  3  9  2  0  0  0
  4  7  1  0  0  0
  4  8  2  0  0  0
  4  9  1  0  0  0
  5 10  2  0  0  0
  6  7  1  0  0  0
  6 11  2  0  0  0
  6 12  2  0  0  0
  9 10  1  0  0  0
  7 13  1  0  0  0
M  END
> <minimizedAffinity>
-5.54971

$$$$
