2Q38_LSA_A_503
  RCSB PDB12061706433D
Coordinates from PDB:2Q38:A:503 Model:1 without hydrogens
 12 13  0  0  0  0            999 V2000
   15.1690    6.8120   15.6170   C 0  0  0  0  0  0  0  0  0  0  0  0
   14.6890    5.7980   16.4530   C 0  0  0  0  0  0  0  0  0  0  0  0
   15.0310    4.4810   16.1470   C 0  0  0  0  0  0  0  0  0  0  0  0
   16.1030    2.6940   15.0540   C 0  0  0  0  0  0  0  0  0  0  0  0
   15.9540    6.5040   14.4950   C 0  0  0  0  0  0  0  0  0  0  0  0
   14.5830    3.0010   17.0080   S 0  0  0  0  0  0  0  0  0  0  0  0
   15.3560    2.0560   15.8870   N 0  0  0  0  0  0  0  0  0  0  0  0
   16.6240    2.0920   14.1220   O 0  0  0  0  0  0  0  0  0  0  0  0
   15.7940    4.1740   15.0290   C 0  0  0  0  0  0  0  0  0  0  0  0
   16.3230    5.1830   14.2250   C 0  0  0  0  0  0  0  0  0  0  0  0
   15.2640    2.9480   18.2880   O 0  0  0  0  0  0  0  0  0  0  0  0
   13.1510    2.8080   16.9460   O 0  0  0  0  0  0  0  0  0  0  0  0
  1  2  2  0  0  0  0
  1  5  1  0  0  0  0
  2  3  1  0  0  0  0
  3  6  1  0  0  0  0
  3  9  2  0  0  0  0
  4  7  1  0  0  0  0
  4  8  2  0  0  0  0
  4  9  1  0  0  0  0
  5 10  2  0  0  0  0
  6  7  1  0  0  0  0
  6 11  2  0  0  0  0
  6 12  2  0  0  0  0
  9 10  1  0  0  0  0
A    1
C4
A    2
C5
A    3
C6
A    4
C7
A    5
C3
A    6
S10
A    7
N9
A    8
O8
A    9
C1
A   10
C2
A   11
O12
A   12
O11
M  END
>  <InstanceId>
2Q38_LSA_A_503

>  <ChemCompId>
LSA

>  <PdbId>
2Q38

>  <ChainId>
A

>  <ResidueNumber>
503

>  <InsertionCode>


>  <Model>
1

>  <AltIds>


>  <MissingHeavyAtoms>
0

>  <ObservedFormula>
C7 N O3 S

>  <Name>
1,2-BENZISOTHIAZOL-3(2H)-ONE 1,1-DIOXIDE

>  <SystematicName>
1,1-dioxo-1,2-benzothiazol-3-one

>  <Synonyms>
SACCHARIN

>  <Type>
NON-POLYMER

>  <Formula>
C7 H5 N O3 S

>  <MolecularWeight>
183.184

>  <ModifiedDate>
2011-06-04

>  <Parent>


>  <OneLetterCode>


>  <SubcomponentList>


>  <AmbiguousFlag>


>  <InChI>
InChI=1S/C7H5NO3S/c9-7-5-3-1-2-4-6(5)12(10,11)8-7/h1-4H,(H,8,9)

>  <InChIKey>
CVHZOJJKTDOEJC-UHFFFAOYSA-N

>  <SMILES>
c1ccc2c(c1)C(=O)NS2(=O)=O

$$$$
