3CCW_4HI_B_1


 40 42  0  0  0  0  0  0  0  0999 V2000
  -14.6682    7.4492   45.7723 N   0  0  0  0  0  0  0  0  0  0  0  0
  -16.1377    8.6785   46.8641 N   0  0  0  0  0  0  0  0  0  0  0  0
  -14.9249    8.6715   46.2986 C   0  0  0  0  0  0  0  0  0  0  0  0
  -16.6568    7.4646   46.6921 C   0  0  0  0  0  0  0  0  0  0  0  0
  -15.7538    6.6724   45.9888 C   0  0  0  0  0  0  0  0  0  0  0  0
  -12.4395   11.2954   47.3824 C   0  0  0  0  0  0  0  0  0  0  0  0
  -14.1395   10.7620   45.2286 C   0  0  0  0  0  0  0  0  0  0  0  0
  -13.3431   11.9059   45.2265 C   0  0  0  0  0  0  0  0  0  0  0  0
  -14.0687    9.8785   46.3034 C   0  0  0  0  0  0  0  0  0  0  0  0
  -12.4945   12.1748   46.3029 C   0  0  0  0  0  0  0  0  0  0  0  0
  -11.7222   13.2792   46.2959 F   0  0  0  0  0  0  0  0  0  0  0  0
  -13.2362   10.1533   47.3895 C   0  0  0  0  0  0  0  0  0  0  0  0
  -18.9065    6.8751   46.3423 O   0  0  0  0  0  0  0  0  0  0  0  0
  -17.9883    7.0029   47.1481 C   0  0  0  0  0  0  0  0  0  0  0  0
  -18.1945    7.0129   48.4605 N   0  0  0  0  0  0  0  0  0  0  0  0
  -17.4036    7.1540   49.0295 H   0  0  0  0  0  0  0  0  0  0  0  0
  -19.4638    6.8376   49.1442 C   0  0  0  0  0  0  0  0  0  0  0  0
  -20.8854    4.8727   49.7076 C   0  0  0  0  0  0  0  0  0  0  0  0
  -21.0718    3.5622   50.1386 C   0  0  0  0  0  0  0  0  0  0  0  0
  -18.5054    4.6335   49.9628 C   0  0  0  0  0  0  0  0  0  0  0  0
  -19.6108    5.4071   49.6123 C   0  0  0  0  0  0  0  0  0  0  0  0
  -18.6893    3.3231   50.3976 C   0  0  0  0  0  0  0  0  0  0  0  0
  -19.9704    2.7859   50.4840 C   0  0  0  0  0  0  0  0  0  0  0  0
  -15.9635    5.2412   45.6399 C   0  0  0  0  0  0  0  0  0  0  0  0
  -14.7138    4.4587   46.0433 C   0  0  0  0  0  0  0  0  0  0  0  0
  -16.3575    5.0197   44.1830 C   0  0  0  0  0  0  0  0  0  0  0  0
  -13.4425    7.0735   45.0513 C   0  0  0  0  0  0  0  0  0  0  0  0
  -13.7221    7.3232   43.5640 C   0  0  0  0  0  0  0  0  0  0  0  0
  -12.5102    7.4863   42.6336 C   0  0  0  0  0  0  0  0  0  0  0  0
  -11.9500    6.2411   42.2340 O   0  0  0  0  0  0  0  0  0  0  0  0
  -12.6107    5.7340   41.7369 H   0  0  0  0  0  0  0  0  0  0  0  0
  -12.9559    8.1863   41.3528 C   0  0  0  0  0  0  0  0  0  0  0  0
  -12.8681    9.7094   41.4145 C   0  0  0  0  0  0  0  0  0  0  0  0
  -11.5359   10.1154   41.2022 O   0  0  0  0  0  0  0  0  0  0  0  0
  -11.2406    9.8118   40.3296 H   0  0  0  0  0  0  0  0  0  0  0  0
  -13.7402   10.3133   40.3192 C   0  0  0  0  0  0  0  0  0  0  0  0
  -12.8995   10.7113   39.1249 C   0  0  0  0  0  0  0  0  0  0  0  0
  -12.5716    9.8218   38.2969 O   0  0  0  0  0  0  0  0  0  0  0  0
  -12.5622   11.9171   39.0248 O   0  0  0  0  0  0  0  0  0  0  0  0
  -12.8531    8.9372   38.4236 H   0  0  0  0  0  0  0  0  0  0  0  0
  5  1  1  0  0  0
  1  3  1  0  0  0
  1 27  1  0  0  0
  4  2  1  0  0  0
  2  3  2  0  0  0
 21 17  1  0  0  0
 17 15  1  0  0  0
  3  9  1  0  0  0
 25 24  1  0  0  0
 24 26  1  0  0  0
 24  5  1  0  0  0
 27 28  1  0  0  0
 28 29  1  0  0  0
 29 32  1  0  0  0
 32 33  1  0  0  0
 12  6  2  0  0  0
  6 10  1  0  0  0
 19 18  2  0  0  0
 18 21  1  0  0  0
 19 23  1  0  0  0
  9  7  2  0  0  0
  7  8  1  0  0  0
  8 10  2  0  0  0
 22 20  1  0  0  0
 21 20  2  0  0  0
 13 14  2  0  0  0
 15 14  1  0  0  0
 14  4  1  0  0  0
 23 22  2  0  0  0
  4  5  2  0  0  0
  9 12  1  0  0  0
 10 11  1  0  0  0
 30 29  1  0  0  0
 33 36  1  0  0  0
 33 34  1  0  0  0
 36 37  1  0  0  0
 39 37  2  0  0  0
 37 38  1  0  0  0
 15 16  1  0  0  0
 30 31  1  0  0  0
 34 35  1  0  0  0
 38 40  1  0  0  0
M  END
> <minimizedAffinity>
-9.05454

$$$$
3CCW_4HI_B_1


 40 42  0  0  0  0  0  0  0  0999 V2000
  -14.2357    7.5033   45.4808 N   0  0  0  0  0  0  0  0  0  0  0  0
  -15.7133    8.4921   46.7853 N   0  0  0  0  0  0  0  0  0  0  0  0
  -14.5539    8.6467   46.1353 C   0  0  0  0  0  0  0  0  0  0  0  0
  -16.1377    7.2543   46.5395 C   0  0  0  0  0  0  0  0  0  0  0  0
  -15.2292    6.6130   45.7023 C   0  0  0  0  0  0  0  0  0  0  0  0
  -12.2447   11.3991   47.2881 C   0  0  0  0  0  0  0  0  0  0  0  0
  -14.0214   10.8747   45.1949 C   0  0  0  0  0  0  0  0  0  0  0  0
  -13.3295   12.0838   45.2409 C   0  0  0  0  0  0  0  0  0  0  0  0
  -13.8076    9.9234   46.1898 C   0  0  0  0  0  0  0  0  0  0  0  0
  -12.4428   12.3481   46.2873 C   0  0  0  0  0  0  0  0  0  0  0  0
  -11.7717   13.5161   46.3266 F   0  0  0  0  0  0  0  0  0  0  0  0
  -12.9368   10.1914   47.2473 C   0  0  0  0  0  0  0  0  0  0  0  0
  -18.4044    6.6526   46.3636 O   0  0  0  0  0  0  0  0  0  0  0  0
  -17.3833    6.6330   47.0459 C   0  0  0  0  0  0  0  0  0  0  0  0
  -17.4012    6.3242   48.3380 N   0  0  0  0  0  0  0  0  0  0  0  0
  -16.5399    6.3667   48.8129 H   0  0  0  0  0  0  0  0  0  0  0  0
  -18.5575    5.9306   49.1236 C   0  0  0  0  0  0  0  0  0  0  0  0
  -18.3399    8.2193   50.0793 C   0  0  0  0  0  0  0  0  0  0  0  0
  -18.8489    9.3518   50.7089 C   0  0  0  0  0  0  0  0  0  0  0  0
  -20.5059    7.1769   50.1709 C   0  0  0  0  0  0  0  0  0  0  0  0
  -19.1616    7.1386   49.8039 C   0  0  0  0  0  0  0  0  0  0  0  0
  -21.0171    8.3074   50.8040 C   0  0  0  0  0  0  0  0  0  0  0  0
  -20.1912    9.3953   51.0715 C   0  0  0  0  0  0  0  0  0  0  0  0
  -15.3418    5.2037   45.2384 C   0  0  0  0  0  0  0  0  0  0  0  0
  -14.1147    4.4353   45.7290 C   0  0  0  0  0  0  0  0  0  0  0  0
  -15.5620    5.0720   43.7347 C   0  0  0  0  0  0  0  0  0  0  0  0
  -13.0441    7.3069   44.6412 C   0  0  0  0  0  0  0  0  0  0  0  0
  -13.4430    7.7241   43.2201 C   0  0  0  0  0  0  0  0  0  0  0  0
  -12.3882    7.5667   42.1139 C   0  0  0  0  0  0  0  0  0  0  0  0
  -11.8636    6.2466   42.0357 O   0  0  0  0  0  0  0  0  0  0  0  0
  -12.5785    5.6266   41.8227 H   0  0  0  0  0  0  0  0  0  0  0  0
  -13.0375    7.8505   40.7622 C   0  0  0  0  0  0  0  0  0  0  0  0
  -12.4355    9.0427   40.0221 C   0  0  0  0  0  0  0  0  0  0  0  0
  -12.6652    8.9058   38.6390 O   0  0  0  0  0  0  0  0  0  0  0  0
  -13.6201    8.8726   38.4715 H   0  0  0  0  0  0  0  0  0  0  0  0
  -13.1033   10.3273   40.5004 C   0  0  0  0  0  0  0  0  0  0  0  0
  -13.4323   11.2273   39.3285 C   0  0  0  0  0  0  0  0  0  0  0  0
  -14.6087   11.2264   38.8811 O   0  0  0  0  0  0  0  0  0  0  0  0
  -12.5049   11.9284   38.8532 O   0  0  0  0  0  0  0  0  0  0  0  0
  -15.2601   10.6816   39.2771 H   0  0  0  0  0  0  0  0  0  0  0  0
  5  1  1  0  0  0
  1  3  1  0  0  0
  1 27  1  0  0  0
  4  2  1  0  0  0
  2  3  2  0  0  0
 21 17  1  0  0  0
 17 15  1  0  0  0
  3  9  1  0  0  0
 25 24  1  0  0  0
 24 26  1  0  0  0
 24  5  1  0  0  0
 27 28  1  0  0  0
 28 29  1  0  0  0
 29 32  1  0  0  0
 32 33  1  0  0  0
 12  6  2  0  0  0
  6 10  1  0  0  0
 19 18  2  0  0  0
 18 21  1  0  0  0
 19 23  1  0  0  0
  9  7  2  0  0  0
  7  8  1  0  0  0
  8 10  2  0  0  0
 22 20  1  0  0  0
 21 20  2  0  0  0
 13 14  2  0  0  0
 15 14  1  0  0  0
 14  4  1  0  0  0
 23 22  2  0  0  0
  4  5  2  0  0  0
  9 12  1  0  0  0
 10 11  1  0  0  0
 30 29  1  0  0  0
 33 36  1  0  0  0
 33 34  1  0  0  0
 36 37  1  0  0  0
 39 37  2  0  0  0
 37 38  1  0  0  0
 15 16  1  0  0  0
 30 31  1  0  0  0
 34 35  1  0  0  0
 38 40  1  0  0  0
M  END
> <minimizedAffinity>
-8.92918

$$$$
3CCW_4HI_B_1


 40 42  0  0  0  0  0  0  0  0999 V2000
  -14.7833    7.5471   46.0743 N   0  0  0  0  0  0  0  0  0  0  0  0
  -16.3561    8.6558   47.1512 N   0  0  0  0  0  0  0  0  0  0  0  0
  -15.1117    8.7225   46.6638 C   0  0  0  0  0  0  0  0  0  0  0  0
  -16.8235    7.4421   46.8663 C   0  0  0  0  0  0  0  0  0  0  0  0
  -15.8538    6.7264   46.1699 C   0  0  0  0  0  0  0  0  0  0  0  0
  -13.6006   12.1134   45.9889 C   0  0  0  0  0  0  0  0  0  0  0  0
  -13.4164   10.0597   47.8762 C   0  0  0  0  0  0  0  0  0  0  0  0
  -12.6392   11.2087   48.0123 C   0  0  0  0  0  0  0  0  0  0  0  0
  -14.2977    9.9505   46.8028 C   0  0  0  0  0  0  0  0  0  0  0  0
  -12.7287   12.2350   47.0690 C   0  0  0  0  0  0  0  0  0  0  0  0
  -11.9795   13.3468   47.2058 F   0  0  0  0  0  0  0  0  0  0  0  0
  -14.3761   10.9655   45.8477 C   0  0  0  0  0  0  0  0  0  0  0  0
  -19.0820    6.9880   46.3933 O   0  0  0  0  0  0  0  0  0  0  0  0
  -18.1642    6.9119   47.2060 C   0  0  0  0  0  0  0  0  0  0  0  0
  -18.3743    6.6252   48.4861 N   0  0  0  0  0  0  0  0  0  0  0  0
  -17.5827    6.6184   49.0715 H   0  0  0  0  0  0  0  0  0  0  0  0
  -19.6485    6.3207   49.1128 C   0  0  0  0  0  0  0  0  0  0  0  0
  -21.0754    7.1439   50.9797 C   0  0  0  0  0  0  0  0  0  0  0  0
  -21.4103    8.0638   51.9695 C   0  0  0  0  0  0  0  0  0  0  0  0
  -19.1826    8.4883   50.3501 C   0  0  0  0  0  0  0  0  0  0  0  0
  -19.9649    7.3476   50.1770 C   0  0  0  0  0  0  0  0  0  0  0  0
  -19.5174    9.4121   51.3373 C   0  0  0  0  0  0  0  0  0  0  0  0
  -20.6285    9.2005   52.1483 C   0  0  0  0  0  0  0  0  0  0  0  0
  -15.9945    5.3170   45.7138 C   0  0  0  0  0  0  0  0  0  0  0  0
  -14.8079    4.5162   46.2499 C   0  0  0  0  0  0  0  0  0  0  0  0
  -16.1704    5.1786   44.2049 C   0  0  0  0  0  0  0  0  0  0  0  0
  -13.5043    7.2574   45.4083 C   0  0  0  0  0  0  0  0  0  0  0  0
  -13.6222    7.8156   43.9845 C   0  0  0  0  0  0  0  0  0  0  0  0
  -12.4985    8.7406   43.4917 C   0  0  0  0  0  0  0  0  0  0  0  0
  -11.5556    8.0704   42.6636 O   0  0  0  0  0  0  0  0  0  0  0  0
  -12.0023    7.7355   41.8705 H   0  0  0  0  0  0  0  0  0  0  0  0
  -13.1053    9.8508   42.6383 C   0  0  0  0  0  0  0  0  0  0  0  0
  -12.7807    9.7384   41.1505 C   0  0  0  0  0  0  0  0  0  0  0  0
  -13.3444    8.5562   40.6314 O   0  0  0  0  0  0  0  0  0  0  0  0
  -14.3070    8.5781   40.7494 H   0  0  0  0  0  0  0  0  0  0  0  0
  -13.3796   10.9283   40.4086 C   0  0  0  0  0  0  0  0  0  0  0  0
  -12.7414   11.0845   39.0448 C   0  0  0  0  0  0  0  0  0  0  0  0
  -12.6029   10.0614   38.3249 O   0  0  0  0  0  0  0  0  0  0  0  0
  -12.3720   12.2349   38.7019 O   0  0  0  0  0  0  0  0  0  0  0  0
  -12.8983    9.2276   38.6339 H   0  0  0  0  0  0  0  0  0  0  0  0
  5  1  1  0  0  0
  1  3  1  0  0  0
  1 27  1  0  0  0
  4  2  1  0  0  0
  2  3  2  0  0  0
 21 17  1  0  0  0
 17 15  1  0  0  0
  3  9  1  0  0  0
 25 24  1  0  0  0
 24 26  1  0  0  0
 24  5  1  0  0  0
 27 28  1  0  0  0
 28 29  1  0  0  0
 29 32  1  0  0  0
 32 33  1  0  0  0
 12  6  2  0  0  0
  6 10  1  0  0  0
 19 18  2  0  0  0
 18 21  1  0  0  0
 19 23  1  0  0  0
  9  7  2  0  0  0
  7  8  1  0  0  0
  8 10  2  0  0  0
 22 20  1  0  0  0
 21 20  2  0  0  0
 13 14  2  0  0  0
 15 14  1  0  0  0
 14  4  1  0  0  0
 23 22  2  0  0  0
  4  5  2  0  0  0
  9 12  1  0  0  0
 10 11  1  0  0  0
 30 29  1  0  0  0
 33 36  1  0  0  0
 33 34  1  0  0  0
 36 37  1  0  0  0
 39 37  2  0  0  0
 37 38  1  0  0  0
 15 16  1  0  0  0
 30 31  1  0  0  0
 34 35  1  0  0  0
 38 40  1  0  0  0
M  END
> <minimizedAffinity>
-8.21056

$$$$
3CCW_4HI_B_1


 40 42  0  0  0  0  0  0  0  0999 V2000
  -14.8532    8.7203   47.3700 N   0  0  0  0  0  0  0  0  0  0  0  0
  -13.9776    9.6927   45.5950 N   0  0  0  0  0  0  0  0  0  0  0  0
  -14.6154    9.9030   46.7524 C   0  0  0  0  0  0  0  0  0  0  0  0
  -13.8021    8.3781   45.4782 C   0  0  0  0  0  0  0  0  0  0  0  0
  -14.3320    7.7410   46.5966 C   0  0  0  0  0  0  0  0  0  0  0  0
  -14.3456   13.3714   48.2135 C   0  0  0  0  0  0  0  0  0  0  0  0
  -16.2778   11.7122   47.0617 C   0  0  0  0  0  0  0  0  0  0  0  0
  -16.6186   12.9951   47.4866 C   0  0  0  0  0  0  0  0  0  0  0  0
  -14.9639   11.2701   47.1994 C   0  0  0  0  0  0  0  0  0  0  0  0
  -15.6546   13.8247   48.0641 C   0  0  0  0  0  0  0  0  0  0  0  0
  -15.9861   15.0665   48.4697 F   0  0  0  0  0  0  0  0  0  0  0  0
  -14.0021   12.0890   47.7933 C   0  0  0  0  0  0  0  0  0  0  0  0
  -11.9681    7.3107   44.4642 O   0  0  0  0  0  0  0  0  0  0  0  0
  -13.1366    7.6740   44.3578 C   0  0  0  0  0  0  0  0  0  0  0  0
  -13.7611    7.7152   43.1859 N   0  0  0  0  0  0  0  0  0  0  0  0
  -14.6865    8.0513   43.1916 H   0  0  0  0  0  0  0  0  0  0  0  0
  -13.2225    7.3167   41.8973 C   0  0  0  0  0  0  0  0  0  0  0  0
  -12.6318    8.3263   39.6994 C   0  0  0  0  0  0  0  0  0  0  0  0
  -12.4961    9.4035   38.8280 C   0  0  0  0  0  0  0  0  0  0  0  0
  -13.4241    9.8032   41.4249 C   0  0  0  0  0  0  0  0  0  0  0  0
  -13.0992    8.5196   40.9890 C   0  0  0  0  0  0  0  0  0  0  0  0
  -13.2860   10.8833   40.5562 C   0  0  0  0  0  0  0  0  0  0  0  0
  -12.8246   10.6849   39.2582 C   0  0  0  0  0  0  0  0  0  0  0  0
  -14.3592    6.2684   46.8088 C   0  0  0  0  0  0  0  0  0  0  0  0
  -15.6863    5.7291   46.2751 C   0  0  0  0  0  0  0  0  0  0  0  0
  -14.0881    5.8547   48.2517 C   0  0  0  0  0  0  0  0  0  0  0  0
  -15.5139    8.5590   48.6741 C   0  0  0  0  0  0  0  0  0  0  0  0
  -17.0096    8.3844   48.3823 C   0  0  0  0  0  0  0  0  0  0  0  0
  -17.7925    7.3996   49.2645 C   0  0  0  0  0  0  0  0  0  0  0  0
  -18.8003    8.0359   50.0413 O   0  0  0  0  0  0  0  0  0  0  0  0
  -19.4491    8.4510   49.4517 H   0  0  0  0  0  0  0  0  0  0  0  0
  -18.5120    6.3934   48.3707 C   0  0  0  0  0  0  0  0  0  0  0  0
  -19.8623    5.9332   48.9151 C   0  0  0  0  0  0  0  0  0  0  0  0
  -20.7914    5.8418   47.8601 O   0  0  0  0  0  0  0  0  0  0  0  0
  -20.4741    5.2011   47.2045 H   0  0  0  0  0  0  0  0  0  0  0  0
  -19.7112    4.5551   49.5498 C   0  0  0  0  0  0  0  0  0  0  0  0
  -21.0547    4.0247   50.0028 C   0  0  0  0  0  0  0  0  0  0  0  0
  -21.3256    2.8138   49.7916 O   0  0  0  0  0  0  0  0  0  0  0  0
  -21.8403    4.8286   50.5633 O   0  0  0  0  0  0  0  0  0  0  0  0
  -20.6990    2.2605   49.3684 H   0  0  0  0  0  0  0  0  0  0  0  0
  5  1  1  0  0  0
  1  3  1  0  0  0
  1 27  1  0  0  0
  4  2  1  0  0  0
  2  3  2  0  0  0
 21 17  1  0  0  0
 17 15  1  0  0  0
  3  9  1  0  0  0
 25 24  1  0  0  0
 24 26  1  0  0  0
 24  5  1  0  0  0
 27 28  1  0  0  0
 28 29  1  0  0  0
 29 32  1  0  0  0
 32 33  1  0  0  0
 12  6  2  0  0  0
  6 10  1  0  0  0
 19 18  2  0  0  0
 18 21  1  0  0  0
 19 23  1  0  0  0
  9  7  2  0  0  0
  7  8  1  0  0  0
  8 10  2  0  0  0
 22 20  1  0  0  0
 21 20  2  0  0  0
 13 14  2  0  0  0
 15 14  1  0  0  0
 14  4  1  0  0  0
 23 22  2  0  0  0
  4  5  2  0  0  0
  9 12  1  0  0  0
 10 11  1  0  0  0
 30 29  1  0  0  0
 33 36  1  0  0  0
 33 34  1  0  0  0
 36 37  1  0  0  0
 39 37  2  0  0  0
 37 38  1  0  0  0
 15 16  1  0  0  0
 30 31  1  0  0  0
 34 35  1  0  0  0
 38 40  1  0  0  0
M  END
> <minimizedAffinity>
-7.56087

$$$$
3CCW_4HI_B_1


 40 42  0  0  0  0  0  0  0  0999 V2000
  -12.5641    7.6656   45.1239 N   0  0  0  0  0  0  0  0  0  0  0  0
  -14.5188    6.9477   44.3982 N   0  0  0  0  0  0  0  0  0  0  0  0
  -13.3923    7.5825   44.0542 C   0  0  0  0  0  0  0  0  0  0  0  0
  -14.4062    6.6196   45.6837 C   0  0  0  0  0  0  0  0  0  0  0  0
  -13.1711    7.0474   46.1622 C   0  0  0  0  0  0  0  0  0  0  0  0
  -12.3635    7.7657   40.4285 C   0  0  0  0  0  0  0  0  0  0  0  0
  -13.5745    9.3811   42.3618 C   0  0  0  0  0  0  0  0  0  0  0  0
  -13.3745    9.8642   41.0698 C   0  0  0  0  0  0  0  0  0  0  0  0
  -13.1825    8.0820   42.6770 C   0  0  0  0  0  0  0  0  0  0  0  0
  -12.7677    9.0589   40.1032 C   0  0  0  0  0  0  0  0  0  0  0  0
  -12.5799    9.5272   38.8535 F   0  0  0  0  0  0  0  0  0  0  0  0
  -12.5586    7.2808   41.7193 C   0  0  0  0  0  0  0  0  0  0  0  0
  -15.4614    4.6710   46.4715 O   0  0  0  0  0  0  0  0  0  0  0  0
  -15.4095    5.8978   46.5001 C   0  0  0  0  0  0  0  0  0  0  0  0
  -16.3868    6.6358   47.0152 N   0  0  0  0  0  0  0  0  0  0  0  0
  -16.2744    7.6126   46.9649 H   0  0  0  0  0  0  0  0  0  0  0  0
  -17.6034    6.1534   47.6447 C   0  0  0  0  0  0  0  0  0  0  0  0
  -17.2429    8.1743   49.0536 C   0  0  0  0  0  0  0  0  0  0  0  0
  -17.6514    9.1197   49.9903 C   0  0  0  0  0  0  0  0  0  0  0  0
  -19.3739    7.0704   49.2167 C   0  0  0  0  0  0  0  0  0  0  0  0
  -18.0984    7.1579   48.6611 C   0  0  0  0  0  0  0  0  0  0  0  0
  -19.7840    8.0130   50.1567 C   0  0  0  0  0  0  0  0  0  0  0  0
  -18.9256    9.0383   50.5426 C   0  0  0  0  0  0  0  0  0  0  0  0
  -12.6985    6.8952   47.5650 C   0  0  0  0  0  0  0  0  0  0  0  0
  -13.0469    8.1708   48.3319 C   0  0  0  0  0  0  0  0  0  0  0  0
  -11.2238    6.5210   47.6748 C   0  0  0  0  0  0  0  0  0  0  0  0
  -11.2260    8.2760   45.1187 C   0  0  0  0  0  0  0  0  0  0  0  0
  -11.4363    9.7766   44.8803 C   0  0  0  0  0  0  0  0  0  0  0  0
  -11.8918   10.6263   46.0767 C   0  0  0  0  0  0  0  0  0  0  0  0
  -11.0922   11.7878   46.2647 O   0  0  0  0  0  0  0  0  0  0  0  0
  -11.1603   12.3574   45.4825 H   0  0  0  0  0  0  0  0  0  0  0  0
  -13.3133   11.1211   45.8240 C   0  0  0  0  0  0  0  0  0  0  0  0
  -14.0581   11.5431   47.0885 C   0  0  0  0  0  0  0  0  0  0  0  0
  -13.5029   12.7375   47.5880 O   0  0  0  0  0  0  0  0  0  0  0  0
  -13.5835   13.4359   46.9196 H   0  0  0  0  0  0  0  0  0  0  0  0
  -15.5250   11.7917   46.7549 C   0  0  0  0  0  0  0  0  0  0  0  0
  -16.2532   12.3746   47.9471 C   0  0  0  0  0  0  0  0  0  0  0  0
  -17.1277   13.2570   47.7453 O   0  0  0  0  0  0  0  0  0  0  0  0
  -15.9389   11.9506   49.0869 O   0  0  0  0  0  0  0  0  0  0  0  0
  -17.3203   13.5344   46.8713 H   0  0  0  0  0  0  0  0  0  0  0  0
  5  1  1  0  0  0
  1  3  1  0  0  0
  1 27  1  0  0  0
  4  2  1  0  0  0
  2  3  2  0  0  0
 21 17  1  0  0  0
 17 15  1  0  0  0
  3  9  1  0  0  0
 25 24  1  0  0  0
 24 26  1  0  0  0
 24  5  1  0  0  0
 27 28  1  0  0  0
 28 29  1  0  0  0
 29 32  1  0  0  0
 32 33  1  0  0  0
 12  6  2  0  0  0
  6 10  1  0  0  0
 19 18  2  0  0  0
 18 21  1  0  0  0
 19 23  1  0  0  0
  9  7  2  0  0  0
  7  8  1  0  0  0
  8 10  2  0  0  0
 22 20  1  0  0  0
 21 20  2  0  0  0
 13 14  2  0  0  0
 15 14  1  0  0  0
 14  4  1  0  0  0
 23 22  2  0  0  0
  4  5  2  0  0  0
  9 12  1  0  0  0
 10 11  1  0  0  0
 30 29  1  0  0  0
 33 36  1  0  0  0
 33 34  1  0  0  0
 36 37  1  0  0  0
 39 37  2  0  0  0
 37 38  1  0  0  0
 15 16  1  0  0  0
 30 31  1  0  0  0
 34 35  1  0  0  0
 38 40  1  0  0  0
M  END
> <minimizedAffinity>
-7.38873

$$$$
3CCW_4HI_B_1


 40 42  0  0  0  0  0  0  0  0999 V2000
  -13.8547    8.0706   46.5523 N   0  0  0  0  0  0  0  0  0  0  0  0
  -15.3391    8.4392   48.1408 N   0  0  0  0  0  0  0  0  0  0  0  0
  -14.1771    8.8457   47.6163 C   0  0  0  0  0  0  0  0  0  0  0  0
  -15.7610    7.4110   47.4078 C   0  0  0  0  0  0  0  0  0  0  0  0
  -14.8481    7.1683   46.3854 C   0  0  0  0  0  0  0  0  0  0  0  0
  -13.1210   12.3640   48.4787 C   0  0  0  0  0  0  0  0  0  0  0  0
  -12.2964    9.7366   48.9586 C   0  0  0  0  0  0  0  0  0  0  0  0
  -11.5832   10.8050   49.4994 C   0  0  0  0  0  0  0  0  0  0  0  0
  -13.4325    9.9876   48.1923 C   0  0  0  0  0  0  0  0  0  0  0  0
  -11.9929   12.1185   49.2589 C   0  0  0  0  0  0  0  0  0  0  0  0
  -11.3039   13.1494   49.7870 F   0  0  0  0  0  0  0  0  0  0  0  0
  -13.8341   11.2992   47.9339 C   0  0  0  0  0  0  0  0  0  0  0  0
  -16.9650    5.4151   47.7205 O   0  0  0  0  0  0  0  0  0  0  0  0
  -17.0080    6.6376   47.6098 C   0  0  0  0  0  0  0  0  0  0  0  0
  -18.1443    7.2885   47.3858 N   0  0  0  0  0  0  0  0  0  0  0  0
  -18.0786    8.2649   47.2777 H   0  0  0  0  0  0  0  0  0  0  0  0
  -19.4732    6.7115   47.2835 C   0  0  0  0  0  0  0  0  0  0  0  0
  -20.0213    7.4754   49.5890 C   0  0  0  0  0  0  0  0  0  0  0  0
  -20.5214    7.2773   50.8730 C   0  0  0  0  0  0  0  0  0  0  0  0
  -20.5378    5.1959   49.0202 C   0  0  0  0  0  0  0  0  0  0  0  0
  -20.0337    6.4454   48.6627 C   0  0  0  0  0  0  0  0  0  0  0  0
  -21.0357    4.9939   50.3053 C   0  0  0  0  0  0  0  0  0  0  0  0
  -21.0302    6.0330   51.2311 C   0  0  0  0  0  0  0  0  0  0  0  0
  -14.9571    6.0727   45.3844 C   0  0  0  0  0  0  0  0  0  0  0  0
  -13.9580    4.9777   45.7577 C   0  0  0  0  0  0  0  0  0  0  0  0
  -14.8064    6.5466   43.9423 C   0  0  0  0  0  0  0  0  0  0  0  0
  -12.6593    8.2345   45.7112 C   0  0  0  0  0  0  0  0  0  0  0  0
  -12.8967    9.4899   44.8624 C   0  0  0  0  0  0  0  0  0  0  0  0
  -12.3549    9.4850   43.4246 C   0  0  0  0  0  0  0  0  0  0  0  0
  -11.8411    8.2175   43.0330 O   0  0  0  0  0  0  0  0  0  0  0  0
  -12.5520    7.5580   43.0600 H   0  0  0  0  0  0  0  0  0  0  0  0
  -13.4955    9.8012   42.4612 C   0  0  0  0  0  0  0  0  0  0  0  0
  -13.0401   10.4163   41.1399 C   0  0  0  0  0  0  0  0  0  0  0  0
  -11.6348   10.3666   41.0546 O   0  0  0  0  0  0  0  0  0  0  0  0
  -11.3408    9.4432   41.0972 H   0  0  0  0  0  0  0  0  0  0  0  0
  -13.6256    9.6187   39.9798 C   0  0  0  0  0  0  0  0  0  0  0  0
  -12.5981    8.6594   39.4180 C   0  0  0  0  0  0  0  0  0  0  0  0
  -12.2005    8.8283   38.2359 O   0  0  0  0  0  0  0  0  0  0  0  0
  -12.1979    7.7310   40.1635 O   0  0  0  0  0  0  0  0  0  0  0  0
  -12.5350    9.5399   37.7262 H   0  0  0  0  0  0  0  0  0  0  0  0
  5  1  1  0  0  0
  1  3  1  0  0  0
  1 27  1  0  0  0
  4  2  1  0  0  0
  2  3  2  0  0  0
 21 17  1  0  0  0
 17 15  1  0  0  0
  3  9  1  0  0  0
 25 24  1  0  0  0
 24 26  1  0  0  0
 24  5  1  0  0  0
 27 28  1  0  0  0
 28 29  1  0  0  0
 29 32  1  0  0  0
 32 33  1  0  0  0
 12  6  2  0  0  0
  6 10  1  0  0  0
 19 18  2  0  0  0
 18 21  1  0  0  0
 19 23  1  0  0  0
  9  7  2  0  0  0
  7  8  1  0  0  0
  8 10  2  0  0  0
 22 20  1  0  0  0
 21 20  2  0  0  0
 13 14  2  0  0  0
 15 14  1  0  0  0
 14  4  1  0  0  0
 23 22  2  0  0  0
  4  5  2  0  0  0
  9 12  1  0  0  0
 10 11  1  0  0  0
 30 29  1  0  0  0
 33 36  1  0  0  0
 33 34  1  0  0  0
 36 37  1  0  0  0
 39 37  2  0  0  0
 37 38  1  0  0  0
 15 16  1  0  0  0
 30 31  1  0  0  0
 34 35  1  0  0  0
 38 40  1  0  0  0
M  END
> <minimizedAffinity>
-7.36630

$$$$
3CCW_4HI_B_1


 40 42  0  0  0  0  0  0  0  0999 V2000
  -12.3919    8.8202   44.7525 N   0  0  0  0  0  0  0  0  0  0  0  0
  -12.1943   10.9994   45.0256 N   0  0  0  0  0  0  0  0  0  0  0  0
  -12.5207   10.0324   44.1602 C   0  0  0  0  0  0  0  0  0  0  0  0
  -11.8650   10.4051   46.1706 C   0  0  0  0  0  0  0  0  0  0  0  0
  -11.9983    9.0268   46.0296 C   0  0  0  0  0  0  0  0  0  0  0  0
  -12.6110   10.2180   40.3926 C   0  0  0  0  0  0  0  0  0  0  0  0
  -14.0802   11.1374   42.5856 C   0  0  0  0  0  0  0  0  0  0  0  0
  -14.4865   11.4490   41.2893 C   0  0  0  0  0  0  0  0  0  0  0  0
  -12.9473   10.3501   42.7792 C   0  0  0  0  0  0  0  0  0  0  0  0
  -13.7522   10.9920   40.1924 C   0  0  0  0  0  0  0  0  0  0  0  0
  -14.1501   11.2911   38.9400 F   0  0  0  0  0  0  0  0  0  0  0  0
  -12.2001    9.9075   41.6864 C   0  0  0  0  0  0  0  0  0  0  0  0
  -10.2508   11.3250   47.6125 O   0  0  0  0  0  0  0  0  0  0  0  0
  -11.4380   11.0756   47.4205 C   0  0  0  0  0  0  0  0  0  0  0  0
  -12.3387   11.1261   48.3958 N   0  0  0  0  0  0  0  0  0  0  0  0
  -13.2609   10.8779   48.1568 H   0  0  0  0  0  0  0  0  0  0  0  0
  -12.1061   11.5090   49.7773 C   0  0  0  0  0  0  0  0  0  0  0  0
  -12.3564    9.2528   50.8000 C   0  0  0  0  0  0  0  0  0  0  0  0
  -11.8793    8.1573   51.5144 C   0  0  0  0  0  0  0  0  0  0  0  0
  -10.2287   10.3505   51.0341 C   0  0  0  0  0  0  0  0  0  0  0  0
  -11.5371   10.3423   50.5531 C   0  0  0  0  0  0  0  0  0  0  0  0
   -9.7499    9.2571   51.7521 C   0  0  0  0  0  0  0  0  0  0  0  0
  -10.5724    8.1601   51.9910 C   0  0  0  0  0  0  0  0  0  0  0  0
  -11.6829    8.0252   47.0839 C   0  0  0  0  0  0  0  0  0  0  0  0
  -10.6210    7.0701   46.5391 C   0  0  0  0  0  0  0  0  0  0  0  0
  -12.9116    7.3004   47.6241 C   0  0  0  0  0  0  0  0  0  0  0  0
  -12.6857    7.5269   44.1165 C   0  0  0  0  0  0  0  0  0  0  0  0
  -14.1804    7.2651   44.3396 C   0  0  0  0  0  0  0  0  0  0  0  0
  -14.7535    5.9407   43.8117 C   0  0  0  0  0  0  0  0  0  0  0  0
  -13.7427    5.0202   43.4180 O   0  0  0  0  0  0  0  0  0  0  0  0
  -13.1940    4.7947   44.1854 H   0  0  0  0  0  0  0  0  0  0  0  0
  -15.5425    5.2596   44.9265 C   0  0  0  0  0  0  0  0  0  0  0  0
  -16.4371    6.2070   45.7225 C   0  0  0  0  0  0  0  0  0  0  0  0
  -17.7336    6.2081   45.1715 O   0  0  0  0  0  0  0  0  0  0  0  0
  -18.1016    5.3114   45.2090 H   0  0  0  0  0  0  0  0  0  0  0  0
  -16.5242    5.7291   47.1678 C   0  0  0  0  0  0  0  0  0  0  0  0
  -17.6016    6.4840   47.9167 C   0  0  0  0  0  0  0  0  0  0  0  0
  -18.7715    6.0197   47.9175 O   0  0  0  0  0  0  0  0  0  0  0  0
  -17.2722    7.5483   48.4967 O   0  0  0  0  0  0  0  0  0  0  0  0
  -18.9584    5.2199   47.4667 H   0  0  0  0  0  0  0  0  0  0  0  0
  5  1  1  0  0  0
  1  3  1  0  0  0
  1 27  1  0  0  0
  4  2  1  0  0  0
  2  3  2  0  0  0
 21 17  1  0  0  0
 17 15  1  0  0  0
  3  9  1  0  0  0
 25 24  1  0  0  0
 24 26  1  0  0  0
 24  5  1  0  0  0
 27 28  1  0  0  0
 28 29  1  0  0  0
 29 32  1  0  0  0
 32 33  1  0  0  0
 12  6  2  0  0  0
  6 10  1  0  0  0
 19 18  2  0  0  0
 18 21  1  0  0  0
 19 23  1  0  0  0
  9  7  2  0  0  0
  7  8  1  0  0  0
  8 10  2  0  0  0
 22 20  1  0  0  0
 21 20  2  0  0  0
 13 14  2  0  0  0
 15 14  1  0  0  0
 14  4  1  0  0  0
 23 22  2  0  0  0
  4  5  2  0  0  0
  9 12  1  0  0  0
 10 11  1  0  0  0
 30 29  1  0  0  0
 33 36  1  0  0  0
 33 34  1  0  0  0
 36 37  1  0  0  0
 39 37  2  0  0  0
 37 38  1  0  0  0
 15 16  1  0  0  0
 30 31  1  0  0  0
 34 35  1  0  0  0
 38 40  1  0  0  0
M  END
> <minimizedAffinity>
-7.34088

$$$$
3CCW_4HI_B_1


 40 42  0  0  0  0  0  0  0  0999 V2000
  -15.4603    9.4869   47.1697 N   0  0  0  0  0  0  0  0  0  0  0  0
  -16.1980    8.0840   48.7027 N   0  0  0  0  0  0  0  0  0  0  0  0
  -15.6219    8.1822   47.4990 C   0  0  0  0  0  0  0  0  0  0  0  0
  -16.3967    9.3244   49.1438 C   0  0  0  0  0  0  0  0  0  0  0  0
  -15.9229   10.2309   48.1998 C   0  0  0  0  0  0  0  0  0  0  0  0
  -13.6390    5.3031   46.0789 C   0  0  0  0  0  0  0  0  0  0  0  0
  -16.1934    6.4168   45.8592 C   0  0  0  0  0  0  0  0  0  0  0  0
  -15.8555    5.2859   45.1178 C   0  0  0  0  0  0  0  0  0  0  0  0
  -15.2547    6.9767   46.7230 C   0  0  0  0  0  0  0  0  0  0  0  0
  -14.5788    4.7294   45.2250 C   0  0  0  0  0  0  0  0  0  0  0  0
  -14.2565    3.6332   44.5104 F   0  0  0  0  0  0  0  0  0  0  0  0
  -13.9719    6.4350   46.8187 C   0  0  0  0  0  0  0  0  0  0  0  0
  -16.3262   10.2650   51.2982 O   0  0  0  0  0  0  0  0  0  0  0  0
  -17.0058    9.7128   50.4369 C   0  0  0  0  0  0  0  0  0  0  0  0
  -18.1991    9.1927   50.7026 N   0  0  0  0  0  0  0  0  0  0  0  0
  -18.6578    8.7399   49.9584 H   0  0  0  0  0  0  0  0  0  0  0  0
  -18.8982    9.2216   51.9753 C   0  0  0  0  0  0  0  0  0  0  0  0
  -20.9008   10.3944   52.8769 C   0  0  0  0  0  0  0  0  0  0  0  0
  -22.1832   10.9233   52.7598 C   0  0  0  0  0  0  0  0  0  0  0  0
  -20.9668    9.6870   50.5787 C   0  0  0  0  0  0  0  0  0  0  0  0
  -20.2898    9.7850   51.7933 C   0  0  0  0  0  0  0  0  0  0  0  0
  -22.2514   10.2124   50.4597 C   0  0  0  0  0  0  0  0  0  0  0  0
  -22.8594   10.8320   51.5475 C   0  0  0  0  0  0  0  0  0  0  0  0
  -16.0051   11.7118   48.3202 C   0  0  0  0  0  0  0  0  0  0  0  0
  -16.8674   12.2413   47.1744 C   0  0  0  0  0  0  0  0  0  0  0  0
  -14.6432   12.3939   48.4019 C   0  0  0  0  0  0  0  0  0  0  0  0
  -14.8404    9.9814   45.9309 C   0  0  0  0  0  0  0  0  0  0  0  0
  -13.3241    9.9366   46.1585 C   0  0  0  0  0  0  0  0  0  0  0  0
  -12.4281    9.7559   44.9234 C   0  0  0  0  0  0  0  0  0  0  0  0
  -11.7073    8.5295   44.9394 O   0  0  0  0  0  0  0  0  0  0  0  0
  -12.3319    7.7873   44.9357 H   0  0  0  0  0  0  0  0  0  0  0  0
  -13.3032    9.7222   43.6735 C   0  0  0  0  0  0  0  0  0  0  0  0
  -12.9937   10.8293   42.6685 C   0  0  0  0  0  0  0  0  0  0  0  0
  -11.8505   10.4837   41.9213 O   0  0  0  0  0  0  0  0  0  0  0  0
  -12.0138    9.6544   41.4455 H   0  0  0  0  0  0  0  0  0  0  0  0
  -14.1695   10.9893   41.7110 C   0  0  0  0  0  0  0  0  0  0  0  0
  -13.7060   10.8886   40.2734 C   0  0  0  0  0  0  0  0  0  0  0  0
  -13.9943    9.8524   39.6197 O   0  0  0  0  0  0  0  0  0  0  0  0
  -13.0446   11.8483   39.8052 O   0  0  0  0  0  0  0  0  0  0  0  0
  -14.4913    9.1676   40.0223 H   0  0  0  0  0  0  0  0  0  0  0  0
  5  1  1  0  0  0
  1  3  1  0  0  0
  1 27  1  0  0  0
  4  2  1  0  0  0
  2  3  2  0  0  0
 21 17  1  0  0  0
 17 15  1  0  0  0
  3  9  1  0  0  0
 25 24  1  0  0  0
 24 26  1  0  0  0
 24  5  1  0  0  0
 27 28  1  0  0  0
 28 29  1  0  0  0
 29 32  1  0  0  0
 32 33  1  0  0  0
 12  6  2  0  0  0
  6 10  1  0  0  0
 19 18  2  0  0  0
 18 21  1  0  0  0
 19 23  1  0  0  0
  9  7  2  0  0  0
  7  8  1  0  0  0
  8 10  2  0  0  0
 22 20  1  0  0  0
 21 20  2  0  0  0
 13 14  2  0  0  0
 15 14  1  0  0  0
 14  4  1  0  0  0
 23 22  2  0  0  0
  4  5  2  0  0  0
  9 12  1  0  0  0
 10 11  1  0  0  0
 30 29  1  0  0  0
 33 36  1  0  0  0
 33 34  1  0  0  0
 36 37  1  0  0  0
 39 37  2  0  0  0
 37 38  1  0  0  0
 15 16  1  0  0  0
 30 31  1  0  0  0
 34 35  1  0  0  0
 38 40  1  0  0  0
M  END
> <minimizedAffinity>
-7.31101

$$$$
3CCW_4HI_B_1


 40 42  0  0  0  0  0  0  0  0999 V2000
  -14.7974    6.9195   47.1574 N   0  0  0  0  0  0  0  0  0  0  0  0
  -15.8663    6.1793   45.3763 N   0  0  0  0  0  0  0  0  0  0  0  0
  -15.9825    6.4701   46.6773 C   0  0  0  0  0  0  0  0  0  0  0  0
  -14.6109    6.4500   45.0254 C   0  0  0  0  0  0  0  0  0  0  0  0
  -13.9179    6.9362   46.1303 C   0  0  0  0  0  0  0  0  0  0  0  0
  -19.5846    6.8698   47.7274 C   0  0  0  0  0  0  0  0  0  0  0  0
  -17.3282    5.3876   48.4520 C   0  0  0  0  0  0  0  0  0  0  0  0
  -18.5296    5.2159   49.1375 C   0  0  0  0  0  0  0  0  0  0  0  0
  -17.2655    6.2900   47.3925 C   0  0  0  0  0  0  0  0  0  0  0  0
  -19.6574    5.9573   48.7779 C   0  0  0  0  0  0  0  0  0  0  0  0
  -20.8189    5.7857   49.4395 F   0  0  0  0  0  0  0  0  0  0  0  0
  -18.3851    7.0465   47.0424 C   0  0  0  0  0  0  0  0  0  0  0  0
  -13.5813    5.1966   43.3224 O   0  0  0  0  0  0  0  0  0  0  0  0
  -14.0182    6.2882   43.6776 C   0  0  0  0  0  0  0  0  0  0  0  0
  -13.7414    7.4092   43.0205 N   0  0  0  0  0  0  0  0  0  0  0  0
  -14.1074    8.2421   43.3967 H   0  0  0  0  0  0  0  0  0  0  0  0
  -12.9558    7.5354   41.8055 C   0  0  0  0  0  0  0  0  0  0  0  0
  -12.7637    9.1064   39.8835 C   0  0  0  0  0  0  0  0  0  0  0  0
  -12.9182   10.3527   39.2827 C   0  0  0  0  0  0  0  0  0  0  0  0
  -13.6864    9.9637   41.9330 C   0  0  0  0  0  0  0  0  0  0  0  0
  -13.1505    8.9069   41.1986 C   0  0  0  0  0  0  0  0  0  0  0  0
  -13.8389   11.2127   41.3354 C   0  0  0  0  0  0  0  0  0  0  0  0
  -13.4576   11.4080   40.0112 C   0  0  0  0  0  0  0  0  0  0  0  0
  -12.4780    7.3114   46.1390 C   0  0  0  0  0  0  0  0  0  0  0  0
  -11.7520    6.4131   47.1403 C   0  0  0  0  0  0  0  0  0  0  0  0
  -12.2358    8.7964   46.3901 C   0  0  0  0  0  0  0  0  0  0  0  0
  -14.5501    7.3566   48.5398 C   0  0  0  0  0  0  0  0  0  0  0  0
  -15.0930    8.7873   48.6445 C   0  0  0  0  0  0  0  0  0  0  0  0
  -15.8168    9.1765   49.9428 C   0  0  0  0  0  0  0  0  0  0  0  0
  -15.3364   10.3949   50.4983 O   0  0  0  0  0  0  0  0  0  0  0  0
  -15.4903   11.1189   49.8714 H   0  0  0  0  0  0  0  0  0  0  0  0
  -17.2966    9.3970   49.6416 C   0  0  0  0  0  0  0  0  0  0  0  0
  -18.2397    8.7362   50.6443 C   0  0  0  0  0  0  0  0  0  0  0  0
  -17.6063    8.6432   51.8991 O   0  0  0  0  0  0  0  0  0  0  0  0
  -17.3765    9.5321   52.2120 H   0  0  0  0  0  0  0  0  0  0  0  0
  -19.4962    9.5866   50.7964 C   0  0  0  0  0  0  0  0  0  0  0  0
  -20.7150    8.7101   50.9900 C   0  0  0  0  0  0  0  0  0  0  0  0
  -20.7241    7.8959   51.9497 O   0  0  0  0  0  0  0  0  0  0  0  0
  -21.6593    8.8350   50.1712 O   0  0  0  0  0  0  0  0  0  0  0  0
  -19.9895    7.8468   52.5294 H   0  0  0  0  0  0  0  0  0  0  0  0
  5  1  1  0  0  0
  1  3  1  0  0  0
  1 27  1  0  0  0
  4  2  1  0  0  0
  2  3  2  0  0  0
 21 17  1  0  0  0
 17 15  1  0  0  0
  3  9  1  0  0  0
 25 24  1  0  0  0
 24 26  1  0  0  0
 24  5  1  0  0  0
 27 28  1  0  0  0
 28 29  1  0  0  0
 29 32  1  0  0  0
 32 33  1  0  0  0
 12  6  2  0  0  0
  6 10  1  0  0  0
 19 18  2  0  0  0
 18 21  1  0  0  0
 19 23  1  0  0  0
  9  7  2  0  0  0
  7  8  1  0  0  0
  8 10  2  0  0  0
 22 20  1  0  0  0
 21 20  2  0  0  0
 13 14  2  0  0  0
 15 14  1  0  0  0
 14  4  1  0  0  0
 23 22  2  0  0  0
  4  5  2  0  0  0
  9 12  1  0  0  0
 10 11  1  0  0  0
 30 29  1  0  0  0
 33 36  1  0  0  0
 33 34  1  0  0  0
 36 37  1  0  0  0
 39 37  2  0  0  0
 37 38  1  0  0  0
 15 16  1  0  0  0
 30 31  1  0  0  0
 34 35  1  0  0  0
 38 40  1  0  0  0
M  END
> <minimizedAffinity>
-7.30856

$$$$
3CCW_4HI_B_1


 40 42  0  0  0  0  0  0  0  0999 V2000
  -14.6985    7.0071   47.1008 N   0  0  0  0  0  0  0  0  0  0  0  0
  -15.7772    6.2178   45.3469 N   0  0  0  0  0  0  0  0  0  0  0  0
  -15.8829    6.5334   46.6430 C   0  0  0  0  0  0  0  0  0  0  0  0
  -14.5291    6.4970   44.9767 C   0  0  0  0  0  0  0  0  0  0  0  0
  -13.8304    7.0140   46.0639 C   0  0  0  0  0  0  0  0  0  0  0  0
  -18.4541    5.2641   49.0956 C   0  0  0  0  0  0  0  0  0  0  0  0
  -18.2738    7.0829   46.9807 C   0  0  0  0  0  0  0  0  0  0  0  0
  -19.4795    6.9139   47.6591 C   0  0  0  0  0  0  0  0  0  0  0  0
  -17.1557    6.3518   47.3759 C   0  0  0  0  0  0  0  0  0  0  0  0
  -19.5717    6.0040   48.7149 C   0  0  0  0  0  0  0  0  0  0  0  0
  -20.7377    5.8462   49.3720 F   0  0  0  0  0  0  0  0  0  0  0  0
  -17.2486    5.4278   48.4179 C   0  0  0  0  0  0  0  0  0  0  0  0
  -13.5851    5.2025   43.2550 O   0  0  0  0  0  0  0  0  0  0  0  0
  -13.9491    6.3154   43.6259 C   0  0  0  0  0  0  0  0  0  0  0  0
  -13.5996    7.4248   42.9840 N   0  0  0  0  0  0  0  0  0  0  0  0
  -13.9099    8.2747   43.3723 H   0  0  0  0  0  0  0  0  0  0  0  0
  -12.8081    7.5161   41.7697 C   0  0  0  0  0  0  0  0  0  0  0  0
  -13.5985    9.8756   41.8516 C   0  0  0  0  0  0  0  0  0  0  0  0
  -13.8190   11.1280   41.2850 C   0  0  0  0  0  0  0  0  0  0  0  0
  -12.6681    9.0855   39.7788 C   0  0  0  0  0  0  0  0  0  0  0  0
  -13.0204    8.8595   41.1085 C   0  0  0  0  0  0  0  0  0  0  0  0
  -12.8907   10.3366   39.2084 C   0  0  0  0  0  0  0  0  0  0  0  0
  -13.4635   11.3584   39.9600 C   0  0  0  0  0  0  0  0  0  0  0  0
  -12.3953    7.4071   46.0491 C   0  0  0  0  0  0  0  0  0  0  0  0
  -11.6965    6.7245   47.2248 C   0  0  0  0  0  0  0  0  0  0  0  0
  -12.1764    8.9165   46.0241 C   0  0  0  0  0  0  0  0  0  0  0  0
  -14.4417    7.4751   48.4713 C   0  0  0  0  0  0  0  0  0  0  0  0
  -14.7041    8.9863   48.4684 C   0  0  0  0  0  0  0  0  0  0  0  0
  -14.1072    9.8105   49.6197 C   0  0  0  0  0  0  0  0  0  0  0  0
  -13.3103    9.0293   50.5021 O   0  0  0  0  0  0  0  0  0  0  0  0
  -12.5595    8.6558   50.0146 H   0  0  0  0  0  0  0  0  0  0  0  0
  -13.1839   10.8791   49.0411 C   0  0  0  0  0  0  0  0  0  0  0  0
  -11.8431   10.9980   49.7619 C   0  0  0  0  0  0  0  0  0  0  0  0
  -10.8827   10.2007   49.1089 O   0  0  0  0  0  0  0  0  0  0  0  0
  -10.7822   10.5014   48.1921 H   0  0  0  0  0  0  0  0  0  0  0  0
  -11.3747   12.4487   49.7273 C   0  0  0  0  0  0  0  0  0  0  0  0
  -10.2735   12.6793   50.7401 C   0  0  0  0  0  0  0  0  0  0  0  0
   -9.1027   12.3217   50.4476 O   0  0  0  0  0  0  0  0  0  0  0  0
  -10.5885   13.2125   51.8329 O   0  0  0  0  0  0  0  0  0  0  0  0
   -8.9271   11.9284   49.6155 H   0  0  0  0  0  0  0  0  0  0  0  0
  5  1  1  0  0  0
  1  3  1  0  0  0
  1 27  1  0  0  0
  4  2  1  0  0  0
  2  3  2  0  0  0
 21 17  1  0  0  0
 17 15  1  0  0  0
  3  9  1  0  0  0
 25 24  1  0  0  0
 24 26  1  0  0  0
 24  5  1  0  0  0
 27 28  1  0  0  0
 28 29  1  0  0  0
 29 32  1  0  0  0
 32 33  1  0  0  0
 12  6  2  0  0  0
  6 10  1  0  0  0
 19 18  2  0  0  0
 18 21  1  0  0  0
 19 23  1  0  0  0
  9  7  2  0  0  0
  7  8  1  0  0  0
  8 10  2  0  0  0
 22 20  1  0  0  0
 21 20  2  0  0  0
 13 14  2  0  0  0
 15 14  1  0  0  0
 14  4  1  0  0  0
 23 22  2  0  0  0
  4  5  2  0  0  0
  9 12  1  0  0  0
 10 11  1  0  0  0
 30 29  1  0  0  0
 33 36  1  0  0  0
 33 34  1  0  0  0
 36 37  1  0  0  0
 39 37  2  0  0  0
 37 38  1  0  0  0
 15 16  1  0  0  0
 30 31  1  0  0  0
 34 35  1  0  0  0
 38 40  1  0  0  0
M  END
> <minimizedAffinity>
-7.17814

$$$$
