3E5U_3C4_C_504


 14 14  0  0  0  0  0  0  0  0999 V2000
   10.5397  -23.3840   17.7547 C   0  0  0  0  0  0  0  0  0  0  0  0
    9.6961  -22.3545   17.4983 C   0  0  0  0  0  0  0  0  0  0  0  0
    9.1634  -22.0635   16.3506 C   0  0  0  0  0  0  0  0  0  0  0  0
    9.5761  -22.8454   15.1677 C   0  0  0  0  0  0  0  0  0  0  0  0
    9.1801  -22.6679   13.8817 O   0  0  0  0  0  0  0  0  0  0  0  0
   11.0456  -24.9916   14.2010 Cl  0  0  0  0  0  0  0  0  0  0  0  0
   10.4956  -23.9278   15.5027 C   0  0  0  0  0  0  0  0  0  0  0  0
   10.9359  -24.1509   16.7428 C   0  0  0  0  0  0  0  0  0  0  0  0
    8.5897  -21.9733   13.6649 H   0  0  0  0  0  0  0  0  0  0  0  0
   11.0960  -23.6284   19.1586 C   0  0  0  0  0  0  0  0  0  0  0  0
   10.6691  -22.0648   20.9065 O   0  0  0  0  0  0  0  0  0  0  0  0
   10.1993  -23.0710   20.2674 C   0  0  0  0  0  0  0  0  0  0  0  0
    9.0894  -23.6414   20.5891 O   0  0  0  0  0  0  0  0  0  0  0  0
    8.7797  -24.3755   20.0959 H   0  0  0  0  0  0  0  0  0  0  0  0
 11 12  2  0  0  0
 12 13  1  0  0  0
 12 10  1  0  0  0
 10  1  1  0  0  0
  1  2  2  0  0  0
  1  8  1  0  0  0
  2  3  1  0  0  0
  3  4  2  0  0  0
  4  5  1  0  0  0
  4  7  1  0  0  0
  6  7  1  0  0  0
  7  8  2  0  0  0
 13 14  1  0  0  0
  5  9  1  0  0  0
M  END
> <minimizedAffinity>
-7.26682

$$$$
3E5U_3C4_C_504


 14 14  0  0  0  0  0  0  0  0999 V2000
   10.7962  -22.6199   17.1264 C   0  0  0  0  0  0  0  0  0  0  0  0
    9.9735  -23.6430   17.4635 C   0  0  0  0  0  0  0  0  0  0  0  0
    9.7149  -24.0586   18.6660 C   0  0  0  0  0  0  0  0  0  0  0  0
   10.4506  -23.4486   19.7919 C   0  0  0  0  0  0  0  0  0  0  0  0
   10.3652  -23.7742   21.1068 O   0  0  0  0  0  0  0  0  0  0  0  0
   12.2471  -21.4964   20.6052 Cl  0  0  0  0  0  0  0  0  0  0  0  0
   11.3313  -22.3658   19.3665 C   0  0  0  0  0  0  0  0  0  0  0  0
   11.4738  -22.0025   18.0901 C   0  0  0  0  0  0  0  0  0  0  0  0
    9.8001  -24.4693   21.3816 H   0  0  0  0  0  0  0  0  0  0  0  0
   11.0128  -22.2188   15.6662 C   0  0  0  0  0  0  0  0  0  0  0  0
    9.1292  -22.7159   14.2926 O   0  0  0  0  0  0  0  0  0  0  0  0
   10.2798  -23.1284   14.6764 C   0  0  0  0  0  0  0  0  0  0  0  0
   10.7574  -24.2745   14.3314 O   0  0  0  0  0  0  0  0  0  0  0  0
   11.6037  -24.5396   14.6335 H   0  0  0  0  0  0  0  0  0  0  0  0
 11 12  2  0  0  0
 12 13  1  0  0  0
 12 10  1  0  0  0
 10  1  1  0  0  0
  1  2  2  0  0  0
  1  8  1  0  0  0
  2  3  1  0  0  0
  3  4  2  0  0  0
  4  5  1  0  0  0
  4  7  1  0  0  0
  6  7  1  0  0  0
  7  8  2  0  0  0
 13 14  1  0  0  0
  5  9  1  0  0  0
M  END
> <minimizedAffinity>
-6.66628

$$$$
3E5U_3C4_C_504


 14 14  0  0  0  0  0  0  0  0999 V2000
    9.9675  -22.0433   17.3313 C   0  0  0  0  0  0  0  0  0  0  0  0
   11.2227  -21.5333   17.2899 C   0  0  0  0  0  0  0  0  0  0  0  0
   12.0953  -21.5570   18.2510 C   0  0  0  0  0  0  0  0  0  0  0  0
   11.6781  -22.0900   19.5636 C   0  0  0  0  0  0  0  0  0  0  0  0
   12.4162  -22.1543   20.7008 O   0  0  0  0  0  0  0  0  0  0  0  0
    9.6804  -23.3309   21.0365 Cl  0  0  0  0  0  0  0  0  0  0  0  0
   10.3144  -22.6092   19.5513 C   0  0  0  0  0  0  0  0  0  0  0  0
    9.5289  -22.5658   18.4730 C   0  0  0  0  0  0  0  0  0  0  0  0
   13.2920  -21.8214   20.7103 H   0  0  0  0  0  0  0  0  0  0  0  0
    9.0328  -21.9601   16.1232 C   0  0  0  0  0  0  0  0  0  0  0  0
    9.1948  -22.6996   13.8630 O   0  0  0  0  0  0  0  0  0  0  0  0
    9.2855  -23.0603   15.0890 C   0  0  0  0  0  0  0  0  0  0  0  0
    9.4837  -24.2844   15.4399 O   0  0  0  0  0  0  0  0  0  0  0  0
    9.5441  -24.5075   16.3479 H   0  0  0  0  0  0  0  0  0  0  0  0
 11 12  2  0  0  0
 12 13  1  0  0  0
 12 10  1  0  0  0
 10  1  1  0  0  0
  1  2  2  0  0  0
  1  8  1  0  0  0
  2  3  1  0  0  0
  3  4  2  0  0  0
  4  5  1  0  0  0
  4  7  1  0  0  0
  6  7  1  0  0  0
  7  8  2  0  0  0
 13 14  1  0  0  0
  5  9  1  0  0  0
M  END
> <minimizedAffinity>
-6.47957

$$$$
3E5U_3C4_C_504


 14 14  0  0  0  0  0  0  0  0999 V2000
   10.5451  -23.7439   17.7356 C   0  0  0  0  0  0  0  0  0  0  0  0
   10.9773  -24.4199   16.6431 C   0  0  0  0  0  0  0  0  0  0  0  0
   10.6983  -24.1423   15.4059 C   0  0  0  0  0  0  0  0  0  0  0  0
    9.7365  -23.0559   15.1309 C   0  0  0  0  0  0  0  0  0  0  0  0
    9.2760  -22.6477   13.9211 O   0  0  0  0  0  0  0  0  0  0  0  0
    8.1776  -21.0148   16.1814 Cl  0  0  0  0  0  0  0  0  0  0  0  0
    9.2947  -22.3764   16.3443 C   0  0  0  0  0  0  0  0  0  0  0  0
    9.6965  -22.7339   17.5659 C   0  0  0  0  0  0  0  0  0  0  0  0
    9.5587  -23.0829   13.1410 H   0  0  0  0  0  0  0  0  0  0  0  0
   10.9530  -24.1668   19.1479 C   0  0  0  0  0  0  0  0  0  0  0  0
   10.9470  -22.3732   20.7179 O   0  0  0  0  0  0  0  0  0  0  0  0
   10.2650  -23.3488   20.2441 C   0  0  0  0  0  0  0  0  0  0  0  0
    9.1138  -23.6850   20.7157 O   0  0  0  0  0  0  0  0  0  0  0  0
    8.6462  -24.4053   20.3410 H   0  0  0  0  0  0  0  0  0  0  0  0
 11 12  2  0  0  0
 12 13  1  0  0  0
 12 10  1  0  0  0
 10  1  1  0  0  0
  1  2  2  0  0  0
  1  8  1  0  0  0
  2  3  1  0  0  0
  3  4  2  0  0  0
  4  5  1  0  0  0
  4  7  1  0  0  0
  6  7  1  0  0  0
  7  8  2  0  0  0
 13 14  1  0  0  0
  5  9  1  0  0  0
M  END
> <minimizedAffinity>
-6.18225

$$$$
3E5U_3C4_C_504


 14 14  0  0  0  0  0  0  0  0999 V2000
   10.1431  -23.5762   17.2397 C   0  0  0  0  0  0  0  0  0  0  0  0
   10.0005  -24.0436   18.5040 C   0  0  0  0  0  0  0  0  0  0  0  0
   10.5216  -23.5317   19.5773 C   0  0  0  0  0  0  0  0  0  0  0  0
   11.4492  -22.3919   19.4313 C   0  0  0  0  0  0  0  0  0  0  0  0
   12.1331  -21.7529   20.4143 O   0  0  0  0  0  0  0  0  0  0  0  0
   12.6123  -20.5513   17.7110 Cl  0  0  0  0  0  0  0  0  0  0  0  0
   11.5749  -21.9437   18.0484 C   0  0  0  0  0  0  0  0  0  0  0  0
   10.9426  -22.5338   17.0318 C   0  0  0  0  0  0  0  0  0  0  0  0
   12.0534  -22.0395   21.3029 H   0  0  0  0  0  0  0  0  0  0  0  0
    9.4678  -24.2665   16.0534 C   0  0  0  0  0  0  0  0  0  0  0  0
    9.4775  -22.8500   14.1364 O   0  0  0  0  0  0  0  0  0  0  0  0
   10.0502  -23.8473   14.7010 C   0  0  0  0  0  0  0  0  0  0  0  0
   10.9938  -24.5181   14.1349 O   0  0  0  0  0  0  0  0  0  0  0  0
   11.3873  -25.2417   14.5816 H   0  0  0  0  0  0  0  0  0  0  0  0
 11 12  2  0  0  0
 12 13  1  0  0  0
 12 10  1  0  0  0
 10  1  1  0  0  0
  1  2  2  0  0  0
  1  8  1  0  0  0
  2  3  1  0  0  0
  3  4  2  0  0  0
  4  5  1  0  0  0
  4  7  1  0  0  0
  6  7  1  0  0  0
  7  8  2  0  0  0
 13 14  1  0  0  0
  5  9  1  0  0  0
M  END
> <minimizedAffinity>
-5.96324

$$$$
3E5U_3C4_C_504


 14 14  0  0  0  0  0  0  0  0999 V2000
   10.6308  -23.6816   18.0099 C   0  0  0  0  0  0  0  0  0  0  0  0
    9.9717  -24.2612   16.9769 C   0  0  0  0  0  0  0  0  0  0  0  0
    9.9355  -23.8352   15.7510 C   0  0  0  0  0  0  0  0  0  0  0  0
   10.5764  -22.5418   15.4390 C   0  0  0  0  0  0  0  0  0  0  0  0
   10.6049  -21.9021   14.2423 O   0  0  0  0  0  0  0  0  0  0  0  0
   12.1175  -20.4304   16.3702 Cl  0  0  0  0  0  0  0  0  0  0  0  0
   11.2551  -21.9588   16.5917 C   0  0  0  0  0  0  0  0  0  0  0  0
   11.2559  -22.5266   17.7997 C   0  0  0  0  0  0  0  0  0  0  0  0
   10.1696  -22.2751   13.5011 H   0  0  0  0  0  0  0  0  0  0  0  0
   10.6039  -24.2884   19.4138 C   0  0  0  0  0  0  0  0  0  0  0  0
    8.8309  -23.5719   20.8370 O   0  0  0  0  0  0  0  0  0  0  0  0
   10.0359  -23.3371   20.4706 C   0  0  0  0  0  0  0  0  0  0  0  0
   10.7023  -22.3162   20.8881 O   0  0  0  0  0  0  0  0  0  0  0  0
   11.5822  -22.1797   20.5962 H   0  0  0  0  0  0  0  0  0  0  0  0
 11 12  2  0  0  0
 12 13  1  0  0  0
 12 10  1  0  0  0
 10  1  1  0  0  0
  1  2  2  0  0  0
  1  8  1  0  0  0
  2  3  1  0  0  0
  3  4  2  0  0  0
  4  5  1  0  0  0
  4  7  1  0  0  0
  6  7  1  0  0  0
  7  8  2  0  0  0
 13 14  1  0  0  0
  5  9  1  0  0  0
M  END
> <minimizedAffinity>
-5.43195

$$$$
