4GE1_TSS_A_201


 15 16  0  0  0  0  0  0  0  0999 V2000
    5.9562    3.6667   48.6152 C   0  0  0  0  0  0  0  0  0  0  0  0
    5.9595    4.0244   49.9562 C   0  0  0  0  0  0  0  0  0  0  0  0
    5.2442    3.1205   50.6577 N   0  0  0  0  0  0  0  0  0  0  0  0
    4.7476    2.1627   49.7973 C   0  0  0  0  0  0  0  0  0  0  0  0
    5.1762    2.4727   48.5314 C   0  0  0  0  0  0  0  0  0  0  0  0
    3.9340    1.0184   50.0212 C   0  0  0  0  0  0  0  0  0  0  0  0
    3.5797    0.1973   48.9546 C   0  0  0  0  0  0  0  0  0  0  0  0
    4.0173    0.5124   47.6663 C   0  0  0  0  0  0  0  0  0  0  0  0
    4.8119    1.6433   47.4458 C   0  0  0  0  0  0  0  0  0  0  0  0
    5.0993    3.1411   51.6312 H   0  0  0  0  0  0  0  0  0  0  0  0
    6.6428    4.3884   47.4992 C   0  0  0  0  0  0  0  0  0  0  0  0
    6.1002    5.3301   45.2399 N   0  0  0  0  0  0  0  0  0  0  0  0
    5.8213    5.3116   46.6554 C   0  0  0  0  0  0  0  0  0  0  0  0
    5.4781    5.9944   44.7794 H   0  0  0  0  0  0  0  0  0  0  0  0
    5.9504    4.3988   44.8517 H   0  0  0  0  0  0  0  0  0  0  0  0
 12 13  1  0  0  0
 13 11  1  0  0  0
 11  1  1  0  0  0
  1  2  2  0  0  0
  1  5  1  0  0  0
  2  3  1  0  0  0
  3  4  1  0  0  0
  4  5  1  0  0  0
  4  6  2  0  0  0
  5  9  2  0  0  0
  6  7  1  0  0  0
  7  8  2  0  0  0
  8  9  1  0  0  0
 12 14  1  0  0  0
 12 15  1  0  0  0
  3 10  1  0  0  0
M  END
> <minimizedAffinity>
-7.06160

$$$$
4GE1_TSS_A_201


 15 16  0  0  0  0  0  0  0  0999 V2000
    4.9826    1.8711   48.7781 C   0  0  0  0  0  0  0  0  0  0  0  0
    4.7925    1.9306   50.1516 C   0  0  0  0  0  0  0  0  0  0  0  0
    5.1318    3.1596   50.5932 N   0  0  0  0  0  0  0  0  0  0  0  0
    5.5618    3.9256   49.5290 C   0  0  0  0  0  0  0  0  0  0  0  0
    5.4750    3.1567   48.3961 C   0  0  0  0  0  0  0  0  0  0  0  0
    6.0361    5.2639   49.4553 C   0  0  0  0  0  0  0  0  0  0  0  0
    6.4021    5.8056   48.2266 C   0  0  0  0  0  0  0  0  0  0  0  0
    6.3125    5.0231   47.0733 C   0  0  0  0  0  0  0  0  0  0  0  0
    5.8526    3.7033   47.1478 C   0  0  0  0  0  0  0  0  0  0  0  0
    5.0805    3.4625   51.5285 H   0  0  0  0  0  0  0  0  0  0  0  0
    4.7124    0.6970   47.8914 C   0  0  0  0  0  0  0  0  0  0  0  0
    3.3263   -0.2418   46.0252 N   0  0  0  0  0  0  0  0  0  0  0  0
    3.4224    0.6772   47.1333 C   0  0  0  0  0  0  0  0  0  0  0  0
    2.4054   -0.1597   45.5943 H   0  0  0  0  0  0  0  0  0  0  0  0
    3.4604   -1.1953   46.3617 H   0  0  0  0  0  0  0  0  0  0  0  0
 12 13  1  0  0  0
 13 11  1  0  0  0
 11  1  1  0  0  0
  1  2  2  0  0  0
  1  5  1  0  0  0
  2  3  1  0  0  0
  3  4  1  0  0  0
  4  5  1  0  0  0
  4  6  2  0  0  0
  5  9  2  0  0  0
  6  7  1  0  0  0
  7  8  2  0  0  0
  8  9  1  0  0  0
 12 14  1  0  0  0
 12 15  1  0  0  0
  3 10  1  0  0  0
M  END
> <minimizedAffinity>
-6.77094

$$$$
4GE1_TSS_A_201


 15 16  0  0  0  0  0  0  0  0999 V2000
    5.0075    1.5738   47.7837 C   0  0  0  0  0  0  0  0  0  0  0  0
    4.7100    1.3623   46.4447 C   0  0  0  0  0  0  0  0  0  0  0  0
    4.9419    2.4982   45.7544 N   0  0  0  0  0  0  0  0  0  0  0  0
    5.3813    3.4785   46.6205 C   0  0  0  0  0  0  0  0  0  0  0  0
    5.4360    2.9335   47.8784 C   0  0  0  0  0  0  0  0  0  0  0  0
    5.7447    4.8365   46.4086 C   0  0  0  0  0  0  0  0  0  0  0  0
    6.1725    5.6173   47.4785 C   0  0  0  0  0  0  0  0  0  0  0  0
    6.2292    5.0619   48.7587 C   0  0  0  0  0  0  0  0  0  0  0  0
    5.8641    3.7270   48.9676 C   0  0  0  0  0  0  0  0  0  0  0  0
    4.8171    2.6101   44.7842 H   0  0  0  0  0  0  0  0  0  0  0  0
    4.9054    0.5703   48.8883 C   0  0  0  0  0  0  0  0  0  0  0  0
    2.5341   -0.1635   49.2409 N   0  0  0  0  0  0  0  0  0  0  0  0
    3.6682    0.5823   49.7300 C   0  0  0  0  0  0  0  0  0  0  0  0
    1.7602   -0.0765   49.8997 H   0  0  0  0  0  0  0  0  0  0  0  0
    2.7895   -1.1462   49.1442 H   0  0  0  0  0  0  0  0  0  0  0  0
 12 13  1  0  0  0
 13 11  1  0  0  0
 11  1  1  0  0  0
  1  2  2  0  0  0
  1  5  1  0  0  0
  2  3  1  0  0  0
  3  4  1  0  0  0
  4  5  1  0  0  0
  4  6  2  0  0  0
  5  9  2  0  0  0
  6  7  1  0  0  0
  7  8  2  0  0  0
  8  9  1  0  0  0
 12 14  1  0  0  0
 12 15  1  0  0  0
  3 10  1  0  0  0
M  END
> <minimizedAffinity>
-6.75283

$$$$
4GE1_TSS_A_201


 15 16  0  0  0  0  0  0  0  0999 V2000
    5.9750    4.5682   48.7652 C   0  0  0  0  0  0  0  0  0  0  0  0
    5.6895    4.6462   50.1211 C   0  0  0  0  0  0  0  0  0  0  0  0
    5.1670    3.4721   50.5323 N   0  0  0  0  0  0  0  0  0  0  0  0
    5.0861    2.6068   49.4603 C   0  0  0  0  0  0  0  0  0  0  0  0
    5.5829    3.2559   48.3584 C   0  0  0  0  0  0  0  0  0  0  0  0
    4.6050    1.2733   49.3534 C   0  0  0  0  0  0  0  0  0  0  0  0
    4.6495    0.6138   48.1285 C   0  0  0  0  0  0  0  0  0  0  0  0
    5.1564    1.2743   47.0073 C   0  0  0  0  0  0  0  0  0  0  0  0
    5.6229    2.5897   47.1119 C   0  0  0  0  0  0  0  0  0  0  0  0
    4.8873    3.2651   51.4532 H   0  0  0  0  0  0  0  0  0  0  0  0
    6.5797    5.6433   47.9188 C   0  0  0  0  0  0  0  0  0  0  0  0
    5.4053    7.8528   48.0751 N   0  0  0  0  0  0  0  0  0  0  0  0
    5.6587    6.6547   47.3121 C   0  0  0  0  0  0  0  0  0  0  0  0
    4.7673    8.4571   47.5572 H   0  0  0  0  0  0  0  0  0  0  0  0
    6.2839    8.3451   48.2368 H   0  0  0  0  0  0  0  0  0  0  0  0
 12 13  1  0  0  0
 13 11  1  0  0  0
 11  1  1  0  0  0
  1  2  2  0  0  0
  1  5  1  0  0  0
  2  3  1  0  0  0
  3  4  1  0  0  0
  4  5  1  0  0  0
  4  6  2  0  0  0
  5  9  2  0  0  0
  6  7  1  0  0  0
  7  8  2  0  0  0
  8  9  1  0  0  0
 12 14  1  0  0  0
 12 15  1  0  0  0
  3 10  1  0  0  0
M  END
> <minimizedAffinity>
-6.59386

$$$$
4GE1_TSS_A_201


 15 16  0  0  0  0  0  0  0  0999 V2000
    5.7760    3.4678   47.4565 C   0  0  0  0  0  0  0  0  0  0  0  0
    5.4506    3.0671   46.1682 C   0  0  0  0  0  0  0  0  0  0  0  0
    4.7271    1.9297   46.2272 N   0  0  0  0  0  0  0  0  0  0  0  0
    4.5732    1.5532   47.5459 C   0  0  0  0  0  0  0  0  0  0  0  0
    5.2062    2.4876   48.3259 C   0  0  0  0  0  0  0  0  0  0  0  0
    3.9180    0.4420   48.1437 C   0  0  0  0  0  0  0  0  0  0  0  0
    3.9042    0.3052   49.5287 C   0  0  0  0  0  0  0  0  0  0  0  0
    4.5475    1.2572   50.3226 C   0  0  0  0  0  0  0  0  0  0  0  0
    5.1988    2.3467   49.7328 C   0  0  0  0  0  0  0  0  0  0  0  0
    4.3655    1.4442   45.4508 H   0  0  0  0  0  0  0  0  0  0  0  0
    6.5555    4.6854   47.8405 C   0  0  0  0  0  0  0  0  0  0  0  0
    5.4164    6.6682   46.8126 N   0  0  0  0  0  0  0  0  0  0  0  0
    5.8054    5.9686   48.0131 C   0  0  0  0  0  0  0  0  0  0  0  0
    4.9159    7.5209   47.0630 H   0  0  0  0  0  0  0  0  0  0  0  0
    4.8096    6.0699   46.2519 H   0  0  0  0  0  0  0  0  0  0  0  0
 12 13  1  0  0  0
 13 11  1  0  0  0
 11  1  1  0  0  0
  1  2  2  0  0  0
  1  5  1  0  0  0
  2  3  1  0  0  0
  3  4  1  0  0  0
  4  5  1  0  0  0
  4  6  2  0  0  0
  5  9  2  0  0  0
  6  7  1  0  0  0
  7  8  2  0  0  0
  8  9  1  0  0  0
 12 14  1  0  0  0
 12 15  1  0  0  0
  3 10  1  0  0  0
M  END
> <minimizedAffinity>
-6.58806

$$$$
4GE1_TSS_A_201


 15 16  0  0  0  0  0  0  0  0999 V2000
    5.4217    2.8157   46.7512 C   0  0  0  0  0  0  0  0  0  0  0  0
    5.3706    3.5854   45.5974 C   0  0  0  0  0  0  0  0  0  0  0  0
    5.5480    4.8830   45.9221 N   0  0  0  0  0  0  0  0  0  0  0  0
    5.7054    4.9955   47.2884 C   0  0  0  0  0  0  0  0  0  0  0  0
    5.6370    3.7343   47.8241 C   0  0  0  0  0  0  0  0  0  0  0  0
    5.9053    6.1243   48.1293 C   0  0  0  0  0  0  0  0  0  0  0  0
    6.0471    5.9519   49.5031 C   0  0  0  0  0  0  0  0  0  0  0  0
    5.9786    4.6678   50.0481 C   0  0  0  0  0  0  0  0  0  0  0  0
    5.7743    3.5579   49.2203 C   0  0  0  0  0  0  0  0  0  0  0  0
    5.5627    5.6324   45.2838 H   0  0  0  0  0  0  0  0  0  0  0  0
    5.2878    1.3283   46.8365 C   0  0  0  0  0  0  0  0  0  0  0  0
    3.2973   -0.0653   46.2189 N   0  0  0  0  0  0  0  0  0  0  0  0
    3.9489    0.7678   47.2003 C   0  0  0  0  0  0  0  0  0  0  0  0
    2.3994   -0.3824   46.5844 H   0  0  0  0  0  0  0  0  0  0  0  0
    3.8855   -0.8731   46.0143 H   0  0  0  0  0  0  0  0  0  0  0  0
 12 13  1  0  0  0
 13 11  1  0  0  0
 11  1  1  0  0  0
  1  2  2  0  0  0
  1  5  1  0  0  0
  2  3  1  0  0  0
  3  4  1  0  0  0
  4  5  1  0  0  0
  4  6  2  0  0  0
  5  9  2  0  0  0
  6  7  1  0  0  0
  7  8  2  0  0  0
  8  9  1  0  0  0
 12 14  1  0  0  0
 12 15  1  0  0  0
  3 10  1  0  0  0
M  END
> <minimizedAffinity>
-6.55437

$$$$
4GE1_TSS_A_201


 15 16  0  0  0  0  0  0  0  0999 V2000
    6.0009    7.1010   48.5169 C   0  0  0  0  0  0  0  0  0  0  0  0
    6.0045    7.4918   47.1852 C   0  0  0  0  0  0  0  0  0  0  0  0
    5.9030    6.3977   46.4020 N   0  0  0  0  0  0  0  0  0  0  0  0
    5.8440    5.2705   47.1958 C   0  0  0  0  0  0  0  0  0  0  0  0
    5.8972    5.6761   48.5054 C   0  0  0  0  0  0  0  0  0  0  0  0
    5.7483    3.8890   46.8741 C   0  0  0  0  0  0  0  0  0  0  0  0
    5.6938    2.9400   47.8908 C   0  0  0  0  0  0  0  0  0  0  0  0
    5.7467    3.3533   49.2238 C   0  0  0  0  0  0  0  0  0  0  0  0
    5.8485    4.7130   49.5395 C   0  0  0  0  0  0  0  0  0  0  0  0
    5.8753    6.4029   45.4179 H   0  0  0  0  0  0  0  0  0  0  0  0
    6.0793    8.0006   49.7094 C   0  0  0  0  0  0  0  0  0  0  0  0
    7.0932   10.2908   49.5965 N   0  0  0  0  0  0  0  0  0  0  0  0
    7.2818    8.8815   49.8413 C   0  0  0  0  0  0  0  0  0  0  0  0
    7.9808   10.7787   49.7173 H   0  0  0  0  0  0  0  0  0  0  0  0
    6.4088   10.6618   50.2556 H   0  0  0  0  0  0  0  0  0  0  0  0
 12 13  1  0  0  0
 13 11  1  0  0  0
 11  1  1  0  0  0
  1  2  2  0  0  0
  1  5  1  0  0  0
  2  3  1  0  0  0
  3  4  1  0  0  0
  4  5  1  0  0  0
  4  6  2  0  0  0
  5  9  2  0  0  0
  6  7  1  0  0  0
  7  8  2  0  0  0
  8  9  1  0  0  0
 12 14  1  0  0  0
 12 15  1  0  0  0
  3 10  1  0  0  0
M  END
> <minimizedAffinity>
-6.48686

$$$$
4GE1_TSS_A_201


 15 16  0  0  0  0  0  0  0  0999 V2000
    6.1202    5.1066   47.9438 C   0  0  0  0  0  0  0  0  0  0  0  0
    6.1016    4.8310   46.5837 C   0  0  0  0  0  0  0  0  0  0  0  0
    5.6721    3.5662   46.3937 N   0  0  0  0  0  0  0  0  0  0  0  0
    5.4131    2.9822   47.6168 C   0  0  0  0  0  0  0  0  0  0  0  0
    5.6762    3.9124   48.5903 C   0  0  0  0  0  0  0  0  0  0  0  0
    4.9602    1.6812   47.9687 C   0  0  0  0  0  0  0  0  0  0  0  0
    4.7679    1.3499   49.3068 C   0  0  0  0  0  0  0  0  0  0  0  0
    5.0347    2.2974   50.2975 C   0  0  0  0  0  0  0  0  0  0  0  0
    5.4876    3.5754   49.9505 C   0  0  0  0  0  0  0  0  0  0  0  0
    5.5607    3.1283   45.5189 H   0  0  0  0  0  0  0  0  0  0  0  0
    6.5164    6.3984   48.5857 C   0  0  0  0  0  0  0  0  0  0  0  0
    5.3089    8.2638   47.4247 N   0  0  0  0  0  0  0  0  0  0  0  0
    5.5001    7.4958   48.6311 C   0  0  0  0  0  0  0  0  0  0  0  0
    4.5955    8.9752   47.5841 H   0  0  0  0  0  0  0  0  0  0  0  0
    5.0095    7.6448   46.6714 H   0  0  0  0  0  0  0  0  0  0  0  0
 12 13  1  0  0  0
 13 11  1  0  0  0
 11  1  1  0  0  0
  1  2  2  0  0  0
  1  5  1  0  0  0
  2  3  1  0  0  0
  3  4  1  0  0  0
  4  5  1  0  0  0
  4  6  2  0  0  0
  5  9  2  0  0  0
  6  7  1  0  0  0
  7  8  2  0  0  0
  8  9  1  0  0  0
 12 14  1  0  0  0
 12 15  1  0  0  0
  3 10  1  0  0  0
M  END
> <minimizedAffinity>
-6.35381

$$$$
4GE1_TSS_A_201


 15 16  0  0  0  0  0  0  0  0999 V2000
    5.5143    3.0414   48.1225 C   0  0  0  0  0  0  0  0  0  0  0  0
    5.5183    2.8575   49.4981 C   0  0  0  0  0  0  0  0  0  0  0  0
    5.7207    4.0461   50.1036 N   0  0  0  0  0  0  0  0  0  0  0  0
    5.8663    5.0287   49.1457 C   0  0  0  0  0  0  0  0  0  0  0  0
    5.7380    4.4371   47.9146 C   0  0  0  0  0  0  0  0  0  0  0  0
    6.1087    6.4257   49.2506 C   0  0  0  0  0  0  0  0  0  0  0  0
    6.2032    7.2037   48.1004 C   0  0  0  0  0  0  0  0  0  0  0  0
    6.0714    6.6014   46.8472 C   0  0  0  0  0  0  0  0  0  0  0  0
    5.8402    5.2248   46.7447 C   0  0  0  0  0  0  0  0  0  0  0  0
    5.7586    4.1900   51.0768 H   0  0  0  0  0  0  0  0  0  0  0  0
    5.3062    1.9858   47.0832 C   0  0  0  0  0  0  0  0  0  0  0  0
    3.2944    0.6044   46.5086 N   0  0  0  0  0  0  0  0  0  0  0  0
    4.3895    0.8506   47.4152 C   0  0  0  0  0  0  0  0  0  0  0  0
    2.7478   -0.1890   46.8432 H   0  0  0  0  0  0  0  0  0  0  0  0
    3.6619    0.3967   45.5800 H   0  0  0  0  0  0  0  0  0  0  0  0
 12 13  1  0  0  0
 13 11  1  0  0  0
 11  1  1  0  0  0
  1  2  2  0  0  0
  1  5  1  0  0  0
  2  3  1  0  0  0
  3  4  1  0  0  0
  4  5  1  0  0  0
  4  6  2  0  0  0
  5  9  2  0  0  0
  6  7  1  0  0  0
  7  8  2  0  0  0
  8  9  1  0  0  0
 12 14  1  0  0  0
 12 15  1  0  0  0
  3 10  1  0  0  0
M  END
> <minimizedAffinity>
-6.32290

$$$$
4GE1_TSS_A_201


 15 16  0  0  0  0  0  0  0  0999 V2000
    5.7747    3.8190   48.7234 C   0  0  0  0  0  0  0  0  0  0  0  0
    6.0316    3.2459   47.4858 C   0  0  0  0  0  0  0  0  0  0  0  0
    6.2351    4.2235   46.5784 N   0  0  0  0  0  0  0  0  0  0  0  0
    6.1044    5.4523   47.1924 C   0  0  0  0  0  0  0  0  0  0  0  0
    5.8254    5.2319   48.5175 C   0  0  0  0  0  0  0  0  0  0  0  0
    6.2062    6.7783   46.6898 C   0  0  0  0  0  0  0  0  0  0  0  0
    6.0365    7.8620   47.5465 C   0  0  0  0  0  0  0  0  0  0  0  0
    5.7538    7.6373   48.8956 C   0  0  0  0  0  0  0  0  0  0  0  0
    5.6463    6.3317   49.3881 C   0  0  0  0  0  0  0  0  0  0  0  0
    6.4442    4.0821   45.6268 H   0  0  0  0  0  0  0  0  0  0  0  0
    5.5109    3.0924   50.0041 C   0  0  0  0  0  0  0  0  0  0  0  0
    4.3314    1.1110   50.9882 N   0  0  0  0  0  0  0  0  0  0  0  0
    4.2900    2.2304   50.0789 C   0  0  0  0  0  0  0  0  0  0  0  0
    3.4459    0.6063   50.9467 H   0  0  0  0  0  0  0  0  0  0  0  0
    4.4855    1.4498   51.9378 H   0  0  0  0  0  0  0  0  0  0  0  0
 12 13  1  0  0  0
 13 11  1  0  0  0
 11  1  1  0  0  0
  1  2  2  0  0  0
  1  5  1  0  0  0
  2  3  1  0  0  0
  3  4  1  0  0  0
  4  5  1  0  0  0
  4  6  2  0  0  0
  5  9  2  0  0  0
  6  7  1  0  0  0
  7  8  2  0  0  0
  8  9  1  0  0  0
 12 14  1  0  0  0
 12 15  1  0  0  0
  3 10  1  0  0  0
M  END
> <minimizedAffinity>
-6.26171

$$$$
