4U1B_Q08_A_404


 17 16  0  0  0  0  0  0  0  0999 V2000
   22.7954   -4.2343    9.7212 C   0  0  0  0  0  0  0  0  0  0  0  0
   23.9426   -3.4278    9.0202 N   0  0  0  0  0  0  0  0  0  0  0  0
   24.5956   -3.0837    9.7242 H   0  0  0  0  0  0  0  0  0  0  0  0
   23.5424   -2.6385    8.5130 H   0  0  0  0  0  0  0  0  0  0  0  0
   22.9154   -2.4125   11.8350 O   0  0  0  0  0  0  0  0  0  0  0  0
   22.0027   -3.1618   10.9887 P   0  0  0  0  0  0  0  0  0  0  0  0
   20.7159   -3.8410   11.6560 O   0  0  0  0  0  0  0  0  0  0  0  0
   21.4833   -1.9711   10.0988 O   0  0  0  0  0  0  0  0  0  0  0  0
   23.6419   -2.0619   11.2963 H   0  0  0  0  0  0  0  0  0  0  0  0
   20.2041   -4.3033   10.9740 H   0  0  0  0  0  0  0  0  0  0  0  0
   22.9040   -5.6922   10.3102 C   0  0  0  0  0  0  0  0  0  0  0  0
   24.0973   -6.5458    9.7905 C   0  0  0  0  0  0  0  0  0  0  0  0
   23.7379   -7.9974    9.6222 C   0  0  0  0  0  0  0  0  0  0  0  0
   24.2913   -8.9489   10.6529 C   0  0  0  0  0  0  0  0  0  0  0  0
   22.7190   -5.9280   11.8566 C   0  0  0  0  0  0  0  0  0  0  0  0
   21.7308   -7.0093   12.4153 C   0  0  0  0  0  0  0  0  0  0  0  0
   20.9811   -6.7778   13.7646 C   0  0  0  0  0  0  0  0  0  0  0  0
  2  1  1  0  0  0
 14 13  1  0  0  0
  1 11  1  0  0  0
  1  6  1  0  0  0
 12 11  1  0  0  0
 12 13  1  0  0  0
  8  6  2  0  0  0
 11 15  1  0  0  0
  7  6  1  0  0  0
  6  5  1  0  0  0
 15 16  1  0  0  0
 16 17  1  0  0  0
  5  9  1  0  0  0
  7 10  1  0  0  0
  2  3  1  0  0  0
  2  4  1  0  0  0
M  END
> <minimizedAffinity>
-7.51101

$$$$
4U1B_Q08_A_404


 17 16  0  0  0  0  0  0  0  0999 V2000
   21.8914   -4.7951   11.4957 C   0  0  0  0  0  0  0  0  0  0  0  0
   20.8101   -5.0357   12.6052 N   0  0  0  0  0  0  0  0  0  0  0  0
   19.8793   -4.9501   12.1971 H   0  0  0  0  0  0  0  0  0  0  0  0
   20.9221   -4.3426   13.3451 H   0  0  0  0  0  0  0  0  0  0  0  0
   20.5762   -3.1420    9.6684 O   0  0  0  0  0  0  0  0  0  0  0  0
   21.5863   -3.1585   10.7125 P   0  0  0  0  0  0  0  0  0  0  0  0
   22.9303   -2.3162   10.4969 O   0  0  0  0  0  0  0  0  0  0  0  0
   20.7641   -2.4294   11.8402 O   0  0  0  0  0  0  0  0  0  0  0  0
   19.8244   -3.6929    9.9371 H   0  0  0  0  0  0  0  0  0  0  0  0
   23.5058   -2.4219   11.2706 H   0  0  0  0  0  0  0  0  0  0  0  0
   22.3110   -5.8099   10.3650 C   0  0  0  0  0  0  0  0  0  0  0  0
   23.7313   -5.6040    9.7627 C   0  0  0  0  0  0  0  0  0  0  0  0
   23.6912   -5.0078    8.3815 C   0  0  0  0  0  0  0  0  0  0  0  0
   24.9416   -4.3031    7.9189 C   0  0  0  0  0  0  0  0  0  0  0  0
   22.0337   -7.3491   10.5517 C   0  0  0  0  0  0  0  0  0  0  0  0
   22.9703   -8.4396    9.9259 C   0  0  0  0  0  0  0  0  0  0  0  0
   24.1912   -8.9913   10.7265 C   0  0  0  0  0  0  0  0  0  0  0  0
  2  1  1  0  0  0
 14 13  1  0  0  0
  1 11  1  0  0  0
  1  6  1  0  0  0
 12 11  1  0  0  0
 12 13  1  0  0  0
  8  6  2  0  0  0
 11 15  1  0  0  0
  7  6  1  0  0  0
  6  5  1  0  0  0
 15 16  1  0  0  0
 16 17  1  0  0  0
  5  9  1  0  0  0
  7 10  1  0  0  0
  2  3  1  0  0  0
  2  4  1  0  0  0
M  END
> <minimizedAffinity>
-7.19339

$$$$
4U1B_Q08_A_404


 17 16  0  0  0  0  0  0  0  0999 V2000
   22.3917   -4.6965   11.2130 C   0  0  0  0  0  0  0  0  0  0  0  0
   21.0740   -3.8882   11.4739 N   0  0  0  0  0  0  0  0  0  0  0  0
   20.4067   -4.0749   10.7254 H   0  0  0  0  0  0  0  0  0  0  0  0
   21.2862   -2.8908   11.4993 H   0  0  0  0  0  0  0  0  0  0  0  0
   23.8783   -3.0891    9.4787 O   0  0  0  0  0  0  0  0  0  0  0  0
   23.0317   -4.2681    9.5422 P   0  0  0  0  0  0  0  0  0  0  0  0
   21.9486   -4.5014    8.3868 O   0  0  0  0  0  0  0  0  0  0  0  0
   24.1472   -5.3632    9.3530 O   0  0  0  0  0  0  0  0  0  0  0  0
   24.4801   -3.0818   10.2394 H   0  0  0  0  0  0  0  0  0  0  0  0
   21.4615   -5.3219    8.5611 H   0  0  0  0  0  0  0  0  0  0  0  0
   22.5982   -6.2431   11.4362 C   0  0  0  0  0  0  0  0  0  0  0  0
   22.3585   -6.7565   12.8858 C   0  0  0  0  0  0  0  0  0  0  0  0
   20.8964   -6.8981   13.2131 C   0  0  0  0  0  0  0  0  0  0  0  0
   20.4974   -6.6086   14.6382 C   0  0  0  0  0  0  0  0  0  0  0  0
   21.9965   -7.2704   10.4049 C   0  0  0  0  0  0  0  0  0  0  0  0
   22.7836   -8.5506    9.9585 C   0  0  0  0  0  0  0  0  0  0  0  0
   24.1955   -8.8599   10.5476 C   0  0  0  0  0  0  0  0  0  0  0  0
  2  1  1  0  0  0
 14 13  1  0  0  0
  1 11  1  0  0  0
  1  6  1  0  0  0
 12 11  1  0  0  0
 12 13  1  0  0  0
  8  6  2  0  0  0
 11 15  1  0  0  0
  7  6  1  0  0  0
  6  5  1  0  0  0
 15 16  1  0  0  0
 16 17  1  0  0  0
  5  9  1  0  0  0
  7 10  1  0  0  0
  2  3  1  0  0  0
  2  4  1  0  0  0
M  END
> <minimizedAffinity>
-6.96021

$$$$
4U1B_Q08_A_404


 17 16  0  0  0  0  0  0  0  0999 V2000
   21.6374   -4.4902   11.8365 C   0  0  0  0  0  0  0  0  0  0  0  0
   20.4561   -4.9573   12.7553 N   0  0  0  0  0  0  0  0  0  0  0  0
   19.6049   -5.0396   12.1993 H   0  0  0  0  0  0  0  0  0  0  0  0
   20.3121   -4.2732   13.4981 H   0  0  0  0  0  0  0  0  0  0  0  0
   20.0705   -3.0304   10.0434 O   0  0  0  0  0  0  0  0  0  0  0  0
   21.1578   -2.9228   11.0011 P   0  0  0  0  0  0  0  0  0  0  0  0
   22.4182   -2.0065   10.6351 O   0  0  0  0  0  0  0  0  0  0  0  0
   20.3769   -2.1890   12.1549 O   0  0  0  0  0  0  0  0  0  0  0  0
   19.3826   -3.6143   10.3994 H   0  0  0  0  0  0  0  0  0  0  0  0
   23.0584   -2.0313   11.3635 H   0  0  0  0  0  0  0  0  0  0  0  0
   22.4208   -5.3803   10.7979 C   0  0  0  0  0  0  0  0  0  0  0  0
   21.9862   -6.8728   10.7209 C   0  0  0  0  0  0  0  0  0  0  0  0
   23.0986   -7.8171   11.0894 C   0  0  0  0  0  0  0  0  0  0  0  0
   23.9157   -8.3683    9.9481 C   0  0  0  0  0  0  0  0  0  0  0  0
   22.6937   -4.8332    9.3463 C   0  0  0  0  0  0  0  0  0  0  0  0
   24.1269   -4.3984    8.8828 C   0  0  0  0  0  0  0  0  0  0  0  0
   24.6689   -4.8183    7.4806 C   0  0  0  0  0  0  0  0  0  0  0  0
  2  1  1  0  0  0
 14 13  1  0  0  0
  1 11  1  0  0  0
  1  6  1  0  0  0
 12 11  1  0  0  0
 12 13  1  0  0  0
  8  6  2  0  0  0
 11 15  1  0  0  0
  7  6  1  0  0  0
  6  5  1  0  0  0
 15 16  1  0  0  0
 16 17  1  0  0  0
  5  9  1  0  0  0
  7 10  1  0  0  0
  2  3  1  0  0  0
  2  4  1  0  0  0
M  END
> <minimizedAffinity>
-6.88901

$$$$
4U1B_Q08_A_404


 17 16  0  0  0  0  0  0  0  0999 V2000
   21.6503   -4.4196   11.7302 C   0  0  0  0  0  0  0  0  0  0  0  0
   20.3990   -3.8420   12.4777 N   0  0  0  0  0  0  0  0  0  0  0  0
   19.5837   -3.8950   11.8671 H   0  0  0  0  0  0  0  0  0  0  0  0
   20.5726   -2.8689   12.7295 H   0  0  0  0  0  0  0  0  0  0  0  0
   21.3591   -2.1517   10.1260 O   0  0  0  0  0  0  0  0  0  0  0  0
   21.8670   -3.5127   10.1441 P   0  0  0  0  0  0  0  0  0  0  0  0
   21.6259   -4.4416    8.8630 O   0  0  0  0  0  0  0  0  0  0  0  0
   23.4062   -3.1838   10.1890 O   0  0  0  0  0  0  0  0  0  0  0  0
   21.5785   -1.7135   10.9631 H   0  0  0  0  0  0  0  0  0  0  0  0
   22.0175   -5.3153    9.0188 H   0  0  0  0  0  0  0  0  0  0  0  0
   21.9627   -5.9427   11.4715 C   0  0  0  0  0  0  0  0  0  0  0  0
   23.4677   -6.3095   11.3205 C   0  0  0  0  0  0  0  0  0  0  0  0
   23.7191   -7.2536   10.1758 C   0  0  0  0  0  0  0  0  0  0  0  0
   24.0953   -8.6671   10.5428 C   0  0  0  0  0  0  0  0  0  0  0  0
   21.2318   -7.0478   12.3233 C   0  0  0  0  0  0  0  0  0  0  0  0
   21.1557   -6.9701   13.8873 C   0  0  0  0  0  0  0  0  0  0  0  0
   20.2458   -7.9538   14.6875 C   0  0  0  0  0  0  0  0  0  0  0  0
  2  1  1  0  0  0
 14 13  1  0  0  0
  1 11  1  0  0  0
  1  6  1  0  0  0
 12 11  1  0  0  0
 12 13  1  0  0  0
  8  6  2  0  0  0
 11 15  1  0  0  0
  7  6  1  0  0  0
  6  5  1  0  0  0
 15 16  1  0  0  0
 16 17  1  0  0  0
  5  9  1  0  0  0
  7 10  1  0  0  0
  2  3  1  0  0  0
  2  4  1  0  0  0
M  END
> <minimizedAffinity>
-6.83015

$$$$
4U1B_Q08_A_404


 17 16  0  0  0  0  0  0  0  0999 V2000
   21.8732   -4.3730   11.7469 C   0  0  0  0  0  0  0  0  0  0  0  0
   20.4615   -3.9585   12.2884 N   0  0  0  0  0  0  0  0  0  0  0  0
   19.7562   -4.1425   11.5748 H   0  0  0  0  0  0  0  0  0  0  0  0
   20.4632   -2.9643   12.5162 H   0  0  0  0  0  0  0  0  0  0  0  0
   21.4480   -3.9773    9.0149 O   0  0  0  0  0  0  0  0  0  0  0  0
   22.1876   -3.4872   10.1653 P   0  0  0  0  0  0  0  0  0  0  0  0
   23.7254   -3.0845    9.9774 O   0  0  0  0  0  0  0  0  0  0  0  0
   21.3889   -2.1507   10.4005 O   0  0  0  0  0  0  0  0  0  0  0  0
   20.5367   -4.1796    9.2786 H   0  0  0  0  0  0  0  0  0  0  0  0
   24.0850   -2.7775   10.8244 H   0  0  0  0  0  0  0  0  0  0  0  0
   22.4239   -5.8429   11.6042 C   0  0  0  0  0  0  0  0  0  0  0  0
   21.4485   -6.9767   12.0351 C   0  0  0  0  0  0  0  0  0  0  0  0
   21.3769   -7.1388   13.5296 C   0  0  0  0  0  0  0  0  0  0  0  0
   19.9970   -7.2629   14.1250 C   0  0  0  0  0  0  0  0  0  0  0  0
   23.1855   -6.2701   10.2933 C   0  0  0  0  0  0  0  0  0  0  0  0
   24.3763   -7.2894   10.3242 C   0  0  0  0  0  0  0  0  0  0  0  0
   24.1105   -8.8146   10.5224 C   0  0  0  0  0  0  0  0  0  0  0  0
  2  1  1  0  0  0
 14 13  1  0  0  0
  1 11  1  0  0  0
  1  6  1  0  0  0
 12 11  1  0  0  0
 12 13  1  0  0  0
  8  6  2  0  0  0
 11 15  1  0  0  0
  7  6  1  0  0  0
  6  5  1  0  0  0
 15 16  1  0  0  0
 16 17  1  0  0  0
  5  9  1  0  0  0
  7 10  1  0  0  0
  2  3  1  0  0  0
  2  4  1  0  0  0
M  END
> <minimizedAffinity>
-6.76366

$$$$
4U1B_Q08_A_404


 17 16  0  0  0  0  0  0  0  0999 V2000
   20.7399   -4.3190   11.8112 C   0  0  0  0  0  0  0  0  0  0  0  0
   21.6155   -5.6090   11.9758 N   0  0  0  0  0  0  0  0  0  0  0  0
   22.4788   -5.3738   12.4656 H   0  0  0  0  0  0  0  0  0  0  0  0
   21.8392   -5.9878   11.0555 H   0  0  0  0  0  0  0  0  0  0  0  0
   22.6385   -2.2704   11.8040 O   0  0  0  0  0  0  0  0  0  0  0  0
   21.7352   -3.0293   10.9562 P   0  0  0  0  0  0  0  0  0  0  0  0
   20.9049   -2.2545    9.8281 O   0  0  0  0  0  0  0  0  0  0  0  0
   22.8052   -3.9132   10.2124 O   0  0  0  0  0  0  0  0  0  0  0  0
   23.0687   -2.8684   12.4351 H   0  0  0  0  0  0  0  0  0  0  0  0
   20.3488   -2.8857    9.3451 H   0  0  0  0  0  0  0  0  0  0  0  0
   19.8906   -3.6168   12.9381 C   0  0  0  0  0  0  0  0  0  0  0  0
   19.0629   -2.3773   12.4896 C   0  0  0  0  0  0  0  0  0  0  0  0
   17.6324   -2.7225   12.1741 C   0  0  0  0  0  0  0  0  0  0  0  0
   17.1656   -2.4276   10.7708 C   0  0  0  0  0  0  0  0  0  0  0  0
   19.0386   -4.4892   13.9351 C   0  0  0  0  0  0  0  0  0  0  0  0
   19.6142   -4.9704   15.3117 C   0  0  0  0  0  0  0  0  0  0  0  0
   20.4708   -6.2720   15.4024 C   0  0  0  0  0  0  0  0  0  0  0  0
  2  1  1  0  0  0
 14 13  1  0  0  0
  1 11  1  0  0  0
  1  6  1  0  0  0
 12 11  1  0  0  0
 12 13  1  0  0  0
  8  6  2  0  0  0
 11 15  1  0  0  0
  7  6  1  0  0  0
  6  5  1  0  0  0
 15 16  1  0  0  0
 16 17  1  0  0  0
  5  9  1  0  0  0
  7 10  1  0  0  0
  2  3  1  0  0  0
  2  4  1  0  0  0
M  END
> <minimizedAffinity>
-5.63356

$$$$
4U1B_Q08_A_404


 17 16  0  0  0  0  0  0  0  0999 V2000
   20.5662   -5.4701   12.6645 C   0  0  0  0  0  0  0  0  0  0  0  0
   20.1083   -3.9805   12.8362 N   0  0  0  0  0  0  0  0  0  0  0  0
   20.5910   -3.5662   13.6335 H   0  0  0  0  0  0  0  0  0  0  0  0
   19.1012   -3.9506   12.9954 H   0  0  0  0  0  0  0  0  0  0  0  0
   21.2969   -6.2033   15.2588 O   0  0  0  0  0  0  0  0  0  0  0  0
   20.2718   -6.3689   14.2427 P   0  0  0  0  0  0  0  0  0  0  0  0
   19.6380   -7.8215   14.0179 O   0  0  0  0  0  0  0  0  0  0  0  0
   19.1519   -5.4763   14.8975 O   0  0  0  0  0  0  0  0  0  0  0  0
   21.5840   -5.2770   15.2805 H   0  0  0  0  0  0  0  0  0  0  0  0
   18.9726   -7.7785   13.3134 H   0  0  0  0  0  0  0  0  0  0  0  0
   21.9398   -5.9620   12.0683 C   0  0  0  0  0  0  0  0  0  0  0  0
   21.9048   -7.3283   11.3235 C   0  0  0  0  0  0  0  0  0  0  0  0
   23.2687   -7.9518   11.1980 C   0  0  0  0  0  0  0  0  0  0  0  0
   23.6233   -8.5222    9.8478 C   0  0  0  0  0  0  0  0  0  0  0  0
   22.8576   -4.9533   11.2802 C   0  0  0  0  0  0  0  0  0  0  0  0
   22.6461   -4.6625    9.7542 C   0  0  0  0  0  0  0  0  0  0  0  0
   23.8619   -4.6331    8.7759 C   0  0  0  0  0  0  0  0  0  0  0  0
  2  1  1  0  0  0
 14 13  1  0  0  0
  1 11  1  0  0  0
  1  6  1  0  0  0
 12 11  1  0  0  0
 12 13  1  0  0  0
  8  6  2  0  0  0
 11 15  1  0  0  0
  7  6  1  0  0  0
  6  5  1  0  0  0
 15 16  1  0  0  0
 16 17  1  0  0  0
  5  9  1  0  0  0
  7 10  1  0  0  0
  2  3  1  0  0  0
  2  4  1  0  0  0
M  END
> <minimizedAffinity>
-5.56802

$$$$
4U1B_Q08_A_404


 17 16  0  0  0  0  0  0  0  0999 V2000
   18.5797   -2.9154   13.8323 C   0  0  0  0  0  0  0  0  0  0  0  0
   17.1792   -2.3427   13.4217 N   0  0  0  0  0  0  0  0  0  0  0  0
   16.7538   -2.9526   12.7235 H   0  0  0  0  0  0  0  0  0  0  0  0
   17.2955   -1.4078   13.0308 H   0  0  0  0  0  0  0  0  0  0  0  0
   18.9416   -2.8099   11.0647 O   0  0  0  0  0  0  0  0  0  0  0  0
   19.6063   -3.1187   12.3191 P   0  0  0  0  0  0  0  0  0  0  0  0
   20.5627   -4.4005   12.3886 O   0  0  0  0  0  0  0  0  0  0  0  0
   20.5337   -1.8492   12.4072 O   0  0  0  0  0  0  0  0  0  0  0  0
   18.4000   -2.0126   11.1735 H   0  0  0  0  0  0  0  0  0  0  0  0
   20.9334   -4.4793   13.2815 H   0  0  0  0  0  0  0  0  0  0  0  0
   18.8435   -4.1513   14.7742 C   0  0  0  0  0  0  0  0  0  0  0  0
   19.1410   -3.8160   16.2647 C   0  0  0  0  0  0  0  0  0  0  0  0
   18.9081   -2.3644   16.5868 C   0  0  0  0  0  0  0  0  0  0  0  0
   17.6310   -2.0367   17.3188 C   0  0  0  0  0  0  0  0  0  0  0  0
   17.9034   -5.4125   14.6933 C   0  0  0  0  0  0  0  0  0  0  0  0
   16.9217   -5.7877   15.8566 C   0  0  0  0  0  0  0  0  0  0  0  0
   15.6435   -4.9324   16.1234 C   0  0  0  0  0  0  0  0  0  0  0  0
  2  1  1  0  0  0
 14 13  1  0  0  0
  1 11  1  0  0  0
  1  6  1  0  0  0
 12 11  1  0  0  0
 12 13  1  0  0  0
  8  6  2  0  0  0
 11 15  1  0  0  0
  7  6  1  0  0  0
  6  5  1  0  0  0
 15 16  1  0  0  0
 16 17  1  0  0  0
  5  9  1  0  0  0
  7 10  1  0  0  0
  2  3  1  0  0  0
  2  4  1  0  0  0
M  END
> <minimizedAffinity>
-5.29433

$$$$
4U1B_Q08_A_404


 17 16  0  0  0  0  0  0  0  0999 V2000
   18.8822   -2.8119   12.4792 C   0  0  0  0  0  0  0  0  0  0  0  0
   17.5821   -2.8915   11.6065 N   0  0  0  0  0  0  0  0  0  0  0  0
   17.5368   -3.8006   11.1461 H   0  0  0  0  0  0  0  0  0  0  0  0
   17.5998   -2.1541   10.9020 H   0  0  0  0  0  0  0  0  0  0  0  0
   20.1516   -2.9046    9.9929 O   0  0  0  0  0  0  0  0  0  0  0  0
   20.3385   -3.1615   11.4106 P   0  0  0  0  0  0  0  0  0  0  0  0
   21.1303   -4.4793   11.8565 O   0  0  0  0  0  0  0  0  0  0  0  0
   21.2652   -1.9337   11.7472 O   0  0  0  0  0  0  0  0  0  0  0  0
   19.6586   -2.0774    9.8765 H   0  0  0  0  0  0  0  0  0  0  0  0
   21.1762   -4.5169   12.8246 H   0  0  0  0  0  0  0  0  0  0  0  0
   19.1161   -3.5114   13.8721 C   0  0  0  0  0  0  0  0  0  0  0  0
   18.8058   -2.6439   15.1266 C   0  0  0  0  0  0  0  0  0  0  0  0
   17.6928   -3.2161   15.9625 C   0  0  0  0  0  0  0  0  0  0  0  0
   17.1380   -2.3220   17.0427 C   0  0  0  0  0  0  0  0  0  0  0  0
   18.6029   -4.9822   14.1060 C   0  0  0  0  0  0  0  0  0  0  0  0
   19.5652   -6.1291   14.5713 C   0  0  0  0  0  0  0  0  0  0  0  0
   20.3334   -6.0200   15.9256 C   0  0  0  0  0  0  0  0  0  0  0  0
  2  1  1  0  0  0
 14 13  1  0  0  0
  1 11  1  0  0  0
  1  6  1  0  0  0
 12 11  1  0  0  0
 12 13  1  0  0  0
  8  6  2  0  0  0
 11 15  1  0  0  0
  7  6  1  0  0  0
  6  5  1  0  0  0
 15 16  1  0  0  0
 16 17  1  0  0  0
  5  9  1  0  0  0
  7 10  1  0  0  0
  2  3  1  0  0  0
  2  4  1  0  0  0
M  END
> <minimizedAffinity>
-5.18225

$$$$
