3BXH_F6P_A_401


 22 22  0  0  0  0  0  0  0  0999 V2000
   68.2799   84.6613   62.0210 C   0  0  0  0  0  0  0  0  0  0  0  0
   67.3358   83.8012   62.7112 O   0  0  0  0  0  0  0  0  0  0  0  0
   69.0520   85.4201   63.1010 C   0  0  0  0  0  0  0  0  0  0  0  0
   68.2646   85.8845   64.1659 O   0  0  0  0  0  0  0  0  0  0  0  0
   70.0090   84.3411   63.5642 C   0  0  0  0  0  0  0  0  0  0  0  0
   71.1118   84.8756   64.2359 O   0  0  0  0  0  0  0  0  0  0  0  0
   70.4374   83.8161   62.2069 C   0  0  0  0  0  0  0  0  0  0  0  0
   69.2825   83.8789   61.3852 O   0  0  0  0  0  0  0  0  0  0  0  0
   66.6571   84.3450   63.1407 H   0  0  0  0  0  0  0  0  0  0  0  0
   67.8067   85.1362   64.5797 H   0  0  0  0  0  0  0  0  0  0  0  0
   71.5454   85.5349   63.6718 H   0  0  0  0  0  0  0  0  0  0  0  0
   68.1842   85.5460   59.7259 O   0  0  0  0  0  0  0  0  0  0  0  0
   67.5175   85.4538   60.9580 C   0  0  0  0  0  0  0  0  0  0  0  0
   67.6449   86.0593   59.1041 H   0  0  0  0  0  0  0  0  0  0  0  0
   71.0368   82.4283   62.2200 C   0  0  0  0  0  0  0  0  0  0  0  0
   69.9489   81.5900   61.8560 O   0  0  0  0  0  0  0  0  0  0  0  0
   69.3444   80.5521   62.9017 P   0  0  0  0  0  0  0  0  0  0  0  0
   69.4914   79.1764   62.3257 O   0  0  0  0  0  0  0  0  0  0  0  0
   67.8857   80.8525   63.0716 O   0  0  0  0  0  0  0  0  0  0  0  0
   70.1131   80.6994   64.2106 O   0  0  0  0  0  0  0  0  0  0  0  0
   67.4327   80.7482   62.2202 H   0  0  0  0  0  0  0  0  0  0  0  0
   71.0498   80.4974   64.0599 H   0  0  0  0  0  0  0  0  0  0  0  0
 12 13  1  0  0  0
 13  1  1  0  0  0
  1  2  1  0  0  0
  1  3  1  0  0  0
  1  8  1  0  0  0
  3  4  1  0  0  0
  3  5  1  0  0  0
  5  6  1  0  0  0
  5  7  1  0  0  0
  7  8  1  0  0  0
  7 15  1  0  0  0
 15 16  1  0  0  0
 16 17  1  0  0  0
 17 18  2  0  0  0
 17 19  1  0  0  0
 17 20  1  0  0  0
 12 14  1  0  0  0
  2  9  1  0  0  0
  4 10  1  0  0  0
  6 11  1  0  0  0
 19 21  1  0  0  0
 20 22  1  0  0  0
M  END
> <minimizedAffinity>
-8.78049

$$$$
3BXH_F6P_A_401


 22 22  0  0  0  0  0  0  0  0999 V2000
   70.9973   80.7004   62.2891 C   0  0  0  0  0  0  0  0  0  0  0  0
   71.9306   81.0974   63.3278 O   0  0  0  0  0  0  0  0  0  0  0  0
   69.6255   80.5824   62.9543 C   0  0  0  0  0  0  0  0  0  0  0  0
   69.6381   79.9684   64.2162 O   0  0  0  0  0  0  0  0  0  0  0  0
   69.2476   82.0450   63.0664 C   0  0  0  0  0  0  0  0  0  0  0  0
   67.8713   82.2161   63.2389 O   0  0  0  0  0  0  0  0  0  0  0  0
   69.6521   82.4939   61.6749 C   0  0  0  0  0  0  0  0  0  0  0  0
   70.8227   81.7586   61.3557 O   0  0  0  0  0  0  0  0  0  0  0  0
   72.0420   80.3686   63.9582 H   0  0  0  0  0  0  0  0  0  0  0  0
   70.2290   80.4591   64.8086 H   0  0  0  0  0  0  0  0  0  0  0  0
   67.3973   81.7673   62.5214 H   0  0  0  0  0  0  0  0  0  0  0  0
   70.6458   78.7939   60.7722 O   0  0  0  0  0  0  0  0  0  0  0  0
   71.5771   79.4858   61.5626 C   0  0  0  0  0  0  0  0  0  0  0  0
   71.0815   78.0404   60.3441 H   0  0  0  0  0  0  0  0  0  0  0  0
   69.8703   83.9821   61.5231 C   0  0  0  0  0  0  0  0  0  0  0  0
   69.4234   84.5144   62.7624 O   0  0  0  0  0  0  0  0  0  0  0  0
   68.2224   85.5593   62.8060 P   0  0  0  0  0  0  0  0  0  0  0  0
   68.7510   86.8903   62.3642 O   0  0  0  0  0  0  0  0  0  0  0  0
   67.7497   85.6725   64.2240 O   0  0  0  0  0  0  0  0  0  0  0  0
   67.1234   85.0538   61.8773 O   0  0  0  0  0  0  0  0  0  0  0  0
   68.4746   85.9959   64.7816 H   0  0  0  0  0  0  0  0  0  0  0  0
   67.4669   84.9944   60.9721 H   0  0  0  0  0  0  0  0  0  0  0  0
 12 13  1  0  0  0
 13  1  1  0  0  0
  1  2  1  0  0  0
  1  3  1  0  0  0
  1  8  1  0  0  0
  3  4  1  0  0  0
  3  5  1  0  0  0
  5  6  1  0  0  0
  5  7  1  0  0  0
  7  8  1  0  0  0
  7 15  1  0  0  0
 15 16  1  0  0  0
 16 17  1  0  0  0
 17 18  2  0  0  0
 17 19  1  0  0  0
 17 20  1  0  0  0
 12 14  1  0  0  0
  2  9  1  0  0  0
  4 10  1  0  0  0
  6 11  1  0  0  0
 19 21  1  0  0  0
 20 22  1  0  0  0
M  END
> <minimizedAffinity>
-8.30875

$$$$
3BXH_F6P_A_401


 22 22  0  0  0  0  0  0  0  0999 V2000
   68.2577   85.6929   62.5889 C   0  0  0  0  0  0  0  0  0  0  0  0
   69.3553   86.6295   62.4284 O   0  0  0  0  0  0  0  0  0  0  0  0
   67.7834   85.3283   61.1818 C   0  0  0  0  0  0  0  0  0  0  0  0
   67.7133   86.4092   60.2895 O   0  0  0  0  0  0  0  0  0  0  0  0
   68.8680   84.3543   60.7698 C   0  0  0  0  0  0  0  0  0  0  0  0
   68.4621   83.5403   59.7088 O   0  0  0  0  0  0  0  0  0  0  0  0
   68.9407   83.5382   62.0466 C   0  0  0  0  0  0  0  0  0  0  0  0
   68.7376   84.4588   63.1068 O   0  0  0  0  0  0  0  0  0  0  0  0
   69.0166   87.4670   62.0749 H   0  0  0  0  0  0  0  0  0  0  0  0
   68.5843   86.8312   60.2237 H   0  0  0  0  0  0  0  0  0  0  0  0
   67.6346   83.0920   59.9434 H   0  0  0  0  0  0  0  0  0  0  0  0
   67.5038   85.9542   64.9176 O   0  0  0  0  0  0  0  0  0  0  0  0
   67.2568   86.2927   63.5777 C   0  0  0  0  0  0  0  0  0  0  0  0
   66.8337   86.3673   65.4843 H   0  0  0  0  0  0  0  0  0  0  0  0
   70.2188   82.7516   62.2289 C   0  0  0  0  0  0  0  0  0  0  0  0
   69.8907   81.4602   61.7357 O   0  0  0  0  0  0  0  0  0  0  0  0
   69.4501   80.3019   62.7359 P   0  0  0  0  0  0  0  0  0  0  0  0
   69.7808   78.9876   62.0961 O   0  0  0  0  0  0  0  0  0  0  0  0
   67.9660   80.3870   62.9284 O   0  0  0  0  0  0  0  0  0  0  0  0
   70.2071   80.4964   64.0455 O   0  0  0  0  0  0  0  0  0  0  0  0
   67.5215   80.2587   62.0759 H   0  0  0  0  0  0  0  0  0  0  0  0
   71.1608   80.4347   63.8800 H   0  0  0  0  0  0  0  0  0  0  0  0
 12 13  1  0  0  0
 13  1  1  0  0  0
  1  2  1  0  0  0
  1  3  1  0  0  0
  1  8  1  0  0  0
  3  4  1  0  0  0
  3  5  1  0  0  0
  5  6  1  0  0  0
  5  7  1  0  0  0
  7  8  1  0  0  0
  7 15  1  0  0  0
 15 16  1  0  0  0
 16 17  1  0  0  0
 17 18  2  0  0  0
 17 19  1  0  0  0
 17 20  1  0  0  0
 12 14  1  0  0  0
  2  9  1  0  0  0
  4 10  1  0  0  0
  6 11  1  0  0  0
 19 21  1  0  0  0
 20 22  1  0  0  0
M  END
> <minimizedAffinity>
-7.73583

$$$$
3BXH_F6P_A_401


 22 22  0  0  0  0  0  0  0  0999 V2000
   69.8779   84.1352   62.0235 C   0  0  0  0  0  0  0  0  0  0  0  0
   70.8673   85.0856   61.5486 O   0  0  0  0  0  0  0  0  0  0  0  0
   69.5864   84.4971   63.4803 C   0  0  0  0  0  0  0  0  0  0  0  0
   70.7194   84.8315   64.2380 O   0  0  0  0  0  0  0  0  0  0  0  0
   68.6867   85.7008   63.2898 C   0  0  0  0  0  0  0  0  0  0  0  0
   67.9274   85.9701   64.4318 O   0  0  0  0  0  0  0  0  0  0  0  0
   67.7929   85.1483   62.1955 C   0  0  0  0  0  0  0  0  0  0  0  0
   68.6334   84.3556   61.3722 O   0  0  0  0  0  0  0  0  0  0  0  0
   71.7113   84.9260   61.9992 H   0  0  0  0  0  0  0  0  0  0  0  0
   71.1801   85.5755   63.8197 H   0  0  0  0  0  0  0  0  0  0  0  0
   67.4313   85.1759   64.6848 H   0  0  0  0  0  0  0  0  0  0  0  0
   70.7508   81.9745   62.8165 O   0  0  0  0  0  0  0  0  0  0  0  0
   70.3705   82.7254   61.6929 C   0  0  0  0  0  0  0  0  0  0  0  0
   71.0504   81.0967   62.5325 H   0  0  0  0  0  0  0  0  0  0  0  0
   67.0493   86.1911   61.3922 C   0  0  0  0  0  0  0  0  0  0  0  0
   66.7355   85.5193   60.1802 O   0  0  0  0  0  0  0  0  0  0  0  0
   66.4088   86.3472   58.8596 P   0  0  0  0  0  0  0  0  0  0  0  0
   65.4670   87.4533   59.2281 O   0  0  0  0  0  0  0  0  0  0  0  0
   65.7250   85.4323   57.8889 O   0  0  0  0  0  0  0  0  0  0  0  0
   67.7224   86.8881   58.3048 O   0  0  0  0  0  0  0  0  0  0  0  0
   64.8963   85.1103   58.2769 H   0  0  0  0  0  0  0  0  0  0  0  0
   68.1332   87.4738   58.9598 H   0  0  0  0  0  0  0  0  0  0  0  0
 12 13  1  0  0  0
 13  1  1  0  0  0
  1  2  1  0  0  0
  1  3  1  0  0  0
  1  8  1  0  0  0
  3  4  1  0  0  0
  3  5  1  0  0  0
  5  6  1  0  0  0
  5  7  1  0  0  0
  7  8  1  0  0  0
  7 15  1  0  0  0
 15 16  1  0  0  0
 16 17  1  0  0  0
 17 18  2  0  0  0
 17 19  1  0  0  0
 17 20  1  0  0  0
 12 14  1  0  0  0
  2  9  1  0  0  0
  4 10  1  0  0  0
  6 11  1  0  0  0
 19 21  1  0  0  0
 20 22  1  0  0  0
M  END
> <minimizedAffinity>
-7.34259

$$$$
3BXH_F6P_A_401


 22 22  0  0  0  0  0  0  0  0999 V2000
   69.1345   84.3770   63.1487 C   0  0  0  0  0  0  0  0  0  0  0  0
   70.1650   84.8003   64.0796 O   0  0  0  0  0  0  0  0  0  0  0  0
   69.8309   84.1174   61.8124 C   0  0  0  0  0  0  0  0  0  0  0  0
   70.8016   85.0692   61.4639 O   0  0  0  0  0  0  0  0  0  0  0  0
   70.4667   82.7709   62.0906 C   0  0  0  0  0  0  0  0  0  0  0  0
   70.8008   82.0986   60.9118 O   0  0  0  0  0  0  0  0  0  0  0  0
   69.2837   82.0911   62.7537 C   0  0  0  0  0  0  0  0  0  0  0  0
   68.6366   83.0971   63.5167 O   0  0  0  0  0  0  0  0  0  0  0  0
   70.4971   85.6736   63.8191 H   0  0  0  0  0  0  0  0  0  0  0  0
   71.4747   85.1146   62.1608 H   0  0  0  0  0  0  0  0  0  0  0  0
   70.0152   82.0252   60.3477 H   0  0  0  0  0  0  0  0  0  0  0  0
   67.6330   85.7767   64.5072 O   0  0  0  0  0  0  0  0  0  0  0  0
   67.9914   85.3916   63.2056 C   0  0  0  0  0  0  0  0  0  0  0  0
   66.9062   86.4178   64.4660 H   0  0  0  0  0  0  0  0  0  0  0  0
   69.6317   80.8876   63.5998 C   0  0  0  0  0  0  0  0  0  0  0  0
   69.4080   79.7887   62.7274 O   0  0  0  0  0  0  0  0  0  0  0  0
   70.6321   79.0643   62.0111 P   0  0  0  0  0  0  0  0  0  0  0  0
   71.8751   79.8422   62.3203 O   0  0  0  0  0  0  0  0  0  0  0  0
   70.3961   79.0965   60.5312 O   0  0  0  0  0  0  0  0  0  0  0  0
   70.7137   77.6379   62.5446 O   0  0  0  0  0  0  0  0  0  0  0  0
   70.3505   80.0178   60.2311 H   0  0  0  0  0  0  0  0  0  0  0  0
   70.8664   77.6590   63.5022 H   0  0  0  0  0  0  0  0  0  0  0  0
 12 13  1  0  0  0
 13  1  1  0  0  0
  1  2  1  0  0  0
  1  3  1  0  0  0
  1  8  1  0  0  0
  3  4  1  0  0  0
  3  5  1  0  0  0
  5  6  1  0  0  0
  5  7  1  0  0  0
  7  8  1  0  0  0
  7 15  1  0  0  0
 15 16  1  0  0  0
 16 17  1  0  0  0
 17 18  2  0  0  0
 17 19  1  0  0  0
 17 20  1  0  0  0
 12 14  1  0  0  0
  2  9  1  0  0  0
  4 10  1  0  0  0
  6 11  1  0  0  0
 19 21  1  0  0  0
 20 22  1  0  0  0
M  END
> <minimizedAffinity>
-7.18463

$$$$
3BXH_F6P_A_401


 22 22  0  0  0  0  0  0  0  0999 V2000
   69.4589   82.8751   62.4364 C   0  0  0  0  0  0  0  0  0  0  0  0
   68.9490   82.6714   61.0925 O   0  0  0  0  0  0  0  0  0  0  0  0
   68.9562   81.7017   63.2783 C   0  0  0  0  0  0  0  0  0  0  0  0
   67.6226   81.3373   63.0367 O   0  0  0  0  0  0  0  0  0  0  0  0
   69.9066   80.6121   62.8267 C   0  0  0  0  0  0  0  0  0  0  0  0
   69.9589   79.5548   63.7391 O   0  0  0  0  0  0  0  0  0  0  0  0
   71.2013   81.4011   62.8779 C   0  0  0  0  0  0  0  0  0  0  0  0
   70.8715   82.7146   62.4550 O   0  0  0  0  0  0  0  0  0  0  0  0
   67.9855   82.7832   61.0918 H   0  0  0  0  0  0  0  0  0  0  0  0
   67.5129   81.1156   62.0987 H   0  0  0  0  0  0  0  0  0  0  0  0
   70.1828   79.8973   64.6185 H   0  0  0  0  0  0  0  0  0  0  0  0
   67.8123   84.4455   63.3755 O   0  0  0  0  0  0  0  0  0  0  0  0
   69.1136   84.3009   62.8689 C   0  0  0  0  0  0  0  0  0  0  0  0
   67.6646   85.3703   63.6281 H   0  0  0  0  0  0  0  0  0  0  0  0
   72.3344   80.8213   62.0622 C   0  0  0  0  0  0  0  0  0  0  0  0
   71.7194   79.7646   61.3383 O   0  0  0  0  0  0  0  0  0  0  0  0
   72.3400   78.2983   61.3668 P   0  0  0  0  0  0  0  0  0  0  0  0
   71.6347   77.5181   62.4345 O   0  0  0  0  0  0  0  0  0  0  0  0
   73.7909   78.4093   61.7268 O   0  0  0  0  0  0  0  0  0  0  0  0
   72.1404   77.6747   59.9894 O   0  0  0  0  0  0  0  0  0  0  0  0
   73.8761   78.8091   62.6064 H   0  0  0  0  0  0  0  0  0  0  0  0
   71.1920   77.6202   59.7935 H   0  0  0  0  0  0  0  0  0  0  0  0
 12 13  1  0  0  0
 13  1  1  0  0  0
  1  2  1  0  0  0
  1  3  1  0  0  0
  1  8  1  0  0  0
  3  4  1  0  0  0
  3  5  1  0  0  0
  5  6  1  0  0  0
  5  7  1  0  0  0
  7  8  1  0  0  0
  7 15  1  0  0  0
 15 16  1  0  0  0
 16 17  1  0  0  0
 17 18  2  0  0  0
 17 19  1  0  0  0
 17 20  1  0  0  0
 12 14  1  0  0  0
  2  9  1  0  0  0
  4 10  1  0  0  0
  6 11  1  0  0  0
 19 21  1  0  0  0
 20 22  1  0  0  0
M  END
> <minimizedAffinity>
-7.17362

$$$$
3BXH_F6P_A_401


 22 22  0  0  0  0  0  0  0  0999 V2000
   67.2643   86.6647   61.4619 C   0  0  0  0  0  0  0  0  0  0  0  0
   68.3878   87.5822   61.5211 O   0  0  0  0  0  0  0  0  0  0  0  0
   67.4990   85.7620   60.2503 C   0  0  0  0  0  0  0  0  0  0  0  0
   67.9772   86.4258   59.1100 O   0  0  0  0  0  0  0  0  0  0  0  0
   68.5456   84.8196   60.8082 C   0  0  0  0  0  0  0  0  0  0  0  0
   68.6277   83.6358   60.0699 O   0  0  0  0  0  0  0  0  0  0  0  0
   67.9091   84.5423   62.1570 C   0  0  0  0  0  0  0  0  0  0  0  0
   67.3088   85.7629   62.5602 O   0  0  0  0  0  0  0  0  0  0  0  0
   68.3473   88.1920   60.7678 H   0  0  0  0  0  0  0  0  0  0  0  0
   68.8073   86.8795   59.3243 H   0  0  0  0  0  0  0  0  0  0  0  0
   67.7508   83.2242   60.0203 H   0  0  0  0  0  0  0  0  0  0  0  0
   65.1685   87.3902   60.3937 O   0  0  0  0  0  0  0  0  0  0  0  0
   65.9738   87.4819   61.5400 C   0  0  0  0  0  0  0  0  0  0  0  0
   64.3721   87.9307   60.5139 H   0  0  0  0  0  0  0  0  0  0  0  0
   68.8539   84.0114   63.2110 C   0  0  0  0  0  0  0  0  0  0  0  0
   68.9738   82.6327   62.8896 O   0  0  0  0  0  0  0  0  0  0  0  0
   70.3996   81.9231   62.8964 P   0  0  0  0  0  0  0  0  0  0  0  0
   71.4486   82.9930   62.9247 O   0  0  0  0  0  0  0  0  0  0  0  0
   70.5405   81.1402   61.6259 O   0  0  0  0  0  0  0  0  0  0  0  0
   70.4751   81.0282   64.1290 O   0  0  0  0  0  0  0  0  0  0  0  0
   70.4874   81.7424   60.8674 H   0  0  0  0  0  0  0  0  0  0  0  0
   70.3802   81.5697   64.9281 H   0  0  0  0  0  0  0  0  0  0  0  0
 12 13  1  0  0  0
 13  1  1  0  0  0
  1  2  1  0  0  0
  1  3  1  0  0  0
  1  8  1  0  0  0
  3  4  1  0  0  0
  3  5  1  0  0  0
  5  6  1  0  0  0
  5  7  1  0  0  0
  7  8  1  0  0  0
  7 15  1  0  0  0
 15 16  1  0  0  0
 16 17  1  0  0  0
 17 18  2  0  0  0
 17 19  1  0  0  0
 17 20  1  0  0  0
 12 14  1  0  0  0
  2  9  1  0  0  0
  4 10  1  0  0  0
  6 11  1  0  0  0
 19 21  1  0  0  0
 20 22  1  0  0  0
M  END
> <minimizedAffinity>
-6.91652

$$$$
3BXH_F6P_A_401


 22 22  0  0  0  0  0  0  0  0999 V2000
   70.7740   79.0262   61.9613 C   0  0  0  0  0  0  0  0  0  0  0  0
   70.4495   79.0422   60.5463 O   0  0  0  0  0  0  0  0  0  0  0  0
   71.9247   80.0138   62.1581 C   0  0  0  0  0  0  0  0  0  0  0  0
   72.9172   79.9607   61.1674 O   0  0  0  0  0  0  0  0  0  0  0  0
   71.1722   81.3273   62.1022 C   0  0  0  0  0  0  0  0  0  0  0  0
   71.9009   82.3705   62.6802 O   0  0  0  0  0  0  0  0  0  0  0  0
   70.0022   80.9598   62.9952 C   0  0  0  0  0  0  0  0  0  0  0  0
   69.7132   79.5995   62.7146 O   0  0  0  0  0  0  0  0  0  0  0  0
   71.1794   78.6492   60.0427 H   0  0  0  0  0  0  0  0  0  0  0  0
   72.5161   80.1209   60.2989 H   0  0  0  0  0  0  0  0  0  0  0  0
   72.1507   82.1276   63.5854 H   0  0  0  0  0  0  0  0  0  0  0  0
   72.1080   76.9599   61.8596 O   0  0  0  0  0  0  0  0  0  0  0  0
   70.9623   77.5711   62.3932 C   0  0  0  0  0  0  0  0  0  0  0  0
   72.1623   76.0441   62.1745 H   0  0  0  0  0  0  0  0  0  0  0  0
   68.7789   81.8336   62.8356 C   0  0  0  0  0  0  0  0  0  0  0  0
   69.2952   83.1537   62.9328 O   0  0  0  0  0  0  0  0  0  0  0  0
   68.8613   84.2697   61.8828 P   0  0  0  0  0  0  0  0  0  0  0  0
   69.0884   83.7228   60.5061 O   0  0  0  0  0  0  0  0  0  0  0  0
   69.7412   85.4671   62.0794 O   0  0  0  0  0  0  0  0  0  0  0  0
   67.3911   84.5969   62.1228 O   0  0  0  0  0  0  0  0  0  0  0  0
   70.6651   85.2193   61.9183 H   0  0  0  0  0  0  0  0  0  0  0  0
   66.8559   83.7995   61.9863 H   0  0  0  0  0  0  0  0  0  0  0  0
 12 13  1  0  0  0
 13  1  1  0  0  0
  1  2  1  0  0  0
  1  3  1  0  0  0
  1  8  1  0  0  0
  3  4  1  0  0  0
  3  5  1  0  0  0
  5  6  1  0  0  0
  5  7  1  0  0  0
  7  8  1  0  0  0
  7 15  1  0  0  0
 15 16  1  0  0  0
 16 17  1  0  0  0
 17 18  2  0  0  0
 17 19  1  0  0  0
 17 20  1  0  0  0
 12 14  1  0  0  0
  2  9  1  0  0  0
  4 10  1  0  0  0
  6 11  1  0  0  0
 19 21  1  0  0  0
 20 22  1  0  0  0
M  END
> <minimizedAffinity>
-6.50692

$$$$
3BXH_F6P_A_401


 22 22  0  0  0  0  0  0  0  0999 V2000
   66.0447   86.6346   58.3975 C   0  0  0  0  0  0  0  0  0  0  0  0
   64.9982   85.6285   58.3826 O   0  0  0  0  0  0  0  0  0  0  0  0
   65.8601   87.4399   59.6842 C   0  0  0  0  0  0  0  0  0  0  0  0
   64.5269   87.7497   59.9942 O   0  0  0  0  0  0  0  0  0  0  0  0
   66.4428   86.4764   60.6975 C   0  0  0  0  0  0  0  0  0  0  0  0
   66.7976   87.1210   61.8857 O   0  0  0  0  0  0  0  0  0  0  0  0
   67.6923   86.0723   59.9379 C   0  0  0  0  0  0  0  0  0  0  0  0
   67.3146   86.0192   58.5714 O   0  0  0  0  0  0  0  0  0  0  0  0
   64.1373   86.0592   58.2635 H   0  0  0  0  0  0  0  0  0  0  0  0
   64.0125   86.9304   60.0645 H   0  0  0  0  0  0  0  0  0  0  0  0
   67.3993   87.8556   61.6878 H   0  0  0  0  0  0  0  0  0  0  0  0
   65.0379   88.3596   56.9587 O   0  0  0  0  0  0  0  0  0  0  0  0
   66.0252   87.3661   57.0545 C   0  0  0  0  0  0  0  0  0  0  0  0
   65.0846   88.7787   56.0852 H   0  0  0  0  0  0  0  0  0  0  0  0
   68.3236   84.7759   60.3922 C   0  0  0  0  0  0  0  0  0  0  0  0
   69.2017   85.1780   61.4342 O   0  0  0  0  0  0  0  0  0  0  0  0
   68.9856   84.6499   62.9210 P   0  0  0  0  0  0  0  0  0  0  0  0
   70.0680   83.6579   63.2215 O   0  0  0  0  0  0  0  0  0  0  0  0
   67.6596   83.9537   62.9839 O   0  0  0  0  0  0  0  0  0  0  0  0
   69.0449   85.8494   63.8610 O   0  0  0  0  0  0  0  0  0  0  0  0
   67.6613   83.1992   62.3743 H   0  0  0  0  0  0  0  0  0  0  0  0
   69.9154   86.2718   63.7917 H   0  0  0  0  0  0  0  0  0  0  0  0
 12 13  1  0  0  0
 13  1  1  0  0  0
  1  2  1  0  0  0
  1  3  1  0  0  0
  1  8  1  0  0  0
  3  4  1  0  0  0
  3  5  1  0  0  0
  5  6  1  0  0  0
  5  7  1  0  0  0
  7  8  1  0  0  0
  7 15  1  0  0  0
 15 16  1  0  0  0
 16 17  1  0  0  0
 17 18  2  0  0  0
 17 19  1  0  0  0
 17 20  1  0  0  0
 12 14  1  0  0  0
  2  9  1  0  0  0
  4 10  1  0  0  0
  6 11  1  0  0  0
 19 21  1  0  0  0
 20 22  1  0  0  0
M  END
> <minimizedAffinity>
-6.40919

$$$$
3BXH_F6P_A_401


 22 22  0  0  0  0  0  0  0  0999 V2000
   74.0951   77.7031   60.2560 C   0  0  0  0  0  0  0  0  0  0  0  0
   75.2558   77.7566   61.1263 O   0  0  0  0  0  0  0  0  0  0  0  0
   73.0746   76.7941   60.9418 C   0  0  0  0  0  0  0  0  0  0  0  0
   73.6188   75.6402   61.5265 O   0  0  0  0  0  0  0  0  0  0  0  0
   72.5351   77.7351   61.9992 C   0  0  0  0  0  0  0  0  0  0  0  0
   71.2947   77.3149   62.4871 O   0  0  0  0  0  0  0  0  0  0  0  0
   72.3577   78.9711   61.1376 C   0  0  0  0  0  0  0  0  0  0  0  0
   73.4452   78.9674   60.2265 O   0  0  0  0  0  0  0  0  0  0  0  0
   75.6909   76.8897   61.1387 H   0  0  0  0  0  0  0  0  0  0  0  0
   74.2937   75.8940   62.1753 H   0  0  0  0  0  0  0  0  0  0  0  0
   70.6782   77.2002   61.7471 H   0  0  0  0  0  0  0  0  0  0  0  0
   73.7534   77.8653   57.8236 O   0  0  0  0  0  0  0  0  0  0  0  0
   74.5701   77.3540   58.8447 C   0  0  0  0  0  0  0  0  0  0  0  0
   74.1136   77.6059   56.9611 H   0  0  0  0  0  0  0  0  0  0  0  0
   72.2745   80.2737   61.9004 C   0  0  0  0  0  0  0  0  0  0  0  0
   70.9961   80.7857   61.5505 O   0  0  0  0  0  0  0  0  0  0  0  0
   69.8076   80.7829   62.6104 P   0  0  0  0  0  0  0  0  0  0  0  0
   69.0804   79.4783   62.4866 O   0  0  0  0  0  0  0  0  0  0  0  0
   68.8664   81.8968   62.2635 O   0  0  0  0  0  0  0  0  0  0  0  0
   70.4133   80.9598   63.9988 O   0  0  0  0  0  0  0  0  0  0  0  0
   68.5032   81.7487   61.3764 H   0  0  0  0  0  0  0  0  0  0  0  0
   71.0145   80.2219   64.1858 H   0  0  0  0  0  0  0  0  0  0  0  0
 12 13  1  0  0  0
 13  1  1  0  0  0
  1  2  1  0  0  0
  1  3  1  0  0  0
  1  8  1  0  0  0
  3  4  1  0  0  0
  3  5  1  0  0  0
  5  6  1  0  0  0
  5  7  1  0  0  0
  7  8  1  0  0  0
  7 15  1  0  0  0
 15 16  1  0  0  0
 16 17  1  0  0  0
 17 18  2  0  0  0
 17 19  1  0  0  0
 17 20  1  0  0  0
 12 14  1  0  0  0
  2  9  1  0  0  0
  4 10  1  0  0  0
  6 11  1  0  0  0
 19 21  1  0  0  0
 20 22  1  0  0  0
M  END
> <minimizedAffinity>
-6.31174

$$$$
