2W08_TPO_A_500
  RCSB PDB12061707103D
Coordinates from PDB:2W08:A:500 Model:1 without hydrogens
 12 11  0  0  0  0            999 V2000
   20.2600   15.2810   54.5620   N 0  0  0  0  0  0  0  0  0  0  0  0
   18.8860   15.3250   54.0400   C 0  0  0  0  0  0  0  0  0  0  0  0
   17.8960   15.1610   55.1950   C 0  0  0  0  0  0  0  0  0  0  0  0
   17.9310   13.7350   55.7490   C 0  0  0  0  0  0  0  0  0  0  0  0
   18.1930   16.1160   56.2180   O 0  0  0  0  0  0  0  0  0  0  0  0
   17.0290   16.6210   57.2100   P 0  0  0  0  0  0  0  0  0  0  0  0
   16.9190   15.5260   58.3970   O 0  0  0  0  0  0  0  0  0  0  0  0
   15.7240   16.8440   56.5380   O 0  0  0  0  0  0  0  0  0  0  0  0
   17.5780   17.9650   57.9260   O 0  0  0  0  0  0  0  0  0  0  0  0
   18.6450   16.6680   53.3480   C 0  0  0  0  0  0  0  0  0  0  0  0
   19.4490   17.5910   53.6040   O 0  0  0  0  0  0  0  0  0  0  0  0
   17.6880   16.7500   52.5890   O 0  0  0  0  0  0  0  0  0  0  0  0
  1  2  1  0  0  0  0
  2  3  1  0  0  0  0
  2 10  1  0  0  0  0
  3  4  1  0  0  0  0
  3  5  1  0  0  0  0
  5  6  1  0  0  0  0
  6  7  2  0  0  0  0
  6  8  1  0  0  0  0
  6  9  1  0  0  0  0
 10 11  2  0  0  0  0
 10 12  1  0  0  0  0
A    1
N
A    2
CA
A    3
CB
A    4
CG2
A    5
OG1
A    6
P
A    7
O1P
A    8
O2P
A    9
O3P
A   10
C
A   11
O
A   12
OXT
M  END
>  <InstanceId>
2W08_TPO_A_500

>  <ChemCompId>
TPO

>  <PdbId>
2W08

>  <ChainId>
A

>  <ResidueNumber>
500

>  <InsertionCode>


>  <Model>
1

>  <AltIds>


>  <MissingHeavyAtoms>
0

>  <ObservedFormula>
C4 N O6 P

>  <Name>
PHOSPHOTHREONINE

>  <SystematicName>
(2S,3R)-2-amino-3-phosphonooxy-butanoic acid

>  <Synonyms>
PHOSPHONOTHREONINE

>  <Type>
L-PEPTIDE LINKING

>  <Formula>
C4 H10 N O6 P

>  <MolecularWeight>
199.099

>  <ModifiedDate>
2011-06-04

>  <Parent>
THR

>  <OneLetterCode>
T

>  <SubcomponentList>


>  <AmbiguousFlag>
N

>  <InChI>
InChI=1S/C4H10NO6P/c1-2(3(5)4(6)7)11-12(8,9)10/h2-3H,5H2,1H3,(H,6,7)(H2,8,9,10)/t2-,3+/m1/s1

>  <InChIKey>
USRGIUJOYOXOQJ-GBXIJSLDSA-N

>  <SMILES>
C[C@H]([C@@H](C(=O)O)N)OP(=O)(O)O

$$$$
