5NE5_KIF_A_501
  RCSB PDB12061719103D
Coordinates from PDB:5NE5:A:501 Model:1 without hydrogens
 16 17  0  0  0  0            999 V2000
   23.9050   18.7540   47.9100   C 0  0  0  0  0  0  0  0  0  0  0  0
   22.9670   18.3270   46.9040   O 0  0  0  0  0  0  0  0  0  0  0  0
   24.9420   17.6260   48.1550   C 0  0  0  0  0  0  0  0  0  0  0  0
   25.7330   17.8770   49.3440   O 0  0  0  0  0  0  0  0  0  0  0  0
   25.9520   17.5000   46.9900   C 0  0  0  0  0  0  0  0  0  0  0  0
   26.9220   16.5120   47.3720   O 0  0  0  0  0  0  0  0  0  0  0  0
   26.6140   18.8580   46.7500   C 0  0  0  0  0  0  0  0  0  0  0  0
   27.4300   18.9130   45.5050   N 0  0  0  0  0  0  0  0  0  0  0  0
   26.9180   19.7870   44.6440   C 0  0  0  0  0  0  0  0  0  0  0  0
   27.3710   20.0300   43.4970   O 0  0  0  0  0  0  0  0  0  0  0  0
   25.6920   20.4130   45.2330   C 0  0  0  0  0  0  0  0  0  0  0  0
   24.9820   21.2800   44.7290   O 0  0  0  0  0  0  0  0  0  0  0  0
   25.5880   19.8690   46.4850   N 0  0  0  0  0  0  0  0  0  0  0  0
   24.5210   20.0880   47.4930   C 0  0  0  0  0  0  0  0  0  0  0  0
   25.0170   20.8800   48.7010   C 0  0  0  0  0  0  0  0  0  0  0  0
   25.8060   22.0260   48.3480   O 0  0  0  0  0  0  0  0  0  0  0  0
  1  2  1  0  0  0  0
  1  3  1  0  0  0  0
  1 14  1  0  0  0  0
  3  4  1  0  0  0  0
  3  5  1  0  0  0  0
  5  6  1  0  0  0  0
  5  7  1  0  0  0  0
  7  8  1  0  0  0  0
  7 13  1  0  0  0  0
  8  9  1  0  0  0  0
  9 10  2  0  0  0  0
  9 11  1  0  0  0  0
 11 12  2  0  0  0  0
 11 13  1  0  0  0  0
 13 14  1  0  0  0  0
 14 15  1  0  0  0  0
 15 16  1  0  0  0  0
A    1
C4
A    2
O4
A    3
C3
A    4
O3
A    5
C2
A    6
O2
A    7
C1
A    8
N9
A    9
C8
A   10
O8
A   11
C7
A   12
O7
A   13
N
A   14
C5
A   15
C6
A   16
O6
M  END
>  <InstanceId>
5NE5_KIF_A_501

>  <ChemCompId>
KIF

>  <PdbId>
5NE5

>  <ChainId>
A

>  <ResidueNumber>
501

>  <InsertionCode>


>  <Model>
1

>  <AltIds>


>  <MissingHeavyAtoms>
0

>  <ObservedFormula>
C8 N2 O6

>  <Name>
KIFUNENSINE

>  <SystematicName>
(5R,6R,7S,8R,8aS)-6,7,8-trihydroxy-5-(hydroxymethyl)-1,5,6,7,8,8a-hexahydroimidazo[1,2-a]pyridine-2,3-dione

>  <Synonyms>


>  <Type>
NON-POLYMER

>  <Formula>
C8 H12 N2 O6

>  <MolecularWeight>
232.191

>  <ModifiedDate>
2011-06-04

>  <Parent>


>  <OneLetterCode>


>  <SubcomponentList>


>  <AmbiguousFlag>
N

>  <InChI>
InChI=1S/C8H12N2O6/c11-1-2-3(12)4(13)5(14)6-9-7(15)8(16)10(2)6/h2-6,11-14H,1H2,(H,9,15)/t2-,3-,4+,5+,6+/m1/s1

>  <InChIKey>
OIURYJWYVIAOCW-PQMKYFCFSA-N

>  <SMILES>
C([C@@H]1[C@H]([C@@H]([C@@H]([C@@H]2N1C(=O)C(=O)N2)O)O)O)O

$$$$
