3PWD_CZ0_A_1


 21 23  0  0  0  0  0  0  0  0999 V2000
   21.8228    8.8225   22.9343 C   0  0  0  0  0  0  0  0  0  0  0  0
   22.4685    7.5982   22.9358 C   0  0  0  0  0  0  0  0  0  0  0  0
   23.0445    7.1020   21.7843 C   0  0  0  0  0  0  0  0  0  0  0  0
   21.7576    9.5601   21.7637 C   0  0  0  0  0  0  0  0  0  0  0  0
   22.3371    9.0730   20.6040 C   0  0  0  0  0  0  0  0  0  0  0  0
   22.9840    7.8373   20.5970 C   0  0  0  0  0  0  0  0  0  0  0  0
   23.5606    7.3713   19.4085 C   0  0  0  0  0  0  0  0  0  0  0  0
   22.2669    9.8362   19.4430 C   0  0  0  0  0  0  0  0  0  0  0  0
   22.8398    9.3676   18.2671 C   0  0  0  0  0  0  0  0  0  0  0  0
   23.4893    8.1392   18.2393 C   0  0  0  0  0  0  0  0  0  0  0  0
   24.0510    7.6953   17.0565 O   0  0  0  0  0  0  0  0  0  0  0  0
   23.9822    8.4349   15.8983 C   0  0  0  0  0  0  0  0  0  0  0  0
   23.3430    9.6788   15.8672 C   0  0  0  0  0  0  0  0  0  0  0  0
   22.7602   10.1747   17.0240 C   0  0  0  0  0  0  0  0  0  0  0  0
   22.5497    6.8749   24.0793 O   0  0  0  0  0  0  0  0  0  0  0  0
   24.5118    7.9857   14.8576 O   0  0  0  0  0  0  0  0  0  0  0  0
   22.0542   11.5013   17.0385 C   0  0  0  0  0  0  0  0  0  0  0  0
   22.1628    7.2005   24.8681 H   0  0  0  0  0  0  0  0  0  0  0  0
   23.6728    5.8552   21.8912 N   0  0  0  0  0  0  0  0  0  0  0  0
   23.0625    4.8055   21.7555 O   0  0  0  0  0  0  0  0  0  0  0  0
   24.8674    5.8320   22.1246 O   0  0  0  0  0  0  0  0  0  0  0  0
  1  2  2  0  0  0
  1  4  1  0  0  0
 19 20  1  0  0  0
 19  3  1  0  0  0
 19 21  2  0  0  0
  2  3  1  0  0  0
  2 15  1  0  0  0
  3  6  2  0  0  0
  4  5  2  0  0  0
  5  6  1  0  0  0
  5  8  1  0  0  0
  6  7  1  0  0  0
  7 10  2  0  0  0
  8  9  2  0  0  0
  9 10  1  0  0  0
  9 14  1  0  0  0
 10 11  1  0  0  0
 11 12  1  0  0  0
 12 13  1  0  0  0
 12 16  2  0  0  0
 13 14  2  0  0  0
 14 17  1  0  0  0
 15 18  1  0  0  0
M  CHG 1  19   1
M  CHG 1  20  -1
M  END
> <minimizedAffinity>
-9.77773

$$$$
3PWD_CZ0_A_1


 21 23  0  0  0  0  0  0  0  0999 V2000
   24.9225    4.9403   20.8271 C   0  0  0  0  0  0  0  0  0  0  0  0
   25.6232    4.0540   20.0275 C   0  0  0  0  0  0  0  0  0  0  0  0
   25.7718    4.2878   18.6758 C   0  0  0  0  0  0  0  0  0  0  0  0
   24.3673    6.0775   20.2641 C   0  0  0  0  0  0  0  0  0  0  0  0
   24.5153    6.3237   18.9093 C   0  0  0  0  0  0  0  0  0  0  0  0
   25.2149    5.4318   18.0967 C   0  0  0  0  0  0  0  0  0  0  0  0
   25.3479    5.7081   16.7299 C   0  0  0  0  0  0  0  0  0  0  0  0
   23.9568    7.4774   18.3686 C   0  0  0  0  0  0  0  0  0  0  0  0
   24.0912    7.7450   17.0118 C   0  0  0  0  0  0  0  0  0  0  0  0
   24.7850    6.8692   16.1852 C   0  0  0  0  0  0  0  0  0  0  0  0
   24.9044    7.1582   14.8384 O   0  0  0  0  0  0  0  0  0  0  0  0
   24.3501    8.2907   14.2875 C   0  0  0  0  0  0  0  0  0  0  0  0
   23.6428    9.2087   15.0711 C   0  0  0  0  0  0  0  0  0  0  0  0
   23.4899    8.9705   16.4289 C   0  0  0  0  0  0  0  0  0  0  0  0
   26.1821    2.9451   20.5711 O   0  0  0  0  0  0  0  0  0  0  0  0
   24.4928    8.5037   13.0630 O   0  0  0  0  0  0  0  0  0  0  0  0
   22.7308    9.9220   17.3102 C   0  0  0  0  0  0  0  0  0  0  0  0
   26.0886    2.7747   21.4877 H   0  0  0  0  0  0  0  0  0  0  0  0
   26.4973    3.3308   17.9556 N   0  0  0  0  0  0  0  0  0  0  0  0
   27.7135    3.3805   17.8502 O   0  0  0  0  0  0  0  0  0  0  0  0
   25.8828    2.4240   17.4245 O   0  0  0  0  0  0  0  0  0  0  0  0
  1  2  2  0  0  0
  1  4  1  0  0  0
 19 20  1  0  0  0
 19  3  1  0  0  0
 19 21  2  0  0  0
  2  3  1  0  0  0
  2 15  1  0  0  0
  3  6  2  0  0  0
  4  5  2  0  0  0
  5  6  1  0  0  0
  5  8  1  0  0  0
  6  7  1  0  0  0
  7 10  2  0  0  0
  8  9  2  0  0  0
  9 10  1  0  0  0
  9 14  1  0  0  0
 10 11  1  0  0  0
 11 12  1  0  0  0
 12 13  1  0  0  0
 12 16  2  0  0  0
 13 14  2  0  0  0
 14 17  1  0  0  0
 15 18  1  0  0  0
M  CHG 1  19   1
M  CHG 1  20  -1
M  END
> <minimizedAffinity>
-9.73245

$$$$
3PWD_CZ0_A_1


 21 23  0  0  0  0  0  0  0  0999 V2000
   23.1463    6.9069   22.3478 C   0  0  0  0  0  0  0  0  0  0  0  0
   23.8661    5.7587   22.0658 C   0  0  0  0  0  0  0  0  0  0  0  0
   24.3607    5.5285   20.7984 C   0  0  0  0  0  0  0  0  0  0  0  0
   22.9235    7.8377   21.3466 C   0  0  0  0  0  0  0  0  0  0  0  0
   23.4202    7.6183   20.0726 C   0  0  0  0  0  0  0  0  0  0  0  0
   24.1410    6.4606   19.7800 C   0  0  0  0  0  0  0  0  0  0  0  0
   24.6308    6.2668   18.4820 C   0  0  0  0  0  0  0  0  0  0  0  0
   23.1915    8.5722   19.0861 C   0  0  0  0  0  0  0  0  0  0  0  0
   23.6790    8.3732   17.8003 C   0  0  0  0  0  0  0  0  0  0  0  0
   24.4000    7.2267   17.4885 C   0  0  0  0  0  0  0  0  0  0  0  0
   24.8741    7.0523   16.2015 O   0  0  0  0  0  0  0  0  0  0  0  0
   24.6486    7.9826   15.2130 C   0  0  0  0  0  0  0  0  0  0  0  0
   23.9313    9.1559   15.4693 C   0  0  0  0  0  0  0  0  0  0  0  0
   23.4305    9.3843   16.7424 C   0  0  0  0  0  0  0  0  0  0  0  0
   24.1014    4.8480   23.0418 O   0  0  0  0  0  0  0  0  0  0  0  0
   25.1046    7.7746   14.0667 O   0  0  0  0  0  0  0  0  0  0  0  0
   22.6458   10.6249   17.0643 C   0  0  0  0  0  0  0  0  0  0  0  0
   23.7711    4.9923   23.9067 H   0  0  0  0  0  0  0  0  0  0  0  0
   25.0745    4.3377   20.6166 N   0  0  0  0  0  0  0  0  0  0  0  0
   26.2479    4.2271   20.9387 O   0  0  0  0  0  0  0  0  0  0  0  0
   24.4931    3.3890   20.1225 O   0  0  0  0  0  0  0  0  0  0  0  0
  1  2  2  0  0  0
  1  4  1  0  0  0
 19 20  1  0  0  0
 19  3  1  0  0  0
 19 21  2  0  0  0
  2  3  1  0  0  0
  2 15  1  0  0  0
  3  6  2  0  0  0
  4  5  2  0  0  0
  5  6  1  0  0  0
  5  8  1  0  0  0
  6  7  1  0  0  0
  7 10  2  0  0  0
  8  9  2  0  0  0
  9 10  1  0  0  0
  9 14  1  0  0  0
 10 11  1  0  0  0
 11 12  1  0  0  0
 12 13  1  0  0  0
 12 16  2  0  0  0
 13 14  2  0  0  0
 14 17  1  0  0  0
 15 18  1  0  0  0
M  CHG 1  19   1
M  CHG 1  20  -1
M  END
> <minimizedAffinity>
-9.53717

$$$$
3PWD_CZ0_A_1


 21 23  0  0  0  0  0  0  0  0999 V2000
   26.5617    4.6910   16.9385 C   0  0  0  0  0  0  0  0  0  0  0  0
   26.3725    4.0171   18.1327 C   0  0  0  0  0  0  0  0  0  0  0  0
   25.5467    4.5318   19.1109 C   0  0  0  0  0  0  0  0  0  0  0  0
   25.9111    5.8945   16.7216 C   0  0  0  0  0  0  0  0  0  0  0  0
   25.0762    6.4168   17.6954 C   0  0  0  0  0  0  0  0  0  0  0  0
   24.8857    5.7460   18.9033 C   0  0  0  0  0  0  0  0  0  0  0  0
   24.0351    6.2992   19.8689 C   0  0  0  0  0  0  0  0  0  0  0  0
   24.4263    7.6222   17.4507 C   0  0  0  0  0  0  0  0  0  0  0  0
   23.5847    8.1662   18.4131 C   0  0  0  0  0  0  0  0  0  0  0  0
   23.3813    7.5133   19.6231 C   0  0  0  0  0  0  0  0  0  0  0  0
   22.5392    8.0757   20.5644 O   0  0  0  0  0  0  0  0  0  0  0  0
   21.8963    9.2714   20.3403 C   0  0  0  0  0  0  0  0  0  0  0  0
   22.0618    9.9720   19.1409 C   0  0  0  0  0  0  0  0  0  0  0  0
   22.8957    9.4563   18.1599 C   0  0  0  0  0  0  0  0  0  0  0  0
   26.9938    2.8321   18.3492 O   0  0  0  0  0  0  0  0  0  0  0  0
   21.1424    9.7319   21.2263 O   0  0  0  0  0  0  0  0  0  0  0  0
   23.1129   10.1764   16.8588 C   0  0  0  0  0  0  0  0  0  0  0  0
   27.5572    2.4716   17.6930 H   0  0  0  0  0  0  0  0  0  0  0  0
   25.4229    3.7737   20.2818 N   0  0  0  0  0  0  0  0  0  0  0  0
   24.4884    3.0084   20.4653 O   0  0  0  0  0  0  0  0  0  0  0  0
   26.2836    3.8897   21.1349 O   0  0  0  0  0  0  0  0  0  0  0  0
  1  2  2  0  0  0
  1  4  1  0  0  0
 19 20  1  0  0  0
 19  3  1  0  0  0
 19 21  2  0  0  0
  2  3  1  0  0  0
  2 15  1  0  0  0
  3  6  2  0  0  0
  4  5  2  0  0  0
  5  6  1  0  0  0
  5  8  1  0  0  0
  6  7  1  0  0  0
  7 10  2  0  0  0
  8  9  2  0  0  0
  9 10  1  0  0  0
  9 14  1  0  0  0
 10 11  1  0  0  0
 11 12  1  0  0  0
 12 13  1  0  0  0
 12 16  2  0  0  0
 13 14  2  0  0  0
 14 17  1  0  0  0
 15 18  1  0  0  0
M  CHG 1  19   1
M  CHG 1  20  -1
M  END
> <minimizedAffinity>
-9.39894

$$$$
3PWD_CZ0_A_1


 21 23  0  0  0  0  0  0  0  0999 V2000
   23.3539    6.0393   22.7195 C   0  0  0  0  0  0  0  0  0  0  0  0
   22.5767    6.9675   23.3906 C   0  0  0  0  0  0  0  0  0  0  0  0
   22.1274    8.1056   22.7529 C   0  0  0  0  0  0  0  0  0  0  0  0
   23.6812    6.2538   21.3908 C   0  0  0  0  0  0  0  0  0  0  0  0
   23.2308    7.3906   20.7405 C   0  0  0  0  0  0  0  0  0  0  0  0
   22.4524    8.3329   21.4124 C   0  0  0  0  0  0  0  0  0  0  0  0
   22.0116    9.4728   20.7278 C   0  0  0  0  0  0  0  0  0  0  0  0
   23.5646    7.5794   19.4032 C   0  0  0  0  0  0  0  0  0  0  0  0
   23.1252    8.7129   18.7303 C   0  0  0  0  0  0  0  0  0  0  0  0
   22.3482    9.6635   19.3817 C   0  0  0  0  0  0  0  0  0  0  0  0
   21.9238   10.7827   18.6898 O   0  0  0  0  0  0  0  0  0  0  0  0
   22.2531   10.9876   17.3696 C   0  0  0  0  0  0  0  0  0  0  0  0
   23.0307   10.0642   16.6628 C   0  0  0  0  0  0  0  0  0  0  0  0
   23.4858    8.9227   17.3058 C   0  0  0  0  0  0  0  0  0  0  0  0
   22.2395    6.7602   24.6870 O   0  0  0  0  0  0  0  0  0  0  0  0
   21.8381   12.0169   16.7920 O   0  0  0  0  0  0  0  0  0  0  0  0
   24.3317    7.9063   16.5918 C   0  0  0  0  0  0  0  0  0  0  0  0
   22.5381    5.9914   25.1316 H   0  0  0  0  0  0  0  0  0  0  0  0
   21.3487    8.9812   23.5195 N   0  0  0  0  0  0  0  0  0  0  0  0
   20.1303    8.9007   23.5619 O   0  0  0  0  0  0  0  0  0  0  0  0
   21.9184    9.8444   24.1617 O   0  0  0  0  0  0  0  0  0  0  0  0
  1  2  2  0  0  0
  1  4  1  0  0  0
 19 20  1  0  0  0
 19  3  1  0  0  0
 19 21  2  0  0  0
  2  3  1  0  0  0
  2 15  1  0  0  0
  3  6  2  0  0  0
  4  5  2  0  0  0
  5  6  1  0  0  0
  5  8  1  0  0  0
  6  7  1  0  0  0
  7 10  2  0  0  0
  8  9  2  0  0  0
  9 10  1  0  0  0
  9 14  1  0  0  0
 10 11  1  0  0  0
 11 12  1  0  0  0
 12 13  1  0  0  0
 12 16  2  0  0  0
 13 14  2  0  0  0
 14 17  1  0  0  0
 15 18  1  0  0  0
M  CHG 1  19   1
M  CHG 1  20  -1
M  END
> <minimizedAffinity>
-9.18853

$$$$
3PWD_CZ0_A_1


 21 23  0  0  0  0  0  0  0  0999 V2000
   21.4201    9.4084   22.4316 C   0  0  0  0  0  0  0  0  0  0  0  0
   22.0624    8.2475   22.8263 C   0  0  0  0  0  0  0  0  0  0  0  0
   22.8191    7.5196   21.9311 C   0  0  0  0  0  0  0  0  0  0  0  0
   21.5418    9.8465   21.1233 C   0  0  0  0  0  0  0  0  0  0  0  0
   22.3033    9.1257   20.2185 C   0  0  0  0  0  0  0  0  0  0  0  0
   22.9482    7.9519   20.6080 C   0  0  0  0  0  0  0  0  0  0  0  0
   23.7114    7.2446   19.6703 C   0  0  0  0  0  0  0  0  0  0  0  0
   22.4183    9.5908   18.9125 C   0  0  0  0  0  0  0  0  0  0  0  0
   23.1759    8.8838   17.9869 C   0  0  0  0  0  0  0  0  0  0  0  0
   23.8267    7.7123   18.3550 C   0  0  0  0  0  0  0  0  0  0  0  0
   24.5742    7.0272   17.4151 O   0  0  0  0  0  0  0  0  0  0  0  0
   24.6903    7.4700   16.1176 C   0  0  0  0  0  0  0  0  0  0  0  0
   24.0591    8.6432   15.6908 C   0  0  0  0  0  0  0  0  0  0  0  0
   23.2948    9.3718   16.5901 C   0  0  0  0  0  0  0  0  0  0  0  0
   21.9608    7.8175   24.1078 O   0  0  0  0  0  0  0  0  0  0  0  0
   25.3832    6.8118   15.3101 O   0  0  0  0  0  0  0  0  0  0  0  0
   22.5900   10.6331   16.1769 C   0  0  0  0  0  0  0  0  0  0  0  0
   21.4500    8.3026   24.7256 H   0  0  0  0  0  0  0  0  0  0  0  0
   23.4274    6.3610   22.4295 N   0  0  0  0  0  0  0  0  0  0  0  0
   24.6399    6.2109   22.4283 O   0  0  0  0  0  0  0  0  0  0  0  0
   22.7119    5.4839   22.8778 O   0  0  0  0  0  0  0  0  0  0  0  0
  1  2  2  0  0  0
  1  4  1  0  0  0
 19 20  1  0  0  0
 19  3  1  0  0  0
 19 21  2  0  0  0
  2  3  1  0  0  0
  2 15  1  0  0  0
  3  6  2  0  0  0
  4  5  2  0  0  0
  5  6  1  0  0  0
  5  8  1  0  0  0
  6  7  1  0  0  0
  7 10  2  0  0  0
  8  9  2  0  0  0
  9 10  1  0  0  0
  9 14  1  0  0  0
 10 11  1  0  0  0
 11 12  1  0  0  0
 12 13  1  0  0  0
 12 16  2  0  0  0
 13 14  2  0  0  0
 14 17  1  0  0  0
 15 18  1  0  0  0
M  CHG 1  19   1
M  CHG 1  20  -1
M  END
> <minimizedAffinity>
-9.14130

$$$$
3PWD_CZ0_A_1


 21 23  0  0  0  0  0  0  0  0999 V2000
   23.6686    5.9699   22.7127 C   0  0  0  0  0  0  0  0  0  0  0  0
   22.8270    7.0403   22.9616 C   0  0  0  0  0  0  0  0  0  0  0  0
   22.5104    7.9372   21.9620 C   0  0  0  0  0  0  0  0  0  0  0  0
   24.1961    5.7951   21.4439 C   0  0  0  0  0  0  0  0  0  0  0  0
   23.8802    6.6870   20.4326 C   0  0  0  0  0  0  0  0  0  0  0  0
   23.0377    7.7711   20.6780 C   0  0  0  0  0  0  0  0  0  0  0  0
   22.7365    8.6562   19.6349 C   0  0  0  0  0  0  0  0  0  0  0  0
   24.4147    6.4852   19.1642 C   0  0  0  0  0  0  0  0  0  0  0  0
   24.1130    7.3675   18.1341 C   0  0  0  0  0  0  0  0  0  0  0  0
   23.2751    8.4536   18.3579 C   0  0  0  0  0  0  0  0  0  0  0  0
   22.9907    9.3170   17.3163 O   0  0  0  0  0  0  0  0  0  0  0  0
   23.5185    9.1354   16.0586 C   0  0  0  0  0  0  0  0  0  0  0  0
   24.3660    8.0593   15.7746 C   0  0  0  0  0  0  0  0  0  0  0  0
   24.6875    7.1609   16.7812 C   0  0  0  0  0  0  0  0  0  0  0  0
   22.2947    7.2126   24.1962 O   0  0  0  0  0  0  0  0  0  0  0  0
   23.2238    9.9462   15.1525 O   0  0  0  0  0  0  0  0  0  0  0  0
   25.6009    5.9948   16.5276 C   0  0  0  0  0  0  0  0  0  0  0  0
   22.5017    6.6107   24.8838 H   0  0  0  0  0  0  0  0  0  0  0  0
   21.6515    8.9850   22.3162 N   0  0  0  0  0  0  0  0  0  0  0  0
   20.4482    8.9373   22.1104 O   0  0  0  0  0  0  0  0  0  0  0  0
   22.1337    9.9681   22.8482 O   0  0  0  0  0  0  0  0  0  0  0  0
  1  2  2  0  0  0
  1  4  1  0  0  0
 19 20  1  0  0  0
 19  3  1  0  0  0
 19 21  2  0  0  0
  2  3  1  0  0  0
  2 15  1  0  0  0
  3  6  2  0  0  0
  4  5  2  0  0  0
  5  6  1  0  0  0
  5  8  1  0  0  0
  6  7  1  0  0  0
  7 10  2  0  0  0
  8  9  2  0  0  0
  9 10  1  0  0  0
  9 14  1  0  0  0
 10 11  1  0  0  0
 11 12  1  0  0  0
 12 13  1  0  0  0
 12 16  2  0  0  0
 13 14  2  0  0  0
 14 17  1  0  0  0
 15 18  1  0  0  0
M  CHG 1  19   1
M  CHG 1  20  -1
M  END
> <minimizedAffinity>
-8.91845

$$$$
3PWD_CZ0_A_1


 21 23  0  0  0  0  0  0  0  0999 V2000
   25.9061    5.4960   16.6633 C   0  0  0  0  0  0  0  0  0  0  0  0
   26.1447    4.4597   17.5495 C   0  0  0  0  0  0  0  0  0  0  0  0
   25.6212    4.4871   18.8258 C   0  0  0  0  0  0  0  0  0  0  0  0
   25.1292    6.5714   17.0617 C   0  0  0  0  0  0  0  0  0  0  0  0
   24.5950    6.6057   18.3390 C   0  0  0  0  0  0  0  0  0  0  0  0
   24.8365    5.5677   19.2389 C   0  0  0  0  0  0  0  0  0  0  0  0
   24.2826    5.6307   20.5239 C   0  0  0  0  0  0  0  0  0  0  0  0
   23.8102    7.6918   18.7128 C   0  0  0  0  0  0  0  0  0  0  0  0
   23.2646    7.7487   19.9894 C   0  0  0  0  0  0  0  0  0  0  0  0
   23.4930    6.7245   20.9007 C   0  0  0  0  0  0  0  0  0  0  0  0
   22.9389    6.8051   22.1649 O   0  0  0  0  0  0  0  0  0  0  0  0
   22.1678    7.8769   22.5520 C   0  0  0  0  0  0  0  0  0  0  0  0
   21.9030    8.9355   21.6767 C   0  0  0  0  0  0  0  0  0  0  0  0
   22.4334    8.9095   20.3955 C   0  0  0  0  0  0  0  0  0  0  0  0
   26.8922    3.3964   17.1650 O   0  0  0  0  0  0  0  0  0  0  0  0
   21.6884    7.8953   23.7075 O   0  0  0  0  0  0  0  0  0  0  0  0
   22.1850   10.0273   19.4222 C   0  0  0  0  0  0  0  0  0  0  0  0
   27.2535    3.3655   16.3010 H   0  0  0  0  0  0  0  0  0  0  0  0
   25.9213    3.3912   19.6442 N   0  0  0  0  0  0  0  0  0  0  0  0
   25.2492    2.3709   19.6373 O   0  0  0  0  0  0  0  0  0  0  0  0
   26.8880    3.4712   20.3798 O   0  0  0  0  0  0  0  0  0  0  0  0
  1  2  2  0  0  0
  1  4  1  0  0  0
 19 20  1  0  0  0
 19  3  1  0  0  0
 19 21  2  0  0  0
  2  3  1  0  0  0
  2 15  1  0  0  0
  3  6  2  0  0  0
  4  5  2  0  0  0
  5  6  1  0  0  0
  5  8  1  0  0  0
  6  7  1  0  0  0
  7 10  2  0  0  0
  8  9  2  0  0  0
  9 10  1  0  0  0
  9 14  1  0  0  0
 10 11  1  0  0  0
 11 12  1  0  0  0
 12 13  1  0  0  0
 12 16  2  0  0  0
 13 14  2  0  0  0
 14 17  1  0  0  0
 15 18  1  0  0  0
M  CHG 1  19   1
M  CHG 1  20  -1
M  END
> <minimizedAffinity>
-8.61295

$$$$
3PWD_CZ0_A_1


 21 23  0  0  0  0  0  0  0  0999 V2000
   21.4033   10.0768   20.8200 C   0  0  0  0  0  0  0  0  0  0  0  0
   21.5053    9.1398   21.8338 C   0  0  0  0  0  0  0  0  0  0  0  0
   22.2471    7.9894   21.6605 C   0  0  0  0  0  0  0  0  0  0  0  0
   22.0572    9.8585   19.6186 C   0  0  0  0  0  0  0  0  0  0  0  0
   22.8085    8.7093   19.4367 C   0  0  0  0  0  0  0  0  0  0  0  0
   22.9105    7.7583   20.4519 C   0  0  0  0  0  0  0  0  0  0  0  0
   23.6778    6.6060   20.2382 C   0  0  0  0  0  0  0  0  0  0  0  0
   23.4638    8.5169   18.2248 C   0  0  0  0  0  0  0  0  0  0  0  0
   24.2223    7.3712   18.0188 C   0  0  0  0  0  0  0  0  0  0  0  0
   24.3370    6.4117   19.0178 C   0  0  0  0  0  0  0  0  0  0  0  0
   25.0976    5.2803   18.7878 O   0  0  0  0  0  0  0  0  0  0  0  0
   25.7444    5.0718   17.5913 C   0  0  0  0  0  0  0  0  0  0  0  0
   25.6663    6.0036   16.5509 C   0  0  0  0  0  0  0  0  0  0  0  0
   24.9166    7.1575   16.7244 C   0  0  0  0  0  0  0  0  0  0  0  0
   20.8804    9.3504   23.0181 O   0  0  0  0  0  0  0  0  0  0  0  0
   26.4223    4.0313   17.4398 O   0  0  0  0  0  0  0  0  0  0  0  0
   24.7947    8.1835   15.6330 C   0  0  0  0  0  0  0  0  0  0  0  0
   20.3735   10.1275   23.1487 H   0  0  0  0  0  0  0  0  0  0  0  0
   22.2864    7.1058   22.7460 N   0  0  0  0  0  0  0  0  0  0  0  0
   23.3307    6.8120   23.3080 O   0  0  0  0  0  0  0  0  0  0  0  0
   21.2374    6.6243   23.1331 O   0  0  0  0  0  0  0  0  0  0  0  0
  1  2  2  0  0  0
  1  4  1  0  0  0
 19 20  1  0  0  0
 19  3  1  0  0  0
 19 21  2  0  0  0
  2  3  1  0  0  0
  2 15  1  0  0  0
  3  6  2  0  0  0
  4  5  2  0  0  0
  5  6  1  0  0  0
  5  8  1  0  0  0
  6  7  1  0  0  0
  7 10  2  0  0  0
  8  9  2  0  0  0
  9 10  1  0  0  0
  9 14  1  0  0  0
 10 11  1  0  0  0
 11 12  1  0  0  0
 12 13  1  0  0  0
 12 16  2  0  0  0
 13 14  2  0  0  0
 14 17  1  0  0  0
 15 18  1  0  0  0
M  CHG 1  19   1
M  CHG 1  20  -1
M  END
> <minimizedAffinity>
-8.54415

$$$$
3PWD_CZ0_A_1


 21 23  0  0  0  0  0  0  0  0999 V2000
   21.8224    7.9606   22.9076 C   0  0  0  0  0  0  0  0  0  0  0  0
   21.7654    6.6562   23.3672 C   0  0  0  0  0  0  0  0  0  0  0  0
   22.3648    5.6322   22.6628 C   0  0  0  0  0  0  0  0  0  0  0  0
   22.4926    8.2417   21.7284 C   0  0  0  0  0  0  0  0  0  0  0  0
   23.1019    7.2216   21.0169 C   0  0  0  0  0  0  0  0  0  0  0  0
   23.0431    5.9042   21.4711 C   0  0  0  0  0  0  0  0  0  0  0  0
   23.6691    4.8940   20.7296 C   0  0  0  0  0  0  0  0  0  0  0  0
   23.7772    7.5300   19.8404 C   0  0  0  0  0  0  0  0  0  0  0  0
   24.3950    6.5231   19.1089 C   0  0  0  0  0  0  0  0  0  0  0  0
   24.3484    5.2042   19.5447 C   0  0  0  0  0  0  0  0  0  0  0  0
   24.9710    4.2207   18.7986 O   0  0  0  0  0  0  0  0  0  0  0  0
   25.6353    4.5090   17.6286 C   0  0  0  0  0  0  0  0  0  0  0  0
   25.7164    5.8182   17.1425 C   0  0  0  0  0  0  0  0  0  0  0  0
   25.1096    6.8462   17.8487 C   0  0  0  0  0  0  0  0  0  0  0  0
   21.1237    6.3725   24.5269 O   0  0  0  0  0  0  0  0  0  0  0  0
   26.1840    3.5795   16.9960 O   0  0  0  0  0  0  0  0  0  0  0  0
   25.1611    8.2672   17.3623 C   0  0  0  0  0  0  0  0  0  0  0  0
   20.7125    7.0587   25.0149 H   0  0  0  0  0  0  0  0  0  0  0  0
   22.2494    4.3493   23.2121 N   0  0  0  0  0  0  0  0  0  0  0  0
   23.1293    3.8551   23.9007 O   0  0  0  0  0  0  0  0  0  0  0  0
   21.2321    3.7186   22.9897 O   0  0  0  0  0  0  0  0  0  0  0  0
  1  2  2  0  0  0
  1  4  1  0  0  0
 19 20  1  0  0  0
 19  3  1  0  0  0
 19 21  2  0  0  0
  2  3  1  0  0  0
  2 15  1  0  0  0
  3  6  2  0  0  0
  4  5  2  0  0  0
  5  6  1  0  0  0
  5  8  1  0  0  0
  6  7  1  0  0  0
  7 10  2  0  0  0
  8  9  2  0  0  0
  9 10  1  0  0  0
  9 14  1  0  0  0
 10 11  1  0  0  0
 11 12  1  0  0  0
 12 13  1  0  0  0
 12 16  2  0  0  0
 13 14  2  0  0  0
 14 17  1  0  0  0
 15 18  1  0  0  0
M  CHG 1  19   1
M  CHG 1  20  -1
M  END
> <minimizedAffinity>
-8.39733

$$$$
